data_PCOD9456315
_publ_section_title
;
Structure prediction by ZEFSAII (Michael W. Deem and Ramdas Pophale) SiO2 
 PCOD9456315
Probable space group: P B C N
;
_chemical_formula_sum "Si O2"
_cell_formula_units_Z 60
_cell_length_a 27.280956
_cell_length_b 5.423583
_cell_length_c 17.703135
_cell_angle_alpha 90.000000
_cell_angle_beta 90.000000
_cell_angle_gamma 90.000000
_cell_volume 2619.365223
_symmetry_space_group_name_H-M "P B C N"
_symmetry_group_IT_number 60
_symmetry_cell_setting 'orthorhombic'
loop_
_space_group_symop_operation_xyz
x,y,z
1/2-x,1/2-y,1/2+z
1/2+x,1/2-y,-z
-x,y,1/2-z
-x,-y,-z
1/2+x,1/2+y,1/2-z
1/2-x,1/2+y,z
x,-y,1/2+z
loop_
_atom_site_type_symbol
_atom_site_label
_atom_site_fract_x
_atom_site_fract_y
_atom_site_fract_z
Si Si1 0.875873 0.501080 0.091916
Si Si2 0.392262 0.046994 0.734854
Si Si3 0.000000 0.418371 0.750000
Si Si4 0.980434 0.760745 0.090218
Si Si5 0.127026 0.037128 0.644240
Si Si6 0.775996 0.692303 0.036374
Si Si7 0.237306 0.846041 0.132627
Si Si8 0.069127 0.161832 0.503841
O O1 0.870006 0.455041 0.180810
O O2 0.930263 0.611391 0.082054
O O3 0.832235 0.665389 0.059892
O O4 0.883144 0.265493 0.038261
O O5 0.451011 0.078797 0.742156
O O6 0.386252 0.777811 0.695415
O O7 0.371720 0.279536 0.688905
O O8 0.006824 0.247635 0.822488
O O9 0.963966 0.023419 0.057759
O O10 0.029104 0.669092 0.047163
O O11 0.180809 0.107805 0.614810
O O12 0.090020 0.005898 0.574208
O O13 0.748145 0.445544 0.064179
O O14 0.767924 0.680310 0.945363
O O15 0.243117 0.587186 0.174520
#
# Coordination Sequence:
#
# PCOD9456315 Si02
#       8
#     8   8   4   8   8   8   8   8
#     4  11  26  44  73 101 150 186 251 292 370 431
#     4  11  28  46  74 104 150 203 236 290 367 446
#     4  10  22  50  66 100 160 200 238 278 370 442
#     4  10  24  41  69 108 146 193 238 297 356 430
#     4  12  26  47  72 107 147 189 250 301 367 433
#     4  10  23  42  69 102 132 181 234 296 366 414
#     4  10  21  40  69 100 134 179 232 298 369 414
#     4  11  24  40  72 108 144 188 248 308 348 426
#
# _framework density 22.906313000000001
#
# number of rings (size 3 to 8) (size 9 to 14) (size 15 to 20)
#    0.000    1.333    1.333    2.800   11.200    4.800 
#    0.000    4.000    0.000    0.000    0.000    0.000 
#    0.000    0.000    0.000    0.000    0.000    0.000 
#
# Total GULP energy -335066.326043 kJ/mol
# GULP energy per Si atom -5584.438767 kJ/mol
# Density = 2.285418 g / cm^3
# Si number density = 22.906313 Si / 1000 Ang^3
#
#
#
# Elastic Constant Matrix: (Units=GPa)
#
#
# Indices 1 2 3 4 5 6 
#
# 1 75.4891 8.6807 27.3367 0.0000 0.0000 0.0000
# 2 8.6807 104.8942 29.1367 0.0000 0.0000 0.0000
# 3 27.3367 29.1367 111.5146 0.0000 0.0000 0.0000
# 4 0.0000 0.0000 0.0000 12.2451 0.0000 0.0000
# 5 0.0000 0.0000 0.0000 0.0000 23.3071 0.0000
# 6 0.0000 0.0000 0.0000 0.0000 0.0000 25.5800
#
#
#
# Elastic Compliance Matrix: (Units=1/GPa)
#
#
# Indices 1 2 3 4 5 6 
#
# 1 0.014543 -0.000230 -0.003505 0.000000 0.000000 0.000000
# 2 -0.000230 0.010283 -0.002630 0.000000 0.000000 0.000000
# 3 -0.003505 -0.002630 0.010514 0.000000 0.000000 0.000000
# 4 0.000000 0.000000 0.000000 0.081665 0.000000 0.000000
# 5 0.000000 0.000000 0.000000 0.000000 0.042905 0.000000
# 6 0.000000 0.000000 0.000000 0.000000 0.000000 0.039093
#
#
# Mechanical properties :
#
#
# Convention : Reuss Voigt Hill
#
# Bulk Modulus (GPa) = 44.22995 46.91179 45.57087
# Shear Modulus (GPa) = 22.80291 27.34269 25.07280
#
# Velocity S-wave (km/s) = 3.15855 3.45871 3.31203
# Velocity P-wave (km/s) = 5.71428 6.03941 5.87909
#
# Compressibility (1/GPa) = 0.02260911
#
# Stress axis : x y z
#
# Youngs Moduli (GPa) = 68.76346 97.24696 95.11219
#
# Poissons Ratio (x) = 0.02236 0.33336
# Poissons Ratio (y) = 0.01581 0.25018
# Poissons Ratio (z) = 0.24101 0.25580
#
# Static dielectric constant tensor:
#      x y z
#    x 1.875680 0.000000 0.000000 
#    y 0.000000 2.028590 0.000000 
#    z 0.000000 0.000000 1.834150 
# 
# From -- ./inp_files/21224.got.cif
#   From: 2010.05.17/outbox.cif.g08.bks.cpg/sg60_11_cif.got.tgz:21224.got - 2010.06.03 14:59:27.
