data_PCOD9456386
_publ_section_title
;
Structure prediction by ZEFSAII (Michael W. Deem and Ramdas Pophale) SiO2 
 PCOD9456386
Probable space group: P B C N
;
_chemical_formula_sum "Si O2"
_cell_formula_units_Z 40
_cell_length_a 9.311444
_cell_length_b 14.328934
_cell_length_c 12.142993
_cell_angle_alpha 90.000000
_cell_angle_beta 90.000000
_cell_angle_gamma 90.000000
_cell_volume 1620.155363
_symmetry_space_group_name_H-M "P B C N"
_symmetry_group_IT_number 60
_symmetry_cell_setting 'orthorhombic'
loop_
_space_group_symop_operation_xyz
x,y,z
1/2-x,1/2-y,1/2+z
1/2+x,1/2-y,-z
-x,y,1/2-z
-x,-y,-z
1/2+x,1/2+y,1/2-z
1/2-x,1/2+y,z
x,-y,1/2+z
loop_
_atom_site_type_symbol
_atom_site_label
_atom_site_fract_x
_atom_site_fract_y
_atom_site_fract_z
Si Si1 0.759584 0.191095 0.941680
Si Si2 0.882642 0.521784 0.169091
Si Si3 0.034084 0.706943 0.380270
Si Si4 0.840642 0.157421 0.296402
Si Si5 0.670763 0.482348 0.990009
O O1 0.691258 0.236396 0.831604
O O2 0.767003 0.079148 0.940006
O O3 0.918833 0.231674 0.943741
O O4 0.680476 0.223759 0.053226
O O5 0.984185 0.594986 0.102529
O O6 0.775407 0.600311 0.223726
O O7 0.000000 0.475949 0.250000
O O8 0.769824 0.464623 0.097264
O O9 0.000000 0.726756 0.250000
O O10 0.000000 0.146591 0.250000
O O11 0.822856 0.103605 0.410016
O O12 0.500000 0.500000 0.000000
#
# Coordination Sequence:
#
# PCOD9456386 Si02
#       5
#     8   8   8   8   8
#     4  11  24  43  73 106 143 203 253 309 395 467
#     4  10  21  45  67 104 153 198 245 327 391 452
#     4  10  21  41  66  99 146 186 242 307 372 451
#     4  12  24  45  76 105 153 200 254 325 387 477
#     4  11  24  44  72 109 149 201 268 317 397 479
#
# _framework density 24.688988999999999
#
# number of rings (size 3 to 8) (size 9 to 14) (size 15 to 20)
#    0.000    1.200    6.000    1.200    2.800    1.600 
#    3.600    1.000    0.000    0.000    0.000    0.000 
#    0.000    0.000    0.000    0.000    0.000    0.000 
#
# Total GULP energy -223102.223510 kJ/mol
# GULP energy per Si atom -5577.555588 kJ/mol
# Density = 2.463280 g / cm^3
# Si number density = 24.688989 Si / 1000 Ang^3
#
#
#
# Elastic Constant Matrix: (Units=GPa)
#
#
# Indices 1 2 3 4 5 6 
#
# 1 158.5050 24.7620 63.7413 0.0000 0.0000 0.0000
# 2 24.7620 73.1382 26.3313 0.0000 0.0000 0.0000
# 3 63.7413 26.3313 99.5869 0.0000 0.0000 0.0000
# 4 0.0000 0.0000 0.0000 40.0551 0.0000 0.0000
# 5 0.0000 0.0000 0.0000 0.0000 57.2021 0.0000
# 6 0.0000 0.0000 0.0000 0.0000 0.0000 34.0187
#
#
#
# Elastic Compliance Matrix: (Units=1/GPa)
#
#
# Indices 1 2 3 4 5 6 
#
# 1 0.008564 -0.001024 -0.005211 0.000000 0.000000 0.000000
# 2 -0.001024 0.015234 -0.003373 0.000000 0.000000 0.000000
# 3 -0.005211 -0.003373 0.014269 0.000000 0.000000 0.000000
# 4 0.000000 0.000000 0.000000 0.024966 0.000000 0.000000
# 5 0.000000 0.000000 0.000000 0.000000 0.017482 0.000000
# 6 0.000000 0.000000 0.000000 0.000000 0.000000 0.029396
#
#
# Mechanical properties :
#
#
# Convention : Reuss Voigt Hill
#
# Bulk Modulus (GPa) = 53.04494 62.32214 57.68354
# Shear Modulus (GPa) = 36.92534 40.68155 38.80345
#
# Velocity S-wave (km/s) = 3.87152 4.06367 3.96876
# Velocity P-wave (km/s) = 6.44335 6.87863 6.66455
#
# Compressibility (1/GPa) = 0.01885194
#
# Stress axis : x y z
#
# Youngs Moduli (GPa) = 116.76191 65.64473 70.08370
#
# Poissons Ratio (x) = 0.06719 0.36521
# Poissons Ratio (y) = 0.11951 0.23637
# Poissons Ratio (z) = 0.60846 0.22140
#
# Static dielectric constant tensor:
#      x y z
#    x 2.176400 0.000000 0.000000 
#    y 0.000000 1.968700 0.000000 
#    z 0.000000 0.000000 2.083120 
# 
# From -- ./inp_files/9782.got.cif
#   From: 2010.05.17/outbox.cif.g08.bks.cpg/sg60_5_cif.got.tgz:9782.got - 2010.06.03 14:59:27.
