data_PCOD9456669
_publ_section_title
;
Structure prediction by ZEFSAII (Michael W. Deem and Ramdas Pophale) SiO2 
 PCOD9456669
Probable space group: P B C N
;
_chemical_formula_sum "Si O2"
_cell_formula_units_Z 60
_cell_length_a 10.511512
_cell_length_b 29.587651
_cell_length_c 8.603723
_cell_angle_alpha 90.000000
_cell_angle_beta 90.000000
_cell_angle_gamma 90.000000
_cell_volume 2675.852051
_symmetry_space_group_name_H-M "P B C N"
_symmetry_group_IT_number 60
_symmetry_cell_setting 'orthorhombic'
loop_
_space_group_symop_operation_xyz
x,y,z
1/2-x,1/2-y,1/2+z
1/2+x,1/2-y,-z
-x,y,1/2-z
-x,-y,-z
1/2+x,1/2+y,1/2-z
1/2-x,1/2+y,z
x,-y,1/2+z
loop_
_atom_site_type_symbol
_atom_site_label
_atom_site_fract_x
_atom_site_fract_y
_atom_site_fract_z
Si Si1 0.944799 0.066427 0.991664
Si Si2 0.986185 0.550033 0.566865
Si Si3 0.069744 0.835266 0.083483
Si Si4 0.124176 0.383372 0.857196
Si Si5 0.235868 0.099475 0.054133
Si Si6 0.500000 0.504438 0.250000
Si Si7 0.830292 0.803687 0.933140
Si Si8 0.274660 0.212066 0.411557
O O1 0.882229 0.113907 0.948761
O O2 0.097219 0.079510 0.008170
O O3 0.917286 0.037477 0.144229
O O4 0.923166 0.029823 0.857766
O O5 0.095904 0.581712 0.493447
O O6 0.000000 0.549121 0.750000
O O7 0.000000 0.500000 0.500000
O O8 0.848804 0.570365 0.518635
O O9 0.000000 0.833801 0.250000
O O10 0.178739 0.799436 0.052688
O O11 0.971007 0.823941 0.945792
O O12 0.239125 0.395837 0.739935
O O13 0.133468 0.331360 0.909681
O O14 0.000000 0.387238 0.750000
O O15 0.248331 0.152615 0.005861
O O16 0.789082 0.789886 0.759770
O O17 0.827928 0.760910 0.047126
#
# Coordination Sequence:
#
# PCOD9456669 Si02
#       8
#     8   8   8   8   8   4   8   8
#     4  10  22  39  59  89 123 160 204 253 311 367
#     4  11  23  40  61  89 121 160 208 258 305 370
#     4  11  23  40  62  89 131 163 209 263 305 377
#     4   9  21  41  63  89 122 158 205 258 307 368
#     4   9  21  41  61  84 123 162 199 254 312 366
#     4  10  22  38  58  88 122 158 206 254 300 372
#     4  10  23  40  63  93 123 161 208 257 316 384
#     4  11  23  41  67  94 122 170 206 256 327 372
#
# _framework density 22.422764000000001
#
# number of rings (size 3 to 8) (size 9 to 14) (size 15 to 20)
#    0.000    1.867    0.667    2.400    5.600    9.067 
#    2.400    0.000    0.000    0.000    0.000    0.000 
#    0.000    0.000    0.000    0.000    0.000    0.000 
#
# Total GULP energy -334999.314425 kJ/mol
# GULP energy per Si atom -5583.321907 kJ/mol
# Density = 2.237173 g / cm^3
# Si number density = 22.422764 Si / 1000 Ang^3
#
#
#
# Elastic Constant Matrix: (Units=GPa)
#
#
# Indices 1 2 3 4 5 6 
#
# 1 36.5516 28.2633 2.0689 0.0000 0.0000 0.0000
# 2 28.2633 179.8333 60.6811 0.0000 0.0000 0.0000
# 3 2.0689 60.6811 119.6293 0.0000 0.0000 0.0000
# 4 0.0000 0.0000 0.0000 33.3431 0.0000 0.0000
# 5 0.0000 0.0000 0.0000 0.0000 20.8850 0.0000
# 6 0.0000 0.0000 0.0000 0.0000 0.0000 21.7238
#
#
#
# Elastic Compliance Matrix: (Units=1/GPa)
#
#
# Indices 1 2 3 4 5 6 
#
# 1 0.031699 -0.005787 0.002387 0.000000 0.000000 0.000000
# 2 -0.005787 0.007766 -0.003839 0.000000 0.000000 0.000000
# 3 0.002387 -0.003839 0.010265 0.000000 0.000000 0.000000
# 4 0.000000 0.000000 0.000000 0.029991 0.000000 0.000000
# 5 0.000000 0.000000 0.000000 0.000000 0.047881 0.000000
# 6 0.000000 0.000000 0.000000 0.000000 0.000000 0.046032
#
#
# Mechanical properties :
#
#
# Convention : Reuss Voigt Hill
#
# Bulk Modulus (GPa) = 28.36765 57.56009 42.96387
# Shear Modulus (GPa) = 25.01715 31.52376 28.27046
#
# Velocity S-wave (km/s) = 3.34384 3.75358 3.55462
# Velocity P-wave (km/s) = 5.25234 6.67172 6.00412
#
# Compressibility (1/GPa) = 0.03525142
#
# Stress axis : x y z
#
# Youngs Moduli (GPa) = 31.54713 128.77182 97.41679
#
# Poissons Ratio (x) = 0.74526 -0.23258
# Poissons Ratio (y) = 0.18258 0.37398
# Poissons Ratio (z) = -0.07532 0.49435
#
# Static dielectric constant tensor:
#      x y z
#    x 1.869610 0.000000 0.000000 
#    y 0.000000 1.802660 0.000000 
#    z 0.000000 0.000000 1.858610 
# 
# From -- ./inp_files/5230.got.cif
#   From: 2010.05.17/outbox.cif.g08.bks.cpg/sg60_3_cif.got.tgz:5230.got - 2010.06.03 14:59:27.
