data_PCOD9456144
_publ_section_title
;
Structure prediction by ZEFSAII (Michael W. Deem and Ramdas Pophale) SiO2 
 PCOD9456144
Probable space group: P B C N
;
_chemical_formula_sum "Si O2"
_cell_formula_units_Z 40
_cell_length_a 18.249749
_cell_length_b 5.024559
_cell_length_c 17.494754
_cell_angle_alpha 90.000000
_cell_angle_beta 90.000000
_cell_angle_gamma 90.000000
_cell_volume 1604.215418
_symmetry_space_group_name_H-M "P B C N"
_symmetry_group_IT_number 60
_symmetry_cell_setting 'orthorhombic'
loop_
_space_group_symop_operation_xyz
x,y,z
1/2-x,1/2-y,1/2+z
1/2+x,1/2-y,-z
-x,y,1/2-z
-x,-y,-z
1/2+x,1/2+y,1/2-z
1/2-x,1/2+y,z
x,-y,1/2+z
loop_
_atom_site_type_symbol
_atom_site_label
_atom_site_fract_x
_atom_site_fract_y
_atom_site_fract_z
Si Si1 0.795900 0.695411 0.757313
Si Si2 0.697703 0.869947 0.083788
Si Si3 0.411452 0.214101 0.617329
Si Si4 0.498081 0.268589 0.339199
Si Si5 0.084035 0.018288 0.969145
O O1 0.725743 0.503489 0.763654
O O2 0.826119 0.642954 0.672848
O O3 0.849721 0.619801 0.824786
O O4 0.762112 0.649571 0.072474
O O5 0.629152 0.753769 0.036885
O O6 0.449406 0.474489 0.653941
O O7 0.381436 0.301894 0.535403
O O8 0.470465 0.980188 0.613914
O O9 0.500000 0.194582 0.250000
O O10 0.424653 0.356477 0.384502
O O11 0.000000 0.000000 0.000000
#
# Coordination Sequence:
#
# PCOD9456144 Si02
#       5
#     8   8   8   8   8
#     4  10  21  39  62  90 124 167 216 265 319 390
#     4  10  23  41  65  93 127 172 221 271 330 400
#     4  11  23  39  61  92 125 163 210 268 327 384
#     4  11  23  40  63  90 123 167 213 264 321 389
#     4  10  24  43  65  97 136 173 219 276 339 403
#
# _framework density 24.934305999999999
#
# number of rings (size 3 to 8) (size 9 to 14) (size 15 to 20)
#    0.000    1.600    0.000    3.600    0.000   12.800 
#    0.000    0.000    0.000    0.000    0.000    0.000 
#    0.000    0.000    0.000    0.000    0.000    0.000 
#
# Total GULP energy -223903.430448 kJ/mol
# GULP energy per Si atom -5597.585761 kJ/mol
# Density = 2.487755 g / cm^3
# Si number density = 24.934306 Si / 1000 Ang^3
#
#
#
# Elastic Constant Matrix: (Units=GPa)
#
#
# Indices 1 2 3 4 5 6 
#
# 1 54.0860 -6.5043 40.3377 0.0000 0.0000 0.0000
# 2 -6.5043 85.0914 12.0418 0.0000 0.0000 0.0000
# 3 40.3377 12.0418 89.7347 0.0000 0.0000 0.0000
# 4 0.0000 0.0000 0.0000 27.9021 0.0000 0.0000
# 5 0.0000 0.0000 0.0000 0.0000 48.0827 0.0000
# 6 0.0000 0.0000 0.0000 0.0000 0.0000 49.1890
#
#
#
# Elastic Compliance Matrix: (Units=1/GPa)
#
#
# Indices 1 2 3 4 5 6 
#
# 1 0.029195 0.004168 -0.013683 0.000000 0.000000 0.000000
# 2 0.004168 0.012575 -0.003561 0.000000 0.000000 0.000000
# 3 -0.013683 -0.003561 0.017773 0.000000 0.000000 0.000000
# 4 0.000000 0.000000 0.000000 0.035840 0.000000 0.000000
# 5 0.000000 0.000000 0.000000 0.000000 0.020798 0.000000
# 6 0.000000 0.000000 0.000000 0.000000 0.000000 0.020330
#
#
# Mechanical properties :
#
#
# Convention : Reuss Voigt Hill
#
# Bulk Modulus (GPa) = 29.94890 35.62916 32.78903
# Shear Modulus (GPa) = 28.76997 37.23722 33.00360
#
# Velocity S-wave (km/s) = 3.40049 3.86866 3.64211
# Velocity P-wave (km/s) = 5.23975 5.85454 5.55566
#
# Compressibility (1/GPa) = 0.03339021
#
# Stress axis : x y z
#
# Youngs Moduli (GPa) = 34.25194 79.52527 56.26583
#
# Poissons Ratio (x) = -0.33147 0.76990
# Poissons Ratio (y) = -0.14276 0.20037
# Poissons Ratio (z) = 0.46868 0.28319
#
# Static dielectric constant tensor:
#      x y z
#    x 2.027510 0.000000 0.000000 
#    y 0.000000 1.964090 0.000000 
#    z 0.000000 0.000000 2.006070 
# 
# From -- ./inp_files/20733.got.cif
#   From: 2010.05.17/outbox.cif.g08.bks.cpg/sg60_11_cif.got.tgz:20733.got - 2010.06.03 14:59:27.
