data_PCOD9456868
_publ_section_title
;
Structure prediction by ZEFSAII (Michael W. Deem and Ramdas Pophale) SiO2 
 PCOD9456868
Probable space group: P B C N
;
_chemical_formula_sum "Si O2"
_cell_formula_units_Z 48
_cell_length_a 4.815512
_cell_length_b 14.349245
_cell_length_c 26.683933
_cell_angle_alpha 90.000000
_cell_angle_beta 90.000000
_cell_angle_gamma 90.000000
_cell_volume 1843.832059
_symmetry_space_group_name_H-M "P B C N"
_symmetry_group_IT_number 60
_symmetry_cell_setting 'orthorhombic'
loop_
_space_group_symop_operation_xyz
x,y,z
1/2-x,1/2-y,1/2+z
1/2+x,1/2-y,-z
-x,y,1/2-z
-x,-y,-z
1/2+x,1/2+y,1/2-z
1/2-x,1/2+y,z
x,-y,1/2+z
loop_
_atom_site_type_symbol
_atom_site_label
_atom_site_fract_x
_atom_site_fract_y
_atom_site_fract_z
Si Si1 0.130823 0.462482 0.052411
Si Si2 0.146702 0.400302 0.348058
Si Si3 0.119119 0.807123 0.993977
Si Si4 0.636288 0.501231 0.802205
Si Si5 0.482761 0.307739 0.838836
Si Si6 0.525648 0.849331 0.901537
O O1 0.366068 0.393655 0.031611
O O2 0.188065 0.557235 0.082240
O O3 0.945183 0.406621 0.093123
O O4 0.000000 0.500000 0.000000
O O5 0.449920 0.444174 0.343260
O O6 0.124317 0.295554 0.326578
O O7 0.941645 0.462426 0.314136
O O8 0.307739 0.723383 0.016549
O O9 0.305964 0.824508 0.945278
O O10 0.500000 0.530786 0.750000
O O11 0.617304 0.388806 0.805031
O O12 0.733757 0.286594 0.878017
O O13 0.206659 0.359471 0.858595
#
# Coordination Sequence:
#
# PCOD9456868 Si02
#       6
#     8   8   8   8   8   8
#     4  10  22  40  67 100 146 193 235 287 350 421
#     4  12  25  47  74 106 145 188 237 294 362 433
#     4  11  23  38  58  94 138 181 241 280 334 411
#     4  12  27  48  74 104 139 181 236 304 368 431
#     4  12  24  46  74 100 141 184 236 292 363 423
#     4  11  22  41  65  98 137 184 233 285 340 413
#
# _framework density 26.032743
#
# number of rings (size 3 to 8) (size 9 to 14) (size 15 to 20)
#    0.000    0.667    3.333    4.500    0.000    4.000 
#    0.000    7.500    0.000    0.000    0.000    0.000 
#    0.000    0.000    0.000    0.000    0.000    0.000 
#
# Total GULP energy -268237.956087 kJ/mol
# GULP energy per Si atom -5588.290752 kJ/mol
# Density = 2.597349 g / cm^3
# Si number density = 26.032743 Si / 1000 Ang^3
#
#
#
# Elastic Constant Matrix: (Units=GPa)
#
#
# Indices 1 2 3 4 5 6 
#
# 1 117.9092 13.8446 9.8029 0.0000 0.0000 0.0000
# 2 13.8446 147.4120 0.2610 0.0000 0.0000 0.0000
# 3 9.8029 0.2610 67.9269 0.0000 0.0000 0.0000
# 4 0.0000 0.0000 0.0000 20.6080 0.0000 0.0000
# 5 0.0000 0.0000 0.0000 0.0000 23.1257 0.0000
# 6 0.0000 0.0000 0.0000 0.0000 0.0000 27.6927
#
#
#
# Elastic Compliance Matrix: (Units=1/GPa)
#
#
# Indices 1 2 3 4 5 6 
#
# 1 0.008680 -0.000813 -0.001250 0.000000 0.000000 0.000000
# 2 -0.000813 0.006860 0.000091 0.000000 0.000000 0.000000
# 3 -0.001250 0.000091 0.014902 0.000000 0.000000 0.000000
# 4 0.000000 0.000000 0.000000 0.048525 0.000000 0.000000
# 5 0.000000 0.000000 0.000000 0.000000 0.043242 0.000000
# 6 0.000000 0.000000 0.000000 0.000000 0.000000 0.036111
#
#
# Mechanical properties :
#
#
# Convention : Reuss Voigt Hill
#
# Bulk Modulus (GPa) = 37.73767 42.34058 40.03913
# Shear Modulus (GPa) = 29.22339 34.90791 32.06565
#
# Velocity S-wave (km/s) = 3.35410 3.66583 3.51343
# Velocity P-wave (km/s) = 5.43394 5.84957 5.64558
#
# Compressibility (1/GPa) = 0.02649872
#
# Stress axis : x y z
#
# Youngs Moduli (GPa) = 115.20135 145.77464 67.10651
#
# Poissons Ratio (x) = 0.11852 0.08386
# Poissons Ratio (y) = 0.09366 -0.00610
# Poissons Ratio (z) = 0.14396 -0.01326
#
# Static dielectric constant tensor:
#      x y z
#    x 1.931780 0.000000 0.000000 
#    y 0.000000 2.109670 0.000000 
#    z 0.000000 0.000000 2.200830 
# 
# From -- ./inp_files/24881.got.cif
#   From: 2010.05.17/outbox.cif.g08.bks.cpg/sg60_13_cif.got.tgz:24881.got - 2010.06.03 14:59:27.
