data_PCOD9456425
_publ_section_title
;
Structure prediction by ZEFSAII (Michael W. Deem and Ramdas Pophale) SiO2 
 PCOD9456425
Probable space group: P B C N
;
_chemical_formula_sum "Si O2"
_cell_formula_units_Z 40
_cell_length_a 5.296142
_cell_length_b 26.064399
_cell_length_c 14.018943
_cell_angle_alpha 90.000000
_cell_angle_beta 90.000000
_cell_angle_gamma 90.000000
_cell_volume 1935.185522
_symmetry_space_group_name_H-M "P B C N"
_symmetry_group_IT_number 60
_symmetry_cell_setting 'orthorhombic'
loop_
_space_group_symop_operation_xyz
x,y,z
1/2-x,1/2-y,1/2+z
1/2+x,1/2-y,-z
-x,y,1/2-z
-x,-y,-z
1/2+x,1/2+y,1/2-z
1/2-x,1/2+y,z
x,-y,1/2+z
loop_
_atom_site_type_symbol
_atom_site_label
_atom_site_fract_x
_atom_site_fract_y
_atom_site_fract_z
Si Si1 0.707380 0.460623 0.540424
Si Si2 0.567888 0.945233 0.139197
Si Si3 0.788047 0.153973 0.553234
Si Si4 0.779929 0.349948 0.563356
Si Si5 0.249945 0.250272 0.311533
O O1 0.500000 0.500000 0.500000
O O2 0.840097 0.497298 0.617272
O O3 0.673892 0.406203 0.592260
O O4 0.853204 0.442842 0.443576
O O5 0.500000 0.939264 0.250000
O O6 0.760985 0.899363 0.111821
O O7 0.570545 0.148491 0.472442
O O8 0.720366 0.203780 0.613566
O O9 0.072036 0.163226 0.517381
O O10 0.769590 0.305110 0.639712
O O11 0.500000 0.260016 0.250000
O O12 0.000000 0.250703 0.250000
#
# Coordination Sequence:
#
# PCOD9456425 Si02
#       5
#     8   8   8   8   8
#     4  10  21  42  61  92 132 168 216 272 322 404
#     4  10  22  39  64  95 127 169 221 273 332 386
#     4  11  22  42  67  92 125 171 218 273 321 392
#     4  11  23  42  68  88 131 175 216 260 339 391
#     4  12  25  42  63  97 133 164 220 273 327 395
#
# _framework density 20.669851999999999
#
# number of rings (size 3 to 8) (size 9 to 14) (size 15 to 20)
#    0.000    1.200    2.000    4.200    0.000    3.200 
#    3.600    0.000    0.000    0.000    0.000    0.000 
#    0.000    0.000    0.000    0.000    0.000    0.000 
#
# Total GULP energy -222872.607472 kJ/mol
# GULP energy per Si atom -5571.815187 kJ/mol
# Density = 2.062281 g / cm^3
# Si number density = 20.669852 Si / 1000 Ang^3
#
#
#
# Elastic Constant Matrix: (Units=GPa)
#
#
# Indices 1 2 3 4 5 6 
#
# 1 43.6664 -22.6710 -43.6667 0.0000 0.0000 0.0000
# 2 -22.6710 191.6784 96.9257 0.0000 0.0000 0.0000
# 3 -43.6667 96.9257 144.9602 0.0000 0.0000 0.0000
# 4 0.0000 0.0000 0.0000 -0.9850 0.0000 0.0000
# 5 0.0000 0.0000 0.0000 0.0000 -1.5436 0.0000
# 6 0.0000 0.0000 0.0000 0.0000 0.0000 29.9848
#
#
#
# Elastic Compliance Matrix: (Units=1/GPa)
#
#
# Indices 1 2 3 4 5 6 
#
# 1 0.033138 -0.001705 0.011122 0.000000 0.000000 0.000000
# 2 -0.001705 0.007970 -0.005842 0.000000 0.000000 0.000000
# 3 0.011122 -0.005842 0.014155 0.000000 0.000000 0.000000
# 4 0.000000 0.000000 0.000000 -1.015191 0.000000 0.000000
# 5 0.000000 0.000000 0.000000 0.000000 -0.647827 0.000000
# 6 0.000000 0.000000 0.000000 0.000000 0.000000 0.033350
#
#
# Mechanical properties :
#
#
# Convention : Reuss Voigt Hill
#
# Bulk Modulus (GPa) = 16.02233 49.05345 32.53789
# Shear Modulus (GPa) = -3.20359 28.80570 12.80106
#
# Velocity S-wave (km/s) = -1.24629 3.73716 2.49129
# Velocity P-wave (km/s) = 2.38692 6.51193 4.90421
#
# Compressibility (1/GPa) = 0.06241289
#
# Stress axis : x y z
#
# Youngs Moduli (GPa) = 30.17689 125.47452 70.64571
#
# Poissons Ratio (x) = 0.21388 -0.78572
# Poissons Ratio (y) = 0.05144 0.41274
# Poissons Ratio (z) = -0.33563 0.73307
#
# Static dielectric constant tensor:
#      x y z
#    x 1.817300 0.000000 0.000000 
#    y 0.000000 1.751510 0.000000 
#    z 0.000000 0.000000 1.731950 
# 
# From -- ./inp_files/9071.got.cif
#   From: 2010.05.17/outbox.cif.g08.bks.cpg/sg60_5_cif.got.tgz:9071.got - 2010.06.03 14:59:27.
