data_PCOD9456838
_publ_section_title
;
Structure prediction by ZEFSAII (Michael W. Deem and Ramdas Pophale) SiO2 
 PCOD9456838
Probable space group: P B C N
;
_chemical_formula_sum "Si O2"
_cell_formula_units_Z 64
_cell_length_a 10.873072
_cell_length_b 9.164161
_cell_length_c 28.579517
_cell_angle_alpha 90.000000
_cell_angle_beta 90.000000
_cell_angle_gamma 90.000000
_cell_volume 2847.736877
_symmetry_space_group_name_H-M "P B C N"
_symmetry_group_IT_number 60
_symmetry_cell_setting 'orthorhombic'
loop_
_space_group_symop_operation_xyz
x,y,z
1/2-x,1/2-y,1/2+z
1/2+x,1/2-y,-z
-x,y,1/2-z
-x,-y,-z
1/2+x,1/2+y,1/2-z
1/2-x,1/2+y,z
x,-y,1/2+z
loop_
_atom_site_type_symbol
_atom_site_label
_atom_site_fract_x
_atom_site_fract_y
_atom_site_fract_z
Si Si1 0.128653 0.189805 0.619787
Si Si2 0.826040 0.196047 0.191565
Si Si3 0.138577 0.905732 0.257891
Si Si4 0.634305 0.186112 0.483799
Si Si5 0.126202 0.664536 0.373495
Si Si6 0.503448 0.948068 0.195684
Si Si7 0.861850 0.637333 0.018564
Si Si8 0.756319 0.947166 0.834044
O O1 0.150109 0.258385 0.569103
O O2 0.166930 0.022556 0.624566
O O3 0.215025 0.282568 0.655394
O O4 0.985654 0.220442 0.631076
O O5 0.734179 0.277498 0.228900
O O6 0.758594 0.221562 0.142115
O O7 0.952822 0.282669 0.194168
O O8 0.852170 0.028090 0.201981
O O9 0.174658 0.002541 0.212721
O O10 0.000000 0.850471 0.250000
O O11 0.490485 0.213797 0.496574
O O12 0.740817 0.265984 0.512458
O O13 0.649869 0.012740 0.490164
O O14 0.098053 0.543952 0.334101
O O15 0.123240 0.605487 0.426043
O O16 0.500000 0.993355 0.250000
O O17 0.375579 0.975733 0.171052
#
# Coordination Sequence:
#
# PCOD9456838 Si02
#       8
#     8   8   8   8   8   8   8   8
#     4  10  22  40  64  90 127 164 211 260 327 386
#     4  12  23  42  60  89 127 164 215 265 313 381
#     4  12  26  39  61  89 126 168 216 264 317 379
#     4  10  22  44  67  99 130 171 214 275 336 402
#     4  10  23  42  64  92 128 171 211 264 324 384
#     4  11  22  41  63  88 127 171 212 262 323 371
#     4  10  23  42  71  96 134 169 221 270 338 398
#     4  11  22  39  62  89 122 168 212 261 315 386
#
# _framework density 22.473986
#
# number of rings (size 3 to 8) (size 9 to 14) (size 15 to 20)
#    0.000    1.250    2.500    2.625    3.500    4.000 
#    0.000    0.000    0.000    0.000    0.000    0.000 
#    0.000    0.000    0.000    0.000    0.000    0.000 
#
# Total GULP energy -357739.072461 kJ/mol
# GULP energy per Si atom -5589.673007 kJ/mol
# Density = 2.242283 g / cm^3
# Si number density = 22.473986 Si / 1000 Ang^3
#
#
#
# Elastic Constant Matrix: (Units=GPa)
#
#
# Indices 1 2 3 4 5 6 
#
# 1 44.7657 20.1382 8.2764 0.0000 0.0000 0.0000
# 2 20.1382 59.7700 -1.6955 0.0000 0.0000 0.0000
# 3 8.2764 -1.6955 30.0328 0.0000 0.0000 0.0000
# 4 0.0000 0.0000 0.0000 11.7626 0.0000 0.0000
# 5 0.0000 0.0000 0.0000 0.0000 31.1032 0.0000
# 6 0.0000 0.0000 0.0000 0.0000 0.0000 12.0833
#
#
#
# Elastic Compliance Matrix: (Units=1/GPa)
#
#
# Indices 1 2 3 4 5 6 
#
# 1 0.028273 -0.009762 -0.008342 0.000000 0.000000 0.000000
# 2 -0.009762 0.020129 0.003827 0.000000 0.000000 0.000000
# 3 -0.008342 0.003827 0.035812 0.000000 0.000000 0.000000
# 4 0.000000 0.000000 0.000000 0.085015 0.000000 0.000000
# 5 0.000000 0.000000 0.000000 0.000000 0.032151 0.000000
# 6 0.000000 0.000000 0.000000 0.000000 0.000000 0.082759
#
#
# Mechanical properties :
#
#
# Convention : Reuss Voigt Hill
#
# Bulk Modulus (GPa) = 17.96729 20.88962 19.42846
# Shear Modulus (GPa) = 15.09447 18.17978 16.63713
#
# Velocity S-wave (km/s) = 2.59442 2.84725 2.72377
# Velocity P-wave (km/s) = 4.12150 4.48601 4.30761
#
# Compressibility (1/GPa) = 0.05565669
#
# Stress axis : x y z
#
# Youngs Moduli (GPa) = 35.36988 49.68051 27.92365
#
# Poissons Ratio (x) = 0.48501 0.23295
# Poissons Ratio (y) = 0.34530 -0.10686
# Poissons Ratio (z) = 0.29507 -0.19011
#
# Static dielectric constant tensor:
#      x y z
#    x 1.904700 0.000000 0.000000 
#    y 0.000000 1.828470 0.000000 
#    z 0.000000 0.000000 1.855210 
# 
# From -- ./inp_files/26089.got.cif
#   From: 2010.05.17/outbox.cif.g08.bks.cpg/sg60_14_cif.got.tgz:26089.got - 2010.06.03 14:59:27.
