data_PCOD9456158
_publ_section_title
;
Structure prediction by ZEFSAII (Michael W. Deem and Ramdas Pophale) SiO2 
 PCOD9456158
Probable space group: P B C N
;
_chemical_formula_sum "Si O2"
_cell_formula_units_Z 48
_cell_length_a 8.576543
_cell_length_b 26.774784
_cell_length_c 10.261360
_cell_angle_alpha 90.000000
_cell_angle_beta 90.000000
_cell_angle_gamma 90.000000
_cell_volume 2356.368289
_symmetry_space_group_name_H-M "P B C N"
_symmetry_group_IT_number 60
_symmetry_cell_setting 'orthorhombic'
loop_
_space_group_symop_operation_xyz
x,y,z
1/2-x,1/2-y,1/2+z
1/2+x,1/2-y,-z
-x,y,1/2-z
-x,-y,-z
1/2+x,1/2+y,1/2-z
1/2-x,1/2+y,z
x,-y,1/2+z
loop_
_atom_site_type_symbol
_atom_site_label
_atom_site_fract_x
_atom_site_fract_y
_atom_site_fract_z
Si Si1 0.531388 0.578191 0.596649
Si Si2 0.860502 0.184367 0.509166
Si Si3 0.391125 0.252034 0.875841
Si Si4 0.311140 0.838604 0.763011
Si Si5 0.331601 0.949535 0.807160
Si Si6 0.231102 0.000926 0.043112
O O1 0.500000 0.574665 0.750000
O O2 0.549414 0.635973 0.561242
O O3 0.397645 0.543124 0.536032
O O4 0.681712 0.550347 0.536572
O O5 0.717264 0.204751 0.594929
O O6 0.775938 0.169225 0.374474
O O7 0.987335 0.228171 0.484403
O O8 0.500000 0.244034 0.750000
O O9 0.268709 0.296878 0.852186
O O10 0.500000 0.833059 0.750000
O O11 0.263883 0.893739 0.813437
O O12 0.500000 0.940755 0.750000
O O13 0.251813 0.983364 0.693867
O O14 0.354508 0.975495 0.946370
#
# Coordination Sequence:
#
# PCOD9456158 Si02
#       6
#     8   8   8   8   8   8
#     4  11  23  38  63  90 123 164 211 264 318 374
#     4  11  22  41  64  90 127 164 216 265 324 390
#     4  10  23  40  63  93 123 168 212 270 325 384
#     4  10  21  39  63  93 123 167 213 264 324 389
#     4  11  22  39  65  92 130 168 210 261 325 389
#     4  11  22  41  61  94 126 165 212 263 315 388
#
# _framework density 20.370329999999999
#
# number of rings (size 3 to 8) (size 9 to 14) (size 15 to 20)
#    0.000    1.333    3.333    2.500    0.000    3.333 
#    0.000    4.167    0.000    0.000    0.000    0.000 
#    0.000    0.000    0.000    0.000    0.000    0.000 
#
# Total GULP energy -267346.255229 kJ/mol
# GULP energy per Si atom -5569.713651 kJ/mol
# Density = 2.032397 g / cm^3
# Si number density = 20.370330 Si / 1000 Ang^3
#
#
#
# Elastic Constant Matrix: (Units=GPa)
#
#
# Indices 1 2 3 4 5 6 
#
# 1 56.4851 23.9639 15.6875 0.0000 0.0000 0.0000
# 2 23.9639 101.9197 24.9744 0.0000 0.0000 0.0000
# 3 15.6875 24.9744 44.8149 0.0000 0.0000 0.0000
# 4 0.0000 0.0000 0.0000 29.2449 0.0000 0.0000
# 5 0.0000 0.0000 0.0000 0.0000 24.9162 0.0000
# 6 0.0000 0.0000 0.0000 0.0000 0.0000 30.2705
#
#
#
# Elastic Compliance Matrix: (Units=1/GPa)
#
#
# Indices 1 2 3 4 5 6 
#
# 1 0.020678 -0.003577 -0.005245 0.000000 0.000000 0.000000
# 2 -0.003577 0.011982 -0.005425 0.000000 0.000000 0.000000
# 3 -0.005245 -0.005425 0.027173 0.000000 0.000000 0.000000
# 4 0.000000 0.000000 0.000000 0.034194 0.000000 0.000000
# 5 0.000000 0.000000 0.000000 0.000000 0.040135 0.000000
# 6 0.000000 0.000000 0.000000 0.000000 0.000000 0.033035
#
#
# Mechanical properties :
#
#
# Convention : Reuss Voigt Hill
#
# Bulk Modulus (GPa) = 31.90891 36.94127 34.42509
# Shear Modulus (GPa) = 24.25560 26.12591 25.19075
#
# Velocity S-wave (km/s) = 3.45444 3.58515 3.52040
# Velocity P-wave (km/s) = 5.62221 5.94239 5.78452
#
# Compressibility (1/GPa) = 0.03133921
#
# Stress axis : x y z
#
# Youngs Moduli (GPa) = 48.36079 83.45834 36.80061
#
# Poissons Ratio (x) = 0.29850 0.19302
# Poissons Ratio (y) = 0.17297 0.19966
# Poissons Ratio (z) = 0.25366 0.45279
#
# Static dielectric constant tensor:
#      x y z
#    x 1.765680 0.000000 0.000000 
#    y 0.000000 1.737480 0.000000 
#    z 0.000000 0.000000 1.755970 
# 
# From -- ./inp_files/10093.got.cif
#   From: 2010.05.17/outbox.cif.g08.bks.cpg/sg60_6_cif.got.tgz:10093.got - 2010.06.03 14:59:27.
