data_PCOD9456143
_publ_section_title
;
Structure prediction by ZEFSAII (Michael W. Deem and Ramdas Pophale) SiO2 
 PCOD9456143
Probable space group: P B C N
;
_chemical_formula_sum "Si O2"
_cell_formula_units_Z 48
_cell_length_a 14.877541
_cell_length_b 4.881446
_cell_length_c 28.182777
_cell_angle_alpha 90.000000
_cell_angle_beta 90.000000
_cell_angle_gamma 90.000000
_cell_volume 2046.743545
_symmetry_space_group_name_H-M "P B C N"
_symmetry_group_IT_number 60
_symmetry_cell_setting 'orthorhombic'
loop_
_space_group_symop_operation_xyz
x,y,z
1/2-x,1/2-y,1/2+z
1/2+x,1/2-y,-z
-x,y,1/2-z
-x,-y,-z
1/2+x,1/2+y,1/2-z
1/2-x,1/2+y,z
x,-y,1/2+z
loop_
_atom_site_type_symbol
_atom_site_label
_atom_site_fract_x
_atom_site_fract_y
_atom_site_fract_z
Si Si1 0.604159 0.792838 0.139157
Si Si2 0.880203 0.804903 0.081910
Si Si3 0.691365 0.127886 0.981200
Si Si4 0.310188 0.627485 0.670551
Si Si5 0.185276 0.005889 0.272953
Si Si6 0.061695 0.918388 0.591009
O O1 0.654549 0.598026 0.100453
O O2 0.620206 0.644282 0.188919
O O3 0.500039 0.769979 0.124845
O O4 0.629515 0.100338 0.126397
O O5 0.837448 0.682630 0.035176
O O6 0.985741 0.872665 0.071383
O O7 0.779482 0.317061 0.972711
O O8 0.613054 0.240394 0.947730
O O9 0.280579 0.942968 0.669896
O O10 0.353830 0.519822 0.719697
O O11 0.367856 0.565304 0.624801
O O12 0.272354 0.204438 0.278078
#
# Coordination Sequence:
#
# PCOD9456143 Si02
#       6
#     8   8   8   8   8   8
#     4  10  23  38  65  87 122 164 194 255 300 365
#     4  10  24  41  61  92 122 160 201 254 303 361
#     4  12  26  41  65  91 120 162 207 254 305 364
#     4  10  22  39  64  90 120 158 204 251 299 359
#     4  10  21  39  62  90 122 158 202 250 299 357
#     4  10  25  41  64  87 128 157 206 248 310 359
#
# _framework density 23.451889000000001
#
# number of rings (size 3 to 8) (size 9 to 14) (size 15 to 20)
#    1.000    0.667    0.000    3.500    4.667    5.333 
#    0.000    0.000    3.667    0.000    0.000    0.000 
#    0.000    0.000    0.000    0.000    0.000    0.000 
#
# Total GULP energy -267990.234872 kJ/mol
# GULP energy per Si atom -5583.129893 kJ/mol
# Density = 2.339851 g / cm^3
# Si number density = 23.451889 Si / 1000 Ang^3
#
#
#
# Elastic Constant Matrix: (Units=GPa)
#
#
# Indices 1 2 3 4 5 6 
#
# 1 45.7190 2.2020 24.8424 0.0000 0.0000 0.0000
# 2 2.2020 74.5452 -6.3760 0.0000 0.0000 0.0000
# 3 24.8424 -6.3760 80.2675 0.0000 0.0000 0.0000
# 4 0.0000 0.0000 0.0000 21.2725 0.0000 0.0000
# 5 0.0000 0.0000 0.0000 0.0000 28.1719 0.0000
# 6 0.0000 0.0000 0.0000 0.0000 0.0000 10.6576
#
#
#
# Elastic Compliance Matrix: (Units=1/GPa)
#
#
# Indices 1 2 3 4 5 6 
#
# 1 0.026459 -0.001492 -0.008307 0.000000 0.000000 0.000000
# 2 -0.001492 0.013591 0.001541 0.000000 0.000000 0.000000
# 3 -0.008307 0.001541 0.015152 0.000000 0.000000 0.000000
# 4 0.000000 0.000000 0.000000 0.047009 0.000000 0.000000
# 5 0.000000 0.000000 0.000000 0.000000 0.035496 0.000000
# 6 0.000000 0.000000 0.000000 0.000000 0.000000 0.093830
#
#
# Mechanical properties :
#
#
# Convention : Reuss Voigt Hill
#
# Bulk Modulus (GPa) = 25.84987 26.87426 26.36207
# Shear Modulus (GPa) = 19.16093 24.01128 21.58610
#
# Velocity S-wave (km/s) = 2.86148 3.20324 3.03717
# Velocity P-wave (km/s) = 4.68656 5.01649 4.85433
#
# Compressibility (1/GPa) = 0.03868491
#
# Stress axis : x y z
#
# Youngs Moduli (GPa) = 37.79492 73.58028 65.99855
#
# Poissons Ratio (x) = 0.10979 0.54827
# Poissons Ratio (y) = 0.05639 -0.10173
# Poissons Ratio (z) = 0.31397 -0.11341
#
# Static dielectric constant tensor:
#      x y z
#    x 1.909160 0.000000 0.000000 
#    y 0.000000 1.853490 0.000000 
#    z 0.000000 0.000000 1.898010 
# 
# From -- ./inp_files/25447.got.cif
#   From: 2010.05.17/outbox.cif.g08.bks.cpg/sg60_13_cif.got.tgz:25447.got - 2010.06.03 14:59:27.
