data_PCOD9456256
_publ_section_title
;
Structure prediction by ZEFSAII (Michael W. Deem and Ramdas Pophale) SiO2 
 PCOD9456256
Probable space group: P B C N
;
_chemical_formula_sum "Si O2"
_cell_formula_units_Z 40
_cell_length_a 7.846405
_cell_length_b 22.591478
_cell_length_c 9.416033
_cell_angle_alpha 90.000000
_cell_angle_beta 90.000000
_cell_angle_gamma 90.000000
_cell_volume 1669.103768
_symmetry_space_group_name_H-M "P B C N"
_symmetry_group_IT_number 60
_symmetry_cell_setting 'orthorhombic'
loop_
_space_group_symop_operation_xyz
x,y,z
1/2-x,1/2-y,1/2+z
1/2+x,1/2-y,-z
-x,y,1/2-z
-x,-y,-z
1/2+x,1/2+y,1/2-z
1/2-x,1/2+y,z
x,-y,1/2+z
loop_
_atom_site_type_symbol
_atom_site_label
_atom_site_fract_x
_atom_site_fract_y
_atom_site_fract_z
Si Si1 0.459148 0.759760 0.897708
Si Si2 0.281734 0.949456 0.907881
Si Si3 0.150404 0.136476 0.645229
Si Si4 0.305648 0.935325 0.582477
Si Si5 0.340572 0.827278 0.400630
O O1 0.500000 0.792982 0.750000
O O2 0.582347 0.701955 0.895824
O O3 0.488557 0.801570 0.030759
O O4 0.275480 0.730925 0.889506
O O5 0.239923 0.944944 0.741681
O O6 0.486995 0.939526 0.917426
O O7 0.189447 0.902089 0.008367
O O8 0.245134 0.013302 0.976523
O O9 0.000000 0.112881 0.750000
O O10 0.312908 0.140150 0.751542
O O11 0.263776 0.871525 0.518184
#
# Coordination Sequence:
#
# PCOD9456256 Si02
#       5
#     8   8   8   8   8
#     4   9  22  40  59  90 128 162 210 255 302 368
#     4  10  21  40  63  93 126 160 204 264 316 374
#     4   9  21  42  62  87 127 166 208 260 311 380
#     4  10  22  37  65  92 123 160 210 259 312 383
#     4  10  21  40  63  91 125 167 208 254 312 365
#
# _framework density 23.964956000000001
#
# number of rings (size 3 to 8) (size 9 to 14) (size 15 to 20)
#    0.000    2.800    0.000    1.200    5.600    4.000 
#    3.600   21.000    0.000    0.000    0.000    0.000 
#    0.000    0.000    0.000    0.000    0.000    0.000 
#
# Total GULP energy -223555.595017 kJ/mol
# GULP energy per Si atom -5588.889875 kJ/mol
# Density = 2.391041 g / cm^3
# Si number density = 23.964956 Si / 1000 Ang^3
#
#
#
# Elastic Constant Matrix: (Units=GPa)
#
#
# Indices 1 2 3 4 5 6 
#
# 1 35.0783 -0.6499 27.1101 0.0000 0.0000 0.0000
# 2 -0.6499 39.2067 52.4007 0.0000 0.0000 0.0000
# 3 27.1101 52.4007 190.1964 0.0000 0.0000 0.0000
# 4 0.0000 0.0000 0.0000 46.6617 0.0000 0.0000
# 5 0.0000 0.0000 0.0000 0.0000 40.3410 0.0000
# 6 0.0000 0.0000 0.0000 0.0000 0.0000 20.0339
#
#
#
# Elastic Compliance Matrix: (Units=1/GPa)
#
#
# Indices 1 2 3 4 5 6 
#
# 1 0.035023 0.011479 -0.008155 0.000000 0.000000 0.000000
# 2 0.011479 0.044134 -0.013796 0.000000 0.000000 0.000000
# 3 -0.008155 -0.013796 0.010221 0.000000 0.000000 0.000000
# 4 0.000000 0.000000 0.000000 0.021431 0.000000 0.000000
# 5 0.000000 0.000000 0.000000 0.000000 0.024789 0.000000
# 6 0.000000 0.000000 0.000000 0.000000 0.000000 0.049915
#
#
# Mechanical properties :
#
#
# Convention : Reuss Voigt Hill
#
# Bulk Modulus (GPa) = 14.61219 46.91148 30.76183
# Shear Modulus (GPa) = 21.80869 33.78202 27.79536
#
# Velocity S-wave (km/s) = 3.01993 3.75859 3.40933
# Velocity P-wave (km/s) = 4.27441 6.20109 5.32560
#
# Compressibility (1/GPa) = 0.06843602
#
# Stress axis : x y z
#
# Youngs Moduli (GPa) = 28.55298 22.65815 97.83899
#
# Poissons Ratio (x) = -0.26010 0.79785
# Poissons Ratio (y) = -0.32777 1.34975
# Poissons Ratio (z) = 0.23284 0.31258
#
# Static dielectric constant tensor:
#      x y z
#    x 2.053330 0.000000 0.000000 
#    y 0.000000 1.863890 0.000000 
#    z 0.000000 0.000000 1.906460 
# 
# From -- ./inp_files/3842.got.cif
#   From: 2010.05.17/outbox.cif.g08.bks.cpg/sg60_2_cif.got.tgz:3842.got - 2010.06.03 14:59:27.
