data_PCOD9456988
_publ_section_title
;
Structure prediction by ZEFSAII (Michael W. Deem and Ramdas Pophale) SiO2 
 PCOD9456988
Probable space group: P B C N
;
_chemical_formula_sum "Si O2"
_cell_formula_units_Z 52
_cell_length_a 18.353226
_cell_length_b 14.262906
_cell_length_c 10.694609
_cell_angle_alpha 90.000000
_cell_angle_beta 90.000000
_cell_angle_gamma 90.000000
_cell_volume 2799.531405
_symmetry_space_group_name_H-M "P B C N"
_symmetry_group_IT_number 60
_symmetry_cell_setting 'orthorhombic'
loop_
_space_group_symop_operation_xyz
x,y,z
1/2-x,1/2-y,1/2+z
1/2+x,1/2-y,-z
-x,y,1/2-z
-x,-y,-z
1/2+x,1/2+y,1/2-z
1/2-x,1/2+y,z
x,-y,1/2+z
loop_
_atom_site_type_symbol
_atom_site_label
_atom_site_fract_x
_atom_site_fract_y
_atom_site_fract_z
Si Si1 0.500000 0.026147 0.750000
Si Si2 0.645801 0.530454 0.917901
Si Si3 0.208642 0.944093 0.816754
Si Si4 0.540382 0.826183 0.456565
Si Si5 0.060546 0.785021 0.147937
Si Si6 0.373529 0.119956 0.304157
Si Si7 0.577975 0.643591 0.311761
O O1 0.493023 0.092429 0.628887
O O2 0.570814 0.959629 0.745052
O O3 0.692007 0.521749 0.789487
O O4 0.600407 0.625617 0.908986
O O5 0.594148 0.438433 0.912277
O O6 0.693721 0.525140 0.041999
O O7 0.289902 0.908319 0.799716
O O8 0.145418 0.868214 0.783493
O O9 0.479448 0.774855 0.540779
O O10 0.600041 0.862819 0.554107
O O11 0.574638 0.746044 0.369703
O O12 0.112189 0.713544 0.223484
O O13 0.000000 0.816105 0.250000
O O14 0.500000 0.624398 0.250000
#
# Coordination Sequence:
#
# PCOD9456988 Si02
#       7
#     4   8   8   8   8   8   8
#     4  12  24  44  68  94 126 182 226 290 320 400
#     4  10  24  42  67 100 139 175 217 275 344 403
#     4  10  26  42  64 103 137 183 215 278 343 403
#     4  11  23  39  70  99 131 175 227 282 337 395
#     4  10  22  41  69 101 126 179 220 282 335 400
#     4  11  25  45  66  95 135 173 239 272 343 398
#     4  10  22  42  66 103 133 175 223 272 337 415
#
# _framework density 18.574536999999999
#
# number of rings (size 3 to 8) (size 9 to 14) (size 15 to 20)
#    0.923    0.615    3.077    1.846    6.462    2.462 
#    0.000    0.000    0.000    0.000    0.000    0.000 
#    0.000    0.000    0.000    0.000    0.000    0.000 
#
# Total GULP energy -290072.182328 kJ/mol
# GULP energy per Si atom -5578.311199 kJ/mol
# Density = 1.853226 g / cm^3
# Si number density = 18.574537 Si / 1000 Ang^3
#
#
#
# Elastic Constant Matrix: (Units=GPa)
#
#
# Indices 1 2 3 4 5 6 
#
# 1 129.9818 32.6218 32.6874 0.0000 0.0000 0.0000
# 2 32.6218 62.7812 19.3667 0.0000 0.0000 0.0000
# 3 32.6874 19.3667 84.6469 0.0000 0.0000 0.0000
# 4 0.0000 0.0000 0.0000 57.1211 0.0000 0.0000
# 5 0.0000 0.0000 0.0000 0.0000 13.9196 0.0000
# 6 0.0000 0.0000 0.0000 0.0000 0.0000 -5.6478
#
#
#
# Elastic Compliance Matrix: (Units=1/GPa)
#
#
# Indices 1 2 3 4 5 6 
#
# 1 0.009387 -0.004045 -0.002700 0.000000 0.000000 0.000000
# 2 -0.004045 0.018881 -0.002758 0.000000 0.000000 0.000000
# 3 -0.002700 -0.002758 0.013487 0.000000 0.000000 0.000000
# 4 0.000000 0.000000 0.000000 0.017507 0.000000 0.000000
# 5 0.000000 0.000000 0.000000 0.000000 0.071841 0.000000
# 6 0.000000 0.000000 0.000000 0.000000 0.000000 -0.177061
#
#
# Mechanical properties :
#
#
# Convention : Reuss Voigt Hill
#
# Bulk Modulus (GPa) = 43.95468 49.64020 46.79744
# Shear Modulus (GPa) = -258.14899 25.92751 -116.11074
#
# Velocity S-wave (km/s) = -11.80177 3.74018 -7.91495
# Velocity P-wave (km/s) = 12.72767 6.74053 7.63410
#
# Compressibility (1/GPa) = 0.02275071
#
# Stress axis : x y z
#
# Youngs Moduli (GPa) = 106.52503 52.96356 74.14423
#
# Poissons Ratio (x) = 0.21424 0.20016
# Poissons Ratio (y) = 0.43090 0.20447
# Poissons Ratio (z) = 0.28757 0.14606
#
# Static dielectric constant tensor:
#      x y z
#    x 1.631030 0.000000 0.000000 
#    y 0.000000 1.626950 0.000000 
#    z 0.000000 0.000000 1.667300 
# 
# From -- ./inp_files/12490.got.cif
#   From: 2010.05.17/outbox.cif.g08.bks.cpg/sg60_7_cif.got.tgz:12490.got - 2010.06.03 14:59:27.
