data_PCOD9456569
_publ_section_title
;
Structure prediction by ZEFSAII (Michael W. Deem and Ramdas Pophale) SiO2 
 PCOD9456569
Probable space group: P B C N
;
_chemical_formula_sum "Si O2"
_cell_formula_units_Z 48
_cell_length_a 14.523167
_cell_length_b 13.817949
_cell_length_c 9.812676
_cell_angle_alpha 90.000000
_cell_angle_beta 90.000000
_cell_angle_gamma 90.000000
_cell_volume 1969.211558
_symmetry_space_group_name_H-M "P B C N"
_symmetry_group_IT_number 60
_symmetry_cell_setting 'orthorhombic'
loop_
_space_group_symop_operation_xyz
x,y,z
1/2-x,1/2-y,1/2+z
1/2+x,1/2-y,-z
-x,y,1/2-z
-x,-y,-z
1/2+x,1/2+y,1/2-z
1/2-x,1/2+y,z
x,-y,1/2+z
loop_
_atom_site_type_symbol
_atom_site_label
_atom_site_fract_x
_atom_site_fract_y
_atom_site_fract_z
Si Si1 0.500000 0.968978 0.250000
Si Si2 0.299419 0.540431 0.179517
Si Si3 0.745765 0.097661 0.585345
Si Si4 0.069827 0.180341 0.948458
Si Si5 0.500000 0.513136 0.750000
Si Si6 0.628785 0.856852 0.745356
Si Si7 0.941653 0.320575 0.051557
O O1 0.509279 0.899051 0.380150
O O2 0.416612 0.039830 0.289299
O O3 0.281336 0.447408 0.276464
O O4 0.410808 0.544832 0.193913
O O5 0.237836 0.625565 0.248345
O O6 0.244458 0.518172 0.036503
O O7 0.826910 0.156123 0.506918
O O8 0.656954 0.160650 0.619440
O O9 0.030573 0.087007 0.870489
O O10 0.092457 0.270217 0.846882
O O11 0.994554 0.219937 0.052903
O O12 0.589467 0.837732 0.896238
#
# Coordination Sequence:
#
# PCOD9456569 Si02
#       7
#     4   8   8   8   4   8   8
#     4  12  21  36  63 100 126 160 226 272 343 386
#     4  10  23  43  70  99 134 172 235 274 337 412
#     4  10  24  46  67 103 130 182 229 285 343 415
#     4  11  22  43  68  93 134 181 223 266 355 399
#     4  10  21  46  71  96 132 188 220 276 345 414
#     4  11  21  41  67  96 128 180 213 287 333 418
#     4  11  22  42  63 100 130 174 222 283 336 414
#
# _framework density 24.375238
#
# number of rings (size 3 to 8) (size 9 to 14) (size 15 to 20)
#    0.000    1.333    5.000    0.500    0.000    2.667 
#   15.000    0.000    0.000    0.000    0.000    0.000 
#    0.000    0.000    0.000    0.000    0.000    0.000 
#
# Total GULP energy -267543.695038 kJ/mol
# GULP energy per Si atom -5573.826980 kJ/mol
# Density = 2.431976 g / cm^3
# Si number density = 24.375238 Si / 1000 Ang^3
#
#
#
# Elastic Constant Matrix: (Units=GPa)
#
#
# Indices 1 2 3 4 5 6 
#
# 1 173.4325 43.1083 8.2659 0.0000 0.0000 0.0000
# 2 43.1083 44.6751 -3.7600 0.0000 0.0000 0.0000
# 3 8.2659 -3.7600 19.6688 0.0000 0.0000 0.0000
# 4 0.0000 0.0000 0.0000 17.4306 0.0000 0.0000
# 5 0.0000 0.0000 0.0000 0.0000 29.3411 0.0000
# 6 0.0000 0.0000 0.0000 0.0000 0.0000 21.7492
#
#
#
# Elastic Compliance Matrix: (Units=1/GPa)
#
#
# Indices 1 2 3 4 5 6 
#
# 1 0.008030 -0.008164 -0.004936 0.000000 0.000000 0.000000
# 2 -0.008164 0.031050 0.009367 0.000000 0.000000 0.000000
# 3 -0.004936 0.009367 0.054707 0.000000 0.000000 0.000000
# 4 0.000000 0.000000 0.000000 0.057370 0.000000 0.000000
# 5 0.000000 0.000000 0.000000 0.000000 0.034082 0.000000
# 6 0.000000 0.000000 0.000000 0.000000 0.000000 0.045979
#
#
# Mechanical properties :
#
#
# Convention : Reuss Voigt Hill
#
# Bulk Modulus (GPa) = 11.58465 37.00054 24.29260
# Shear Modulus (GPa) = 18.69454 26.38166 22.53810
#
# Velocity S-wave (km/s) = 2.77239 3.29342 3.04407
# Velocity P-wave (km/s) = 3.87442 5.44745 4.72683
#
# Compressibility (1/GPa) = 0.08632112
#
# Stress axis : x y z
#
# Youngs Moduli (GPa) = 124.52590 32.20608 18.27930
#
# Poissons Ratio (x) = 0.26294 0.09022
# Poissons Ratio (y) = 1.01666 -0.17122
# Poissons Ratio (z) = 0.61460 -0.30167
#
# Static dielectric constant tensor:
#      x y z
#    x 2.152270 0.000000 0.000000 
#    y 0.000000 2.026500 0.000000 
#    z 0.000000 0.000000 2.877770 
# 
# From -- ./inp_files/11914.got.cif
#   From: 2010.05.17/outbox.cif.g08.bks.cpg/sg60_6_cif.got.tgz:11914.got - 2010.06.03 14:59:27.
