data_PCOD9456253
_publ_section_title
;
Structure prediction by ZEFSAII (Michael W. Deem and Ramdas Pophale) SiO2 
 PCOD9456253
Probable space group: P B C N
;
_chemical_formula_sum "Si O2"
_cell_formula_units_Z 64
_cell_length_a 12.581926
_cell_length_b 25.404850
_cell_length_c 8.563329
_cell_angle_alpha 90.000000
_cell_angle_beta 90.000000
_cell_angle_gamma 90.000000
_cell_volume 2737.199118
_symmetry_space_group_name_H-M "P B C N"
_symmetry_group_IT_number 60
_symmetry_cell_setting 'orthorhombic'
loop_
_space_group_symop_operation_xyz
x,y,z
1/2-x,1/2-y,1/2+z
1/2+x,1/2-y,-z
-x,y,1/2-z
-x,-y,-z
1/2+x,1/2+y,1/2-z
1/2-x,1/2+y,z
x,-y,1/2+z
loop_
_atom_site_type_symbol
_atom_site_label
_atom_site_fract_x
_atom_site_fract_y
_atom_site_fract_z
Si Si1 0.874989 0.510183 0.716577
Si Si2 0.924149 0.316707 0.377386
Si Si3 0.807108 0.427875 0.925043
Si Si4 0.863571 0.862566 0.068507
Si Si5 0.583178 0.820025 0.874946
Si Si6 0.072475 0.125462 0.394611
Si Si7 0.805070 0.786034 0.803751
Si Si8 0.252572 0.602229 0.612893
O O1 0.828753 0.452774 0.757221
O O2 0.855522 0.529744 0.542086
O O3 0.806990 0.552147 0.816778
O O4 0.000000 0.511225 0.750000
O O5 0.857541 0.270494 0.297721
O O6 0.839211 0.357648 0.443110
O O7 0.000000 0.344208 0.250000
O O8 0.007753 0.292359 0.499409
O O9 0.866293 0.372508 0.946966
O O10 0.688024 0.411936 0.971655
O O11 0.816261 0.870237 0.241174
O O12 0.824971 0.810552 0.976605
O O13 0.988608 0.862252 0.032907
O O14 0.500000 0.839788 0.750000
O O15 0.677539 0.787258 0.795294
O O16 0.135743 0.175383 0.318783
O O17 0.162806 0.091168 0.477295
O O18 0.000000 0.105529 0.250000
#
# Coordination Sequence:
#
# PCOD9456253 Si02
#       8
#     8   8   8   8   8   8   8   8
#     4  11  22  38  62  94 129 169 213 265 325 381
#     4  12  24  41  63  90 128 165 205 262 319 378
#     4  10  22  39  62  93 128 167 215 266 322 388
#     4   9  20  40  61  87 124 164 211 263 312 374
#     4  11  24  42  63  92 129 168 214 267 319 380
#     4  10  21  40  63  88 121 164 211 260 311 369
#     4  10  23  40  61  91 124 164 213 258 315 384
#     4  11  23  38  62  93 126 167 213 257 318 384
#
# _framework density 23.381565999999999
#
# number of rings (size 3 to 8) (size 9 to 14) (size 15 to 20)
#    0.000    1.500    0.000    6.375    0.000   10.000 
#    0.000    0.625    0.000    4.500    0.000    0.000 
#    0.000    0.000    0.000    0.000    0.000    0.000 
#
# Total GULP energy -357493.373844 kJ/mol
# GULP energy per Si atom -5585.833966 kJ/mol
# Density = 2.332835 g / cm^3
# Si number density = 23.381566 Si / 1000 Ang^3
#
#
#
# Elastic Constant Matrix: (Units=GPa)
#
#
# Indices 1 2 3 4 5 6 
#
# 1 167.1761 20.7926 56.7164 0.0000 0.0000 0.0000
# 2 20.7926 35.2327 17.8232 0.0000 0.0000 0.0000
# 3 56.7164 17.8232 52.0196 0.0000 0.0000 0.0000
# 4 0.0000 0.0000 0.0000 31.8730 0.0000 0.0000
# 5 0.0000 0.0000 0.0000 0.0000 45.3041 0.0000
# 6 0.0000 0.0000 0.0000 0.0000 0.0000 18.0868
#
#
#
# Elastic Compliance Matrix: (Units=1/GPa)
#
#
# Indices 1 2 3 4 5 6 
#
# 1 0.009499 -0.000444 -0.010205 0.000000 0.000000 0.000000
# 2 -0.000444 0.034354 -0.011287 0.000000 0.000000 0.000000
# 3 -0.010205 -0.011287 0.034217 0.000000 0.000000 0.000000
# 4 0.000000 0.000000 0.000000 0.031374 0.000000 0.000000
# 5 0.000000 0.000000 0.000000 0.000000 0.022073 0.000000
# 6 0.000000 0.000000 0.000000 0.000000 0.000000 0.055289
#
#
# Mechanical properties :
#
#
# Convention : Reuss Voigt Hill
#
# Bulk Modulus (GPa) = 29.24019 49.45477 39.34748
# Shear Modulus (GPa) = 20.65464 29.65920 25.15692
#
# Velocity S-wave (km/s) = 2.97538 3.56545 3.28369
# Velocity P-wave (km/s) = 4.93322 6.17632 5.58944
#
# Compressibility (1/GPa) = 0.03419950
#
# Stress axis : x y z
#
# Youngs Moduli (GPa) = 105.27528 29.10850 29.22551
#
# Poissons Ratio (x) = 0.01291 0.29823
# Poissons Ratio (y) = 0.04670 0.32987
# Poissons Ratio (z) = 1.07429 0.32855
#
# Static dielectric constant tensor:
#      x y z
#    x 1.904230 0.000000 0.000000 
#    y 0.000000 1.820420 0.000000 
#    z 0.000000 0.000000 1.993750 
# 
# From -- ./inp_files/5327.got.cif
#   From: 2010.05.17/outbox.cif.g08.bks.cpg/sg60_3_cif.got.tgz:5327.got - 2010.06.03 14:59:27.
