data_PCOD9456667
_publ_section_title
;
Structure prediction by ZEFSAII (Michael W. Deem and Ramdas Pophale) SiO2 
 PCOD9456667
Probable space group: P B C N
;
_chemical_formula_sum "Si O2"
_cell_formula_units_Z 36
_cell_length_a 19.882909
_cell_length_b 5.581210
_cell_length_c 12.651498
_cell_angle_alpha 90.000000
_cell_angle_beta 90.000000
_cell_angle_gamma 90.000000
_cell_volume 1403.945469
_symmetry_space_group_name_H-M "P B C N"
_symmetry_group_IT_number 60
_symmetry_cell_setting 'orthorhombic'
loop_
_space_group_symop_operation_xyz
x,y,z
1/2-x,1/2-y,1/2+z
1/2+x,1/2-y,-z
-x,y,1/2-z
-x,-y,-z
1/2+x,1/2+y,1/2-z
1/2-x,1/2+y,z
x,-y,1/2+z
loop_
_atom_site_type_symbol
_atom_site_label
_atom_site_fract_x
_atom_site_fract_y
_atom_site_fract_z
Si Si1 0.500000 0.487371 0.250000
Si Si2 0.841074 0.303405 0.827969
Si Si3 0.730011 0.684442 0.510397
Si Si4 0.635026 0.308554 0.820836
Si Si5 0.013133 0.747889 0.059321
O O1 0.444003 0.655991 0.198968
O O2 0.469619 0.303628 0.335857
O O3 0.780825 0.317316 0.910181
O O4 0.844483 0.556976 0.771700
O O5 0.910608 0.276614 0.895468
O O6 0.834395 0.049817 0.770900
O O7 0.749030 0.433214 0.565062
O O8 0.658675 0.693283 0.445522
O O9 0.000000 0.500000 0.000000
O O10 0.000000 0.000000 0.000000
#
# Coordination Sequence:
#
# PCOD9456667 Si02
#       5
#     4   8   8   8   8
#     4  10  22  38  58  86 124 158 196 250 310 364
#     4   9  17  31  50  77 108 143 189 235 285 347
#     4   8  14  26  46  75 101 135 192 232 271 347
#     4   9  17  29  51  80 106 144 192 232 284 351
#     4  11  23  37  56  86 119 156 201 248 306 371
#
# _framework density 25.642019999999999
#
# number of rings (size 3 to 8) (size 9 to 14) (size 15 to 20)
#    0.000    2.667    0.000    2.667    0.000    8.000 
#    0.000    0.000    0.000    0.000    0.000  149.333 
#    0.000    0.000    0.000    0.000    0.000    0.000 
#
# Total GULP energy -200555.123167 kJ/mol
# GULP energy per Si atom -5570.975644 kJ/mol
# Density = 2.558366 g / cm^3
# Si number density = 25.642020 Si / 1000 Ang^3
#
#
#
# Elastic Constant Matrix: (Units=GPa)
#
#
# Indices 1 2 3 4 5 6 
#
# 1 106.2183 31.2654 24.6989 0.0000 0.0000 0.0000
# 2 31.2654 311.6316 56.0099 0.0000 0.0000 0.0000
# 3 24.6989 56.0099 76.0908 0.0000 0.0000 0.0000
# 4 0.0000 0.0000 0.0000 13.9219 0.0000 0.0000
# 5 0.0000 0.0000 0.0000 0.0000 28.9663 0.0000
# 6 0.0000 0.0000 0.0000 0.0000 0.0000 42.6005
#
#
#
# Elastic Compliance Matrix: (Units=1/GPa)
#
#
# Indices 1 2 3 4 5 6 
#
# 1 0.010249 -0.000496 -0.002962 0.000000 0.000000 0.000000
# 2 -0.000496 0.003722 -0.002579 0.000000 0.000000 0.000000
# 3 -0.002962 -0.002579 0.016002 0.000000 0.000000 0.000000
# 4 0.000000 0.000000 0.000000 0.071830 0.000000 0.000000
# 5 0.000000 0.000000 0.000000 0.000000 0.034523 0.000000
# 6 0.000000 0.000000 0.000000 0.000000 0.000000 0.023474
#
#
# Mechanical properties :
#
#
# Convention : Reuss Voigt Hill
#
# Bulk Modulus (GPa) = 55.86588 79.76547 67.81567
# Shear Modulus (GPa) = 28.11523 42.56219 35.33871
#
# Velocity S-wave (km/s) = 3.31486 4.07856 3.71638
# Velocity P-wave (km/s) = 6.04030 7.30441 6.70222
#
# Compressibility (1/GPa) = 0.01790001
#
# Stress axis : x y z
#
# Youngs Moduli (GPa) = 97.56794 268.65975 62.49262
#
# Poissons Ratio (x) = 0.13324 0.18509
# Poissons Ratio (y) = 0.04839 0.16116
# Poissons Ratio (z) = 0.28898 0.69284
#
# Static dielectric constant tensor:
#      x y z
#    x 2.103530 0.000000 0.000000 
#    y 0.000000 2.152380 0.000000 
#    z 0.000000 0.000000 2.083340 
# 
# From -- ./inp_files/12984.got.cif
#   From: 2010.05.17/outbox.cif.g08.bks.cpg/sg60_7_cif.got.tgz:12984.got - 2010.06.03 14:59:27.
