data_PCOD9456480
_publ_section_title
;
Structure prediction by ZEFSAII (Michael W. Deem and Ramdas Pophale) SiO2 
 PCOD9456480
Probable space group: P B C N
;
_chemical_formula_sum "Si O2"
_cell_formula_units_Z 52
_cell_length_a 5.591445
_cell_length_b 18.757561
_cell_length_c 19.608806
_cell_angle_alpha 90.000000
_cell_angle_beta 90.000000
_cell_angle_gamma 90.000000
_cell_volume 2056.608255
_symmetry_space_group_name_H-M "P B C N"
_symmetry_group_IT_number 60
_symmetry_cell_setting 'orthorhombic'
loop_
_space_group_symop_operation_xyz
x,y,z
1/2-x,1/2-y,1/2+z
1/2+x,1/2-y,-z
-x,y,1/2-z
-x,-y,-z
1/2+x,1/2+y,1/2-z
1/2-x,1/2+y,z
x,-y,1/2+z
loop_
_atom_site_type_symbol
_atom_site_label
_atom_site_fract_x
_atom_site_fract_y
_atom_site_fract_z
Si Si1 0.500000 0.456236 0.250000
Si Si2 0.753666 0.355233 0.542664
Si Si3 0.011135 0.304942 0.824464
Si Si4 0.185153 0.667826 0.809089
Si Si5 0.925516 0.954442 0.392349
Si Si6 0.249077 0.566682 0.008973
Si Si7 0.293039 0.797230 0.093290
O O1 0.702275 0.406329 0.215213
O O2 0.406166 0.491678 0.181424
O O3 0.492051 0.390604 0.532409
O O4 0.755954 0.290280 0.487722
O O5 0.811609 0.340769 0.621261
O O6 0.998029 0.395318 0.519279
O O7 0.781480 0.275407 0.867413
O O8 0.000000 0.342006 0.750000
O O9 0.124853 0.229138 0.807974
O O10 0.000000 0.685778 0.750000
O O11 0.052093 0.678294 0.880635
O O12 0.854131 0.870577 0.387660
O O13 0.179041 0.955962 0.431978
O O14 0.754321 0.997863 0.442408
#
# Coordination Sequence:
#
# PCOD9456480 Si02
#       7
#     4   8   8   8   8   8   8
#     4  12  20  38  60 108 126 162 220 290 340 396
#     4  11  28  45  69  97 137 186 229 264 327 419
#     4  12  25  44  64  98 140 179 224 280 343 401
#     4  12  20  37  62  98 135 164 215 279 360 382
#     4  10  21  42  72  95 136 166 223 289 335 396
#     4  10  25  49  66  98 133 186 225 269 335 401
#     4  11  24  40  69 100 129 171 223 286 337 392
#
# _framework density 25.284348999999999
#
# number of rings (size 3 to 8) (size 9 to 14) (size 15 to 20)
#    0.000    0.923    5.385    0.923    6.462    6.769 
#    2.769    0.000    0.000    0.000    0.000    0.000 
#    0.000    0.000    0.000    0.000    0.000    0.000 
#
# Total GULP energy -290159.764414 kJ/mol
# GULP energy per Si atom -5579.995469 kJ/mol
# Density = 2.522680 g / cm^3
# Si number density = 25.284349 Si / 1000 Ang^3
#
#
#
# Elastic Constant Matrix: (Units=GPa)
#
#
# Indices 1 2 3 4 5 6 
#
# 1 109.1737 32.1599 24.7637 0.0000 0.0000 0.0000
# 2 32.1599 21.4704 21.6936 0.0000 0.0000 0.0000
# 3 24.7637 21.6936 215.0470 0.0000 0.0000 0.0000
# 4 0.0000 0.0000 0.0000 28.3071 0.0000 0.0000
# 5 0.0000 0.0000 0.0000 0.0000 36.9261 0.0000
# 6 0.0000 0.0000 0.0000 0.0000 0.0000 31.3295
#
#
#
# Elastic Compliance Matrix: (Units=1/GPa)
#
#
# Indices 1 2 3 4 5 6 
#
# 1 0.016476 -0.025346 0.000660 0.000000 0.000000 0.000000
# 2 -0.025346 0.090852 -0.006246 0.000000 0.000000 0.000000
# 3 0.000660 -0.006246 0.005204 0.000000 0.000000 0.000000
# 4 0.000000 0.000000 0.000000 0.035327 0.000000 0.000000
# 5 0.000000 0.000000 0.000000 0.000000 0.027081 0.000000
# 6 0.000000 0.000000 0.000000 0.000000 0.000000 0.031919
#
#
# Mechanical properties :
#
#
# Convention : Reuss Voigt Hill
#
# Bulk Modulus (GPa) = 19.73660 55.88061 37.80860
# Shear Modulus (GPa) = 17.50613 37.11746 27.31180
#
# Velocity S-wave (km/s) = 2.63415 3.83561 3.29018
# Velocity P-wave (km/s) = 4.13212 6.46256 5.42398
#
# Compressibility (1/GPa) = 0.05066730
#
# Stress axis : x y z
#
# Youngs Moduli (GPa) = 60.69280 11.00690 192.14815
#
# Poissons Ratio (x) = 0.27898 -0.12673
# Poissons Ratio (y) = 1.53832 1.20022
# Poissons Ratio (z) = -0.04003 0.06875
#
# Static dielectric constant tensor:
#      x y z
#    x 2.120260 0.000000 0.000000 
#    y 0.000000 2.061750 0.000000 
#    z 0.000000 0.000000 2.520470 
# 
# From -- ./inp_files/21671.got.cif
#   From: 2010.05.17/outbox.cif.g08.bks.cpg/sg60_11_cif.got.tgz:21671.got - 2010.06.03 14:59:27.
