data_PCOD9456557
_publ_section_title
;
Structure prediction by ZEFSAII (Michael W. Deem and Ramdas Pophale) SiO2 
 PCOD9456557
Probable space group: P B C N
;
_chemical_formula_sum "Si O2"
_cell_formula_units_Z 56
_cell_length_a 8.968889
_cell_length_b 14.195517
_cell_length_c 20.196201
_cell_angle_alpha 90.000000
_cell_angle_beta 90.000000
_cell_angle_gamma 90.000000
_cell_volume 2571.340248
_symmetry_space_group_name_H-M "P B C N"
_symmetry_group_IT_number 60
_symmetry_cell_setting 'orthorhombic'
loop_
_space_group_symop_operation_xyz
x,y,z
1/2-x,1/2-y,1/2+z
1/2+x,1/2-y,-z
-x,y,1/2-z
-x,-y,-z
1/2+x,1/2+y,1/2-z
1/2-x,1/2+y,z
x,-y,1/2+z
loop_
_atom_site_type_symbol
_atom_site_label
_atom_site_fract_x
_atom_site_fract_y
_atom_site_fract_z
Si Si1 0.211193 0.233103 0.004583
Si Si2 0.876592 0.020897 0.601690
Si Si3 0.247571 0.703066 0.859548
Si Si4 0.344045 0.045390 0.018823
Si Si5 0.334226 0.778501 0.221115
Si Si6 0.289249 0.401917 0.102849
Si Si7 0.516424 0.327202 0.882148
O O1 0.346993 0.158316 0.013385
O O2 0.244880 0.327847 0.044596
O O3 0.086173 0.176018 0.045517
O O4 0.173497 0.241053 0.926752
O O5 0.912053 0.916818 0.626985
O O6 0.775858 0.091912 0.644109
O O7 0.786063 0.015410 0.533104
O O8 0.036770 0.072358 0.598857
O O9 0.267520 0.740830 0.785462
O O10 0.080139 0.732635 0.877400
O O11 0.295661 0.999482 0.087934
O O12 0.500000 0.000000 0.000000
O O13 0.500000 0.805430 0.250000
O O14 0.260598 0.854037 0.171613
O O15 0.363753 0.686464 0.175745
#
# Coordination Sequence:
#
# PCOD9456557 Si02
#       7
#     8   8   8   8   8   8   8
#     4  10  23  37  72  97 135 181 233 287 369 413
#     4  11  24  42  72 105 139 181 243 293 354 442
#     4  10  23  39  66 101 138 172 238 293 345 425
#     4  11  25  38  63 107 142 173 232 297 357 430
#     4   9  22  44  67  94 140 183 233 287 364 431
#     4  11  23  42  71  97 138 186 236 295 356 431
#     4  10  21  45  68  98 138 192 228 294 361 433
#
# _framework density 21.778527
#
# number of rings (size 3 to 8) (size 9 to 14) (size 15 to 20)
#    0.000    1.714    1.429    1.286   18.000    1.714 
#    7.714    0.000    0.000    0.000    0.000    0.000 
#    0.000    0.000    0.000    0.000    0.000    0.000 
#
# Total GULP energy -312139.895195 kJ/mol
# GULP energy per Si atom -5573.926700 kJ/mol
# Density = 2.172896 g / cm^3
# Si number density = 21.778527 Si / 1000 Ang^3
#
#
#
# Elastic Constant Matrix: (Units=GPa)
#
#
# Indices 1 2 3 4 5 6 
#
# 1 75.1132 28.8824 29.0097 0.0000 0.0000 0.0000
# 2 28.8824 88.1189 38.6298 0.0000 0.0000 0.0000
# 3 29.0097 38.6298 170.2358 0.0000 0.0000 0.0000
# 4 0.0000 0.0000 0.0000 24.5433 0.0000 0.0000
# 5 0.0000 0.0000 0.0000 0.0000 32.3644 0.0000
# 6 0.0000 0.0000 0.0000 0.0000 0.0000 48.7889
#
#
#
# Elastic Compliance Matrix: (Units=1/GPa)
#
#
# Indices 1 2 3 4 5 6 
#
# 1 0.015649 -0.004398 -0.001669 0.000000 0.000000 0.000000
# 2 -0.004398 0.013838 -0.002391 0.000000 0.000000 0.000000
# 3 -0.001669 -0.002391 0.006701 0.000000 0.000000 0.000000
# 4 0.000000 0.000000 0.000000 0.040744 0.000000 0.000000
# 5 0.000000 0.000000 0.000000 0.000000 0.030898 0.000000
# 6 0.000000 0.000000 0.000000 0.000000 0.000000 0.020496
#
#
# Mechanical properties :
#
#
# Convention : Reuss Voigt Hill
#
# Bulk Modulus (GPa) = 51.88479 58.50128 55.19304
# Shear Modulus (GPa) = 32.96740 36.93569 34.95155
#
# Velocity S-wave (km/s) = 3.89492 4.12268 4.01042
# Velocity P-wave (km/s) = 6.64099 7.04146 6.84416
#
# Compressibility (1/GPa) = 0.01927347
#
# Stress axis : x y z
#
# Youngs Moduli (GPa) = 63.90311 72.26638 149.22988
#
# Poissons Ratio (x) = 0.31779 0.24903
# Poissons Ratio (y) = 0.28102 0.35676
# Poissons Ratio (z) = 0.10664 0.17276
#
# Static dielectric constant tensor:
#      x y z
#    x 1.889860 0.000000 0.000000 
#    y 0.000000 1.843350 0.000000 
#    z 0.000000 0.000000 1.878760 
# 
# From -- ./inp_files/22192.got.cif
#   From: 2010.05.17/outbox.cif.g08.bks.cpg/sg60_12_cif.got.tgz:22192.got - 2010.06.03 14:59:27.
