data_PCOD9456916
_publ_section_title
;
Structure prediction by ZEFSAII (Michael W. Deem and Ramdas Pophale) SiO2 
 PCOD9456916
Probable space group: P B C N
;
_chemical_formula_sum "Si O2"
_cell_formula_units_Z 64
_cell_length_a 8.789538
_cell_length_b 11.925419
_cell_length_c 29.704589
_cell_angle_alpha 90.000000
_cell_angle_beta 90.000000
_cell_angle_gamma 90.000000
_cell_volume 3113.603041
_symmetry_space_group_name_H-M "P B C N"
_symmetry_group_IT_number 60
_symmetry_cell_setting 'orthorhombic'
loop_
_space_group_symop_operation_xyz
x,y,z
1/2-x,1/2-y,1/2+z
1/2+x,1/2-y,-z
-x,y,1/2-z
-x,-y,-z
1/2+x,1/2+y,1/2-z
1/2-x,1/2+y,z
x,-y,1/2+z
loop_
_atom_site_type_symbol
_atom_site_label
_atom_site_fract_x
_atom_site_fract_y
_atom_site_fract_z
Si Si1 0.477829 0.104880 0.032736
Si Si2 0.231227 0.324993 0.360957
Si Si3 0.983175 0.263990 0.697124
Si Si4 0.235268 0.829071 0.135638
Si Si5 0.483504 0.982034 0.635521
Si Si6 0.008844 0.913306 0.425955
Si Si7 0.647187 0.299131 0.994195
Si Si8 0.521197 0.328536 0.899720
O O1 0.476017 0.065976 0.084594
O O2 0.317167 0.162427 0.018357
O O3 0.619069 0.188554 0.023931
O O4 0.500000 0.000000 0.000000
O O5 0.321730 0.290376 0.316387
O O6 0.123476 0.432700 0.358035
O O7 0.357822 0.356880 0.397213
O O8 0.130794 0.221541 0.378536
O O9 0.000445 0.380266 0.669986
O O10 0.000000 0.277683 0.750000
O O11 0.114775 0.186766 0.675336
O O12 0.340729 0.719106 0.130602
O O13 0.143044 0.848152 0.089085
O O14 0.338129 0.938206 0.142651
O O15 0.061516 0.895109 0.476890
O O16 0.986174 0.039917 0.409171
O O17 0.555278 0.275822 0.948453
#
# Coordination Sequence:
#
# PCOD9456916 Si02
#       8
#     8   8   8   8   8   8   8   8
#     4  12  26  42  63  94 134 181 227 274 326 383
#     4  10  23  41  63  90 121 160 208 256 309 385
#     4  11  24  43  68  96 123 154 200 264 335 398
#     4  10  22  41  63  88 121 161 207 256 313 387
#     4  11  23  43  67  91 128 172 212 261 324 386
#     4  11  21  36  59  87 123 167 211 261 311 359
#     4  12  24  37  58  92 130 171 225 272 312 373
#     4  11  22  39  60  86 124 170 209 254 313 369
#
# _framework density 20.554963000000001
#
# number of rings (size 3 to 8) (size 9 to 14) (size 15 to 20)
#    0.000    1.000    0.000    8.625    0.000    5.000 
#    0.000    1.875    0.000    0.000    0.000    0.000 
#    0.000    0.000    0.000    0.000    0.000    0.000 
#
# Total GULP energy -358033.687446 kJ/mol
# GULP energy per Si atom -5594.276366 kJ/mol
# Density = 2.050818 g / cm^3
# Si number density = 20.554963 Si / 1000 Ang^3
#
#
#
# Elastic Constant Matrix: (Units=GPa)
#
#
# Indices 1 2 3 4 5 6 
#
# 1 126.6601 61.0827 56.6564 0.0000 0.0000 0.0000
# 2 61.0827 136.8735 55.1136 0.0000 0.0000 0.0000
# 3 56.6564 55.1136 146.1292 0.0000 0.0000 0.0000
# 4 0.0000 0.0000 0.0000 19.5293 0.0000 0.0000
# 5 0.0000 0.0000 0.0000 0.0000 4.9617 0.0000
# 6 0.0000 0.0000 0.0000 0.0000 0.0000 11.0576
#
#
#
# Elastic Compliance Matrix: (Units=1/GPa)
#
#
# Indices 1 2 3 4 5 6 
#
# 1 0.010976 -0.003755 -0.002839 0.000000 0.000000 0.000000
# 2 -0.003755 0.009899 -0.002278 0.000000 0.000000 0.000000
# 3 -0.002839 -0.002278 0.008803 0.000000 0.000000 0.000000
# 4 0.000000 0.000000 0.000000 0.051205 0.000000 0.000000
# 5 0.000000 0.000000 0.000000 0.000000 0.201544 0.000000
# 6 0.000000 0.000000 0.000000 0.000000 0.000000 0.090436
#
#
# Mechanical properties :
#
#
# Convention : Reuss Voigt Hill
#
# Bulk Modulus (GPa) = 83.79267 83.92980 83.86123
# Shear Modulus (GPa) = 12.67155 22.89705 17.78430
#
# Velocity S-wave (km/s) = 2.48558 3.34120 2.94463
# Velocity P-wave (km/s) = 7.00651 7.47030 7.24212
#
# Compressibility (1/GPa) = 0.01193422
#
# Stress axis : x y z
#
# Youngs Moduli (GPa) = 91.10691 101.02178 113.59615
#
# Poissons Ratio (x) = 0.37934 0.32254
# Poissons Ratio (y) = 0.34211 0.25872
# Poissons Ratio (z) = 0.25869 0.23008
#
# Static dielectric constant tensor:
#      x y z
#    x 1.778330 0.000000 0.000000 
#    y 0.000000 1.767860 0.000000 
#    z 0.000000 0.000000 1.693490 
# 
# From -- ./inp_files/26004.got.cif
#   From: 2010.05.17/outbox.cif.g08.bks.cpg/sg60_14_cif.got.tgz:26004.got - 2010.06.03 14:59:27.
