data_PCOD9456592
_publ_section_title
;
Structure prediction by ZEFSAII (Michael W. Deem and Ramdas Pophale) SiO2 
 PCOD9456592
Probable space group: P B C N
;
_chemical_formula_sum "Si O2"
_cell_formula_units_Z 60
_cell_length_a 17.603195
_cell_length_b 8.535531
_cell_length_c 18.910790
_cell_angle_alpha 90.000000
_cell_angle_beta 90.000000
_cell_angle_gamma 90.000000
_cell_volume 2841.395680
_symmetry_space_group_name_H-M "P B C N"
_symmetry_group_IT_number 60
_symmetry_cell_setting 'orthorhombic'
loop_
_space_group_symop_operation_xyz
x,y,z
1/2-x,1/2-y,1/2+z
1/2+x,1/2-y,-z
-x,y,1/2-z
-x,-y,-z
1/2+x,1/2+y,1/2-z
1/2-x,1/2+y,z
x,-y,1/2+z
loop_
_atom_site_type_symbol
_atom_site_label
_atom_site_fract_x
_atom_site_fract_y
_atom_site_fract_z
Si Si1 0.085579 0.672196 0.742819
Si Si2 0.373610 0.193485 0.897478
Si Si3 0.500000 0.303720 0.250000
Si Si4 0.118720 0.979918 0.667229
Si Si5 0.062188 0.661119 0.391726
Si Si6 0.231302 0.552057 0.247987
Si Si7 0.291966 0.324913 0.350164
Si Si8 0.054585 0.864644 0.027536
O O1 0.101655 0.750423 0.819354
O O2 0.089755 0.802216 0.681311
O O3 0.154218 0.546828 0.735600
O O4 0.000000 0.612437 0.750000
O O5 0.282949 0.192372 0.896720
O O6 0.408281 0.016046 0.901421
O O7 0.400170 0.299177 0.961250
O O8 0.431944 0.414105 0.220889
O O9 0.528774 0.198286 0.185646
O O10 0.208249 0.965077 0.685492
O O11 0.102686 0.058719 0.591562
O O12 0.134907 0.776567 0.393691
O O13 0.997263 0.721401 0.443867
O O14 0.278652 0.493086 0.316425
O O15 0.209062 0.721771 0.277189
O O16 0.000000 0.000000 0.000000
#
# Coordination Sequence:
#
# PCOD9456592 Si02
#       8
#     8   8   4   8   8   8   8   8
#     4  11  22  38  69  97 132 176 232 287 356 410
#     4  11  24  42  64  96 137 175 227 284 340 425
#     4  10  22  34  68 100 130 162 232 286 350 402
#     4  11  21  41  66  99 133 174 227 295 338 411
#     4  11  23  41  66  99 133 177 222 291 346 412
#     4  11  21  38  65 101 135 163 223 295 345 407
#     4  11  21  38  69  99 125 172 229 281 342 411
#     4  11  27  44  65  95 137 189 233 277 351 423
#
# _framework density 21.116382999999999
#
# number of rings (size 3 to 8) (size 9 to 14) (size 15 to 20)
#    0.000    1.067    7.333    1.200    4.667    0.000 
#    0.000    4.000    0.000    0.000    0.000    0.000 
#    0.000    0.000    0.000    0.000    0.000    0.000 
#
# Total GULP energy -334953.355044 kJ/mol
# GULP energy per Si atom -5582.555917 kJ/mol
# Density = 2.106832 g / cm^3
# Si number density = 21.116383 Si / 1000 Ang^3
#
#
#
# Elastic Constant Matrix: (Units=GPa)
#
#
# Indices 1 2 3 4 5 6 
#
# 1 131.7959 19.1893 18.9383 0.0000 0.0000 0.0000
# 2 19.1893 80.9623 -7.5457 0.0000 0.0000 0.0000
# 3 18.9383 -7.5457 43.1261 0.0000 0.0000 0.0000
# 4 0.0000 0.0000 0.0000 22.6960 0.0000 0.0000
# 5 0.0000 0.0000 0.0000 0.0000 28.5251 0.0000
# 6 0.0000 0.0000 0.0000 0.0000 0.0000 22.1907
#
#
#
# Elastic Compliance Matrix: (Units=1/GPa)
#
#
# Indices 1 2 3 4 5 6 
#
# 1 0.008538 -0.002412 -0.004172 0.000000 0.000000 0.000000
# 2 -0.002412 0.013238 0.003376 0.000000 0.000000 0.000000
# 3 -0.004172 0.003376 0.025610 0.000000 0.000000 0.000000
# 4 0.000000 0.000000 0.000000 0.044061 0.000000 0.000000
# 5 0.000000 0.000000 0.000000 0.000000 0.035057 0.000000
# 6 0.000000 0.000000 0.000000 0.000000 0.000000 0.045064
#
#
# Mechanical properties :
#
#
# Convention : Reuss Voigt Hill
#
# Bulk Modulus (GPa) = 24.40838 35.22756 29.81797
# Shear Modulus (GPa) = 26.09045 29.70252 27.89648
#
# Velocity S-wave (km/s) = 3.51886 3.75455 3.63861
# Velocity P-wave (km/s) = 5.30037 5.95939 5.63951
#
# Compressibility (1/GPa) = 0.04096954
#
# Stress axis : x y z
#
# Youngs Moduli (GPa) = 117.12120 75.54109 39.04674
#
# Poissons Ratio (x) = 0.18224 0.16288
# Poissons Ratio (y) = 0.28255 -0.13181
# Poissons Ratio (z) = 0.48857 -0.25500
#
# Static dielectric constant tensor:
#      x y z
#    x 1.647520 0.000000 0.000000 
#    y 0.000000 1.800760 0.000000 
#    z 0.000000 0.000000 1.751930 
# 
# From -- ./inp_files/20879.got.cif
#   From: 2010.05.17/outbox.cif.g08.bks.cpg/sg60_11_cif.got.tgz:20879.got - 2010.06.03 14:59:27.
