data_PCOD9456765
_publ_section_title
;
Structure prediction by ZEFSAII (Michael W. Deem and Ramdas Pophale) SiO2 
 PCOD9456765
Probable space group: P B C N
;
_chemical_formula_sum "Si O2"
_cell_formula_units_Z 60
_cell_length_a 12.067648
_cell_length_b 18.865660
_cell_length_c 12.053721
_cell_angle_alpha 90.000000
_cell_angle_beta 90.000000
_cell_angle_gamma 90.000000
_cell_volume 2744.200076
_symmetry_space_group_name_H-M "P B C N"
_symmetry_group_IT_number 60
_symmetry_cell_setting 'orthorhombic'
loop_
_space_group_symop_operation_xyz
x,y,z
1/2-x,1/2-y,1/2+z
1/2+x,1/2-y,-z
-x,y,1/2-z
-x,-y,-z
1/2+x,1/2+y,1/2-z
1/2-x,1/2+y,z
x,-y,1/2+z
loop_
_atom_site_type_symbol
_atom_site_label
_atom_site_fract_x
_atom_site_fract_y
_atom_site_fract_z
Si Si1 0.765964 0.717335 0.733713
Si Si2 0.266018 0.845403 0.603964
Si Si3 0.545360 0.805195 0.068732
Si Si4 0.000000 0.919055 0.250000
Si Si5 0.586284 0.683965 0.560352
Si Si6 0.587201 0.063035 0.970800
Si Si7 0.240258 0.054096 0.709123
Si Si8 0.873705 0.560488 0.208805
O O1 0.755591 0.771276 0.833904
O O2 0.883474 0.721140 0.672597
O O3 0.671177 0.727199 0.640019
O O4 0.745898 0.638001 0.775493
O O5 0.368619 0.836846 0.521074
O O6 0.160567 0.860587 0.526666
O O7 0.300908 0.897860 0.701895
O O8 0.485144 0.739937 0.008683
O O9 0.467698 0.872240 0.096111
O O10 0.979090 0.868095 0.143321
O O11 0.888819 0.963368 0.275525
O O12 0.693974 0.036300 0.903817
O O13 0.623248 0.094837 0.088668
O O14 0.500000 0.000000 0.000000
O O15 0.315242 0.015672 0.801350
O O16 0.000000 0.553915 0.250000
#
# Coordination Sequence:
#
# PCOD9456765 Si02
#       8
#     8   8   8   4   8   8   8   8
#     4  10  23  38  62  94 135 176 223 276 330 401
#     4  11  23  40  60  98 134 168 223 279 341 395
#     4  11  21  37  63  92 130 176 222 279 333 392
#     4  10  24  48  68  86 130 182 222 272 326 416
#     4  10  22  39  63  90 127 175 227 270 329 397
#     4  12  23  38  66 100 130 169 222 281 333 396
#     4  11  24  44  67  98 131 178 229 268 334 410
#     4  12  24  43  69 100 138 172 215 283 349 387
#
# _framework density 21.864296
#
# number of rings (size 3 to 8) (size 9 to 14) (size 15 to 20)
#    0.000    1.067    2.667    4.000    0.000    6.933 
#    0.000    4.000    0.000    0.000    0.000    0.000 
#    0.000    0.000    0.000    0.000    0.000    0.000 
#
# Total GULP energy -335491.058906 kJ/mol
# GULP energy per Si atom -5591.517648 kJ/mol
# Density = 2.181453 g / cm^3
# Si number density = 21.864296 Si / 1000 Ang^3
#
#
#
# Elastic Constant Matrix: (Units=GPa)
#
#
# Indices 1 2 3 4 5 6 
#
# 1 96.5226 2.4531 24.5079 0.0000 0.0000 0.0000
# 2 2.4531 48.6334 -5.0497 0.0000 0.0000 0.0000
# 3 24.5079 -5.0497 51.4343 0.0000 0.0000 0.0000
# 4 0.0000 0.0000 0.0000 28.9215 0.0000 0.0000
# 5 0.0000 0.0000 0.0000 0.0000 47.4103 0.0000
# 6 0.0000 0.0000 0.0000 0.0000 0.0000 24.1090
#
#
#
# Elastic Compliance Matrix: (Units=1/GPa)
#
#
# Indices 1 2 3 4 5 6 
#
# 1 0.011855 -0.001197 -0.005766 0.000000 0.000000 0.000000
# 2 -0.001197 0.020895 0.002622 0.000000 0.000000 0.000000
# 3 -0.005766 0.002622 0.022447 0.000000 0.000000 0.000000
# 4 0.000000 0.000000 0.000000 0.034576 0.000000 0.000000
# 5 0.000000 0.000000 0.000000 0.000000 0.021092 0.000000
# 6 0.000000 0.000000 0.000000 0.000000 0.000000 0.041478
#
#
# Mechanical properties :
#
#
# Convention : Reuss Voigt Hill
#
# Bulk Modulus (GPa) = 21.49893 26.71257 24.10575
# Shear Modulus (GPa) = 28.32367 31.73342 30.02855
#
# Velocity S-wave (km/s) = 3.60311 3.81383 3.70997
# Velocity P-wave (km/s) = 5.21192 5.62474 5.42226
#
# Compressibility (1/GPa) = 0.04651394
#
# Stress axis : x y z
#
# Youngs Moduli (GPa) = 84.35427 47.85938 44.54908
#
# Poissons Ratio (x) = 0.05727 0.25688
# Poissons Ratio (y) = 0.10094 -0.11679
# Poissons Ratio (z) = 0.48640 -0.12547
#
# Static dielectric constant tensor:
#      x y z
#    x 1.836830 0.000000 0.000000 
#    y 0.000000 1.817100 0.000000 
#    z 0.000000 0.000000 1.807770 
# 
# From -- ./inp_files/11256.got.cif
#   From: 2010.05.17/outbox.cif.g08.bks.cpg/sg60_6_cif.got.tgz:11256.got - 2010.06.03 14:59:27.
