data_PCOD9456059
_publ_section_title
;
Structure prediction by ZEFSAII (Michael W. Deem and Ramdas Pophale) SiO2 
 PCOD9456059
Probable space group: P B C N
;
_chemical_formula_sum "Si O2"
_cell_formula_units_Z 48
_cell_length_a 17.780245
_cell_length_b 26.492500
_cell_length_c 5.022399
_cell_angle_alpha 90.000000
_cell_angle_beta 90.000000
_cell_angle_gamma 90.000000
_cell_volume 2365.766599
_symmetry_space_group_name_H-M "P B C N"
_symmetry_group_IT_number 60
_symmetry_cell_setting 'orthorhombic'
loop_
_space_group_symop_operation_xyz
x,y,z
1/2-x,1/2-y,1/2+z
1/2+x,1/2-y,-z
-x,y,1/2-z
-x,-y,-z
1/2+x,1/2+y,1/2-z
1/2-x,1/2+y,z
x,-y,1/2+z
loop_
_atom_site_type_symbol
_atom_site_label
_atom_site_fract_x
_atom_site_fract_y
_atom_site_fract_z
Si Si1 0.663586 0.535626 0.250150
Si Si2 0.000000 0.962801 0.750000
Si Si3 0.210709 0.772274 0.551733
Si Si4 0.723741 0.124687 0.264005
Si Si5 0.877834 0.624518 0.763144
Si Si6 0.049607 0.273162 0.015359
Si Si7 0.500000 0.962919 0.250000
O O1 0.668019 0.490227 0.461966
O O2 0.581513 0.562940 0.262390
O O3 0.729298 0.574346 0.311710
O O4 0.000000 0.000000 0.500000
O O5 0.261579 0.764541 0.289463
O O6 0.224109 0.827336 0.673950
O O7 0.126112 0.757991 0.472577
O O8 0.653480 0.130441 0.465012
O O9 0.692089 0.121907 0.965824
O O10 0.928618 0.574500 0.769192
O O11 0.924558 0.672442 0.869700
O O12 0.000000 0.278138 0.750000
O O13 0.000000 0.249002 0.250000
O O14 0.500000 0.000000 0.500000
#
# Coordination Sequence:
#
# PCOD9456059 Si02
#       7
#     8   4   8   8   8   8   4
#     4  10  21  38  63  90 123 163 209 257 315 385
#     4   8  16  34  58  81 110 155 192 232 298 370
#     4  12  23  43  67  97 131 170 214 272 336 392
#     4  12  24  41  67  97 128 168 216 270 325 395
#     4  12  25  42  68  90 125 179 218 259 335 394
#     4  12  24  42  70  95 127 172 221 269 327 411
#     4  12  28  44  62  95 136 171 226 288 322 376
#
# _framework density 20.289404999999999
#
# number of rings (size 3 to 8) (size 9 to 14) (size 15 to 20)
#    0.000    0.667    4.167    4.000    1.167    4.000 
#    1.500    0.000    7.333    0.000    0.000    0.000 
#    0.000    0.000    0.000    0.000    0.000    0.000 
#
# Total GULP energy -268238.433270 kJ/mol
# GULP energy per Si atom -5588.300693 kJ/mol
# Density = 2.024323 g / cm^3
# Si number density = 20.289405 Si / 1000 Ang^3
#
#
#
# Elastic Constant Matrix: (Units=GPa)
#
#
# Indices 1 2 3 4 5 6 
#
# 1 90.7796 32.2090 5.2729 0.0000 0.0000 0.0000
# 2 32.2090 73.1421 -7.5806 0.0000 0.0000 0.0000
# 3 5.2729 -7.5806 89.5428 0.0000 0.0000 0.0000
# 4 0.0000 0.0000 0.0000 20.1671 0.0000 0.0000
# 5 0.0000 0.0000 0.0000 0.0000 44.6117 0.0000
# 6 0.0000 0.0000 0.0000 0.0000 0.0000 38.6898
#
#
#
# Elastic Compliance Matrix: (Units=1/GPa)
#
#
# Indices 1 2 3 4 5 6 
#
# 1 0.013199 -0.005945 -0.001281 0.000000 0.000000 0.000000
# 2 -0.005945 0.016471 0.001745 0.000000 0.000000 0.000000
# 3 -0.001281 0.001745 0.011391 0.000000 0.000000 0.000000
# 4 0.000000 0.000000 0.000000 0.049586 0.000000 0.000000
# 5 0.000000 0.000000 0.000000 0.000000 0.022416 0.000000
# 6 0.000000 0.000000 0.000000 0.000000 0.000000 0.025847
#
#
# Mechanical properties :
#
#
# Convention : Reuss Voigt Hill
#
# Bulk Modulus (GPa) = 33.22413 34.80744 34.01578
# Shear Modulus (GPa) = 31.26856 35.59792 33.43324
#
# Velocity S-wave (km/s) = 3.92998 4.19323 4.06374
# Velocity P-wave (km/s) = 6.08306 6.37471 6.23059
#
# Compressibility (1/GPa) = 0.03009861
#
# Stress axis : x y z
#
# Youngs Moduli (GPa) = 75.76048 60.71313 87.78901
#
# Poissons Ratio (x) = 0.36096 0.11242
# Poissons Ratio (y) = 0.45042 -0.15315
# Poissons Ratio (z) = 0.09702 -0.10591
#
# Static dielectric constant tensor:
#      x y z
#    x 1.783280 0.000000 0.000000 
#    y 0.000000 1.697440 0.000000 
#    z 0.000000 0.000000 1.689650 
# 
# From -- ./inp_files/1358.got.cif
#   From: 2010.05.17/outbox.cif.g08.bks.cpg/sg60_1_cif.got.tgz:1358.got - 2010.06.03 14:59:27.
