data_PCOD9456798
_publ_section_title
;
Structure prediction by ZEFSAII (Michael W. Deem and Ramdas Pophale) SiO2 
 PCOD9456798
Probable space group: P B C N
;
_chemical_formula_sum "Si O2"
_cell_formula_units_Z 40
_cell_length_a 5.400852
_cell_length_b 16.007386
_cell_length_c 18.564803
_cell_angle_alpha 90.000000
_cell_angle_beta 90.000000
_cell_angle_gamma 90.000000
_cell_volume 1604.992617
_symmetry_space_group_name_H-M "P B C N"
_symmetry_group_IT_number 60
_symmetry_cell_setting 'orthorhombic'
loop_
_space_group_symop_operation_xyz
x,y,z
1/2-x,1/2-y,1/2+z
1/2+x,1/2-y,-z
-x,y,1/2-z
-x,-y,-z
1/2+x,1/2+y,1/2-z
1/2-x,1/2+y,z
x,-y,1/2+z
loop_
_atom_site_type_symbol
_atom_site_label
_atom_site_fract_x
_atom_site_fract_y
_atom_site_fract_z
Si Si1 0.000000 0.418740 0.750000
Si Si2 0.522164 0.095499 0.526088
Si Si3 0.032056 0.869278 0.947793
Si Si4 0.301365 0.472169 0.353416
Si Si5 0.000000 0.844999 0.250000
Si Si6 0.832650 0.796093 0.812170
O O1 0.198325 0.477377 0.786260
O O2 0.101072 0.360109 0.685324
O O3 0.780104 0.129209 0.493547
O O4 0.577017 0.079193 0.609512
O O5 0.277029 0.141271 0.496839
O O6 0.500000 0.000000 0.500000
O O7 0.984281 0.800021 0.885857
O O8 0.071869 0.959444 0.906693
O O9 0.470452 0.401688 0.320119
O O10 0.225427 0.785639 0.225832
O O11 0.000000 0.834892 0.750000
#
# Coordination Sequence:
#
# PCOD9456798 Si02
#       6
#     4   8   8   8   4   8
#     4  11  22  40  72  99 138 182 238 301 352 434
#     4  10  22  39  71 105 137 171 227 298 348 413
#     4  11  22  43  74  99 134 185 238 284 343 429
#     4  11  22  43  69 111 137 174 237 305 366 400
#     4  11  28  40  66 105 148 186 226 313 366 424
#     4  11  23  44  65  98 138 190 239 282 356 443
#
# _framework density 24.922232999999999
#
# number of rings (size 3 to 8) (size 9 to 14) (size 15 to 20)
#    0.000    1.200    2.000    6.000    4.200    1.600 
#    0.000    0.000    4.400    0.000    0.000    0.000 
#    0.000    0.000    0.000    0.000    0.000    0.000 
#
# Total GULP energy -223548.227761 kJ/mol
# GULP energy per Si atom -5588.705694 kJ/mol
# Density = 2.486551 g / cm^3
# Si number density = 24.922233 Si / 1000 Ang^3
#
#
#
# Elastic Constant Matrix: (Units=GPa)
#
#
# Indices 1 2 3 4 5 6 
#
# 1 143.0986 33.3752 32.5106 0.0000 0.0000 0.0000
# 2 33.3752 59.3826 28.7709 0.0000 0.0000 0.0000
# 3 32.5106 28.7709 64.9514 0.0000 0.0000 0.0000
# 4 0.0000 0.0000 0.0000 8.7137 0.0000 0.0000
# 5 0.0000 0.0000 0.0000 0.0000 53.5154 0.0000
# 6 0.0000 0.0000 0.0000 0.0000 0.0000-1535.7368
#
#
#
# Elastic Compliance Matrix: (Units=1/GPa)
#
#
# Indices 1 2 3 4 5 6 
#
# 1 0.008396 -0.003416 -0.002689 0.000000 0.000000 0.000000
# 2 -0.003416 0.022831 -0.008404 0.000000 0.000000 0.000000
# 3 -0.002689 -0.008404 0.020465 0.000000 0.000000 0.000000
# 4 0.000000 0.000000 0.000000 0.114762 0.000000 0.000000
# 5 0.000000 0.000000 0.000000 0.000000 0.018686 0.000000
# 6 0.000000 0.000000 0.000000 0.000000 0.000000 -0.000651
#
#
# Mechanical properties :
#
#
# Convention : Reuss Voigt Hill
#
# Bulk Modulus (GPa) = 44.10280 50.74956 47.42618
# Shear Modulus (GPa) = 22.61782 -283.18314 -130.28266
#
# Velocity S-wave (km/s) = 3.01580 -10.67115 -7.23804
# Velocity P-wave (km/s) = 5.46455 11.46402 7.12610
#
# Compressibility (1/GPa) = 0.02267430
#
# Stress axis : x y z
#
# Youngs Moduli (GPa) = 119.10635 43.79954 48.86457
#
# Poissons Ratio (x) = 0.14961 0.13142
# Poissons Ratio (y) = 0.40684 0.41064
# Poissons Ratio (z) = 0.32032 0.36808
#
# Static dielectric constant tensor:
#      x y z
#    x 1.445140 0.000000 0.000000 
#    y 0.000000 1.959950 0.000000 
#    z 0.000000 0.000000 1.990430 
# 
# From -- ./inp_files/18549.got.cif
#   From: 2010.05.17/outbox.cif.g08.bks.cpg/sg60_10_cif.got.tgz:18549.got - 2010.06.03 14:59:27.
