data_PCOD9456955
_publ_section_title
;
Structure prediction by ZEFSAII (Michael W. Deem and Ramdas Pophale) SiO2 
 PCOD9456955
Probable space group: P B C N
;
_chemical_formula_sum "Si O2"
_cell_formula_units_Z 56
_cell_length_a 8.816881
_cell_length_b 21.691706
_cell_length_c 14.365991
_cell_angle_alpha 90.000000
_cell_angle_beta 90.000000
_cell_angle_gamma 90.000000
_cell_volume 2747.541613
_symmetry_space_group_name_H-M "P B C N"
_symmetry_group_IT_number 60
_symmetry_cell_setting 'orthorhombic'
loop_
_space_group_symop_operation_xyz
x,y,z
1/2-x,1/2-y,1/2+z
1/2+x,1/2-y,-z
-x,y,1/2-z
-x,-y,-z
1/2+x,1/2+y,1/2-z
1/2-x,1/2+y,z
x,-y,1/2+z
loop_
_atom_site_type_symbol
_atom_site_label
_atom_site_fract_x
_atom_site_fract_y
_atom_site_fract_z
Si Si1 0.244052 0.064799 0.232976
Si Si2 0.492180 0.247953 0.096355
Si Si3 0.513348 0.396308 0.609212
Si Si4 0.027743 0.107042 0.608823
Si Si5 0.500000 0.166897 0.750000
Si Si6 0.249334 0.928245 0.271537
Si Si7 0.000000 0.657830 0.250000
Si Si8 0.368825 0.739087 0.101694
O O1 0.121557 0.061132 0.149823
O O2 0.373736 0.113036 0.208539
O O3 0.153777 0.091088 0.322757
O O4 0.305445 0.997585 0.257610
O O5 0.507654 0.320093 0.119928
O O6 0.566144 0.203569 0.172449
O O7 0.312565 0.233649 0.095779
O O8 0.567858 0.238134 0.997077
O O9 0.548037 0.405783 0.500525
O O10 0.449501 0.326576 0.620576
O O11 0.169983 0.092023 0.674423
O O12 0.883689 0.071852 0.651787
O O13 0.622741 0.121212 0.703959
O O14 0.584778 0.211418 0.821568
#
# Coordination Sequence:
#
# PCOD9456955 Si02
#       8
#     8   8   8   8   4   8   4   8
#     4  11  24  41  62  91 123 166 212 249 297 366
#     4  11  25  41  66  96 124 157 202 256 312 371
#     4  10  22  41  66  91 121 159 208 255 306 361
#     4  10  22  41  66  91 121 159 208 255 306 361
#     4  12  25  40  64  90 131 162 196 258 316 356
#     4  11  24  41  62  91 123 166 212 249 297 366
#     4  12  25  40  64  90 131 162 196 258 316 356
#     4  11  25  41  66  96 124 157 202 256 312 371
#
# _framework density 20.381858000000001
#
# number of rings (size 3 to 8) (size 9 to 14) (size 15 to 20)
#    0.000    1.143    2.857    3.857    8.000    2.286 
#    0.000    0.000    0.000    5.143    0.000    0.000 
#    0.000    0.000    0.000    0.000    0.000    0.000 
#
# Total GULP energy -313101.091907 kJ/mol
# GULP energy per Si atom -5591.090927 kJ/mol
# Density = 2.033547 g / cm^3
# Si number density = 20.381858 Si / 1000 Ang^3
#
#
#
# Elastic Constant Matrix: (Units=GPa)
#
#
# Indices 1 2 3 4 5 6 
#
# 1 35.0055 -5.3377 -10.3641 0.0000 0.0000 0.0000
# 2 -5.3377 78.3107 17.6672 0.0000 0.0000 0.0000
# 3 -10.3641 17.6672 58.8622 0.0000 0.0000 0.0000
# 4 0.0000 0.0000 0.0000 -59.0209 0.0000 0.0000
# 5 0.0000 0.0000 0.0000 0.0000 18.2864 0.0000
# 6 0.0000 0.0000 0.0000 0.0000 0.0000 22.0098
#
#
#
# Elastic Compliance Matrix: (Units=1/GPa)
#
#
# Indices 1 2 3 4 5 6 
#
# 1 0.030200 0.000921 0.005041 0.000000 0.000000 0.000000
# 2 0.000921 0.013725 -0.003957 0.000000 0.000000 0.000000
# 3 0.005041 -0.003957 0.019064 0.000000 0.000000 0.000000
# 4 0.000000 0.000000 0.000000 -0.016943 0.000000 0.000000
# 5 0.000000 0.000000 0.000000 0.000000 0.054685 0.000000
# 6 0.000000 0.000000 0.000000 0.000000 0.000000 0.045434
#
#
# Mechanical properties :
#
#
# Convention : Reuss Voigt Hill
#
# Bulk Modulus (GPa) = 14.92566 19.56770 17.24668
# Shear Modulus (GPa) = 30.39709 7.60259 18.99984
#
# Velocity S-wave (km/s) = 3.86603 1.93344 3.05650
# Velocity P-wave (km/s) = 5.22180 3.82173 4.57563
#
# Compressibility (1/GPa) = 0.06699870
#
# Stress axis : x y z
#
# Youngs Moduli (GPa) = 33.11277 72.85849 52.45433
#
# Poissons Ratio (x) = -0.06712 -0.26442
# Poissons Ratio (y) = -0.03050 0.20758
# Poissons Ratio (z) = -0.16692 0.28833
#
# Static dielectric constant tensor:
#      x y z
#    x 1.774530 0.000000 0.000000 
#    y 0.000000 1.727480 0.000000 
#    z 0.000000 0.000000 1.704780 
# 
# From -- ./inp_files/15271.got.cif
#   From: 2010.05.17/outbox.cif.g08.bks.cpg/sg60_8_cif.got.tgz:15271.got - 2010.06.03 14:59:27.
