data_PCOD9456658
_publ_section_title
;
Structure prediction by ZEFSAII (Michael W. Deem and Ramdas Pophale) SiO2 
 PCOD9456658
Probable space group: P B C N
;
_chemical_formula_sum "Si O2"
_cell_formula_units_Z 64
_cell_length_a 16.450518
_cell_length_b 14.560638
_cell_length_c 10.762871
_cell_angle_alpha 90.000000
_cell_angle_beta 90.000000
_cell_angle_gamma 90.000000
_cell_volume 2578.030894
_symmetry_space_group_name_H-M "P B C N"
_symmetry_group_IT_number 60
_symmetry_cell_setting 'orthorhombic'
loop_
_space_group_symop_operation_xyz
x,y,z
1/2-x,1/2-y,1/2+z
1/2+x,1/2-y,-z
-x,y,1/2-z
-x,-y,-z
1/2+x,1/2+y,1/2-z
1/2-x,1/2+y,z
x,-y,1/2+z
loop_
_atom_site_type_symbol
_atom_site_label
_atom_site_fract_x
_atom_site_fract_y
_atom_site_fract_z
Si Si1 0.779456 0.004055 0.494916
Si Si2 0.994872 0.395556 0.881290
Si Si3 0.933455 0.777428 0.508919
Si Si4 0.922406 0.063951 0.821336
Si Si5 0.089970 0.770990 0.633425
Si Si6 0.113771 0.433281 0.093992
Si Si7 0.324094 0.678615 0.882147
Si Si8 0.791391 0.836157 0.665067
O O1 0.864422 0.991735 0.418232
O O2 0.705879 0.966871 0.411344
O O3 0.776476 0.938199 0.616667
O O4 0.767102 0.107196 0.542431
O O5 0.946999 0.326639 0.969813
O O6 0.000000 0.345760 0.750000
O O7 0.077454 0.419489 0.953883
O O8 0.943084 0.486537 0.855407
O O9 0.954942 0.851993 0.405153
O O10 0.842028 0.794240 0.549740
O O11 0.995201 0.793624 0.622473
O O12 0.868453 0.113602 0.716596
O O13 0.000000 0.019066 0.750000
O O14 0.103796 0.663261 0.663948
O O15 0.118966 0.781446 0.490270
O O16 0.149031 0.830078 0.718510
O O17 0.282392 0.765970 0.817257
#
# Coordination Sequence:
#
# PCOD9456658 Si02
#       8
#     8   8   8   8   8   8   8   8
#     4  11  26  45  68 103 136 184 238 290 352 414
#     4  10  22  37  70 102 139 184 223 277 350 429
#     4  10  22  43  70 100 138 186 233 283 349 414
#     4  11  24  46  69  97 137 186 241 295 337 409
#     4  11  23  44  68  98 137 183 229 283 349 417
#     4  10  22  43  61 101 140 170 231 283 342 422
#     4  12  26  44  70 101 138 181 232 293 348 411
#     4  11  25  45  69 102 140 183 229 290 353 414
#
# _framework density 24.825147000000001
#
# number of rings (size 3 to 8) (size 9 to 14) (size 15 to 20)
#    0.000    1.250    2.500    2.250    5.250    5.500 
#    0.000    0.000    0.000    0.000    0.000    0.000 
#    0.000    0.000    0.000    0.000    0.000    0.000 
#
# Total GULP energy -358091.852118 kJ/mol
# GULP energy per Si atom -5595.185189 kJ/mol
# Density = 2.476864 g / cm^3
# Si number density = 24.825147 Si / 1000 Ang^3
#
#
#
# Elastic Constant Matrix: (Units=GPa)
#
#
# Indices 1 2 3 4 5 6 
#
# 1 68.7363 18.2985 -5.9635 0.0000 0.0000 0.0000
# 2 18.2985 115.7829 4.9624 0.0000 0.0000 0.0000
# 3 -5.9635 4.9624 62.3708 0.0000 0.0000 0.0000
# 4 0.0000 0.0000 0.0000 13.9590 0.0000 0.0000
# 5 0.0000 0.0000 0.0000 0.0000 16.0039 0.0000
# 6 0.0000 0.0000 0.0000 0.0000 0.0000 23.1630
#
#
#
# Elastic Compliance Matrix: (Units=1/GPa)
#
#
# Indices 1 2 3 4 5 6 
#
# 1 0.015358 -0.002499 0.001667 0.000000 0.000000 0.000000
# 2 -0.002499 0.009073 -0.000961 0.000000 0.000000 0.000000
# 3 0.001667 -0.000961 0.016269 0.000000 0.000000 0.000000
# 4 0.000000 0.000000 0.000000 0.071638 0.000000 0.000000
# 5 0.000000 0.000000 0.000000 0.000000 0.062485 0.000000
# 6 0.000000 0.000000 0.000000 0.000000 0.000000 0.043172
#
#
# Mechanical properties :
#
#
# Convention : Reuss Voigt Hill
#
# Bulk Modulus (GPa) = 26.94278 31.27609 29.10944
# Shear Modulus (GPa) = 21.37192 25.93136 23.65164
#
# Velocity S-wave (km/s) = 2.93729 3.23547 3.08998
# Velocity P-wave (km/s) = 4.73077 5.15593 4.94792
#
# Compressibility (1/GPa) = 0.03711569
#
# Stress axis : x y z
#
# Youngs Moduli (GPa) = 65.11185 110.21806 61.46661
#
# Poissons Ratio (x) = 0.27540 -0.10248
# Poissons Ratio (y) = 0.16269 0.05906
# Poissons Ratio (z) = -0.10856 0.10590
#
# Static dielectric constant tensor:
#      x y z
#    x 1.986750 0.000000 0.000000 
#    y 0.000000 1.930700 0.000000 
#    z 0.000000 0.000000 2.018590 
# 
# From -- ./inp_files/12563.got.cif
#   From: 2010.05.17/outbox.cif.g08.bks.cpg/sg60_7_cif.got.tgz:12563.got - 2010.06.03 14:59:27.
