data_PCOD9456181
_publ_section_title
;
Structure prediction by ZEFSAII (Michael W. Deem and Ramdas Pophale) SiO2 
 PCOD9456181
Probable space group: P B C N
;
_chemical_formula_sum "Si O2"
_cell_formula_units_Z 48
_cell_length_a 7.474755
_cell_length_b 24.065186
_cell_length_c 13.451600
_cell_angle_alpha 90.000000
_cell_angle_beta 90.000000
_cell_angle_gamma 90.000000
_cell_volume 2419.692228
_symmetry_space_group_name_H-M "P B C N"
_symmetry_group_IT_number 60
_symmetry_cell_setting 'orthorhombic'
loop_
_space_group_symop_operation_xyz
x,y,z
1/2-x,1/2-y,1/2+z
1/2+x,1/2-y,-z
-x,y,1/2-z
-x,-y,-z
1/2+x,1/2+y,1/2-z
1/2-x,1/2+y,z
x,-y,1/2+z
loop_
_atom_site_type_symbol
_atom_site_label
_atom_site_fract_x
_atom_site_fract_y
_atom_site_fract_z
Si Si1 0.182544 0.319439 0.513972
Si Si2 0.597447 0.308956 0.459007
Si Si3 0.260587 0.411211 0.670317
Si Si4 0.672383 0.400117 0.609969
Si Si5 0.902553 0.360759 0.351039
Si Si6 0.333009 0.023738 0.559508
O O1 0.385250 0.320667 0.468822
O O2 0.138369 0.256075 0.540726
O O3 0.170438 0.362234 0.606019
O O4 0.035967 0.338677 0.435333
O O5 0.687253 0.341121 0.553449
O O6 0.705392 0.335068 0.366525
O O7 0.469993 0.402135 0.647717
O O8 0.218162 0.407994 0.787884
O O9 0.230977 0.471863 0.623947
O O10 0.710115 0.446976 0.525893
O O11 0.884252 0.426401 0.367326
O O12 0.000000 0.346403 0.250000
O O13 0.500000 0.000000 0.500000
#
# Coordination Sequence:
#
# PCOD9456181 Si02
#       6
#     8   8   8   8   8   8
#     4  11  21  41  67  92 131 169 212 271 323 374
#     4  10  22  42  66  92 133 168 211 270 322 378
#     4  10  21  39  65  89 121 166 214 259 321 385
#     4   9  22  40  60  93 122 162 211 261 322 385
#     4  11  25  42  61  97 131 169 215 262 321 382
#     4  11  22  38  60  87 126 163 206 266 312 372
#
# _framework density 19.837233000000001
#
# number of rings (size 3 to 8) (size 9 to 14) (size 15 to 20)
#    0.000    1.667    3.333    0.500    2.333    2.000 
#    0.000    0.000    0.000    0.000    0.000    0.000 
#    0.000    0.000    0.000    0.000    0.000    0.000 
#
# Total GULP energy -267746.956599 kJ/mol
# GULP energy per Si atom -5578.061596 kJ/mol
# Density = 1.979208 g / cm^3
# Si number density = 19.837233 Si / 1000 Ang^3
#
#
#
# Elastic Constant Matrix: (Units=GPa)
#
#
# Indices 1 2 3 4 5 6 
#
# 1 60.3869 4.2839 -0.2955 0.0000 0.0000 0.0000
# 2 4.2839 149.6245 19.8526 0.0000 0.0000 0.0000
# 3 -0.2955 19.8526 45.5951 0.0000 0.0000 0.0000
# 4 0.0000 0.0000 0.0000 -30.6190 0.0000 0.0000
# 5 0.0000 0.0000 0.0000 0.0000 26.3658 0.0000
# 6 0.0000 0.0000 0.0000 0.0000 0.0000 60.7078
#
#
#
# Elastic Compliance Matrix: (Units=1/GPa)
#
#
# Indices 1 2 3 4 5 6 
#
# 1 0.016598 -0.000520 0.000334 0.000000 0.000000 0.000000
# 2 -0.000520 0.007109 -0.003099 0.000000 0.000000 0.000000
# 3 0.000334 -0.003099 0.023284 0.000000 0.000000 0.000000
# 4 0.000000 0.000000 0.000000 -0.032659 0.000000 0.000000
# 5 0.000000 0.000000 0.000000 0.000000 0.037928 0.000000
# 6 0.000000 0.000000 0.000000 0.000000 0.000000 0.016472
#
#
# Mechanical properties :
#
#
# Convention : Reuss Voigt Hill
#
# Bulk Modulus (GPa) = 24.73888 33.69869 29.21879
# Shear Modulus (GPa) = 56.32184 26.74196 41.53190
#
# Velocity S-wave (km/s) = 5.33419 3.67559 4.58059
# Velocity P-wave (km/s) = 7.10184 5.91927 6.53735
#
# Compressibility (1/GPa) = 0.04042221
#
# Stress axis : x y z
#
# Youngs Moduli (GPa) = 60.24685 140.65800 42.94867
#
# Poissons Ratio (x) = 0.07307 -0.01434
# Poissons Ratio (y) = 0.03130 0.13309
# Poissons Ratio (z) = -0.02011 0.43588
#
# Static dielectric constant tensor:
#      x y z
#    x 1.715450 0.000000 0.000000 
#    y 0.000000 1.727220 0.000000 
#    z 0.000000 0.000000 1.741270 
# 
# From -- ./inp_files/10090.got.cif
#   From: 2010.05.17/outbox.cif.g08.bks.cpg/sg60_6_cif.got.tgz:10090.got - 2010.06.03 14:59:27.
