data_PCOD9456728
_publ_section_title
;
Structure prediction by ZEFSAII (Michael W. Deem and Ramdas Pophale) SiO2 
 PCOD9456728
Probable space group: P B C N
;
_chemical_formula_sum "Si O2"
_cell_formula_units_Z 36
_cell_length_a 16.356832
_cell_length_b 9.466335
_cell_length_c 9.139490
_cell_angle_alpha 90.000000
_cell_angle_beta 90.000000
_cell_angle_gamma 90.000000
_cell_volume 1415.151788
_symmetry_space_group_name_H-M "P B C N"
_symmetry_group_IT_number 60
_symmetry_cell_setting 'orthorhombic'
loop_
_space_group_symop_operation_xyz
x,y,z
1/2-x,1/2-y,1/2+z
1/2+x,1/2-y,-z
-x,y,1/2-z
-x,-y,-z
1/2+x,1/2+y,1/2-z
1/2-x,1/2+y,z
x,-y,1/2+z
loop_
_atom_site_type_symbol
_atom_site_label
_atom_site_fract_x
_atom_site_fract_y
_atom_site_fract_z
Si Si1 0.928717 0.862369 0.432156
Si Si2 0.793003 0.218577 0.725689
Si Si3 0.852039 0.084331 0.238207
Si Si4 0.921874 0.669959 0.035190
Si Si5 0.000000 0.557232 0.750000
O O1 0.862134 0.762580 0.351631
O O2 0.905110 0.872809 0.599926
O O3 0.982423 0.796628 0.086601
O O4 0.910370 0.014556 0.359936
O O5 0.709642 0.290139 0.770046
O O6 0.830874 0.288722 0.580645
O O7 0.793210 0.050480 0.701574
O O8 0.947041 0.537799 0.137840
O O9 0.943351 0.640734 0.865989
#
# Coordination Sequence:
#
# PCOD9456728 Si02
#       5
#     8   8   8   8   4
#     4  10  24  46  69 102 143 187 239 299 352 439
#     4  10  24  43  70 103 143 185 239 299 354 438
#     4  10  25  41  71  99 145 186 233 292 369 419
#     4  11  22  47  67 110 138 192 246 301 355 438
#     4  10  22  38  72 102 144 190 234 302 356 426
#
# _framework density 25.438966000000001
#
# number of rings (size 3 to 8) (size 9 to 14) (size 15 to 20)
#    1.333    0.444    2.222    0.000    3.111    8.000 
#    0.000    0.000    0.000    0.000    0.000    0.000 
#    0.000    0.000    0.000    0.000    0.000    0.000 
#
# Total GULP energy -201536.146577 kJ/mol
# GULP energy per Si atom -5598.226294 kJ/mol
# Density = 2.538107 g / cm^3
# Si number density = 25.438966 Si / 1000 Ang^3
#
#
#
# Elastic Constant Matrix: (Units=GPa)
#
#
# Indices 1 2 3 4 5 6 
#
# 1 96.7241 56.3517 41.9587 0.0000 0.0000 0.0000
# 2 56.3517 75.4581 26.6687 0.0000 0.0000 0.0000
# 3 41.9587 26.6687 171.4899 0.0000 0.0000 0.0000
# 4 0.0000 0.0000 0.0000 43.1718 0.0000 0.0000
# 5 0.0000 0.0000 0.0000 0.0000 9.9617 0.0000
# 6 0.0000 0.0000 0.0000 0.0000 0.0000 19.1348
#
#
#
# Elastic Compliance Matrix: (Units=1/GPa)
#
#
# Indices 1 2 3 4 5 6 
#
# 1 0.019364 -0.013530 -0.002634 0.000000 0.000000 0.000000
# 2 -0.013530 0.023477 -0.000341 0.000000 0.000000 0.000000
# 3 -0.002634 -0.000341 0.006529 0.000000 0.000000 0.000000
# 4 0.000000 0.000000 0.000000 0.023163 0.000000 0.000000
# 5 0.000000 0.000000 0.000000 0.000000 0.100384 0.000000
# 6 0.000000 0.000000 0.000000 0.000000 0.000000 0.052261
#
#
# Mechanical properties :
#
#
# Convention : Reuss Voigt Hill
#
# Bulk Modulus (GPa) = 61.12155 65.95894 63.54025
# Shear Modulus (GPa) = 18.96527 29.03318 23.99923
#
# Velocity S-wave (km/s) = 2.73338 3.38196 3.07482
# Velocity P-wave (km/s) = 5.83445 6.42143 6.13496
#
# Compressibility (1/GPa) = 0.01636084
#
# Stress axis : x y z
#
# Youngs Moduli (GPa) = 51.64286 42.59517 153.17232
#
# Poissons Ratio (x) = 0.57631 0.40341
# Poissons Ratio (y) = 0.69873 0.05216
# Poissons Ratio (z) = 0.13601 0.01450
#
# Static dielectric constant tensor:
#      x y z
#    x 1.937740 0.000000 0.000000 
#    y 0.000000 2.040940 0.000000 
#    z 0.000000 0.000000 2.041500 
# 
# From -- ./inp_files/7196.got.cif
#   From: 2010.05.17/outbox.cif.g08.bks.cpg/sg60_4_cif.got.tgz:7196.got - 2010.06.03 14:59:27.
