data_PCOD9456135
_publ_section_title
;
Structure prediction by ZEFSAII (Michael W. Deem and Ramdas Pophale) SiO2 
 PCOD9456135
Probable space group: P B C N
;
_chemical_formula_sum "Si O2"
_cell_formula_units_Z 60
_cell_length_a 16.467348
_cell_length_b 17.917891
_cell_length_c 9.412047
_cell_angle_alpha 90.000000
_cell_angle_beta 90.000000
_cell_angle_gamma 90.000000
_cell_volume 2777.119967
_symmetry_space_group_name_H-M "P B C N"
_symmetry_group_IT_number 60
_symmetry_cell_setting 'orthorhombic'
loop_
_space_group_symop_operation_xyz
x,y,z
1/2-x,1/2-y,1/2+z
1/2+x,1/2-y,-z
-x,y,1/2-z
-x,-y,-z
1/2+x,1/2+y,1/2-z
1/2-x,1/2+y,z
x,-y,1/2+z
loop_
_atom_site_type_symbol
_atom_site_label
_atom_site_fract_x
_atom_site_fract_y
_atom_site_fract_z
Si Si1 0.000000 0.925623 0.750000
Si Si2 0.915504 0.273612 0.757802
Si Si3 0.434719 0.683739 0.473795
Si Si4 0.318524 0.479877 0.699597
Si Si5 0.336220 0.777702 0.025600
Si Si6 0.224066 0.093353 0.472995
Si Si7 0.082992 0.667738 0.810468
Si Si8 0.210360 0.354998 0.545946
O O1 0.992064 0.874362 0.608035
O O2 0.915427 0.969334 0.775119
O O3 0.894921 0.250933 0.598434
O O4 0.000000 0.316566 0.750000
O O5 0.928913 0.201509 0.859084
O O6 0.848395 0.326450 0.827729
O O7 0.346438 0.651608 0.431013
O O8 0.448621 0.764870 0.408352
O O9 0.277656 0.469180 0.852575
O O10 0.300318 0.556929 0.621910
O O11 0.273313 0.417142 0.602285
O O12 0.305100 0.859990 0.984548
O O13 0.263646 0.718721 0.018504
O O14 0.372260 0.790236 0.180807
O O15 0.150917 0.627778 0.910854
O O16 0.000000 0.629242 0.750000
#
# Coordination Sequence:
#
# PCOD9456135 Si02
#       8
#     4   8   8   8   8   8   8   8
#     4  10  22  44  66  90 140 184 208 266 336 402
#     4  11  23  37  62 101 131 162 216 277 334 387
#     4  10  21  39  61  96 133 165 210 258 329 403
#     4  11  26  43  66  94 137 178 224 267 328 410
#     4  12  21  39  67  95 130 170 216 282 324 391
#     4  11  24  43  62  92 130 179 217 268 323 394
#     4  11  22  37  66  97 133 169 215 272 344 395
#     4  11  23  41  64  98 130 172 222 273 336 390
#
# _framework density 21.605117
#
# number of rings (size 3 to 8) (size 9 to 14) (size 15 to 20)
#    0.000    1.067    4.667    4.000    3.733    2.133 
#    1.200    0.000    0.000    4.800    0.000    0.000 
#    0.000    0.000    0.000    0.000    0.000    0.000 
#
# Total GULP energy -334620.802922 kJ/mol
# GULP energy per Si atom -5577.013382 kJ/mol
# Density = 2.155594 g / cm^3
# Si number density = 21.605117 Si / 1000 Ang^3
#
#
#
# Elastic Constant Matrix: (Units=GPa)
#
#
# Indices 1 2 3 4 5 6 
#
# 1 98.2800 14.0400 32.8461 0.0000 0.0000 0.0000
# 2 14.0400 25.4303 8.8600 0.0000 0.0000 0.0000
# 3 32.8461 8.8600 128.1905 0.0000 0.0000 0.0000
# 4 0.0000 0.0000 0.0000 24.1312 0.0000 0.0000
# 5 0.0000 0.0000 0.0000 0.0000 42.0468 0.0000
# 6 0.0000 0.0000 0.0000 0.0000 0.0000 2.8813
#
#
#
# Elastic Compliance Matrix: (Units=1/GPa)
#
#
# Indices 1 2 3 4 5 6 
#
# 1 0.011865 -0.005627 -0.002651 0.000000 0.000000 0.000000
# 2 -0.005627 0.042962 -0.001528 0.000000 0.000000 0.000000
# 3 -0.002651 -0.001528 0.008586 0.000000 0.000000 0.000000
# 4 0.000000 0.000000 0.000000 0.041440 0.000000 0.000000
# 5 0.000000 0.000000 0.000000 0.000000 0.023783 0.000000
# 6 0.000000 0.000000 0.000000 0.000000 0.000000 0.347061
#
#
# Mechanical properties :
#
#
# Convention : Reuss Voigt Hill
#
# Bulk Modulus (GPa) = 22.83039 40.37700 31.60370
# Shear Modulus (GPa) = 9.80567 26.88886 18.34727
#
# Velocity S-wave (km/s) = 2.13271 3.53166 2.91728
# Velocity P-wave (km/s) = 4.08101 5.94637 5.09971
#
# Compressibility (1/GPa) = 0.04380127
#
# Stress axis : x y z
#
# Youngs Moduli (GPa) = 84.28216 23.27642 116.47148
#
# Poissons Ratio (x) = 0.13097 0.30879
# Poissons Ratio (y) = 0.47424 0.17792
# Poissons Ratio (z) = 0.22345 0.03556
#
# Static dielectric constant tensor:
#      x y z
#    x 1.702840 0.000000 0.000000 
#    y 0.000000 1.749740 0.000000 
#    z 0.000000 0.000000 1.842270 
# 
# From -- ./inp_files/6905.got.cif
#   From: 2010.05.17/outbox.cif.g08.bks.cpg/sg60_4_cif.got.tgz:6905.got - 2010.06.03 14:59:27.
