data_PCOD9456171
_publ_section_title
;
Structure prediction by ZEFSAII (Michael W. Deem and Ramdas Pophale) SiO2 
 PCOD9456171
Probable space group: P B C N
;
_chemical_formula_sum "Si O2"
_cell_formula_units_Z 60
_cell_length_a 18.475670
_cell_length_b 28.529806
_cell_length_c 5.462270
_cell_angle_alpha 90.000000
_cell_angle_beta 90.000000
_cell_angle_gamma 90.000000
_cell_volume 2879.202287
_symmetry_space_group_name_H-M "P B C N"
_symmetry_group_IT_number 60
_symmetry_cell_setting 'orthorhombic'
loop_
_space_group_symop_operation_xyz
x,y,z
1/2-x,1/2-y,1/2+z
1/2+x,1/2-y,-z
-x,y,1/2-z
-x,-y,-z
1/2+x,1/2+y,1/2-z
1/2-x,1/2+y,z
x,-y,1/2+z
loop_
_atom_site_type_symbol
_atom_site_label
_atom_site_fract_x
_atom_site_fract_y
_atom_site_fract_z
Si Si1 0.578930 0.342097 0.145702
Si Si2 0.926401 0.730945 0.105110
Si Si3 0.500000 0.164215 0.750000
Si Si4 0.133824 0.609408 0.903886
Si Si5 0.606394 0.998331 0.110072
Si Si6 0.660534 0.638377 0.157663
Si Si7 0.699690 0.906799 0.595745
Si Si8 0.767415 0.723817 0.285375
O O1 0.500000 0.355920 0.250000
O O2 0.575596 0.287000 0.070031
O O3 0.627277 0.349062 0.391167
O O4 0.607341 0.366394 0.894053
O O5 0.853242 0.718103 0.244567
O O6 0.000000 0.720812 0.250000
O O7 0.940953 0.699228 0.868768
O O8 0.552119 0.129143 0.598113
O O9 0.139365 0.553203 0.892848
O O10 0.175064 0.620948 0.650153
O O11 0.169039 0.619294 0.164074
O O12 0.565143 0.000259 0.360095
O O13 0.663923 0.041221 0.100451
O O14 0.713964 0.594277 0.118914
O O15 0.714316 0.680720 0.230970
O O16 0.753743 0.740200 0.564340
#
# Coordination Sequence:
#
# PCOD9456171 Si02
#       8
#     8   8   4   8   8   8   8   8
#     4  11  25  42  61  85 124 166 212 265 325 387
#     4  11  27  42  61  84 125 173 221 265 324 375
#     4  12  28  38  62  86 126 180 222 270 304 392
#     4  10  22  40  58  92 129 165 209 263 318 371
#     4   8  16  35  60  84 122 159 192 254 319 373
#     4  12  22  40  63  91 117 162 213 266 321 380
#     4  10  21  39  64  91 124 157 210 269 318 376
#     4  12  24  41  60  85 115 155 214 268 320 359
#
# _framework density 20.839103999999999
#
# number of rings (size 3 to 8) (size 9 to 14) (size 15 to 20)
#    0.000    1.333    2.667    2.000    9.333    0.000 
#    0.000    6.000    0.000    0.000    0.000    0.000 
#    0.000   96.000    0.000    0.000    0.000    0.000 
#
# Total GULP energy -334170.317868 kJ/mol
# GULP energy per Si atom -5569.505298 kJ/mol
# Density = 2.079167 g / cm^3
# Si number density = 20.839104 Si / 1000 Ang^3
#
#
#
# Elastic Constant Matrix: (Units=GPa)
#
#
# Indices 1 2 3 4 5 6 
#
# 1 122.6423 38.0033 32.4164 0.0000 0.0000 0.0000
# 2 38.0033 60.3363 35.0515 0.0000 0.0000 0.0000
# 3 32.4164 35.0515 139.7837 0.0000 0.0000 0.0000
# 4 0.0000 0.0000 0.0000 -6.5048 0.0000 0.0000
# 5 0.0000 0.0000 0.0000 0.0000 40.7487 0.0000
# 6 0.0000 0.0000 0.0000 0.0000 0.0000 47.5519
#
#
#
# Elastic Compliance Matrix: (Units=1/GPa)
#
#
# Indices 1 2 3 4 5 6 
#
# 1 0.010224 -0.005925 -0.000885 0.000000 0.000000 0.000000
# 2 -0.005925 0.022834 -0.004352 0.000000 0.000000 0.000000
# 3 -0.000885 -0.004352 0.008450 0.000000 0.000000 0.000000
# 4 0.000000 0.000000 0.000000 -0.153732 0.000000 0.000000
# 5 0.000000 0.000000 0.000000 0.000000 0.024541 0.000000
# 6 0.000000 0.000000 0.000000 0.000000 0.000000 0.021030
#
#
# Mechanical properties :
#
#
# Convention : Reuss Voigt Hill
#
# Bulk Modulus (GPa) = 52.12700 59.30052 55.71376
# Shear Modulus (GPa) = -131.80421 30.84522 -50.47949
#
# Velocity S-wave (km/s) = -7.96152 3.85146 -4.92707
# Velocity P-wave (km/s) = 7.71013 6.94957 2.36110
#
# Compressibility (1/GPa) = 0.01918392
#
# Stress axis : x y z
#
# Youngs Moduli (GPa) = 97.81051 43.79448 118.33802
#
# Poissons Ratio (x) = 0.25950 0.10475
# Poissons Ratio (y) = 0.57956 0.51496
# Poissons Ratio (z) = 0.08658 0.19058
#
# Static dielectric constant tensor:
#      x y z
#    x 1.742510 0.000000 0.000000 
#    y 0.000000 1.870550 0.000000 
#    z 0.000000 0.000000 1.899660 
# 
# From -- ./inp_files/1847.got.cif
#   From: 2010.05.17/outbox.cif.g08.bks.cpg/sg60_1_cif.got.tgz:1847.got - 2010.06.03 14:59:27.
