data_PCOD9456077
_publ_section_title
;
Structure prediction by ZEFSAII (Michael W. Deem and Ramdas Pophale) SiO2 
 PCOD9456077
Probable space group: P B C N
;
_chemical_formula_sum "Si O2"
_cell_formula_units_Z 56
_cell_length_a 5.998547
_cell_length_b 24.658927
_cell_length_c 18.324958
_cell_angle_alpha 90.000000
_cell_angle_beta 90.000000
_cell_angle_gamma 90.000000
_cell_volume 2710.586237
_symmetry_space_group_name_H-M "P B C N"
_symmetry_group_IT_number 60
_symmetry_cell_setting 'orthorhombic'
loop_
_space_group_symop_operation_xyz
x,y,z
1/2-x,1/2-y,1/2+z
1/2+x,1/2-y,-z
-x,y,1/2-z
-x,-y,-z
1/2+x,1/2+y,1/2-z
1/2-x,1/2+y,z
x,-y,1/2+z
loop_
_atom_site_type_symbol
_atom_site_label
_atom_site_fract_x
_atom_site_fract_y
_atom_site_fract_z
Si Si1 0.893500 0.555818 0.329557
Si Si2 0.761756 0.366333 0.615396
Si Si3 0.249854 0.135758 0.886019
Si Si4 0.645086 0.062031 0.855605
Si Si5 0.500000 0.400360 0.750000
Si Si6 0.500000 0.403143 0.250000
Si Si7 0.747318 0.750839 0.538617
Si Si8 0.971382 0.064663 0.990058
O O1 0.953740 0.498074 0.363219
O O2 0.637186 0.564012 0.308319
O O3 0.000000 0.556896 0.250000
O O4 0.998901 0.604086 0.376388
O O5 0.658268 0.365887 0.696965
O O6 0.772061 0.306718 0.582949
O O7 0.614748 0.403792 0.561115
O O8 0.472187 0.110406 0.852467
O O9 0.267117 0.196208 0.914423
O O10 0.076111 0.131267 0.819501
O O11 0.179959 0.095814 0.952951
O O12 0.798875 0.061585 0.783283
O O13 0.787065 0.071321 0.927676
O O14 0.497027 0.745809 0.500329
O O15 0.000000 0.000000 0.000000
#
# Coordination Sequence:
#
# PCOD9456077 Si02
#       8
#     8   8   8   8   4   4   8   8
#     4  10  21  38  64  97 138 183 227 288 360 425
#     4  11  24  44  66  98 137 181 241 289 363 423
#     4  11  24  44  68  99 139 184 238 291 364 420
#     4  11  22  39  66 100 143 185 231 291 360 427
#     4  10  23  42  64  98 136 182 233 294 358 430
#     4  10  23  42  64 102 138 180 239 290 360 430
#     4  12  28  50  76 102 141 190 241 302 360 432
#     4  11  23  39  65 104 138 179 232 291 352 431
#
# _framework density 20.659737
#
# number of rings (size 3 to 8) (size 9 to 14) (size 15 to 20)
#    0.000    1.143    1.429    4.286    4.000    9.143 
#    6.429    0.000    0.000    0.000    0.000    0.000 
#    0.000    0.000    0.000    0.000    0.000    0.000 
#
# Total GULP energy -312307.083015 kJ/mol
# GULP energy per Si atom -5576.912197 kJ/mol
# Density = 2.061271 g / cm^3
# Si number density = 20.659737 Si / 1000 Ang^3
#
#
#
# Elastic Constant Matrix: (Units=GPa)
#
#
# Indices 1 2 3 4 5 6 
#
# 1 83.8003 52.2035 35.4122 0.0000 0.0000 0.0000
# 2 52.2035 189.5744 52.5651 0.0000 0.0000 0.0000
# 3 35.4122 52.5651 99.0209 0.0000 0.0000 0.0000
# 4 0.0000 0.0000 0.0000 36.4345 0.0000 0.0000
# 5 0.0000 0.0000 0.0000 0.0000 35.3821 0.0000
# 6 0.0000 0.0000 0.0000 0.0000 0.0000 7.6166
#
#
#
# Elastic Compliance Matrix: (Units=1/GPa)
#
#
# Indices 1 2 3 4 5 6 
#
# 1 0.015568 -0.003217 -0.003860 0.000000 0.000000 0.000000
# 2 -0.003217 0.006850 -0.002486 0.000000 0.000000 0.000000
# 3 -0.003860 -0.002486 0.012799 0.000000 0.000000 0.000000
# 4 0.000000 0.000000 0.000000 0.027447 0.000000 0.000000
# 5 0.000000 0.000000 0.000000 0.000000 0.028263 0.000000
# 6 0.000000 0.000000 0.000000 0.000000 0.000000 0.131293
#
#
# Mechanical properties :
#
#
# Convention : Reuss Voigt Hill
#
# Bulk Modulus (GPa) = 62.14314 72.52858 67.33586
# Shear Modulus (GPa) = 20.26683 31.36762 25.81722
#
# Velocity S-wave (km/s) = 3.13546 3.90076 3.53886
# Velocity P-wave (km/s) = 6.57669 7.44784 7.02578
#
# Compressibility (1/GPa) = 0.01609188
#
# Stress axis : x y z
#
# Youngs Moduli (GPa) = 64.23373 145.98355 78.13138
#
# Poissons Ratio (x) = 0.46959 0.30158
# Poissons Ratio (y) = 0.20662 0.19423
# Poissons Ratio (z) = 0.24794 0.36291
#
# Static dielectric constant tensor:
#      x y z
#    x 1.874770 0.000000 0.000000 
#    y 0.000000 1.688750 0.000000 
#    z 0.000000 0.000000 1.720110 
# 
# From -- ./inp_files/21753.got.cif
#   From: 2010.05.17/outbox.cif.g08.bks.cpg/sg60_11_cif.got.tgz:21753.got - 2010.06.03 14:59:27.
