data_PCOD9456277
_publ_section_title
;
Structure prediction by ZEFSAII (Michael W. Deem and Ramdas Pophale) SiO2 
 PCOD9456277
Probable space group: P B C N
;
_chemical_formula_sum "Si O2"
_cell_formula_units_Z 44
_cell_length_a 28.350215
_cell_length_b 5.378688
_cell_length_c 12.864210
_cell_angle_alpha 90.000000
_cell_angle_beta 90.000000
_cell_angle_gamma 90.000000
_cell_volume 1961.624291
_symmetry_space_group_name_H-M "P B C N"
_symmetry_group_IT_number 60
_symmetry_cell_setting 'orthorhombic'
loop_
_space_group_symop_operation_xyz
x,y,z
1/2-x,1/2-y,1/2+z
1/2+x,1/2-y,-z
-x,y,1/2-z
-x,-y,-z
1/2+x,1/2+y,1/2-z
1/2-x,1/2+y,z
x,-y,1/2+z
loop_
_atom_site_type_symbol
_atom_site_label
_atom_site_fract_x
_atom_site_fract_y
_atom_site_fract_z
Si Si1 0.230769 0.654554 0.185768
Si Si2 0.588501 0.724305 0.143588
Si Si3 0.354537 0.221568 0.318493
Si Si4 0.232395 0.830474 0.450026
Si Si5 0.473813 0.749444 0.539133
Si Si6 0.000000 0.028045 0.750000
O O1 0.241333 0.386382 0.232302
O O2 0.176698 0.711343 0.212982
O O3 0.252231 0.636695 0.070314
O O4 0.620266 0.485394 0.168774
O O5 0.539699 0.651557 0.201072
O O6 0.611138 0.985071 0.177186
O O7 0.575945 0.745010 0.020750
O O8 0.317140 0.211311 0.414694
O O9 0.268341 0.615572 0.414414
O O10 0.500000 0.500000 0.500000
O O11 0.476481 0.706016 0.662454
O O12 0.500000 0.000000 0.500000
#
# Coordination Sequence:
#
# PCOD9456277 Si02
#       6
#     8   8   8   8   8   4
#     4  10  21  40  65  92 133 183 229 274 352 423
#     4  11  25  43  70 107 137 181 237 298 356 427
#     4  12  23  42  66 102 140 175 240 296 337 424
#     4  10  21  40  65  89 132 186 219 274 353 415
#     4  10  22  44  73  97 136 186 231 276 360 435
#     4  10  24  50  74 100 148 196 230 300 386 426
#
# _framework density 22.430389999999999
#
# number of rings (size 3 to 8) (size 9 to 14) (size 15 to 20)
#    0.000    1.455    0.000    5.455    0.000    6.545 
#   19.636    0.000    0.000    0.000    0.000    0.000 
#    0.000    0.000    0.000    0.000    0.000    0.000 
#
# Total GULP energy -245173.360969 kJ/mol
# GULP energy per Si atom -5572.121840 kJ/mol
# Density = 2.237934 g / cm^3
# Si number density = 22.430390 Si / 1000 Ang^3
#
#
#
# Elastic Constant Matrix: (Units=GPa)
#
#
# Indices 1 2 3 4 5 6 
#
# 1 96.2089 33.9746 31.4754 0.0000 0.0000 0.0000
# 2 33.9746 196.3576 36.2043 0.0000 0.0000 0.0000
# 3 31.4754 36.2043 139.8727 0.0000 0.0000 0.0000
# 4 0.0000 0.0000 0.0000 22.1297 0.0000 0.0000
# 5 0.0000 0.0000 0.0000 0.0000 8.5520 0.0000
# 6 0.0000 0.0000 0.0000 0.0000 0.0000 66.5386
#
#
#
# Elastic Compliance Matrix: (Units=1/GPa)
#
#
# Indices 1 2 3 4 5 6 
#
# 1 0.011688 -0.001614 -0.002212 0.000000 0.000000 0.000000
# 2 -0.001614 0.005571 -0.001079 0.000000 0.000000 0.000000
# 3 -0.002212 -0.001079 0.007926 0.000000 0.000000 0.000000
# 4 0.000000 0.000000 0.000000 0.045188 0.000000 0.000000
# 5 0.000000 0.000000 0.000000 0.000000 0.116931 0.000000
# 6 0.000000 0.000000 0.000000 0.000000 0.000000 0.015029
#
#
# Mechanical properties :
#
#
# Convention : Reuss Voigt Hill
#
# Bulk Modulus (GPa) = 65.04240 70.63861 67.84051
# Shear Modulus (GPa) = 23.01294 41.49640 32.25467
#
# Velocity S-wave (km/s) = 3.20655 4.30584 3.79620
# Velocity P-wave (km/s) = 6.53986 7.50207 7.03743
#
# Compressibility (1/GPa) = 0.01537459
#
# Stress axis : x y z
#
# Youngs Moduli (GPa) = 85.55863 179.50205 126.16096
#
# Poissons Ratio (x) = 0.28979 0.27910
# Poissons Ratio (y) = 0.13813 0.13609
# Poissons Ratio (z) = 0.18928 0.19363
#
# Static dielectric constant tensor:
#      x y z
#    x 1.870310 0.000000 0.000000 
#    y 0.000000 1.748410 0.000000 
#    z 0.000000 0.000000 1.957800 
# 
# From -- ./inp_files/18008.got.cif
#   From: 2010.05.17/outbox.cif.g08.bks.cpg/sg60_10_cif.got.tgz:18008.got - 2010.06.03 14:59:27.
