data_PCOD9456816
_publ_section_title
;
Structure prediction by ZEFSAII (Michael W. Deem and Ramdas Pophale) SiO2 
 PCOD9456816
Probable space group: P B C N
;
_chemical_formula_sum "Si O2"
_cell_formula_units_Z 40
_cell_length_a 22.227601
_cell_length_b 8.077949
_cell_length_c 9.611749
_cell_angle_alpha 90.000000
_cell_angle_beta 90.000000
_cell_angle_gamma 90.000000
_cell_volume 1725.822475
_symmetry_space_group_name_H-M "P B C N"
_symmetry_group_IT_number 60
_symmetry_cell_setting 'orthorhombic'
loop_
_space_group_symop_operation_xyz
x,y,z
1/2-x,1/2-y,1/2+z
1/2+x,1/2-y,-z
-x,y,1/2-z
-x,-y,-z
1/2+x,1/2+y,1/2-z
1/2-x,1/2+y,z
x,-y,1/2+z
loop_
_atom_site_type_symbol
_atom_site_label
_atom_site_fract_x
_atom_site_fract_y
_atom_site_fract_z
Si Si1 0.844811 0.993742 0.402319
Si Si2 0.832718 0.670995 0.054444
Si Si3 0.457634 0.966255 0.870507
Si Si4 0.620286 0.290060 0.660203
Si Si5 0.717659 0.059033 0.777108
O O1 0.820649 0.144815 0.499780
O O2 0.886190 0.074545 0.282558
O O3 0.876840 0.868782 0.507435
O O4 0.786204 0.922729 0.324741
O O5 0.902398 0.653285 0.093862
O O6 0.794688 0.598580 0.180967
O O7 0.819524 0.554258 0.921385
O O8 0.500000 0.900028 0.750000
O O9 0.426939 0.141157 0.827829
O O10 0.500000 0.000000 0.000000
O O11 0.685004 0.206104 0.692987
#
# Coordination Sequence:
#
# PCOD9456816 Si02
#       5
#     8   8   8   8   8
#     4  11  23  41  64  98 140 171 210 272 320 385
#     4  10  23  41  64  98 126 169 222 261 318 393
#     4  11  23  46  70  89 123 171 223 280 333 389
#     4  10  25  42  63  98 131 174 223 262 323 395
#     4  10  22  40  61  93 139 177 203 249 322 400
#
# _framework density 23.177356
#
# number of rings (size 3 to 8) (size 9 to 14) (size 15 to 20)
#    0.000    1.600    0.000    4.800    0.000   22.400 
#    0.000    5.000    0.000    0.000    0.000    0.000 
#    0.000    0.000    0.000    0.000    0.000    0.000 
#
# Total GULP energy -223907.221090 kJ/mol
# GULP energy per Si atom -5597.680527 kJ/mol
# Density = 2.312460 g / cm^3
# Si number density = 23.177356 Si / 1000 Ang^3
#
#
#
# Elastic Constant Matrix: (Units=GPa)
#
#
# Indices 1 2 3 4 5 6 
#
# 1 60.5371 8.1423 18.5951 0.0000 0.0000 0.0000
# 2 8.1423 63.1790 31.0097 0.0000 0.0000 0.0000
# 3 18.5951 31.0097 86.6850 0.0000 0.0000 0.0000
# 4 0.0000 0.0000 0.0000 44.3424 0.0000 0.0000
# 5 0.0000 0.0000 0.0000 0.0000 44.2708 0.0000
# 6 0.0000 0.0000 0.0000 0.0000 0.0000 19.0226
#
#
#
# Elastic Compliance Matrix: (Units=1/GPa)
#
#
# Indices 1 2 3 4 5 6 
#
# 1 0.017697 -0.000506 -0.003615 0.000000 0.000000 0.000000
# 2 -0.000506 0.019214 -0.006765 0.000000 0.000000 0.000000
# 3 -0.003615 -0.006765 0.014731 0.000000 0.000000 0.000000
# 4 0.000000 0.000000 0.000000 0.022552 0.000000 0.000000
# 5 0.000000 0.000000 0.000000 0.000000 0.022588 0.000000
# 6 0.000000 0.000000 0.000000 0.000000 0.000000 0.052569
#
#
# Mechanical properties :
#
#
# Convention : Reuss Voigt Hill
#
# Bulk Modulus (GPa) = 33.47840 36.21059 34.84450
# Shear Modulus (GPa) = 27.61205 31.70410 29.65808
#
# Velocity S-wave (km/s) = 3.45532 3.70251 3.58105
# Velocity P-wave (km/s) = 5.51315 5.82540 5.67142
#
# Compressibility (1/GPa) = 0.02987000
#
# Stress axis : x y z
#
# Youngs Moduli (GPa) = 56.50559 52.04671 67.88212
#
# Poissons Ratio (x) = 0.02635 0.24541
# Poissons Ratio (y) = 0.02861 0.45920
# Poissons Ratio (z) = 0.20428 0.35208
#
# Static dielectric constant tensor:
#      x y z
#    x 1.824300 0.000000 0.000000 
#    y 0.000000 1.952820 0.000000 
#    z 0.000000 0.000000 1.878150 
# 
# From -- ./inp_files/7762.got.cif
#   From: 2010.05.17/outbox.cif.g08.bks.cpg/sg60_4_cif.got.tgz:7762.got - 2010.06.03 14:59:27.
