data_PCOD9456539
_publ_section_title
;
Structure prediction by ZEFSAII (Michael W. Deem and Ramdas Pophale) SiO2 
 PCOD9456539
Probable space group: P B C N
;
_chemical_formula_sum "Si O2"
_cell_formula_units_Z 48
_cell_length_a 5.865236
_cell_length_b 14.797259
_cell_length_c 27.426967
_cell_angle_alpha 90.000000
_cell_angle_beta 90.000000
_cell_angle_gamma 90.000000
_cell_volume 2380.370454
_symmetry_space_group_name_H-M "P B C N"
_symmetry_group_IT_number 60
_symmetry_cell_setting 'orthorhombic'
loop_
_space_group_symop_operation_xyz
x,y,z
1/2-x,1/2-y,1/2+z
1/2+x,1/2-y,-z
-x,y,1/2-z
-x,-y,-z
1/2+x,1/2+y,1/2-z
1/2-x,1/2+y,z
x,-y,1/2+z
loop_
_atom_site_type_symbol
_atom_site_label
_atom_site_fract_x
_atom_site_fract_y
_atom_site_fract_z
Si Si1 0.098570 0.386248 0.881586
Si Si2 0.331379 0.262824 0.525515
Si Si3 0.288008 0.474751 0.141932
Si Si4 0.015367 0.948001 0.949322
Si Si5 0.244078 0.225744 0.628212
Si Si6 0.986307 0.868151 0.693824
O O1 0.252484 0.401391 0.929800
O O2 0.244860 0.383430 0.831789
O O3 0.938664 0.473761 0.875864
O O4 0.975485 0.288700 0.882225
O O5 0.578824 0.252472 0.498193
O O6 0.338087 0.366046 0.544866
O O7 0.345184 0.203906 0.574758
O O8 0.453384 0.486929 0.095320
O O9 0.281865 0.369977 0.154151
O O10 0.379421 0.538346 0.184927
O O11 0.000000 0.000000 0.000000
O O12 0.400027 0.291460 0.660186
O O13 0.000000 0.843248 0.750000
#
# Coordination Sequence:
#
# PCOD9456539 Si02
#       6
#     8   8   8   8   8   8
#     4  10  21  44  68  88 143 172 222 295 340 415
#     4  12  25  40  65  98 138 187 239 287 347 423
#     4  10  23  41  65  96 130 174 227 281 341 423
#     4  11  23  39  61  95 134 182 230 278 344 408
#     4  11  23  43  65  99 136 179 232 280 355 416
#     4  10  23  46  68  97 133 172 226 289 358 416
#
# _framework density 20.164929000000001
#
# number of rings (size 3 to 8) (size 9 to 14) (size 15 to 20)
#    0.000    1.333    5.000    2.000    2.333    6.000 
#    6.000    0.000    0.000    0.000    0.000    0.000 
#    0.000    0.000    0.000    0.000    0.000    0.000 
#
# Total GULP energy -267479.600871 kJ/mol
# GULP energy per Si atom -5572.491685 kJ/mol
# Density = 2.011903 g / cm^3
# Si number density = 20.164929 Si / 1000 Ang^3
#
#
#
# Elastic Constant Matrix: (Units=GPa)
#
#
# Indices 1 2 3 4 5 6 
#
# 1 95.8010 35.2921 40.7788 0.0000 0.0000 0.0000
# 2 35.2921 119.9120 -5.4164 0.0000 0.0000 0.0000
# 3 40.7788 -5.4164 95.0039 0.0000 0.0000 0.0000
# 4 0.0000 0.0000 0.0000 20.7967 0.0000 0.0000
# 5 0.0000 0.0000 0.0000 0.0000 13.1973 0.0000
# 6 0.0000 0.0000 0.0000 0.0000 0.0000 9.0198
#
#
#
# Elastic Compliance Matrix: (Units=1/GPa)
#
#
# Indices 1 2 3 4 5 6 
#
# 1 0.015045 -0.004732 -0.006728 0.000000 0.000000 0.000000
# 2 -0.004732 0.009849 0.002593 0.000000 0.000000 0.000000
# 3 -0.006728 0.002593 0.013561 0.000000 0.000000 0.000000
# 4 0.000000 0.000000 0.000000 0.048085 0.000000 0.000000
# 5 0.000000 0.000000 0.000000 0.000000 0.075773 0.000000
# 6 0.000000 0.000000 0.000000 0.000000 0.000000 0.110867
#
#
# Mechanical properties :
#
#
# Convention : Reuss Voigt Hill
#
# Bulk Modulus (GPa) = 48.25807 50.22509 49.24158
# Shear Modulus (GPa) = 16.78859 24.60693 20.69776
#
# Velocity S-wave (km/s) = 2.88855 3.49705 3.20726
# Velocity P-wave (km/s) = 5.92525 6.42394 6.17963
#
# Compressibility (1/GPa) = 0.02072192
#
# Stress axis : x y z
#
# Youngs Moduli (GPa) = 66.46637 101.53060 73.73855
#
# Poissons Ratio (x) = 0.48044 0.49609
# Poissons Ratio (y) = 0.31451 -0.19118
# Poissons Ratio (z) = 0.44716 -0.26323
#
# Static dielectric constant tensor:
#      x y z
#    x 1.818550 0.000000 0.000000 
#    y 0.000000 1.738440 0.000000 
#    z 0.000000 0.000000 1.746210 
# 
# From -- ./inp_files/24847.got.cif
#   From: 2010.05.17/outbox.cif.g08.bks.cpg/sg60_13_cif.got.tgz:24847.got - 2010.06.03 14:59:27.
