data_PCOD9456179
_publ_section_title
;
Structure prediction by ZEFSAII (Michael W. Deem and Ramdas Pophale) SiO2 
 PCOD9456179
Probable space group: P B C N
;
_chemical_formula_sum "Si O2"
_cell_formula_units_Z 60
_cell_length_a 5.211450
_cell_length_b 27.101839
_cell_length_c 18.250432
_cell_angle_alpha 90.000000
_cell_angle_beta 90.000000
_cell_angle_gamma 90.000000
_cell_volume 2577.688805
_symmetry_space_group_name_H-M "P B C N"
_symmetry_group_IT_number 60
_symmetry_cell_setting 'orthorhombic'
loop_
_space_group_symop_operation_xyz
x,y,z
1/2-x,1/2-y,1/2+z
1/2+x,1/2-y,-z
-x,y,1/2-z
-x,-y,-z
1/2+x,1/2+y,1/2-z
1/2-x,1/2+y,z
x,-y,1/2+z
loop_
_atom_site_type_symbol
_atom_site_label
_atom_site_fract_x
_atom_site_fract_y
_atom_site_fract_z
Si Si1 0.500000 0.367138 0.750000
Si Si2 0.979108 0.165803 0.863400
Si Si3 0.834333 0.650335 0.122828
Si Si4 0.508177 0.607720 0.499026
Si Si5 0.308583 0.932624 0.634045
Si Si6 0.908594 0.739537 0.449300
Si Si7 0.947568 0.610441 0.672003
Si Si8 0.609604 0.968848 0.431917
O O1 0.314412 0.335005 0.802934
O O2 0.650178 0.403497 0.804966
O O3 0.938977 0.222359 0.881808
O O4 0.208040 0.147020 0.812041
O O5 0.703028 0.140736 0.850876
O O6 0.100868 0.143555 0.938156
O O7 0.653772 0.643378 0.053530
O O8 0.053661 0.686594 0.091533
O O9 0.918308 0.593902 0.140089
O O10 0.711669 0.583662 0.445967
O O11 0.334823 0.564959 0.535075
O O12 0.304101 0.991223 0.629231
O O13 0.144354 0.749264 0.506877
O O14 0.917669 0.568073 0.610408
O O15 0.000000 0.585243 0.750000
O O16 0.500000 0.000000 0.500000
#
# Coordination Sequence:
#
# PCOD9456179 Si02
#       8
#     4   8   8   8   8   8   8   8
#     4  10  26  44  60  96 136 196 218 284 348 420
#     4  11  23  45  70  99 137 175 230 284 352 407
#     4  11  23  43  68  96 143 176 228 287 344 418
#     4  10  21  39  65 100 132 174 219 293 337 409
#     4  11  22  42  65  94 140 173 237 274 352 407
#     4  12  25  42  75 111 134 173 231 297 358 405
#     4  11  26  47  67  97 143 187 233 286 348 415
#     4  11  22  40  70 102 130 181 236 289 347 409
#
# _framework density 23.276665000000001
#
# number of rings (size 3 to 8) (size 9 to 14) (size 15 to 20)
#    0.000    1.067    2.667    3.600    5.600    2.133 
#    6.000    1.333    0.000    0.000    0.000    0.000 
#    0.000    0.000    0.000    0.000    0.000    0.000 
#
# Total GULP energy -334872.394376 kJ/mol
# GULP energy per Si atom -5581.206573 kJ/mol
# Density = 2.322369 g / cm^3
# Si number density = 23.276665 Si / 1000 Ang^3
#
#
#
# Elastic Constant Matrix: (Units=GPa)
#
#
# Indices 1 2 3 4 5 6 
#
# 1 64.4636 7.4287 1.8305 0.0000 0.0000 0.0000
# 2 7.4287 93.4742 18.3299 0.0000 0.0000 0.0000
# 3 1.8305 18.3299 79.2030 0.0000 0.0000 0.0000
# 4 0.0000 0.0000 0.0000 15.0229 0.0000 0.0000
# 5 0.0000 0.0000 0.0000 0.0000 34.3288 0.0000
# 6 0.0000 0.0000 0.0000 0.0000 0.0000 25.3242
#
#
#
# Elastic Compliance Matrix: (Units=1/GPa)
#
#
# Indices 1 2 3 4 5 6 
#
# 1 0.015656 -0.001229 -0.000077 0.000000 0.000000 0.000000
# 2 -0.001229 0.011303 -0.002587 0.000000 0.000000 0.000000
# 3 -0.000077 -0.002587 0.013226 0.000000 0.000000 0.000000
# 4 0.000000 0.000000 0.000000 0.066565 0.000000 0.000000
# 5 0.000000 0.000000 0.000000 0.000000 0.029130 0.000000
# 6 0.000000 0.000000 0.000000 0.000000 0.000000 0.039488
#
#
# Mechanical properties :
#
#
# Convention : Reuss Voigt Hill
#
# Bulk Modulus (GPa) = 30.86599 32.47989 31.67294
# Shear Modulus (GPa) = 25.77896 28.90528 27.34212
#
# Velocity S-wave (km/s) = 3.33153 3.52776 3.43105
# Velocity P-wave (km/s) = 5.29981 5.52970 5.41598
#
# Compressibility (1/GPa) = 0.03239811
#
# Stress axis : x y z
#
# Youngs Moduli (GPa) = 63.87139 88.47038 75.60640
#
# Poissons Ratio (x) = 0.10874 0.00585
# Poissons Ratio (y) = 0.07850 0.19563
# Poissons Ratio (z) = 0.00494 0.22892
#
# Static dielectric constant tensor:
#      x y z
#    x 2.018320 0.000000 0.000000 
#    y 0.000000 1.906300 0.000000 
#    z 0.000000 0.000000 2.057790 
# 
# From -- ./inp_files/18794.got.cif
#   From: 2010.05.17/outbox.cif.g08.bks.cpg/sg60_10_cif.got.tgz:18794.got - 2010.06.03 14:59:27.
