data_PCOD9456140
_publ_section_title
;
Structure prediction by ZEFSAII (Michael W. Deem and Ramdas Pophale) SiO2 
 PCOD9456140
Probable space group: P B C N
;
_chemical_formula_sum "Si O2"
_cell_formula_units_Z 60
_cell_length_a 12.644098
_cell_length_b 8.183190
_cell_length_c 27.540130
_cell_angle_alpha 90.000000
_cell_angle_beta 90.000000
_cell_angle_gamma 90.000000
_cell_volume 2849.551262
_symmetry_space_group_name_H-M "P B C N"
_symmetry_group_IT_number 60
_symmetry_cell_setting 'orthorhombic'
loop_
_space_group_symop_operation_xyz
x,y,z
1/2-x,1/2-y,1/2+z
1/2+x,1/2-y,-z
-x,y,1/2-z
-x,-y,-z
1/2+x,1/2+y,1/2-z
1/2-x,1/2+y,z
x,-y,1/2+z
loop_
_atom_site_type_symbol
_atom_site_label
_atom_site_fract_x
_atom_site_fract_y
_atom_site_fract_z
Si Si1 0.644474 0.599604 0.087312
Si Si2 0.138885 0.897191 0.661195
Si Si3 0.409538 0.700050 0.057399
Si Si4 0.071675 0.312796 0.332232
Si Si5 0.000000 0.488888 0.750000
Si Si6 0.973749 0.543661 0.410438
Si Si7 0.351686 0.259675 0.452466
Si Si8 0.367367 0.774397 0.674917
O O1 0.533829 0.653597 0.062306
O O2 0.646472 0.682213 0.140898
O O3 0.643161 0.404382 0.087001
O O4 0.744527 0.662125 0.057224
O O5 0.145212 0.890139 0.602441
O O6 0.245848 0.823168 0.681860
O O7 0.040057 0.781652 0.672778
O O8 0.119845 0.080775 0.678191
O O9 0.407103 0.895771 0.066629
O O10 0.359485 0.662612 0.005766
O O11 0.082994 0.400191 0.280707
O O12 0.053587 0.453606 0.372575
O O13 0.937825 0.375297 0.787484
O O14 0.046717 0.643286 0.447013
O O15 0.902986 0.663774 0.378347
#
# Coordination Sequence:
#
# PCOD9456140 Si02
#       8
#     8   8   8   8   4   8   8   8
#     4  10  22  38  55  82 121 158 198 252 299 344
#     4  10  21  39  62  89 124 160 195 247 297 344
#     4  10  22  38  59  88 118 162 211 246 285 348
#     4   9  20  42  61  85 117 151 193 247 302 351
#     4  10  22  40  66  90 116 152 198 246 300 376
#     4   9  19  36  57  83 121 156 194 251 295 333
#     4  12  22  37  59  87 122 167 207 239 291 360
#     4  11  21  39  62  91 121 156 197 248 306 352
#
# _framework density 21.055947
#
# number of rings (size 3 to 8) (size 9 to 14) (size 15 to 20)
#    0.000    2.133    0.000    6.400    0.000    3.733 
#    0.000    8.000    0.000    3.200    0.000    0.000 
#    0.000    0.000    0.000    0.000    0.000    0.000 
#
# Total GULP energy -335024.017686 kJ/mol
# GULP energy per Si atom -5583.733628 kJ/mol
# Density = 2.100802 g / cm^3
# Si number density = 21.055947 Si / 1000 Ang^3
#
#
#
# Elastic Constant Matrix: (Units=GPa)
#
#
# Indices 1 2 3 4 5 6 
#
# 1 63.1059 -2.3803 8.1551 0.0000 0.0000 0.0000
# 2 -2.3803 74.5579 19.3974 0.0000 0.0000 0.0000
# 3 8.1551 19.3974 82.9231 0.0000 0.0000 0.0000
# 4 0.0000 0.0000 0.0000 20.6826 0.0000 0.0000
# 5 0.0000 0.0000 0.0000 0.0000 14.1173 0.0000
# 6 0.0000 0.0000 0.0000 0.0000 0.0000 17.6780
#
#
#
# Elastic Compliance Matrix: (Units=1/GPa)
#
#
# Indices 1 2 3 4 5 6 
#
# 1 0.016118 0.000987 -0.001816 0.000000 0.000000 0.000000
# 2 0.000987 0.014342 -0.003452 0.000000 0.000000 0.000000
# 3 -0.001816 -0.003452 0.013045 0.000000 0.000000 0.000000
# 4 0.000000 0.000000 0.000000 0.048350 0.000000 0.000000
# 5 0.000000 0.000000 0.000000 0.000000 0.070835 0.000000
# 6 0.000000 0.000000 0.000000 0.000000 0.000000 0.056568
#
#
# Mechanical properties :
#
#
# Convention : Reuss Voigt Hill
#
# Bulk Modulus (GPa) = 28.61738 30.10350 29.36044
# Shear Modulus (GPa) = 20.87961 23.52322 22.20142
#
# Velocity S-wave (km/s) = 3.15242 3.34605 3.25068
# Velocity P-wave (km/s) = 5.18372 5.40888 5.29750
#
# Compressibility (1/GPa) = 0.03494380
#
# Stress axis : x y z
#
# Youngs Moduli (GPa) = 62.04133 69.72538 76.65509
#
# Poissons Ratio (x) = -0.06882 0.13921
# Poissons Ratio (y) = -0.06124 0.26461
# Poissons Ratio (z) = 0.11267 0.24069
#
# Static dielectric constant tensor:
#      x y z
#    x 1.737570 0.000000 0.000000 
#    y 0.000000 1.759450 0.000000 
#    z 0.000000 0.000000 1.783480 
# 
# From -- ./inp_files/26074.got.cif
#   From: 2010.05.17/outbox.cif.g08.bks.cpg/sg60_14_cif.got.tgz:26074.got - 2010.06.03 14:59:27.
