data_PCOD9456758
_publ_section_title
;
Structure prediction by ZEFSAII (Michael W. Deem and Ramdas Pophale) SiO2 
 PCOD9456758
Probable space group: P B C N
;
_chemical_formula_sum "Si O2"
_cell_formula_units_Z 40
_cell_length_a 12.831513
_cell_length_b 23.125990
_cell_length_c 5.628368
_cell_angle_alpha 90.000000
_cell_angle_beta 90.000000
_cell_angle_gamma 90.000000
_cell_volume 1670.170033
_symmetry_space_group_name_H-M "P B C N"
_symmetry_group_IT_number 60
_symmetry_cell_setting 'orthorhombic'
loop_
_space_group_symop_operation_xyz
x,y,z
1/2-x,1/2-y,1/2+z
1/2+x,1/2-y,-z
-x,y,1/2-z
-x,-y,-z
1/2+x,1/2+y,1/2-z
1/2-x,1/2+y,z
x,-y,1/2+z
loop_
_atom_site_type_symbol
_atom_site_label
_atom_site_fract_x
_atom_site_fract_y
_atom_site_fract_z
Si Si1 0.904910 0.317081 0.566918
Si Si2 0.114972 0.430894 0.259631
Si Si3 0.253322 0.130991 0.138616
Si Si4 0.183383 0.013423 0.263018
Si Si5 0.943379 0.810889 0.993565
O O1 0.896671 0.375826 0.415838
O O2 0.917849 0.256347 0.438551
O O3 0.000000 0.321371 0.750000
O O4 0.798328 0.316169 0.714941
O O5 0.152210 0.399983 0.501337
O O6 0.207992 0.477158 0.222122
O O7 0.000000 0.458912 0.250000
O O8 0.206440 0.080692 0.300557
O O9 0.162710 0.153451 0.971604
O O10 0.131320 0.990567 0.502998
O O11 0.000000 0.832434 0.750000
O O12 0.000000 0.813191 0.250000
#
# Coordination Sequence:
#
# PCOD9456758 Si02
#       5
#     8   8   8   8   8
#     4  11  23  40  66 103 138 179 221 277 344 429
#     4  11  22  38  65 101 146 176 216 275 352 432
#     4  11  25  42  70  97 141 185 228 279 348 408
#     4  10  22  39  61  98 135 177 218 268 334 416
#     4  11  29  48  70  98 137 185 243 292 335 392
#
# _framework density 23.949657999999999
#
# number of rings (size 3 to 8) (size 9 to 14) (size 15 to 20)
#    0.000    1.200    4.000    0.600    8.400    4.000 
#    0.000    0.000    0.000   14.400    0.000    0.000 
#    0.000    0.000    0.000    0.000    0.000    0.000 
#
# Total GULP energy -223218.426536 kJ/mol
# GULP energy per Si atom -5580.460663 kJ/mol
# Density = 2.389515 g / cm^3
# Si number density = 23.949658 Si / 1000 Ang^3
#
#
#
# Elastic Constant Matrix: (Units=GPa)
#
#
# Indices 1 2 3 4 5 6 
#
# 1 59.3634 21.9053 19.2379 0.0000 0.0000 0.0000
# 2 21.9053 49.6908 0.9039 0.0000 0.0000 0.0000
# 3 19.2379 0.9039 111.0927 0.0000 0.0000 0.0000
# 4 0.0000 0.0000 0.0000 48.8886 0.0000 0.0000
# 5 0.0000 0.0000 0.0000 0.0000 19.1529 0.0000
# 6 0.0000 0.0000 0.0000 0.0000 0.0000 -25.6997
#
#
#
# Elastic Compliance Matrix: (Units=1/GPa)
#
#
# Indices 1 2 3 4 5 6 
#
# 1 0.021500 -0.009412 -0.003647 0.000000 0.000000 0.000000
# 2 -0.009412 0.024247 0.001433 0.000000 0.000000 0.000000
# 3 -0.003647 0.001433 0.009621 0.000000 0.000000 0.000000
# 4 0.000000 0.000000 0.000000 0.020455 0.000000 0.000000
# 5 0.000000 0.000000 0.000000 0.000000 0.052211 0.000000
# 6 0.000000 0.000000 0.000000 0.000000 0.000000 -0.038911
#
#
# Mechanical properties :
#
#
# Convention : Reuss Voigt Hill
#
# Bulk Modulus (GPa) = 31.13577 33.80456 32.47016
# Shear Modulus (GPa) = 40.62370 20.34168 30.48269
#
# Velocity S-wave (km/s) = 4.12298 2.91753 3.57148
# Velocity P-wave (km/s) = 5.97444 5.04923 5.53122
#
# Compressibility (1/GPa) = 0.03211740
#
# Stress axis : x y z
#
# Youngs Moduli (GPa) = 46.51149 41.24165 103.93586
#
# Poissons Ratio (x) = 0.38815 0.37901
# Poissons Ratio (y) = 0.43775 -0.14889
# Poissons Ratio (z) = 0.16961 -0.05908
#
# Static dielectric constant tensor:
#      x y z
#    x 1.956260 0.000000 0.000000 
#    y 0.000000 1.884440 0.000000 
#    z 0.000000 0.000000 2.390160 
# 
# From -- ./inp_files/837.got.cif
#   From: 2010.05.17/outbox.cif.g08.bks.cpg/sg60_1_cif.got.tgz:837.got - 2010.06.03 14:59:27.
