data_PCOD9456688
_publ_section_title
;
Structure prediction by ZEFSAII (Michael W. Deem and Ramdas Pophale) SiO2 
 PCOD9456688
Probable space group: P B C N
;
_chemical_formula_sum "Si O2"
_cell_formula_units_Z 60
_cell_length_a 12.486431
_cell_length_b 27.617953
_cell_length_c 8.119196
_cell_angle_alpha 90.000000
_cell_angle_beta 90.000000
_cell_angle_gamma 90.000000
_cell_volume 2799.902017
_symmetry_space_group_name_H-M "P B C N"
_symmetry_group_IT_number 60
_symmetry_cell_setting 'orthorhombic'
loop_
_space_group_symop_operation_xyz
x,y,z
1/2-x,1/2-y,1/2+z
1/2+x,1/2-y,-z
-x,y,1/2-z
-x,-y,-z
1/2+x,1/2+y,1/2-z
1/2-x,1/2+y,z
x,-y,1/2+z
loop_
_atom_site_type_symbol
_atom_site_label
_atom_site_fract_x
_atom_site_fract_y
_atom_site_fract_z
Si Si1 0.772339 0.881553 0.270780
Si Si2 0.092330 0.585397 0.135784
Si Si3 0.380988 0.550526 0.246606
Si Si4 0.079910 0.668841 0.902837
Si Si5 0.572217 0.279769 0.584741
Si Si6 0.226256 0.138276 0.355577
Si Si7 0.500000 0.665848 0.750000
Si Si8 0.754422 0.028228 0.570468
O O1 0.695368 0.850426 0.154487
O O2 0.741805 0.871775 0.457608
O O3 0.755897 0.937363 0.228668
O O4 0.893699 0.866316 0.236376
O O5 0.183700 0.616309 0.234617
O O6 0.000000 0.564533 0.250000
O O7 0.039658 0.627758 0.026798
O O8 0.146365 0.542863 0.027028
O O9 0.500000 0.529696 0.250000
O O10 0.377167 0.605366 0.310448
O O11 0.294267 0.522959 0.361928
O O12 0.342481 0.546212 0.059977
O O13 0.089169 0.723690 0.963103
O O14 0.000000 0.669386 0.750000
O O15 0.500000 0.281675 0.750000
O O16 0.682477 0.306936 0.638408
O O17 0.520651 0.304647 0.421267
#
# Coordination Sequence:
#
# PCOD9456688 Si02
#       8
#     8   8   8   8   8   8   4   8
#     4  10  22  40  60  88 130 159 212 260 319 388
#     4  10  22  41  64  88 122 166 214 266 320 377
#     4  11  22  36  61  92 125 164 207 255 326 391
#     4  10  22  41  63  93 122 169 215 266 318 380
#     4  10  23  40  62  91 131 167 214 267 323 388
#     4  10  22  38  61  92 124 168 207 261 321 386
#     4  10  24  38  60  92 122 174 204 260 334 382
#     4  10  23  38  60  91 122 161 207 262 316 388
#
# _framework density 21.429323
#
# number of rings (size 3 to 8) (size 9 to 14) (size 15 to 20)
#    0.000    1.867    0.000    2.400   11.200    2.133 
#    4.800    2.667    0.000    8.000    0.000    0.000 
#    0.000    0.000    0.000    0.000    0.000    0.000 
#
# Total GULP energy -334722.606622 kJ/mol
# GULP energy per Si atom -5578.710110 kJ/mol
# Density = 2.138055 g / cm^3
# Si number density = 21.429323 Si / 1000 Ang^3
#
#
#
# Elastic Constant Matrix: (Units=GPa)
#
#
# Indices 1 2 3 4 5 6 
#
# 1 76.5633 14.6965 -2.0719 0.0000 0.0000 0.0000
# 2 14.6965 61.8692 -3.0841 0.0000 0.0000 0.0000
# 3 -2.0719 -3.0841 59.1970 0.0000 0.0000 0.0000
# 4 0.0000 0.0000 0.0000 11.1229 0.0000 0.0000
# 5 0.0000 0.0000 0.0000 0.0000 22.3582 0.0000
# 6 0.0000 0.0000 0.0000 0.0000 0.0000 7.7742
#
#
#
# Elastic Compliance Matrix: (Units=1/GPa)
#
#
# Indices 1 2 3 4 5 6 
#
# 1 0.013691 -0.003237 0.000311 0.000000 0.000000 0.000000
# 2 -0.003237 0.016970 0.000771 0.000000 0.000000 0.000000
# 3 0.000311 0.000771 0.016944 0.000000 0.000000 0.000000
# 4 0.000000 0.000000 0.000000 0.089905 0.000000 0.000000
# 5 0.000000 0.000000 0.000000 0.000000 0.044726 0.000000
# 6 0.000000 0.000000 0.000000 0.000000 0.000000 0.128630
#
#
# Mechanical properties :
#
#
# Convention : Reuss Voigt Hill
#
# Bulk Modulus (GPa) = 23.09763 24.07894 23.58828
# Shear Modulus (GPa) = 15.16953 20.79033 17.97993
#
# Velocity S-wave (km/s) = 2.66350 3.11815 2.89975
# Velocity P-wave (km/s) = 4.50121 4.92186 4.71623
#
# Compressibility (1/GPa) = 0.04329449
#
# Stress axis : x y z
#
# Youngs Moduli (GPa) = 73.04185 58.92618 59.01870
#
# Poissons Ratio (x) = 0.19072 -0.01833
# Poissons Ratio (y) = 0.23641 -0.04550
# Poissons Ratio (z) = -0.02268 -0.04542
#
# Static dielectric constant tensor:
#      x y z
#    x 1.789740 0.000000 0.000000 
#    y 0.000000 1.795300 0.000000 
#    z 0.000000 0.000000 1.797260 
# 
# From -- ./inp_files/5232.got.cif
#   From: 2010.05.17/outbox.cif.g08.bks.cpg/sg60_3_cif.got.tgz:5232.got - 2010.06.03 14:59:27.
