data_PCOD9456043
_publ_section_title
;
Structure prediction by ZEFSAII (Michael W. Deem and Ramdas Pophale) SiO2 
 PCOD9456043
Probable space group: P B C N
;
_chemical_formula_sum "Si O2"
_cell_formula_units_Z 60
_cell_length_a 8.009650
_cell_length_b 14.641837
_cell_length_c 21.917705
_cell_angle_alpha 90.000000
_cell_angle_beta 90.000000
_cell_angle_gamma 90.000000
_cell_volume 2570.420546
_symmetry_space_group_name_H-M "P B C N"
_symmetry_group_IT_number 60
_symmetry_cell_setting 'orthorhombic'
loop_
_space_group_symop_operation_xyz
x,y,z
1/2-x,1/2-y,1/2+z
1/2+x,1/2-y,-z
-x,y,1/2-z
-x,-y,-z
1/2+x,1/2+y,1/2-z
1/2-x,1/2+y,z
x,-y,1/2+z
loop_
_atom_site_type_symbol
_atom_site_label
_atom_site_fract_x
_atom_site_fract_y
_atom_site_fract_z
Si Si1 0.844929 0.881585 0.485963
Si Si2 0.762061 0.916648 0.838972
Si Si3 0.655380 0.154887 0.669014
Si Si4 0.991784 0.285782 0.042796
Si Si5 0.334794 0.053487 0.021568
Si Si6 0.500000 0.003531 0.750000
Si Si7 0.473555 0.581988 0.648322
Si Si8 0.818878 0.758608 0.277119
O O1 0.669101 0.827127 0.477822
O O2 0.963065 0.820369 0.527977
O O3 0.917588 0.890203 0.418797
O O4 0.806572 0.985968 0.505297
O O5 0.682395 0.940281 0.905173
O O6 0.756108 0.808477 0.827933
O O7 0.650319 0.949211 0.781502
O O8 0.931471 0.976126 0.838670
O O9 0.555822 0.193825 0.612147
O O10 0.559736 0.069691 0.696601
O O11 0.692023 0.228969 0.721460
O O12 0.837966 0.115149 0.653727
O O13 0.856567 0.346085 0.004946
O O14 0.500000 0.000000 0.000000
O O15 0.359916 0.642483 0.694079
O O16 0.000000 0.728716 0.250000
#
# Coordination Sequence:
#
# PCOD9456043 Si02
#       8
#     8   8   8   8   8   4   8   8
#     4  10  21  40  66  93 123 169 212 266 320 385
#     4  11  21  39  67  91 121 171 211 263 317 388
#     4  11  24  41  65  93 131 174 211 267 322 388
#     4  11  22  41  64  94 127 168 214 267 321 378
#     4   9  20  38  63  91 122 163 213 255 323 384
#     4  12  22  40  66  90 128 162 220 260 322 376
#     4  10  21  42  65  88 132 164 208 264 324 377
#     4  10  21  38  62  90 122 171 213 248 318 390
#
# _framework density 23.342483999999999
#
# number of rings (size 3 to 8) (size 9 to 14) (size 15 to 20)
#    0.000    1.600    2.000    4.000    0.000    3.200 
#    2.400    8.667    0.000    0.000    0.000    0.000 
#    0.000    0.000    0.000    0.000    0.000    0.000 
#
# Total GULP energy -335567.807925 kJ/mol
# GULP energy per Si atom -5592.796799 kJ/mol
# Density = 2.328936 g / cm^3
# Si number density = 23.342484 Si / 1000 Ang^3
#
#
#
# Elastic Constant Matrix: (Units=GPa)
#
#
# Indices 1 2 3 4 5 6 
#
# 1 77.8939 13.0618 1.1862 0.0000 0.0000 0.0000
# 2 13.0618 78.1070 2.0878 0.0000 0.0000 0.0000
# 3 1.1862 2.0878 68.1823 0.0000 0.0000 0.0000
# 4 0.0000 0.0000 0.0000 45.8821 0.0000 0.0000
# 5 0.0000 0.0000 0.0000 0.0000 28.0870 0.0000
# 6 0.0000 0.0000 0.0000 0.0000 0.0000 29.6167
#
#
#
# Elastic Compliance Matrix: (Units=1/GPa)
#
#
# Indices 1 2 3 4 5 6 
#
# 1 0.013210 -0.002205 -0.000162 0.000000 0.000000 0.000000
# 2 -0.002205 0.013181 -0.000365 0.000000 0.000000 0.000000
# 3 -0.000162 -0.000365 0.014681 0.000000 0.000000 0.000000
# 4 0.000000 0.000000 0.000000 0.021795 0.000000 0.000000
# 5 0.000000 0.000000 0.000000 0.000000 0.035604 0.000000
# 6 0.000000 0.000000 0.000000 0.000000 0.000000 0.033765
#
#
# Mechanical properties :
#
#
# Convention : Reuss Voigt Hill
#
# Bulk Modulus (GPa) = 28.08403 28.53941 28.31172
# Shear Modulus (GPa) = 33.42931 34.57366 34.00148
#
# Velocity S-wave (km/s) = 3.78845 3.85274 3.82073
# Velocity P-wave (km/s) = 5.58514 5.66078 5.62309
#
# Compressibility (1/GPa) = 0.03560743
#
# Stress axis : x y z
#
# Youngs Moduli (GPa) = 75.69929 75.86433 68.11721
#
# Poissons Ratio (x) = 0.16726 0.01106
# Poissons Ratio (y) = 0.16690 0.02488
# Poissons Ratio (z) = 0.01229 0.02771
#
# Static dielectric constant tensor:
#      x y z
#    x 1.909830 0.000000 0.000000 
#    y 0.000000 1.923520 0.000000 
#    z 0.000000 0.000000 1.843370 
# 
# From -- ./inp_files/24025.got.cif
#   From: 2010.05.17/outbox.cif.g08.bks.cpg/sg60_13_cif.got.tgz:24025.got - 2010.06.03 14:59:27.
