data_PCOD9456622
_publ_section_title
;
Structure prediction by ZEFSAII (Michael W. Deem and Ramdas Pophale) SiO2 
 PCOD9456622
Probable space group: P B C N
;
_chemical_formula_sum "Si O2"
_cell_formula_units_Z 36
_cell_length_a 14.813288
_cell_length_b 24.748349
_cell_length_c 5.062844
_cell_angle_alpha 90.000000
_cell_angle_beta 90.000000
_cell_angle_gamma 90.000000
_cell_volume 1856.060995
_symmetry_space_group_name_H-M "P B C N"
_symmetry_group_IT_number 60
_symmetry_cell_setting 'orthorhombic'
loop_
_space_group_symop_operation_xyz
x,y,z
1/2-x,1/2-y,1/2+z
1/2+x,1/2-y,-z
-x,y,1/2-z
-x,-y,-z
1/2+x,1/2+y,1/2-z
1/2-x,1/2+y,z
x,-y,1/2+z
loop_
_atom_site_type_symbol
_atom_site_label
_atom_site_fract_x
_atom_site_fract_y
_atom_site_fract_z
Si Si1 0.249335 0.855037 0.451609
Si Si2 0.639044 0.320398 0.537712
Si Si3 0.937494 0.300311 0.005112
Si Si4 0.160068 0.964766 0.492561
Si Si5 0.000000 0.101055 0.750000
O O1 0.217350 0.826131 0.182509
O O2 0.350129 0.837965 0.519161
O O3 0.234096 0.919136 0.428592
O O4 0.180843 0.836288 0.682014
O O5 0.599460 0.260503 0.546093
O O6 0.561739 0.361265 0.435831
O O7 0.000000 0.301104 0.750000
O O8 0.000000 0.315879 0.250000
O O9 0.065233 0.936119 0.424978
O O10 0.167078 0.985264 0.790841
#
# Coordination Sequence:
#
# PCOD9456622 Si02
#       5
#     8   8   8   8   4
#     4  11  24  41  62  87 124 167 203 254 306 358
#     4  11  22  39  60  92 129 164 197 238 309 382
#     4  12  24  40  64  91 123 159 209 254 303 365
#     4  11  23  39  60  88 122 163 206 249 296 358
#     4  10  22  36  62  94 128 160 192 246 296 382
#
# _framework density 19.395913
#
# number of rings (size 3 to 8) (size 9 to 14) (size 15 to 20)
#    0.000    0.889    1.111    7.333    3.111    3.556 
#    0.000    0.000    0.000    4.000    0.000    0.000 
#    0.000    0.000    0.000    0.000    0.000    0.000 
#
# Total GULP energy -201602.049856 kJ/mol
# GULP energy per Si atom -5600.056940 kJ/mol
# Density = 1.935177 g / cm^3
# Si number density = 19.395913 Si / 1000 Ang^3
#
#
#
# Elastic Constant Matrix: (Units=GPa)
#
#
# Indices 1 2 3 4 5 6 
#
# 1 76.5660 47.4385 -8.4131 0.0000 0.0000 0.0000
# 2 47.4385 72.3595 -3.1654 0.0000 0.0000 0.0000
# 3 -8.4131 -3.1654 61.2339 0.0000 0.0000 0.0000
# 4 0.0000 0.0000 0.0000 26.7621 0.0000 0.0000
# 5 0.0000 0.0000 0.0000 0.0000 32.8292 0.0000
# 6 0.0000 0.0000 0.0000 0.0000 0.0000 8.8818
#
#
#
# Elastic Compliance Matrix: (Units=1/GPa)
#
#
# Indices 1 2 3 4 5 6 
#
# 1 0.022317 -0.014530 0.002315 0.000000 0.000000 0.000000
# 2 -0.014530 0.023311 -0.000791 0.000000 0.000000 0.000000
# 3 0.002315 -0.000791 0.016608 0.000000 0.000000 0.000000
# 4 0.000000 0.000000 0.000000 0.037366 0.000000 0.000000
# 5 0.000000 0.000000 0.000000 0.000000 0.030461 0.000000
# 6 0.000000 0.000000 0.000000 0.000000 0.000000 0.112590
#
#
# Mechanical properties :
#
#
# Convention : Reuss Voigt Hill
#
# Bulk Modulus (GPa) = 27.60574 31.31993 29.46283
# Shear Modulus (GPa) = 17.81007 25.31456 21.56231
#
# Velocity S-wave (km/s) = 3.03353 3.61660 3.33782
# Velocity P-wave (km/s) = 5.15106 5.79849 5.48434
#
# Compressibility (1/GPa) = 0.03622435
#
# Stress axis : x y z
#
# Youngs Moduli (GPa) = 44.80810 42.89820 60.21195
#
# Poissons Ratio (x) = 0.62331 -0.13940
# Poissons Ratio (y) = 0.65106 0.04764
# Poissons Ratio (z) = -0.10374 0.03394
#
# Static dielectric constant tensor:
#      x y z
#    x 1.657100 0.000000 0.000000 
#    y 0.000000 1.679510 0.000000 
#    z 0.000000 0.000000 1.676890 
# 
# From -- ./inp_files/759.got.cif
#   From: 2010.05.17/outbox.cif.g08.bks.cpg/sg60_1_cif.got.tgz:759.got - 2010.06.03 14:59:27.
