data_PCOD9456980
_publ_section_title
;
Structure prediction by ZEFSAII (Michael W. Deem and Ramdas Pophale) SiO2 
 PCOD9456980
Probable space group: P B C N
;
_chemical_formula_sum "Si O2"
_cell_formula_units_Z 56
_cell_length_a 12.190231
_cell_length_b 16.487536
_cell_length_c 14.277134
_cell_angle_alpha 90.000000
_cell_angle_beta 90.000000
_cell_angle_gamma 90.000000
_cell_volume 2869.516510
_symmetry_space_group_name_H-M "P B C N"
_symmetry_group_IT_number 60
_symmetry_cell_setting 'orthorhombic'
loop_
_space_group_symop_operation_xyz
x,y,z
1/2-x,1/2-y,1/2+z
1/2+x,1/2-y,-z
-x,y,1/2-z
-x,-y,-z
1/2+x,1/2+y,1/2-z
1/2-x,1/2+y,z
x,-y,1/2+z
loop_
_atom_site_type_symbol
_atom_site_label
_atom_site_fract_x
_atom_site_fract_y
_atom_site_fract_z
Si Si1 0.277456 0.310463 0.400928
Si Si2 0.225703 0.963344 0.101760
Si Si3 0.536255 0.198633 0.148194
Si Si4 0.600979 0.963667 0.556933
Si Si5 0.621826 0.918028 0.225735
Si Si6 0.065863 0.918893 0.534198
Si Si7 0.381547 0.304675 0.020355
O O1 0.365720 0.262213 0.339565
O O2 0.191838 0.353985 0.333244
O O3 0.349625 0.374773 0.461885
O O4 0.210422 0.246656 0.465581
O O5 0.311417 0.948472 0.184345
O O6 0.164307 0.878731 0.082483
O O7 0.292745 0.977569 0.005997
O O8 0.143415 0.039823 0.113482
O O9 0.500000 0.168229 0.250000
O O10 0.579503 0.129249 0.079581
O O11 0.441298 0.243729 0.091117
O O12 0.500000 0.000000 0.500000
O O13 0.608166 0.007348 0.655617
O O14 0.500000 0.887532 0.250000
O O15 0.972293 0.849532 0.546908
O O16 0.000000 0.000000 0.500000
#
# Coordination Sequence:
#
# PCOD9456980 Si02
#       7
#     8   8   8   8   8   8   8
#     4  11  22  41  65  93 132 168 211 269 325 384
#     4  11  22  43  66  90 128 173 214 267 324 380
#     4  11  24  40  62  94 127 163 212 260 321 391
#     4  12  23  41  63  92 128 168 212 264 320 385
#     4  12  25  38  65  99 127 168 224 266 321 390
#     4   9  21  40  66  91 125 173 218 257 323 393
#     4  10  22  41  68  92 127 173 212 265 334 383
#
# _framework density 19.515481999999999
#
# number of rings (size 3 to 8) (size 9 to 14) (size 15 to 20)
#    0.000    1.143    4.286    2.143    0.000    0.000 
#    0.000    1.429    0.000    0.000    0.000    0.000 
#    0.000    0.000    0.000    0.000    0.000    0.000 
#
# Total GULP energy -312336.867839 kJ/mol
# GULP energy per Si atom -5577.444069 kJ/mol
# Density = 1.947106 g / cm^3
# Si number density = 19.515482 Si / 1000 Ang^3
#
#
#
# Elastic Constant Matrix: (Units=GPa)
#
#
# Indices 1 2 3 4 5 6 
#
# 1 96.4152 31.3940 37.3739 0.0000 0.0000 0.0000
# 2 31.3940 73.5877 24.4025 0.0000 0.0000 0.0000
# 3 37.3739 24.4025 56.7885 0.0000 0.0000 0.0000
# 4 0.0000 0.0000 0.0000 20.6549 0.0000 0.0000
# 5 0.0000 0.0000 0.0000 0.0000 25.1710 0.0000
# 6 0.0000 0.0000 0.0000 0.0000 0.0000 51.2179
#
#
#
# Elastic Compliance Matrix: (Units=1/GPa)
#
#
# Indices 1 2 3 4 5 6 
#
# 1 0.014686 -0.003569 -0.008132 0.000000 0.000000 0.000000
# 2 -0.003569 0.016715 -0.004834 0.000000 0.000000 0.000000
# 3 -0.008132 -0.004834 0.025038 0.000000 0.000000 0.000000
# 4 0.000000 0.000000 0.000000 0.048415 0.000000 0.000000
# 5 0.000000 0.000000 0.000000 0.000000 0.039728 0.000000
# 6 0.000000 0.000000 0.000000 0.000000 0.000000 0.019524
#
#
# Mechanical properties :
#
#
# Convention : Reuss Voigt Hill
#
# Bulk Modulus (GPa) = 42.78949 45.90358 44.34654
# Shear Modulus (GPa) = 24.39450 28.31683 26.35566
#
# Velocity S-wave (km/s) = 3.53938 3.81332 3.67890
# Velocity P-wave (km/s) = 6.21904 6.55448 6.38896
#
# Compressibility (1/GPa) = 0.02337022
#
# Stress axis : x y z
#
# Youngs Moduli (GPa) = 68.09218 59.82770 39.93932
#
# Poissons Ratio (x) = 0.21351 0.32477
# Poissons Ratio (y) = 0.24301 0.19306
# Poissons Ratio (z) = 0.55370 0.28919
#
# Static dielectric constant tensor:
#      x y z
#    x 1.808100 0.000000 0.000000 
#    y 0.000000 1.684300 0.000000 
#    z 0.000000 0.000000 1.653410 
# 
# From -- ./inp_files/16151.got.cif
#   From: 2010.05.17/outbox.cif.g08.bks.cpg/sg60_9_cif.got.tgz:16151.got - 2010.06.03 14:59:27.
