data_PCOD9456165
_publ_section_title
;
Structure prediction by ZEFSAII (Michael W. Deem and Ramdas Pophale) SiO2 
 PCOD9456165
Probable space group: P B C N
;
_chemical_formula_sum "Si O2"
_cell_formula_units_Z 56
_cell_length_a 14.492287
_cell_length_b 30.180573
_cell_length_c 5.011644
_cell_angle_alpha 90.000000
_cell_angle_beta 90.000000
_cell_angle_gamma 90.000000
_cell_volume 2192.020546
_symmetry_space_group_name_H-M "P B C N"
_symmetry_group_IT_number 60
_symmetry_cell_setting 'orthorhombic'
loop_
_space_group_symop_operation_xyz
x,y,z
1/2-x,1/2-y,1/2+z
1/2+x,1/2-y,-z
-x,y,1/2-z
-x,-y,-z
1/2+x,1/2+y,1/2-z
1/2-x,1/2+y,z
x,-y,1/2+z
loop_
_atom_site_type_symbol
_atom_site_label
_atom_site_fract_x
_atom_site_fract_y
_atom_site_fract_z
Si Si1 0.500000 0.099359 0.750000
Si Si2 0.855515 0.027676 0.898826
Si Si3 0.226447 0.155057 0.367126
Si Si4 0.865862 0.883001 0.109883
Si Si5 0.397207 0.736519 0.376156
Si Si6 0.000000 0.816849 0.250000
Si Si7 0.409175 0.173840 0.103575
Si Si8 0.363918 0.027910 0.515838
O O1 0.557621 0.131262 0.556421
O O2 0.427706 0.068380 0.596883
O O3 0.891658 0.071098 0.749148
O O4 0.744348 0.035569 0.921280
O O5 0.880219 0.987489 0.696285
O O6 0.195451 0.141023 0.660940
O O7 0.178142 0.201593 0.275414
O O8 0.333759 0.161360 0.320912
O O9 0.191563 0.117114 0.161838
O O10 0.954830 0.852262 0.049258
O O11 0.500000 0.733911 0.250000
O O12 0.418765 0.715234 0.663863
O O13 0.371613 0.787450 0.409607
O O14 0.500000 0.192105 0.250000
O O15 0.383425 0.013372 0.214155
#
# Coordination Sequence:
#
# PCOD9456165 Si02
#       8
#     4   8   8   8   8   4   8   8
#     4  12  26  42  66  93 144 175 230 288 348 398
#     4  10  21  39  63  95 135 174 219 280 346 411
#     4  11  27  44  73  99 139 185 241 280 344 412
#     4  11  23  44  72 103 135 178 237 284 351 412
#     4  11  22  46  70  97 135 180 234 285 347 412
#     4  10  22  42  70  99 130 179 228 294 332 426
#     4  12  29  43  67 104 145 186 229 294 353 409
#     4  10  23  41  65  92 126 181 233 274 330 409
#
# _framework density 25.547205000000002
#
# number of rings (size 3 to 8) (size 9 to 14) (size 15 to 20)
#    0.000    1.143    2.857    2.143    6.000    4.571 
#    0.000    0.714    0.000    0.000    0.000    0.000 
#    0.000    0.000    0.000    0.000    0.000    0.000 
#
# Total GULP energy -313356.007638 kJ/mol
# GULP energy per Si atom -5595.642994 kJ/mol
# Density = 2.548906 g / cm^3
# Si number density = 25.547205 Si / 1000 Ang^3
#
#
#
# Elastic Constant Matrix: (Units=GPa)
#
#
# Indices 1 2 3 4 5 6 
#
# 1 73.0920 22.7783 14.1944 0.0000 0.0000 0.0000
# 2 22.7783 113.2285 -2.7767 0.0000 0.0000 0.0000
# 3 14.1944 -2.7767 78.1200 0.0000 0.0000 0.0000
# 4 0.0000 0.0000 0.0000 39.1383 0.0000 0.0000
# 5 0.0000 0.0000 0.0000 0.0000 23.6291 0.0000
# 6 0.0000 0.0000 0.0000 0.0000 0.0000 26.0607
#
#
#
# Elastic Compliance Matrix: (Units=1/GPa)
#
#
# Indices 1 2 3 4 5 6 
#
# 1 0.015216 -0.003131 -0.002876 0.000000 0.000000 0.000000
# 2 -0.003131 0.009484 0.000906 0.000000 0.000000 0.000000
# 3 -0.002876 0.000906 0.013356 0.000000 0.000000 0.000000
# 4 0.000000 0.000000 0.000000 0.025550 0.000000 0.000000
# 5 0.000000 0.000000 0.000000 0.000000 0.042321 0.000000
# 6 0.000000 0.000000 0.000000 0.000000 0.000000 0.038372
#
#
# Mechanical properties :
#
#
# Convention : Reuss Voigt Hill
#
# Bulk Modulus (GPa) = 35.90354 36.98141 36.44247
# Shear Modulus (GPa) = 30.52776 33.11526 31.82151
#
# Velocity S-wave (km/s) = 3.46056 3.60424 3.53313
# Velocity P-wave (km/s) = 5.48194 5.64162 5.56235
#
# Compressibility (1/GPa) = 0.02785240
#
# Stress axis : x y z
#
# Youngs Moduli (GPa) = 65.72117 105.44204 74.87500
#
# Poissons Ratio (x) = 0.33019 0.21534
# Poissons Ratio (y) = 0.20581 -0.06784
# Poissons Ratio (z) = 0.18902 -0.09554
#
# Static dielectric constant tensor:
#      x y z
#    x 2.041040 0.000000 0.000000 
#    y 0.000000 2.011010 0.000000 
#    z 0.000000 0.000000 2.048620 
# 
# From -- ./inp_files/1513.got.cif
#   From: 2010.05.17/outbox.cif.g08.bks.cpg/sg60_1_cif.got.tgz:1513.got - 2010.06.03 14:59:27.
