data_PCOD9456841
_publ_section_title
;
Structure prediction by ZEFSAII (Michael W. Deem and Ramdas Pophale) SiO2 
 PCOD9456841
Probable space group: P B C N
;
_chemical_formula_sum "Si O2"
_cell_formula_units_Z 40
_cell_length_a 31.954799
_cell_length_b 5.009053
_cell_length_c 10.447164
_cell_angle_alpha 90.000000
_cell_angle_beta 90.000000
_cell_angle_gamma 90.000000
_cell_volume 1672.207355
_symmetry_space_group_name_H-M "P B C N"
_symmetry_group_IT_number 60
_symmetry_cell_setting 'orthorhombic'
loop_
_space_group_symop_operation_xyz
x,y,z
1/2-x,1/2-y,1/2+z
1/2+x,1/2-y,-z
-x,y,1/2-z
-x,-y,-z
1/2+x,1/2+y,1/2-z
1/2-x,1/2+y,z
x,-y,1/2+z
loop_
_atom_site_type_symbol
_atom_site_label
_atom_site_fract_x
_atom_site_fract_y
_atom_site_fract_z
Si Si1 0.109796 0.940671 0.242658
Si Si2 0.336538 0.033669 0.783239
Si Si3 0.219340 0.570447 0.032839
Si Si4 0.464140 0.790831 0.894668
Si Si5 0.946036 0.207316 0.957882
O O1 0.138298 0.733232 0.318289
O O2 0.063708 0.892462 0.301494
O O3 0.099951 0.818445 0.102444
O O4 0.131660 0.225902 0.246952
O O5 0.308127 0.102696 0.904720
O O6 0.309077 0.953471 0.659599
O O7 0.247796 0.308961 0.033789
O O8 0.513976 0.822485 0.878660
O O9 0.458859 0.600279 0.019219
O O10 0.445427 0.080950 0.925423
#
# Coordination Sequence:
#
# PCOD9456841 Si02
#       5
#     8   8   8   8   8
#     4  12  25  41  66 102 147 177 238 298 362 411
#     4  12  28  43  77 110 139 187 226 298 361 429
#     4  12  26  52  76 104 141 182 233 282 358 450
#     4  10  22  40  64  93 135 193 244 289 345 411
#     4  10  22  40  64  93 135 193 244 289 345 411
#
# _framework density 23.920479
#
# number of rings (size 3 to 8) (size 9 to 14) (size 15 to 20)
#    0.000    0.800    0.000    6.600    8.400    0.000 
#    0.000    8.000    0.000    0.000    0.000    0.000 
#    0.000    0.000    0.000    0.000    0.000    0.000 
#
# Total GULP energy -223296.986253 kJ/mol
# GULP energy per Si atom -5582.424656 kJ/mol
# Density = 2.386604 g / cm^3
# Si number density = 23.920479 Si / 1000 Ang^3
#
#
#
# Elastic Constant Matrix: (Units=GPa)
#
#
# Indices 1 2 3 4 5 6 
#
# 1 95.9650 30.3784 44.7206 0.0000 0.0000 0.0000
# 2 30.3784 162.6237 8.2713 0.0000 0.0000 0.0000
# 3 44.7206 8.2713 77.6117 0.0000 0.0000 0.0000
# 4 0.0000 0.0000 0.0000 24.6201 0.0000 0.0000
# 5 0.0000 0.0000 0.0000 0.0000 40.1333 0.0000
# 6 0.0000 0.0000 0.0000 0.0000 0.0000 48.6047
#
#
#
# Elastic Compliance Matrix: (Units=1/GPa)
#
#
# Indices 1 2 3 4 5 6 
#
# 1 0.015119 -0.002394 -0.008457 0.000000 0.000000 0.000000
# 2 -0.002394 0.006562 0.000680 0.000000 0.000000 0.000000
# 3 -0.008457 0.000680 0.017685 0.000000 0.000000 0.000000
# 4 0.000000 0.000000 0.000000 0.040617 0.000000 0.000000
# 5 0.000000 0.000000 0.000000 0.000000 0.024917 0.000000
# 6 0.000000 0.000000 0.000000 0.000000 0.000000 0.020574
#
#
# Mechanical properties :
#
#
# Convention : Reuss Voigt Hill
#
# Bulk Modulus (GPa) = 52.56310 55.88235 54.22272
# Shear Modulus (GPa) = 32.86073 39.52695 36.19384
#
# Velocity S-wave (km/s) = 3.71043 4.06942 3.89407
# Velocity P-wave (km/s) = 6.35439 6.74483 6.55251
#
# Compressibility (1/GPa) = 0.01902475
#
# Stress axis : x y z
#
# Youngs Moduli (GPa) = 66.14080 152.39703 56.54517
#
# Poissons Ratio (x) = 0.36487 0.47819
# Poissons Ratio (y) = 0.15835 -0.03846
# Poissons Ratio (z) = 0.55933 -0.10367
#
# Static dielectric constant tensor:
#      x y z
#    x 1.954440 0.000000 0.000000 
#    y 0.000000 1.820820 0.000000 
#    z 0.000000 0.000000 2.179800 
# 
# From -- ./inp_files/13335.got.cif
#   From: 2010.05.17/outbox.cif.g08.bks.cpg/sg60_7_cif.got.tgz:13335.got - 2010.06.03 14:59:27.
