data_PCOD9456276
_publ_section_title
;
Structure prediction by ZEFSAII (Michael W. Deem and Ramdas Pophale) SiO2 
 PCOD9456276
Probable space group: P B C N
;
_chemical_formula_sum "Si O2"
_cell_formula_units_Z 64
_cell_length_a 11.711114
_cell_length_b 15.084084
_cell_length_c 18.589284
_cell_angle_alpha 90.000000
_cell_angle_beta 90.000000
_cell_angle_gamma 90.000000
_cell_volume 3283.823551
_symmetry_space_group_name_H-M "P B C N"
_symmetry_group_IT_number 60
_symmetry_cell_setting 'orthorhombic'
loop_
_space_group_symop_operation_xyz
x,y,z
1/2-x,1/2-y,1/2+z
1/2+x,1/2-y,-z
-x,y,1/2-z
-x,-y,-z
1/2+x,1/2+y,1/2-z
1/2-x,1/2+y,z
x,-y,1/2+z
loop_
_atom_site_type_symbol
_atom_site_label
_atom_site_fract_x
_atom_site_fract_y
_atom_site_fract_z
Si Si1 0.542520 0.549627 0.070356
Si Si2 0.707818 0.924220 0.602537
Si Si3 0.187437 0.375413 0.414632
Si Si4 0.989540 0.116664 0.667538
Si Si5 0.286758 0.246303 0.305137
Si Si6 0.682079 0.255133 0.364699
Si Si7 0.010701 0.338736 0.535905
Si Si8 0.130379 0.188053 0.032756
O O1 0.669742 0.588909 0.063477
O O2 0.547880 0.471731 0.128178
O O3 0.444255 0.622485 0.082013
O O4 0.500000 0.500000 0.000000
O O5 0.707688 0.854027 0.667240
O O6 0.597260 0.898267 0.556174
O O7 0.698114 0.027876 0.620202
O O8 0.193516 0.300104 0.352920
O O9 0.077729 0.372097 0.465942
O O10 0.289269 0.359208 0.473172
O O11 0.900086 0.198404 0.671860
O O12 0.000000 0.090947 0.750000
O O13 0.106647 0.155461 0.635049
O O14 0.281205 0.245448 0.218700
O O15 0.597444 0.178957 0.397526
O O16 0.789310 0.249586 0.418031
O O17 0.959335 0.244483 0.512507
#
# Coordination Sequence:
#
# PCOD9456276 Si02
#       8
#     8   8   8   8   8   8   8   8
#     4  12  23  38  63  99 126 161 222 276 321 388
#     4  12  23  38  68  92 131 176 217 273 334 381
#     4  11  22  42  64  98 130 168 225 272 324 397
#     4  10  21  40  65  88 130 173 214 265 326 401
#     4  11  21  43  68  97 131 173 220 267 335 403
#     4  10  23  41  70  94 130 176 218 266 338 407
#     4  11  23  41  68  96 133 178 215 273 332 400
#     4  11  23  40  65 100 129 165 221 276 335 383
#
# _framework density 19.489476
#
# number of rings (size 3 to 8) (size 9 to 14) (size 15 to 20)
#    0.000    1.000    5.000    1.875    3.500    1.000 
#    0.000    1.875    2.750    0.000    0.000    0.000 
#    0.000    0.000    0.000    0.000    0.000    0.000 
#
# Total GULP energy -356974.602495 kJ/mol
# GULP energy per Si atom -5577.728164 kJ/mol
# Density = 1.944512 g / cm^3
# Si number density = 19.489476 Si / 1000 Ang^3
#
#
#
# Elastic Constant Matrix: (Units=GPa)
#
#
# Indices 1 2 3 4 5 6 
#
# 1 75.4653 5.5715 37.0527 0.0000 0.0000 0.0000
# 2 5.5715 85.0789 36.9998 0.0000 0.0000 0.0000
# 3 37.0527 36.9998 118.1023 0.0000 0.0000 0.0000
# 4 0.0000 0.0000 0.0000 24.6456 0.0000 0.0000
# 5 0.0000 0.0000 0.0000 0.0000 20.4345 0.0000
# 6 0.0000 0.0000 0.0000 0.0000 0.0000 30.4050
#
#
#
# Elastic Compliance Matrix: (Units=1/GPa)
#
#
# Indices 1 2 3 4 5 6 
#
# 1 0.015787 0.001297 -0.005359 0.000000 0.000000 0.000000
# 2 0.001297 0.013714 -0.004703 0.000000 0.000000 0.000000
# 3 -0.005359 -0.004703 0.011622 0.000000 0.000000 0.000000
# 4 0.000000 0.000000 0.000000 0.040575 0.000000 0.000000
# 5 0.000000 0.000000 0.000000 0.000000 0.048937 0.000000
# 6 0.000000 0.000000 0.000000 0.000000 0.000000 0.032889
#
#
# Mechanical properties :
#
#
# Convention : Reuss Voigt Hill
#
# Bulk Modulus (GPa) = 42.38772 48.65492 45.52132
# Shear Modulus (GPa) = 26.46630 28.36519 27.41574
#
# Velocity S-wave (km/s) = 3.68907 3.81912 3.75466
# Velocity P-wave (km/s) = 6.31996 6.66832 6.49648
#
# Compressibility (1/GPa) = 0.02359174
#
# Stress axis : x y z
#
# Youngs Moduli (GPa) = 63.34478 72.91662 86.04336
#
# Poissons Ratio (x) = -0.09456 0.46111
# Poissons Ratio (y) = -0.08214 0.40469
# Poissons Ratio (z) = 0.33947 0.34295
#
# Static dielectric constant tensor:
#      x y z
#    x 1.768650 0.000000 0.000000 
#    y 0.000000 1.706100 0.000000 
#    z 0.000000 0.000000 1.616870 
# 
# From -- ./inp_files/20219.got.cif
#   From: 2010.05.17/outbox.cif.g08.bks.cpg/sg60_11_cif.got.tgz:20219.got - 2010.06.03 14:59:27.
