data_PCOD9456536
_publ_section_title
;
Structure prediction by ZEFSAII (Michael W. Deem and Ramdas Pophale) SiO2 
 PCOD9456536
Probable space group: P B C N
;
_chemical_formula_sum "Si O2"
_cell_formula_units_Z 32
_cell_length_a 9.836986
_cell_length_b 15.073396
_cell_length_c 8.708281
_cell_angle_alpha 90.000000
_cell_angle_beta 90.000000
_cell_angle_gamma 90.000000
_cell_volume 1291.235913
_symmetry_space_group_name_H-M "P B C N"
_symmetry_group_IT_number 60
_symmetry_cell_setting 'orthorhombic'
loop_
_space_group_symop_operation_xyz
x,y,z
1/2-x,1/2-y,1/2+z
1/2+x,1/2-y,-z
-x,y,1/2-z
-x,-y,-z
1/2+x,1/2+y,1/2-z
1/2-x,1/2+y,z
x,-y,1/2+z
loop_
_atom_site_type_symbol
_atom_site_label
_atom_site_fract_x
_atom_site_fract_y
_atom_site_fract_z
Si Si1 0.004531 0.169313 0.933542
Si Si2 0.723024 0.411532 0.615398
Si Si3 0.703457 0.214816 0.593887
Si Si4 0.144989 0.449769 0.194460
O O1 0.921137 0.095374 0.027451
O O2 0.919864 0.257785 0.982464
O O3 0.661081 0.144630 0.721344
O O4 0.160296 0.177118 0.982105
O O5 0.745597 0.309928 0.665107
O O6 0.832705 0.435851 0.484392
O O7 0.739952 0.483632 0.745009
O O8 0.000000 0.157165 0.750000
O O9 0.000000 0.485519 0.250000
#
# Coordination Sequence:
#
# PCOD9456536 Si02
#       4
#     8   8   8   8
#     4  10  21  44  68 100 146 190 247 302 377 433
#     4  10  26  42  73 108 146 200 241 320 363 453
#     4  10  22  43  70 100 148 196 247 303 371 438
#     4  12  24  46  73 115 151 198 257 302 382 449
#
# _framework density 24.782457000000001
#
# number of rings (size 3 to 8) (size 9 to 14) (size 15 to 20)
#    1.500    0.000    2.500    2.250    0.000    6.000 
#    0.000    0.000    0.000    0.000    0.000    0.000 
#    0.000    0.000    0.000    0.000    0.000    0.000 
#
# Total GULP energy -178990.737545 kJ/mol
# GULP energy per Si atom -5593.460548 kJ/mol
# Density = 2.472605 g / cm^3
# Si number density = 24.782457 Si / 1000 Ang^3
#
#
#
# Elastic Constant Matrix: (Units=GPa)
#
#
# Indices 1 2 3 4 5 6 
#
# 1 103.9241 -6.5360 30.9707 0.0000 0.0000 0.0000
# 2 -6.5360 110.9086 48.5655 0.0000 0.0000 0.0000
# 3 30.9707 48.5655 75.7971 0.0000 0.0000 0.0000
# 4 0.0000 0.0000 0.0000 17.6367 0.0000 0.0000
# 5 0.0000 0.0000 0.0000 0.0000 36.4585 0.0000
# 6 0.0000 0.0000 0.0000 0.0000 0.0000 30.4388
#
#
#
# Elastic Compliance Matrix: (Units=1/GPa)
#
#
# Indices 1 2 3 4 5 6 
#
# 1 0.012114 0.004005 -0.007516 0.000000 0.000000 0.000000
# 2 0.004005 0.013857 -0.010515 0.000000 0.000000 0.000000
# 3 -0.007516 -0.010515 0.023001 0.000000 0.000000 0.000000
# 4 0.000000 0.000000 0.000000 0.056700 0.000000 0.000000
# 5 0.000000 0.000000 0.000000 0.000000 0.027428 0.000000
# 6 0.000000 0.000000 0.000000 0.000000 0.000000 0.032853
#
#
# Mechanical properties :
#
#
# Convention : Reuss Voigt Hill
#
# Bulk Modulus (GPa) = 47.79979 48.51447 48.15713
# Shear Modulus (GPa) = 24.87821 31.41542 28.14682
#
# Velocity S-wave (km/s) = 3.17182 3.56427 3.37375
# Velocity P-wave (km/s) = 5.72220 6.04626 5.88646
#
# Compressibility (1/GPa) = 0.02092059
#
# Stress axis : x y z
#
# Youngs Moduli (GPa) = 82.54798 72.16661 43.47556
#
# Poissons Ratio (x) = -0.28903 0.32676
# Poissons Ratio (y) = -0.33061 0.45714
# Poissons Ratio (z) = 0.62043 0.75883
#
# Static dielectric constant tensor:
#      x y z
#    x 1.993700 0.000000 0.000000 
#    y 0.000000 1.970500 0.000000 
#    z 0.000000 0.000000 1.917510 
# 
# From -- ./inp_files/9614.got.cif
#   From: 2010.05.17/outbox.cif.g08.bks.cpg/sg60_5_cif.got.tgz:9614.got - 2010.06.03 14:59:27.
