data_PCOD9456436
_publ_section_title
;
Structure prediction by ZEFSAII (Michael W. Deem and Ramdas Pophale) SiO2 
 PCOD9456436
Probable space group: P B C N
;
_chemical_formula_sum "Si O2"
_cell_formula_units_Z 56
_cell_length_a 18.735163
_cell_length_b 8.996308
_cell_length_c 14.467332
_cell_angle_alpha 90.000000
_cell_angle_beta 90.000000
_cell_angle_gamma 90.000000
_cell_volume 2438.429700
_symmetry_space_group_name_H-M "P B C N"
_symmetry_group_IT_number 60
_symmetry_cell_setting 'orthorhombic'
loop_
_space_group_symop_operation_xyz
x,y,z
1/2-x,1/2-y,1/2+z
1/2+x,1/2-y,-z
-x,y,1/2-z
-x,-y,-z
1/2+x,1/2+y,1/2-z
1/2-x,1/2+y,z
x,-y,1/2+z
loop_
_atom_site_type_symbol
_atom_site_label
_atom_site_fract_x
_atom_site_fract_y
_atom_site_fract_z
Si Si1 0.848645 0.781116 0.404313
Si Si2 0.123947 0.340457 0.956947
Si Si3 0.314352 0.672888 0.293771
Si Si4 0.833307 0.841357 0.187995
Si Si5 0.400507 0.051819 0.814909
Si Si6 0.709796 0.393429 0.922943
Si Si7 0.557759 0.030385 0.384887
O O1 0.849543 0.819135 0.295531
O O2 0.793619 0.646427 0.427607
O O3 0.923821 0.696589 0.421189
O O4 0.818546 0.938937 0.443905
O O5 0.175142 0.232462 0.013723
O O6 0.074949 0.414714 0.033928
O O7 0.103639 0.228232 0.873462
O O8 0.150573 0.474032 0.890344
O O9 0.242870 0.758717 0.323745
O O10 0.322620 0.511771 0.335999
O O11 0.381738 0.776040 0.315396
O O12 0.309325 0.645729 0.183413
O O13 0.394701 0.999623 0.708232
O O14 0.478288 0.004858 0.850520
#
# Coordination Sequence:
#
# PCOD9456436 Si02
#       7
#     8   8   8   8   8   8   8
#     4  10  21  42  63  97 133 178 218 283 348 400
#     4  12  23  42  67 104 131 176 236 276 336 416
#     4  10  21  42  63  97 133 178 218 283 348 400
#     4  10  22  37  68  96 135 170 224 287 345 397
#     4  11  24  44  70  97 140 192 234 277 334 405
#     4  10  22  37  68  96 135 170 224 287 345 397
#     4  11  24  44  70  97 140 192 234 277 334 405
#
# _framework density 22.965598
#
# number of rings (size 3 to 8) (size 9 to 14) (size 15 to 20)
#    0.000    1.429    2.857    2.143    4.000    5.714 
#    0.000    2.857    0.000    0.000    0.000    0.000 
#    0.000    0.000    0.000    0.000    0.000    0.000 
#
# Total GULP energy -312212.835642 kJ/mol
# GULP energy per Si atom -5575.229208 kJ/mol
# Density = 2.291333 g / cm^3
# Si number density = 22.965598 Si / 1000 Ang^3
#
#
#
# Elastic Constant Matrix: (Units=GPa)
#
#
# Indices 1 2 3 4 5 6 
#
# 1 66.3388 59.2400 14.5763 0.0000 0.0000 0.0000
# 2 59.2400 187.0802 36.5466 0.0000 0.0000 0.0000
# 3 14.5763 36.5466 124.7750 0.0000 0.0000 0.0000
# 4 0.0000 0.0000 0.0000 43.3422 0.0000 0.0000
# 5 0.0000 0.0000 0.0000 0.0000 22.1525 0.0000
# 6 0.0000 0.0000 0.0000 0.0000 0.0000 31.1939
#
#
#
# Elastic Compliance Matrix: (Units=1/GPa)
#
#
# Indices 1 2 3 4 5 6 
#
# 1 0.021051 -0.006561 -0.000538 0.000000 0.000000 0.000000
# 2 -0.006561 0.007715 -0.001493 0.000000 0.000000 0.000000
# 3 -0.000538 -0.001493 0.008515 0.000000 0.000000 0.000000
# 4 0.000000 0.000000 0.000000 0.023072 0.000000 0.000000
# 5 0.000000 0.000000 0.000000 0.000000 0.045142 0.000000
# 6 0.000000 0.000000 0.000000 0.000000 0.000000 0.032058
#
#
# Mechanical properties :
#
#
# Convention : Reuss Voigt Hill
#
# Bulk Modulus (GPa) = 49.75857 66.54665 58.15261
# Shear Modulus (GPa) = 30.97243 37.19311 34.08277
#
# Velocity S-wave (km/s) = 3.67637 4.02868 3.85655
# Velocity P-wave (km/s) = 6.30354 7.11899 6.72364
#
# Compressibility (1/GPa) = 0.02009704
#
# Stress axis : x y z
#
# Youngs Moduli (GPa) = 47.50337 129.62510 117.44586
#
# Poissons Ratio (x) = 0.85047 0.06313
# Poissons Ratio (y) = 0.31167 0.17536
# Poissons Ratio (z) = 0.02553 0.19355
#
# Static dielectric constant tensor:
#      x y z
#    x 1.958370 0.000000 0.000000 
#    y 0.000000 1.889150 0.000000 
#    z 0.000000 0.000000 1.916570 
# 
# From -- ./inp_files/17708.got.cif
#   From: 2010.05.17/outbox.cif.g08.bks.cpg/sg60_9_cif.got.tgz:17708.got - 2010.06.03 14:59:27.
