data_PCOD9456656
_publ_section_title
;
Structure prediction by ZEFSAII (Michael W. Deem and Ramdas Pophale) SiO2 
 PCOD9456656
Probable space group: P B C N
;
_chemical_formula_sum "Si O2"
_cell_formula_units_Z 40
_cell_length_a 24.508957
_cell_length_b 10.247381
_cell_length_c 5.734506
_cell_angle_alpha 90.000000
_cell_angle_beta 90.000000
_cell_angle_gamma 90.000000
_cell_volume 1440.236208
_symmetry_space_group_name_H-M "P B C N"
_symmetry_group_IT_number 60
_symmetry_cell_setting 'orthorhombic'
loop_
_space_group_symop_operation_xyz
x,y,z
1/2-x,1/2-y,1/2+z
1/2+x,1/2-y,-z
-x,y,1/2-z
-x,-y,-z
1/2+x,1/2+y,1/2-z
1/2-x,1/2+y,z
x,-y,1/2+z
loop_
_atom_site_type_symbol
_atom_site_label
_atom_site_fract_x
_atom_site_fract_y
_atom_site_fract_z
Si Si1 0.284215 0.564466 0.533555
Si Si2 0.500000 0.836374 0.750000
Si Si3 0.823833 0.683651 0.038780
Si Si4 0.613094 0.911977 0.927562
Si Si5 0.613713 0.341983 0.694366
Si Si6 0.500000 0.320534 0.750000
O O1 0.271361 0.513574 0.792775
O O2 0.239606 0.679089 0.509751
O O3 0.348121 0.590788 0.494055
O O4 0.555930 0.920059 0.784341
O O5 0.507208 0.755929 0.504389
O O6 0.854613 0.546218 0.969225
O O7 0.849403 0.809280 0.917408
O O8 0.840701 0.675776 0.303704
O O9 0.598047 0.808584 0.127665
O O10 0.555188 0.404100 0.728945
#
# Coordination Sequence:
#
# PCOD9456656 Si02
#       6
#     8   4   8   8   8   4
#     4  12  29  48  69 100 135 181 241 290 333 398
#     4  10  22  37  66  97 146 176 218 259 344 413
#     4  12  23  41  65 101 141 176 221 271 338 426
#     4  11  22  40  63 102 138 180 216 274 332 426
#     4  11  26  43  73  95 141 183 227 282 353 391
#     4  10  22  43  64 105 128 176 234 283 324 425
#
# _framework density 27.773222000000001
#
# number of rings (size 3 to 8) (size 9 to 14) (size 15 to 20)
#    0.000    0.800    6.000    0.000    5.600    1.600 
#    0.000    1.000    0.000    0.000    0.000    0.000 
#    0.000    0.000    0.000    0.000    0.000    0.000 
#
# Total GULP energy -223141.934824 kJ/mol
# GULP energy per Si atom -5578.548371 kJ/mol
# Density = 2.771001 g / cm^3
# Si number density = 27.773222 Si / 1000 Ang^3
#
#
#
# Elastic Constant Matrix: (Units=GPa)
#
#
# Indices 1 2 3 4 5 6 
#
# 1 234.5941 25.0337 26.1965 0.0000 0.0000 0.0000
# 2 25.0337 73.1462 35.1922 0.0000 0.0000 0.0000
# 3 26.1965 35.1922 121.1848 0.0000 0.0000 0.0000
# 4 0.0000 0.0000 0.0000 51.6293 0.0000 0.0000
# 5 0.0000 0.0000 0.0000 0.0000 36.2509 0.0000
# 6 0.0000 0.0000 0.0000 0.0000 0.0000 32.4692
#
#
#
# Elastic Compliance Matrix: (Units=1/GPa)
#
#
# Indices 1 2 3 4 5 6 
#
# 1 0.004462 -0.001236 -0.000606 0.000000 0.000000 0.000000
# 2 -0.001236 0.016234 -0.004447 0.000000 0.000000 0.000000
# 3 -0.000606 -0.004447 0.009674 0.000000 0.000000 0.000000
# 4 0.000000 0.000000 0.000000 0.019369 0.000000 0.000000
# 5 0.000000 0.000000 0.000000 0.000000 0.027585 0.000000
# 6 0.000000 0.000000 0.000000 0.000000 0.000000 0.030798
#
#
# Mechanical properties :
#
#
# Convention : Reuss Voigt Hill
#
# Bulk Modulus (GPa) = 56.20193 66.86330 61.53262
# Shear Modulus (GPa) = 39.48472 46.90341 43.19406
#
# Velocity S-wave (km/s) = 3.77461 4.11396 3.94793
# Velocity P-wave (km/s) = 6.26713 6.83324 6.55630
#
# Compressibility (1/GPa) = 0.01779298
#
# Stress axis : x y z
#
# Youngs Moduli (GPa) = 224.10540 61.59986 103.36695
#
# Poissons Ratio (x) = 0.07612 0.06261
# Poissons Ratio (y) = 0.27693 0.45969
# Poissons Ratio (z) = 0.13575 0.27395
#
# Static dielectric constant tensor:
#      x y z
#    x 2.194370 0.000000 0.000000 
#    y 0.000000 2.245930 0.000000 
#    z 0.000000 0.000000 2.472310 
# 
# From -- ./inp_files/2519.got.cif
#   From: 2010.05.17/outbox.cif.g08.bks.cpg/sg60_2_cif.got.tgz:2519.got - 2010.06.03 14:59:27.
