data_PCOD9456739
_publ_section_title
;
Structure prediction by ZEFSAII (Michael W. Deem and Ramdas Pophale) SiO2 
 PCOD9456739
Probable space group: P B C N
;
_chemical_formula_sum "Si O2"
_cell_formula_units_Z 32
_cell_length_a 15.042856
_cell_length_b 11.259235
_cell_length_c 8.107155
_cell_angle_alpha 90.000000
_cell_angle_beta 90.000000
_cell_angle_gamma 90.000000
_cell_volume 1373.117361
_symmetry_space_group_name_H-M "P B C N"
_symmetry_group_IT_number 60
_symmetry_cell_setting 'orthorhombic'
loop_
_space_group_symop_operation_xyz
x,y,z
1/2-x,1/2-y,1/2+z
1/2+x,1/2-y,-z
-x,y,1/2-z
-x,-y,-z
1/2+x,1/2+y,1/2-z
1/2-x,1/2+y,z
x,-y,1/2+z
loop_
_atom_site_type_symbol
_atom_site_label
_atom_site_fract_x
_atom_site_fract_y
_atom_site_fract_z
Si Si1 0.530316 0.872906 0.940183
Si Si2 0.286710 0.880917 0.375020
Si Si3 0.245188 0.134539 0.511879
Si Si4 0.465607 0.376113 0.065908
O O1 0.500000 0.869849 0.750000
O O2 0.498806 0.746319 0.015959
O O3 0.632808 0.873859 0.995081
O O4 0.500000 0.000000 0.000000
O O5 0.233909 0.758765 0.419150
O O6 0.303044 0.872276 0.179070
O O7 0.252979 0.015176 0.403282
O O8 0.141184 0.129995 0.563289
O O9 0.500000 0.372814 0.250000
O O10 0.500000 0.500000 0.000000
#
# Coordination Sequence:
#
# PCOD9456739 Si02
#       4
#     8   8   8   8
#     4  10  22  40  61  89 121 158 204 254 308 372
#     4  11  23  40  63  92 126 166 210 263 320 379
#     4  11  23  39  61  91 124 165 213 263 318 379
#     4  10  22  39  59  86 121 159 204 254 306 368
#
# _framework density 23.304635000000001
#
# number of rings (size 3 to 8) (size 9 to 14) (size 15 to 20)
#    0.000    1.500    0.000    4.500    0.000    9.000 
#    0.000    0.000    0.000    0.000    0.000    0.000 
#    0.000    0.000    0.000    0.000    0.000    0.000 
#
# Total GULP energy -178340.596405 kJ/mol
# GULP energy per Si atom -5573.143638 kJ/mol
# Density = 2.325159 g / cm^3
# Si number density = 23.304635 Si / 1000 Ang^3
#
#
#
# Elastic Constant Matrix: (Units=GPa)
#
#
# Indices 1 2 3 4 5 6 
#
# 1 39.9209 11.4435 -20.7882 0.0000 0.0000 0.0000
# 2 11.4435 282.6634 59.7826 0.0000 0.0000 0.0000
# 3 -20.7882 59.7826 64.2557 0.0000 0.0000 0.0000
# 4 0.0000 0.0000 0.0000 1.7699 0.0000 0.0000
# 5 0.0000 0.0000 0.0000 0.0000 21.4186 0.0000
# 6 0.0000 0.0000 0.0000 0.0000 0.0000 31.0524
#
#
#
# Elastic Compliance Matrix: (Units=1/GPa)
#
#
# Indices 1 2 3 4 5 6 
#
# 1 0.034457 -0.004672 0.015495 0.000000 0.000000 0.000000
# 2 -0.004672 0.005038 -0.006199 0.000000 0.000000 0.000000
# 3 0.015495 -0.006199 0.026343 0.000000 0.000000 0.000000
# 4 0.000000 0.000000 0.000000 0.565018 0.000000 0.000000
# 5 0.000000 0.000000 0.000000 0.000000 0.046688 0.000000
# 6 0.000000 0.000000 0.000000 0.000000 0.000000 0.032204
#
#
# Mechanical properties :
#
#
# Convention : Reuss Voigt Hill
#
# Bulk Modulus (GPa) = 13.31810 54.19062 33.75436
# Shear Modulus (GPa) = 6.89152 33.27496 20.08324
#
# Velocity S-wave (km/s) = 1.72150 3.78276 2.93878
# Velocity P-wave (km/s) = 3.11105 6.51020 5.10202
#
# Compressibility (1/GPa) = 0.07508578
#
# Stress axis : x y z
#
# Youngs Moduli (GPa) = 29.02134 198.49382 37.96092
#
# Poissons Ratio (x) = 0.92737 -0.58819
# Poissons Ratio (y) = 0.13559 0.23531
# Poissons Ratio (z) = -0.44967 1.23041
#
# Static dielectric constant tensor:
#      x y z
#    x 1.980010 0.000000 0.000000 
#    y 0.000000 1.983770 0.000000 
#    z 0.000000 0.000000 1.880160 
# 
# From -- ./inp_files/5453.got.cif
#   From: 2010.05.17/outbox.cif.g08.bks.cpg/sg60_3_cif.got.tgz:5453.got - 2010.06.03 14:59:27.
