data_PCOD9456684
_publ_section_title
;
Structure prediction by ZEFSAII (Michael W. Deem and Ramdas Pophale) SiO2 
 PCOD9456684
Probable space group: P B C N
;
_chemical_formula_sum "Si O2"
_cell_formula_units_Z 56
_cell_length_a 6.568970
_cell_length_b 28.698471
_cell_length_c 13.298851
_cell_angle_alpha 90.000000
_cell_angle_beta 90.000000
_cell_angle_gamma 90.000000
_cell_volume 2507.091345
_symmetry_space_group_name_H-M "P B C N"
_symmetry_group_IT_number 60
_symmetry_cell_setting 'orthorhombic'
loop_
_space_group_symop_operation_xyz
x,y,z
1/2-x,1/2-y,1/2+z
1/2+x,1/2-y,-z
-x,y,1/2-z
-x,-y,-z
1/2+x,1/2+y,1/2-z
1/2-x,1/2+y,z
x,-y,1/2+z
loop_
_atom_site_type_symbol
_atom_site_label
_atom_site_fract_x
_atom_site_fract_y
_atom_site_fract_z
Si Si1 0.500000 0.711919 0.750000
Si Si2 0.000000 0.637220 0.250000
Si Si3 0.006678 0.625553 0.639858
Si Si4 0.099446 0.916526 0.029970
Si Si5 0.682863 0.454837 0.179240
Si Si6 0.660326 0.673747 0.536851
Si Si7 0.311062 0.711692 0.173085
Si Si8 0.798012 0.058430 0.185507
O O1 0.571365 0.685864 0.647990
O O2 0.311739 0.743378 0.711503
O O3 0.146711 0.670079 0.185273
O O4 0.146844 0.601129 0.303662
O O5 0.861460 0.581264 0.661627
O O6 0.893234 0.658700 0.560054
O O7 0.000000 0.649620 0.750000
O O8 0.217863 0.604992 0.598014
O O9 0.947742 0.953800 0.078578
O O10 0.962153 0.871881 0.001103
O O11 0.179019 0.941988 0.932938
O O12 0.500000 0.436389 0.250000
O O13 0.755639 0.505265 0.215613
O O14 0.635855 0.710904 0.446249
O O15 0.500000 0.704401 0.250000
O O16 0.000000 0.068936 0.250000
#
# Coordination Sequence:
#
# PCOD9456684 Si02
#       8
#     4   4   8   8   8   8   8   8
#     4  11  28  46  72 108 132 172 224 272 340 429
#     4  11  22  42  66  98 130 180 230 266 330 403
#     4  11  22  39  68  96 136 180 221 282 339 392
#     4  11  22  40  66  93 132 177 221 275 331 391
#     4  10  22  38  60  94 136 176 230 280 324 388
#     4  11  25  45  68 103 133 170 226 272 334 414
#     4  11  26  48  72  98 139 174 219 281 343 403
#     4  11  24  39  63  94 136 184 230 276 327 382
#
# _framework density 22.336639000000002
#
# number of rings (size 3 to 8) (size 9 to 14) (size 15 to 20)
#    0.000    1.143    1.429    4.286    5.000    4.571 
#    0.000    0.000    0.000    0.000    0.000    0.000 
#    0.000    0.000    0.000    0.000    0.000    0.000 
#
# Total GULP energy -312352.941163 kJ/mol
# GULP energy per Si atom -5577.731092 kJ/mol
# Density = 2.228580 g / cm^3
# Si number density = 22.336639 Si / 1000 Ang^3
#
#
#
# Elastic Constant Matrix: (Units=GPa)
#
#
# Indices 1 2 3 4 5 6 
#
# 1 74.6385 21.0330 12.2266 0.0000 0.0000 0.0000
# 2 21.0330 58.0790 3.9783 0.0000 0.0000 0.0000
# 3 12.2266 3.9783 84.7317 0.0000 0.0000 0.0000
# 4 0.0000 0.0000 0.0000 25.6240 0.0000 0.0000
# 5 0.0000 0.0000 0.0000 0.0000 20.9854 0.0000
# 6 0.0000 0.0000 0.0000 0.0000 0.0000 63.6415
#
#
#
# Elastic Compliance Matrix: (Units=1/GPa)
#
#
# Indices 1 2 3 4 5 6 
#
# 1 0.015234 -0.005384 -0.001945 0.000000 0.000000 0.000000
# 2 -0.005384 0.019176 -0.000124 0.000000 0.000000 0.000000
# 3 -0.001945 -0.000124 0.012088 0.000000 0.000000 0.000000
# 4 0.000000 0.000000 0.000000 0.039026 0.000000 0.000000
# 5 0.000000 0.000000 0.000000 0.000000 0.047652 0.000000
# 6 0.000000 0.000000 0.000000 0.000000 0.000000 0.015713
#
#
# Mechanical properties :
#
#
# Convention : Reuss Voigt Hill
#
# Bulk Modulus (GPa) = 31.65238 32.43613 32.04425
# Shear Modulus (GPa) = 28.68202 34.06427 31.37315
#
# Velocity S-wave (km/s) = 3.58729 3.90941 3.75181
# Velocity P-wave (km/s) = 5.59996 5.91025 5.75720
#
# Compressibility (1/GPa) = 0.03159320
#
# Stress axis : x y z
#
# Youngs Moduli (GPa) = 65.64411 52.14854 82.72343
#
# Poissons Ratio (x) = 0.28074 0.16093
# Poissons Ratio (y) = 0.35340 0.01022
# Poissons Ratio (z) = 0.12771 0.00644
#
# Static dielectric constant tensor:
#      x y z
#    x 2.180030 0.000000 0.000000 
#    y 0.000000 1.830620 0.000000 
#    z 0.000000 0.000000 2.028760 
# 
# From -- ./inp_files/14113.got.cif
#   From: 2010.05.17/outbox.cif.g08.bks.cpg/sg60_8_cif.got.tgz:14113.got - 2010.06.03 14:59:27.
