data_PCOD9456141
_publ_section_title
;
Structure prediction by ZEFSAII (Michael W. Deem and Ramdas Pophale) SiO2 
 PCOD9456141
Probable space group: P B C N
;
_chemical_formula_sum "Si O2"
_cell_formula_units_Z 64
_cell_length_a 8.297292
_cell_length_b 14.061580
_cell_length_c 23.272159
_cell_angle_alpha 90.000000
_cell_angle_beta 90.000000
_cell_angle_gamma 90.000000
_cell_volume 2715.233427
_symmetry_space_group_name_H-M "P B C N"
_symmetry_group_IT_number 60
_symmetry_cell_setting 'orthorhombic'
loop_
_space_group_symop_operation_xyz
x,y,z
1/2-x,1/2-y,1/2+z
1/2+x,1/2-y,-z
-x,y,1/2-z
-x,-y,-z
1/2+x,1/2+y,1/2-z
1/2-x,1/2+y,z
x,-y,1/2+z
loop_
_atom_site_type_symbol
_atom_site_label
_atom_site_fract_x
_atom_site_fract_y
_atom_site_fract_z
Si Si1 0.292687 0.159486 0.074899
Si Si2 0.758721 0.482936 0.644582
Si Si3 0.584047 0.675924 0.085965
Si Si4 0.109721 0.289280 0.693089
Si Si5 0.810513 0.939322 0.763063
Si Si6 0.593895 0.891151 0.046045
Si Si7 0.784522 0.874439 0.468923
Si Si8 0.088885 0.076154 0.646807
O O1 0.406908 0.152527 0.131754
O O2 0.320867 0.266032 0.050612
O O3 0.106220 0.162056 0.094909
O O4 0.317982 0.099455 0.016073
O O5 0.694162 0.375951 0.632450
O O6 0.804518 0.475105 0.711518
O O7 0.864785 0.529918 0.594208
O O8 0.597606 0.547809 0.647162
O O9 0.625954 0.786615 0.074641
O O10 0.630211 0.616583 0.029202
O O11 0.273637 0.332716 0.718211
O O12 0.108923 0.181083 0.672582
O O13 0.000000 0.297559 0.750000
O O14 0.000000 0.947677 0.750000
O O15 0.795310 0.009379 0.816470
O O16 0.406142 0.887885 0.029510
O O17 0.857467 0.935016 0.418354
#
# Coordination Sequence:
#
# PCOD9456141 Si02
#       8
#     8   8   8   8   8   8   8   8
#     4   9  19  38  61  87 121 162 202 244 306 381
#     4  11  23  38  63  91 121 165 210 250 307 383
#     4  10  21  39  62  89 125 166 204 250 313 381
#     4  11  23  40  65  91 121 160 202 257 310 355
#     4  10  23  42  61  87 120 162 213 250 298 377
#     4  10  22  39  61  94 127 155 204 266 313 362
#     4   9  20  37  60  90 121 157 203 256 311 363
#     4  10  22  43  63  86 124 165 206 249 304 375
#
# _framework density 23.570716999999998
#
# number of rings (size 3 to 8) (size 9 to 14) (size 15 to 20)
#    0.000    2.000    0.000    3.375    0.000   10.500 
#    0.000    0.625    0.000    0.000    0.000    0.000 
#    0.000    0.000    0.000    0.000    0.000    0.000 
#
# Total GULP energy -357216.269991 kJ/mol
# GULP energy per Si atom -5581.504219 kJ/mol
# Density = 2.351707 g / cm^3
# Si number density = 23.570717 Si / 1000 Ang^3
#
#
#
# Elastic Constant Matrix: (Units=GPa)
#
#
# Indices 1 2 3 4 5 6 
#
# 1 13.4418 11.5019 18.8751 0.0000 0.0000 0.0000
# 2 11.5019 95.9556 18.7793 0.0000 0.0000 0.0000
# 3 18.8751 18.7793 87.6171 0.0000 0.0000 0.0000
# 4 0.0000 0.0000 0.0000 29.5706 0.0000 0.0000
# 5 0.0000 0.0000 0.0000 0.0000 32.6079 0.0000
# 6 0.0000 0.0000 0.0000 0.0000 0.0000 23.4744
#
#
#
# Elastic Compliance Matrix: (Units=1/GPa)
#
#
# Indices 1 2 3 4 5 6 
#
# 1 0.114014 -0.009247 -0.022580 0.000000 0.000000 0.000000
# 2 -0.009247 0.011628 -0.000500 0.000000 0.000000 0.000000
# 3 -0.022580 -0.000500 0.016385 0.000000 0.000000 0.000000
# 4 0.000000 0.000000 0.000000 0.033817 0.000000 0.000000
# 5 0.000000 0.000000 0.000000 0.000000 0.030667 0.000000
# 6 0.000000 0.000000 0.000000 0.000000 0.000000 0.042600
#
#
# Mechanical properties :
#
#
# Convention : Reuss Voigt Hill
#
# Bulk Modulus (GPa) = 12.92454 32.81414 22.86934
# Shear Modulus (GPa) = 14.72509 26.98778 20.85644
#
# Velocity S-wave (km/s) = 2.50215 3.38741 2.97786
# Velocity P-wave (km/s) = 3.72060 5.40844 4.64188
#
# Compressibility (1/GPa) = 0.07737218
#
# Stress axis : x y z
#
# Youngs Moduli (GPa) = 8.77084 86.00062 61.03227
#
# Poissons Ratio (x) = 0.79529 1.37809
# Poissons Ratio (y) = 0.08111 0.03052
# Poissons Ratio (z) = 0.19804 0.04301
#
# Static dielectric constant tensor:
#      x y z
#    x 1.882920 0.000000 0.000000 
#    y 0.000000 1.920260 0.000000 
#    z 0.000000 0.000000 1.947550 
# 
# From -- ./inp_files/24074.got.cif
#   From: 2010.05.17/outbox.cif.g08.bks.cpg/sg60_13_cif.got.tgz:24074.got - 2010.06.03 14:59:27.
