data_PCOD9456408
_publ_section_title
;
Structure prediction by ZEFSAII (Michael W. Deem and Ramdas Pophale) SiO2 
 PCOD9456408
Probable space group: P B C N
;
_chemical_formula_sum "Si O2"
_cell_formula_units_Z 40
_cell_length_a 9.868676
_cell_length_b 16.595739
_cell_length_c 9.239817
_cell_angle_alpha 90.000000
_cell_angle_beta 90.000000
_cell_angle_gamma 90.000000
_cell_volume 1513.278482
_symmetry_space_group_name_H-M "P B C N"
_symmetry_group_IT_number 60
_symmetry_cell_setting 'orthorhombic'
loop_
_space_group_symop_operation_xyz
x,y,z
1/2-x,1/2-y,1/2+z
1/2+x,1/2-y,-z
-x,y,1/2-z
-x,-y,-z
1/2+x,1/2+y,1/2-z
1/2-x,1/2+y,z
x,-y,1/2+z
loop_
_atom_site_type_symbol
_atom_site_label
_atom_site_fract_x
_atom_site_fract_y
_atom_site_fract_z
Si Si1 0.144334 0.034325 0.176541
Si Si2 0.319162 0.961032 0.388021
Si Si3 0.882134 0.227723 0.846306
Si Si4 0.026318 0.372054 0.954293
Si Si5 0.792785 0.804089 0.646208
O O1 0.197999 0.042250 0.010350
O O2 0.169262 0.119061 0.258296
O O3 0.000000 0.011199 0.250000
O O4 0.247677 0.966558 0.235001
O O5 0.432620 0.894250 0.411270
O O6 0.406433 0.044047 0.403337
O O7 0.744494 0.230913 0.753049
O O8 0.000000 0.189314 0.750000
O O9 0.894906 0.201714 0.012292
O O10 0.916072 0.324111 0.858190
O O11 0.155074 0.314518 0.948794
#
# Coordination Sequence:
#
# PCOD9456408 Si02
#       5
#     8   8   8   8   8
#     4  11  23  41  64  95 135 179 216 280 341 399
#     4  10  21  41  69  95 128 171 225 278 339 392
#     4  10  21  43  66  96 140 175 221 272 334 406
#     4   9  20  40  69  94 126 170 220 275 329 391
#     4  10  22  41  67  97 133 178 219 276 335 397
#
# _framework density 26.432677000000002
#
# number of rings (size 3 to 8) (size 9 to 14) (size 15 to 20)
#    0.000    2.000    2.000    0.600    2.800    5.600 
#   10.800    4.000    0.000    0.000    0.000    0.000 
#    0.000    0.000    0.000    0.000    0.000    0.000 
#
# Total GULP energy -222762.130325 kJ/mol
# GULP energy per Si atom -5569.053258 kJ/mol
# Density = 2.637251 g / cm^3
# Si number density = 26.432677 Si / 1000 Ang^3
#
#
#
# Elastic Constant Matrix: (Units=GPa)
#
#
# Indices 1 2 3 4 5 6 
#
# 1 70.5636 2.9771 -6.4417 0.0000 0.0000 0.0000
# 2 2.9771 42.5850 16.5547 0.0000 0.0000 0.0000
# 3 -6.4417 16.5547 124.6319 0.0000 0.0000 0.0000
# 4 0.0000 0.0000 0.0000 25.8174 0.0000 0.0000
# 5 0.0000 0.0000 0.0000 0.0000 52.1799 0.0000
# 6 0.0000 0.0000 0.0000 0.0000 0.0000 20.2739
#
#
#
# Elastic Compliance Matrix: (Units=1/GPa)
#
#
# Indices 1 2 3 4 5 6 
#
# 1 0.014313 -0.001358 0.000920 0.000000 0.000000 0.000000
# 2 -0.001358 0.024890 -0.003376 0.000000 0.000000 0.000000
# 3 0.000920 -0.003376 0.008520 0.000000 0.000000 0.000000
# 4 0.000000 0.000000 0.000000 0.038734 0.000000 0.000000
# 5 0.000000 0.000000 0.000000 0.000000 0.019164 0.000000
# 6 0.000000 0.000000 0.000000 0.000000 0.000000 0.049325
#
#
# Mechanical properties :
#
#
# Convention : Reuss Voigt Hill
#
# Bulk Modulus (GPa) = 24.94162 29.32898 27.13530
# Shear Modulus (GPa) = 28.41901 34.63360 31.52630
#
# Velocity S-wave (km/s) = 3.28250 3.62367 3.45730
# Velocity P-wave (km/s) = 4.88086 5.35050 5.12107
#
# Compressibility (1/GPa) = 0.04009362
#
# Stress axis : x y z
#
# Youngs Moduli (GPa) = 69.86696 40.17689 117.37559
#
# Poissons Ratio (x) = 0.05457 -0.10801
# Poissons Ratio (y) = 0.09490 0.39630
# Poissons Ratio (z) = -0.06429 0.13565
#
# Static dielectric constant tensor:
#      x y z
#    x 2.229790 0.000000 0.000000 
#    y 0.000000 2.106950 0.000000 
#    z 0.000000 0.000000 2.243700 
# 
# From -- ./inp_files/4910.got.cif
#   From: 2010.05.17/outbox.cif.g08.bks.cpg/sg60_3_cif.got.tgz:4910.got - 2010.06.03 14:59:27.
