data_PCOD9456605
_publ_section_title
;
Structure prediction by ZEFSAII (Michael W. Deem and Ramdas Pophale) SiO2 
 PCOD9456605
Probable space group: P B C N
;
_chemical_formula_sum "Si O2"
_cell_formula_units_Z 48
_cell_length_a 16.454816
_cell_length_b 25.489792
_cell_length_c 5.485967
_cell_angle_alpha 90.000000
_cell_angle_beta 90.000000
_cell_angle_gamma 90.000000
_cell_volume 2300.978246
_symmetry_space_group_name_H-M "P B C N"
_symmetry_group_IT_number 60
_symmetry_cell_setting 'orthorhombic'
loop_
_space_group_symop_operation_xyz
x,y,z
1/2-x,1/2-y,1/2+z
1/2+x,1/2-y,-z
-x,y,1/2-z
-x,-y,-z
1/2+x,1/2+y,1/2-z
1/2-x,1/2+y,z
x,-y,1/2+z
loop_
_atom_site_type_symbol
_atom_site_label
_atom_site_fract_x
_atom_site_fract_y
_atom_site_fract_z
Si Si1 0.726370 0.721366 0.339200
Si Si2 0.547744 0.262144 0.011045
Si Si3 0.255775 0.480583 0.303327
Si Si4 0.078866 0.650601 0.584468
Si Si5 0.591509 0.049858 0.230542
Si Si6 0.193397 0.374475 0.457682
O O1 0.733234 0.744522 0.063657
O O2 0.634606 0.713795 0.439169
O O3 0.768454 0.663760 0.344899
O O4 0.500000 0.262765 0.750000
O O5 0.568115 0.201240 0.083349
O O6 0.500000 0.283532 0.250000
O O7 0.293604 0.506083 0.544016
O O8 0.164762 0.508448 0.293103
O O9 0.251421 0.418906 0.349926
O O10 0.088888 0.592231 0.484425
O O11 0.157336 0.661117 0.746926
O O12 0.000000 0.650655 0.750000
O O13 0.500000 0.027888 0.250000
O O14 0.619034 0.089970 0.442118
#
# Coordination Sequence:
#
# PCOD9456605 Si02
#       6
#     8   8   8   8   8   8
#     4  12  25  41  63  88 118 154 200 253 306 353
#     4  11  24  41  61  85 117 155 201 250 299 356
#     4  10  22  36  51  73 110 150 191 234 273 330
#     4  11  20  33  53  78 112 156 196 240 278 338
#     4  11  21  33  53  76 117 158 199 232 277 336
#     4  11  23  37  53  80 112 153 198 240 285 339
#
# _framework density 20.860690999999999
#
# number of rings (size 3 to 8) (size 9 to 14) (size 15 to 20)
#    0.000    1.000    5.000    2.500    4.667    3.333 
#    0.000    0.000    0.000    0.000    0.000    0.000 
#    0.000   16.000    0.000    0.000    0.000    0.000 
#
# Total GULP energy -267507.288631 kJ/mol
# GULP energy per Si atom -5573.068513 kJ/mol
# Density = 2.081321 g / cm^3
# Si number density = 20.860691 Si / 1000 Ang^3
#
#
#
# Elastic Constant Matrix: (Units=GPa)
#
#
# Indices 1 2 3 4 5 6 
#
# 1 40.3499 -0.4077 8.7211 0.0000 0.0000 0.0000
# 2 -0.4077 49.1071 4.2074 0.0000 0.0000 0.0000
# 3 8.7211 4.2074 106.4374 0.0000 0.0000 0.0000
# 4 0.0000 0.0000 0.0000 21.1175 0.0000 0.0000
# 5 0.0000 0.0000 0.0000 0.0000 23.5929 0.0000
# 6 0.0000 0.0000 0.0000 0.0000 0.0000 12.6541
#
#
#
# Elastic Compliance Matrix: (Units=1/GPa)
#
#
# Indices 1 2 3 4 5 6 
#
# 1 0.025237 0.000388 -0.002083 0.000000 0.000000 0.000000
# 2 0.000388 0.020439 -0.000840 0.000000 0.000000 0.000000
# 3 -0.002083 -0.000840 0.009599 0.000000 0.000000 0.000000
# 4 0.000000 0.000000 0.000000 0.047354 0.000000 0.000000
# 5 0.000000 0.000000 0.000000 0.000000 0.042386 0.000000
# 6 0.000000 0.000000 0.000000 0.000000 0.000000 0.079026
#
#
# Mechanical properties :
#
#
# Convention : Reuss Voigt Hill
#
# Bulk Modulus (GPa) = 19.91814 24.54844 22.23329
# Shear Modulus (GPa) = 20.33796 23.69781 22.01788
#
# Velocity S-wave (km/s) = 3.12579 3.37412 3.25233
# Velocity P-wave (km/s) = 4.75356 5.19355 4.97842
#
# Compressibility (1/GPa) = 0.05020549
#
# Stress axis : x y z
#
# Youngs Moduli (GPa) = 39.62376 48.92652 104.17672
#
# Poissons Ratio (x) = -0.01898 0.21702
# Poissons Ratio (y) = -0.01538 0.08748
# Poissons Ratio (z) = 0.08254 0.04109
#
# Static dielectric constant tensor:
#      x y z
#    x 1.779780 0.000000 0.000000 
#    y 0.000000 1.751310 0.000000 
#    z 0.000000 0.000000 1.915500 
# 
# From -- ./inp_files/1791.got.cif
#   From: 2010.05.17/outbox.cif.g08.bks.cpg/sg60_1_cif.got.tgz:1791.got - 2010.06.03 14:59:27.
