data_PCOD9456848
_publ_section_title
;
Structure prediction by ZEFSAII (Michael W. Deem and Ramdas Pophale) SiO2 
 PCOD9456848
Probable space group: P B C N
;
_chemical_formula_sum "Si O2"
_cell_formula_units_Z 64
_cell_length_a 31.041992
_cell_length_b 5.031835
_cell_length_c 18.547758
_cell_angle_alpha 90.000000
_cell_angle_beta 90.000000
_cell_angle_gamma 90.000000
_cell_volume 2897.126076
_symmetry_space_group_name_H-M "P B C N"
_symmetry_group_IT_number 60
_symmetry_cell_setting 'orthorhombic'
loop_
_space_group_symop_operation_xyz
x,y,z
1/2-x,1/2-y,1/2+z
1/2+x,1/2-y,-z
-x,y,1/2-z
-x,-y,-z
1/2+x,1/2+y,1/2-z
1/2-x,1/2+y,z
x,-y,1/2+z
loop_
_atom_site_type_symbol
_atom_site_label
_atom_site_fract_x
_atom_site_fract_y
_atom_site_fract_z
Si Si1 0.475934 0.192680 0.319451
Si Si2 0.533996 0.600840 0.941438
Si Si3 0.140857 0.251722 0.332916
Si Si4 0.419816 0.937130 0.444832
Si Si5 0.158717 0.470928 0.026441
Si Si6 0.374876 0.501938 0.598194
Si Si7 0.386865 0.728053 0.756341
Si Si8 0.277284 0.023996 0.404535
O O1 0.500000 0.062841 0.250000
O O2 0.510691 0.356587 0.365420
O O3 0.453888 0.032672 0.385429
O O4 0.435142 0.339992 0.283781
O O5 0.576522 0.430711 0.926167
O O6 0.500000 0.500000 0.000000
O O7 0.554792 0.851914 0.983719
O O8 0.107362 0.220432 0.399400
O O9 0.120281 0.463362 0.276134
O O10 0.184070 0.395049 0.358746
O O11 0.145438 0.962906 0.299570
O O12 0.379169 0.116712 0.469610
O O13 0.146018 0.767658 0.049311
O O14 0.153908 0.260749 0.090851
O O15 0.203728 0.477241 0.985738
O O16 0.380593 0.644384 0.674620
O O17 0.237546 0.824545 0.392356
#
# Coordination Sequence:
#
# PCOD9456848 Si02
#       8
#     8   8   8   8   8   8   8   8
#     4  11  21  37  55  89 126 164 222 283 326 361
#     4  11  21  36  56  86 122 167 220 278 324 367
#     4  10  22  40  65  91 125 164 207 252 316 388
#     4   9  21  38  59  85 120 171 210 265 323 388
#     4  10  22  40  65  91 122 161 209 249 311 383
#     4  11  22  39  61  87 122 172 214 250 308 380
#     4  11  22  41  60  88 127 175 217 256 309 382
#     4  11  22  40  70 103 125 149 195 263 320 370
#
# _framework density 22.090858999999998
#
# number of rings (size 3 to 8) (size 9 to 14) (size 15 to 20)
#    0.000    1.500    1.250    4.125    0.000    8.000 
#    4.500    0.625    0.000   15.000    0.000    0.000 
#    0.000    0.000    0.000    0.000    0.000    0.000 
#
# Total GULP energy -356811.727686 kJ/mol
# GULP energy per Si atom -5575.183245 kJ/mol
# Density = 2.204058 g / cm^3
# Si number density = 22.090859 Si / 1000 Ang^3
#
#
#
# Elastic Constant Matrix: (Units=GPa)
#
#
# Indices 1 2 3 4 5 6 
#
# 1 60.9407 4.2874 9.6811 0.0000 0.0000 0.0000
# 2 4.2874 67.2833 -1.5192 0.0000 0.0000 0.0000
# 3 9.6811 -1.5192 71.1795 0.0000 0.0000 0.0000
# 4 0.0000 0.0000 0.0000 29.3649 0.0000 0.0000
# 5 0.0000 0.0000 0.0000 0.0000 27.0536 0.0000
# 6 0.0000 0.0000 0.0000 0.0000 0.0000 26.8628
#
#
#
# Elastic Compliance Matrix: (Units=1/GPa)
#
#
# Indices 1 2 3 4 5 6 
#
# 1 0.016857 -0.001126 -0.002317 0.000000 0.000000 0.000000
# 2 -0.001126 0.014945 0.000472 0.000000 0.000000 0.000000
# 3 -0.002317 0.000472 0.014374 0.000000 0.000000 0.000000
# 4 0.000000 0.000000 0.000000 0.034054 0.000000 0.000000
# 5 0.000000 0.000000 0.000000 0.000000 0.036964 0.000000
# 6 0.000000 0.000000 0.000000 0.000000 0.000000 0.037226
#
#
# Mechanical properties :
#
#
# Convention : Reuss Voigt Hill
#
# Bulk Modulus (GPa) = 24.85469 24.92245 24.88857
# Shear Modulus (GPa) = 28.77316 29.11989 28.94653
#
# Velocity S-wave (km/s) = 3.61292 3.63462 3.62379
# Velocity P-wave (km/s) = 5.35535 5.37776 5.36657
#
# Compressibility (1/GPa) = 0.04023386
#
# Stress axis : x y z
#
# Youngs Moduli (GPa) = 59.32371 66.91213 69.56928
#
# Poissons Ratio (x) = 0.07537 0.16117
# Poissons Ratio (y) = 0.06683 -0.03285
# Poissons Ratio (z) = 0.13744 -0.03160
#
# Static dielectric constant tensor:
#      x y z
#    x 1.827640 0.000000 0.000000 
#    y 0.000000 1.863690 0.000000 
#    z 0.000000 0.000000 1.868220 
# 
# From -- ./inp_files/21300.got.cif
#   From: 2010.05.17/outbox.cif.g08.bks.cpg/sg60_11_cif.got.tgz:21300.got - 2010.06.03 14:59:27.
