data_PCOD9456257
_publ_section_title
;
Structure prediction by ZEFSAII (Michael W. Deem and Ramdas Pophale) SiO2 
 PCOD9456257
Probable space group: P B C N
;
_chemical_formula_sum "Si O2"
_cell_formula_units_Z 56
_cell_length_a 32.602818
_cell_length_b 5.308947
_cell_length_c 13.182392
_cell_angle_alpha 90.000000
_cell_angle_beta 90.000000
_cell_angle_gamma 90.000000
_cell_volume 2281.695844
_symmetry_space_group_name_H-M "P B C N"
_symmetry_group_IT_number 60
_symmetry_cell_setting 'orthorhombic'
loop_
_space_group_symop_operation_xyz
x,y,z
1/2-x,1/2-y,1/2+z
1/2+x,1/2-y,-z
-x,y,1/2-z
-x,-y,-z
1/2+x,1/2+y,1/2-z
1/2-x,1/2+y,z
x,-y,1/2+z
loop_
_atom_site_type_symbol
_atom_site_label
_atom_site_fract_x
_atom_site_fract_y
_atom_site_fract_z
Si Si1 0.091825 0.770647 0.836980
Si Si2 0.660987 0.413558 0.261125
Si Si3 0.043430 0.157716 0.777702
Si Si4 0.724364 0.188917 0.106644
Si Si5 0.277469 0.750404 0.126180
Si Si6 0.396651 0.928818 0.652812
Si Si7 0.049585 0.548029 0.485390
O O1 0.107941 0.554427 0.763852
O O2 0.078561 0.687109 0.947798
O O3 0.124411 0.989158 0.812767
O O4 0.048250 0.861300 0.792028
O O5 0.691202 0.258669 0.189740
O O6 0.684393 0.655672 0.307367
O O7 0.644710 0.236553 0.353921
O O8 0.069193 0.222386 0.678406
O O9 0.052925 0.267083 0.889290
O O10 0.000000 0.258564 0.750000
O O11 0.759898 0.402752 0.117901
O O12 0.709369 0.235586 0.991760
O O13 0.245023 0.518616 0.142420
O O14 0.420722 0.120910 0.579551
O O15 0.000000 0.500000 0.500000
#
# Coordination Sequence:
#
# PCOD9456257 Si02
#       7
#     8   8   8   8   8   8   8
#     4  10  26  41  61  96 130 174 226 286 359 420
#     4  11  24  42  67  95 140 178 224 299 350 426
#     4  10  21  40  63  92 126 167 227 280 350 427
#     4  10  23  43  71 103 140 187 240 286 355 433
#     4  10  23  43  70 106 136 187 242 282 353 439
#     4  10  24  43  60  96 127 175 225 281 358 416
#     4  11  23  42  68  91 130 173 230 292 351 425
#
# _framework density 24.543147999999999
#
# number of rings (size 3 to 8) (size 9 to 14) (size 15 to 20)
#    0.000    1.714    1.429    0.857    8.000    2.857 
#    5.143    0.000    0.000    0.000    0.000    0.000 
#    0.000    0.000    0.000    0.000    0.000    0.000 
#
# Total GULP energy -311776.488830 kJ/mol
# GULP energy per Si atom -5567.437301 kJ/mol
# Density = 2.448729 g / cm^3
# Si number density = 24.543148 Si / 1000 Ang^3
#
#
#
# Elastic Constant Matrix: (Units=GPa)
#
#
# Indices 1 2 3 4 5 6 
#
# 1 99.1672 15.5818 47.5307 0.0000 0.0000 0.0000
# 2 15.5818 75.2018 1.8024 0.0000 0.0000 0.0000
# 3 47.5307 1.8024 85.0976 0.0000 0.0000 0.0000
# 4 0.0000 0.0000 0.0000 28.6629 0.0000 0.0000
# 5 0.0000 0.0000 0.0000 0.0000 37.6539 0.0000
# 6 0.0000 0.0000 0.0000 0.0000 0.0000 26.2264
#
#
#
# Elastic Compliance Matrix: (Units=1/GPa)
#
#
# Indices 1 2 3 4 5 6 
#
# 1 0.014328 -0.002778 -0.007944 0.000000 0.000000 0.000000
# 2 -0.002778 0.013843 0.001259 0.000000 0.000000 0.000000
# 3 -0.007944 0.001259 0.016162 0.000000 0.000000 0.000000
# 4 0.000000 0.000000 0.000000 0.034888 0.000000 0.000000
# 5 0.000000 0.000000 0.000000 0.000000 0.026558 0.000000
# 6 0.000000 0.000000 0.000000 0.000000 0.000000 0.038130
#
#
# Mechanical properties :
#
#
# Convention : Reuss Voigt Hill
#
# Bulk Modulus (GPa) = 39.36189 43.25518 41.30854
# Shear Modulus (GPa) = 29.18781 31.47873 30.33327
#
# Velocity S-wave (km/s) = 3.45228 3.58521 3.51937
# Velocity P-wave (km/s) = 5.65364 5.89921 5.77773
#
# Compressibility (1/GPa) = 0.02540528
#
# Stress axis : x y z
#
# Youngs Moduli (GPa) = 69.79291 72.23831 61.87489
#
# Poissons Ratio (x) = 0.20071 0.49154
# Poissons Ratio (y) = 0.19391 -0.07788
# Poissons Ratio (z) = 0.55444 -0.09092
#
# Static dielectric constant tensor:
#      x y z
#    x 2.110450 0.000000 0.000000 
#    y 0.000000 2.064500 0.000000 
#    z 0.000000 0.000000 2.197280 
# 
# From -- ./inp_files/18146.got.cif
#   From: 2010.05.17/outbox.cif.g08.bks.cpg/sg60_10_cif.got.tgz:18146.got - 2010.06.03 14:59:27.
