data_PCOD9456369
_publ_section_title
;
Structure prediction by ZEFSAII (Michael W. Deem and Ramdas Pophale) SiO2 
 PCOD9456369
Probable space group: P B C N
;
_chemical_formula_sum "Si O2"
_cell_formula_units_Z 48
_cell_length_a 8.454488
_cell_length_b 19.501282
_cell_length_c 14.193423
_cell_angle_alpha 90.000000
_cell_angle_beta 90.000000
_cell_angle_gamma 90.000000
_cell_volume 2340.117264
_symmetry_space_group_name_H-M "P B C N"
_symmetry_group_IT_number 60
_symmetry_cell_setting 'orthorhombic'
loop_
_space_group_symop_operation_xyz
x,y,z
1/2-x,1/2-y,1/2+z
1/2+x,1/2-y,-z
-x,y,1/2-z
-x,-y,-z
1/2+x,1/2+y,1/2-z
1/2-x,1/2+y,z
x,-y,1/2+z
loop_
_atom_site_type_symbol
_atom_site_label
_atom_site_fract_x
_atom_site_fract_y
_atom_site_fract_z
Si Si1 0.345966 0.299997 0.462582
Si Si2 0.322356 0.826001 0.273777
Si Si3 0.341737 0.454097 0.496578
Si Si4 0.143894 0.731554 0.133242
Si Si5 0.853422 0.429170 0.821122
Si Si6 0.677436 0.466330 0.219629
O O1 0.212965 0.316258 0.384193
O O2 0.398686 0.374901 0.498711
O O3 0.482710 0.258664 0.411455
O O4 0.273590 0.261467 0.550971
O O5 0.500000 0.806843 0.250000
O O6 0.200318 0.777694 0.219131
O O7 0.287276 0.904488 0.243222
O O8 0.500000 0.500000 0.500000
O O9 0.201520 0.459987 0.575286
O O10 0.285386 0.468234 0.390723
O O11 0.133865 0.651912 0.162404
O O12 0.707924 0.459104 0.761654
O O13 0.000000 0.448865 0.750000
O O14 0.500000 0.445951 0.250000
#
# Coordination Sequence:
#
# PCOD9456369 Si02
#       6
#     8   8   8   8   8   8
#     4  10  22  41  65  92 129 174 218 271 330 405
#     4  11  22  39  64  92 127 172 222 269 332 404
#     4  10  21  41  65  94 125 173 229 269 335 412
#     4  11  23  43  65  94 135 172 224 276 341 403
#     4  11  24  41  62  99 138 168 222 289 343 398
#     4  11  22  41  67  91 129 178 225 274 338 412
#
# _framework density 20.511793000000001
#
# number of rings (size 3 to 8) (size 9 to 14) (size 15 to 20)
#    0.000    1.333    1.667    5.000    0.000    1.333 
#    6.000    1.667    0.000    0.000    0.000    0.000 
#    0.000    0.000    0.000    0.000    0.000    0.000 
#
# Total GULP energy -267431.166168 kJ/mol
# GULP energy per Si atom -5571.482628 kJ/mol
# Density = 2.046511 g / cm^3
# Si number density = 20.511793 Si / 1000 Ang^3
#
#
#
# Elastic Constant Matrix: (Units=GPa)
#
#
# Indices 1 2 3 4 5 6 
#
# 1 62.0015 17.1970 32.4335 0.0000 0.0000 0.0000
# 2 17.1970 46.0851 23.6415 0.0000 0.0000 0.0000
# 3 32.4335 23.6415 122.5887 0.0000 0.0000 0.0000
# 4 0.0000 0.0000 0.0000 28.3024 0.0000 0.0000
# 5 0.0000 0.0000 0.0000 0.0000 39.4829 0.0000
# 6 0.0000 0.0000 0.0000 0.0000 0.0000 27.8758
#
#
#
# Elastic Compliance Matrix: (Units=1/GPa)
#
#
# Indices 1 2 3 4 5 6 
#
# 1 0.019787 -0.005214 -0.004230 0.000000 0.000000 0.000000
# 2 -0.005214 0.025455 -0.003530 0.000000 0.000000 0.000000
# 3 -0.004230 -0.003530 0.009957 0.000000 0.000000 0.000000
# 4 0.000000 0.000000 0.000000 0.035333 0.000000 0.000000
# 5 0.000000 0.000000 0.000000 0.000000 0.025327 0.000000
# 6 0.000000 0.000000 0.000000 0.000000 0.000000 0.035873
#
#
# Mechanical properties :
#
#
# Convention : Reuss Voigt Hill
#
# Bulk Modulus (GPa) = 34.18426 41.91324 38.04875
# Shear Modulus (GPa) = 26.67649 29.62578 28.15114
#
# Velocity S-wave (km/s) = 3.61022 3.80456 3.70866
# Velocity P-wave (km/s) = 5.83781 6.30695 6.07691
#
# Compressibility (1/GPa) = 0.02925323
#
# Stress axis : x y z
#
# Youngs Moduli (GPa) = 50.53726 39.28450 100.43082
#
# Poissons Ratio (x) = 0.20483 0.42479
# Poissons Ratio (y) = 0.26350 0.35448
# Poissons Ratio (z) = 0.21375 0.13866
#
# Static dielectric constant tensor:
#      x y z
#    x 1.740440 0.000000 0.000000 
#    y 0.000000 1.728610 0.000000 
#    z 0.000000 0.000000 1.800970 
# 
# From -- ./inp_files/14989.got.cif
#   From: 2010.05.17/outbox.cif.g08.bks.cpg/sg60_8_cif.got.tgz:14989.got - 2010.06.03 14:59:27.
