data_PCOD9456952
_publ_section_title
;
Structure prediction by ZEFSAII (Michael W. Deem and Ramdas Pophale) SiO2 
 PCOD9456952
Probable space group: P B C N
;
_chemical_formula_sum "Si O2"
_cell_formula_units_Z 56
_cell_length_a 5.368696
_cell_length_b 31.815028
_cell_length_c 14.420026
_cell_angle_alpha 90.000000
_cell_angle_beta 90.000000
_cell_angle_gamma 90.000000
_cell_volume 2463.015621
_symmetry_space_group_name_H-M "P B C N"
_symmetry_group_IT_number 60
_symmetry_cell_setting 'orthorhombic'
loop_
_space_group_symop_operation_xyz
x,y,z
1/2-x,1/2-y,1/2+z
1/2+x,1/2-y,-z
-x,y,1/2-z
-x,-y,-z
1/2+x,1/2+y,1/2-z
1/2-x,1/2+y,z
x,-y,1/2+z
loop_
_atom_site_type_symbol
_atom_site_label
_atom_site_fract_x
_atom_site_fract_y
_atom_site_fract_z
Si Si1 0.250220 0.303364 0.791578
Si Si2 0.500000 0.114421 0.250000
Si Si3 0.597078 0.751607 0.551256
Si Si4 0.000000 0.989388 0.250000
Si Si5 0.722072 0.964781 0.422826
Si Si6 0.990550 0.836639 0.360561
Si Si7 0.014035 0.617307 0.862583
Si Si8 0.370693 0.040319 0.377182
O O1 0.500000 0.284890 0.750000
O O2 0.223768 0.351932 0.761085
O O3 0.221965 0.291780 0.898155
O O4 0.000000 0.283463 0.750000
O O5 0.476603 0.084017 0.338448
O O6 0.326387 0.763665 0.512652
O O7 0.536526 0.711354 0.613793
O O8 0.784739 0.018674 0.205979
O O9 0.914054 0.961610 0.337575
O O10 0.519959 0.928992 0.402683
O O11 0.798816 0.958213 0.529624
O O12 0.595484 0.009995 0.407602
O O13 0.226832 0.863208 0.395029
O O14 0.000000 0.840535 0.250000
O O15 0.724657 0.854765 0.392496
O O16 0.000000 0.615067 0.750000
#
# Coordination Sequence:
#
# PCOD9456952 Si02
#       8
#     8   4   8   4   8   8   8   8
#     4  10  24  45  73  99 140 195 243 291 365 444
#     4  10  24  44  70 101 142 190 249 304 372 440
#     4  12  25  43  71 107 144 180 238 303 366 430
#     4  12  22  42  70  95 140 186 241 302 362 444
#     4  11  25  41  69  99 144 185 247 299 371 439
#     4  10  23  42  68  94 135 181 228 276 356 437
#     4  10  22  41  66 102 135 184 229 290 357 423
#     4  11  24  44  66 104 135 194 241 301 369 442
#
# _framework density 22.736357000000002
#
# number of rings (size 3 to 8) (size 9 to 14) (size 15 to 20)
#    0.429    0.857    1.429    3.429    6.000    4.000 
#    0.000    1.429    0.000    0.000    0.000    0.000 
#    0.000    0.000    0.000    0.000    0.000    0.000 
#
# Total GULP energy -312561.966154 kJ/mol
# GULP energy per Si atom -5581.463681 kJ/mol
# Density = 2.268461 g / cm^3
# Si number density = 22.736357 Si / 1000 Ang^3
#
#
#
# Elastic Constant Matrix: (Units=GPa)
#
#
# Indices 1 2 3 4 5 6 
#
# 1 112.2872 30.9000 14.7789 0.0000 0.0000 0.0000
# 2 30.9000 68.5268 18.0945 0.0000 0.0000 0.0000
# 3 14.7789 18.0945 80.9397 0.0000 0.0000 0.0000
# 4 0.0000 0.0000 0.0000 16.6128 0.0000 0.0000
# 5 0.0000 0.0000 0.0000 0.0000 26.0435 0.0000
# 6 0.0000 0.0000 0.0000 0.0000 0.0000 54.9890
#
#
#
# Elastic Compliance Matrix: (Units=1/GPa)
#
#
# Indices 1 2 3 4 5 6 
#
# 1 0.010227 -0.004377 -0.000889 0.000000 0.000000 0.000000
# 2 -0.004377 0.017381 -0.003087 0.000000 0.000000 0.000000
# 3 -0.000889 -0.003087 0.013207 0.000000 0.000000 0.000000
# 4 0.000000 0.000000 0.000000 0.060195 0.000000 0.000000
# 5 0.000000 0.000000 0.000000 0.000000 0.038397 0.000000
# 6 0.000000 0.000000 0.000000 0.000000 0.000000 0.018185
#
#
# Mechanical properties :
#
#
# Convention : Reuss Voigt Hill
#
# Bulk Modulus (GPa) = 41.47459 43.25558 42.36508
# Shear Modulus (GPa) = 27.42207 32.72775 30.07491
#
# Velocity S-wave (km/s) = 3.47665 3.79812 3.64093
# Velocity P-wave (km/s) = 5.86491 6.18873 6.02900
#
# Compressibility (1/GPa) = 0.02411115
#
# Stress axis : x y z
#
# Youngs Moduli (GPa) = 97.77845 57.53258 75.71632
#
# Poissons Ratio (x) = 0.25181 0.06731
# Poissons Ratio (y) = 0.42797 0.23370
# Poissons Ratio (z) = 0.08692 0.17758
#
# Static dielectric constant tensor:
#      x y z
#    x 1.982700 0.000000 0.000000 
#    y 0.000000 1.832580 0.000000 
#    z 0.000000 0.000000 1.932840 
# 
# From -- ./inp_files/14141.got.cif
#   From: 2010.05.17/outbox.cif.g08.bks.cpg/sg60_8_cif.got.tgz:14141.got - 2010.06.03 14:59:27.
