data_PCOD9456450
_publ_section_title
;
Structure prediction by ZEFSAII (Michael W. Deem and Ramdas Pophale) SiO2 
 PCOD9456450
Probable space group: P B C N
;
_chemical_formula_sum "Si O2"
_cell_formula_units_Z 60
_cell_length_a 5.305692
_cell_length_b 17.860575
_cell_length_c 25.797825
_cell_angle_alpha 90.000000
_cell_angle_beta 90.000000
_cell_angle_gamma 90.000000
_cell_volume 2444.671806
_symmetry_space_group_name_H-M "P B C N"
_symmetry_group_IT_number 60
_symmetry_cell_setting 'orthorhombic'
loop_
_space_group_symop_operation_xyz
x,y,z
1/2-x,1/2-y,1/2+z
1/2+x,1/2-y,-z
-x,y,1/2-z
-x,-y,-z
1/2+x,1/2+y,1/2-z
1/2-x,1/2+y,z
x,-y,1/2+z
loop_
_atom_site_type_symbol
_atom_site_label
_atom_site_fract_x
_atom_site_fract_y
_atom_site_fract_z
Si Si1 0.000000 0.385488 0.250000
Si Si2 0.899336 0.857377 0.927506
Si Si3 0.513513 0.583861 0.882678
Si Si4 0.354591 0.512265 0.295234
Si Si5 0.777975 0.291251 0.165023
Si Si6 0.190546 0.564053 0.983660
Si Si7 0.414780 0.810754 0.061074
Si Si8 0.600886 0.865676 0.641971
O O1 0.776477 0.443146 0.235417
O O2 0.986728 0.326938 0.202437
O O3 0.853249 0.774519 0.952239
O O4 0.667863 0.864993 0.886700
O O5 0.168732 0.864813 0.899451
O O6 0.891089 0.921832 0.971141
O O7 0.534828 0.514772 0.842846
O O8 0.438541 0.647968 0.841620
O O9 0.305731 0.559836 0.925882
O O10 0.719244 0.628195 0.916075
O O11 0.500000 0.555628 0.250000
O O12 0.142284 0.562529 0.322079
O O13 0.658717 0.210416 0.174354
O O14 0.894877 0.294407 0.107920
O O15 0.036741 0.641931 0.984171
O O16 0.000000 0.500000 0.000000
#
# Coordination Sequence:
#
# PCOD9456450 Si02
#       8
#     4   8   8   8   8   8   8   8
#     4  10  22  42  70  94 140 174 246 274 368 424
#     4  11  26  45  70 102 142 190 238 294 357 428
#     4  10  21  42  65  93 135 179 235 285 354 432
#     4  11  25  41  70 101 136 185 232 300 368 426
#     4   9  20  41  64  97 127 183 226 293 342 426
#     4  11  26  40  66 102 139 189 235 295 357 429
#     4  10  22  39  67  90 136 175 239 277 351 411
#     4  11  25  45  70 102 146 180 238 298 362 421
#
# _framework density 24.543172999999999
#
# number of rings (size 3 to 8) (size 9 to 14) (size 15 to 20)
#    0.000    1.600    1.333    1.600    8.400    0.533 
#    0.000    0.000    1.467    0.000    0.000    0.000 
#    0.000    0.000    0.000    0.000    0.000    0.000 
#
# Total GULP energy -334731.194467 kJ/mol
# GULP energy per Si atom -5578.853241 kJ/mol
# Density = 2.448731 g / cm^3
# Si number density = 24.543173 Si / 1000 Ang^3
#
#
#
# Elastic Constant Matrix: (Units=GPa)
#
#
# Indices 1 2 3 4 5 6 
#
# 1 66.3089 4.2174 10.2382 0.0000 0.0000 0.0000
# 2 4.2174 97.4950 37.6843 0.0000 0.0000 0.0000
# 3 10.2382 37.6843 63.1880 0.0000 0.0000 0.0000
# 4 0.0000 0.0000 0.0000 16.1726 0.0000 0.0000
# 5 0.0000 0.0000 0.0000 0.0000 19.7892 0.0000
# 6 0.0000 0.0000 0.0000 0.0000 0.0000 37.5175
#
#
#
# Elastic Compliance Matrix: (Units=1/GPa)
#
#
# Indices 1 2 3 4 5 6 
#
# 1 0.015479 0.000390 -0.002740 0.000000 0.000000 0.000000
# 2 0.000390 0.013339 -0.008019 0.000000 0.000000 0.000000
# 3 -0.002740 -0.008019 0.021052 0.000000 0.000000 0.000000
# 4 0.000000 0.000000 0.000000 0.061833 0.000000 0.000000
# 5 0.000000 0.000000 0.000000 0.000000 0.050533 0.000000
# 6 0.000000 0.000000 0.000000 0.000000 0.000000 0.026654
#
#
# Mechanical properties :
#
#
# Convention : Reuss Voigt Hill
#
# Bulk Modulus (GPa) = 34.32654 36.80795 35.56725
# Shear Modulus (GPa) = 22.79565 26.35264 24.57415
#
# Velocity S-wave (km/s) = 3.05093 3.28033 3.16771
# Velocity P-wave (km/s) = 5.14076 5.42007 5.28226
#
# Compressibility (1/GPa) = 0.02913197
#
# Stress axis : x y z
#
# Youngs Moduli (GPa) = 64.60249 74.96555 47.50155
#
# Poissons Ratio (x) = -0.02921 0.13018
# Poissons Ratio (y) = -0.02517 0.38089
# Poissons Ratio (z) = 0.17704 0.60112
#
# Static dielectric constant tensor:
#      x y z
#    x 1.942620 0.000000 0.000000 
#    y 0.000000 2.112140 0.000000 
#    z 0.000000 0.000000 1.875990 
# 
# From -- ./inp_files/24977.got.cif
#   From: 2010.05.17/outbox.cif.g08.bks.cpg/sg60_13_cif.got.tgz:24977.got - 2010.06.03 14:59:27.
