data_PCOD9456873
_publ_section_title
;
Structure prediction by ZEFSAII (Michael W. Deem and Ramdas Pophale) SiO2 
 PCOD9456873
Probable space group: P B C N
;
_chemical_formula_sum "Si O2"
_cell_formula_units_Z 56
_cell_length_a 11.436372
_cell_length_b 16.096904
_cell_length_c 14.851737
_cell_angle_alpha 90.000000
_cell_angle_beta 90.000000
_cell_angle_gamma 90.000000
_cell_volume 2734.058970
_symmetry_space_group_name_H-M "P B C N"
_symmetry_group_IT_number 60
_symmetry_cell_setting 'orthorhombic'
loop_
_space_group_symop_operation_xyz
x,y,z
1/2-x,1/2-y,1/2+z
1/2+x,1/2-y,-z
-x,y,1/2-z
-x,-y,-z
1/2+x,1/2+y,1/2-z
1/2-x,1/2+y,z
x,-y,1/2+z
loop_
_atom_site_type_symbol
_atom_site_label
_atom_site_fract_x
_atom_site_fract_y
_atom_site_fract_z
Si Si1 0.242488 0.514673 0.646011
Si Si2 0.036805 0.230781 0.549715
Si Si3 0.658370 0.939628 0.550485
Si Si4 0.270820 0.242181 0.434176
Si Si5 0.737166 0.586067 0.665923
Si Si6 0.554905 0.114091 0.345521
Si Si7 0.511810 0.542554 0.903263
O O1 0.196672 0.555853 0.553366
O O2 0.217193 0.569727 0.733824
O O3 0.180121 0.426507 0.651932
O O4 0.380059 0.499834 0.643782
O O5 0.148349 0.252388 0.487516
O O6 0.050137 0.288721 0.636915
O O7 0.049866 0.136324 0.577030
O O8 0.900071 0.243360 0.518311
O O9 0.719882 0.855924 0.592056
O O10 0.522988 0.924157 0.573742
O O11 0.692342 0.026268 0.597507
O O12 0.266366 0.317048 0.361613
O O13 0.606414 0.550025 0.652302
O O14 0.500000 0.092197 0.250000
O O15 0.500000 0.500000 0.000000
#
# Coordination Sequence:
#
# PCOD9456873 Si02
#       7
#     8   8   8   8   8   8   8
#     4  12  23  41  68  97 136 182 230 285 353 417
#     4  10  22  40  67  99 135 180 232 285 359 416
#     4  11  22  45  64  99 140 176 232 287 349 414
#     4  10  22  42  66  99 138 181 230 295 347 425
#     4  11  23  41  68 101 134 180 236 287 353 423
#     4  11  24  42  68 100 137 185 231 285 347 429
#     4  11  22  41  69  98 134 177 234 291 353 419
#
# _framework density 20.482368000000001
#
# number of rings (size 3 to 8) (size 9 to 14) (size 15 to 20)
#    0.000    1.143    4.286    1.714    2.000    4.571 
#    0.000    0.000    0.000    0.000    3.714    0.000 
#    0.000    0.000    0.000    0.000    0.000    0.000 
#
# Total GULP energy -312229.433842 kJ/mol
# GULP energy per Si atom -5575.525604 kJ/mol
# Density = 2.043575 g / cm^3
# Si number density = 20.482368 Si / 1000 Ang^3
#
#
#
# Elastic Constant Matrix: (Units=GPa)
#
#
# Indices 1 2 3 4 5 6 
#
# 1 88.4488 14.7082 12.6275 0.0000 0.0000 0.0000
# 2 14.7082 107.5493 29.9369 0.0000 0.0000 0.0000
# 3 12.6275 29.9369 100.5130 0.0000 0.0000 0.0000
# 4 0.0000 0.0000 0.0000 13.4522 0.0000 0.0000
# 5 0.0000 0.0000 0.0000 0.0000 16.8367 0.0000
# 6 0.0000 0.0000 0.0000 0.0000 0.0000 26.0709
#
#
#
# Elastic Compliance Matrix: (Units=1/GPa)
#
#
# Indices 1 2 3 4 5 6 
#
# 1 0.011676 -0.001296 -0.001081 0.000000 0.000000 0.000000
# 2 -0.001296 0.010282 -0.002900 0.000000 0.000000 0.000000
# 3 -0.001081 -0.002900 0.010948 0.000000 0.000000 0.000000
# 4 0.000000 0.000000 0.000000 0.074338 0.000000 0.000000
# 5 0.000000 0.000000 0.000000 0.000000 0.059394 0.000000
# 6 0.000000 0.000000 0.000000 0.000000 0.000000 0.038357
#
#
# Mechanical properties :
#
#
# Convention : Reuss Voigt Hill
#
# Bulk Modulus (GPa) = 44.73539 45.67291 45.20415
# Shear Modulus (GPa) = 22.42161 27.22121 24.82141
#
# Velocity S-wave (km/s) = 3.31218 3.64951 3.48493
# Velocity P-wave (km/s) = 6.04283 6.33290 6.18956
#
# Compressibility (1/GPa) = 0.02235367
#
# Stress axis : x y z
#
# Youngs Moduli (GPa) = 85.64743 97.25326 91.33754
#
# Poissons Ratio (x) = 0.12603 0.09872
# Poissons Ratio (y) = 0.11099 0.26485
# Poissons Ratio (z) = 0.09257 0.28201
#
# Static dielectric constant tensor:
#      x y z
#    x 1.784740 0.000000 0.000000 
#    y 0.000000 1.909640 0.000000 
#    z 0.000000 0.000000 1.735110 
# 
# From -- ./inp_files/16149.got.cif
#   From: 2010.05.17/outbox.cif.g08.bks.cpg/sg60_9_cif.got.tgz:16149.got - 2010.06.03 14:59:27.
