data_PCOD9456624
_publ_section_title
;
Structure prediction by ZEFSAII (Michael W. Deem and Ramdas Pophale) SiO2 
 PCOD9456624
Probable space group: P B C N
;
_chemical_formula_sum "Si O2"
_cell_formula_units_Z 60
_cell_length_a 8.966482
_cell_length_b 21.461658
_cell_length_c 13.692418
_cell_angle_alpha 90.000000
_cell_angle_beta 90.000000
_cell_angle_gamma 90.000000
_cell_volume 2634.908265
_symmetry_space_group_name_H-M "P B C N"
_symmetry_group_IT_number 60
_symmetry_cell_setting 'orthorhombic'
loop_
_space_group_symop_operation_xyz
x,y,z
1/2-x,1/2-y,1/2+z
1/2+x,1/2-y,-z
-x,y,1/2-z
-x,-y,-z
1/2+x,1/2+y,1/2-z
1/2-x,1/2+y,z
x,-y,1/2+z
loop_
_atom_site_type_symbol
_atom_site_label
_atom_site_fract_x
_atom_site_fract_y
_atom_site_fract_z
Si Si1 0.103969 0.970538 0.416376
Si Si2 0.671189 0.137644 0.051919
Si Si3 0.147458 0.396744 0.527596
Si Si4 0.000000 0.944101 0.750000
Si Si5 0.747111 0.857471 0.781535
Si Si6 0.321297 0.214230 0.736778
Si Si7 0.331069 0.717854 0.947188
Si Si8 0.604403 0.641056 0.903496
O O1 0.257521 0.948515 0.469083
O O2 0.018767 0.909477 0.373760
O O3 0.000000 0.000000 0.500000
O O4 0.102010 0.016020 0.323180
O O5 0.696961 0.136344 0.168498
O O6 0.670372 0.210693 0.021726
O O7 0.526149 0.106918 0.003187
O O8 0.814034 0.111719 0.996776
O O9 0.135152 0.391743 0.645323
O O10 0.239027 0.333141 0.506814
O O11 0.105754 0.896964 0.692985
O O12 0.784960 0.784731 0.798922
O O13 0.500000 0.205057 0.750000
O O14 0.246067 0.213366 0.842302
O O15 0.228828 0.164109 0.672821
O O16 0.503519 0.698932 0.937540
#
# Coordination Sequence:
#
# PCOD9456624 Si02
#       8
#     8   8   8   4   8   8   8   8
#     4  11  25  46  70  94 125 181 238 282 324 418
#     4  11  22  39  64 101 136 172 216 284 353 413
#     4  11  23  41  67  96 134 175 231 279 341 406
#     4  12  24  46  72  94 126 178 242 276 338 416
#     4  11  23  40  70  98 133 172 229 287 345 419
#     4  11  22  38  65 102 141 175 220 285 358 416
#     4  10  22  36  62  97 139 181 216 271 345 419
#     4  11  24  40  64  97 139 178 225 275 348 411
#
# _framework density 22.771190000000001
#
# number of rings (size 3 to 8) (size 9 to 14) (size 15 to 20)
#    0.000    1.067    2.000    4.800    5.600    3.200 
#    0.000    2.667    0.000    0.000    0.000    0.000 
#    0.000    0.000    0.000    0.000    0.000    0.000 
#
# Total GULP energy -334886.507598 kJ/mol
# GULP energy per Si atom -5581.441793 kJ/mol
# Density = 2.271936 g / cm^3
# Si number density = 22.771190 Si / 1000 Ang^3
#
#
#
# Elastic Constant Matrix: (Units=GPa)
#
#
# Indices 1 2 3 4 5 6 
#
# 1 137.2107 23.5622 18.0284 0.0000 0.0000 0.0000
# 2 23.5622 75.1894 6.7578 0.0000 0.0000 0.0000
# 3 18.0284 6.7578 60.3665 0.0000 0.0000 0.0000
# 4 0.0000 0.0000 0.0000 20.7018 0.0000 0.0000
# 5 0.0000 0.0000 0.0000 0.0000 24.0508 0.0000
# 6 0.0000 0.0000 0.0000 0.0000 0.0000 34.2881
#
#
#
# Elastic Compliance Matrix: (Units=1/GPa)
#
#
# Indices 1 2 3 4 5 6 
#
# 1 0.007962 -0.002305 -0.002120 0.000000 0.000000 0.000000
# 2 -0.002305 0.014102 -0.000890 0.000000 0.000000 0.000000
# 3 -0.002120 -0.000890 0.017298 0.000000 0.000000 0.000000
# 4 0.000000 0.000000 0.000000 0.048305 0.000000 0.000000
# 5 0.000000 0.000000 0.000000 0.000000 0.041579 0.000000
# 6 0.000000 0.000000 0.000000 0.000000 0.000000 0.029165
#
#
# Mechanical properties :
#
#
# Convention : Reuss Voigt Hill
#
# Bulk Modulus (GPa) = 34.80361 41.05151 37.92756
# Shear Modulus (GPa) = 27.99265 30.76937 29.38101
#
# Velocity S-wave (km/s) = 3.50994 3.67991 3.59593
# Velocity P-wave (km/s) = 5.63414 6.01021 5.82521
#
# Compressibility (1/GPa) = 0.02873265
#
# Stress axis : x y z
#
# Youngs Moduli (GPa) = 125.59079 70.91206 57.80922
#
# Poissons Ratio (x) = 0.16343 0.12255
# Poissons Ratio (y) = 0.28944 0.05147
# Poissons Ratio (z) = 0.26625 0.06314
#
# Static dielectric constant tensor:
#      x y z
#    x 3.159540 0.000000 0.000000 
#    y 0.000000 1.872700 0.000000 
#    z 0.000000 0.000000 1.648210 
# 
# From -- ./inp_files/15366.got.cif
#   From: 2010.05.17/outbox.cif.g08.bks.cpg/sg60_8_cif.got.tgz:15366.got - 2010.06.03 14:59:27.
