data_PCOD9456319
_publ_section_title
;
Structure prediction by ZEFSAII (Michael W. Deem and Ramdas Pophale) SiO2 
 PCOD9456319
Probable space group: P B C N
;
_chemical_formula_sum "Si O2"
_cell_formula_units_Z 32
_cell_length_a 22.194125
_cell_length_b 5.118940
_cell_length_c 11.074384
_cell_angle_alpha 90.000000
_cell_angle_beta 90.000000
_cell_angle_gamma 90.000000
_cell_volume 1258.165132
_symmetry_space_group_name_H-M "P B C N"
_symmetry_group_IT_number 60
_symmetry_cell_setting 'orthorhombic'
loop_
_space_group_symop_operation_xyz
x,y,z
1/2-x,1/2-y,1/2+z
1/2+x,1/2-y,-z
-x,y,1/2-z
-x,-y,-z
1/2+x,1/2+y,1/2-z
1/2-x,1/2+y,z
x,-y,1/2+z
loop_
_atom_site_type_symbol
_atom_site_label
_atom_site_fract_x
_atom_site_fract_y
_atom_site_fract_z
Si Si1 0.123120 0.671847 0.618373
Si Si2 0.493396 0.347700 0.877311
Si Si3 0.858027 0.360677 0.122452
Si Si4 0.790789 0.063041 0.944333
O O1 0.144452 0.560992 0.489402
O O2 0.150295 0.548313 0.740434
O O3 0.050768 0.653783 0.623028
O O4 0.146234 0.974475 0.618029
O O5 0.500000 0.499828 0.750000
O O6 0.426716 0.235307 0.878122
O O7 0.500000 0.500000 0.000000
O O8 0.812085 0.131701 0.081749
O O9 0.750973 0.315160 0.916085
#
# Coordination Sequence:
#
# PCOD9456319 Si02
#       4
#     8   8   8   8
#     4  11  25  46  75 110 149 195 248 311 379 450
#     4  10  21  40  70 107 145 190 244 307 380 450
#     4  11  25  46  75 110 149 195 248 311 379 450
#     4  12  26  49  72 107 144 200 254 308 362 434
#
# _framework density 25.433865000000001
#
# number of rings (size 3 to 8) (size 9 to 14) (size 15 to 20)
#    0.000    1.000    5.000    0.750    0.000    6.000 
#    0.000    0.000    0.000    0.000    0.000    0.000 
#    0.000    0.000    0.000    0.000    0.000    0.000 
#
# Total GULP energy -178493.229823 kJ/mol
# GULP energy per Si atom -5577.913432 kJ/mol
# Density = 2.537598 g / cm^3
# Si number density = 25.433865 Si / 1000 Ang^3
#
#
#
# Elastic Constant Matrix: (Units=GPa)
#
#
# Indices 1 2 3 4 5 6 
#
# 1 125.3800 37.0827 7.1793 0.0000 0.0000 0.0000
# 2 37.0827 103.6265 52.7539 0.0000 0.0000 0.0000
# 3 7.1793 52.7539 222.3149 0.0000 0.0000 0.0000
# 4 0.0000 0.0000 0.0000 35.1449 0.0000 0.0000
# 5 0.0000 0.0000 0.0000 0.0000 42.3183 0.0000
# 6 0.0000 0.0000 0.0000 0.0000 0.0000 27.0689
#
#
#
# Elastic Compliance Matrix: (Units=1/GPa)
#
#
# Indices 1 2 3 4 5 6 
#
# 1 0.008976 -0.003485 0.000537 0.000000 0.000000 0.000000
# 2 -0.003485 0.012329 -0.002813 0.000000 0.000000 0.000000
# 3 0.000537 -0.002813 0.005148 0.000000 0.000000 0.000000
# 4 0.000000 0.000000 0.000000 0.028454 0.000000 0.000000
# 5 0.000000 0.000000 0.000000 0.000000 0.023630 0.000000
# 6 0.000000 0.000000 0.000000 0.000000 0.000000 0.036943
#
#
# Mechanical properties :
#
#
# Convention : Reuss Voigt Hill
#
# Bulk Modulus (GPa) = 66.97568 71.70592 69.34080
# Shear Modulus (GPa) = 37.88447 44.52679 41.20563
#
# Velocity S-wave (km/s) = 3.86363 4.18866 4.02942
# Velocity P-wave (km/s) = 6.80396 7.18662 6.99791
#
# Compressibility (1/GPa) = 0.01493079
#
# Stress axis : x y z
#
# Youngs Moduli (GPa) = 111.40984 81.10676 194.23837
#
# Poissons Ratio (x) = 0.28270 -0.10435
# Poissons Ratio (y) = 0.38832 0.54642
# Poissons Ratio (z) = -0.05985 0.22816
#
# Static dielectric constant tensor:
#      x y z
#    x 2.094600 0.000000 0.000000 
#    y 0.000000 2.155680 0.000000 
#    z 0.000000 0.000000 2.016600 
# 
# From -- ./inp_files/12956.got.cif
#   From: 2010.05.17/outbox.cif.g08.bks.cpg/sg60_7_cif.got.tgz:12956.got - 2010.06.03 14:59:27.
