data_PCOD9456328
_publ_section_title
;
Structure prediction by ZEFSAII (Michael W. Deem and Ramdas Pophale) SiO2 
 PCOD9456328
Probable space group: P B C N
;
_chemical_formula_sum "Si O2"
_cell_formula_units_Z 52
_cell_length_a 17.603264
_cell_length_b 16.594453
_cell_length_c 8.157778
_cell_angle_alpha 90.000000
_cell_angle_beta 90.000000
_cell_angle_gamma 90.000000
_cell_volume 2383.021860
_symmetry_space_group_name_H-M "P B C N"
_symmetry_group_IT_number 60
_symmetry_cell_setting 'orthorhombic'
loop_
_space_group_symop_operation_xyz
x,y,z
1/2-x,1/2-y,1/2+z
1/2+x,1/2-y,-z
-x,y,1/2-z
-x,-y,-z
1/2+x,1/2+y,1/2-z
1/2-x,1/2+y,z
x,-y,1/2+z
loop_
_atom_site_type_symbol
_atom_site_label
_atom_site_fract_x
_atom_site_fract_y
_atom_site_fract_z
Si Si1 0.500000 0.621493 0.750000
Si Si2 0.354082 0.521807 0.866305
Si Si3 0.147869 0.394177 0.657975
Si Si4 0.319167 0.380419 0.691015
Si Si5 0.888568 0.287731 0.337665
Si Si6 0.683945 0.059296 0.715261
Si Si7 0.462877 0.769444 0.522549
O O1 0.428419 0.565916 0.797630
O O2 0.476142 0.682499 0.603542
O O3 0.357924 0.424774 0.846338
O O4 0.273601 0.542310 0.777988
O O5 0.340187 0.556631 0.046908
O O6 0.229918 0.367060 0.725965
O O7 0.164920 0.415967 0.469055
O O8 0.134920 0.480088 0.743179
O O9 0.083481 0.326605 0.647503
O O10 0.348026 0.295623 0.624348
O O11 0.836784 0.366196 0.330007
O O12 0.919207 0.270712 0.152237
O O13 0.955596 0.302687 0.465807
#
# Coordination Sequence:
#
# PCOD9456328 Si02
#       7
#     4   8   8   8   8   8   8
#     4  12  24  38  56  92 124 158 206 260 298 372
#     4  10  23  39  58  88 125 159 209 246 312 370
#     4   9  20  40  62  89 122 158 206 250 313 367
#     4  10  21  41  61  89 121 163 203 255 306 366
#     4  10  21  41  63  86 123 166 206 253 314 367
#     4   9  20  40  62  90 119 162 207 255 303 374
#     4  10  23  39  59  90 124 159 204 254 313 367
#
# _framework density 21.821033
#
# number of rings (size 3 to 8) (size 9 to 14) (size 15 to 20)
#    0.000    2.154    1.538    0.000    4.308    3.692 
#    0.000    1.538    0.000    0.000    0.000    0.000 
#    0.000    0.000    0.000    0.000    0.000    0.000 
#
# Total GULP energy -290111.297158 kJ/mol
# GULP energy per Si atom -5579.063407 kJ/mol
# Density = 2.177137 g / cm^3
# Si number density = 21.821033 Si / 1000 Ang^3
#
#
#
# Elastic Constant Matrix: (Units=GPa)
#
#
# Indices 1 2 3 4 5 6 
#
# 1 63.2204 38.0402 6.7877 0.0000 0.0000 0.0000
# 2 38.0402 73.5849 -8.2080 0.0000 0.0000 0.0000
# 3 6.7877 -8.2080 36.0141 0.0000 0.0000 0.0000
# 4 0.0000 0.0000 0.0000 29.2936 0.0000 0.0000
# 5 0.0000 0.0000 0.0000 0.0000 17.9645 0.0000
# 6 0.0000 0.0000 0.0000 0.0000 0.0000 36.8035
#
#
#
# Elastic Compliance Matrix: (Units=1/GPa)
#
#
# Indices 1 2 3 4 5 6 
#
# 1 0.024945 -0.013770 -0.007840 0.000000 0.000000 0.000000
# 2 -0.013770 0.021545 0.007506 0.000000 0.000000 0.000000
# 3 -0.007840 0.007506 0.030955 0.000000 0.000000 0.000000
# 4 0.000000 0.000000 0.000000 0.034137 0.000000 0.000000
# 5 0.000000 0.000000 0.000000 0.000000 0.055665 0.000000
# 6 0.000000 0.000000 0.000000 0.000000 0.000000 0.027171
#
#
# Mechanical properties :
#
#
# Convention : Reuss Voigt Hill
#
# Bulk Modulus (GPa) = 20.30973 27.33992 23.82482
# Shear Modulus (GPa) = 20.91702 25.89228 23.40465
#
# Velocity S-wave (km/s) = 3.09944 3.44841 3.27857
# Velocity P-wave (km/s) = 4.70492 5.33026 5.02733
#
# Compressibility (1/GPa) = 0.04923748
#
# Stress axis : x y z
#
# Youngs Moduli (GPa) = 40.08846 46.41367 32.30479
#
# Poissons Ratio (x) = 0.63911 0.25326
# Poissons Ratio (y) = 0.55201 -0.24247
# Poissons Ratio (z) = 0.31428 -0.34837
#
# Static dielectric constant tensor:
#      x y z
#    x 1.800350 0.000000 0.000000 
#    y 0.000000 1.822540 0.000000 
#    z 0.000000 0.000000 1.830420 
# 
# From -- ./inp_files/6857.got.cif
#   From: 2010.05.17/outbox.cif.g08.bks.cpg/sg60_4_cif.got.tgz:6857.got - 2010.06.03 14:59:27.
