data_PCOD9456054
_publ_section_title
;
Structure prediction by ZEFSAII (Michael W. Deem and Ramdas Pophale) SiO2 
 PCOD9456054
Probable space group: P B C N
;
_chemical_formula_sum "Si O2"
_cell_formula_units_Z 36
_cell_length_a 12.380765
_cell_length_b 9.664811
_cell_length_c 12.431759
_cell_angle_alpha 90.000000
_cell_angle_beta 90.000000
_cell_angle_gamma 90.000000
_cell_volume 1487.556357
_symmetry_space_group_name_H-M "P B C N"
_symmetry_group_IT_number 60
_symmetry_cell_setting 'orthorhombic'
loop_
_space_group_symop_operation_xyz
x,y,z
1/2-x,1/2-y,1/2+z
1/2+x,1/2-y,-z
-x,y,1/2-z
-x,-y,-z
1/2+x,1/2+y,1/2-z
1/2-x,1/2+y,z
x,-y,1/2+z
loop_
_atom_site_type_symbol
_atom_site_label
_atom_site_fract_x
_atom_site_fract_y
_atom_site_fract_z
Si Si1 0.369992 0.568985 0.441050
Si Si2 0.637432 0.977998 0.564649
Si Si3 0.500000 0.917459 0.750000
Si Si4 0.317366 0.212178 0.112658
Si Si5 0.918014 0.796274 0.937410
O O1 0.253314 0.566360 0.386150
O O2 0.343935 0.642188 0.556322
O O3 0.467574 0.655528 0.389652
O O4 0.403062 0.412883 0.468922
O O5 0.661915 0.100398 0.482382
O O6 0.412446 0.151054 0.500425
O O7 0.554561 0.009542 0.658764
O O8 0.596457 0.823970 0.796870
O O9 0.189495 0.203526 0.135907
#
# Coordination Sequence:
#
# PCOD9456054 Si02
#       5
#     8   8   4   8   8
#     4   9  18  37  64  82 110 154 193 242 303 351
#     4  10  21  38  63  86 118 161 198 241 298 351
#     4  12  22  36  60  92 118 160 204 248 282 366
#     4  10  21  38  63  86 118 161 198 241 298 351
#     4   9  18  37  64  82 110 154 193 242 303 351
#
# _framework density 24.200763999999999
#
# number of rings (size 3 to 8) (size 9 to 14) (size 15 to 20)
#    0.000    2.222    2.222    0.667    0.000    0.000 
#    0.000   21.111    0.000    0.000    0.000    0.000 
#    0.000    0.000    0.000    0.000    0.000    0.000 
#
# Total GULP energy -201182.244550 kJ/mol
# GULP energy per Si atom -5588.395682 kJ/mol
# Density = 2.414568 g / cm^3
# Si number density = 24.200764 Si / 1000 Ang^3
#
#
#
# Elastic Constant Matrix: (Units=GPa)
#
#
# Indices 1 2 3 4 5 6 
#
# 1 213.3831 -6.0944 41.4065 0.0000 0.0000 0.0000
# 2 -6.0944 81.1855 12.9180 0.0000 0.0000 0.0000
# 3 41.4065 12.9180 51.4514 0.0000 0.0000 0.0000
# 4 0.0000 0.0000 0.0000 4.8874 0.0000 0.0000
# 5 0.0000 0.0000 0.0000 0.0000 49.9194 0.0000
# 6 0.0000 0.0000 0.0000 0.0000 0.0000 29.6841
#
#
#
# Elastic Compliance Matrix: (Units=1/GPa)
#
#
# Indices 1 2 3 4 5 6 
#
# 1 0.005663 0.001198 -0.004859 0.000000 0.000000 0.000000
# 2 0.001198 0.013084 -0.004249 0.000000 0.000000 0.000000
# 3 -0.004859 -0.004249 0.024413 0.000000 0.000000 0.000000
# 4 0.000000 0.000000 0.000000 0.204607 0.000000 0.000000
# 5 0.000000 0.000000 0.000000 0.000000 0.020032 0.000000
# 6 0.000000 0.000000 0.000000 0.000000 0.000000 0.033688
#
#
# Mechanical properties :
#
#
# Convention : Reuss Voigt Hill
#
# Bulk Modulus (GPa) = 36.57571 49.16445 42.87008
# Shear Modulus (GPa) = 15.31772 36.75085 26.03429
#
# Velocity S-wave (km/s) = 2.51857 3.90113 3.28344
# Velocity P-wave (km/s) = 4.85838 6.37582 5.66811
#
# Compressibility (1/GPa) = 0.02734055
#
# Stress axis : x y z
#
# Youngs Moduli (GPa) = 176.57161 76.43199 40.96232
#
# Poissons Ratio (x) = -0.09158 0.19902
# Poissons Ratio (y) = -0.21157 0.17406
# Poissons Ratio (z) = 0.85789 0.32477
#
# Static dielectric constant tensor:
#      x y z
#    x 2.056390 0.000000 0.000000 
#    y 0.000000 1.917100 0.000000 
#    z 0.000000 0.000000 1.930560 
# 
# From -- ./inp_files/15788.got.cif
#   From: 2010.05.17/outbox.cif.g08.bks.cpg/sg60_8_cif.got.tgz:15788.got - 2010.06.03 14:59:27.
