data_PCOD9456150
_publ_section_title
;
Structure prediction by ZEFSAII (Michael W. Deem and Ramdas Pophale) SiO2 
 PCOD9456150
Probable space group: P B C N
;
_chemical_formula_sum "Si O2"
_cell_formula_units_Z 48
_cell_length_a 8.252408
_cell_length_b 20.745343
_cell_length_c 13.897317
_cell_angle_alpha 90.000000
_cell_angle_beta 90.000000
_cell_angle_gamma 90.000000
_cell_volume 2379.207253
_symmetry_space_group_name_H-M "P B C N"
_symmetry_group_IT_number 60
_symmetry_cell_setting 'orthorhombic'
loop_
_space_group_symop_operation_xyz
x,y,z
1/2-x,1/2-y,1/2+z
1/2+x,1/2-y,-z
-x,y,1/2-z
-x,-y,-z
1/2+x,1/2+y,1/2-z
1/2-x,1/2+y,z
x,-y,1/2+z
loop_
_atom_site_type_symbol
_atom_site_label
_atom_site_fract_x
_atom_site_fract_y
_atom_site_fract_z
Si Si1 0.678530 0.189287 0.580517
Si Si2 0.817623 0.993390 0.785037
Si Si3 0.713455 0.936968 0.971049
Si Si4 0.801561 0.317458 0.480908
Si Si5 0.348063 0.941691 0.897216
Si Si6 0.311479 0.641241 0.721261
O O1 0.755265 0.129844 0.520954
O O2 0.752554 0.255582 0.542631
O O3 0.488786 0.186626 0.553192
O O4 0.712773 0.175282 0.692626
O O5 0.751789 0.066894 0.790710
O O6 0.000000 0.998253 0.750000
O O7 0.830502 0.961171 0.888827
O O8 0.710953 0.950905 0.711596
O O9 0.539915 0.934190 0.916179
O O10 0.700332 0.991558 0.051734
O O11 0.774916 0.380869 0.546204
O O12 0.705229 0.324134 0.381161
O O13 0.500000 0.640887 0.750000
#
# Coordination Sequence:
#
# PCOD9456150 Si02
#       6
#     8   8   8   8   8   8
#     4  11  24  42  65  92 125 165 206 256 310 368
#     4  11  23  36  61  96 127 159 201 260 311 356
#     4  10  21  39  63  89 119 159 206 250 300 366
#     4  11  24  42  65  92 125 165 206 256 310 368
#     4  10  21  39  63  89 119 159 206 250 300 366
#     4  11  23  40  63  92 125 163 205 252 311 374
#
# _framework density 20.174786000000001
#
# number of rings (size 3 to 8) (size 9 to 14) (size 15 to 20)
#    0.000    1.333    3.333    2.000    0.000    6.000 
#    0.000    1.667    0.000    0.000    0.000    0.000 
#    0.000    0.000    0.000    0.000    0.000    0.000 
#
# Total GULP energy -268266.199963 kJ/mol
# GULP energy per Si atom -5588.879166 kJ/mol
# Density = 2.012887 g / cm^3
# Si number density = 20.174786 Si / 1000 Ang^3
#
#
#
# Elastic Constant Matrix: (Units=GPa)
#
#
# Indices 1 2 3 4 5 6 
#
# 1 12.6275 7.3817 -10.8933 0.0000 0.0000 0.0000
# 2 7.3817 106.4847 28.5283 0.0000 0.0000 0.0000
# 3 -10.8933 28.5283 79.4992 0.0000 0.0000 0.0000
# 4 0.0000 0.0000 0.0000 26.0827 0.0000 0.0000
# 5 0.0000 0.0000 0.0000 0.0000 33.0150 0.0000
# 6 0.0000 0.0000 0.0000 0.0000 0.0000 16.3724
#
#
#
# Elastic Compliance Matrix: (Units=1/GPa)
#
#
# Indices 1 2 3 4 5 6 
#
# 1 0.101933 -0.011958 0.018258 0.000000 0.000000 0.000000
# 2 -0.011958 0.011793 -0.005870 0.000000 0.000000 0.000000
# 3 0.018258 -0.005870 0.017187 0.000000 0.000000 0.000000
# 4 0.000000 0.000000 0.000000 0.038340 0.000000 0.000000
# 5 0.000000 0.000000 0.000000 0.000000 0.030289 0.000000
# 6 0.000000 0.000000 0.000000 0.000000 0.000000 0.061078
#
#
# Mechanical properties :
#
#
# Convention : Reuss Voigt Hill
#
# Bulk Modulus (GPa) = 7.58880 27.62722 17.60801
# Shear Modulus (GPa) = 16.46450 26.66702 21.56576
#
# Velocity S-wave (km/s) = 2.85983 3.63960 3.27302
# Velocity P-wave (km/s) = 3.83074 5.60231 4.79898
#
# Compressibility (1/GPa) = 0.13177310
#
# Stress axis : x y z
#
# Youngs Moduli (GPa) = 9.81038 84.79855 58.18318
#
# Poissons Ratio (x) = 1.01400 -1.06232
# Poissons Ratio (y) = 0.11731 0.34155
# Poissons Ratio (z) = -0.17912 0.49779
#
# Static dielectric constant tensor:
#      x y z
#    x 1.734900 0.000000 0.000000 
#    y 0.000000 1.688660 0.000000 
#    z 0.000000 0.000000 1.686330 
# 
# From -- ./inp_files/10096.got.cif
#   From: 2010.05.17/outbox.cif.g08.bks.cpg/sg60_6_cif.got.tgz:10096.got - 2010.06.03 14:59:27.
