data_PCOD9456035
_publ_section_title
;
Structure prediction by ZEFSAII (Michael W. Deem and Ramdas Pophale) SiO2 
 PCOD9456035
Probable space group: P B C N
;
_chemical_formula_sum "Si O2"
_cell_formula_units_Z 32
_cell_length_a 5.271675
_cell_length_b 9.127995
_cell_length_c 26.733631
_cell_angle_alpha 90.000000
_cell_angle_beta 90.000000
_cell_angle_gamma 90.000000
_cell_volume 1286.417593
_symmetry_space_group_name_H-M "P B C N"
_symmetry_group_IT_number 60
_symmetry_cell_setting 'orthorhombic'
loop_
_space_group_symop_operation_xyz
x,y,z
1/2-x,1/2-y,1/2+z
1/2+x,1/2-y,-z
-x,y,1/2-z
-x,-y,-z
1/2+x,1/2+y,1/2-z
1/2-x,1/2+y,z
x,-y,1/2+z
loop_
_atom_site_type_symbol
_atom_site_label
_atom_site_fract_x
_atom_site_fract_y
_atom_site_fract_z
Si Si1 0.872374 0.386059 0.037153
Si Si2 0.993178 0.036451 0.690275
Si Si3 0.506776 0.870952 0.847637
Si Si4 0.370204 0.704427 0.558569
O O1 0.592866 0.416648 0.058548
O O2 0.089964 0.341845 0.076326
O O3 0.820573 0.252037 0.998559
O O4 0.000000 0.500000 0.000000
O O5 0.241207 0.955619 0.668932
O O6 0.000000 0.020642 0.750000
O O7 0.740573 0.960552 0.668507
O O8 0.998094 0.208375 0.676550
O O9 0.524697 0.833206 0.906631
#
# Coordination Sequence:
#
# PCOD9456035 Si02
#       4
#     8   8   8   8
#     4  10  21  38  62  87 135 173 217 278 326 402
#     4  12  26  47  71 102 136 179 227 292 360 413
#     4  12  27  45  76 103 140 182 234 290 339 433
#     4  10  23  38  59  97 124 177 225 269 338 391
#
# _framework density 24.875283
#
# number of rings (size 3 to 8) (size 9 to 14) (size 15 to 20)
#    0.000    1.000    0.000    6.000    7.000    0.000 
#    0.000    0.000    0.000    0.000    0.000    0.000 
#    0.000    0.000    0.000    0.000    0.000    0.000 
#
# Total GULP energy -179147.602520 kJ/mol
# GULP energy per Si atom -5598.362579 kJ/mol
# Density = 2.481867 g / cm^3
# Si number density = 24.875283 Si / 1000 Ang^3
#
#
#
# Elastic Constant Matrix: (Units=GPa)
#
#
# Indices 1 2 3 4 5 6 
#
# 1 186.7140 57.9040 39.5264 0.0000 0.0000 0.0000
# 2 57.9040 131.8924 19.8355 0.0000 0.0000 0.0000
# 3 39.5264 19.8355 134.9890 0.0000 0.0000 0.0000
# 4 0.0000 0.0000 0.0000 35.0658 0.0000 0.0000
# 5 0.0000 0.0000 0.0000 0.0000 36.7198 0.0000
# 6 0.0000 0.0000 0.0000 0.0000 0.0000 45.4636
#
#
#
# Elastic Compliance Matrix: (Units=1/GPa)
#
#
# Indices 1 2 3 4 5 6 
#
# 1 0.006489 -0.002621 -0.001515 0.000000 0.000000 0.000000
# 2 -0.002621 0.008812 -0.000527 0.000000 0.000000 0.000000
# 3 -0.001515 -0.000527 0.007929 0.000000 0.000000 0.000000
# 4 0.000000 0.000000 0.000000 0.028518 0.000000 0.000000
# 5 0.000000 0.000000 0.000000 0.000000 0.027233 0.000000
# 6 0.000000 0.000000 0.000000 0.000000 0.000000 0.021996
#
#
# Mechanical properties :
#
#
# Convention : Reuss Voigt Hill
#
# Bulk Modulus (GPa) = 71.92448 76.45859 74.19153
# Shear Modulus (GPa) = 43.50145 45.87180 44.68663
#
# Velocity S-wave (km/s) = 4.18638 4.29892 4.24303
# Velocity P-wave (km/s) = 7.23495 7.44611 7.34129
#
# Compressibility (1/GPa) = 0.01390347
#
# Stress axis : x y z
#
# Youngs Moduli (GPa) = 154.09794 113.48168 126.11748
#
# Poissons Ratio (x) = 0.29745 0.19107
# Poissons Ratio (y) = 0.40391 0.06651
# Poissons Ratio (z) = 0.23346 0.05984
#
# Static dielectric constant tensor:
#      x y z
#    x 2.022530 0.000000 0.000000 
#    y 0.000000 2.008660 0.000000 
#    z 0.000000 0.000000 2.003630 
# 
# From -- ./inp_files/25550.got.cif
#   From: 2010.05.17/outbox.cif.g08.bks.cpg/sg60_13_cif.got.tgz:25550.got - 2010.06.03 14:59:27.
