data_PCOD9456898
_publ_section_title
;
Structure prediction by ZEFSAII (Michael W. Deem and Ramdas Pophale) SiO2 
 PCOD9456898
Probable space group: P B C N
;
_chemical_formula_sum "Si O2"
_cell_formula_units_Z 40
_cell_length_a 9.560817
_cell_length_b 20.714017
_cell_length_c 10.414671
_cell_angle_alpha 90.000000
_cell_angle_beta 90.000000
_cell_angle_gamma 90.000000
_cell_volume 2062.551917
_symmetry_space_group_name_H-M "P B C N"
_symmetry_group_IT_number 60
_symmetry_cell_setting 'orthorhombic'
loop_
_space_group_symop_operation_xyz
x,y,z
1/2-x,1/2-y,1/2+z
1/2+x,1/2-y,-z
-x,y,1/2-z
-x,-y,-z
1/2+x,1/2+y,1/2-z
1/2-x,1/2+y,z
x,-y,1/2+z
loop_
_atom_site_type_symbol
_atom_site_label
_atom_site_fract_x
_atom_site_fract_y
_atom_site_fract_z
Si Si1 0.020510 0.807404 0.902362
Si Si2 0.833713 0.371672 0.257501
Si Si3 0.271639 0.619632 0.030756
Si Si4 0.402048 0.003104 0.125955
Si Si5 0.236742 0.736274 0.560659
O O1 0.938704 0.870643 0.952873
O O2 0.927675 0.749283 0.963776
O O3 0.000000 0.804929 0.750000
O O4 0.176895 0.796625 0.947448
O O5 0.173118 0.434671 0.152335
O O6 0.755437 0.310765 0.318364
O O7 0.000000 0.357066 0.250000
O O8 0.774272 0.385973 0.117002
O O9 0.215499 0.689592 0.079900
O O10 0.207071 0.560607 0.107116
O O11 0.500000 0.013725 0.250000
O O12 0.500000 0.000000 0.000000
#
# Coordination Sequence:
#
# PCOD9456898 Si02
#       5
#     8   8   8   8   8
#     4  10  23  42  61  98 132 172 224 281 337 418
#     4  11  21  42  68  99 144 169 232 291 339 410
#     4  10  23  40  64 100 132 177 231 285 347 400
#     4  11  22  41  71  99 139 187 235 284 343 411
#     4  10  22  40  72  90 141 176 217 284 357 391
#
# _framework density 19.393450999999999
#
# number of rings (size 3 to 8) (size 9 to 14) (size 15 to 20)
#    1.200    0.400    4.000    3.000    0.000    2.400 
#    3.600    1.000    0.000    0.000    0.000    0.000 
#    0.000    0.000    0.000    0.000    0.000    0.000 
#
# Total GULP energy -222754.156737 kJ/mol
# GULP energy per Si atom -5568.853918 kJ/mol
# Density = 1.934931 g / cm^3
# Si number density = 19.393451 Si / 1000 Ang^3
#
#
#
# Elastic Constant Matrix: (Units=GPa)
#
#
# Indices 1 2 3 4 5 6 
#
# 1 34.4710 12.1075 29.7944 0.0000 0.0000 0.0000
# 2 12.1075 126.3682 30.5790 0.0000 0.0000 0.0000
# 3 29.7944 30.5790 99.7830 0.0000 0.0000 0.0000
# 4 0.0000 0.0000 0.0000 33.3894 0.0000 0.0000
# 5 0.0000 0.0000 0.0000 0.0000 29.1900 0.0000
# 6 0.0000 0.0000 0.0000 0.0000 0.0000 22.7655
#
#
#
# Elastic Compliance Matrix: (Units=1/GPa)
#
#
# Indices 1 2 3 4 5 6 
#
# 1 0.039217 -0.000998 -0.011404 0.000000 0.000000 0.000000
# 2 -0.000998 0.008573 -0.002329 0.000000 0.000000 0.000000
# 3 -0.011404 -0.002329 0.014141 0.000000 0.000000 0.000000
# 4 0.000000 0.000000 0.000000 0.029950 0.000000 0.000000
# 5 0.000000 0.000000 0.000000 0.000000 0.034258 0.000000
# 6 0.000000 0.000000 0.000000 0.000000 0.000000 0.043926
#
#
# Mechanical properties :
#
#
# Convention : Reuss Voigt Hill
#
# Bulk Modulus (GPa) = 30.79925 45.06488 37.93207
# Shear Modulus (GPa) = 23.76990 29.61172 26.69081
#
# Velocity S-wave (km/s) = 3.50475 3.91179 3.71385
# Velocity P-wave (km/s) = 5.68273 6.60987 6.16376
#
# Compressibility (1/GPa) = 0.03246832
#
# Stress axis : x y z
#
# Youngs Moduli (GPa) = 25.49889 116.65066 70.71774
#
# Poissons Ratio (x) = 0.11640 0.80648
# Poissons Ratio (y) = 0.02544 0.16471
# Poissons Ratio (z) = 0.29079 0.27170
#
# Static dielectric constant tensor:
#      x y z
#    x 1.710800 0.000000 0.000000 
#    y 0.000000 1.712150 0.000000 
#    z 0.000000 0.000000 1.672450 
# 
# From -- ./inp_files/9915.got.cif
#   From: 2010.05.17/outbox.cif.g08.bks.cpg/sg60_5_cif.got.tgz:9915.got - 2010.06.03 14:59:27.
