data_PCOD9456593
_publ_section_title
;
Structure prediction by ZEFSAII (Michael W. Deem and Ramdas Pophale) SiO2 
 PCOD9456593
Probable space group: P B C N
;
_chemical_formula_sum "Si O2"
_cell_formula_units_Z 40
_cell_length_a 23.447664
_cell_length_b 8.579069
_cell_length_c 8.938426
_cell_angle_alpha 90.000000
_cell_angle_beta 90.000000
_cell_angle_gamma 90.000000
_cell_volume 1798.045974
_symmetry_space_group_name_H-M "P B C N"
_symmetry_group_IT_number 60
_symmetry_cell_setting 'orthorhombic'
loop_
_space_group_symop_operation_xyz
x,y,z
1/2-x,1/2-y,1/2+z
1/2+x,1/2-y,-z
-x,y,1/2-z
-x,-y,-z
1/2+x,1/2+y,1/2-z
1/2-x,1/2+y,z
x,-y,1/2+z
loop_
_atom_site_type_symbol
_atom_site_label
_atom_site_fract_x
_atom_site_fract_y
_atom_site_fract_z
Si Si1 0.458999 0.431188 0.127735
Si Si2 0.168352 0.513937 0.150268
Si Si3 0.353254 0.215903 0.411892
Si Si4 0.884840 0.072304 0.127824
Si Si5 0.779355 0.709742 0.618452
O O1 0.500000 0.348726 0.250000
O O2 0.425853 0.561157 0.227810
O O3 0.500000 0.500000 0.000000
O O4 0.412601 0.350024 0.020250
O O5 0.131871 0.614898 0.266121
O O6 0.213344 0.414305 0.248175
O O7 0.133164 0.387538 0.055723
O O8 0.200479 0.624205 0.032901
O O9 0.376246 0.389689 0.409350
O O10 0.284469 0.232617 0.401836
O O11 0.824530 0.153837 0.154086
#
# Coordination Sequence:
#
# PCOD9456593 Si02
#       5
#     8   8   8   8   8
#     4   9  20  37  58  90 114 136 194 268 300 316
#     4  10  22  35  48  75 120 157 180 229 278 324
#     4  11  22  36  54  84 121 158 195 228 275 352
#     4  11  20  36  64  89 112 155 196 235 290 342
#     4  11  22  36  54  84 121 158 195 228 275 352
#
# _framework density 22.246371
#
# number of rings (size 3 to 8) (size 9 to 14) (size 15 to 20)
#    0.000    1.600    0.000    6.000    0.000    3.200 
#    0.000    0.000    0.000    0.000    0.000  352.800 
#    0.000    0.000    0.000    0.000    0.000    0.000 
#
# Total GULP energy -223384.201268 kJ/mol
# GULP energy per Si atom -5584.605032 kJ/mol
# Density = 2.219574 g / cm^3
# Si number density = 22.246371 Si / 1000 Ang^3
#
#
#
# Elastic Constant Matrix: (Units=GPa)
#
#
# Indices 1 2 3 4 5 6 
#
# 1 83.3634 13.5628 23.7568 0.0000 0.0000 0.0000
# 2 13.5628 92.9003 30.2449 0.0000 0.0000 0.0000
# 3 23.7568 30.2449 141.5440 0.0000 0.0000 0.0000
# 4 0.0000 0.0000 0.0000 44.0553 0.0000 0.0000
# 5 0.0000 0.0000 0.0000 0.0000 19.5535 0.0000
# 6 0.0000 0.0000 0.0000 0.0000 0.0000 11.6045
#
#
#
# Elastic Compliance Matrix: (Units=1/GPa)
#
#
# Indices 1 2 3 4 5 6 
#
# 1 0.012732 -0.001250 -0.001870 0.000000 0.000000 0.000000
# 2 -0.001250 0.011692 -0.002288 0.000000 0.000000 0.000000
# 3 -0.001870 -0.002288 0.007868 0.000000 0.000000 0.000000
# 4 0.000000 0.000000 0.000000 0.022699 0.000000 0.000000
# 5 0.000000 0.000000 0.000000 0.000000 0.051142 0.000000
# 6 0.000000 0.000000 0.000000 0.000000 0.000000 0.086173
#
#
# Mechanical properties :
#
#
# Convention : Reuss Voigt Hill
#
# Bulk Modulus (GPa) = 46.56623 50.32630 48.44626
# Shear Modulus (GPa) = 23.77781 31.72555 27.75168
#
# Velocity S-wave (km/s) = 3.27286 3.78047 3.53579
# Velocity P-wave (km/s) = 5.93798 6.45967 6.20431
#
# Compressibility (1/GPa) = 0.02147479
#
# Stress axis : x y z
#
# Youngs Moduli (GPa) = 78.54285 85.53026 127.10082
#
# Poissons Ratio (x) = 0.10692 0.23766
# Poissons Ratio (y) = 0.09818 0.29087
# Poissons Ratio (z) = 0.14686 0.19573
#
# Static dielectric constant tensor:
#      x y z
#    x 1.842870 0.000000 0.000000 
#    y 0.000000 1.814320 0.000000 
#    z 0.000000 0.000000 1.882790 
# 
# From -- ./inp_files/7725.got.cif
#   From: 2010.05.17/outbox.cif.g08.bks.cpg/sg60_4_cif.got.tgz:7725.got - 2010.06.03 14:59:27.
