data_PCOD9456085
_publ_section_title
;
Structure prediction by ZEFSAII (Michael W. Deem and Ramdas Pophale) SiO2 
 PCOD9456085
Probable space group: P B C N
;
_chemical_formula_sum "Si O2"
_cell_formula_units_Z 64
_cell_length_a 29.821778
_cell_length_b 11.706185
_cell_length_c 8.443902
_cell_angle_alpha 90.000000
_cell_angle_beta 90.000000
_cell_angle_gamma 90.000000
_cell_volume 2947.759858
_symmetry_space_group_name_H-M "P B C N"
_symmetry_group_IT_number 60
_symmetry_cell_setting 'orthorhombic'
loop_
_space_group_symop_operation_xyz
x,y,z
1/2-x,1/2-y,1/2+z
1/2+x,1/2-y,-z
-x,y,1/2-z
-x,-y,-z
1/2+x,1/2+y,1/2-z
1/2-x,1/2+y,z
x,-y,1/2+z
loop_
_atom_site_type_symbol
_atom_site_label
_atom_site_fract_x
_atom_site_fract_y
_atom_site_fract_z
Si Si1 0.876080 0.833864 0.052787
Si Si2 0.705277 0.796461 0.713386
Si Si3 0.121962 0.073885 0.307305
Si Si4 0.907287 0.468021 0.909848
Si Si5 0.444542 0.247429 0.924074
Si Si6 0.044024 0.685686 0.553924
Si Si7 0.343714 0.980508 0.342475
Si Si8 0.195689 0.759836 0.916565
O O1 0.831362 0.767130 0.103479
O O2 0.881358 0.939130 0.172306
O O3 0.876003 0.887156 0.875722
O O4 0.918051 0.748017 0.048581
O O5 0.694527 0.930953 0.701185
O O6 0.754916 0.769842 0.654761
O O7 0.698608 0.760869 0.895627
O O8 0.080916 0.132936 0.404043
O O9 0.166764 0.127494 0.382940
O O10 0.948184 0.549985 0.956132
O O11 0.892664 0.488431 0.730270
O O12 0.916817 0.340464 0.967168
O O13 0.858183 0.503620 0.976352
O O14 0.495521 0.237351 0.983684
O O15 0.446876 0.208188 0.740429
O O16 0.329185 0.848866 0.334751
#
# Coordination Sequence:
#
# PCOD9456085 Si02
#       8
#     8   8   8   8   8   8   8   8
#     4  11  24  43  68  93 131 177 222 275 331 392
#     4  12  27  44  69  98 132 170 221 270 331 393
#     4  11  23  44  66  92 131 176 223 275 331 392
#     4  12  20  41  67  97 135 174 212 270 334 392
#     4  10  21  39  64  97 134 172 224 274 331 391
#     4  10  21  38  65  98 131 176 221 276 331 391
#     4  12  24  42  71  96 134 170 212 269 333 387
#     4  12  27  45  69  99 131 172 220 275 326 401
#
# _framework density 21.711404000000002
#
# number of rings (size 3 to 8) (size 9 to 14) (size 15 to 20)
#    0.000    0.750    5.000    2.625    3.500    0.500 
#    0.000    0.000    0.000    0.000    0.000    0.000 
#    0.000    0.000    0.000    0.000    0.000    0.000 
#
# Total GULP energy -357421.944707 kJ/mol
# GULP energy per Si atom -5584.717886 kJ/mol
# Density = 2.166199 g / cm^3
# Si number density = 21.711404 Si / 1000 Ang^3
#
#
#
# Elastic Constant Matrix: (Units=GPa)
#
#
# Indices 1 2 3 4 5 6 
#
# 1 121.3942 24.5792 22.9952 0.0000 0.0000 0.0000
# 2 24.5792 78.0679 4.7875 0.0000 0.0000 0.0000
# 3 22.9952 4.7875 48.7487 0.0000 0.0000 0.0000
# 4 0.0000 0.0000 0.0000 32.3668 0.0000 0.0000
# 5 0.0000 0.0000 0.0000 0.0000 29.2384 0.0000
# 6 0.0000 0.0000 0.0000 0.0000 0.0000 14.2823
#
#
#
# Elastic Compliance Matrix: (Units=1/GPa)
#
#
# Indices 1 2 3 4 5 6 
#
# 1 0.009604 -0.002762 -0.004259 0.000000 0.000000 0.000000
# 2 -0.002762 0.013682 -0.000041 0.000000 0.000000 0.000000
# 3 -0.004259 -0.000041 0.022526 0.000000 0.000000 0.000000
# 4 0.000000 0.000000 0.000000 0.030896 0.000000 0.000000
# 5 0.000000 0.000000 0.000000 0.000000 0.034202 0.000000
# 6 0.000000 0.000000 0.000000 0.000000 0.000000 0.070017
#
#
# Mechanical properties :
#
#
# Convention : Reuss Voigt Hill
#
# Bulk Modulus (GPa) = 31.55787 39.21494 35.38640
# Shear Modulus (GPa) = 24.31763 28.23409 26.27586
#
# Velocity S-wave (km/s) = 3.35033 3.61006 3.48261
# Velocity P-wave (km/s) = 5.43443 5.95632 5.70135
#
# Compressibility (1/GPa) = 0.03168782
#
# Stress axis : x y z
#
# Youngs Moduli (GPa) = 104.12658 73.09085 44.39255
#
# Poissons Ratio (x) = 0.20191 0.18906
# Poissons Ratio (y) = 0.28765 0.00180
# Poissons Ratio (z) = 0.44346 0.00296
#
# Static dielectric constant tensor:
#      x y z
#    x 1.768160 0.000000 0.000000 
#    y 0.000000 1.764770 0.000000 
#    z 0.000000 0.000000 1.797680 
# 
# From -- ./inp_files/8516.got.cif
#   From: 2010.05.17/outbox.cif.g08.bks.cpg/sg60_5_cif.got.tgz:8516.got - 2010.06.03 14:59:27.
