data_PCOD9456444
_publ_section_title
;
Structure prediction by ZEFSAII (Michael W. Deem and Ramdas Pophale) SiO2 
 PCOD9456444
Probable space group: P B C N
;
_chemical_formula_sum "Si O2"
_cell_formula_units_Z 56
_cell_length_a 29.921319
_cell_length_b 15.888534
_cell_length_c 5.274070
_cell_angle_alpha 90.000000
_cell_angle_beta 90.000000
_cell_angle_gamma 90.000000
_cell_volume 2507.323965
_symmetry_space_group_name_H-M "P B C N"
_symmetry_group_IT_number 60
_symmetry_cell_setting 'orthorhombic'
loop_
_space_group_symop_operation_xyz
x,y,z
1/2-x,1/2-y,1/2+z
1/2+x,1/2-y,-z
-x,y,1/2-z
-x,-y,-z
1/2+x,1/2+y,1/2-z
1/2-x,1/2+y,z
x,-y,1/2+z
loop_
_atom_site_type_symbol
_atom_site_label
_atom_site_fract_x
_atom_site_fract_y
_atom_site_fract_z
Si Si1 0.307738 0.545942 0.797304
Si Si2 0.500000 0.053833 0.750000
Si Si3 0.331245 0.940268 0.455583
Si Si4 0.749832 0.805695 0.055762
Si Si5 0.457622 0.317873 0.643998
Si Si6 0.923036 0.337447 0.083441
Si Si7 0.000000 0.304539 0.750000
Si Si8 0.914787 0.956543 0.191740
O O1 0.291222 0.484474 0.022676
O O2 0.292568 0.638863 0.867178
O O3 0.361201 0.541787 0.796918
O O4 0.545143 0.107976 0.765382
O O5 0.500000 0.000000 0.500000
O O6 0.290204 0.874057 0.454931
O O7 0.375716 0.881846 0.445523
O O8 0.330237 0.998891 0.707677
O O9 0.743416 0.739549 0.285496
O O10 0.500000 0.371049 0.750000
O O11 0.425050 0.260139 0.820018
O O12 0.487289 0.252448 0.485364
O O13 0.430345 0.371465 0.440890
O O14 0.953348 0.345645 0.830729
O O15 0.929228 0.973780 0.480553
#
# Coordination Sequence:
#
# PCOD9456444 Si02
#       8
#     8   4   8   8   8   8   4   8
#     4  10  21  43  69  94 133 176 214 273 339 405
#     4  12  23  38  62  89 126 172 224 266 313 392
#     4  12  28  48  71 106 146 183 228 293 356 405
#     4  12  26  45  73 107 136 179 229 275 345 419
#     4  10  23  40  63  92 134 181 224 287 342 398
#     4  11  24  41  66  97 136 183 236 278 341 402
#     4  10  21  42  64  93 134 188 234 276 343 394
#     4  10  24  41  64  97 126 170 226 274 342 408
#
# _framework density 22.334571
#
# number of rings (size 3 to 8) (size 9 to 14) (size 15 to 20)
#    0.000    1.143    2.143    3.857    8.000    1.714 
#    0.000    0.000    0.000    0.000    0.000    0.000 
#    0.000    0.000    0.000    0.000    0.000    0.000 
#
# Total GULP energy -312500.260051 kJ/mol
# GULP energy per Si atom -5580.361787 kJ/mol
# Density = 2.228374 g / cm^3
# Si number density = 22.334571 Si / 1000 Ang^3
#
#
#
# Elastic Constant Matrix: (Units=GPa)
#
#
# Indices 1 2 3 4 5 6 
#
# 1 80.6150 40.8942 42.1971 0.0000 0.0000 0.0000
# 2 40.8942 63.1846 1.1271 0.0000 0.0000 0.0000
# 3 42.1971 1.1271 80.0139 0.0000 0.0000 0.0000
# 4 0.0000 0.0000 0.0000 94.4987 0.0000 0.0000
# 5 0.0000 0.0000 0.0000 0.0000 21.8236 0.0000
# 6 0.0000 0.0000 0.0000 0.0000 0.0000 232.9958
#
#
#
# Elastic Compliance Matrix: (Units=1/GPa)
#
#
# Indices 1 2 3 4 5 6 
#
# 1 0.030627 -0.019539 -0.015876 0.000000 0.000000 0.000000
# 2 -0.019539 0.028296 0.009906 0.000000 0.000000 0.000000
# 3 -0.015876 0.009906 0.020731 0.000000 0.000000 0.000000
# 4 0.000000 0.000000 0.000000 0.010582 0.000000 0.000000
# 5 0.000000 0.000000 0.000000 0.000000 0.045822 0.000000
# 6 0.000000 0.000000 0.000000 0.000000 0.000000 0.004292
#
#
# Mechanical properties :
#
#
# Convention : Reuss Voigt Hill
#
# Bulk Modulus (GPa) = 34.92310 43.58338 39.25324
# Shear Modulus (GPa) = 24.88628 79.16996 52.02812
#
# Velocity S-wave (km/s) = 3.34166 5.96022 4.83171
# Velocity P-wave (km/s) = 5.52804 8.18058 6.98144
#
# Compressibility (1/GPa) = 0.02863434
#
# Stress axis : x y z
#
# Youngs Moduli (GPa) = 32.65125 35.34078 48.23673
#
# Poissons Ratio (x) = 0.69052 0.76583
# Poissons Ratio (y) = 0.63797 -0.47782
# Poissons Ratio (z) = 0.51839 -0.35008
#
# Static dielectric constant tensor:
#      x y z
#    x 1.830450 0.000000 0.000000 
#    y 0.000000 1.915760 0.000000 
#    z 0.000000 0.000000 1.877160 
# 
# From -- ./inp_files/2714.got.cif
#   From: 2010.05.17/outbox.cif.g08.bks.cpg/sg60_2_cif.got.tgz:2714.got - 2010.06.03 14:59:27.
