data_PCOD9456184
_publ_section_title
;
Structure prediction by ZEFSAII (Michael W. Deem and Ramdas Pophale) SiO2 
 PCOD9456184
Probable space group: P B C N
;
_chemical_formula_sum "Si O2"
_cell_formula_units_Z 60
_cell_length_a 7.819636
_cell_length_b 27.485424
_cell_length_c 13.099319
_cell_angle_alpha 90.000000
_cell_angle_beta 90.000000
_cell_angle_gamma 90.000000
_cell_volume 2815.384379
_symmetry_space_group_name_H-M "P B C N"
_symmetry_group_IT_number 60
_symmetry_cell_setting 'orthorhombic'
loop_
_space_group_symop_operation_xyz
x,y,z
1/2-x,1/2-y,1/2+z
1/2+x,1/2-y,-z
-x,y,1/2-z
-x,-y,-z
1/2+x,1/2+y,1/2-z
1/2-x,1/2+y,z
x,-y,1/2+z
loop_
_atom_site_type_symbol
_atom_site_label
_atom_site_fract_x
_atom_site_fract_y
_atom_site_fract_z
Si Si1 0.611234 0.784983 0.490701
Si Si2 0.000000 0.097880 0.250000
Si Si3 0.433848 0.551327 0.039438
Si Si4 0.425389 0.862265 0.362279
Si Si5 0.026220 0.557416 0.018667
Si Si6 0.473913 0.614566 0.855166
Si Si7 0.648152 0.865227 0.666599
Si Si8 0.423058 0.278864 0.142575
O O1 0.467267 0.815663 0.431438
O O2 0.671779 0.823818 0.578575
O O3 0.739037 0.766236 0.402901
O O4 0.547123 0.739109 0.553836
O O5 0.987360 0.063821 0.347847
O O6 0.825781 0.127711 0.227796
O O7 0.229953 0.559665 0.038039
O O8 0.500000 0.500000 0.000000
O O9 0.516521 0.588091 0.958679
O O10 0.500000 0.856184 0.250000
O O11 0.504982 0.909779 0.417836
O O12 0.223544 0.870270 0.358292
O O13 0.919245 0.585345 0.107720
O O14 0.000000 0.500000 0.000000
O O15 0.500000 0.585270 0.750000
O O16 0.583869 0.663109 0.848458
O O17 0.500000 0.853269 0.750000
O O18 0.500000 0.260943 0.250000
#
# Coordination Sequence:
#
# PCOD9456184 Si02
#       8
#     8   4   8   8   8   8   8   8
#     4  11  24  43  68  98 134 172 223 281 341 414
#     4  12  24  42  70 100 134 184 228 284 352 418
#     4  11  24  41  64 100 134 175 233 274 335 410
#     4  10  21  39  65  92 123 174 219 266 332 394
#     4  10  22  41  62  93 138 177 219 287 336 397
#     4  10  22  41  66  90 131 171 212 274 330 389
#     4  11  23  45  69  98 140 180 229 287 353 415
#     4  11  23  43  66  97 132 171 218 278 337 407
#
# _framework density 21.311475999999999
#
# number of rings (size 3 to 8) (size 9 to 14) (size 15 to 20)
#    0.000    1.333    1.333    4.400    0.933    3.733 
#    9.600    0.000    1.467    0.000    0.000    0.000 
#    0.000    0.000    0.000    0.000    0.000    0.000 
#
# Total GULP energy -334882.180682 kJ/mol
# GULP energy per Si atom -5581.369678 kJ/mol
# Density = 2.126297 g / cm^3
# Si number density = 21.311476 Si / 1000 Ang^3
#
#
#
# Elastic Constant Matrix: (Units=GPa)
#
#
# Indices 1 2 3 4 5 6 
#
# 1 84.7658 -2.9436 33.6967 0.0000 0.0000 0.0000
# 2 -2.9436 46.8984 29.3310 0.0000 0.0000 0.0000
# 3 33.6967 29.3310 164.9717 0.0000 0.0000 0.0000
# 4 0.0000 0.0000 0.0000 57.6257 0.0000 0.0000
# 5 0.0000 0.0000 0.0000 0.0000 41.8597 0.0000
# 6 0.0000 0.0000 0.0000 0.0000 0.0000 24.7803
#
#
#
# Elastic Compliance Matrix: (Units=1/GPa)
#
#
# Indices 1 2 3 4 5 6 
#
# 1 0.013163 0.002822 -0.003190 0.000000 0.000000 0.000000
# 2 0.002822 0.024595 -0.004949 0.000000 0.000000 0.000000
# 3 -0.003190 -0.004949 0.007593 0.000000 0.000000 0.000000
# 4 0.000000 0.000000 0.000000 0.017353 0.000000 0.000000
# 5 0.000000 0.000000 0.000000 0.000000 0.023889 0.000000
# 6 0.000000 0.000000 0.000000 0.000000 0.000000 0.040355
#
#
# Mechanical properties :
#
#
# Convention : Reuss Voigt Hill
#
# Bulk Modulus (GPa) = 28.80541 46.31157 37.55849
# Shear Modulus (GPa) = 33.52173 40.62328 37.07250
#
# Velocity S-wave (km/s) = 3.97034 4.37071 4.17532
# Velocity P-wave (km/s) = 5.87910 6.87377 6.39580
#
# Compressibility (1/GPa) = 0.03471570
#
# Stress axis : x y z
#
# Youngs Moduli (GPa) = 75.96787 40.65855 131.69605
#
# Poissons Ratio (x) = -0.11472 0.42016
# Poissons Ratio (y) = -0.21435 0.65179
# Poissons Ratio (z) = 0.24237 0.20123
#
# Static dielectric constant tensor:
#      x y z
#    x 1.865260 0.000000 0.000000 
#    y 0.000000 1.756740 0.000000 
#    z 0.000000 0.000000 1.781240 
# 
# From -- ./inp_files/10275.got.cif
#   From: 2010.05.17/outbox.cif.g08.bks.cpg/sg60_6_cif.got.tgz:10275.got - 2010.06.03 14:59:27.
