data_PCOD9456931
_publ_section_title
;
Structure prediction by ZEFSAII (Michael W. Deem and Ramdas Pophale) SiO2 
 PCOD9456931
Probable space group: P B C N
;
_chemical_formula_sum "Si O2"
_cell_formula_units_Z 64
_cell_length_a 14.761151
_cell_length_b 23.445441
_cell_length_c 8.200515
_cell_angle_alpha 90.000000
_cell_angle_beta 90.000000
_cell_angle_gamma 90.000000
_cell_volume 2838.048130
_symmetry_space_group_name_H-M "P B C N"
_symmetry_group_IT_number 60
_symmetry_cell_setting 'orthorhombic'
loop_
_space_group_symop_operation_xyz
x,y,z
1/2-x,1/2-y,1/2+z
1/2+x,1/2-y,-z
-x,y,1/2-z
-x,-y,-z
1/2+x,1/2+y,1/2-z
1/2-x,1/2+y,z
x,-y,1/2+z
loop_
_atom_site_type_symbol
_atom_site_label
_atom_site_fract_x
_atom_site_fract_y
_atom_site_fract_z
Si Si1 0.064894 0.633860 0.998607
Si Si2 0.380500 0.843056 0.124648
Si Si3 0.867268 0.119097 0.362331
Si Si4 0.443432 0.627890 0.499440
Si Si5 0.719941 0.955273 0.984537
Si Si6 0.226951 0.073030 0.644189
Si Si7 0.879585 0.245330 0.887707
Si Si8 0.190711 0.234194 0.975182
O O1 0.095589 0.650734 0.814566
O O2 0.126200 0.579281 0.044061
O O3 0.957594 0.624812 0.979606
O O4 0.080488 0.690845 0.104253
O O5 0.282847 0.870480 0.099556
O O6 0.373902 0.777946 0.070717
O O7 0.901322 0.131230 0.181505
O O8 0.795263 0.068910 0.361729
O O9 0.817340 0.173054 0.441166
O O10 0.954611 0.106361 0.474512
O O11 0.377082 0.586950 0.602275
O O12 0.443896 0.692460 0.568052
O O13 0.754665 0.939997 0.166014
O O14 0.724930 0.022371 0.955838
O O15 0.839481 0.233435 0.710271
O O16 0.794329 0.246161 0.010320
#
# Coordination Sequence:
#
# PCOD9456931 Si02
#       8
#     8   8   8   8   8   8   8   8
#     4  10  22  41  64  92 126 164 205 252 307 365
#     4  10  22  41  64  92 126 164 205 252 307 365
#     4  11  24  42  65  93 126 163 204 255 311 369
#     4  11  24  42  65  93 126 163 204 255 311 369
#     4  11  24  42  65  90 122 165 210 260 308 362
#     4  11  24  42  65  90 122 165 210 260 308 362
#     4  12  23  37  62  94 128 165 204 250 307 369
#     4  12  23  37  62  94 128 165 204 250 307 369
#
# _framework density 22.550709999999999
#
# number of rings (size 3 to 8) (size 9 to 14) (size 15 to 20)
#    0.000    1.000    2.500    4.500    0.000    7.500 
#    0.000    0.000    0.000    0.000    0.000    0.000 
#    0.000    0.000    0.000    0.000    0.000    0.000 
#
# Total GULP energy -358192.316822 kJ/mol
# GULP energy per Si atom -5596.754950 kJ/mol
# Density = 2.249938 g / cm^3
# Si number density = 22.550710 Si / 1000 Ang^3
#
#
#
# Elastic Constant Matrix: (Units=GPa)
#
#
# Indices 1 2 3 4 5 6 
#
# 1 56.1214 -7.4895 -6.3828 0.0000 0.0000 0.0000
# 2 -7.4895 67.8353 8.8847 0.0000 0.0000 0.0000
# 3 -6.3828 8.8847 48.6543 0.0000 0.0000 0.0000
# 4 0.0000 0.0000 0.0000 23.2437 0.0000 0.0000
# 5 0.0000 0.0000 0.0000 0.0000 18.0361 0.0000
# 6 0.0000 0.0000 0.0000 0.0000 0.0000 6.2707
#
#
#
# Elastic Compliance Matrix: (Units=1/GPa)
#
#
# Indices 1 2 3 4 5 6 
#
# 1 0.018288 0.001747 0.002080 0.000000 0.000000 0.000000
# 2 0.001747 0.015270 -0.002559 0.000000 0.000000 0.000000
# 3 0.002080 -0.002559 0.021293 0.000000 0.000000 0.000000
# 4 0.000000 0.000000 0.000000 0.043022 0.000000 0.000000
# 5 0.000000 0.000000 0.000000 0.000000 0.055444 0.000000
# 6 0.000000 0.000000 0.000000 0.000000 0.000000 0.159472
#
#
# Mechanical properties :
#
#
# Convention : Reuss Voigt Hill
#
# Bulk Modulus (GPa) = 17.42568 18.07065 17.74816
# Shear Modulus (GPa) = 15.17988 21.35001 18.26495
#
# Velocity S-wave (km/s) = 2.59732 3.08028 2.84905
# Velocity P-wave (km/s) = 4.09131 4.54770 4.32553
#
# Compressibility (1/GPa) = 0.05738658
#
# Stress axis : x y z
#
# Youngs Moduli (GPa) = 54.68005 65.48953 46.96293
#
# Poissons Ratio (x) = -0.11439 -0.09769
# Poissons Ratio (y) = -0.09551 0.12019
# Poissons Ratio (z) = -0.11375 0.16760
#
# Static dielectric constant tensor:
#      x y z
#    x 1.847510 0.000000 0.000000 
#    y 0.000000 1.805300 0.000000 
#    z 0.000000 0.000000 1.829380 
# 
# From -- ./inp_files/6304.got.cif
#   From: 2010.05.17/outbox.cif.g08.bks.cpg/sg60_4_cif.got.tgz:6304.got - 2010.06.03 14:59:27.
