data_PCOD9456437
_publ_section_title
;
Structure prediction by ZEFSAII (Michael W. Deem and Ramdas Pophale) SiO2 
 PCOD9456437
Probable space group: P B C N
;
_chemical_formula_sum "Si O2"
_cell_formula_units_Z 56
_cell_length_a 8.045124
_cell_length_b 14.641074
_cell_length_c 20.423219
_cell_angle_alpha 90.000000
_cell_angle_beta 90.000000
_cell_angle_gamma 90.000000
_cell_volume 2405.635768
_symmetry_space_group_name_H-M "P B C N"
_symmetry_group_IT_number 60
_symmetry_cell_setting 'orthorhombic'
loop_
_space_group_symop_operation_xyz
x,y,z
1/2-x,1/2-y,1/2+z
1/2+x,1/2-y,-z
-x,y,1/2-z
-x,-y,-z
1/2+x,1/2+y,1/2-z
1/2-x,1/2+y,z
x,-y,1/2+z
loop_
_atom_site_type_symbol
_atom_site_label
_atom_site_fract_x
_atom_site_fract_y
_atom_site_fract_z
Si Si1 0.228376 0.323221 0.375856
Si Si2 0.430179 0.412546 0.571124
Si Si3 0.119358 0.417844 0.487308
Si Si4 0.111222 0.014785 0.814247
Si Si5 0.459771 0.715326 0.538025
Si Si6 0.174195 0.290714 0.654735
Si Si7 0.797136 0.332803 0.697512
O O1 0.109670 0.394570 0.410325
O O2 0.325081 0.382482 0.322354
O O3 0.354987 0.299896 0.434811
O O4 0.172330 0.228222 0.346155
O O5 0.296555 0.449047 0.517862
O O6 0.522146 0.484822 0.617640
O O7 0.549938 0.349117 0.525550
O O8 0.308816 0.355953 0.620146
O O9 0.064155 0.321226 0.518922
O O10 0.000000 0.500000 0.500000
O O11 0.250968 0.938082 0.802977
O O12 0.000000 0.008926 0.750000
O O13 0.342968 0.706634 0.602764
O O14 0.220613 0.288129 0.730874
O O15 0.980325 0.322284 0.665411
#
# Coordination Sequence:
#
# PCOD9456437 Si02
#       7
#     8   8   8   8   8   8   8
#     4  10  24  39  66 101 127 180 221 275 342 400
#     4  10  21  42  63  98 129 169 224 276 339 397
#     4  10  22  42  65  98 134 175 226 275 337 409
#     4  12  25  41  68 101 137 178 228 282 340 408
#     4   9  20  39  64  90 132 167 218 273 334 397
#     4   9  19  38  68  94 123 183 217 265 352 390
#     4  10  21  42  69  89 139 175 225 281 333 411
#
# _framework density 23.278672
#
# number of rings (size 3 to 8) (size 9 to 14) (size 15 to 20)
#    0.000    2.000    1.429    0.857   10.000    3.429 
#   10.286    0.000    3.143    0.000    0.000    0.000 
#    0.000    0.000    0.000    0.000    0.000    0.000 
#
# Total GULP energy -312174.087589 kJ/mol
# GULP energy per Si atom -5574.537278 kJ/mol
# Density = 2.322569 g / cm^3
# Si number density = 23.278672 Si / 1000 Ang^3
#
#
#
# Elastic Constant Matrix: (Units=GPa)
#
#
# Indices 1 2 3 4 5 6 
#
# 1 30.8560 16.0706 24.3348 0.0000 0.0000 0.0000
# 2 16.0706 79.1283 22.5232 0.0000 0.0000 0.0000
# 3 24.3348 22.5232 125.3885 0.0000 0.0000 0.0000
# 4 0.0000 0.0000 0.0000 19.2518 0.0000 0.0000
# 5 0.0000 0.0000 0.0000 0.0000 39.0422 0.0000
# 6 0.0000 0.0000 0.0000 0.0000 0.0000 30.4459
#
#
#
# Elastic Compliance Matrix: (Units=1/GPa)
#
#
# Indices 1 2 3 4 5 6 
#
# 1 0.041135 -0.006410 -0.006832 0.000000 0.000000 0.000000
# 2 -0.006410 0.014317 -0.001328 0.000000 0.000000 0.000000
# 3 -0.006832 -0.001328 0.009540 0.000000 0.000000 0.000000
# 4 0.000000 0.000000 0.000000 0.051943 0.000000 0.000000
# 5 0.000000 0.000000 0.000000 0.000000 0.025613 0.000000
# 6 0.000000 0.000000 0.000000 0.000000 0.000000 0.032845
#
#
# Mechanical properties :
#
#
# Convention : Reuss Voigt Hill
#
# Bulk Modulus (GPa) = 27.89154 40.13668 34.01411
# Shear Modulus (GPa) = 23.09642 29.24426 26.17034
#
# Velocity S-wave (km/s) = 3.15329 3.54823 3.35658
# Velocity P-wave (km/s) = 5.02646 5.83660 5.44661
#
# Compressibility (1/GPa) = 0.03585317
#
# Stress axis : x y z
#
# Youngs Moduli (GPa) = 24.31019 69.84490 104.82569
#
# Poissons Ratio (x) = 0.44768 0.71616
# Poissons Ratio (y) = 0.15582 0.13919
# Poissons Ratio (z) = 0.16609 0.09274
#
# Static dielectric constant tensor:
#      x y z
#    x 1.957670 0.000000 0.000000 
#    y 0.000000 1.866410 0.000000 
#    z 0.000000 0.000000 1.958590 
# 
# From -- ./inp_files/22234.got.cif
#   From: 2010.05.17/outbox.cif.g08.bks.cpg/sg60_12_cif.got.tgz:22234.got - 2010.06.03 14:59:27.
