data_PCOD9456500
_publ_section_title
;
Structure prediction by ZEFSAII (Michael W. Deem and Ramdas Pophale) SiO2 
 PCOD9456500
Probable space group: P B C N
;
_chemical_formula_sum "Si O2"
_cell_formula_units_Z 36
_cell_length_a 7.108990
_cell_length_b 9.481253
_cell_length_c 21.386580
_cell_angle_alpha 90.000000
_cell_angle_beta 90.000000
_cell_angle_gamma 90.000000
_cell_volume 1441.501105
_symmetry_space_group_name_H-M "P B C N"
_symmetry_group_IT_number 60
_symmetry_cell_setting 'orthorhombic'
loop_
_space_group_symop_operation_xyz
x,y,z
1/2-x,1/2-y,1/2+z
1/2+x,1/2-y,-z
-x,y,1/2-z
-x,-y,-z
1/2+x,1/2+y,1/2-z
1/2-x,1/2+y,z
x,-y,1/2+z
loop_
_atom_site_type_symbol
_atom_site_label
_atom_site_fract_x
_atom_site_fract_y
_atom_site_fract_z
Si Si1 0.935508 0.668730 0.862130
Si Si2 0.165320 0.107033 0.928860
Si Si3 0.500000 0.963297 0.750000
Si Si4 0.095796 0.050934 0.308085
Si Si5 0.662491 0.117614 0.992896
O O1 0.914731 0.554557 0.807503
O O2 0.795020 0.656749 0.920994
O O3 0.128769 0.646306 0.900720
O O4 0.969986 0.814764 0.826897
O O5 0.075737 0.055564 0.865047
O O6 0.108894 0.243175 0.968539
O O7 0.175557 0.967064 0.971365
O O8 0.689941 0.903977 0.713718
O O9 0.000000 0.977097 0.250000
O O10 0.500000 0.000000 0.000000
#
# Coordination Sequence:
#
# PCOD9456500 Si02
#       5
#     8   8   4   8   8
#     4  10  21  43  68  99 147 188 251 315 370 459
#     4  10  21  44  67 101 146 195 252 316 385 455
#     4  10  24  46  66 102 154 190 246 326 372 460
#     4  11  23  45  75 108 149 204 257 311 389 464
#     4  10  22  41  69  99 144 198 244 319 384 451
#
# _framework density 24.973966999999998
#
# number of rings (size 3 to 8) (size 9 to 14) (size 15 to 20)
#    0.000    1.778    3.333    0.000    0.000    2.667 
#   16.000    0.000    0.000    0.000    0.000    0.000 
#    0.000    0.000    0.000    0.000    0.000    0.000 
#
# Total GULP energy -200764.831118 kJ/mol
# GULP energy per Si atom -5576.800864 kJ/mol
# Density = 2.491713 g / cm^3
# Si number density = 24.973967 Si / 1000 Ang^3
#
#
#
# Elastic Constant Matrix: (Units=GPa)
#
#
# Indices 1 2 3 4 5 6 
#
# 1 65.6341 20.9437 48.4219 0.0000 0.0000 0.0000
# 2 20.9437 119.9444 76.6111 0.0000 0.0000 0.0000
# 3 48.4219 76.6111 228.3709 0.0000 0.0000 0.0000
# 4 0.0000 0.0000 0.0000 37.5293 0.0000 0.0000
# 5 0.0000 0.0000 0.0000 0.0000 48.6612 0.0000
# 6 0.0000 0.0000 0.0000 0.0000 0.0000 211.9554
#
#
#
# Elastic Compliance Matrix: (Units=1/GPa)
#
#
# Indices 1 2 3 4 5 6 
#
# 1 0.018138 -0.000904 -0.003542 0.000000 0.000000 0.000000
# 2 -0.000904 0.010656 -0.003383 0.000000 0.000000 0.000000
# 3 -0.003542 -0.003383 0.006265 0.000000 0.000000 0.000000
# 4 0.000000 0.000000 0.000000 0.026646 0.000000 0.000000
# 5 0.000000 0.000000 0.000000 0.000000 0.020550 0.000000
# 6 0.000000 0.000000 0.000000 0.000000 0.000000 0.004718
#
#
# Mechanical properties :
#
#
# Convention : Reuss Voigt Hill
#
# Bulk Modulus (GPa) = 51.54888 78.43364 64.99126
# Shear Modulus (GPa) = 45.83002 77.49403 61.66202
#
# Velocity S-wave (km/s) = 4.28847 5.57649 4.97435
# Velocity P-wave (km/s) = 6.72362 8.54034 7.68585
#
# Compressibility (1/GPa) = 0.01939907
#
# Stress axis : x y z
#
# Youngs Moduli (GPa) = 55.13275 93.84489 159.62187
#
# Poissons Ratio (x) = 0.08488 0.56545
# Poissons Ratio (y) = 0.04987 0.53999
# Poissons Ratio (z) = 0.19530 0.31747
#
# Static dielectric constant tensor:
#      x y z
#    x 2.609580 0.000000 0.000000 
#    y 0.000000 1.949250 0.000000 
#    z 0.000000 0.000000 2.237470 
# 
# From -- ./inp_files/21943.got.cif
#   From: 2010.05.17/outbox.cif.g08.bks.cpg/sg60_11_cif.got.tgz:21943.got - 2010.06.03 14:59:27.
