data_PCOD9456459
_publ_section_title
;
Structure prediction by ZEFSAII (Michael W. Deem and Ramdas Pophale) SiO2 
 PCOD9456459
Probable space group: P B C N
;
_chemical_formula_sum "Si O2"
_cell_formula_units_Z 60
_cell_length_a 14.288172
_cell_length_b 16.883149
_cell_length_c 10.515241
_cell_angle_alpha 90.000000
_cell_angle_beta 90.000000
_cell_angle_gamma 90.000000
_cell_volume 2536.584613
_symmetry_space_group_name_H-M "P B C N"
_symmetry_group_IT_number 60
_symmetry_cell_setting 'orthorhombic'
loop_
_space_group_symop_operation_xyz
x,y,z
1/2-x,1/2-y,1/2+z
1/2+x,1/2-y,-z
-x,y,1/2-z
-x,-y,-z
1/2+x,1/2+y,1/2-z
1/2-x,1/2+y,z
x,-y,1/2+z
loop_
_atom_site_type_symbol
_atom_site_label
_atom_site_fract_x
_atom_site_fract_y
_atom_site_fract_z
Si Si1 0.225504 0.588480 0.275768
Si Si2 0.755843 0.351002 0.456701
Si Si3 0.047117 0.311287 0.003559
Si Si4 0.862382 0.994210 0.894174
Si Si5 0.949612 0.531460 0.126310
Si Si6 0.000000 0.083243 0.750000
Si Si7 0.166377 0.687777 0.027884
Si Si8 0.855637 0.848889 0.083377
O O1 0.242742 0.650958 0.387829
O O2 0.320853 0.548834 0.230555
O O3 0.159854 0.522435 0.344017
O O4 0.178704 0.625937 0.147146
O O5 0.865588 0.347560 0.415445
O O6 0.707672 0.433649 0.424327
O O7 0.698350 0.273324 0.417754
O O8 0.044636 0.372865 0.885354
O O9 0.086527 0.224316 0.976172
O O10 0.936817 0.309421 0.033827
O O11 0.962794 0.029332 0.863022
O O12 0.864321 0.927408 0.999508
O O13 0.000000 0.500032 0.250000
O O14 0.000000 0.500000 0.000000
O O15 0.089503 0.134153 0.788327
O O16 0.245717 0.668484 0.923305
#
# Coordination Sequence:
#
# PCOD9456459 Si02
#       8
#     8   8   8   8   8   4   8   8
#     4  10  23  42  66  94 143 183 228 296 359 430
#     4  10  23  39  66 101 136 177 235 294 353 429
#     4  10  22  40  68  98 137 187 235 289 357 435
#     4  11  24  43  66  98 137 177 233 297 365 432
#     4  11  24  40  70 106 146 192 238 291 359 432
#     4  12  24  40  72  94 126 180 238 294 368 438
#     4  10  21  42  67  96 139 185 236 296 358 437
#     4  10  24  41  67 100 132 181 235 296 359 431
#
# _framework density 23.653853999999999
#
# number of rings (size 3 to 8) (size 9 to 14) (size 15 to 20)
#    0.000    1.600    1.333    2.000    4.667    6.400 
#    0.000    0.000    4.400    0.000    0.000    0.000 
#    0.000    0.000    0.000    0.000    0.000    0.000 
#
# Total GULP energy -334711.816737 kJ/mol
# GULP energy per Si atom -5578.530279 kJ/mol
# Density = 2.360002 g / cm^3
# Si number density = 23.653854 Si / 1000 Ang^3
#
#
#
# Elastic Constant Matrix: (Units=GPa)
#
#
# Indices 1 2 3 4 5 6 
#
# 1 182.3723 50.3816 42.1323 0.0000 0.0000 0.0000
# 2 50.3816 108.0982 20.0843 0.0000 0.0000 0.0000
# 3 42.1323 20.0843 71.1151 0.0000 0.0000 0.0000
# 4 0.0000 0.0000 0.0000 16.5436 0.0000 0.0000
# 5 0.0000 0.0000 0.0000 0.0000 41.4796 0.0000
# 6 0.0000 0.0000 0.0000 0.0000 0.0000 31.8597
#
#
#
# Elastic Compliance Matrix: (Units=1/GPa)
#
#
# Indices 1 2 3 4 5 6 
#
# 1 0.006995 -0.002628 -0.003402 0.000000 0.000000 0.000000
# 2 -0.002628 0.010751 -0.001479 0.000000 0.000000 0.000000
# 3 -0.003402 -0.001479 0.016495 0.000000 0.000000 0.000000
# 4 0.000000 0.000000 0.000000 0.060446 0.000000 0.000000
# 5 0.000000 0.000000 0.000000 0.000000 0.024108 0.000000
# 6 0.000000 0.000000 0.000000 0.000000 0.000000 0.031388
#
#
# Mechanical properties :
#
#
# Convention : Reuss Voigt Hill
#
# Bulk Modulus (GPa) = 52.02353 65.19801 58.61077
# Shear Modulus (GPa) = 29.13593 34.57574 31.85583
#
# Velocity S-wave (km/s) = 3.51346 3.82742 3.67379
# Velocity P-wave (km/s) = 6.20488 6.86698 6.54431
#
# Compressibility (1/GPa) = 0.01922207
#
# Stress axis : x y z
#
# Youngs Moduli (GPa) = 142.95254 93.01804 60.62431
#
# Poissons Ratio (x) = 0.24447 0.20625
# Poissons Ratio (y) = 0.37571 0.08967
# Poissons Ratio (z) = 0.48634 0.13758
#
# Static dielectric constant tensor:
#      x y z
#    x 1.957590 0.000000 0.000000 
#    y 0.000000 1.927170 0.000000 
#    z 0.000000 0.000000 1.961490 
# 
# From -- ./inp_files/12108.got.cif
#   From: 2010.05.17/outbox.cif.g08.bks.cpg/sg60_7_cif.got.tgz:12108.got - 2010.06.03 14:59:27.
