data_PCOD9456900
_publ_section_title
;
Structure prediction by ZEFSAII (Michael W. Deem and Ramdas Pophale) SiO2 
 PCOD9456900
Probable space group: P B C N
;
_chemical_formula_sum "Si O2"
_cell_formula_units_Z 28
_cell_length_a 10.070923
_cell_length_b 8.506901
_cell_length_c 12.240324
_cell_angle_alpha 90.000000
_cell_angle_beta 90.000000
_cell_angle_gamma 90.000000
_cell_volume 1048.657260
_symmetry_space_group_name_H-M "P B C N"
_symmetry_group_IT_number 60
_symmetry_cell_setting 'orthorhombic'
loop_
_space_group_symop_operation_xyz
x,y,z
1/2-x,1/2-y,1/2+z
1/2+x,1/2-y,-z
-x,y,1/2-z
-x,-y,-z
1/2+x,1/2+y,1/2-z
1/2-x,1/2+y,z
x,-y,1/2+z
loop_
_atom_site_type_symbol
_atom_site_label
_atom_site_fract_x
_atom_site_fract_y
_atom_site_fract_z
Si Si1 0.813787 0.576307 0.546666
Si Si2 0.795582 0.311447 0.698019
Si Si3 0.384199 0.643039 0.584471
Si Si4 0.500000 0.416562 0.750000
O O1 0.858796 0.469055 0.648488
O O2 0.701926 0.686383 0.600685
O O3 0.910760 0.708980 0.496715
O O4 0.742038 0.457587 0.461994
O O5 0.856351 0.238602 0.804754
O O6 0.640759 0.335148 0.728951
O O7 0.477432 0.508537 0.634750
#
# Coordination Sequence:
#
# PCOD9456900 Si02
#       4
#     8   8   8   4
#     4  10  22  40  73  92 143 178 216 288 345 390
#     4  11  22  45  67 102 138 177 226 287 335 404
#     4  11  22  45  67 102 138 177 226 287 335 404
#     4  12  24  42  78  94 142 184 222 286 352 386
#
# _framework density 26.700814000000001
#
# number of rings (size 3 to 8) (size 9 to 14) (size 15 to 20)
#    0.000    1.143    5.714    0.000    0.000    4.571 
#    0.000    8.571    0.000    0.000    0.000    0.000 
#    0.000    0.000    0.000    0.000    0.000    0.000 
#
# Total GULP energy -156287.849828 kJ/mol
# GULP energy per Si atom -5581.708922 kJ/mol
# Density = 2.664004 g / cm^3
# Si number density = 26.700814 Si / 1000 Ang^3
#
#
#
# Elastic Constant Matrix: (Units=GPa)
#
#
# Indices 1 2 3 4 5 6 
#
# 1 65.1455 8.4866 -4.1132 0.0000 0.0000 0.0000
# 2 8.4866 143.8950 40.8322 0.0000 0.0000 0.0000
# 3 -4.1132 40.8322 94.5487 0.0000 0.0000 0.0000
# 4 0.0000 0.0000 0.0000 41.1322 0.0000 0.0000
# 5 0.0000 0.0000 0.0000 0.0000 22.0269 0.0000
# 6 0.0000 0.0000 0.0000 0.0000 0.0000 28.6304
#
#
#
# Elastic Compliance Matrix: (Units=1/GPa)
#
#
# Indices 1 2 3 4 5 6 
#
# 1 0.015593 -0.001267 0.001226 0.000000 0.000000 0.000000
# 2 -0.001267 0.008023 -0.003520 0.000000 0.000000 0.000000
# 3 0.001226 -0.003520 0.012150 0.000000 0.000000 0.000000
# 4 0.000000 0.000000 0.000000 0.024312 0.000000 0.000000
# 5 0.000000 0.000000 0.000000 0.000000 0.045399 0.000000
# 6 0.000000 0.000000 0.000000 0.000000 0.000000 0.034928
#
#
# Mechanical properties :
#
#
# Convention : Reuss Voigt Hill
#
# Bulk Modulus (GPa) = 34.91326 43.77782 39.34554
# Shear Modulus (GPa) = 31.83178 35.58349 33.70764
#
# Velocity S-wave (km/s) = 3.45652 3.65454 3.55691
# Velocity P-wave (km/s) = 5.38834 5.85140 5.62463
#
# Compressibility (1/GPa) = 0.02864241
#
# Stress axis : x y z
#
# Youngs Moduli (GPa) = 64.13234 124.63979 82.30407
#
# Poissons Ratio (x) = 0.15797 -0.10088
# Poissons Ratio (y) = 0.08128 0.28971
# Poissons Ratio (z) = -0.07861 0.43874
#
# Static dielectric constant tensor:
#      x y z
#    x 2.386980 0.000000 0.000000 
#    y 0.000000 2.116190 0.000000 
#    z 0.000000 0.000000 2.121860 
# 
# From -- ./inp_files/9421.got.cif
#   From: 2010.05.17/outbox.cif.g08.bks.cpg/sg60_5_cif.got.tgz:9421.got - 2010.06.03 14:59:27.
