data_PCOD9456015
_publ_section_title
;
Structure prediction by ZEFSAII (Michael W. Deem and Ramdas Pophale) SiO2 
 PCOD9456015
Probable space group: P B C N
;
_chemical_formula_sum "Si O2"
_cell_formula_units_Z 44
_cell_length_a 24.640512
_cell_length_b 4.805901
_cell_length_c 14.183297
_cell_angle_alpha 90.000000
_cell_angle_beta 90.000000
_cell_angle_gamma 90.000000
_cell_volume 1679.584063
_symmetry_space_group_name_H-M "P B C N"
_symmetry_group_IT_number 60
_symmetry_cell_setting 'orthorhombic'
loop_
_space_group_symop_operation_xyz
x,y,z
1/2-x,1/2-y,1/2+z
1/2+x,1/2-y,-z
-x,y,1/2-z
-x,-y,-z
1/2+x,1/2+y,1/2-z
1/2-x,1/2+y,z
x,-y,1/2+z
loop_
_atom_site_type_symbol
_atom_site_label
_atom_site_fract_x
_atom_site_fract_y
_atom_site_fract_z
Si Si1 0.214338 0.047068 0.965419
Si Si2 0.716587 0.457517 0.260332
Si Si3 0.500000 0.760090 0.750000
Si Si4 0.954424 0.726343 0.649138
Si Si5 0.102516 0.189967 0.546363
Si Si6 0.388870 0.223561 0.673599
O O1 0.264833 0.850108 0.992461
O O2 0.209388 0.031388 0.852244
O O3 0.157384 0.947269 0.005090
O O4 0.730995 0.143837 0.285184
O O5 0.665042 0.598304 0.305773
O O6 0.463779 0.533370 0.807173
O O7 0.502448 0.001170 0.833220
O O8 0.934879 0.741063 0.542983
O O9 0.908573 0.618383 0.723482
O O10 0.116869 0.463068 0.605229
O O11 0.076522 0.959906 0.616538
#
# Coordination Sequence:
#
# PCOD9456015 Si02
#       6
#     8   8   4   8   8   8
#     4  10  21  38  60  90 131 177 219 264 308 360
#     4  10  21  38  60  90 131 177 219 264 308 360
#     4  10  24  46  80  88 128 174 196 262 360 374
#     4  11  24  50  66 101 130 161 212 274 316 409
#     4  12  25  41  68  98 131 176 215 263 322 378
#     4  12  25  41  68  98 131 176 215 263 322 378
#
# _framework density 26.196959
#
# number of rings (size 3 to 8) (size 9 to 14) (size 15 to 20)
#    0.000    1.091    1.818    4.364    0.000    4.364 
#    0.000   18.182    0.000    0.000    0.000    0.000 
#    0.000    0.000    0.000    0.000    0.000    0.000 
#
# Total GULP energy -246151.044716 kJ/mol
# GULP energy per Si atom -5594.341925 kJ/mol
# Density = 2.613733 g / cm^3
# Si number density = 26.196959 Si / 1000 Ang^3
#
#
#
# Elastic Constant Matrix: (Units=GPa)
#
#
# Indices 1 2 3 4 5 6 
#
# 1 53.1995 -5.7498 26.1137 0.0000 0.0000 0.0000
# 2 -5.7498 150.8286 40.7573 0.0000 0.0000 0.0000
# 3 26.1137 40.7573 154.6944 0.0000 0.0000 0.0000
# 4 0.0000 0.0000 0.0000 42.7948 0.0000 0.0000
# 5 0.0000 0.0000 0.0000 0.0000 39.7638 0.0000
# 6 0.0000 0.0000 0.0000 0.0000 0.0000 28.6077
#
#
#
# Elastic Compliance Matrix: (Units=1/GPa)
#
#
# Indices 1 2 3 4 5 6 
#
# 1 0.020985 0.001892 -0.004041 0.000000 0.000000 0.000000
# 2 0.001892 0.007309 -0.002245 0.000000 0.000000 0.000000
# 3 -0.004041 -0.002245 0.007738 0.000000 0.000000 0.000000
# 4 0.000000 0.000000 0.000000 0.023367 0.000000 0.000000
# 5 0.000000 0.000000 0.000000 0.000000 0.025148 0.000000
# 6 0.000000 0.000000 0.000000 0.000000 0.000000 0.034956
#
#
# Mechanical properties :
#
#
# Convention : Reuss Voigt Hill
#
# Bulk Modulus (GPa) = 36.70541 53.44055 45.07298
# Shear Modulus (GPa) = 36.39732 42.07337 39.23535
#
# Velocity S-wave (km/s) = 3.73147 4.01189 3.87422
# Velocity P-wave (km/s) = 5.71025 6.47334 6.10373
#
# Compressibility (1/GPa) = 0.02724394
#
# Stress axis : x y z
#
# Youngs Moduli (GPa) = 47.65269 136.82096 129.23245
#
# Poissons Ratio (x) = -0.25886 0.52222
# Poissons Ratio (y) = -0.09016 0.29013
# Poissons Ratio (z) = 0.19256 0.30717
#
# Static dielectric constant tensor:
#      x y z
#    x 2.201450 0.000000 0.000000 
#    y 0.000000 2.002060 0.000000 
#    z 0.000000 0.000000 2.030780 
# 
# From -- ./inp_files/18025.got.cif
#   From: 2010.05.17/outbox.cif.g08.bks.cpg/sg60_10_cif.got.tgz:18025.got - 2010.06.03 14:59:27.
