data_PCOD9456654
_publ_section_title
;
Structure prediction by ZEFSAII (Michael W. Deem and Ramdas Pophale) SiO2 
 PCOD9456654
Probable space group: P B C N
;
_chemical_formula_sum "Si O2"
_cell_formula_units_Z 56
_cell_length_a 12.526967
_cell_length_b 23.285509
_cell_length_c 8.922626
_cell_angle_alpha 90.000000
_cell_angle_beta 90.000000
_cell_angle_gamma 90.000000
_cell_volume 2602.701477
_symmetry_space_group_name_H-M "P B C N"
_symmetry_group_IT_number 60
_symmetry_cell_setting 'orthorhombic'
loop_
_space_group_symop_operation_xyz
x,y,z
1/2-x,1/2-y,1/2+z
1/2+x,1/2-y,-z
-x,y,1/2-z
-x,-y,-z
1/2+x,1/2+y,1/2-z
1/2-x,1/2+y,z
x,-y,1/2+z
loop_
_atom_site_type_symbol
_atom_site_label
_atom_site_fract_x
_atom_site_fract_y
_atom_site_fract_z
Si Si1 0.538516 0.441681 0.423831
Si Si2 0.302110 0.045457 0.862279
Si Si3 0.301801 0.845189 0.777563
Si Si4 0.608436 0.044788 0.327068
Si Si5 0.372898 0.285392 0.277260
Si Si6 0.639169 0.371198 0.963756
Si Si7 0.745470 0.882297 0.397010
O O1 0.500000 0.438468 0.250000
O O2 0.500000 0.500000 0.500000
O O3 0.481725 0.391667 0.519540
O O4 0.664633 0.431221 0.423959
O O5 0.329923 0.092027 0.733018
O O6 0.296961 0.986552 0.767416
O O7 0.380392 0.032050 0.998898
O O8 0.203992 0.077371 0.948613
O O9 0.380846 0.886860 0.687797
O O10 0.330971 0.778965 0.763944
O O11 0.188692 0.859774 0.698111
O O12 0.307403 0.864999 0.948789
O O13 0.500000 0.025387 0.250000
O O14 0.500000 0.287450 0.250000
O O15 0.348625 0.313611 0.438750
O O16 0.311316 0.327835 0.164534
#
# Coordination Sequence:
#
# PCOD9456654 Si02
#       7
#     8   8   8   8   8   8   8
#     4  12  25  39  65  96 134 169 205 263 331 396
#     4  10  22  37  65  84 126 161 208 260 317 394
#     4  11  25  36  67  91 124 166 224 263 312 399
#     4  11  23  41  60  94 124 167 209 261 325 379
#     4  11  20  45  65  85 126 170 214 266 330 381
#     4  10  22  42  60  94 125 167 211 264 327 387
#     4  11  23  42  63  95 127 170 210 271 331 384
#
# _framework density 21.516103000000001
#
# number of rings (size 3 to 8) (size 9 to 14) (size 15 to 20)
#    0.000    1.143    4.286    2.571    8.000    0.000 
#    0.000    0.000    0.000    0.000    0.000    0.000 
#    0.000    0.000    0.000    0.000    0.000    0.000 
#
# Total GULP energy -312687.173895 kJ/mol
# GULP energy per Si atom -5583.699534 kJ/mol
# Density = 2.146713 g / cm^3
# Si number density = 21.516103 Si / 1000 Ang^3
#
#
#
# Elastic Constant Matrix: (Units=GPa)
#
#
# Indices 1 2 3 4 5 6 
#
# 1 41.9923 10.9980 22.5129 0.0000 0.0000 0.0000
# 2 10.9980 136.2041 31.8842 0.0000 0.0000 0.0000
# 3 22.5129 31.8842 122.3674 0.0000 0.0000 0.0000
# 4 0.0000 0.0000 0.0000 29.9441 0.0000 0.0000
# 5 0.0000 0.0000 0.0000 0.0000 28.6522 0.0000
# 6 0.0000 0.0000 0.0000 0.0000 0.0000 24.6871
#
#
#
# Elastic Compliance Matrix: (Units=1/GPa)
#
#
# Indices 1 2 3 4 5 6 
#
# 1 0.026564 -0.001066 -0.004609 0.000000 0.000000 0.000000
# 2 -0.001066 0.007862 -0.001852 0.000000 0.000000 0.000000
# 3 -0.004609 -0.001852 0.009503 0.000000 0.000000 0.000000
# 4 0.000000 0.000000 0.000000 0.033396 0.000000 0.000000
# 5 0.000000 0.000000 0.000000 0.000000 0.034901 0.000000
# 6 0.000000 0.000000 0.000000 0.000000 0.000000 0.040507
#
#
# Mechanical properties :
#
#
# Convention : Reuss Voigt Hill
#
# Bulk Modulus (GPa) = 34.63422 47.92823 41.28123
# Shear Modulus (GPa) = 28.18292 32.33460 30.25876
#
# Velocity S-wave (km/s) = 3.62311 3.88081 3.75418
# Velocity P-wave (km/s) = 5.79952 6.51190 6.16601
#
# Compressibility (1/GPa) = 0.02887318
#
# Stress axis : x y z
#
# Youngs Moduli (GPa) = 37.64454 127.20047 105.23212
#
# Poissons Ratio (x) = 0.13559 0.48507
# Poissons Ratio (y) = 0.04013 0.19492
# Poissons Ratio (z) = 0.17352 0.23562
#
# Static dielectric constant tensor:
#      x y z
#    x 1.834540 0.000000 0.000000 
#    y 0.000000 1.767260 0.000000 
#    z 0.000000 0.000000 1.786620 
# 
# From -- ./inp_files/6152.got.cif
#   From: 2010.05.17/outbox.cif.g08.bks.cpg/sg60_4_cif.got.tgz:6152.got - 2010.06.03 14:59:27.
