data_PCOD9456037
_publ_section_title
;
Structure prediction by ZEFSAII (Michael W. Deem and Ramdas Pophale) SiO2 
 PCOD9456037
Probable space group: P B C N
;
_chemical_formula_sum "Si O2"
_cell_formula_units_Z 40
_cell_length_a 17.468253
_cell_length_b 5.315338
_cell_length_c 19.619498
_cell_angle_alpha 90.000000
_cell_angle_beta 90.000000
_cell_angle_gamma 90.000000
_cell_volume 1821.663895
_symmetry_space_group_name_H-M "P B C N"
_symmetry_group_IT_number 60
_symmetry_cell_setting 'orthorhombic'
loop_
_space_group_symop_operation_xyz
x,y,z
1/2-x,1/2-y,1/2+z
1/2+x,1/2-y,-z
-x,y,1/2-z
-x,-y,-z
1/2+x,1/2+y,1/2-z
1/2-x,1/2+y,z
x,-y,1/2+z
loop_
_atom_site_type_symbol
_atom_site_label
_atom_site_fract_x
_atom_site_fract_y
_atom_site_fract_z
Si Si1 0.203471 0.196121 0.653569
Si Si2 0.947147 0.834122 0.683224
Si Si3 0.298679 0.726906 0.492399
Si Si4 0.027377 0.249795 0.461417
Si Si5 0.588528 0.165308 0.229201
O O1 0.266727 0.413728 0.665753
O O2 0.183485 0.222528 0.573862
O O3 0.135350 0.259474 0.704448
O O4 0.997603 0.764226 0.617499
O O5 0.889970 0.604612 0.698630
O O6 0.000000 0.866776 0.750000
O O7 0.907752 0.105570 0.675898
O O8 0.253231 0.470231 0.477571
O O9 0.380709 0.746091 0.457568
O O10 0.000000 0.500000 0.500000
O O11 0.000000 0.000000 0.500000
O O12 0.500000 0.131215 0.250000
#
# Coordination Sequence:
#
# PCOD9456037 Si02
#       5
#     8   8   8   8   8
#     4  10  21  38  63  93 125 172 224 265 325 403
#     4  10  23  39  62  97 131 168 209 268 342 371
#     4  10  23  43  65  94 135 178 216 277 340 400
#     4  12  26  42  70 104 133 177 236 279 333 403
#     4  10  21  38  62  88 131 167 209 265 332 377
#
# _framework density 21.957947000000001
#
# number of rings (size 3 to 8) (size 9 to 14) (size 15 to 20)
#    0.000    1.600    0.000    3.600   11.200    0.000 
#    0.000    6.000    0.000    0.000    0.000    0.000 
#    0.000    0.000    0.000    0.000    0.000    0.000 
#
# Total GULP energy -223508.453726 kJ/mol
# GULP energy per Si atom -5587.711343 kJ/mol
# Density = 2.190797 g / cm^3
# Si number density = 21.957947 Si / 1000 Ang^3
#
#
#
# Elastic Constant Matrix: (Units=GPa)
#
#
# Indices 1 2 3 4 5 6 
#
# 1 51.6691 -4.4769 17.4547 0.0000 0.0000 0.0000
# 2 -4.4769 147.9541 6.3624 0.0000 0.0000 0.0000
# 3 17.4547 6.3624 85.8481 0.0000 0.0000 0.0000
# 4 0.0000 0.0000 0.0000 20.9898 0.0000 0.0000
# 5 0.0000 0.0000 0.0000 0.0000 30.3138 0.0000
# 6 0.0000 0.0000 0.0000 0.0000 0.0000 26.3645
#
#
#
# Elastic Compliance Matrix: (Units=1/GPa)
#
#
# Indices 1 2 3 4 5 6 
#
# 1 0.020879 0.000817 -0.004306 0.000000 0.000000 0.000000
# 2 0.000817 0.006812 -0.000671 0.000000 0.000000 0.000000
# 3 -0.004306 -0.000671 0.012574 0.000000 0.000000 0.000000
# 4 0.000000 0.000000 0.000000 0.047642 0.000000 0.000000
# 5 0.000000 0.000000 0.000000 0.000000 0.032988 0.000000
# 6 0.000000 0.000000 0.000000 0.000000 0.000000 0.037930
#
#
# Mechanical properties :
#
#
# Convention : Reuss Voigt Hill
#
# Bulk Modulus (GPa) = 31.30305 36.01687 33.65996
# Shear Modulus (GPa) = 28.12246 33.27568 30.69907
#
# Velocity S-wave (km/s) = 3.58263 3.89707 3.74315
# Velocity P-wave (km/s) = 5.60361 6.05705 5.83474
#
# Compressibility (1/GPa) = 0.03194577
#
# Stress axis : x y z
#
# Youngs Moduli (GPa) = 47.89440 146.79058 79.53135
#
# Poissons Ratio (x) = -0.11992 0.34244
# Poissons Ratio (y) = -0.03913 0.05336
# Poissons Ratio (z) = 0.20622 0.09849
#
# Static dielectric constant tensor:
#      x y z
#    x 1.729580 0.000000 0.000000 
#    y 0.000000 1.885820 0.000000 
#    z 0.000000 0.000000 1.864600 
# 
# From -- ./inp_files/20748.got.cif
#   From: 2010.05.17/outbox.cif.g08.bks.cpg/sg60_11_cif.got.tgz:20748.got - 2010.06.03 14:59:27.
