data_PCOD9456908
_publ_section_title
;
Structure prediction by ZEFSAII (Michael W. Deem and Ramdas Pophale) SiO2 
 PCOD9456908
Probable space group: P B C N
;
_chemical_formula_sum "Si O2"
_cell_formula_units_Z 40
_cell_length_a 6.580631
_cell_length_b 10.303233
_cell_length_c 26.305457
_cell_angle_alpha 90.000000
_cell_angle_beta 90.000000
_cell_angle_gamma 90.000000
_cell_volume 1783.556663
_symmetry_space_group_name_H-M "P B C N"
_symmetry_group_IT_number 60
_symmetry_cell_setting 'orthorhombic'
loop_
_space_group_symop_operation_xyz
x,y,z
1/2-x,1/2-y,1/2+z
1/2+x,1/2-y,-z
-x,y,1/2-z
-x,-y,-z
1/2+x,1/2+y,1/2-z
1/2-x,1/2+y,z
x,-y,1/2+z
loop_
_atom_site_type_symbol
_atom_site_label
_atom_site_fract_x
_atom_site_fract_y
_atom_site_fract_z
Si Si1 0.558651 0.253740 0.949024
Si Si2 0.426441 0.601457 0.541006
Si Si3 0.810687 0.196671 0.622134
Si Si4 0.449334 0.125408 0.690904
Si Si5 0.800749 0.637758 0.357333
O O1 0.351035 0.249433 0.918401
O O2 0.701019 0.349672 0.914293
O O3 0.690987 0.122486 0.947836
O O4 0.498382 0.273434 0.007669
O O5 0.500000 0.500000 0.500000
O O6 0.553385 0.593120 0.592030
O O7 0.971089 0.304208 0.639596
O O8 0.669736 0.134783 0.664500
O O9 0.500000 0.112110 0.750000
O O10 0.323228 0.003522 0.667928
O O11 0.330247 0.258570 0.675968
#
# Coordination Sequence:
#
# PCOD9456908 Si02
#       5
#     8   8   8   8   8
#     4  10  22  41  60  99 137 180 231 276 341 412
#     4  11  23  36  64  94 139 185 225 278 341 415
#     4  10  24  43  65 100 140 183 235 290 343 420
#     4  11  27  48  75 102 136 184 238 295 362 423
#     4  10  26  47  71 103 140 180 234 291 353 424
#
# _framework density 22.427098999999998
#
# number of rings (size 3 to 8) (size 9 to 14) (size 15 to 20)
#    0.000    1.600    2.000    0.000   14.000    2.400 
#    0.000    0.000    0.000    0.000    0.000    0.000 
#    0.000    0.000    0.000    0.000    0.000    0.000 
#
# Total GULP energy -223225.935662 kJ/mol
# GULP energy per Si atom -5580.648392 kJ/mol
# Density = 2.237605 g / cm^3
# Si number density = 22.427099 Si / 1000 Ang^3
#
#
#
# Elastic Constant Matrix: (Units=GPa)
#
#
# Indices 1 2 3 4 5 6 
#
# 1 105.6997 19.7417 35.3798 0.0000 0.0000 0.0000
# 2 19.7417 58.0239 11.4448 0.0000 0.0000 0.0000
# 3 35.3798 11.4448 132.3590 0.0000 0.0000 0.0000
# 4 0.0000 0.0000 0.0000 19.9455 0.0000 0.0000
# 5 0.0000 0.0000 0.0000 0.0000 39.6598 0.0000
# 6 0.0000 0.0000 0.0000 0.0000 0.0000 21.3330
#
#
#
# Elastic Compliance Matrix: (Units=1/GPa)
#
#
# Indices 1 2 3 4 5 6 
#
# 1 0.010945 -0.003201 -0.002649 0.000000 0.000000 0.000000
# 2 -0.003201 0.018470 -0.000741 0.000000 0.000000 0.000000
# 3 -0.002649 -0.000741 0.008327 0.000000 0.000000 0.000000
# 4 0.000000 0.000000 0.000000 0.050137 0.000000 0.000000
# 5 0.000000 0.000000 0.000000 0.000000 0.025214 0.000000
# 6 0.000000 0.000000 0.000000 0.000000 0.000000 0.046876
#
#
# Mechanical properties :
#
#
# Convention : Reuss Voigt Hill
#
# Bulk Modulus (GPa) = 40.71802 47.69056 44.20429
# Shear Modulus (GPa) = 27.57267 31.48874 29.53071
#
# Velocity S-wave (km/s) = 3.51013 3.75113 3.63263
# Velocity P-wave (km/s) = 5.88415 6.33026 6.11127
#
# Compressibility (1/GPa) = 0.02455915
#
# Stress axis : x y z
#
# Youngs Moduli (GPa) = 91.36306 54.14256 120.08609
#
# Poissons Ratio (x) = 0.17334 0.31809
# Poissons Ratio (y) = 0.29250 0.08902
# Poissons Ratio (z) = 0.24201 0.04013
#
# Static dielectric constant tensor:
#      x y z
#    x 1.848040 0.000000 0.000000 
#    y 0.000000 2.069560 0.000000 
#    z 0.000000 0.000000 1.974680 
# 
# From -- ./inp_files/24726.got.cif
#   From: 2010.05.17/outbox.cif.g08.bks.cpg/sg60_13_cif.got.tgz:24726.got - 2010.06.03 14:59:27.
