data_PCOD9456405
_publ_section_title
;
Structure prediction by ZEFSAII (Michael W. Deem and Ramdas Pophale) SiO2 
 PCOD9456405
Probable space group: P B C N
;
_chemical_formula_sum "Si O2"
_cell_formula_units_Z 40
_cell_length_a 20.304467
_cell_length_b 11.387307
_cell_length_c 7.003131
_cell_angle_alpha 90.000000
_cell_angle_beta 90.000000
_cell_angle_gamma 90.000000
_cell_volume 1619.216323
_symmetry_space_group_name_H-M "P B C N"
_symmetry_group_IT_number 60
_symmetry_cell_setting 'orthorhombic'
loop_
_space_group_symop_operation_xyz
x,y,z
1/2-x,1/2-y,1/2+z
1/2+x,1/2-y,-z
-x,y,1/2-z
-x,-y,-z
1/2+x,1/2+y,1/2-z
1/2-x,1/2+y,z
x,-y,1/2+z
loop_
_atom_site_type_symbol
_atom_site_label
_atom_site_fract_x
_atom_site_fract_y
_atom_site_fract_z
Si Si1 0.634955 0.390930 0.099519
Si Si2 0.834134 0.713706 0.774673
Si Si3 0.441906 0.168195 0.034654
Si Si4 0.284615 0.385652 0.034518
Si Si5 0.000000 0.491413 0.250000
Si Si6 0.500000 0.616526 0.750000
O O1 0.788576 0.198127 0.148954
O O2 0.667101 0.342587 0.294517
O O3 0.562803 0.444064 0.150789
O O4 0.630885 0.292622 0.936738
O O5 0.815056 0.009714 0.526267
O O6 0.787940 0.619075 0.877351
O O7 0.466473 0.294986 0.097860
O O8 0.438372 0.080481 0.215438
O O9 0.383485 0.167185 0.884790
O O10 0.499466 0.100953 0.922102
#
# Coordination Sequence:
#
# PCOD9456405 Si02
#       6
#     8   8   8   8   4   4
#     4  12  26  47  74 113 150 197 255 309 384 452
#     4  12  25  47  75 102 152 197 249 312 374 439
#     4  10  21  41  69 103 147 198 241 306 377 431
#     4  12  26  47  72 107 149 196 254 310 366 456
#     4   9  20  40  63 110 148 182 253 300 361 454
#     4  11  24  44  77 108 160 194 247 314 385 460
#
# _framework density 24.703308
#
# number of rings (size 3 to 8) (size 9 to 14) (size 15 to 20)
#    0.000    0.800    6.000    1.200    0.000    2.400 
#    0.000    0.000    0.000    0.000    0.000    0.000 
#    0.000    0.000    0.000    0.000    0.000    0.000 
#
# Total GULP energy -223393.639063 kJ/mol
# GULP energy per Si atom -5584.840977 kJ/mol
# Density = 2.464708 g / cm^3
# Si number density = 24.703308 Si / 1000 Ang^3
#
#
#
# Elastic Constant Matrix: (Units=GPa)
#
#
# Indices 1 2 3 4 5 6 
#
# 1 113.8837 37.8907 33.8281 0.0000 0.0000 0.0000
# 2 37.8907 77.3127 26.6278 0.0000 0.0000 0.0000
# 3 33.8281 26.6278 117.6644 0.0000 0.0000 0.0000
# 4 0.0000 0.0000 0.0000 29.9050 0.0000 0.0000
# 5 0.0000 0.0000 0.0000 0.0000 61.6119 0.0000
# 6 0.0000 0.0000 0.0000 0.0000 0.0000 23.9574
#
#
#
# Elastic Compliance Matrix: (Units=1/GPa)
#
#
# Indices 1 2 3 4 5 6 
#
# 1 0.010949 -0.004644 -0.002097 0.000000 0.000000 0.000000
# 2 -0.004644 0.015997 -0.002285 0.000000 0.000000 0.000000
# 3 -0.002097 -0.002285 0.009619 0.000000 0.000000 0.000000
# 4 0.000000 0.000000 0.000000 0.033439 0.000000 0.000000
# 5 0.000000 0.000000 0.000000 0.000000 0.016231 0.000000
# 6 0.000000 0.000000 0.000000 0.000000 0.000000 0.041741
#
#
# Mechanical properties :
#
#
# Convention : Reuss Voigt Hill
#
# Bulk Modulus (GPa) = 54.01515 56.17269 55.09392
# Shear Modulus (GPa) = 32.85188 37.12914 34.99051
#
# Velocity S-wave (km/s) = 3.65068 3.88106 3.76763
# Velocity P-wave (km/s) = 6.29944 6.54766 6.42475
#
# Compressibility (1/GPa) = 0.01851332
#
# Stress axis : x y z
#
# Youngs Moduli (GPa) = 91.33429 62.50995 103.96382
#
# Poissons Ratio (x) = 0.29028 0.21800
# Poissons Ratio (y) = 0.42414 0.23758
# Poissons Ratio (z) = 0.19151 0.14285
#
# Static dielectric constant tensor:
#      x y z
#    x 2.019780 0.000000 0.000000 
#    y 0.000000 1.965130 0.000000 
#    z 0.000000 0.000000 3.100230 
# 
# From -- ./inp_files/7286.got.cif
#   From: 2010.05.17/outbox.cif.g08.bks.cpg/sg60_4_cif.got.tgz:7286.got - 2010.06.03 14:59:27.
