data_PCOD9456312
_publ_section_title
;
Structure prediction by ZEFSAII (Michael W. Deem and Ramdas Pophale) SiO2 
 PCOD9456312
Probable space group: P B C N
;
_chemical_formula_sum "Si O2"
_cell_formula_units_Z 56
_cell_length_a 12.502398
_cell_length_b 8.985256
_cell_length_c 20.328621
_cell_angle_alpha 90.000000
_cell_angle_beta 90.000000
_cell_angle_gamma 90.000000
_cell_volume 2283.661311
_symmetry_space_group_name_H-M "P B C N"
_symmetry_group_IT_number 60
_symmetry_cell_setting 'orthorhombic'
loop_
_space_group_symop_operation_xyz
x,y,z
1/2-x,1/2-y,1/2+z
1/2+x,1/2-y,-z
-x,y,1/2-z
-x,-y,-z
1/2+x,1/2+y,1/2-z
1/2-x,1/2+y,z
x,-y,1/2+z
loop_
_atom_site_type_symbol
_atom_site_label
_atom_site_fract_x
_atom_site_fract_y
_atom_site_fract_z
Si Si1 0.781349 0.808470 0.015430
Si Si2 0.714630 0.208435 0.800039
Si Si3 0.000000 0.698509 0.750000
Si Si4 0.500000 0.302904 0.250000
Si Si5 0.947438 0.551698 0.144302
Si Si6 0.349301 0.955620 0.068830
Si Si7 0.325134 0.464141 0.749779
Si Si8 0.201159 0.930958 0.896893
O O1 0.854993 0.684837 0.980810
O O2 0.726090 0.918217 0.962659
O O3 0.693319 0.712785 0.056215
O O4 0.837596 0.921044 0.066058
O O5 0.600016 0.292502 0.778335
O O6 0.703914 0.126105 0.867532
O O7 0.767585 0.366376 0.791881
O O8 0.740009 0.104992 0.739566
O O9 0.970501 0.590869 0.690634
O O10 0.461986 0.196376 0.309176
O O11 0.587893 0.417368 0.279302
O O12 0.829180 0.553990 0.114730
O O13 0.039783 0.531050 0.089712
O O14 0.349481 0.417156 0.825387
#
# Coordination Sequence:
#
# PCOD9456312 Si02
#       8
#     8   8   4   4   8   8   8   8
#     4  10  23  40  64  92 128 180 229 276 317 401
#     4  11  22  38  67  96 134 170 215 281 345 407
#     4   9  19  36  60 102 126 160 222 266 348 402
#     4  11  25  40  62 110 144 166 218 276 354 416
#     4  10  21  40  68  97 133 177 219 281 333 423
#     4  10  23  42  66  96 133 175 232 276 342 397
#     4  12  24  39  67 100 135 174 215 280 350 405
#     4  11  22  43  69  94 132 181 234 274 336 400
#
# _framework density 24.522023999999998
#
# number of rings (size 3 to 8) (size 9 to 14) (size 15 to 20)
#    0.000    1.429    1.429    3.857    6.000    2.286 
#    0.000    0.000    3.143    4.286    0.000    0.000 
#    0.000    0.000    0.000    0.000    0.000    0.000 
#
# Total GULP energy -312276.799141 kJ/mol
# GULP energy per Si atom -5576.371413 kJ/mol
# Density = 2.446621 g / cm^3
# Si number density = 24.522024 Si / 1000 Ang^3
#
#
#
# Elastic Constant Matrix: (Units=GPa)
#
#
# Indices 1 2 3 4 5 6 
#
# 1 48.8431 14.0850 17.5768 0.0000 0.0000 0.0000
# 2 14.0850 191.5773 59.6833 0.0000 0.0000 0.0000
# 3 17.5768 59.6833 119.7497 0.0000 0.0000 0.0000
# 4 0.0000 0.0000 0.0000 51.6702 0.0000 0.0000
# 5 0.0000 0.0000 0.0000 0.0000 32.1427 0.0000
# 6 0.0000 0.0000 0.0000 0.0000 0.0000 28.0693
#
#
#
# Elastic Compliance Matrix: (Units=1/GPa)
#
#
# Indices 1 2 3 4 5 6 
#
# 1 0.021698 -0.000714 -0.002829 0.000000 0.000000 0.000000
# 2 -0.000714 0.006203 -0.002987 0.000000 0.000000 0.000000
# 3 -0.002829 -0.002987 0.010255 0.000000 0.000000 0.000000
# 4 0.000000 0.000000 0.000000 0.019354 0.000000 0.000000
# 5 0.000000 0.000000 0.000000 0.000000 0.031111 0.000000
# 6 0.000000 0.000000 0.000000 0.000000 0.000000 0.035626
#
#
# Mechanical properties :
#
#
# Convention : Reuss Voigt Hill
#
# Bulk Modulus (GPa) = 39.84720 60.31780 50.08250
# Shear Modulus (GPa) = 34.32412 40.29811 37.31112
#
# Velocity S-wave (km/s) = 3.74535 4.05822 3.90492
# Velocity P-wave (km/s) = 5.91510 6.82712 6.38741
#
# Compressibility (1/GPa) = 0.02509586
#
# Stress axis : x y z
#
# Youngs Moduli (GPa) = 46.08802 161.21823 97.51777
#
# Poissons Ratio (x) = 0.11510 0.27587
# Poissons Ratio (y) = 0.03290 0.29125
# Poissons Ratio (z) = 0.13038 0.48151
#
# Static dielectric constant tensor:
#      x y z
#    x 2.952320 0.000000 0.000000 
#    y 0.000000 1.962830 0.000000 
#    z 0.000000 0.000000 1.998750 
# 
# From -- ./inp_files/22956.got.cif
#   From: 2010.05.17/outbox.cif.g08.bks.cpg/sg60_12_cif.got.tgz:22956.got - 2010.06.03 14:59:27.
