data_PCOD9456453
_publ_section_title
;
Structure prediction by ZEFSAII (Michael W. Deem and Ramdas Pophale) SiO2 
 PCOD9456453
Probable space group: P B C N
;
_chemical_formula_sum "Si O2"
_cell_formula_units_Z 48
_cell_length_a 16.676605
_cell_length_b 9.679788
_cell_length_c 14.989473
_cell_angle_alpha 90.000000
_cell_angle_beta 90.000000
_cell_angle_gamma 90.000000
_cell_volume 2419.690683
_symmetry_space_group_name_H-M "P B C N"
_symmetry_group_IT_number 60
_symmetry_cell_setting 'orthorhombic'
loop_
_space_group_symop_operation_xyz
x,y,z
1/2-x,1/2-y,1/2+z
1/2+x,1/2-y,-z
-x,y,1/2-z
-x,-y,-z
1/2+x,1/2+y,1/2-z
1/2-x,1/2+y,z
x,-y,1/2+z
loop_
_atom_site_type_symbol
_atom_site_label
_atom_site_fract_x
_atom_site_fract_y
_atom_site_fract_z
Si Si1 0.127146 0.856771 0.006798
Si Si2 0.915637 0.475311 0.279056
Si Si3 0.325604 0.909439 0.400072
Si Si4 0.807921 0.630184 0.940605
Si Si5 0.647634 0.648091 0.570847
Si Si6 0.491271 0.732606 0.656055
O O1 0.131245 0.725309 0.940906
O O2 0.118221 0.994084 0.948565
O O3 0.211314 0.864803 0.061678
O O4 0.058345 0.838965 0.078833
O O5 0.865061 0.472195 0.187920
O O6 0.859012 0.409222 0.354352
O O7 0.946076 0.623139 0.319477
O O8 0.000000 0.404456 0.250000
O O9 0.233695 0.863874 0.381407
O O10 0.324619 0.020212 0.480244
O O11 0.835053 0.778613 0.976729
O O12 0.581747 0.739266 0.620396
O O13 0.500000 0.654802 0.750000
#
# Coordination Sequence:
#
# PCOD9456453 Si02
#       6
#     8   8   8   8   8   8
#     4  10  22  43  64  90 133 176 215 273 338 392
#     4  11  24  39  69 101 124 174 225 274 323 389
#     4  10  22  44  67  94 133 175 227 270 330 394
#     4  10  21  42  66  91 130 175 223 271 326 397
#     4  10  23  42  65  94 132 180 211 275 341 388
#     4  11  23  40  65  97 128 170 219 269 333 391
#
# _framework density 19.837247000000001
#
# number of rings (size 3 to 8) (size 9 to 14) (size 15 to 20)
#    0.000    1.667    1.667    2.500    4.667    1.333 
#    3.000    0.000    0.000    0.000    0.000    0.000 
#    0.000    0.000    0.000    0.000    0.000    0.000 
#
# Total GULP energy -267663.196006 kJ/mol
# GULP energy per Si atom -5576.316583 kJ/mol
# Density = 1.979210 g / cm^3
# Si number density = 19.837247 Si / 1000 Ang^3
#
#
#
# Elastic Constant Matrix: (Units=GPa)
#
#
# Indices 1 2 3 4 5 6 
#
# 1 101.9367 8.2864 70.1095 0.0000 0.0000 0.0000
# 2 8.2864 58.6164 -2.4940 0.0000 0.0000 0.0000
# 3 70.1095 -2.4940 81.0883 0.0000 0.0000 0.0000
# 4 0.0000 0.0000 0.0000 12.9946 0.0000 0.0000
# 5 0.0000 0.0000 0.0000 0.0000 31.5926 0.0000
# 6 0.0000 0.0000 0.0000 0.0000 0.0000 8.6465
#
#
#
# Elastic Compliance Matrix: (Units=1/GPa)
#
#
# Indices 1 2 3 4 5 6 
#
# 1 0.025344 -0.004521 -0.022052 0.000000 0.000000 0.000000
# 2 -0.004521 0.017889 0.004459 0.000000 0.000000 0.000000
# 3 -0.022052 0.004459 0.031536 0.000000 0.000000 0.000000
# 4 0.000000 0.000000 0.000000 0.076955 0.000000 0.000000
# 5 0.000000 0.000000 0.000000 0.000000 0.031653 0.000000
# 6 0.000000 0.000000 0.000000 0.000000 0.000000 0.115654
#
#
# Mechanical properties :
#
#
# Convention : Reuss Voigt Hill
#
# Bulk Modulus (GPa) = 32.74267 43.71613 38.22940
# Shear Modulus (GPa) = 14.14671 21.69602 17.92136
#
# Velocity S-wave (km/s) = 2.67336 3.31070 3.00896
# Velocity P-wave (km/s) = 5.10594 6.05802 5.60224
#
# Compressibility (1/GPa) = 0.03054119
#
# Stress axis : x y z
#
# Youngs Moduli (GPa) = 39.45670 55.90050 31.71021
#
# Poissons Ratio (x) = 0.25273 0.69927
# Poissons Ratio (y) = 0.17839 -0.14140
# Poissons Ratio (z) = 0.87009 -0.24927
#
# Static dielectric constant tensor:
#      x y z
#    x 1.751490 0.000000 0.000000 
#    y 0.000000 1.720120 0.000000 
#    z 0.000000 0.000000 1.678620 
# 
# From -- ./inp_files/16797.got.cif
#   From: 2010.05.17/outbox.cif.g08.bks.cpg/sg60_9_cif.got.tgz:16797.got - 2010.06.03 14:59:27.
