data_PCOD9456275
_publ_section_title
;
Structure prediction by ZEFSAII (Michael W. Deem and Ramdas Pophale) SiO2 
 PCOD9456275
Probable space group: P B C N
;
_chemical_formula_sum "Si O2"
_cell_formula_units_Z 48
_cell_length_a 5.321723
_cell_length_b 19.798512
_cell_length_c 19.471671
_cell_angle_alpha 90.000000
_cell_angle_beta 90.000000
_cell_angle_gamma 90.000000
_cell_volume 2051.578030
_symmetry_space_group_name_H-M "P B C N"
_symmetry_group_IT_number 60
_symmetry_cell_setting 'orthorhombic'
loop_
_space_group_symop_operation_xyz
x,y,z
1/2-x,1/2-y,1/2+z
1/2+x,1/2-y,-z
-x,y,1/2-z
-x,-y,-z
1/2+x,1/2+y,1/2-z
1/2-x,1/2+y,z
x,-y,1/2+z
loop_
_atom_site_type_symbol
_atom_site_label
_atom_site_fract_x
_atom_site_fract_y
_atom_site_fract_z
Si Si1 0.255697 0.938903 0.921587
Si Si2 0.182914 0.190155 0.944195
Si Si3 0.348875 0.874968 0.681658
Si Si4 0.520203 0.698649 0.407384
Si Si5 0.420939 0.485582 0.178363
Si Si6 0.817819 0.600710 0.930071
O O1 0.483193 0.903456 0.881231
O O2 0.051537 0.879048 0.920174
O O3 0.142876 0.999898 0.876987
O O4 0.296934 0.947312 0.002593
O O5 0.276758 0.254487 0.900286
O O6 0.921169 0.152445 0.928237
O O7 0.419529 0.139513 0.937440
O O8 0.162460 0.217439 0.022505
O O9 0.500000 0.859685 0.750000
O O10 0.196776 0.809167 0.657749
O O11 0.183551 0.940875 0.698435
O O12 0.500000 0.452311 0.250000
O O13 0.212478 0.443656 0.137728
#
# Coordination Sequence:
#
# PCOD9456275 Si02
#       6
#     8   8   8   8   8   8
#     4  10  21  40  64  98 125 168 223 281 332 389
#     4  11  23  41  67  98 129 173 215 268 333 397
#     4  11  22  39  68  98 132 173 227 286 350 394
#     4  10  22  39  67  98 131 167 222 282 339 401
#     4  11  24  41  63  91 135 180 217 278 340 405
#     4  11  25  41  66 100 132 173 224 269 325 414
#
# _framework density 23.396623000000002
#
# number of rings (size 3 to 8) (size 9 to 14) (size 15 to 20)
#    0.000    1.333    3.333    2.500    4.667    0.667 
#    0.000    0.833    3.667    0.000    0.000    0.000 
#    0.000    0.000    0.000    0.000    0.000    0.000 
#
# Total GULP energy -268269.176003 kJ/mol
# GULP energy per Si atom -5588.941167 kJ/mol
# Density = 2.334337 g / cm^3
# Si number density = 23.396623 Si / 1000 Ang^3
#
#
#
# Elastic Constant Matrix: (Units=GPa)
#
#
# Indices 1 2 3 4 5 6 
#
# 1 113.5190 35.9960 17.4939 0.0000 0.0000 0.0000
# 2 35.9960 66.6740 19.6436 0.0000 0.0000 0.0000
# 3 17.4939 19.6436 104.8172 0.0000 0.0000 0.0000
# 4 0.0000 0.0000 0.0000 17.1792 0.0000 0.0000
# 5 0.0000 0.0000 0.0000 0.0000 22.4185 0.0000
# 6 0.0000 0.0000 0.0000 0.0000 0.0000 42.0309
#
#
#
# Elastic Compliance Matrix: (Units=1/GPa)
#
#
# Indices 1 2 3 4 5 6 
#
# 1 0.010683 -0.005549 -0.000743 0.000000 0.000000 0.000000
# 2 -0.005549 0.018757 -0.002589 0.000000 0.000000 0.000000
# 3 -0.000743 -0.002589 0.010150 0.000000 0.000000 0.000000
# 4 0.000000 0.000000 0.000000 0.058210 0.000000 0.000000
# 5 0.000000 0.000000 0.000000 0.000000 0.044606 0.000000
# 6 0.000000 0.000000 0.000000 0.000000 0.000000 0.023792
#
#
# Mechanical properties :
#
#
# Convention : Reuss Voigt Hill
#
# Bulk Modulus (GPa) = 45.81327 47.91970 46.86648
# Shear Modulus (GPa) = 26.14585 30.45084 28.29835
#
# Velocity S-wave (km/s) = 3.34654 3.61155 3.48157
# Velocity P-wave (km/s) = 5.87844 6.15768 6.01968
#
# Compressibility (1/GPa) = 0.02182774
#
# Stress axis : x y z
#
# Youngs Moduli (GPa) = 93.60630 53.31411 98.52544
#
# Poissons Ratio (x) = 0.29582 0.07322
# Poissons Ratio (y) = 0.51939 0.25509
# Poissons Ratio (z) = 0.06956 0.13804
#
# Static dielectric constant tensor:
#      x y z
#    x 1.986830 0.000000 0.000000 
#    y 0.000000 1.908510 0.000000 
#    z 0.000000 0.000000 1.913400 
# 
# From -- ./inp_files/21602.got.cif
#   From: 2010.05.17/outbox.cif.g08.bks.cpg/sg60_11_cif.got.tgz:21602.got - 2010.06.03 14:59:27.
