data_PCOD9456864
_publ_section_title
;
Structure prediction by ZEFSAII (Michael W. Deem and Ramdas Pophale) SiO2 
 PCOD9456864
Probable space group: P B C N
;
_chemical_formula_sum "Si O2"
_cell_formula_units_Z 60
_cell_length_a 23.039525
_cell_length_b 8.586382
_cell_length_c 13.520808
_cell_angle_alpha 90.000000
_cell_angle_beta 90.000000
_cell_angle_gamma 90.000000
_cell_volume 2674.769564
_symmetry_space_group_name_H-M "P B C N"
_symmetry_group_IT_number 60
_symmetry_cell_setting 'orthorhombic'
loop_
_space_group_symop_operation_xyz
x,y,z
1/2-x,1/2-y,1/2+z
1/2+x,1/2-y,-z
-x,y,1/2-z
-x,-y,-z
1/2+x,1/2+y,1/2-z
1/2-x,1/2+y,z
x,-y,1/2+z
loop_
_atom_site_type_symbol
_atom_site_label
_atom_site_fract_x
_atom_site_fract_y
_atom_site_fract_z
Si Si1 0.386848 0.902051 0.846545
Si Si2 0.246672 0.027173 0.570771
Si Si3 0.943644 0.710965 0.616107
Si Si4 0.665141 0.263442 0.984881
Si Si5 0.500000 0.793924 0.750000
Si Si6 0.431005 0.734870 0.155614
Si Si7 0.064126 0.881683 0.087198
Si Si8 0.680631 0.770595 0.825866
O O1 0.443431 0.891273 0.777210
O O2 0.333404 0.861400 0.774795
O O3 0.398624 0.068264 0.897644
O O4 0.380728 0.769423 0.929286
O O5 0.191861 0.935231 0.524780
O O6 0.291845 0.895935 0.601394
O O7 0.280654 0.146906 0.501062
O O8 0.225204 0.125722 0.666351
O O9 0.931595 0.777202 0.725879
O O10 0.938124 0.831100 0.526440
O O11 0.012644 0.667094 0.620745
O O12 0.631210 0.211827 0.885223
O O13 0.487012 0.691498 0.653397
O O14 0.437090 0.564645 0.107079
O O15 0.121554 0.804495 0.134075
#
# Coordination Sequence:
#
# PCOD9456864 Si02
#       8
#     8   8   8   8   4   8   8   8
#     4  11  24  41  67 101 132 182 227 291 349 438
#     4  10  22  43  65  92 132 182 226 294 335 416
#     4  11  24  39  66  97 136 178 235 278 354 424
#     4  11  23  42  68  97 137 178 232 284 354 409
#     4  10  22  40  66  96 140 172 224 288 354 426
#     4  11  23  41  63  98 135 179 227 288 344 422
#     4  11  22  41  63  97 135 184 220 289 350 425
#     4  10  22  42  66  93 133 172 226 279 351 398
#
# _framework density 22.431837999999999
#
# number of rings (size 3 to 8) (size 9 to 14) (size 15 to 20)
#    0.000    1.333    1.333    4.400    0.000    7.467 
#    0.000    5.333    0.000    0.000    0.000    0.000 
#    0.000    0.000    0.000    0.000    0.000    0.000 
#
# Total GULP energy -334842.059122 kJ/mol
# GULP energy per Si atom -5580.700985 kJ/mol
# Density = 2.238078 g / cm^3
# Si number density = 22.431838 Si / 1000 Ang^3
#
#
#
# Elastic Constant Matrix: (Units=GPa)
#
#
# Indices 1 2 3 4 5 6 
#
# 1 64.1169 16.1532 7.5377 0.0000 0.0000 0.0000
# 2 16.1532 95.6063 11.9576 0.0000 0.0000 0.0000
# 3 7.5377 11.9576 77.0324 0.0000 0.0000 0.0000
# 4 0.0000 0.0000 0.0000 29.5625 0.0000 0.0000
# 5 0.0000 0.0000 0.0000 0.0000 27.3879 0.0000
# 6 0.0000 0.0000 0.0000 0.0000 0.0000 40.3084
#
#
#
# Elastic Compliance Matrix: (Units=1/GPa)
#
#
# Indices 1 2 3 4 5 6 
#
# 1 0.016398 -0.002621 -0.001198 0.000000 0.000000 0.000000
# 2 -0.002621 0.011085 -0.001464 0.000000 0.000000 0.000000
# 3 -0.001198 -0.001464 0.013326 0.000000 0.000000 0.000000
# 4 0.000000 0.000000 0.000000 0.033827 0.000000 0.000000
# 5 0.000000 0.000000 0.000000 0.000000 0.036512 0.000000
# 6 0.000000 0.000000 0.000000 0.000000 0.000000 0.024809
#
#
# Mechanical properties :
#
#
# Convention : Reuss Voigt Hill
#
# Bulk Modulus (GPa) = 33.06478 34.22805 33.64641
# Shear Modulus (GPa) = 31.92776 32.85891 32.39333
#
# Velocity S-wave (km/s) = 3.77679 3.83147 3.80423
# Velocity P-wave (km/s) = 5.81300 5.90469 5.85902
#
# Compressibility (1/GPa) = 0.03024366
#
# Stress axis : x y z
#
# Youngs Moduli (GPa) = 60.98472 90.20809 75.04098
#
# Poissons Ratio (x) = 0.23640 0.08988
# Poissons Ratio (y) = 0.15982 0.10989
# Poissons Ratio (z) = 0.07304 0.13210
#
# Static dielectric constant tensor:
#      x y z
#    x 1.909820 0.000000 0.000000 
#    y 0.000000 1.863300 0.000000 
#    z 0.000000 0.000000 1.840880 
# 
# From -- ./inp_files/13308.got.cif
#   From: 2010.05.17/outbox.cif.g08.bks.cpg/sg60_7_cif.got.tgz:13308.got - 2010.06.03 14:59:27.
