data_PCOD9456104
_publ_section_title
;
Structure prediction by ZEFSAII (Michael W. Deem and Ramdas Pophale) SiO2 
 PCOD9456104
Probable space group: P B C N
;
_chemical_formula_sum "Si O2"
_cell_formula_units_Z 64
_cell_length_a 11.538671
_cell_length_b 8.132287
_cell_length_c 29.789101
_cell_angle_alpha 90.000000
_cell_angle_beta 90.000000
_cell_angle_gamma 90.000000
_cell_volume 2795.283652
_symmetry_space_group_name_H-M "P B C N"
_symmetry_group_IT_number 60
_symmetry_cell_setting 'orthorhombic'
loop_
_space_group_symop_operation_xyz
x,y,z
1/2-x,1/2-y,1/2+z
1/2+x,1/2-y,-z
-x,y,1/2-z
-x,-y,-z
1/2+x,1/2+y,1/2-z
1/2-x,1/2+y,z
x,-y,1/2+z
loop_
_atom_site_type_symbol
_atom_site_label
_atom_site_fract_x
_atom_site_fract_y
_atom_site_fract_z
Si Si1 0.797101 0.853792 0.906199
Si Si2 0.682160 0.986968 0.626311
Si Si3 0.421750 0.204439 0.039285
Si Si4 0.725267 0.899869 0.342169
Si Si5 0.049886 0.888709 0.203854
Si Si6 0.575644 0.377525 0.112246
Si Si7 0.016979 0.335826 0.439755
Si Si8 0.488445 0.001083 0.299802
O O1 0.711344 0.805799 0.946116
O O2 0.766252 0.792125 0.855424
O O3 0.922776 0.787738 0.918920
O O4 0.766735 0.038644 0.891647
O O5 0.815266 0.000966 0.612002
O O6 0.617026 0.116922 0.594634
O O7 0.635855 0.027888 0.676683
O O8 0.633497 0.802617 0.620371
O O9 0.494152 0.334708 0.069629
O O10 0.465015 0.018046 0.049778
O O11 0.438891 0.235712 0.986866
O O12 0.813785 0.920547 0.301405
O O13 0.592795 0.937696 0.331134
O O14 0.016915 0.695270 0.204234
O O15 0.000000 0.961159 0.250000
O O16 0.997100 0.937473 0.155565
O O17 0.500000 0.929184 0.250000
#
# Coordination Sequence:
#
# PCOD9456104 Si02
#       8
#     8   8   8   8   8   8   8   8
#     4  12  21  40  66  91 121 162 210 257 307 371
#     4  10  21  39  57  83 119 158 192 240 307 357
#     4  10  21  40  62  89 122 162 203 253 315 364
#     4  12  21  40  66  91 121 161 208 254 306 370
#     4  10  22  40  63  88 122 162 202 252 312 365
#     4  10  21  39  59  83 121 157 191 246 304 359
#     4  10  22  39  63  87 122 164 204 250 310 373
#     4  10  21  39  62  87 120 161 201 248 312 372
#
# _framework density 22.895707999999999
#
# number of rings (size 3 to 8) (size 9 to 14) (size 15 to 20)
#    0.000    1.500    5.000    0.750    3.500    1.000 
#    0.000    1.250    0.000    0.000    0.000    0.000 
#    0.000    0.000    0.000    0.000    0.000    0.000 
#
# Total GULP energy -356812.157770 kJ/mol
# GULP energy per Si atom -5575.189965 kJ/mol
# Density = 2.284360 g / cm^3
# Si number density = 22.895708 Si / 1000 Ang^3
#
#
#
# Elastic Constant Matrix: (Units=GPa)
#
#
# Indices 1 2 3 4 5 6 
#
# 1 53.4902 8.8304 0.0858 0.0000 0.0000 0.0000
# 2 8.8304 17.6636 20.6786 0.0000 0.0000 0.0000
# 3 0.0858 20.6786 99.6578 0.0000 0.0000 0.0000
# 4 0.0000 0.0000 0.0000 8.5034 0.0000 0.0000
# 5 0.0000 0.0000 0.0000 0.0000 21.0656 0.0000
# 6 0.0000 0.0000 0.0000 0.0000 0.0000 28.6752
#
#
#
# Elastic Compliance Matrix: (Units=1/GPa)
#
#
# Indices 1 2 3 4 5 6 
#
# 1 0.020972 -0.013820 0.002850 0.000000 0.000000 0.000000
# 2 -0.013820 0.083886 -0.017394 0.000000 0.000000 0.000000
# 3 0.002850 -0.017394 0.013641 0.000000 0.000000 0.000000
# 4 0.000000 0.000000 0.000000 0.117601 0.000000 0.000000
# 5 0.000000 0.000000 0.000000 0.000000 0.047471 0.000000
# 6 0.000000 0.000000 0.000000 0.000000 0.000000 0.034873
#
#
# Mechanical properties :
#
#
# Convention : Reuss Voigt Hill
#
# Bulk Modulus (GPa) = 16.18932 25.55571 20.87251
# Shear Modulus (GPa) = 12.63384 21.06329 16.84856
#
# Velocity S-wave (km/s) = 2.35159 3.03639 2.71566
# Velocity P-wave (km/s) = 3.80257 4.84550 4.35537
#
# Compressibility (1/GPa) = 0.06176912
#
# Stress axis : x y z
#
# Youngs Moduli (GPa) = 47.68272 11.92100 73.30794
#
# Poissons Ratio (x) = 0.16475 -0.20890
# Poissons Ratio (y) = 0.65899 1.27512
# Poissons Ratio (z) = -0.13588 0.20735
#
# Static dielectric constant tensor:
#      x y z
#    x 1.888430 0.000000 0.000000 
#    y 0.000000 1.883670 0.000000 
#    z 0.000000 0.000000 1.836820 
# 
# From -- ./inp_files/26094.got.cif
#   From: 2010.05.17/outbox.cif.g08.bks.cpg/sg60_14_cif.got.tgz:26094.got - 2010.06.03 14:59:27.
