data_PCOD9456050
_publ_section_title
;
Structure prediction by ZEFSAII (Michael W. Deem and Ramdas Pophale) SiO2 
 PCOD9456050
Probable space group: P B C N
;
_chemical_formula_sum "Si O2"
_cell_formula_units_Z 44
_cell_length_a 11.240121
_cell_length_b 17.427112
_cell_length_c 11.421347
_cell_angle_alpha 90.000000
_cell_angle_beta 90.000000
_cell_angle_gamma 90.000000
_cell_volume 2237.245973
_symmetry_space_group_name_H-M "P B C N"
_symmetry_group_IT_number 60
_symmetry_cell_setting 'orthorhombic'
loop_
_space_group_symop_operation_xyz
x,y,z
1/2-x,1/2-y,1/2+z
1/2+x,1/2-y,-z
-x,y,1/2-z
-x,-y,-z
1/2+x,1/2+y,1/2-z
1/2-x,1/2+y,z
x,-y,1/2+z
loop_
_atom_site_type_symbol
_atom_site_label
_atom_site_fract_x
_atom_site_fract_y
_atom_site_fract_z
Si Si1 0.153699 0.756251 0.589012
Si Si2 0.500000 0.855630 0.250000
Si Si3 0.639108 0.397712 0.736232
Si Si4 0.165468 0.133636 0.531734
Si Si5 0.569845 0.667645 0.641753
Si Si6 0.263702 0.057271 0.738142
O O1 0.055818 0.700964 0.651143
O O2 0.161387 0.832719 0.666628
O O3 0.279016 0.712476 0.580992
O O4 0.118422 0.776104 0.456583
O O5 0.609459 0.911598 0.219039
O O6 0.500000 0.421306 0.750000
O O7 0.660454 0.364365 0.606919
O O8 0.725449 0.470379 0.743804
O O9 0.248260 0.072445 0.598327
O O10 0.032222 0.119141 0.576039
O O11 0.500000 0.705796 0.750000
O O12 0.668920 0.612033 0.695328
#
# Coordination Sequence:
#
# PCOD9456050 Si02
#       6
#     8   4   8   8   8   8
#     4  11  23  39  70  93 133 181 226 274 338 409
#     4  10  22  50  64  94 140 182 212 274 352 404
#     4  12  23  41  71  99 129 179 229 274 340 395
#     4  10  23  40  59 100 133 165 228 273 333 399
#     4  10  21  38  62  95 129 166 220 282 327 385
#     4  10  25  41  68  92 137 172 220 279 339 400
#
# _framework density 19.667037000000001
#
# number of rings (size 3 to 8) (size 9 to 14) (size 15 to 20)
#    0.000    1.455    2.727    1.636   12.727    1.455 
#    0.000    5.455    0.000    0.000    0.000    0.000 
#    0.000    0.000    0.000    0.000    0.000    0.000 
#
# Total GULP energy -245388.757006 kJ/mol
# GULP energy per Si atom -5577.017205 kJ/mol
# Density = 1.962227 g / cm^3
# Si number density = 19.667037 Si / 1000 Ang^3
#
#
#
# Elastic Constant Matrix: (Units=GPa)
#
#
# Indices 1 2 3 4 5 6 
#
# 1 124.9163 66.7062 40.7960 0.0000 0.0000 0.0000
# 2 66.7062 106.1383 43.5120 0.0000 0.0000 0.0000
# 3 40.7960 43.5120 123.5802 0.0000 0.0000 0.0000
# 4 0.0000 0.0000 0.0000 8.2009 0.0000 0.0000
# 5 0.0000 0.0000 0.0000 0.0000 25.7210 0.0000
# 6 0.0000 0.0000 0.0000 0.0000 0.0000 22.1871
#
#
#
# Elastic Compliance Matrix: (Units=1/GPa)
#
#
# Indices 1 2 3 4 5 6 
#
# 1 0.012303 -0.007091 -0.001565 0.000000 0.000000 0.000000
# 2 -0.007091 0.015098 -0.002975 0.000000 0.000000 0.000000
# 3 -0.001565 -0.002975 0.009656 0.000000 0.000000 0.000000
# 4 0.000000 0.000000 0.000000 0.121938 0.000000 0.000000
# 5 0.000000 0.000000 0.000000 0.000000 0.038879 0.000000
# 6 0.000000 0.000000 0.000000 0.000000 0.000000 0.045071
#
#
# Mechanical properties :
#
#
# Convention : Reuss Voigt Hill
#
# Bulk Modulus (GPa) = 72.48756 72.96259 72.72508
# Shear Modulus (GPa) = 18.46354 24.79649 21.63001
#
# Velocity S-wave (km/s) = 3.06732 3.55465 3.31994
# Velocity P-wave (km/s) = 7.03434 7.35029 7.19405
#
# Compressibility (1/GPa) = 0.01379547
#
# Stress axis : x y z
#
# Youngs Moduli (GPa) = 81.28185 66.23530 103.56266
#
# Poissons Ratio (x) = 0.46965 0.16206
# Poissons Ratio (y) = 0.57634 0.30811
# Poissons Ratio (z) = 0.12719 0.19706
#
# Static dielectric constant tensor:
#      x y z
#    x 1.708020 0.000000 0.000000 
#    y 0.000000 1.701830 0.000000 
#    z 0.000000 0.000000 1.738220 
# 
# From -- ./inp_files/10950.got.cif
#   From: 2010.05.17/outbox.cif.g08.bks.cpg/sg60_6_cif.got.tgz:10950.got - 2010.06.03 14:59:27.
