data_PCOD9456682
_publ_section_title
;
Structure prediction by ZEFSAII (Michael W. Deem and Ramdas Pophale) SiO2 
 PCOD9456682
Probable space group: P B C N
;
_chemical_formula_sum "Si O2"
_cell_formula_units_Z 60
_cell_length_a 19.046675
_cell_length_b 11.014420
_cell_length_c 14.360064
_cell_angle_alpha 90.000000
_cell_angle_beta 90.000000
_cell_angle_gamma 90.000000
_cell_volume 3012.570227
_symmetry_space_group_name_H-M "P B C N"
_symmetry_group_IT_number 60
_symmetry_cell_setting 'orthorhombic'
loop_
_space_group_symop_operation_xyz
x,y,z
1/2-x,1/2-y,1/2+z
1/2+x,1/2-y,-z
-x,y,1/2-z
-x,-y,-z
1/2+x,1/2+y,1/2-z
1/2-x,1/2+y,z
x,-y,1/2+z
loop_
_atom_site_type_symbol
_atom_site_label
_atom_site_fract_x
_atom_site_fract_y
_atom_site_fract_z
Si Si1 0.890605 0.768377 0.796249
Si Si2 0.678044 0.171077 0.976927
Si Si3 0.830794 0.309720 0.110577
Si Si4 0.815508 0.896917 0.107822
Si Si5 0.500000 0.945217 0.250000
Si Si6 0.437245 0.995660 0.929465
Si Si7 0.920412 0.049448 0.778353
Si Si8 0.828672 0.898804 0.458724
O O1 0.850422 0.752143 0.892648
O O2 0.838398 0.760537 0.707802
O O3 0.942638 0.651224 0.790723
O O4 0.923526 0.902472 0.790664
O O5 0.745372 0.099382 0.935328
O O6 0.686849 0.262428 0.064154
O O7 0.621754 0.079530 0.018283
O O8 0.768649 0.408961 0.123783
O O9 0.904105 0.374950 0.092929
O O10 0.827765 0.221602 0.022179
O O11 0.865482 0.915007 0.196300
O O12 0.841357 0.990178 0.029212
O O13 0.532756 0.033988 0.172239
O O14 0.500000 0.000000 0.000000
O O15 0.883574 0.098799 0.873755
O O16 0.000000 0.089049 0.750000
#
# Coordination Sequence:
#
# PCOD9456682 Si02
#       8
#     8   8   8   8   4   8   8   8
#     4  11  20  39  66  95 132 170 218 264 333 402
#     4  11  23  42  68  97 130 177 223 272 330 402
#     4  10  23  42  68  96 130 174 221 273 328 398
#     4  11  23  44  66  93 130 171 222 277 328 392
#     4  10  22  38  60  92 128 178 210 264 330 388
#     4  11  22  40  65  96 133 167 216 269 328 389
#     4  12  26  43  65 100 134 174 221 279 344 402
#     4  11  23  44  67  94 130 174 223 276 334 400
#
# _framework density 19.916547999999999
#
# number of rings (size 3 to 8) (size 9 to 14) (size 15 to 20)
#    0.000    1.067    6.000    0.800    0.000    1.600 
#    3.600    0.000    0.000    0.000    0.000    0.000 
#    0.000    0.000    0.000    0.000    0.000    0.000 
#
# Total GULP energy -334009.703766 kJ/mol
# GULP energy per Si atom -5566.828396 kJ/mol
# Density = 1.987122 g / cm^3
# Si number density = 19.916548 Si / 1000 Ang^3
#
#
#
# Elastic Constant Matrix: (Units=GPa)
#
#
# Indices 1 2 3 4 5 6 
#
# 1 111.1912 15.5141 61.3351 0.0000 0.0000 0.0000
# 2 15.5141 23.8286 26.8682 0.0000 0.0000 0.0000
# 3 61.3351 26.8682 129.2904 0.0000 0.0000 0.0000
# 4 0.0000 0.0000 0.0000 33.1658 0.0000 0.0000
# 5 0.0000 0.0000 0.0000 0.0000 24.1757 0.0000
# 6 0.0000 0.0000 0.0000 0.0000 0.0000 -15.5137
#
#
#
# Elastic Compliance Matrix: (Units=1/GPa)
#
#
# Indices 1 2 3 4 5 6 
#
# 1 0.012244 -0.001857 -0.005422 0.000000 0.000000 0.000000
# 2 -0.001857 0.055091 -0.010568 0.000000 0.000000 0.000000
# 3 -0.005422 -0.010568 0.012503 0.000000 0.000000 0.000000
# 4 0.000000 0.000000 0.000000 0.030152 0.000000 0.000000
# 5 0.000000 0.000000 0.000000 0.000000 0.041364 0.000000
# 6 0.000000 0.000000 0.000000 0.000000 0.000000 -0.064459
#
#
# Mechanical properties :
#
#
# Convention : Reuss Voigt Hill
#
# Bulk Modulus (GPa) = 22.65351 52.41611 37.53481
# Shear Modulus (GPa) = 36.41569 19.07175 27.74372
#
# Velocity S-wave (km/s) = 4.28063 3.09784 3.73634
# Velocity P-wave (km/s) = 5.98587 6.25863 6.12377
#
# Compressibility (1/GPa) = 0.04414327
#
# Stress axis : x y z
#
# Youngs Moduli (GPa) = 81.67406 18.15170 79.98090
#
# Poissons Ratio (x) = 0.03372 0.43369
# Poissons Ratio (y) = 0.15170 0.84520
# Poissons Ratio (z) = 0.44287 0.19182
#
# Static dielectric constant tensor:
#      x y z
#    x 1.888780 0.000000 0.000000 
#    y 0.000000 1.824830 0.000000 
#    z 0.000000 0.000000 1.726710 
# 
# From -- ./inp_files/17460.got.cif
#   From: 2010.05.17/outbox.cif.g08.bks.cpg/sg60_9_cif.got.tgz:17460.got - 2010.06.03 14:59:27.
