data_PCOD9456290
_publ_section_title
;
Structure prediction by ZEFSAII (Michael W. Deem and Ramdas Pophale) SiO2 
 PCOD9456290
Probable space group: P B C N
;
_chemical_formula_sum "Si O2"
_cell_formula_units_Z 48
_cell_length_a 27.786784
_cell_length_b 8.789216
_cell_length_c 8.333093
_cell_angle_alpha 90.000000
_cell_angle_beta 90.000000
_cell_angle_gamma 90.000000
_cell_volume 2035.141692
_symmetry_space_group_name_H-M "P B C N"
_symmetry_group_IT_number 60
_symmetry_cell_setting 'orthorhombic'
loop_
_space_group_symop_operation_xyz
x,y,z
1/2-x,1/2-y,1/2+z
1/2+x,1/2-y,-z
-x,y,1/2-z
-x,-y,-z
1/2+x,1/2+y,1/2-z
1/2-x,1/2+y,z
x,-y,1/2+z
loop_
_atom_site_type_symbol
_atom_site_label
_atom_site_fract_x
_atom_site_fract_y
_atom_site_fract_z
Si Si1 0.706463 0.663044 0.734466
Si Si2 0.044423 0.793662 0.043321
Si Si3 0.399425 0.878947 0.323123
Si Si4 0.000000 0.025762 0.250000
Si Si5 0.759074 0.451398 0.934606
Si Si6 0.000000 0.534127 0.250000
Si Si7 0.151878 0.659976 0.495051
O O1 0.710716 0.524567 0.858920
O O2 0.718795 0.820154 0.824132
O O3 0.747976 0.619359 0.606893
O O4 0.660598 0.698682 0.623262
O O5 0.014851 0.648154 0.106673
O O6 0.042428 0.914687 0.187273
O O7 0.094864 0.737880 0.970960
O O8 0.017125 0.873457 0.896876
O O9 0.376345 0.815134 0.160698
O O10 0.453121 0.934742 0.281724
O O11 0.372745 0.026777 0.391217
O O12 0.796566 0.589362 0.954219
#
# Coordination Sequence:
#
# PCOD9456290 Si02
#       7
#     8   8   8   4   8   4   8
#     4  12  23  44  73 103 137 188 228 282 361 431
#     4  10  21  40  66  91 130 177 236 271 342 407
#     4  12  24  42  66 104 138 172 235 295 342 406
#     4   9  21  40  66  90 123 181 244 272 328 429
#     4  12  23  44  74  99 140 184 231 282 357 439
#     4  11  23  40  70 100 127 189 226 284 348 405
#     4  12  25  41  70 105 139 175 229 303 341 408
#
# _framework density 23.585581000000001
#
# number of rings (size 3 to 8) (size 9 to 14) (size 15 to 20)
#    0.000    0.667    6.667    1.000    2.333    0.000 
#    0.000    1.667    0.000    0.000    0.000    0.000 
#    0.000    0.000    0.000    0.000    0.000    0.000 
#
# Total GULP energy -268493.761922 kJ/mol
# GULP energy per Si atom -5593.620040 kJ/mol
# Density = 2.353190 g / cm^3
# Si number density = 23.585581 Si / 1000 Ang^3
#
#
#
# Elastic Constant Matrix: (Units=GPa)
#
#
# Indices 1 2 3 4 5 6 
#
# 1 46.9923 -0.9235 7.0081 0.0000 0.0000 0.0000
# 2 -0.9235 49.0281 15.7651 0.0000 0.0000 0.0000
# 3 7.0081 15.7651 87.5365 0.0000 0.0000 0.0000
# 4 0.0000 0.0000 0.0000 36.8606 0.0000 0.0000
# 5 0.0000 0.0000 0.0000 0.0000 47.4724 0.0000
# 6 0.0000 0.0000 0.0000 0.0000 0.0000 28.3675
#
#
#
# Elastic Compliance Matrix: (Units=1/GPa)
#
#
# Indices 1 2 3 4 5 6 
#
# 1 0.021585 0.001021 -0.001912 0.000000 0.000000 0.000000
# 2 0.001021 0.021699 -0.003990 0.000000 0.000000 0.000000
# 3 -0.001912 -0.003990 0.012295 0.000000 0.000000 0.000000
# 4 0.000000 0.000000 0.000000 0.027129 0.000000 0.000000
# 5 0.000000 0.000000 0.000000 0.000000 0.021065 0.000000
# 6 0.000000 0.000000 0.000000 0.000000 0.000000 0.035252
#
#
# Mechanical properties :
#
#
# Convention : Reuss Voigt Hill
#
# Bulk Modulus (GPa) = 21.82513 25.25070 23.53791
# Shear Modulus (GPa) = 30.47695 33.32058 31.89876
#
# Velocity S-wave (km/s) = 3.59860 3.76274 3.68158
# Velocity P-wave (km/s) = 5.15172 5.44121 5.29845
#
# Compressibility (1/GPa) = 0.04581874
#
# Stress axis : x y z
#
# Youngs Moduli (GPa) = 46.32786 46.08598 81.33125
#
# Poissons Ratio (x) = -0.04707 0.15551
# Poissons Ratio (y) = -0.04732 0.32448
# Poissons Ratio (z) = 0.08858 0.18387
#
# Static dielectric constant tensor:
#      x y z
#    x 2.026170 0.000000 0.000000 
#    y 0.000000 1.900980 0.000000 
#    z 0.000000 0.000000 1.833920 
# 
# From -- ./inp_files/8423.got.cif
#   From: 2010.05.17/outbox.cif.g08.bks.cpg/sg60_5_cif.got.tgz:8423.got - 2010.06.03 14:59:27.
