data_PCOD9456238
_publ_section_title
;
Structure prediction by ZEFSAII (Michael W. Deem and Ramdas Pophale) SiO2 
 PCOD9456238
Probable space group: P B C N
;
_chemical_formula_sum "Si O2"
_cell_formula_units_Z 40
_cell_length_a 20.441271
_cell_length_b 8.885547
_cell_length_c 9.348570
_cell_angle_alpha 90.000000
_cell_angle_beta 90.000000
_cell_angle_gamma 90.000000
_cell_volume 1697.998290
_symmetry_space_group_name_H-M "P B C N"
_symmetry_group_IT_number 60
_symmetry_cell_setting 'orthorhombic'
loop_
_space_group_symop_operation_xyz
x,y,z
1/2-x,1/2-y,1/2+z
1/2+x,1/2-y,-z
-x,y,1/2-z
-x,-y,-z
1/2+x,1/2+y,1/2-z
1/2-x,1/2+y,z
x,-y,1/2+z
loop_
_atom_site_type_symbol
_atom_site_label
_atom_site_fract_x
_atom_site_fract_y
_atom_site_fract_z
Si Si1 0.731744 0.364028 0.233557
Si Si2 0.307606 0.642803 0.448084
Si Si3 0.476504 0.351775 0.584960
Si Si4 0.920829 0.374866 0.083960
Si Si5 0.624186 0.875928 0.372904
O O1 0.698591 0.485523 0.131273
O O2 0.692114 0.348247 0.380365
O O3 0.745952 0.228100 0.124963
O O4 0.803629 0.394215 0.305055
O O5 0.371979 0.732409 0.405522
O O6 0.500000 0.371659 0.750000
O O7 0.500000 0.500000 0.500000
O O8 0.514035 0.202546 0.525385
O O9 0.401074 0.292472 0.584727
O O10 0.925192 0.426360 0.246986
O O11 0.885635 0.504464 0.996982
#
# Coordination Sequence:
#
# PCOD9456238 Si02
#       5
#     8   8   8   8   8
#     4  11  22  39  59  89 123 163 206 259 318 385
#     4  11  23  38  61  90 124 162 211 261 319 389
#     4  10  23  40  60  90 123 157 207 264 320 375
#     4  10  22  39  61  88 118 161 207 257 313 381
#     4  10  21  40  61  85 120 161 209 255 312 384
#
# _framework density 23.557151999999999
#
# number of rings (size 3 to 8) (size 9 to 14) (size 15 to 20)
#    0.000    1.600    0.000    5.400    0.000    8.000 
#    0.000    0.000    0.000    0.000    0.000    0.000 
#    0.000    0.000    0.000    0.000    0.000    0.000 
#
# Total GULP energy -223088.329136 kJ/mol
# GULP energy per Si atom -5577.208228 kJ/mol
# Density = 2.350353 g / cm^3
# Si number density = 23.557152 Si / 1000 Ang^3
#
#
#
# Elastic Constant Matrix: (Units=GPa)
#
#
# Indices 1 2 3 4 5 6 
#
# 1 65.8078 2.6218 -16.3988 0.0000 0.0000 0.0000
# 2 2.6218 58.2197 29.7668 0.0000 0.0000 0.0000
# 3 -16.3988 29.7668 85.9128 0.0000 0.0000 0.0000
# 4 0.0000 0.0000 0.0000 26.4665 0.0000 0.0000
# 5 0.0000 0.0000 0.0000 0.0000 26.1304 0.0000
# 6 0.0000 0.0000 0.0000 0.0000 0.0000 35.3247
#
#
#
# Elastic Compliance Matrix: (Units=1/GPa)
#
#
# Indices 1 2 3 4 5 6 
#
# 1 0.016330 -0.002830 0.004098 0.000000 0.000000 0.000000
# 2 -0.002830 0.021365 -0.007943 0.000000 0.000000 0.000000
# 3 0.004098 -0.007943 0.015174 0.000000 0.000000 0.000000
# 4 0.000000 0.000000 0.000000 0.037784 0.000000 0.000000
# 5 0.000000 0.000000 0.000000 0.000000 0.038270 0.000000
# 6 0.000000 0.000000 0.000000 0.000000 0.000000 0.028309
#
#
# Mechanical properties :
#
#
# Convention : Reuss Voigt Hill
#
# Bulk Modulus (GPa) = 25.30538 26.87998 26.09268
# Shear Modulus (GPa) = 27.21040 30.51438 28.86239
#
# Velocity S-wave (km/s) = 3.40233 3.60298 3.50409
# Velocity P-wave (km/s) = 5.11859 5.36134 5.24137
#
# Compressibility (1/GPa) = 0.03951729
#
# Stress axis : x y z
#
# Youngs Moduli (GPa) = 61.23840 46.80615 65.90316
#
# Poissons Ratio (x) = 0.13248 -0.27005
# Poissons Ratio (y) = 0.17333 0.52344
# Poissons Ratio (z) = -0.25093 0.37176
#
# Static dielectric constant tensor:
#      x y z
#    x 1.979080 0.000000 0.000000 
#    y 0.000000 1.954600 0.000000 
#    z 0.000000 0.000000 1.828510 
# 
# From -- ./inp_files/7706.got.cif
#   From: 2010.05.17/outbox.cif.g08.bks.cpg/sg60_4_cif.got.tgz:7706.got - 2010.06.03 14:59:27.
