data_PCOD9456364
_publ_section_title
;
Structure prediction by ZEFSAII (Michael W. Deem and Ramdas Pophale) SiO2 
 PCOD9456364
Probable space group: P B C N
;
_chemical_formula_sum "Si O2"
_cell_formula_units_Z 48
_cell_length_a 7.146872
_cell_length_b 19.965149
_cell_length_c 14.477422
_cell_angle_alpha 90.000000
_cell_angle_beta 90.000000
_cell_angle_gamma 90.000000
_cell_volume 2065.759665
_symmetry_space_group_name_H-M "P B C N"
_symmetry_group_IT_number 60
_symmetry_cell_setting 'orthorhombic'
loop_
_space_group_symop_operation_xyz
x,y,z
1/2-x,1/2-y,1/2+z
1/2+x,1/2-y,-z
-x,y,1/2-z
-x,-y,-z
1/2+x,1/2+y,1/2-z
1/2-x,1/2+y,z
x,-y,1/2+z
loop_
_atom_site_type_symbol
_atom_site_label
_atom_site_fract_x
_atom_site_fract_y
_atom_site_fract_z
Si Si1 0.640697 0.948604 0.450877
Si Si2 0.167100 0.882451 0.885220
Si Si3 0.530694 0.473898 0.146241
Si Si4 0.919043 0.846730 0.045542
Si Si5 0.798167 0.671920 0.839058
Si Si6 0.173543 0.739399 0.849023
O O1 0.683631 0.897257 0.534597
O O2 0.601420 0.899169 0.364126
O O3 0.500000 0.000000 0.500000
O O4 0.837775 0.980840 0.413707
O O5 0.215989 0.816780 0.827655
O O6 0.130050 0.954649 0.841781
O O7 0.982069 0.862102 0.942416
O O8 0.500000 0.448052 0.250000
O O9 0.644169 0.417822 0.089654
O O10 0.106694 0.827963 0.103789
O O11 0.775757 0.787293 0.060265
O O12 0.760681 0.690099 0.732805
O O13 0.954417 0.726772 0.862072
#
# Coordination Sequence:
#
# PCOD9456364 Si02
#       6
#     8   8   8   8   8   8
#     4  10  22  44  64  99 125 168 233 279 336 403
#     4  10  24  38  62  96 123 169 215 266 341 391
#     4  10  21  41  65  90 127 171 217 270 338 396
#     4  10  21  42  65  87 122 171 219 265 325 396
#     4   9  22  39  64  91 123 167 217 264 336 396
#     4  11  22  39  64  91 130 166 214 265 334 403
#
# _framework density 23.236006
#
# number of rings (size 3 to 8) (size 9 to 14) (size 15 to 20)
#    0.000    2.333    0.000    4.500   11.667    0.000 
#    3.000    1.667    0.000    0.000    0.000    0.000 
#    0.000    0.000    0.000    0.000    0.000    0.000 
#
# Total GULP energy -267576.384006 kJ/mol
# GULP energy per Si atom -5574.508000 kJ/mol
# Density = 2.318312 g / cm^3
# Si number density = 23.236006 Si / 1000 Ang^3
#
#
#
# Elastic Constant Matrix: (Units=GPa)
#
#
# Indices 1 2 3 4 5 6 
#
# 1 45.2068 14.7943 -3.8485 0.0000 0.0000 0.0000
# 2 14.7943 151.2363 21.6765 0.0000 0.0000 0.0000
# 3 -3.8485 21.6765 63.6456 0.0000 0.0000 0.0000
# 4 0.0000 0.0000 0.0000 35.5717 0.0000 0.0000
# 5 0.0000 0.0000 0.0000 0.0000 27.5664 0.0000
# 6 0.0000 0.0000 0.0000 0.0000 0.0000 16.6624
#
#
#
# Elastic Compliance Matrix: (Units=1/GPa)
#
#
# Indices 1 2 3 4 5 6 
#
# 1 0.023164 -0.002593 0.002284 0.000000 0.000000 0.000000
# 2 -0.002593 0.007242 -0.002623 0.000000 0.000000 0.000000
# 3 0.002284 -0.002623 0.016744 0.000000 0.000000 0.000000
# 4 0.000000 0.000000 0.000000 0.028112 0.000000 0.000000
# 5 0.000000 0.000000 0.000000 0.000000 0.036276 0.000000
# 6 0.000000 0.000000 0.000000 0.000000 0.000000 0.060015
#
#
# Mechanical properties :
#
#
# Convention : Reuss Voigt Hill
#
# Bulk Modulus (GPa) = 24.22259 36.14814 30.18537
# Shear Modulus (GPa) = 26.15344 31.12451 28.63897
#
# Velocity S-wave (km/s) = 3.35857 3.66388 3.51454
# Velocity P-wave (km/s) = 5.04849 5.78701 5.43032
#
# Compressibility (1/GPa) = 0.04128378
#
# Stress axis : x y z
#
# Youngs Moduli (GPa) = 43.17103 138.08654 59.72454
#
# Poissons Ratio (x) = 0.35810 -0.13640
# Poissons Ratio (y) = 0.11195 0.15667
# Poissons Ratio (z) = -0.09860 0.36223
#
# Static dielectric constant tensor:
#      x y z
#    x 1.928530 0.000000 0.000000 
#    y 0.000000 1.934360 0.000000 
#    z 0.000000 0.000000 1.983860 
# 
# From -- ./inp_files/15021.got.cif
#   From: 2010.05.17/outbox.cif.g08.bks.cpg/sg60_8_cif.got.tgz:15021.got - 2010.06.03 14:59:27.
