data_PCOD9456201
_publ_section_title
;
Structure prediction by ZEFSAII (Michael W. Deem and Ramdas Pophale) SiO2 
 PCOD9456201
Probable space group: P B C N
;
_chemical_formula_sum "Si O2"
_cell_formula_units_Z 40
_cell_length_a 5.009902
_cell_length_b 30.590254
_cell_length_c 11.390081
_cell_angle_alpha 90.000000
_cell_angle_beta 90.000000
_cell_angle_gamma 90.000000
_cell_volume 1745.577463
_symmetry_space_group_name_H-M "P B C N"
_symmetry_group_IT_number 60
_symmetry_cell_setting 'orthorhombic'
loop_
_space_group_symop_operation_xyz
x,y,z
1/2-x,1/2-y,1/2+z
1/2+x,1/2-y,-z
-x,y,1/2-z
-x,-y,-z
1/2+x,1/2+y,1/2-z
1/2-x,1/2+y,z
x,-y,1/2+z
loop_
_atom_site_type_symbol
_atom_site_label
_atom_site_fract_x
_atom_site_fract_y
_atom_site_fract_z
Si Si1 0.500000 0.819064 0.750000
Si Si2 0.095896 0.341004 0.141244
Si Si3 0.000000 0.908089 0.250000
Si Si4 0.449936 0.551656 0.500024
Si Si5 0.409127 0.107255 0.059912
Si Si6 0.312119 0.276578 0.960163
O O1 0.607431 0.854288 0.844310
O O2 0.703031 0.789974 0.669515
O O3 0.261807 0.376793 0.210896
O O4 0.000000 0.310903 0.250000
O O5 0.881240 0.364792 0.059739
O O6 0.280519 0.317976 0.045564
O O7 0.028657 0.936733 0.365959
O O8 0.500000 0.500000 0.500000
O O9 0.171958 0.576152 0.462343
O O10 0.669105 0.574584 0.418911
O O11 0.606380 0.257810 0.979247
#
# Coordination Sequence:
#
# PCOD9456201 Si02
#       6
#     4   8   4   8   8   8
#     4  10  26  47  68  92 140 174 218 270 326 403
#     4  10  21  39  67  87 123 166 213 254 307 389
#     4  10  22  39  66  92 130 168 218 262 310 391
#     4  11  23  40  64 100 130 166 219 270 326 373
#     4  10  23  42  64  94 126 176 215 255 325 393
#     4  11  28  43  66 100 128 168 216 272 331 377
#
# _framework density 22.915050000000001
#
# number of rings (size 3 to 8) (size 9 to 14) (size 15 to 20)
#    0.000    1.600    2.000    0.600    5.600    8.800 
#    0.000    0.000    0.000    0.000    0.000    0.000 
#    0.000    0.000    0.000    0.000    0.000    0.000 
#
# Total GULP energy -222882.118245 kJ/mol
# GULP energy per Si atom -5572.052956 kJ/mol
# Density = 2.286289 g / cm^3
# Si number density = 22.915050 Si / 1000 Ang^3
#
#
#
# Elastic Constant Matrix: (Units=GPa)
#
#
# Indices 1 2 3 4 5 6 
#
# 1 65.0429 12.1670 -3.3594 0.0000 0.0000 0.0000
# 2 12.1670 101.9496 30.1877 0.0000 0.0000 0.0000
# 3 -3.3594 30.1877 137.6921 0.0000 0.0000 0.0000
# 4 0.0000 0.0000 0.0000 34.8284 0.0000 0.0000
# 5 0.0000 0.0000 0.0000 0.0000 8.7334 0.0000
# 6 0.0000 0.0000 0.0000 0.0000 0.0000 36.4425
#
#
#
# Elastic Compliance Matrix: (Units=1/GPa)
#
#
# Indices 1 2 3 4 5 6 
#
# 1 0.015819 -0.002141 0.000855 0.000000 0.000000 0.000000
# 2 -0.002141 0.010780 -0.002416 0.000000 0.000000 0.000000
# 3 0.000855 -0.002416 0.007813 0.000000 0.000000 0.000000
# 4 0.000000 0.000000 0.000000 0.028712 0.000000 0.000000
# 5 0.000000 0.000000 0.000000 0.000000 0.114502 0.000000
# 6 0.000000 0.000000 0.000000 0.000000 0.000000 0.027440
#
#
# Mechanical properties :
#
#
# Convention : Reuss Voigt Hill
#
# Bulk Modulus (GPa) = 37.02462 42.51947 39.77204
# Shear Modulus (GPa) = 22.57616 33.71351 28.14483
#
# Velocity S-wave (km/s) = 3.14221 3.83983 3.50841
# Velocity P-wave (km/s) = 5.41822 6.18503 5.81428
#
# Compressibility (1/GPa) = 0.02700905
#
# Stress axis : x y z
#
# Youngs Moduli (GPa) = 63.21441 92.76810 127.99114
#
# Poissons Ratio (x) = 0.19864 -0.10948
# Poissons Ratio (y) = 0.13535 0.30917
# Poissons Ratio (z) = -0.05407 0.22409
#
# Static dielectric constant tensor:
#      x y z
#    x 2.037780 0.000000 0.000000 
#    y 0.000000 1.925530 0.000000 
#    z 0.000000 0.000000 1.843130 
# 
# From -- ./inp_files/9102.got.cif
#   From: 2010.05.17/outbox.cif.g08.bks.cpg/sg60_5_cif.got.tgz:9102.got - 2010.06.03 14:59:27.
