data_PCOD9456428
_publ_section_title
;
Structure prediction by ZEFSAII (Michael W. Deem and Ramdas Pophale) SiO2 
 PCOD9456428
Probable space group: P B C N
;
_chemical_formula_sum "Si O2"
_cell_formula_units_Z 48
_cell_length_a 10.835375
_cell_length_b 22.083111
_cell_length_c 9.210044
_cell_angle_alpha 90.000000
_cell_angle_beta 90.000000
_cell_angle_gamma 90.000000
_cell_volume 2203.768174
_symmetry_space_group_name_H-M "P B C N"
_symmetry_group_IT_number 60
_symmetry_cell_setting 'orthorhombic'
loop_
_space_group_symop_operation_xyz
x,y,z
1/2-x,1/2-y,1/2+z
1/2+x,1/2-y,-z
-x,y,1/2-z
-x,-y,-z
1/2+x,1/2+y,1/2-z
1/2-x,1/2+y,z
x,-y,1/2+z
loop_
_atom_site_type_symbol
_atom_site_label
_atom_site_fract_x
_atom_site_fract_y
_atom_site_fract_z
Si Si1 0.241367 0.972225 0.686079
Si Si2 0.587700 0.682296 0.485936
Si Si3 0.157043 0.852181 0.821559
Si Si4 0.250352 0.579058 0.870456
Si Si5 0.000000 0.586284 0.250000
Si Si6 0.000000 0.368114 0.250000
Si Si7 0.585644 0.182595 0.038665
O O1 0.158779 0.920347 0.759871
O O2 0.244845 0.962808 0.514088
O O3 0.379182 0.955117 0.743142
O O4 0.202589 0.038348 0.737290
O O5 0.456396 0.657883 0.429338
O O6 0.655030 0.687437 0.327510
O O7 0.667636 0.637053 0.585534
O O8 0.568552 0.746408 0.563744
O O9 0.280795 0.836935 0.906253
O O10 0.110148 0.595438 0.827374
O O11 0.003255 0.634214 0.117629
O O12 0.933505 0.327743 0.369580
#
# Coordination Sequence:
#
# PCOD9456428 Si02
#       7
#     8   8   8   8   4   4   8
#     4  10  22  41  65  94 136 171 227 276 335 402
#     4  10  23  44  67  96 134 179 226 275 341 410
#     4   9  22  43  66  92 134 181 218 280 345 390
#     4  11  25  41  67 100 131 180 226 277 340 405
#     4  10  21  42  62 100 132 181 214 292 336 390
#     4  12  25  42  66 102 132 179 226 276 352 400
#     4  11  24  40  70  98 138 172 230 283 342 404
#
# _framework density 21.780874000000001
#
# number of rings (size 3 to 8) (size 9 to 14) (size 15 to 20)
#    0.000    1.667    1.667    1.500    9.333    2.000 
#    0.000    0.000    0.000    0.000    0.000    0.000 
#    0.000    0.000    0.000    0.000    0.000    0.000 
#
# Total GULP energy -268062.947715 kJ/mol
# GULP energy per Si atom -5584.644744 kJ/mol
# Density = 2.173130 g / cm^3
# Si number density = 21.780874 Si / 1000 Ang^3
#
#
#
# Elastic Constant Matrix: (Units=GPa)
#
#
# Indices 1 2 3 4 5 6 
#
# 1 47.8487 23.7405 10.0186 0.0000 0.0000 0.0000
# 2 23.7405 87.9710 38.7555 0.0000 0.0000 0.0000
# 3 10.0186 38.7555 62.2473 0.0000 0.0000 0.0000
# 4 0.0000 0.0000 0.0000 36.3603 0.0000 0.0000
# 5 0.0000 0.0000 0.0000 0.0000 27.7170 0.0000
# 6 0.0000 0.0000 0.0000 0.0000 0.0000 9.3299
#
#
#
# Elastic Compliance Matrix: (Units=1/GPa)
#
#
# Indices 1 2 3 4 5 6 
#
# 1 0.024133 -0.006616 0.000235 0.000000 0.000000 0.000000
# 2 -0.006616 0.017478 -0.009817 0.000000 0.000000 0.000000
# 3 0.000235 -0.009817 0.022139 0.000000 0.000000 0.000000
# 4 0.000000 0.000000 0.000000 0.027503 0.000000 0.000000
# 5 0.000000 0.000000 0.000000 0.000000 0.036079 0.000000
# 6 0.000000 0.000000 0.000000 0.000000 0.000000 0.107183
#
#
# Mechanical properties :
#
#
# Convention : Reuss Voigt Hill
#
# Bulk Modulus (GPa) = 31.89416 38.12180 35.00798
# Shear Modulus (GPa) = 18.02708 23.05158 20.53933
#
# Velocity S-wave (km/s) = 2.88002 3.25674 3.07416
# Velocity P-wave (km/s) = 5.07290 5.62870 5.35801
#
# Compressibility (1/GPa) = 0.03135371
#
# Stress axis : x y z
#
# Youngs Moduli (GPa) = 41.43759 57.21597 45.16900
#
# Poissons Ratio (x) = 0.37855 -0.01062
# Poissons Ratio (y) = 0.27416 0.44341
# Poissons Ratio (z) = -0.00974 0.56168
#
# Static dielectric constant tensor:
#      x y z
#    x 1.801580 0.000000 0.000000 
#    y 0.000000 1.804520 0.000000 
#    z 0.000000 0.000000 1.841910 
# 
# From -- ./inp_files/5109.got.cif
#   From: 2010.05.17/outbox.cif.g08.bks.cpg/sg60_3_cif.got.tgz:5109.got - 2010.06.03 14:59:27.
