data_PCOD9456226
_publ_section_title
;
Structure prediction by ZEFSAII (Michael W. Deem and Ramdas Pophale) SiO2 
 PCOD9456226
Probable space group: P B C N
;
_chemical_formula_sum "Si O2"
_cell_formula_units_Z 48
_cell_length_a 21.303077
_cell_length_b 13.078411
_cell_length_c 8.932122
_cell_angle_alpha 90.000000
_cell_angle_beta 90.000000
_cell_angle_gamma 90.000000
_cell_volume 2488.582053
_symmetry_space_group_name_H-M "P B C N"
_symmetry_group_IT_number 60
_symmetry_cell_setting 'orthorhombic'
loop_
_space_group_symop_operation_xyz
x,y,z
1/2-x,1/2-y,1/2+z
1/2+x,1/2-y,-z
-x,y,1/2-z
-x,-y,-z
1/2+x,1/2+y,1/2-z
1/2-x,1/2+y,z
x,-y,1/2+z
loop_
_atom_site_type_symbol
_atom_site_label
_atom_site_fract_x
_atom_site_fract_y
_atom_site_fract_z
Si Si1 0.757080 0.765577 0.703602
Si Si2 0.864001 0.377912 0.205215
Si Si3 0.000000 0.044801 0.750000
Si Si4 0.440984 0.627266 0.043210
Si Si5 0.705762 0.626134 0.487549
Si Si6 0.500000 0.797519 0.250000
Si Si7 0.797439 0.450242 0.508415
O O1 0.827934 0.728307 0.664473
O O2 0.717849 0.665906 0.655396
O O3 0.757260 0.798194 0.875648
O O4 0.727361 0.860141 0.614656
O O5 0.938358 0.361688 0.206473
O O6 0.836104 0.407009 0.368311
O O7 0.840911 0.468041 0.096011
O O8 0.961659 0.109152 0.627962
O O9 0.958377 0.970086 0.853706
O O10 0.366543 0.636689 0.048995
O O11 0.476640 0.723338 0.116051
O O12 0.736041 0.515784 0.462934
#
# Coordination Sequence:
#
# PCOD9456226 Si02
#       7
#     8   8   4   8   8   4   8
#     4  11  21  40  60  91 122 157 201 258 313 366
#     4  11  24  41  63  89 121 166 203 254 309 366
#     4   9  22  38  60  91 124 162 212 253 310 383
#     4  10  21  40  59  89 124 164 207 258 314 375
#     4  11  23  38  64  90 123 161 203 258 313 367
#     4  11  22  42  60  81 130 166 206 253 304 369
#     4  11  23  40  62  92 122 154 208 255 310 366
#
# _framework density 19.288091000000001
#
# number of rings (size 3 to 8) (size 9 to 14) (size 15 to 20)
#    0.000    1.333    5.000    0.000    2.333    2.000 
#    6.000    0.000    0.000    0.000    0.000    0.000 
#    0.000    0.000    0.000    0.000    0.000    0.000 
#
# Total GULP energy -267782.840366 kJ/mol
# GULP energy per Si atom -5578.809174 kJ/mol
# Density = 1.924419 g / cm^3
# Si number density = 19.288091 Si / 1000 Ang^3
#
#
#
# Elastic Constant Matrix: (Units=GPa)
#
#
# Indices 1 2 3 4 5 6 
#
# 1 140.4140 48.4081 53.1280 0.0000 0.0000 0.0000
# 2 48.4081 71.0814 28.7845 0.0000 0.0000 0.0000
# 3 53.1280 28.7845 105.7452 0.0000 0.0000 0.0000
# 4 0.0000 0.0000 0.0000 23.2085 0.0000 0.0000
# 5 0.0000 0.0000 0.0000 0.0000 23.7844 0.0000
# 6 0.0000 0.0000 0.0000 0.0000 0.0000 12.1677
#
#
#
# Elastic Compliance Matrix: (Units=1/GPa)
#
#
# Indices 1 2 3 4 5 6 
#
# 1 0.010471 -0.005620 -0.003731 0.000000 0.000000 0.000000
# 2 -0.005620 0.018828 -0.002301 0.000000 0.000000 0.000000
# 3 -0.003731 -0.002301 0.011958 0.000000 0.000000 0.000000
# 4 0.000000 0.000000 0.000000 0.043088 0.000000 0.000000
# 5 0.000000 0.000000 0.000000 0.000000 0.042044 0.000000
# 6 0.000000 0.000000 0.000000 0.000000 0.000000 0.082185
#
#
# Mechanical properties :
#
#
# Convention : Reuss Voigt Hill
#
# Bulk Modulus (GPa) = 55.70587 64.20910 59.95749
# Shear Modulus (GPa) = 21.02059 24.29345 22.65702
#
# Velocity S-wave (km/s) = 3.30483 3.55280 3.43105
# Velocity P-wave (km/s) = 6.59592 7.08461 6.84463
#
# Compressibility (1/GPa) = 0.01795143
#
# Stress axis : x y z
#
# Youngs Moduli (GPa) = 95.50158 53.11299 83.62853
#
# Poissons Ratio (x) = 0.29850 0.31201
# Poissons Ratio (y) = 0.53673 0.19246
# Poissons Ratio (z) = 0.35631 0.12223
#
# Static dielectric constant tensor:
#      x y z
#    x 1.664100 0.000000 0.000000 
#    y 0.000000 1.700680 0.000000 
#    z 0.000000 0.000000 1.682880 
# 
# From -- ./inp_files/7327.got.cif
#   From: 2010.05.17/outbox.cif.g08.bks.cpg/sg60_4_cif.got.tgz:7327.got - 2010.06.03 14:59:27.
