data_PCOD9456336
_publ_section_title
;
Structure prediction by ZEFSAII (Michael W. Deem and Ramdas Pophale) SiO2 
 PCOD9456336
Probable space group: P B C N
;
_chemical_formula_sum "Si O2"
_cell_formula_units_Z 44
_cell_length_a 8.279670
_cell_length_b 16.752417
_cell_length_c 12.937263
_cell_angle_alpha 90.000000
_cell_angle_beta 90.000000
_cell_angle_gamma 90.000000
_cell_volume 1794.456395
_symmetry_space_group_name_H-M "P B C N"
_symmetry_group_IT_number 60
_symmetry_cell_setting 'orthorhombic'
loop_
_space_group_symop_operation_xyz
x,y,z
1/2-x,1/2-y,1/2+z
1/2+x,1/2-y,-z
-x,y,1/2-z
-x,-y,-z
1/2+x,1/2+y,1/2-z
1/2-x,1/2+y,z
x,-y,1/2+z
loop_
_atom_site_type_symbol
_atom_site_label
_atom_site_fract_x
_atom_site_fract_y
_atom_site_fract_z
Si Si1 0.918338 0.613052 0.590197
Si Si2 0.094005 0.837166 0.463480
Si Si3 0.214228 0.653551 0.217228
Si Si4 0.500000 0.015846 0.250000
Si Si5 0.276666 0.842769 0.965681
Si Si6 0.000000 0.797882 0.250000
Si Si7 0.000000 0.753743 0.750000
O O1 0.761658 0.615950 0.515903
O O2 0.909557 0.540414 0.669524
O O3 0.089437 0.607771 0.529714
O O4 0.926223 0.693524 0.664082
O O5 0.151436 0.746270 0.480552
O O6 0.080002 0.848427 0.338605
O O7 0.910336 0.852986 0.500323
O O8 0.218799 0.645329 0.342558
O O9 0.116300 0.734572 0.193370
O O10 0.389769 0.683050 0.187553
O O11 0.122532 0.573935 0.189583
#
# Coordination Sequence:
#
# PCOD9456336 Si02
#       7
#     8   8   8   4   8   4   4
#     4  11  23  41  67  98 126 166 220 274 320 376
#     4  11  20  36  61 102 127 161 213 278 313 376
#     4  10  21  41  62  89 128 175 210 258 321 393
#     4  10  26  46  60  91 135 174 216 256 334 384
#     4  11  21  37  65  95 133 159 214 270 327 370
#     4   9  18  33  59  88 123 162 214 253 314 371
#     4  11  18  39  67  93 118 168 228 259 306 393
#
# _framework density 24.519960999999999
#
# number of rings (size 3 to 8) (size 9 to 14) (size 15 to 20)
#    0.000    1.455    5.455    1.091    2.545    0.727 
#    6.545    0.909    0.000    0.000    0.000    0.000 
#    0.000    0.000    0.000    0.000    0.000    0.000 
#
# Total GULP energy -245532.703877 kJ/mol
# GULP energy per Si atom -5580.288724 kJ/mol
# Density = 2.446415 g / cm^3
# Si number density = 24.519961 Si / 1000 Ang^3
#
#
#
# Elastic Constant Matrix: (Units=GPa)
#
#
# Indices 1 2 3 4 5 6 
#
# 1 202.8156 34.4063 30.2942 0.0000 0.0000 0.0000
# 2 34.4063 74.1838 18.8195 0.0000 0.0000 0.0000
# 3 30.2942 18.8195 69.2113 0.0000 0.0000 0.0000
# 4 0.0000 0.0000 0.0000 19.8927 0.0000 0.0000
# 5 0.0000 0.0000 0.0000 0.0000 54.7611 0.0000
# 6 0.0000 0.0000 0.0000 0.0000 0.0000 22.1176
#
#
#
# Elastic Compliance Matrix: (Units=1/GPa)
#
#
# Indices 1 2 3 4 5 6 
#
# 1 0.005567 -0.002109 -0.001863 0.000000 0.000000 0.000000
# 2 -0.002109 0.015278 -0.003231 0.000000 0.000000 0.000000
# 3 -0.001863 -0.003231 0.016143 0.000000 0.000000 0.000000
# 4 0.000000 0.000000 0.000000 0.050270 0.000000 0.000000
# 5 0.000000 0.000000 0.000000 0.000000 0.018261 0.000000
# 6 0.000000 0.000000 0.000000 0.000000 0.000000 0.045213
#
#
# Mechanical properties :
#
#
# Convention : Reuss Voigt Hill
#
# Bulk Modulus (GPa) = 44.28592 57.02785 50.65688
# Shear Modulus (GPa) = 28.95791 36.86699 32.91245
#
# Velocity S-wave (km/s) = 3.44029 3.88177 3.66768
# Velocity P-wave (km/s) = 5.82075 6.58780 6.21612
#
# Compressibility (1/GPa) = 0.02258054
#
# Stress axis : x y z
#
# Youngs Moduli (GPa) = 179.64042 65.45380 61.94804
#
# Poissons Ratio (x) = 0.13805 0.11541
# Poissons Ratio (y) = 0.37889 0.20016
# Poissons Ratio (z) = 0.33468 0.21149
#
# Static dielectric constant tensor:
#      x y z
#    x 2.111830 0.000000 0.000000 
#    y 0.000000 1.901830 0.000000 
#    z 0.000000 0.000000 2.143590 
# 
# From -- ./inp_files/14949.got.cif
#   From: 2010.05.17/outbox.cif.g08.bks.cpg/sg60_8_cif.got.tgz:14949.got - 2010.06.03 14:59:27.
