data_PCOD9456454
_publ_section_title
;
Structure prediction by ZEFSAII (Michael W. Deem and Ramdas Pophale) SiO2 
 PCOD9456454
Probable space group: P B C N
;
_chemical_formula_sum "Si O2"
_cell_formula_units_Z 64
_cell_length_a 12.026522
_cell_length_b 17.576557
_cell_length_c 14.259850
_cell_angle_alpha 90.000000
_cell_angle_beta 90.000000
_cell_angle_gamma 90.000000
_cell_volume 3014.316245
_symmetry_space_group_name_H-M "P B C N"
_symmetry_group_IT_number 60
_symmetry_cell_setting 'orthorhombic'
loop_
_space_group_symop_operation_xyz
x,y,z
1/2-x,1/2-y,1/2+z
1/2+x,1/2-y,-z
-x,y,1/2-z
-x,-y,-z
1/2+x,1/2+y,1/2-z
1/2-x,1/2+y,z
x,-y,1/2+z
loop_
_atom_site_type_symbol
_atom_site_label
_atom_site_fract_x
_atom_site_fract_y
_atom_site_fract_z
Si Si1 0.538415 0.702804 0.854012
Si Si2 0.618154 0.424375 0.743198
Si Si3 0.886788 0.465029 0.217235
Si Si4 0.382307 0.206210 0.793457
Si Si5 0.302278 0.685002 0.940563
Si Si6 0.310870 0.556082 0.631920
Si Si7 0.218284 0.996592 0.425220
Si Si8 0.742550 0.202491 0.343102
O O1 0.500000 0.681462 0.750000
O O2 0.425378 0.712861 0.912455
O O3 0.621002 0.634061 0.884187
O O4 0.612443 0.778859 0.847619
O O5 0.500000 0.385111 0.750000
O O6 0.612371 0.496718 0.811905
O O7 0.635544 0.453888 0.638081
O O8 0.714953 0.369205 0.781942
O O9 0.912704 0.380322 0.181608
O O10 0.797804 0.448196 0.300196
O O11 0.831656 0.508990 0.131980
O O12 0.000000 0.502123 0.250000
O O13 0.500000 0.234338 0.750000
O O14 0.299539 0.225242 0.882468
O O15 0.299104 0.225459 0.708299
O O16 0.304210 0.594087 0.917418
O O17 0.283643 0.693587 0.050910
O O18 0.280485 0.522261 0.531286
#
# Coordination Sequence:
#
# PCOD9456454 Si02
#       8
#     8   8   8   8   8   8   8   8
#     4  12  24  46  70  97 142 183 228 280 346 413
#     4  11  24  41  67 102 137 171 223 294 349 398
#     4   9  19  39  63  92 131 179 227 272 336 415
#     4  10  21  42  66  91 134 177 219 273 335 402
#     4  11  24  43  70 102 137 181 227 280 350 403
#     4  11  21  41  70 101 131 177 230 280 351 409
#     4  10  22  41  69  98 133 174 226 289 348 399
#     4  12  25  42  64 105 135 176 225 282 337 412
#
# _framework density 21.232012999999998
#
# number of rings (size 3 to 8) (size 9 to 14) (size 15 to 20)
#    0.000    1.250    3.750    3.000    3.500    2.500 
#    0.000    2.500    0.000    0.000    0.000    0.000 
#    0.000    0.000    0.000    0.000    0.000    0.000 
#
# Total GULP energy -356508.743433 kJ/mol
# GULP energy per Si atom -5570.449116 kJ/mol
# Density = 2.118369 g / cm^3
# Si number density = 21.232013 Si / 1000 Ang^3
#
#
#
# Elastic Constant Matrix: (Units=GPa)
#
#
# Indices 1 2 3 4 5 6 
#
# 1 61.2375 -8.1083 4.2443 0.0000 0.0000 0.0000
# 2 -8.1083 41.5769 1.2540 0.0000 0.0000 0.0000
# 3 4.2443 1.2540 115.0504 0.0000 0.0000 0.0000
# 4 0.0000 0.0000 0.0000 60.9999 0.0000 0.0000
# 5 0.0000 0.0000 0.0000 0.0000 9.8271 0.0000
# 6 0.0000 0.0000 0.0000 0.0000 0.0000 10.1604
#
#
#
# Elastic Compliance Matrix: (Units=1/GPa)
#
#
# Indices 1 2 3 4 5 6 
#
# 1 0.016812 0.003298 -0.000656 0.000000 0.000000 0.000000
# 2 0.003298 0.024707 -0.000391 0.000000 0.000000 0.000000
# 3 -0.000656 -0.000391 0.008720 0.000000 0.000000 0.000000
# 4 0.000000 0.000000 0.000000 0.016393 0.000000 0.000000
# 5 0.000000 0.000000 0.000000 0.000000 0.101760 0.000000
# 6 0.000000 0.000000 0.000000 0.000000 0.000000 0.098422
#
#
# Mechanical properties :
#
#
# Convention : Reuss Voigt Hill
#
# Bulk Modulus (GPa) = 18.26754 23.62722 20.94738
# Shear Modulus (GPa) = 17.82156 30.89578 24.35867
#
# Velocity S-wave (km/s) = 2.90034 3.81878 3.39080
# Velocity P-wave (km/s) = 4.45403 5.53140 5.02169
#
# Compressibility (1/GPa) = 0.05474190
#
# Stress axis : x y z
#
# Youngs Moduli (GPa) = 59.48105 40.47459 114.67481
#
# Poissons Ratio (x) = -0.13350 0.07525
# Poissons Ratio (y) = -0.19620 0.04484
# Poissons Ratio (z) = 0.03903 0.01583
#
# Static dielectric constant tensor:
#      x y z
#    x 1.874140 0.000000 0.000000 
#    y 0.000000 1.824940 0.000000 
#    z 0.000000 0.000000 1.733800 
# 
# From -- ./inp_files/16362.got.cif
#   From: 2010.05.17/outbox.cif.g08.bks.cpg/sg60_9_cif.got.tgz:16362.got - 2010.06.03 14:59:27.
