data_PCOD9456519
_publ_section_title
;
Structure prediction by ZEFSAII (Michael W. Deem and Ramdas Pophale) SiO2 
 PCOD9456519
Probable space group: P B C N
;
_chemical_formula_sum "Si O2"
_cell_formula_units_Z 36
_cell_length_a 4.830651
_cell_length_b 12.732062
_cell_length_c 24.293921
_cell_angle_alpha 90.000000
_cell_angle_beta 90.000000
_cell_angle_gamma 90.000000
_cell_volume 1494.176913
_symmetry_space_group_name_H-M "P B C N"
_symmetry_group_IT_number 60
_symmetry_cell_setting 'orthorhombic'
loop_
_space_group_symop_operation_xyz
x,y,z
1/2-x,1/2-y,1/2+z
1/2+x,1/2-y,-z
-x,y,1/2-z
-x,-y,-z
1/2+x,1/2+y,1/2-z
1/2-x,1/2+y,z
x,-y,1/2+z
loop_
_atom_site_type_symbol
_atom_site_label
_atom_site_fract_x
_atom_site_fract_y
_atom_site_fract_z
Si Si1 0.822658 0.423572 0.168116
Si Si2 0.089533 0.118421 0.998310
Si Si3 0.000000 0.742234 0.750000
Si Si4 0.586695 0.810021 0.435680
Si Si5 0.649023 0.446135 0.806440
O O1 0.800655 0.334948 0.215799
O O2 0.968969 0.360405 0.118965
O O3 0.044348 0.512194 0.186432
O O4 0.549321 0.489477 0.152078
O O5 0.409737 0.132131 0.983399
O O6 0.906562 0.170372 0.949438
O O7 0.033366 0.186762 0.053164
O O8 0.000000 0.000000 0.000000
O O9 0.136337 0.821040 0.704588
O O10 0.500000 0.482562 0.750000
#
# Coordination Sequence:
#
# PCOD9456519 Si02
#       5
#     8   8   4   8   8
#     4  12  22  41  59  89 122 154 202 247 284 351
#     4  10  21  44  62  87 122 153 189 252 302 353
#     4  10  22  40  60  82 122 164 192 240 298 332
#     4  10  23  37  65  91 115 154 200 241 299 354
#     4  10  23  38  59  84 121 162 197 240 287 346
#
# _framework density 24.093534999999999
#
# number of rings (size 3 to 8) (size 9 to 14) (size 15 to 20)
#    0.667    0.889    2.222    2.000    0.000    7.111 
#    0.000    0.000    0.000    0.000    0.000    0.000 
#    0.000    0.000    0.000    0.000    0.000    0.000 
#
# Total GULP energy -200804.319014 kJ/mol
# GULP energy per Si atom -5577.897750 kJ/mol
# Density = 2.403870 g / cm^3
# Si number density = 24.093535 Si / 1000 Ang^3
#
#
#
# Elastic Constant Matrix: (Units=GPa)
#
#
# Indices 1 2 3 4 5 6 
#
# 1 104.9253 20.0333 -11.1746 0.0000 0.0000 0.0000
# 2 20.0333 167.6038 1.4664 0.0000 0.0000 0.0000
# 3 -11.1746 1.4664 25.4646 0.0000 0.0000 0.0000
# 4 0.0000 0.0000 0.0000 15.9897 0.0000 0.0000
# 5 0.0000 0.0000 0.0000 0.0000 23.6249 0.0000
# 6 0.0000 0.0000 0.0000 0.0000 0.0000 20.2218
#
#
#
# Elastic Compliance Matrix: (Units=1/GPa)
#
#
# Indices 1 2 3 4 5 6 
#
# 1 0.010260 -0.001266 0.004575 0.000000 0.000000 0.000000
# 2 -0.001266 0.006126 -0.000908 0.000000 0.000000 0.000000
# 3 0.004575 -0.000908 0.041330 0.000000 0.000000 0.000000
# 4 0.000000 0.000000 0.000000 0.062540 0.000000 0.000000
# 5 0.000000 0.000000 0.000000 0.000000 0.042328 0.000000
# 6 0.000000 0.000000 0.000000 0.000000 0.000000 0.049452
#
#
# Mechanical properties :
#
#
# Convention : Reuss Voigt Hill
#
# Bulk Modulus (GPa) = 15.99582 35.40487 25.70035
# Shear Modulus (GPa) = 21.92273 31.14519 26.53396
#
# Velocity S-wave (km/s) = 3.01973 3.59928 3.32217
# Velocity P-wave (km/s) = 4.33726 5.65684 5.04042
#
# Compressibility (1/GPa) = 0.06251632
#
# Stress axis : x y z
#
# Youngs Moduli (GPa) = 97.46941 163.24496 24.19536
#
# Poissons Ratio (x) = 0.20672 -0.11070
# Poissons Ratio (y) = 0.12343 0.02198
# Poissons Ratio (z) = -0.44594 0.14830
#
# Static dielectric constant tensor:
#      x y z
#    x 1.918110 0.000000 0.000000 
#    y 0.000000 1.898970 0.000000 
#    z 0.000000 0.000000 2.067720 
# 
# From -- ./inp_files/25596.got.cif
#   From: 2010.05.17/outbox.cif.g08.bks.cpg/sg60_13_cif.got.tgz:25596.got - 2010.06.03 14:59:27.
