data_PCOD9456041
_publ_section_title
;
Structure prediction by ZEFSAII (Michael W. Deem and Ramdas Pophale) SiO2 
 PCOD9456041
Probable space group: P B C N
;
_chemical_formula_sum "Si O2"
_cell_formula_units_Z 56
_cell_length_a 13.656634
_cell_length_b 17.987379
_cell_length_c 11.744045
_cell_angle_alpha 90.000000
_cell_angle_beta 90.000000
_cell_angle_gamma 90.000000
_cell_volume 2884.890028
_symmetry_space_group_name_H-M "P B C N"
_symmetry_group_IT_number 60
_symmetry_cell_setting 'orthorhombic'
loop_
_space_group_symop_operation_xyz
x,y,z
1/2-x,1/2-y,1/2+z
1/2+x,1/2-y,-z
-x,y,1/2-z
-x,-y,-z
1/2+x,1/2+y,1/2-z
1/2-x,1/2+y,z
x,-y,1/2+z
loop_
_atom_site_type_symbol
_atom_site_label
_atom_site_fract_x
_atom_site_fract_y
_atom_site_fract_z
Si Si1 0.181223 0.348689 0.408250
Si Si2 0.500000 0.322375 0.250000
Si Si3 0.138464 0.313789 0.155150
Si Si4 0.074964 0.087808 0.417896
Si Si5 0.112854 0.079631 0.937170
Si Si6 0.000000 0.803794 0.750000
Si Si7 0.000172 0.545153 0.880744
Si Si8 0.346320 0.285000 0.069769
O O1 0.188249 0.318034 0.280085
O O2 0.282642 0.382080 0.454207
O O3 0.102500 0.412742 0.392157
O O4 0.137643 0.284577 0.487544
O O5 0.441293 0.374282 0.338298
O O6 0.417355 0.277508 0.179309
O O7 0.054984 0.250959 0.163112
O O8 0.229301 0.289702 0.080213
O O9 0.085599 0.391448 0.123323
O O10 0.076457 0.141806 0.310251
O O11 0.124672 0.135302 0.517099
O O12 0.960756 0.079377 0.455015
O O13 0.120385 0.006900 0.402097
O O14 0.000000 0.510947 0.750000
O O15 0.000000 0.500000 0.000000
#
# Coordination Sequence:
#
# PCOD9456041 Si02
#       8
#     8   4   8   8   8   4   8   8
#     4  11  21  41  63  89 128 168 212 267 329 387
#     4  10  21  38  62  89 134 160 206 270 329 386
#     4  11  21  39  63  89 125 170 211 268 322 387
#     4  10  22  36  62  90 122 163 210 259 326 392
#     4  10  21  39  59  93 127 161 203 272 321 386
#     4  12  19  42  62  87 120 168 216 260 321 404
#     4  10  23  45  67  92 129 175 220 274 332 394
#     4  11  22  39  62  93 122 167 212 262 328 397
#
# _framework density 19.411486
#
# number of rings (size 3 to 8) (size 9 to 14) (size 15 to 20)
#    0.000    1.429    5.000    1.286    2.000    1.143 
#    1.286    2.857    0.000    0.000    0.000    0.000 
#    0.000    0.000    0.000    0.000    0.000    0.000 
#
# Total GULP energy -312020.921080 kJ/mol
# GULP energy per Si atom -5571.802162 kJ/mol
# Density = 1.936730 g / cm^3
# Si number density = 19.411486 Si / 1000 Ang^3
#
#
#
# Elastic Constant Matrix: (Units=GPa)
#
#
# Indices 1 2 3 4 5 6 
#
# 1 93.5916 25.7872 13.3491 0.0000 0.0000 0.0000
# 2 25.7872 89.9722 36.3749 0.0000 0.0000 0.0000
# 3 13.3491 36.3749 74.0708 0.0000 0.0000 0.0000
# 4 0.0000 0.0000 0.0000 28.0953 0.0000 0.0000
# 5 0.0000 0.0000 0.0000 0.0000 19.7210 0.0000
# 6 0.0000 0.0000 0.0000 0.0000 0.0000 -25.2634
#
#
#
# Elastic Compliance Matrix: (Units=1/GPa)
#
#
# Indices 1 2 3 4 5 6 
#
# 1 0.011620 -0.003099 -0.000572 0.000000 0.000000 0.000000
# 2 -0.003099 0.014694 -0.006658 0.000000 0.000000 0.000000
# 3 -0.000572 -0.006658 0.016873 0.000000 0.000000 0.000000
# 4 0.000000 0.000000 0.000000 0.035593 0.000000 0.000000
# 5 0.000000 0.000000 0.000000 0.000000 0.050707 0.000000
# 6 0.000000 0.000000 0.000000 0.000000 0.000000 -0.039583
#
#
# Mechanical properties :
#
#
# Convention : Reuss Voigt Hill
#
# Bulk Modulus (GPa) = 44.38582 45.40635 44.89608
# Shear Modulus (GPa) = 42.34654 16.65215 29.49934
#
# Velocity S-wave (km/s) = 4.67574 2.93209 3.90254
# Velocity P-wave (km/s) = 7.21564 5.90805 6.59434
#
# Compressibility (1/GPa) = 0.02252972
#
# Stress axis : x y z
#
# Youngs Moduli (GPa) = 86.05668 68.05305 59.26559
#
# Poissons Ratio (x) = 0.21091 0.03392
# Poissons Ratio (y) = 0.26670 0.39457
# Poissons Ratio (z) = 0.04925 0.45307
#
# Static dielectric constant tensor:
#      x y z
#    x 2.052430 0.000000 0.000000 
#    y 0.000000 1.677700 0.000000 
#    z 0.000000 0.000000 1.787870 
# 
# From -- ./inp_files/12022.got.cif
#   From: 2010.05.17/outbox.cif.g08.bks.cpg/sg60_7_cif.got.tgz:12022.got - 2010.06.03 14:59:27.
