data_PCOD9456585
_publ_section_title
;
Structure prediction by ZEFSAII (Michael W. Deem and Ramdas Pophale) SiO2 
 PCOD9456585
Probable space group: P B C N
;
_chemical_formula_sum "Si O2"
_cell_formula_units_Z 56
_cell_length_a 19.502424
_cell_length_b 13.531332
_cell_length_c 10.400627
_cell_angle_alpha 90.000000
_cell_angle_beta 90.000000
_cell_angle_gamma 90.000000
_cell_volume 2744.660710
_symmetry_space_group_name_H-M "P B C N"
_symmetry_group_IT_number 60
_symmetry_cell_setting 'orthorhombic'
loop_
_space_group_symop_operation_xyz
x,y,z
1/2-x,1/2-y,1/2+z
1/2+x,1/2-y,-z
-x,y,1/2-z
-x,-y,-z
1/2+x,1/2+y,1/2-z
1/2-x,1/2+y,z
x,-y,1/2+z
loop_
_atom_site_type_symbol
_atom_site_label
_atom_site_fract_x
_atom_site_fract_y
_atom_site_fract_z
Si Si1 0.253694 0.874435 0.993639
Si Si2 0.130753 0.021440 0.371095
Si Si3 0.042368 0.169737 0.878472
Si Si4 0.840716 0.303331 0.727133
Si Si5 0.173746 0.328682 0.484422
Si Si6 0.755764 0.096857 0.737576
Si Si7 0.453302 0.285416 0.868898
O O1 0.182542 0.933316 0.975707
O O2 0.303001 0.875608 0.871507
O O3 0.228393 0.760708 0.998097
O O4 0.285329 0.905331 0.129547
O O5 0.081007 0.109513 0.330658
O O6 0.088817 0.925231 0.413613
O O7 0.184167 0.983892 0.264251
O O8 0.089575 0.261538 0.834645
O O9 0.000000 0.141926 0.750000
O O10 0.995838 0.196309 0.000122
O O11 0.794724 0.203165 0.738991
O O12 0.847320 0.349861 0.868864
O O13 0.212039 0.406392 0.393068
O O14 0.108682 0.287330 0.405980
O O15 0.500000 0.251883 0.750000
#
# Coordination Sequence:
#
# PCOD9456585 Si02
#       7
#     8   8   8   8   8   8   8
#     4   9  19  33  53  74 102 141 185 226 266 316
#     4  10  22  34  52  82 117 144 176 222 276 330
#     4  11  21  36  55  77 113 153 181 219 270 329
#     4   9  18  35  52  73 100 142 188 225 266 313
#     4   9  18  36  50  73 103 140 187 227 263 312
#     4   9  19  33  53  73 104 141 181 230 268 312
#     4  11  23  34  53  81 113 150 184 216 267 334
#
# _framework density 20.40325
#
# number of rings (size 3 to 8) (size 9 to 14) (size 15 to 20)
#    0.000    2.286    1.429    0.857    6.000    1.143 
#    5.143    0.000    0.000    0.000    0.000    2.000 
#    0.000    0.000    0.000    0.000    0.000    0.000 
#
# Total GULP energy -312251.408436 kJ/mol
# GULP energy per Si atom -5575.918008 kJ/mol
# Density = 2.035681 g / cm^3
# Si number density = 20.403250 Si / 1000 Ang^3
#
#
#
# Elastic Constant Matrix: (Units=GPa)
#
#
# Indices 1 2 3 4 5 6 
#
# 1 60.8422 23.9745 30.6902 0.0000 0.0000 0.0000
# 2 23.9745 44.3800 21.7790 0.0000 0.0000 0.0000
# 3 30.6902 21.7790 128.4512 0.0000 0.0000 0.0000
# 4 0.0000 0.0000 0.0000 -12.5683 0.0000 0.0000
# 5 0.0000 0.0000 0.0000 0.0000 18.9653 0.0000
# 6 0.0000 0.0000 0.0000 0.0000 0.0000 12.6142
#
#
#
# Elastic Compliance Matrix: (Units=1/GPa)
#
#
# Indices 1 2 3 4 5 6 
#
# 1 0.022297 -0.010287 -0.003583 0.000000 0.000000 0.000000
# 2 -0.010287 0.029323 -0.002514 0.000000 0.000000 0.000000
# 3 -0.003583 -0.002514 0.009067 0.000000 0.000000 0.000000
# 4 0.000000 0.000000 0.000000 -0.079565 0.000000 0.000000
# 5 0.000000 0.000000 0.000000 0.000000 0.052728 0.000000
# 6 0.000000 0.000000 0.000000 0.000000 0.000000 0.079275
#
#
# Mechanical properties :
#
#
# Convention : Reuss Voigt Hill
#
# Bulk Modulus (GPa) = 35.81666 42.95117 39.38392
# Shear Modulus (GPa) = 32.21654 14.28423 23.25038
#
# Velocity S-wave (km/s) = 3.97796 2.64880 3.37937
# Velocity P-wave (km/s) = 6.22024 5.51831 5.87976
#
# Compressibility (1/GPa) = 0.02791996
#
# Stress axis : x y z
#
# Youngs Moduli (GPa) = 44.84960 34.10255 110.28483
#
# Poissons Ratio (x) = 0.35080 0.39517
# Poissons Ratio (y) = 0.46135 0.27727
# Poissons Ratio (z) = 0.16070 0.08574
#
# Static dielectric constant tensor:
#      x y z
#    x 1.720670 0.000000 0.000000 
#    y 0.000000 1.738670 0.000000 
#    z 0.000000 0.000000 1.758220 
# 
# From -- ./inp_files/7392.got.cif
#   From: 2010.05.17/outbox.cif.g08.bks.cpg/sg60_4_cif.got.tgz:7392.got - 2010.06.03 14:59:27.
