data_PCOD9456461
_publ_section_title
;
Structure prediction by ZEFSAII (Michael W. Deem and Ramdas Pophale) SiO2 
 PCOD9456461
Probable space group: P B C N
;
_chemical_formula_sum "Si O2"
_cell_formula_units_Z 40
_cell_length_a 10.300646
_cell_length_b 7.989986
_cell_length_c 21.141274
_cell_angle_alpha 90.000000
_cell_angle_beta 90.000000
_cell_angle_gamma 90.000000
_cell_volume 1739.969499
_symmetry_space_group_name_H-M "P B C N"
_symmetry_group_IT_number 60
_symmetry_cell_setting 'orthorhombic'
loop_
_space_group_symop_operation_xyz
x,y,z
1/2-x,1/2-y,1/2+z
1/2+x,1/2-y,-z
-x,y,1/2-z
-x,-y,-z
1/2+x,1/2+y,1/2-z
1/2-x,1/2+y,z
x,-y,1/2+z
loop_
_atom_site_type_symbol
_atom_site_label
_atom_site_fract_x
_atom_site_fract_y
_atom_site_fract_z
Si Si1 0.882148 0.623747 0.486848
Si Si2 0.355451 0.487635 0.732705
Si Si3 0.874163 0.309981 0.840192
Si Si4 0.338774 0.438340 0.935506
Si Si5 0.855738 0.770440 0.150669
O O1 0.850752 0.649371 0.413207
O O2 0.762416 0.529059 0.518688
O O3 0.910018 0.797677 0.523586
O O4 0.000000 0.500000 0.500000
O O5 0.500000 0.413445 0.750000
O O6 0.234845 0.381155 0.707198
O O7 0.375964 0.614203 0.674982
O O8 0.319167 0.608270 0.791497
O O9 0.026794 0.352485 0.829421
O O10 0.404820 0.597149 0.902461
O O11 0.260140 0.333677 0.881254
#
# Coordination Sequence:
#
# PCOD9456461 Si02
#       5
#     8   8   8   8   8
#     4  11  22  42  66 104 138 187 236 289 359 422
#     4  10  23  43  67  96 135 178 235 290 349 414
#     4  11  22  43  65  99 139 180 239 288 353 429
#     4  10  22  41  67  94 143 180 235 291 355 422
#     4  10  21  42  67  97 133 187 230 295 355 415
#
# _framework density 22.988910000000001
#
# number of rings (size 3 to 8) (size 9 to 14) (size 15 to 20)
#    0.000    1.600    2.000    2.400    0.000    0.800 
#   14.400    5.000    0.000    0.000    0.000    0.000 
#    0.000    0.000    0.000    0.000    0.000    0.000 
#
# Total GULP energy -223089.509161 kJ/mol
# GULP energy per Si atom -5577.237729 kJ/mol
# Density = 2.293659 g / cm^3
# Si number density = 22.988910 Si / 1000 Ang^3
#
#
#
# Elastic Constant Matrix: (Units=GPa)
#
#
# Indices 1 2 3 4 5 6 
#
# 1 112.0743 31.9988 73.8760 0.0000 0.0000 0.0000
# 2 31.9988 48.8108 46.9647 0.0000 0.0000 0.0000
# 3 73.8760 46.9647 144.1383 0.0000 0.0000 0.0000
# 4 0.0000 0.0000 0.0000 31.6062 0.0000 0.0000
# 5 0.0000 0.0000 0.0000 0.0000 43.3278 0.0000
# 6 0.0000 0.0000 0.0000 0.0000 0.0000 18.5670
#
#
#
# Elastic Compliance Matrix: (Units=1/GPa)
#
#
# Indices 1 2 3 4 5 6 
#
# 1 0.013825 -0.003271 -0.006020 0.000000 0.000000 0.000000
# 2 -0.003271 0.030617 -0.008300 0.000000 0.000000 0.000000
# 3 -0.006020 -0.008300 0.012727 0.000000 0.000000 0.000000
# 4 0.000000 0.000000 0.000000 0.031639 0.000000 0.000000
# 5 0.000000 0.000000 0.000000 0.000000 0.023080 0.000000
# 6 0.000000 0.000000 0.000000 0.000000 0.000000 0.053859
#
#
# Mechanical properties :
#
#
# Convention : Reuss Voigt Hill
#
# Bulk Modulus (GPa) = 45.47790 67.85584 56.66687
# Shear Modulus (GPa) = 24.00868 28.84578 26.42723
#
# Velocity S-wave (km/s) = 3.23516 3.54612 3.39420
# Velocity P-wave (km/s) = 5.81210 6.80789 6.32961
#
# Compressibility (1/GPa) = 0.02198870
#
# Stress axis : x y z
#
# Youngs Moduli (GPa) = 72.33457 32.66132 78.57014
#
# Poissons Ratio (x) = 0.10683 0.47298
# Poissons Ratio (y) = 0.23659 0.65210
# Poissons Ratio (z) = 0.43545 0.27108
#
# Static dielectric constant tensor:
#      x y z
#    x 2.009740 0.000000 0.000000 
#    y 0.000000 1.917430 0.000000 
#    z 0.000000 0.000000 1.896710 
# 
# From -- ./inp_files/22540.got.cif
#   From: 2010.05.17/outbox.cif.g08.bks.cpg/sg60_12_cif.got.tgz:22540.got - 2010.06.03 14:59:27.
