data_PCOD9456366
_publ_section_title
;
Structure prediction by ZEFSAII (Michael W. Deem and Ramdas Pophale) SiO2 
 PCOD9456366
Probable space group: P B C N
;
_chemical_formula_sum "Si O2"
_cell_formula_units_Z 60
_cell_length_a 11.537526
_cell_length_b 26.523559
_cell_length_c 8.714961
_cell_angle_alpha 90.000000
_cell_angle_beta 90.000000
_cell_angle_gamma 90.000000
_cell_volume 2666.919698
_symmetry_space_group_name_H-M "P B C N"
_symmetry_group_IT_number 60
_symmetry_cell_setting 'orthorhombic'
loop_
_space_group_symop_operation_xyz
x,y,z
1/2-x,1/2-y,1/2+z
1/2+x,1/2-y,-z
-x,y,1/2-z
-x,-y,-z
1/2+x,1/2+y,1/2-z
1/2-x,1/2+y,z
x,-y,1/2+z
loop_
_atom_site_type_symbol
_atom_site_label
_atom_site_fract_x
_atom_site_fract_y
_atom_site_fract_z
Si Si1 0.000000 0.488070 0.750000
Si Si2 0.088100 0.249325 0.948670
Si Si3 0.112822 0.076509 0.650294
Si Si4 0.827423 0.521011 0.000864
Si Si5 0.130066 0.692322 0.014747
Si Si6 0.759793 0.594101 0.559692
Si Si7 0.536153 0.358720 0.922911
Si Si8 0.734571 0.759696 0.283286
O O1 0.903235 0.459068 0.646297
O O2 0.080284 0.521280 0.637770
O O3 0.179450 0.279123 0.059261
O O4 0.989994 0.289282 0.921432
O O5 0.045299 0.200630 0.041334
O O6 0.854475 0.224943 0.702293
O O7 0.201655 0.042707 0.548177
O O8 0.200130 0.099444 0.774814
O O9 0.055505 0.117277 0.540062
O O10 0.000000 0.054741 0.750000
O O11 0.802235 0.462216 0.035807
O O12 0.141240 0.635173 0.964999
O O13 0.152133 0.726360 0.859847
O O14 0.224720 0.705381 0.147448
O O15 0.654817 0.610607 0.449522
O O16 0.500000 0.365621 0.750000
#
# Coordination Sequence:
#
# PCOD9456366 Si02
#       8
#     4   8   8   8   8   8   8   8
#     4  10  24  46  76  94 142 200 232 300 366 440
#     4  11  23  43  66  96 142 187 240 281 363 408
#     4  10  25  45  77 110 141 190 238 306 383 435
#     4  11  23  49  72 106 143 192 247 296 376 441
#     4  11  23  40  67  99 132 186 227 292 343 429
#     4  11  24  45  68 106 148 174 249 295 359 446
#     4  11  24  42  71 108 144 188 232 301 361 434
#     4  10  21  41  65  92 135 183 225 285 340 413
#
# _framework density 22.497864
#
# number of rings (size 3 to 8) (size 9 to 14) (size 15 to 20)
#    0.000    1.333    4.000    1.600    3.733    3.733 
#    4.800    0.000    0.000    0.000    0.000    0.000 
#    0.000    0.000    0.000    0.000    0.000    0.000 
#
# Total GULP energy -334032.954261 kJ/mol
# GULP energy per Si atom -5567.215904 kJ/mol
# Density = 2.244666 g / cm^3
# Si number density = 22.497864 Si / 1000 Ang^3
#
#
#
# Elastic Constant Matrix: (Units=GPa)
#
#
# Indices 1 2 3 4 5 6 
#
# 1 128.3679 50.1627 37.4586 0.0000 0.0000 0.0000
# 2 50.1627 69.6307 34.5800 0.0000 0.0000 0.0000
# 3 37.4586 34.5800 115.9756 0.0000 0.0000 0.0000
# 4 0.0000 0.0000 0.0000 16.7294 0.0000 0.0000
# 5 0.0000 0.0000 0.0000 0.0000 35.3149 0.0000
# 6 0.0000 0.0000 0.0000 0.0000 0.0000 20.9580
#
#
#
# Elastic Compliance Matrix: (Units=1/GPa)
#
#
# Indices 1 2 3 4 5 6 
#
# 1 0.011033 -0.007253 -0.001401 0.000000 0.000000 0.000000
# 2 -0.007253 0.021625 -0.004105 0.000000 0.000000 0.000000
# 3 -0.001401 -0.004105 0.010299 0.000000 0.000000 0.000000
# 4 0.000000 0.000000 0.000000 0.059775 0.000000 0.000000
# 5 0.000000 0.000000 0.000000 0.000000 0.028317 0.000000
# 6 0.000000 0.000000 0.000000 0.000000 0.000000 0.047714
#
#
# Mechanical properties :
#
#
# Convention : Reuss Voigt Hill
#
# Bulk Modulus (GPa) = 57.34184 62.04185 59.69185
# Shear Modulus (GPa) = 23.79882 27.38533 25.59208
#
# Velocity S-wave (km/s) = 3.25595 3.49268 3.37639
# Velocity P-wave (km/s) = 6.29905 6.62584 6.46451
#
# Compressibility (1/GPa) = 0.01743927
#
# Stress axis : x y z
#
# Youngs Moduli (GPa) = 90.63683 46.24255 97.09562
#
# Poissons Ratio (x) = 0.33538 0.13604
# Poissons Ratio (y) = 0.65735 0.39862
# Poissons Ratio (z) = 0.12699 0.18984
#
# Static dielectric constant tensor:
#      x y z
#    x 1.939010 0.000000 0.000000 
#    y 0.000000 1.793530 0.000000 
#    z 0.000000 0.000000 1.886740 
# 
# From -- ./inp_files/5254.got.cif
#   From: 2010.05.17/outbox.cif.g08.bks.cpg/sg60_3_cif.got.tgz:5254.got - 2010.06.03 14:59:27.
