data_PCOD9456939
_publ_section_title
;
Structure prediction by ZEFSAII (Michael W. Deem and Ramdas Pophale) SiO2 
 PCOD9456939
Probable space group: P B C N
;
_chemical_formula_sum "Si O2"
_cell_formula_units_Z 36
_cell_length_a 10.777373
_cell_length_b 14.370674
_cell_length_c 9.399883
_cell_angle_alpha 90.000000
_cell_angle_beta 90.000000
_cell_angle_gamma 90.000000
_cell_volume 1455.836150
_symmetry_space_group_name_H-M "P B C N"
_symmetry_group_IT_number 60
_symmetry_cell_setting 'orthorhombic'
loop_
_space_group_symop_operation_xyz
x,y,z
1/2-x,1/2-y,1/2+z
1/2+x,1/2-y,-z
-x,y,1/2-z
-x,-y,-z
1/2+x,1/2+y,1/2-z
1/2-x,1/2+y,z
x,-y,1/2+z
loop_
_atom_site_type_symbol
_atom_site_label
_atom_site_fract_x
_atom_site_fract_y
_atom_site_fract_z
Si Si1 0.175193 0.450558 0.750747
Si Si2 0.213306 0.801051 0.922807
Si Si3 0.000000 0.268001 0.250000
Si Si4 0.413123 0.452251 0.118919
Si Si5 0.604886 0.113102 0.535642
O O1 0.179267 0.358655 0.848147
O O2 0.306853 0.478909 0.677653
O O3 0.087248 0.432603 0.616300
O O4 0.147888 0.537403 0.851389
O O5 0.211369 0.694189 0.974221
O O6 0.116063 0.792560 0.791271
O O7 0.155214 0.865093 0.045487
O O8 0.990118 0.333377 0.389206
O O9 0.500000 0.423683 0.250000
O O10 0.500000 0.500000 0.000000
#
# Coordination Sequence:
#
# PCOD9456939 Si02
#       5
#     8   8   4   8   8
#     4  12  22  42  68  99 133 178 230 287 342 411
#     4  10  22  41  64  99 138 178 225 291 333 414
#     4   8  22  44  64  88 142 180 220 284 344 402
#     4  12  22  39  67  98 136 173 226 281 358 399
#     4  10  25  41  69  97 135 182 228 284 348 403
#
# _framework density 24.728057
#
# number of rings (size 3 to 8) (size 9 to 14) (size 15 to 20)
#    1.333    0.000    4.444    1.333    3.111    0.889 
#    0.000    2.222    0.000    0.000    0.000    0.000 
#    0.000    0.000    0.000    0.000    0.000    0.000 
#
# Total GULP energy -201200.916611 kJ/mol
# GULP energy per Si atom -5588.914350 kJ/mol
# Density = 2.467177 g / cm^3
# Si number density = 24.728057 Si / 1000 Ang^3
#
#
#
# Elastic Constant Matrix: (Units=GPa)
#
#
# Indices 1 2 3 4 5 6 
#
# 1 61.1900 13.5361 39.0801 0.0000 0.0000 0.0000
# 2 13.5361 145.6362 71.6503 0.0000 0.0000 0.0000
# 3 39.0801 71.6503 198.7905 0.0000 0.0000 0.0000
# 4 0.0000 0.0000 0.0000 36.9511 0.0000 0.0000
# 5 0.0000 0.0000 0.0000 0.0000 33.3870 0.0000
# 6 0.0000 0.0000 0.0000 0.0000 0.0000 12.5109
#
#
#
# Elastic Compliance Matrix: (Units=1/GPa)
#
#
# Indices 1 2 3 4 5 6 
#
# 1 0.018690 0.000086 -0.003705 0.000000 0.000000 0.000000
# 2 0.000086 0.008347 -0.003025 0.000000 0.000000 0.000000
# 3 -0.003705 -0.003025 0.006849 0.000000 0.000000 0.000000
# 4 0.000000 0.000000 0.000000 0.027063 0.000000 0.000000
# 5 0.000000 0.000000 0.000000 0.000000 0.029952 0.000000
# 6 0.000000 0.000000 0.000000 0.000000 0.000000 0.079930
#
#
# Mechanical properties :
#
#
# Convention : Reuss Voigt Hill
#
# Bulk Modulus (GPa) = 48.55176 72.68329 60.61752
# Shear Modulus (GPa) = 26.17997 35.32649 30.75323
#
# Velocity S-wave (km/s) = 3.25732 3.78378 3.53038
# Velocity P-wave (km/s) = 5.81582 6.96751 6.41755
#
# Compressibility (1/GPa) = 0.02059657
#
# Stress axis : x y z
#
# Youngs Moduli (GPa) = 53.50472 119.80556 146.00175
#
# Poissons Ratio (x) = -0.01027 0.54096
# Poissons Ratio (y) = -0.00459 0.44170
# Poissons Ratio (z) = 0.19824 0.36245
#
# Static dielectric constant tensor:
#      x y z
#    x 2.068730 0.000000 0.000000 
#    y 0.000000 1.952480 0.000000 
#    z 0.000000 0.000000 1.915850 
# 
# From -- ./inp_files/6581.got.cif
#   From: 2010.05.17/outbox.cif.g08.bks.cpg/sg60_4_cif.got.tgz:6581.got - 2010.06.03 14:59:27.
