data_PCOD9456881
_publ_section_title
;
Structure prediction by ZEFSAII (Michael W. Deem and Ramdas Pophale) SiO2 
 PCOD9456881
Probable space group: P B C N
;
_chemical_formula_sum "Si O2"
_cell_formula_units_Z 28
_cell_length_a 5.142358
_cell_length_b 19.221637
_cell_length_c 13.142373
_cell_angle_alpha 90.000000
_cell_angle_beta 90.000000
_cell_angle_gamma 90.000000
_cell_volume 1299.051798
_symmetry_space_group_name_H-M "P B C N"
_symmetry_group_IT_number 60
_symmetry_cell_setting 'orthorhombic'
loop_
_space_group_symop_operation_xyz
x,y,z
1/2-x,1/2-y,1/2+z
1/2+x,1/2-y,-z
-x,y,1/2-z
-x,-y,-z
1/2+x,1/2+y,1/2-z
1/2-x,1/2+y,z
x,-y,1/2+z
loop_
_atom_site_type_symbol
_atom_site_label
_atom_site_fract_x
_atom_site_fract_y
_atom_site_fract_z
Si Si1 0.961737 0.831785 0.473217
Si Si2 0.679698 0.752549 0.167802
Si Si3 0.500000 0.130081 0.250000
Si Si4 0.541102 0.920228 0.973232
O O1 0.064510 0.792617 0.372604
O O2 0.184254 0.888937 0.492740
O O3 0.961120 0.774782 0.564884
O O4 0.686744 0.871451 0.479288
O O5 0.500000 0.791466 0.250000
O O6 0.768220 0.682926 0.225402
O O7 0.464018 0.086907 0.148531
O O8 0.500000 0.000000 0.000000
#
# Coordination Sequence:
#
# PCOD9456881 Si02
#       4
#     8   8   4   8
#     4  11  24  41  68 102 133 174 229 290 343 407
#     4  11  22  41  69 101 137 174 228 293 364 413
#     4  10  22  40  68  94 132 186 224 280 356 416
#     4  11  24  45  66  94 137 185 230 277 335 422
#
# _framework density 21.554183999999999
#
# number of rings (size 3 to 8) (size 9 to 14) (size 15 to 20)
#    0.000    1.143    2.857    4.286    4.000    0.000 
#    2.571    0.000    0.000    0.000    0.000    0.000 
#    0.000    0.000    0.000    0.000    0.000    0.000 
#
# Total GULP energy -156551.009555 kJ/mol
# GULP energy per Si atom -5591.107484 kJ/mol
# Density = 2.150513 g / cm^3
# Si number density = 21.554184 Si / 1000 Ang^3
#
#
#
# Elastic Constant Matrix: (Units=GPa)
#
#
# Indices 1 2 3 4 5 6 
#
# 1 93.9340 27.0563 30.4748 0.0000 0.0000 0.0000
# 2 27.0563 124.0545 51.2307 0.0000 0.0000 0.0000
# 3 30.4748 51.2307 127.5899 0.0000 0.0000 0.0000
# 4 0.0000 0.0000 0.0000 5.5976 0.0000 0.0000
# 5 0.0000 0.0000 0.0000 0.0000 48.1606 0.0000
# 6 0.0000 0.0000 0.0000 0.0000 0.0000 26.3013
#
#
#
# Elastic Compliance Matrix: (Units=1/GPa)
#
#
# Indices 1 2 3 4 5 6 
#
# 1 0.011830 -0.001694 -0.002145 0.000000 0.000000 0.000000
# 2 -0.001694 0.009906 -0.003573 0.000000 0.000000 0.000000
# 3 -0.002145 -0.003573 0.009785 0.000000 0.000000 0.000000
# 4 0.000000 0.000000 0.000000 0.178647 0.000000 0.000000
# 5 0.000000 0.000000 0.000000 0.000000 0.020764 0.000000
# 6 0.000000 0.000000 0.000000 0.000000 0.000000 0.038021
#
#
# Mechanical properties :
#
#
# Convention : Reuss Voigt Hill
#
# Bulk Modulus (GPa) = 59.89551 62.56687 61.23119
# Shear Modulus (GPa) = 17.28060 31.79970 24.54015
#
# Velocity S-wave (km/s) = 2.83455 3.84518 3.37788
# Velocity P-wave (km/s) = 6.20980 6.98603 6.60932
#
# Compressibility (1/GPa) = 0.01669574
#
# Stress axis : x y z
#
# Youngs Moduli (GPa) = 84.53278 100.94955 102.20137
#
# Poissons Ratio (x) = 0.17102 0.21925
# Poissons Ratio (y) = 0.14321 0.36515
# Poissons Ratio (z) = 0.18135 0.36068
#
# Static dielectric constant tensor:
#      x y z
#    x 1.828780 0.000000 0.000000 
#    y 0.000000 1.733630 0.000000 
#    z 0.000000 0.000000 1.794070 
# 
# From -- ./inp_files/8737.got.cif
#   From: 2010.05.17/outbox.cif.g08.bks.cpg/sg60_5_cif.got.tgz:8737.got - 2010.06.03 14:59:27.
