data_PCOD9456360
_publ_section_title
;
Structure prediction by ZEFSAII (Michael W. Deem and Ramdas Pophale) SiO2 
 PCOD9456360
Probable space group: P B C N
;
_chemical_formula_sum "Si O2"
_cell_formula_units_Z 56
_cell_length_a 5.875199
_cell_length_b 31.305185
_cell_length_c 14.141316
_cell_angle_alpha 90.000000
_cell_angle_beta 90.000000
_cell_angle_gamma 90.000000
_cell_volume 2600.930114
_symmetry_space_group_name_H-M "P B C N"
_symmetry_group_IT_number 60
_symmetry_cell_setting 'orthorhombic'
loop_
_space_group_symop_operation_xyz
x,y,z
1/2-x,1/2-y,1/2+z
1/2+x,1/2-y,-z
-x,y,1/2-z
-x,-y,-z
1/2+x,1/2+y,1/2-z
1/2-x,1/2+y,z
x,-y,1/2+z
loop_
_atom_site_type_symbol
_atom_site_label
_atom_site_fract_x
_atom_site_fract_y
_atom_site_fract_z
Si Si1 0.855750 0.587217 0.660403
Si Si2 0.253237 0.476782 0.497333
Si Si3 0.807822 0.213997 0.910336
Si Si4 0.503107 0.856319 0.507385
Si Si5 0.000000 0.847163 0.250000
Si Si6 0.621591 0.085949 0.337629
Si Si7 0.500000 0.647949 0.250000
Si Si8 0.101346 0.200472 0.080114
O O1 0.744604 0.549577 0.600564
O O2 0.004011 0.612346 0.582344
O O3 0.678142 0.622045 0.698298
O O4 0.000000 0.572139 0.750000
O O5 0.500000 0.500000 0.500000
O O6 0.242096 0.444988 0.587577
O O7 0.000000 0.500000 0.500000
O O8 0.642910 0.184458 0.974155
O O9 0.726497 0.259475 0.871698
O O10 0.883829 0.183577 0.825976
O O11 0.001487 0.222665 0.987121
O O12 0.553688 0.886084 0.597953
O O13 0.258584 0.836740 0.536145
O O14 0.500000 0.062799 0.250000
O O15 0.796772 0.118235 0.287096
O O16 0.446989 0.678430 0.340058
#
# Coordination Sequence:
#
# PCOD9456360 Si02
#       8
#     8   8   8   8   4   8   4   8
#     4  11  24  45  73 104 138 188 231 292 358 443
#     4  11  29  52  78 114 154 185 235 301 375 455
#     4  12  23  38  64  92 139 181 234 299 356 409
#     4  10  21  41  64  95 132 180 239 279 348 419
#     4  12  26  40  71 102 136 182 248 290 357 442
#     4  10  23  45  74 101 137 187 235 294 361 437
#     4  10  24  42  65  96 132 186 250 296 351 442
#     4  11  23  39  60  92 132 187 233 297 353 404
#
# _framework density 21.530759
#
# number of rings (size 3 to 8) (size 9 to 14) (size 15 to 20)
#    0.000    1.143    4.286    0.857    4.000    2.857 
#    5.143    0.000    0.000    0.000    0.000    0.000 
#    0.000    0.000    0.000    0.000    0.000    0.000 
#
# Total GULP energy -312190.159588 kJ/mol
# GULP energy per Si atom -5574.824278 kJ/mol
# Density = 2.148175 g / cm^3
# Si number density = 21.530759 Si / 1000 Ang^3
#
#
#
# Elastic Constant Matrix: (Units=GPa)
#
#
# Indices 1 2 3 4 5 6 
#
# 1 45.8384 39.9544 50.0096 0.0000 0.0000 0.0000
# 2 39.9544 104.3828 70.5711 0.0000 0.0000 0.0000
# 3 50.0096 70.5711 174.2916 0.0000 0.0000 0.0000
# 4 0.0000 0.0000 0.0000 -52.9516 0.0000 0.0000
# 5 0.0000 0.0000 0.0000 0.0000 24.4201 0.0000
# 6 0.0000 0.0000 0.0000 0.0000 0.0000 40.7275
#
#
#
# Elastic Compliance Matrix: (Units=1/GPa)
#
#
# Indices 1 2 3 4 5 6 
#
# 1 0.037926 -0.009858 -0.006891 0.000000 0.000000 0.000000
# 2 -0.009858 0.015754 -0.003550 0.000000 0.000000 0.000000
# 3 -0.006891 -0.003550 0.009152 0.000000 0.000000 0.000000
# 4 0.000000 0.000000 0.000000 -0.018885 0.000000 0.000000
# 5 0.000000 0.000000 0.000000 0.000000 0.040950 0.000000
# 6 0.000000 0.000000 0.000000 0.000000 0.000000 0.024553
#
#
# Mechanical properties :
#
#
# Convention : Reuss Voigt Hill
#
# Bulk Modulus (GPa) = 44.97602 71.73144 58.35373
# Shear Modulus (GPa) = 31.75420 13.37104 22.56262
#
# Velocity S-wave (km/s) = 3.84452 2.49473 3.24068
# Velocity P-wave (km/s) = 6.37508 6.45650 6.41592
#
# Compressibility (1/GPa) = 0.02223407
#
# Stress axis : x y z
#
# Youngs Moduli (GPa) = 26.36693 63.47702 109.26541
#
# Poissons Ratio (x) = 0.62579 0.75289
# Poissons Ratio (y) = 0.25994 0.38790
# Poissons Ratio (z) = 0.18168 0.22535
#
# Static dielectric constant tensor:
#      x y z
#    x 1.886890 0.000000 0.000000 
#    y 0.000000 1.794360 0.000000 
#    z 0.000000 0.000000 1.680320 
# 
# From -- ./inp_files/14124.got.cif
#   From: 2010.05.17/outbox.cif.g08.bks.cpg/sg60_8_cif.got.tgz:14124.got - 2010.06.03 14:59:27.
