data_PCOD9456464
_publ_section_title
;
Structure prediction by ZEFSAII (Michael W. Deem and Ramdas Pophale) SiO2 
 PCOD9456464
Probable space group: P B C N
;
_chemical_formula_sum "Si O2"
_cell_formula_units_Z 48
_cell_length_a 9.233286
_cell_length_b 10.283543
_cell_length_c 21.744064
_cell_angle_alpha 90.000000
_cell_angle_beta 90.000000
_cell_angle_gamma 90.000000
_cell_volume 2064.618308
_symmetry_space_group_name_H-M "P B C N"
_symmetry_group_IT_number 60
_symmetry_cell_setting 'orthorhombic'
loop_
_space_group_symop_operation_xyz
x,y,z
1/2-x,1/2-y,1/2+z
1/2+x,1/2-y,-z
-x,y,1/2-z
-x,-y,-z
1/2+x,1/2+y,1/2-z
1/2-x,1/2+y,z
x,-y,1/2+z
loop_
_atom_site_type_symbol
_atom_site_label
_atom_site_fract_x
_atom_site_fract_y
_atom_site_fract_z
Si Si1 0.849840 0.029644 0.074423
Si Si2 0.308603 0.828942 0.632303
Si Si3 0.213595 0.585172 0.803474
Si Si4 0.006631 0.194276 0.336975
Si Si5 0.500000 0.876686 0.750000
Si Si6 0.000000 0.952222 0.250000
Si Si7 0.675288 0.427386 0.438907
O O1 0.904802 0.168748 0.100509
O O2 0.756456 0.958652 0.127281
O O3 0.775364 0.045747 0.008711
O O4 0.004694 0.960821 0.065201
O O5 0.437041 0.826645 0.682834
O O6 0.327164 0.724344 0.578165
O O7 0.159506 0.770442 0.659640
O O8 0.265594 0.972607 0.605502
O O9 0.102128 0.701939 0.802672
O O10 0.138469 0.463254 0.770805
O O11 0.356581 0.625866 0.765421
O O12 0.997948 0.052700 0.305890
#
# Coordination Sequence:
#
# PCOD9456464 Si02
#       7
#     8   8   8   8   4   4   8
#     4   9  23  45  68 107 142 197 244 304 378 455
#     4  11  24  47  72 108 148 200 244 315 366 451
#     4  11  23  43  74 106 145 198 247 311 378 450
#     4  10  21  42  68 102 149 194 241 311 371 442
#     4  12  25  46  71 114 150 196 262 298 388 450
#     4  10  21  44  63 104 148 182 246 302 382 438
#     4  10  23  47  75 103 151 190 250 307 380 438
#
# _framework density 23.248850000000001
#
# number of rings (size 3 to 8) (size 9 to 14) (size 15 to 20)
#    0.000    1.667    1.667    1.500    2.333    2.667 
#   12.000    5.000    0.000    0.000    0.000    0.000 
#    0.000    0.000    0.000    0.000    0.000    0.000 
#
# Total GULP energy -267757.608225 kJ/mol
# GULP energy per Si atom -5578.283505 kJ/mol
# Density = 2.319593 g / cm^3
# Si number density = 23.248850 Si / 1000 Ang^3
#
#
#
# Elastic Constant Matrix: (Units=GPa)
#
#
# Indices 1 2 3 4 5 6 
#
# 1 83.6332 7.0482 34.0326 0.0000 0.0000 0.0000
# 2 7.0482 46.3457 13.5066 0.0000 0.0000 0.0000
# 3 34.0326 13.5066 129.0330 0.0000 0.0000 0.0000
# 4 0.0000 0.0000 0.0000 27.2947 0.0000 0.0000
# 5 0.0000 0.0000 0.0000 0.0000 35.4526 0.0000
# 6 0.0000 0.0000 0.0000 0.0000 0.0000 21.7165
#
#
#
# Elastic Compliance Matrix: (Units=1/GPa)
#
#
# Indices 1 2 3 4 5 6 
#
# 1 0.013443 -0.001043 -0.003437 0.000000 0.000000 0.000000
# 2 -0.001043 0.022337 -0.002063 0.000000 0.000000 0.000000
# 3 -0.003437 -0.002063 0.008872 0.000000 0.000000 0.000000
# 4 0.000000 0.000000 0.000000 0.036637 0.000000 0.000000
# 5 0.000000 0.000000 0.000000 0.000000 0.028207 0.000000
# 6 0.000000 0.000000 0.000000 0.000000 0.000000 0.046048
#
#
# Mechanical properties :
#
#
# Convention : Reuss Voigt Hill
#
# Bulk Modulus (GPa) = 31.67826 40.90964 36.29395
# Shear Modulus (GPa) = 27.90932 30.52105 29.21518
#
# Velocity S-wave (km/s) = 3.46852 3.62719 3.54874
# Velocity P-wave (km/s) = 5.44942 5.93099 5.69530
#
# Compressibility (1/GPa) = 0.03156739
#
# Stress axis : x y z
#
# Youngs Moduli (GPa) = 74.38670 44.76918 112.71053
#
# Poissons Ratio (x) = 0.04669 0.38733
# Poissons Ratio (y) = 0.07758 0.23253
# Poissons Ratio (z) = 0.25563 0.09236
#
# Static dielectric constant tensor:
#      x y z
#    x 1.895510 0.000000 0.000000 
#    y 0.000000 1.973000 0.000000 
#    z 0.000000 0.000000 2.160520 
# 
# From -- ./inp_files/23950.got.cif
#   From: 2010.05.17/outbox.cif.g08.bks.cpg/sg60_12_cif.got.tgz:23950.got - 2010.06.03 14:59:27.
