data_PCOD9456481
_publ_section_title
;
Structure prediction by ZEFSAII (Michael W. Deem and Ramdas Pophale) SiO2 
 PCOD9456481
Probable space group: P B C N
;
_chemical_formula_sum "Si O2"
_cell_formula_units_Z 56
_cell_length_a 14.714676
_cell_length_b 7.026530
_cell_length_c 18.940177
_cell_angle_alpha 90.000000
_cell_angle_beta 90.000000
_cell_angle_gamma 90.000000
_cell_volume 1958.283849
_symmetry_space_group_name_H-M "P B C N"
_symmetry_group_IT_number 60
_symmetry_cell_setting 'orthorhombic'
loop_
_space_group_symop_operation_xyz
x,y,z
1/2-x,1/2-y,1/2+z
1/2+x,1/2-y,-z
-x,y,1/2-z
-x,-y,-z
1/2+x,1/2+y,1/2-z
1/2-x,1/2+y,z
x,-y,1/2+z
loop_
_atom_site_type_symbol
_atom_site_label
_atom_site_fract_x
_atom_site_fract_y
_atom_site_fract_z
Si Si1 0.100841 0.401658 0.893046
Si Si2 0.632692 0.295232 0.913520
Si Si3 0.666144 0.266533 0.762855
Si Si4 0.294710 0.571062 0.473127
Si Si5 0.567057 0.647464 0.134994
Si Si6 0.367332 0.825969 0.740425
Si Si7 0.403161 0.843887 0.579383
O O1 0.198495 0.392305 0.932865
O O2 0.090743 0.628564 0.877035
O O3 0.081986 0.306219 0.815509
O O4 0.011434 0.340728 0.936662
O O5 0.682434 0.342684 0.840588
O O6 0.532189 0.373279 0.897093
O O7 0.626494 0.067056 0.922637
O O8 0.688766 0.397852 0.973349
O O9 0.593696 0.380839 0.716796
O O10 0.767027 0.263571 0.733390
O O11 0.629741 0.054362 0.769922
O O12 0.361916 0.526941 0.408574
O O13 0.348539 0.730762 0.519700
O O14 0.386860 0.763317 0.659580
#
# Coordination Sequence:
#
# PCOD9456481 Si02
#       7
#     8   8   8   8   8   8   8
#     4  10  23  49  79 110 161 207 268 332 397 478
#     4  10  24  47  76 110 154 204 263 330 391 478
#     4  10  21  42  73 106 147 199 260 328 388 462
#     4  12  25  49  75 118 155 207 260 323 403 479
#     4  10  22  48  72 106 151 204 264 324 402 458
#     4  10  21  44  76 110 146 205 265 326 398 460
#     4  10  25  50  78 115 157 210 265 332 398 469
#
# _framework density 28.596465999999999
#
# number of rings (size 3 to 8) (size 9 to 14) (size 15 to 20)
#    0.000    1.714    1.429    1.286    2.000    6.857 
#   18.000    2.857    0.000    0.000    0.000    0.000 
#    0.000    0.000    0.000    0.000    0.000    0.000 
#
# Total GULP energy -313463.455834 kJ/mol
# GULP energy per Si atom -5597.561711 kJ/mol
# Density = 2.853138 g / cm^3
# Si number density = 28.596466 Si / 1000 Ang^3
#
#
#
# Elastic Constant Matrix: (Units=GPa)
#
#
# Indices 1 2 3 4 5 6 
#
# 1 174.4577 6.5333 36.0115 0.0000 0.0000 0.0000
# 2 6.5333 98.8720 27.3343 0.0000 0.0000 0.0000
# 3 36.0115 27.3343 168.6498 0.0000 0.0000 0.0000
# 4 0.0000 0.0000 0.0000 38.9263 0.0000 0.0000
# 5 0.0000 0.0000 0.0000 0.0000 72.2027 0.0000
# 6 0.0000 0.0000 0.0000 0.0000 0.0000 29.3529
#
#
#
# Elastic Compliance Matrix: (Units=1/GPa)
#
#
# Indices 1 2 3 4 5 6 
#
# 1 0.005997 -0.000044 -0.001273 0.000000 0.000000 0.000000
# 2 -0.000044 0.010589 -0.001707 0.000000 0.000000 0.000000
# 3 -0.001273 -0.001707 0.006478 0.000000 0.000000 0.000000
# 4 0.000000 0.000000 0.000000 0.025690 0.000000 0.000000
# 5 0.000000 0.000000 0.000000 0.000000 0.013850 0.000000
# 6 0.000000 0.000000 0.000000 0.000000 0.000000 0.034068
#
#
# Mechanical properties :
#
#
# Convention : Reuss Voigt Hill
#
# Bulk Modulus (GPa) = 58.77231 64.63754 61.70492
# Shear Modulus (GPa) = 46.12923 52.90307 49.51615
#
# Velocity S-wave (km/s) = 4.02071 4.30581 4.16570
# Velocity P-wave (km/s) = 6.49244 6.88276 6.69045
#
# Compressibility (1/GPa) = 0.01701482
#
# Stress axis : x y z
#
# Youngs Moduli (GPa) = 166.76310 94.43886 154.36979
#
# Poissons Ratio (x) = 0.00418 0.19655
# Poissons Ratio (y) = 0.00738 0.26347
# Poissons Ratio (z) = 0.21233 0.16119
#
# Static dielectric constant tensor:
#      x y z
#    x 2.174450 0.000000 0.000000 
#    y 0.000000 2.383890 0.000000 
#    z 0.000000 0.000000 2.200980 
# 
# From -- ./inp_files/22600.got.cif
#   From: 2010.05.17/outbox.cif.g08.bks.cpg/sg60_12_cif.got.tgz:22600.got - 2010.06.03 14:59:27.
