data_PCOD9456621
_publ_section_title
;
Structure prediction by ZEFSAII (Michael W. Deem and Ramdas Pophale) SiO2 
 PCOD9456621
Probable space group: P B C N
;
_chemical_formula_sum "Si O2"
_cell_formula_units_Z 60
_cell_length_a 5.348407
_cell_length_b 24.913259
_cell_length_c 23.466554
_cell_angle_alpha 90.000000
_cell_angle_beta 90.000000
_cell_angle_gamma 90.000000
_cell_volume 3126.830293
_symmetry_space_group_name_H-M "P B C N"
_symmetry_group_IT_number 60
_symmetry_cell_setting 'orthorhombic'
loop_
_space_group_symop_operation_xyz
x,y,z
1/2-x,1/2-y,1/2+z
1/2+x,1/2-y,-z
-x,y,1/2-z
-x,-y,-z
1/2+x,1/2+y,1/2-z
1/2-x,1/2+y,z
x,-y,1/2+z
loop_
_atom_site_type_symbol
_atom_site_label
_atom_site_fract_x
_atom_site_fract_y
_atom_site_fract_z
Si Si1 0.606562 0.214891 0.930364
Si Si2 0.604404 0.217792 0.066684
Si Si3 0.086483 0.074424 0.186499
Si Si4 0.719926 0.105325 0.865526
Si Si5 0.065209 0.604807 0.371813
Si Si6 0.008866 0.503906 0.932353
Si Si7 0.500000 0.935783 0.250000
Si Si8 0.607725 0.467321 0.158599
O O1 0.352755 0.248063 0.917963
O O2 0.637329 0.159251 0.896428
O O3 0.855091 0.249264 0.918595
O O4 0.606755 0.206483 0.998750
O O5 0.586709 0.161154 0.097479
O O6 0.844887 0.091453 0.149309
O O7 0.000000 0.083525 0.250000
O O8 0.347275 0.103899 0.175447
O O9 0.105364 0.010187 0.175054
O O10 0.611154 0.099262 0.801709
O O11 0.010485 0.092698 0.852405
O O12 0.644659 0.054615 0.906510
O O13 0.957846 0.556689 0.411363
O O14 0.272126 0.515170 0.901005
O O15 0.000000 0.500000 0.000000
O O16 0.299706 0.969091 0.288119
#
# Coordination Sequence:
#
# PCOD9456621 Si02
#       8
#     8   8   8   8   8   8   4   8
#     4  10  23  40  70  89 123 164 217 264 316 381
#     4  10  22  44  63  93 119 169 214 261 315 386
#     4  11  22  37  62  89 123 167 210 250 306 375
#     4  11  21  39  61  95 123 169 208 270 324 387
#     4  11  22  40  62  90 126 164 202 263 309 374
#     4  10  22  37  56  95 132 162 200 256 329 382
#     4  10  22  36  62  86 132 164 220 262 318 386
#     4  10  22  37  59  91 129 171 211 255 321 391
#
# _framework density 19.188759999999998
#
# number of rings (size 3 to 8) (size 9 to 14) (size 15 to 20)
#    0.000    1.600    1.333    3.200    7.467    0.533 
#    4.800    0.000    8.800    0.000    0.000    0.000 
#    0.000    0.000    0.000    0.000    0.000    0.000 
#
# Total GULP energy -334198.223230 kJ/mol
# GULP energy per Si atom -5569.970387 kJ/mol
# Density = 1.914509 g / cm^3
# Si number density = 19.188760 Si / 1000 Ang^3
#
#
#
# Elastic Constant Matrix: (Units=GPa)
#
#
# Indices 1 2 3 4 5 6 
#
# 1 83.9522 39.3248 17.5820 0.0000 0.0000 0.0000
# 2 39.3248 130.7297 53.2521 0.0000 0.0000 0.0000
# 3 17.5820 53.2521 109.6056 0.0000 0.0000 0.0000
# 4 0.0000 0.0000 0.0000 25.3762 0.0000 0.0000
# 5 0.0000 0.0000 0.0000 0.0000 13.4891 0.0000
# 6 0.0000 0.0000 0.0000 0.0000 0.0000 15.4996
#
#
#
# Elastic Compliance Matrix: (Units=1/GPa)
#
#
# Indices 1 2 3 4 5 6 
#
# 1 0.013871 -0.004072 -0.000247 0.000000 0.000000 0.000000
# 2 -0.004072 0.010732 -0.004561 0.000000 0.000000 0.000000
# 3 -0.000247 -0.004561 0.011379 0.000000 0.000000 0.000000
# 4 0.000000 0.000000 0.000000 0.039407 0.000000 0.000000
# 5 0.000000 0.000000 0.000000 0.000000 0.074134 0.000000
# 6 0.000000 0.000000 0.000000 0.000000 0.000000 0.064518
#
#
# Mechanical properties :
#
#
# Convention : Reuss Voigt Hill
#
# Bulk Modulus (GPa) = 54.87676 60.51169 57.69423
# Shear Modulus (GPa) = 21.01951 25.14821 23.08386
#
# Velocity S-wave (km/s) = 3.31328 3.62411 3.47218
# Velocity P-wave (km/s) = 6.58009 7.00825 6.79755
#
# Compressibility (1/GPa) = 0.01822265
#
# Stress axis : x y z
#
# Youngs Moduli (GPa) = 72.09514 93.17779 87.87969
#
# Poissons Ratio (x) = 0.37941 0.02168
# Poissons Ratio (y) = 0.29357 0.40082
# Poissons Ratio (z) = 0.01778 0.42499
#
# Static dielectric constant tensor:
#      x y z
#    x 1.820130 0.000000 0.000000 
#    y 0.000000 1.680910 0.000000 
#    z 0.000000 0.000000 1.656900 
# 
# From -- ./inp_files/21777.got.cif
#   From: 2010.05.17/outbox.cif.g08.bks.cpg/sg60_11_cif.got.tgz:21777.got - 2010.06.03 14:59:27.
