data_PCOD9456830
_publ_section_title
;
Structure prediction by ZEFSAII (Michael W. Deem and Ramdas Pophale) SiO2 
 PCOD9456830
Probable space group: P B C N
;
_chemical_formula_sum "Si O2"
_cell_formula_units_Z 56
_cell_length_a 13.755913
_cell_length_b 13.555958
_cell_length_c 13.630697
_cell_angle_alpha 90.000000
_cell_angle_beta 90.000000
_cell_angle_gamma 90.000000
_cell_volume 2541.778483
_symmetry_space_group_name_H-M "P B C N"
_symmetry_group_IT_number 60
_symmetry_cell_setting 'orthorhombic'
loop_
_space_group_symop_operation_xyz
x,y,z
1/2-x,1/2-y,1/2+z
1/2+x,1/2-y,-z
-x,y,1/2-z
-x,-y,-z
1/2+x,1/2+y,1/2-z
1/2-x,1/2+y,z
x,-y,1/2+z
loop_
_atom_site_type_symbol
_atom_site_label
_atom_site_fract_x
_atom_site_fract_y
_atom_site_fract_z
Si Si1 0.833863 0.850788 0.386594
Si Si2 0.076397 0.661358 0.434970
Si Si3 0.683498 0.012579 0.646646
Si Si4 0.000000 0.227168 0.750000
Si Si5 0.871859 0.741571 0.870174
Si Si6 0.358042 0.152970 0.017775
Si Si7 0.000000 0.597984 0.750000
Si Si8 0.708412 0.558821 0.333691
O O1 0.920448 0.833572 0.309887
O O2 0.729518 0.813724 0.346214
O O3 0.854735 0.771977 0.473246
O O4 0.825388 0.967274 0.400462
O O5 0.156583 0.576485 0.426437
O O6 0.114218 0.741232 0.512805
O O7 0.056954 0.706980 0.328936
O O8 0.970895 0.622963 0.471413
O O9 0.692584 0.109198 0.578771
O O10 0.585246 0.031828 0.707773
O O11 0.763433 0.982735 0.726540
O O12 0.954952 0.671621 0.829358
O O13 0.867132 0.851310 0.828817
O O14 0.301049 0.108313 0.111509
#
# Coordination Sequence:
#
# PCOD9456830 Si02
#       8
#     8   8   8   4   8   8   4   8
#     4  10  22  43  65  93 140 181 236 289 346 432
#     4  11  21  40  67 102 133 175 233 298 362 429
#     4  12  22  38  72  96 133 178 230 288 361 418
#     4  10  23  43  68  96 142 192 235 289 364 442
#     4  11  24  42  66 101 145 173 237 299 361 424
#     4  10  22  40  62  98 129 178 232 291 359 423
#     4  12  23  41  68 106 142 178 233 307 360 428
#     4  11  24  44  64  98 139 188 233 293 349 439
#
# _framework density 22.031818000000001
#
# number of rings (size 3 to 8) (size 9 to 14) (size 15 to 20)
#    0.000    1.143    2.857    5.143    0.000    2.857 
#    7.714    2.857    0.000    0.000    0.000    0.000 
#    0.000    0.000    0.000    0.000    0.000    0.000 
#
# Total GULP energy -312913.598283 kJ/mol
# GULP energy per Si atom -5587.742826 kJ/mol
# Density = 2.198167 g / cm^3
# Si number density = 22.031818 Si / 1000 Ang^3
#
#
#
# Elastic Constant Matrix: (Units=GPa)
#
#
# Indices 1 2 3 4 5 6 
#
# 1 34.9629 7.8839 9.3157 0.0000 0.0000 0.0000
# 2 7.8839 102.5093 7.0807 0.0000 0.0000 0.0000
# 3 9.3157 7.0807 65.6142 0.0000 0.0000 0.0000
# 4 0.0000 0.0000 0.0000 15.9270 0.0000 0.0000
# 5 0.0000 0.0000 0.0000 0.0000 25.1961 0.0000
# 6 0.0000 0.0000 0.0000 0.0000 0.0000 30.5969
#
#
#
# Elastic Compliance Matrix: (Units=1/GPa)
#
#
# Indices 1 2 3 4 5 6 
#
# 1 0.030143 -0.002038 -0.004060 0.000000 0.000000 0.000000
# 2 -0.002038 0.009966 -0.000786 0.000000 0.000000 0.000000
# 3 -0.004060 -0.000786 0.015902 0.000000 0.000000 0.000000
# 4 0.000000 0.000000 0.000000 0.062786 0.000000 0.000000
# 5 0.000000 0.000000 0.000000 0.000000 0.039689 0.000000
# 6 0.000000 0.000000 0.000000 0.000000 0.000000 0.032683
#
#
# Mechanical properties :
#
#
# Convention : Reuss Voigt Hill
#
# Bulk Modulus (GPa) = 23.67221 27.96077 25.81649
# Shear Modulus (GPa) = 22.82920 26.26441 24.54680
#
# Velocity S-wave (km/s) = 3.22249 3.45644 3.34151
# Velocity P-wave (km/s) = 4.96123 5.35238 5.16051
#
# Compressibility (1/GPa) = 0.04224363
#
# Stress axis : x y z
#
# Youngs Moduli (GPa) = 33.17522 100.33870 62.88583
#
# Poissons Ratio (x) = 0.20447 0.25530
# Poissons Ratio (y) = 0.06761 0.04944
# Poissons Ratio (z) = 0.13468 0.07888
#
# Static dielectric constant tensor:
#      x y z
#    x 1.819480 0.000000 0.000000 
#    y 0.000000 1.817470 0.000000 
#    z 0.000000 0.000000 1.851380 
# 
# From -- ./inp_files/16888.got.cif
#   From: 2010.05.17/outbox.cif.g08.bks.cpg/sg60_9_cif.got.tgz:16888.got - 2010.06.03 14:59:27.
