data_PCOD9456842
_publ_section_title
;
Structure prediction by ZEFSAII (Michael W. Deem and Ramdas Pophale) SiO2 
 PCOD9456842
Probable space group: P B C N
;
_chemical_formula_sum "Si O2"
_cell_formula_units_Z 28
_cell_length_a 5.077338
_cell_length_b 28.864067
_cell_length_c 8.574347
_cell_angle_alpha 90.000000
_cell_angle_beta 90.000000
_cell_angle_gamma 90.000000
_cell_volume 1256.593054
_symmetry_space_group_name_H-M "P B C N"
_symmetry_group_IT_number 60
_symmetry_cell_setting 'orthorhombic'
loop_
_space_group_symop_operation_xyz
x,y,z
1/2-x,1/2-y,1/2+z
1/2+x,1/2-y,-z
-x,y,1/2-z
-x,-y,-z
1/2+x,1/2+y,1/2-z
1/2-x,1/2+y,z
x,-y,1/2+z
loop_
_atom_site_type_symbol
_atom_site_label
_atom_site_fract_x
_atom_site_fract_y
_atom_site_fract_z
Si Si1 0.265418 0.643289 0.359011
Si Si2 0.500000 0.988807 0.250000
Si Si3 0.807637 0.956140 0.502401
Si Si4 0.094013 0.774163 0.068413
O O1 0.500000 0.659937 0.250000
O O2 0.363463 0.593634 0.427044
O O3 0.268418 0.678752 0.504036
O O4 0.000000 0.640575 0.250000
O O5 0.710502 0.954838 0.325806
O O6 0.412602 0.024286 0.381470
O O7 0.000000 0.000000 0.500000
O O8 0.000000 0.774699 0.250000
O O9 0.327430 0.737551 0.029164
#
# Coordination Sequence:
#
# PCOD9456842 Si02
#       4
#     8   4   8   8
#     4  12  26  47  74 105 147 193 244 301 368 439
#     4  10  22  40  64  94 136 184 234 292 348 420
#     4  11  23  42  66  98 141 188 241 291 359 422
#     4  12  26  49  77 108 144 187 240 305 372 443
#
# _framework density 22.282473
#
# number of rings (size 3 to 8) (size 9 to 14) (size 15 to 20)
#    0.000    0.571    1.429    7.714    4.000    2.286 
#    5.143    0.000    0.000    0.000    0.000    0.000 
#    0.000    0.000    0.000    0.000    0.000    0.000 
#
# Total GULP energy -155902.924285 kJ/mol
# GULP energy per Si atom -5567.961582 kJ/mol
# Density = 2.223176 g / cm^3
# Si number density = 22.282473 Si / 1000 Ang^3
#
#
#
# Elastic Constant Matrix: (Units=GPa)
#
#
# Indices 1 2 3 4 5 6 
#
# 1 106.2555 26.7055 28.6851 0.0000 0.0000 0.0000
# 2 26.7055 122.6223 66.5695 0.0000 0.0000 0.0000
# 3 28.6851 66.5695 99.5658 0.0000 0.0000 0.0000
# 4 0.0000 0.0000 0.0000 40.4438 0.0000 0.0000
# 5 0.0000 0.0000 0.0000 0.0000 24.3826 0.0000
# 6 0.0000 0.0000 0.0000 0.0000 0.0000 23.7572
#
#
#
# Elastic Compliance Matrix: (Units=1/GPa)
#
#
# Indices 1 2 3 4 5 6 
#
# 1 0.010281 -0.000991 -0.002300 0.000000 0.000000 0.000000
# 2 -0.000991 0.012897 -0.008338 0.000000 0.000000 0.000000
# 3 -0.002300 -0.008338 0.016281 0.000000 0.000000 0.000000
# 4 0.000000 0.000000 0.000000 0.024726 0.000000 0.000000
# 5 0.000000 0.000000 0.000000 0.000000 0.041013 0.000000
# 6 0.000000 0.000000 0.000000 0.000000 0.000000 0.042093
#
#
# Mechanical properties :
#
#
# Convention : Reuss Voigt Hill
#
# Bulk Modulus (GPa) = 61.71663 63.59597 62.65630
# Shear Modulus (GPa) = 28.41763 31.48227 29.94995
#
# Velocity S-wave (km/s) = 3.57506 3.76290 3.67018
# Velocity P-wave (km/s) = 6.69320 6.89071 6.79267
#
# Compressibility (1/GPa) = 0.01620309
#
# Stress axis : x y z
#
# Youngs Moduli (GPa) = 97.26606 77.53587 61.42237
#
# Poissons Ratio (x) = 0.07681 0.14125
# Poissons Ratio (y) = 0.09635 0.51212
# Poissons Ratio (z) = 0.22368 0.64647
#
# Static dielectric constant tensor:
#      x y z
#    x 2.003410 0.000000 0.000000 
#    y 0.000000 1.987340 0.000000 
#    z 0.000000 0.000000 1.395050 
# 
# From -- ./inp_files/2955.got.cif
#   From: 2010.05.17/outbox.cif.g08.bks.cpg/sg60_2_cif.got.tgz:2955.got - 2010.06.03 14:59:27.
