data_PCOD9456228
_publ_section_title
;
Structure prediction by ZEFSAII (Michael W. Deem and Ramdas Pophale) SiO2 
 PCOD9456228
Probable space group: P B C N
;
_chemical_formula_sum "Si O2"
_cell_formula_units_Z 56
_cell_length_a 14.313646
_cell_length_b 21.060780
_cell_length_c 9.057566
_cell_angle_alpha 90.000000
_cell_angle_beta 90.000000
_cell_angle_gamma 90.000000
_cell_volume 2730.462592
_symmetry_space_group_name_H-M "P B C N"
_symmetry_group_IT_number 60
_symmetry_cell_setting 'orthorhombic'
loop_
_space_group_symop_operation_xyz
x,y,z
1/2-x,1/2-y,1/2+z
1/2+x,1/2-y,-z
-x,y,1/2-z
-x,-y,-z
1/2+x,1/2+y,1/2-z
1/2-x,1/2+y,z
x,-y,1/2+z
loop_
_atom_site_type_symbol
_atom_site_label
_atom_site_fract_x
_atom_site_fract_y
_atom_site_fract_z
Si Si1 0.684345 0.504754 0.612692
Si Si2 0.500000 0.304400 0.750000
Si Si3 0.806113 0.563620 0.866413
Si Si4 0.500000 0.917100 0.250000
Si Si5 0.630776 0.588373 0.361349
Si Si6 0.718006 0.185991 0.339210
Si Si7 0.675472 0.798741 0.500880
Si Si8 0.957677 0.302925 0.037893
O O1 0.739156 0.548262 0.729451
O O2 0.761351 0.472048 0.506576
O O3 0.618107 0.544758 0.504191
O O4 0.630032 0.453128 0.711872
O O5 0.437607 0.352131 0.654007
O O6 0.560099 0.256407 0.648348
O O7 0.913154 0.546161 0.823496
O O8 0.806627 0.637673 0.907371
O O9 0.456322 0.868501 0.370159
O O10 0.734564 0.618420 0.373133
O O11 0.778847 0.239937 0.418176
O O12 0.615580 0.192293 0.407708
O O13 0.715979 0.194368 0.164217
O O14 0.563841 0.792449 0.512840
#
# Coordination Sequence:
#
# PCOD9456228 Si02
#       8
#     8   4   8   4   8   8   8   8
#     4  10  23  41  63  89 123 175 221 259 305 384
#     4  11  22  42  64  98 132 168 211 270 322 386
#     4  10  21  40  59  90 125 159 217 256 316 380
#     4   9  20  36  62  90 126 166 193 276 314 376
#     4  11  23  42  67  91 128 172 217 266 321 376
#     4  12  23  40  67  94 126 170 205 270 330 384
#     4  11  24  39  63  95 125 166 209 265 332 386
#     4  10  22  38  61  97 134 157 209 259 334 398
#
# _framework density 20.509345
#
# number of rings (size 3 to 8) (size 9 to 14) (size 15 to 20)
#    0.000    1.429    2.857    2.143    6.000    1.143 
#    0.000    1.429    0.000    0.000    0.000    0.000 
#    0.000    0.000    0.000    0.000    0.000    0.000 
#
# Total GULP energy -313000.131869 kJ/mol
# GULP energy per Si atom -5589.288069 kJ/mol
# Density = 2.046266 g / cm^3
# Si number density = 20.509345 Si / 1000 Ang^3
#
#
#
# Elastic Constant Matrix: (Units=GPa)
#
#
# Indices 1 2 3 4 5 6 
#
# 1 34.9728 -6.1679 -6.2248 0.0000 0.0000 0.0000
# 2 -6.1679 43.5424 4.1296 0.0000 0.0000 0.0000
# 3 -6.2248 4.1296 79.8082 0.0000 0.0000 0.0000
# 4 0.0000 0.0000 0.0000 29.2033 0.0000 0.0000
# 5 0.0000 0.0000 0.0000 0.0000 28.4043 0.0000
# 6 0.0000 0.0000 0.0000 0.0000 0.0000 25.5252
#
#
#
# Elastic Compliance Matrix: (Units=1/GPa)
#
#
# Indices 1 2 3 4 5 6 
#
# 1 0.029675 0.004004 0.002107 0.000000 0.000000 0.000000
# 2 0.004004 0.023620 -0.000910 0.000000 0.000000 0.000000
# 3 0.002107 -0.000910 0.012741 0.000000 0.000000 0.000000
# 4 0.000000 0.000000 0.000000 0.034243 0.000000 0.000000
# 5 0.000000 0.000000 0.000000 0.000000 0.035206 0.000000
# 6 0.000000 0.000000 0.000000 0.000000 0.000000 0.039177
#
#
# Mechanical properties :
#
#
# Convention : Reuss Voigt Hill
#
# Bulk Modulus (GPa) = 13.08247 15.75524 14.41885
# Shear Modulus (GPa) = 26.35205 27.73233 27.04219
#
# Velocity S-wave (km/s) = 3.58841 3.68119 3.63510
# Velocity P-wave (km/s) = 4.85403 5.07611 4.96631
#
# Compressibility (1/GPa) = 0.07643817
#
# Stress axis : x y z
#
# Youngs Moduli (GPa) = 33.69856 42.33784 78.48375
#
# Poissons Ratio (x) = -0.16950 -0.16540
# Poissons Ratio (y) = -0.13492 0.07141
# Poissons Ratio (z) = -0.07102 0.03852
#
# Static dielectric constant tensor:
#      x y z
#    x 1.758250 0.000000 0.000000 
#    y 0.000000 1.721220 0.000000 
#    z 0.000000 0.000000 1.718480 
# 
# From -- ./inp_files/6187.got.cif
#   From: 2010.05.17/outbox.cif.g08.bks.cpg/sg60_4_cif.got.tgz:6187.got - 2010.06.03 14:59:27.
