data_PCOD9456371
_publ_section_title
;
Structure prediction by ZEFSAII (Michael W. Deem and Ramdas Pophale) SiO2 
 PCOD9456371
Probable space group: P B C N
;
_chemical_formula_sum "Si O2"
_cell_formula_units_Z 52
_cell_length_a 17.244380
_cell_length_b 10.517870
_cell_length_c 13.083567
_cell_angle_alpha 90.000000
_cell_angle_beta 90.000000
_cell_angle_gamma 90.000000
_cell_volume 2373.020805
_symmetry_space_group_name_H-M "P B C N"
_symmetry_group_IT_number 60
_symmetry_cell_setting 'orthorhombic'
loop_
_space_group_symop_operation_xyz
x,y,z
1/2-x,1/2-y,1/2+z
1/2+x,1/2-y,-z
-x,y,1/2-z
-x,-y,-z
1/2+x,1/2+y,1/2-z
1/2-x,1/2+y,z
x,-y,1/2+z
loop_
_atom_site_type_symbol
_atom_site_label
_atom_site_fract_x
_atom_site_fract_y
_atom_site_fract_z
Si Si1 0.011584 0.677479 0.977883
Si Si2 0.368789 0.955082 0.977932
Si Si3 0.718992 0.444168 0.107730
Si Si4 0.886949 0.892949 0.455199
Si Si5 0.137755 0.072866 0.212440
Si Si6 0.500000 0.756113 0.250000
Si Si7 0.766110 0.255831 0.432787
O O1 0.078943 0.576890 0.004707
O O2 0.992804 0.667336 0.856609
O O3 0.041989 0.816806 0.000076
O O4 0.935332 0.647858 0.043592
O O5 0.305973 0.998855 0.895339
O O6 0.315976 0.885883 0.063276
O O7 0.682375 0.470964 0.217408
O O8 0.661920 0.528964 0.038074
O O9 0.725880 0.311123 0.045641
O O10 0.822416 0.793069 0.414659
O O11 0.910494 0.990847 0.368531
O O12 0.077078 0.169830 0.262705
O O13 0.198971 0.158962 0.149328
#
# Coordination Sequence:
#
# PCOD9456371 Si02
#       7
#     8   8   8   8   8   4   8
#     4  11  22  43  66  96 137 175 216 272 339 407
#     4  10  22  40  67  91 128 183 212 262 343 393
#     4  10  21  41  65  96 129 171 224 275 331 388
#     4  10  22  39  67  94 127 170 218 274 329 393
#     4  11  24  40  67  98 128 171 225 276 329 399
#     4  12  24  42  64 100 132 174 220 272 344 394
#     4  10  21  42  64  96 130 172 219 275 328 390
#
# _framework density 21.912997000000001
#
# number of rings (size 3 to 8) (size 9 to 14) (size 15 to 20)
#    0.000    1.538    4.615    0.000    0.000    5.538 
#    2.769    3.077    0.000    0.000    0.000    0.000 
#    0.000    0.000    0.000    0.000    0.000    0.000 
#
# Total GULP energy -290026.478538 kJ/mol
# GULP energy per Si atom -5577.432280 kJ/mol
# Density = 2.186312 g / cm^3
# Si number density = 21.912997 Si / 1000 Ang^3
#
#
#
# Elastic Constant Matrix: (Units=GPa)
#
#
# Indices 1 2 3 4 5 6 
#
# 1 69.3055 12.2223 8.6591 0.0000 0.0000 0.0000
# 2 12.2223 51.8071 18.9409 0.0000 0.0000 0.0000
# 3 8.6591 18.9409 64.7183 0.0000 0.0000 0.0000
# 4 0.0000 0.0000 0.0000 18.9463 0.0000 0.0000
# 5 0.0000 0.0000 0.0000 0.0000 20.1512 0.0000
# 6 0.0000 0.0000 0.0000 0.0000 0.0000 38.1221
#
#
#
# Elastic Compliance Matrix: (Units=1/GPa)
#
#
# Indices 1 2 3 4 5 6 
#
# 1 0.015124 -0.003167 -0.001097 0.000000 0.000000 0.000000
# 2 -0.003167 0.022278 -0.006096 0.000000 0.000000 0.000000
# 3 -0.001097 -0.006096 0.017383 0.000000 0.000000 0.000000
# 4 0.000000 0.000000 0.000000 0.052781 0.000000 0.000000
# 5 0.000000 0.000000 0.000000 0.000000 0.049625 0.000000
# 6 0.000000 0.000000 0.000000 0.000000 0.000000 0.026232
#
#
# Mechanical properties :
#
#
# Convention : Reuss Voigt Hill
#
# Bulk Modulus (GPa) = 29.35575 29.49727 29.42651
# Shear Modulus (GPa) = 23.20205 25.17781 24.18993
#
# Velocity S-wave (km/s) = 3.25749 3.39335 3.32612
# Velocity P-wave (km/s) = 5.25109 5.37061 5.31118
#
# Compressibility (1/GPa) = 0.03406488
#
# Stress axis : x y z
#
# Youngs Moduli (GPa) = 66.11812 44.88647 57.52907
#
# Poissons Ratio (x) = 0.14217 0.06309
# Poissons Ratio (y) = 0.20941 0.35072
# Poissons Ratio (z) = 0.07251 0.27365
#
# Static dielectric constant tensor:
#      x y z
#    x 1.803330 0.000000 0.000000 
#    y 0.000000 1.823230 0.000000 
#    z 0.000000 0.000000 1.830160 
# 
# From -- ./inp_files/17435.got.cif
#   From: 2010.05.17/outbox.cif.g08.bks.cpg/sg60_9_cif.got.tgz:17435.got - 2010.06.03 14:59:27.
