data_PCOD9456230
_publ_section_title
;
Structure prediction by ZEFSAII (Michael W. Deem and Ramdas Pophale) SiO2 
 PCOD9456230
Probable space group: P B C N
;
_chemical_formula_sum "Si O2"
_cell_formula_units_Z 40
_cell_length_a 22.517895
_cell_length_b 4.827148
_cell_length_c 15.982600
_cell_angle_alpha 90.000000
_cell_angle_beta 90.000000
_cell_angle_gamma 90.000000
_cell_volume 1737.264058
_symmetry_space_group_name_H-M "P B C N"
_symmetry_group_IT_number 60
_symmetry_cell_setting 'orthorhombic'
loop_
_space_group_symop_operation_xyz
x,y,z
1/2-x,1/2-y,1/2+z
1/2+x,1/2-y,-z
-x,y,1/2-z
-x,-y,-z
1/2+x,1/2+y,1/2-z
1/2-x,1/2+y,z
x,-y,1/2+z
loop_
_atom_site_type_symbol
_atom_site_label
_atom_site_fract_x
_atom_site_fract_y
_atom_site_fract_z
Si Si1 0.623828 0.293567 0.795757
Si Si2 0.895736 0.770198 0.618571
Si Si3 0.790471 0.081376 0.682505
Si Si4 0.979351 0.941001 0.390738
Si Si5 0.417571 0.071612 0.545111
O O1 0.678175 0.491341 0.769752
O O2 0.630275 0.116223 0.880403
O O3 0.610952 0.126232 0.710175
O O4 0.565672 0.478138 0.815778
O O5 0.839617 0.978996 0.616150
O O6 0.896865 0.568112 0.539675
O O7 0.955999 0.945533 0.625847
O O8 0.768032 0.391037 0.674629
O O9 0.947998 0.129281 0.463267
O O10 0.968323 0.624060 0.413672
#
# Coordination Sequence:
#
# PCOD9456230 Si02
#       5
#     8   8   8   8   8
#     4   8  23  39  64  88 127 157 211 248 317 371
#     4  10  21  42  65  92 131 164 200 267 315 380
#     4  10  24  41  62  86 123 172 217 257 305 363
#     4  10  21  40  60 102 123 161 198 260 325 383
#     4  10  22  39  62 100 125 158 201 253 323 386
#
# _framework density 23.024711
#
# number of rings (size 3 to 8) (size 9 to 14) (size 15 to 20)
#    2.400    0.000    0.000    1.800    2.800    3.200 
#   10.800    2.000    0.000    0.000    0.000    0.000 
#    0.000    0.000    0.000    0.000    0.000    0.000 
#
# Total GULP energy -223017.081728 kJ/mol
# GULP energy per Si atom -5575.427043 kJ/mol
# Density = 2.297231 g / cm^3
# Si number density = 23.024711 Si / 1000 Ang^3
#
#
#
# Elastic Constant Matrix: (Units=GPa)
#
#
# Indices 1 2 3 4 5 6 
#
# 1 105.5296 11.7264 9.4509 0.0000 0.0000 0.0000
# 2 11.7264 76.7915 17.5417 0.0000 0.0000 0.0000
# 3 9.4509 17.5417 103.3939 0.0000 0.0000 0.0000
# 4 0.0000 0.0000 0.0000 25.4509 0.0000 0.0000
# 5 0.0000 0.0000 0.0000 0.0000 22.0831 0.0000
# 6 0.0000 0.0000 0.0000 0.0000 0.0000 33.2948
#
#
#
# Elastic Compliance Matrix: (Units=1/GPa)
#
#
# Indices 1 2 3 4 5 6 
#
# 1 0.009683 -0.001328 -0.000660 0.000000 0.000000 0.000000
# 2 -0.001328 0.013729 -0.002208 0.000000 0.000000 0.000000
# 3 -0.000660 -0.002208 0.010107 0.000000 0.000000 0.000000
# 4 0.000000 0.000000 0.000000 0.039291 0.000000 0.000000
# 5 0.000000 0.000000 0.000000 0.000000 0.045284 0.000000
# 6 0.000000 0.000000 0.000000 0.000000 0.000000 0.030035
#
#
# Mechanical properties :
#
#
# Convention : Reuss Voigt Hill
#
# Bulk Modulus (GPa) = 39.79696 40.35033 40.07365
# Shear Modulus (GPa) = 30.32225 32.63214 31.47720
#
# Velocity S-wave (km/s) = 3.63291 3.76874 3.70145
# Velocity P-wave (km/s) = 5.90926 6.04158 5.97579
#
# Compressibility (1/GPa) = 0.02512755
#
# Stress axis : x y z
#
# Youngs Moduli (GPa) = 103.27744 72.83628 98.94469
#
# Poissons Ratio (x) = 0.09672 0.06528
# Poissons Ratio (y) = 0.13714 0.21846
# Poissons Ratio (z) = 0.06814 0.16082
#
# Static dielectric constant tensor:
#      x y z
#    x 1.866350 0.000000 0.000000 
#    y 0.000000 1.861900 0.000000 
#    z 0.000000 0.000000 1.954050 
# 
# From -- ./inp_files/20989.got.cif
#   From: 2010.05.17/outbox.cif.g08.bks.cpg/sg60_11_cif.got.tgz:20989.got - 2010.06.03 14:59:27.
