data_PCOD9456306
_publ_section_title
;
Structure prediction by ZEFSAII (Michael W. Deem and Ramdas Pophale) SiO2 
 PCOD9456306
Probable space group: P B C N
;
_chemical_formula_sum "Si O2"
_cell_formula_units_Z 56
_cell_length_a 17.169668
_cell_length_b 14.042352
_cell_length_c 9.102755
_cell_angle_alpha 90.000000
_cell_angle_beta 90.000000
_cell_angle_gamma 90.000000
_cell_volume 2194.697186
_symmetry_space_group_name_H-M "P B C N"
_symmetry_group_IT_number 60
_symmetry_cell_setting 'orthorhombic'
loop_
_space_group_symop_operation_xyz
x,y,z
1/2-x,1/2-y,1/2+z
1/2+x,1/2-y,-z
-x,y,1/2-z
-x,-y,-z
1/2+x,1/2+y,1/2-z
1/2-x,1/2+y,z
x,-y,1/2+z
loop_
_atom_site_type_symbol
_atom_site_label
_atom_site_fract_x
_atom_site_fract_y
_atom_site_fract_z
Si Si1 0.839605 0.199822 0.902637
Si Si2 0.425777 0.300640 0.475761
Si Si3 0.000000 0.348898 0.750000
Si Si4 0.706507 0.199845 0.113301
Si Si5 0.310693 0.001998 0.763835
Si Si6 0.891817 0.410156 0.984575
Si Si7 0.500000 0.370280 0.750000
Si Si8 0.875164 0.966087 0.221595
O O1 0.792681 0.228852 0.752654
O O2 0.876229 0.299269 0.950687
O O3 0.889973 0.108663 0.856002
O O4 0.786622 0.173219 0.038716
O O5 0.450927 0.229354 0.345003
O O6 0.342548 0.253901 0.512582
O O7 0.485189 0.306488 0.607602
O O8 0.407426 0.405831 0.415948
O O9 0.968338 0.418055 0.881079
O O10 0.671360 0.101960 0.170088
O O11 0.330910 0.982763 0.594089
O O12 0.218540 0.021290 0.781748
O O13 0.370453 0.072348 0.845913
O O14 0.575259 0.438671 0.736844
#
# Coordination Sequence:
#
# PCOD9456306 Si02
#       8
#     8   8   4   8   8   8   4   8
#     4  10  21  40  67  97 136 185 221 284 353 418
#     4  11  25  49  67 103 144 192 232 282 364 431
#     4  12  23  52  73  90 144 194 232 287 366 433
#     4  10  22  42  67  99 137 178 234 283 343 422
#     4  11  24  43  70 109 134 181 238 298 347 417
#     4  11  24  44  71 100 137 183 238 291 361 422
#     4  12  29  44  73 110 146 182 242 297 350 431
#     4  11  24  43  73 105 147 182 231 298 354 431
#
# _framework density 25.516048999999999
#
# number of rings (size 3 to 8) (size 9 to 14) (size 15 to 20)
#    0.000    1.143    4.286    3.429    8.000    1.714 
#    5.143    0.000    0.000    0.000    0.000    0.000 
#    0.000    0.000    0.000    0.000    0.000    0.000 
#
# Total GULP energy -312716.021952 kJ/mol
# GULP energy per Si atom -5584.214678 kJ/mol
# Density = 2.545797 g / cm^3
# Si number density = 25.516049 Si / 1000 Ang^3
#
#
#
# Elastic Constant Matrix: (Units=GPa)
#
#
# Indices 1 2 3 4 5 6 
#
# 1 57.4170 12.7208 7.7538 0.0000 0.0000 0.0000
# 2 12.7208 85.4156 34.4469 0.0000 0.0000 0.0000
# 3 7.7538 34.4469 55.5984 0.0000 0.0000 0.0000
# 4 0.0000 0.0000 0.0000 24.4780 0.0000 0.0000
# 5 0.0000 0.0000 0.0000 0.0000 42.7214 0.0000
# 6 0.0000 0.0000 0.0000 0.0000 0.0000 47.3735
#
#
#
# Elastic Compliance Matrix: (Units=1/GPa)
#
#
# Indices 1 2 3 4 5 6 
#
# 1 0.018064 -0.002232 -0.001136 0.000000 0.000000 0.000000
# 2 -0.002232 0.015883 -0.009529 0.000000 0.000000 0.000000
# 3 -0.001136 -0.009529 0.024049 0.000000 0.000000 0.000000
# 4 0.000000 0.000000 0.000000 0.040853 0.000000 0.000000
# 5 0.000000 0.000000 0.000000 0.000000 0.023407 0.000000
# 6 0.000000 0.000000 0.000000 0.000000 0.000000 0.021109
#
#
# Mechanical properties :
#
#
# Convention : Reuss Voigt Hill
#
# Bulk Modulus (GPa) = 31.05531 34.25268 32.65399
# Shear Modulus (GPa) = 27.79414 32.48188 30.13801
#
# Velocity S-wave (km/s) = 3.30401 3.57178 3.44050
# Velocity P-wave (km/s) = 5.17229 5.51935 5.34864
#
# Compressibility (1/GPa) = 0.03220061
#
# Stress axis : x y z
#
# Youngs Moduli (GPa) = 55.35747 62.96085 41.58247
#
# Poissons Ratio (x) = 0.14053 0.04725
# Poissons Ratio (y) = 0.12356 0.39625
# Poissons Ratio (z) = 0.06291 0.59997
#
# Static dielectric constant tensor:
#      x y z
#    x 2.295610 0.000000 0.000000 
#    y 0.000000 1.966030 0.000000 
#    z 0.000000 0.000000 2.064700 
# 
# From -- ./inp_files/7471.got.cif
#   From: 2010.05.17/outbox.cif.g08.bks.cpg/sg60_4_cif.got.tgz:7471.got - 2010.06.03 14:59:27.
