data_PCOD9456130
_publ_section_title
;
Structure prediction by ZEFSAII (Michael W. Deem and Ramdas Pophale) SiO2 
 PCOD9456130
Probable space group: P B C N
;
_chemical_formula_sum "Si O2"
_cell_formula_units_Z 52
_cell_length_a 8.812491
_cell_length_b 13.495765
_cell_length_c 23.681123
_cell_angle_alpha 90.000000
_cell_angle_beta 90.000000
_cell_angle_gamma 90.000000
_cell_volume 2816.426924
_symmetry_space_group_name_H-M "P B C N"
_symmetry_group_IT_number 60
_symmetry_cell_setting 'orthorhombic'
loop_
_space_group_symop_operation_xyz
x,y,z
1/2-x,1/2-y,1/2+z
1/2+x,1/2-y,-z
-x,y,1/2-z
-x,-y,-z
1/2+x,1/2+y,1/2-z
1/2-x,1/2+y,z
x,-y,1/2+z
loop_
_atom_site_type_symbol
_atom_site_label
_atom_site_fract_x
_atom_site_fract_y
_atom_site_fract_z
Si Si1 0.337953 0.166866 0.037744
Si Si2 0.802717 0.305106 0.557389
Si Si3 0.169364 0.032804 0.514890
Si Si4 0.834454 0.623003 0.764592
Si Si5 0.124467 0.244401 0.822463
Si Si6 0.000000 0.575439 0.250000
Si Si7 0.318941 0.676633 0.622598
O O1 0.518280 0.183656 0.043241
O O2 0.275379 0.218000 0.094808
O O3 0.281587 0.056040 0.030567
O O4 0.271544 0.224701 0.983964
O O5 0.729498 0.408426 0.539474
O O6 0.780822 0.273553 0.621947
O O7 0.168912 0.104972 0.568936
O O8 0.000000 0.000000 0.500000
O O9 0.714545 0.678288 0.723451
O O10 0.794943 0.643291 0.829285
O O11 0.000000 0.665782 0.750000
O O12 0.862030 0.503714 0.758730
O O13 0.055848 0.346916 0.797419
O O14 0.981031 0.184401 0.846683
#
# Coordination Sequence:
#
# PCOD9456130 Si02
#       7
#     8   8   8   8   8   4   8
#     4  10  21  39  61  87 128 160 208 258 320 378
#     4  10  23  38  63  92 119 172 204 260 325 375
#     4  11  23  39  59  95 130 162 218 259 314 403
#     4  10  24  40  63  95 121 164 224 260 321 393
#     4  11  21  44  66  86 133 166 209 271 319 377
#     4  10  24  40  64  88 126 158 216 256 320 372
#     4  10  22  39  65  88 124 171 202 268 325 373
#
# _framework density 18.463111000000001
#
# number of rings (size 3 to 8) (size 9 to 14) (size 15 to 20)
#    0.462    1.231    1.538    3.231    4.308    6.154 
#    0.000    1.538    0.000    0.000    0.000    0.000 
#    0.000    0.000    0.000    0.000    0.000    0.000 
#
# Total GULP energy -289747.856237 kJ/mol
# GULP energy per Si atom -5572.074158 kJ/mol
# Density = 1.842109 g / cm^3
# Si number density = 18.463111 Si / 1000 Ang^3
#
#
#
# Elastic Constant Matrix: (Units=GPa)
#
#
# Indices 1 2 3 4 5 6 
#
# 1 42.2303 17.7419 24.9521 0.0000 0.0000 0.0000
# 2 17.7419 80.8489 18.7051 0.0000 0.0000 0.0000
# 3 24.9521 18.7051 103.3125 0.0000 0.0000 0.0000
# 4 0.0000 0.0000 0.0000 6.0230 0.0000 0.0000
# 5 0.0000 0.0000 0.0000 0.0000 36.7206 0.0000
# 6 0.0000 0.0000 0.0000 0.0000 0.0000 31.8970
#
#
#
# Elastic Compliance Matrix: (Units=1/GPa)
#
#
# Indices 1 2 3 4 5 6 
#
# 1 0.029458 -0.005029 -0.006204 0.000000 0.000000 0.000000
# 2 -0.005029 0.013768 -0.001278 0.000000 0.000000 0.000000
# 3 -0.006204 -0.001278 0.011409 0.000000 0.000000 0.000000
# 4 0.000000 0.000000 0.000000 0.166031 0.000000 0.000000
# 5 0.000000 0.000000 0.000000 0.000000 0.027233 0.000000
# 6 0.000000 0.000000 0.000000 0.000000 0.000000 0.031351
#
#
# Mechanical properties :
#
#
# Convention : Reuss Voigt Hill
#
# Bulk Modulus (GPa) = 33.76928 38.79889 36.28409
# Shear Modulus (GPa) = 15.91626 25.92762 20.92194
#
# Velocity S-wave (km/s) = 2.93927 3.75146 3.36992
# Velocity P-wave (km/s) = 5.46341 6.31066 5.90226
#
# Compressibility (1/GPa) = 0.02961271
#
# Stress axis : x y z
#
# Youngs Moduli (GPa) = 33.94618 72.63188 87.64821
#
# Poissons Ratio (x) = 0.36527 0.54379
# Poissons Ratio (y) = 0.17072 0.11203
# Poissons Ratio (z) = 0.21061 0.09283
#
# Static dielectric constant tensor:
#      x y z
#    x 1.652000 0.000000 0.000000 
#    y 0.000000 1.658530 0.000000 
#    z 0.000000 0.000000 1.618540 
# 
# From -- ./inp_files/22130.got.cif
#   From: 2010.05.17/outbox.cif.g08.bks.cpg/sg60_12_cif.got.tgz:22130.got - 2010.06.03 14:59:27.
