data_PCOD9456937
_publ_section_title
;
Structure prediction by ZEFSAII (Michael W. Deem and Ramdas Pophale) SiO2 
 PCOD9456937
Probable space group: P B C N
;
_chemical_formula_sum "Si O2"
_cell_formula_units_Z 32
_cell_length_a 8.269877
_cell_length_b 19.621200
_cell_length_c 10.186284
_cell_angle_alpha 90.000000
_cell_angle_beta 90.000000
_cell_angle_gamma 90.000000
_cell_volume 1652.876463
_symmetry_space_group_name_H-M "P B C N"
_symmetry_group_IT_number 60
_symmetry_cell_setting 'orthorhombic'
loop_
_space_group_symop_operation_xyz
x,y,z
1/2-x,1/2-y,1/2+z
1/2+x,1/2-y,-z
-x,y,1/2-z
-x,-y,-z
1/2+x,1/2+y,1/2-z
1/2-x,1/2+y,z
x,-y,1/2+z
loop_
_atom_site_type_symbol
_atom_site_label
_atom_site_fract_x
_atom_site_fract_y
_atom_site_fract_z
Si Si1 0.303822 0.850034 0.992893
Si Si2 0.405716 0.229026 0.888211
Si Si3 0.810525 0.888116 0.221656
Si Si4 0.385782 0.987056 0.874991
O O1 0.470372 0.808648 0.013859
O O2 0.270444 0.883539 0.134649
O O3 0.166303 0.796966 0.951066
O O4 0.315873 0.911480 0.891010
O O5 0.500000 0.241489 0.750000
O O6 0.259295 0.177291 0.855193
O O7 0.000000 0.886973 0.250000
O O8 0.749629 0.955017 0.144900
O O9 0.500000 0.990979 0.750000
O O10 0.500000 0.000000 0.000000
#
# Coordination Sequence:
#
# PCOD9456937 Si02
#       4
#     8   8   8   8
#     4  11  23  42  69  95 134 174 222 275 333 399
#     4  10  22  41  64  96 135 173 221 280 337 399
#     4  11  23  42  66  94 134 174 221 281 333 395
#     4  12  23  45  69  93 131 180 217 271 342 395
#
# _framework density 19.360188999999998
#
# number of rings (size 3 to 8) (size 9 to 14) (size 15 to 20)
#    0.000    1.000    5.000    2.250    0.000    7.000 
#    4.500    0.000    0.000    0.000    0.000    0.000 
#    0.000    0.000    0.000    0.000    0.000    0.000 
#
# Total GULP energy -178810.049894 kJ/mol
# GULP energy per Si atom -5587.814059 kJ/mol
# Density = 1.931612 g / cm^3
# Si number density = 19.360189 Si / 1000 Ang^3
#
#
#
# Elastic Constant Matrix: (Units=GPa)
#
#
# Indices 1 2 3 4 5 6 
#
# 1 115.2510 66.3631 26.4484 0.0000 0.0000 0.0000
# 2 66.3631 132.1847 40.0719 0.0000 0.0000 0.0000
# 3 26.4484 40.0719 71.2783 0.0000 0.0000 0.0000
# 4 0.0000 0.0000 0.0000 30.8310 0.0000 0.0000
# 5 0.0000 0.0000 0.0000 0.0000 24.9961 0.0000
# 6 0.0000 0.0000 0.0000 0.0000 0.0000 35.9794
#
#
#
# Elastic Compliance Matrix: (Units=1/GPa)
#
#
# Indices 1 2 3 4 5 6 
#
# 1 0.012307 -0.005779 -0.001318 0.000000 0.000000 0.000000
# 2 -0.005779 0.011833 -0.004508 0.000000 0.000000 0.000000
# 3 -0.001318 -0.004508 0.017053 0.000000 0.000000 0.000000
# 4 0.000000 0.000000 0.000000 0.032435 0.000000 0.000000
# 5 0.000000 0.000000 0.000000 0.000000 0.040006 0.000000
# 6 0.000000 0.000000 0.000000 0.000000 0.000000 0.027794
#
#
# Mechanical properties :
#
#
# Convention : Reuss Voigt Hill
#
# Bulk Modulus (GPa) = 55.60753 64.94231 60.27492
# Shear Modulus (GPa) = 29.30287 30.75000 30.02643
#
# Velocity S-wave (km/s) = 3.89467 3.98969 3.94247
# Velocity P-wave (km/s) = 7.00069 7.40544 7.20591
#
# Compressibility (1/GPa) = 0.01798318
#
# Stress axis : x y z
#
# Youngs Moduli (GPa) = 81.25582 84.50761 58.64137
#
# Poissons Ratio (x) = 0.48839 0.07726
# Poissons Ratio (y) = 0.46959 0.26436
# Poissons Ratio (z) = 0.10706 0.38097
#
# Static dielectric constant tensor:
#      x y z
#    x 1.694860 0.000000 0.000000 
#    y 0.000000 1.680260 0.000000 
#    z 0.000000 0.000000 1.665700 
# 
# From -- ./inp_files/3554.got.cif
#   From: 2010.05.17/outbox.cif.g08.bks.cpg/sg60_2_cif.got.tgz:3554.got - 2010.06.03 14:59:27.
