data_PCOD9456354
_publ_section_title
;
Structure prediction by ZEFSAII (Michael W. Deem and Ramdas Pophale) SiO2 
 PCOD9456354
Probable space group: P B C N
;
_chemical_formula_sum "Si O2"
_cell_formula_units_Z 48
_cell_length_a 8.840164
_cell_length_b 28.843850
_cell_length_c 9.467872
_cell_angle_alpha 90.000000
_cell_angle_beta 90.000000
_cell_angle_gamma 90.000000
_cell_volume 2414.159324
_symmetry_space_group_name_H-M "P B C N"
_symmetry_group_IT_number 60
_symmetry_cell_setting 'orthorhombic'
loop_
_space_group_symop_operation_xyz
x,y,z
1/2-x,1/2-y,1/2+z
1/2+x,1/2-y,-z
-x,y,1/2-z
-x,-y,-z
1/2+x,1/2+y,1/2-z
1/2-x,1/2+y,z
x,-y,1/2+z
loop_
_atom_site_type_symbol
_atom_site_label
_atom_site_fract_x
_atom_site_fract_y
_atom_site_fract_z
Si Si1 0.568015 0.540188 0.903828
Si Si2 0.114129 0.219655 0.142104
Si Si3 0.056645 0.121959 0.396505
Si Si4 0.113896 0.727085 0.356247
Si Si5 0.921463 0.375162 0.604446
Si Si6 0.568301 0.958841 0.405640
O O1 0.500000 0.536018 0.750000
O O2 0.749881 0.536966 0.901025
O O3 0.500000 0.500000 0.000000
O O4 0.520902 0.589241 0.972772
O O5 0.254055 0.213120 0.247488
O O6 0.000000 0.246043 0.250000
O O7 0.028174 0.171737 0.100346
O O8 0.155819 0.245154 0.996972
O O9 0.238596 0.124334 0.389258
O O10 0.000000 0.099634 0.250000
O O11 0.038845 0.679116 0.410510
O O12 0.000000 0.753381 0.250000
O O13 0.968693 0.409809 0.480927
O O14 0.000000 0.391018 0.750000
O O15 0.500000 0.960973 0.250000
O O16 0.500000 0.000000 0.500000
#
# Coordination Sequence:
#
# PCOD9456354 Si02
#       6
#     8   8   8   8   8   8
#     4  11  24  42  65  99 130 169 220 269 330 397
#     4  11  22  43  65  93 133 173 219 273 333 394
#     4  10  21  41  64  90 126 170 210 265 325 383
#     4  11  23  40  65  98 128 175 221 270 333 396
#     4  10  22  41  65  91 125 167 218 260 322 390
#     4  11  24  43  66  95 132 172 214 272 332 393
#
# _framework density 19.8827
#
# number of rings (size 3 to 8) (size 9 to 14) (size 15 to 20)
#    0.000    1.333    3.333    3.000    0.000    6.667 
#    3.000    0.000    0.000    0.000    0.000    0.000 
#    0.000    0.000    0.000    0.000    0.000    0.000 
#
# Total GULP energy -267725.818029 kJ/mol
# GULP energy per Si atom -5577.621209 kJ/mol
# Density = 1.983745 g / cm^3
# Si number density = 19.882700 Si / 1000 Ang^3
#
#
#
# Elastic Constant Matrix: (Units=GPa)
#
#
# Indices 1 2 3 4 5 6 
#
# 1 64.2050 38.9014 48.8525 0.0000 0.0000 0.0000
# 2 38.9014 93.3487 92.0008 0.0000 0.0000 0.0000
# 3 48.8525 92.0008 201.3361 0.0000 0.0000 0.0000
# 4 0.0000 0.0000 0.0000 31.1755 0.0000 0.0000
# 5 0.0000 0.0000 0.0000 0.0000 38.8541 0.0000
# 6 0.0000 0.0000 0.0000 0.0000 0.0000 19.5900
#
#
#
# Elastic Compliance Matrix: (Units=1/GPa)
#
#
# Indices 1 2 3 4 5 6 
#
# 1 0.021279 -0.006875 -0.002021 0.000000 0.000000 0.000000
# 2 -0.006875 0.021711 -0.008253 0.000000 0.000000 0.000000
# 3 -0.002021 -0.008253 0.009228 0.000000 0.000000 0.000000
# 4 0.000000 0.000000 0.000000 0.032076 0.000000 0.000000
# 5 0.000000 0.000000 0.000000 0.000000 0.025737 0.000000
# 6 0.000000 0.000000 0.000000 0.000000 0.000000 0.051046
#
#
# Mechanical properties :
#
#
# Convention : Reuss Voigt Hill
#
# Bulk Modulus (GPa) = 55.80507 79.82214 67.81361
# Shear Modulus (GPa) = 24.83223 29.86625 27.34924
#
# Velocity S-wave (km/s) = 3.53786 3.87993 3.71284
# Velocity P-wave (km/s) = 6.69453 7.76566 7.24990
#
# Compressibility (1/GPa) = 0.01791952
#
# Stress axis : x y z
#
# Youngs Moduli (GPa) = 46.99483 46.05895 108.36089
#
# Poissons Ratio (x) = 0.31667 0.21905
# Poissons Ratio (y) = 0.32311 0.89428
# Poissons Ratio (z) = 0.09500 0.38011
#
# Static dielectric constant tensor:
#      x y z
#    x 1.801300 0.000000 0.000000 
#    y 0.000000 1.712980 0.000000 
#    z 0.000000 0.000000 1.677290 
# 
# From -- ./inp_files/4206.got.cif
#   From: 2010.05.17/outbox.cif.g08.bks.cpg/sg60_3_cif.got.tgz:4206.got - 2010.06.03 14:59:27.
