data_PCOD9456989
_publ_section_title
;
Structure prediction by ZEFSAII (Michael W. Deem and Ramdas Pophale) SiO2 
 PCOD9456989
Probable space group: P B C N
;
_chemical_formula_sum "Si O2"
_cell_formula_units_Z 56
_cell_length_a 15.023811
_cell_length_b 10.986478
_cell_length_c 14.212209
_cell_angle_alpha 90.000000
_cell_angle_beta 90.000000
_cell_angle_gamma 90.000000
_cell_volume 2345.849723
_symmetry_space_group_name_H-M "P B C N"
_symmetry_group_IT_number 60
_symmetry_cell_setting 'orthorhombic'
loop_
_space_group_symop_operation_xyz
x,y,z
1/2-x,1/2-y,1/2+z
1/2+x,1/2-y,-z
-x,y,1/2-z
-x,-y,-z
1/2+x,1/2+y,1/2-z
1/2-x,1/2+y,z
x,-y,1/2+z
loop_
_atom_site_type_symbol
_atom_site_label
_atom_site_fract_x
_atom_site_fract_y
_atom_site_fract_z
Si Si1 0.176541 0.930866 0.626063
Si Si2 0.979920 0.876908 0.402451
Si Si3 0.000000 0.669130 0.250000
Si Si4 0.598737 0.389591 0.601199
Si Si5 0.677217 0.005202 0.245383
Si Si6 0.285248 0.029449 0.455985
Si Si7 0.500000 0.236637 0.750000
Si Si8 0.387813 0.835849 0.102376
O O1 0.236644 0.921948 0.718559
O O2 0.126953 0.806933 0.602762
O O3 0.104801 0.040316 0.630584
O O4 0.243637 0.949158 0.538490
O O5 0.954623 0.840932 0.509203
O O6 0.996136 0.760091 0.339109
O O7 0.063847 0.969485 0.396583
O O8 0.089625 0.588583 0.248231
O O9 0.702495 0.384871 0.574912
O O10 0.569903 0.325465 0.697831
O O11 0.687039 0.962704 0.138670
O O12 0.677640 0.895573 0.320116
O O13 0.366155 0.102639 0.504143
O O14 0.522733 0.149715 0.838067
#
# Coordination Sequence:
#
# PCOD9456989 Si02
#       8
#     8   8   4   8   8   8   4   8
#     4  10  23  45  74 107 144 191 248 316 361 449
#     4  10  23  43  72 109 147 186 253 312 372 453
#     4  12  28  44  74 106 156 200 248 308 390 456
#     4  10  22  41  69 113 138 184 247 311 377 428
#     4  11  27  46  67 106 146 201 238 301 387 452
#     4  10  25  44  70 105 146 189 245 301 386 448
#     4  12  22  40  72 102 140 196 240 306 372 438
#     4  11  25  46  68 102 144 186 252 303 375 453
#
# _framework density 23.871946999999999
#
# number of rings (size 3 to 8) (size 9 to 14) (size 15 to 20)
#    0.000    1.429    1.429    1.714   10.000    2.286 
#    2.571    3.571    0.000    0.000    0.000    0.000 
#    0.000    0.000    0.000    0.000    0.000    0.000 
#
# Total GULP energy -312796.728076 kJ/mol
# GULP energy per Si atom -5585.655859 kJ/mol
# Density = 2.381761 g / cm^3
# Si number density = 23.871947 Si / 1000 Ang^3
#
#
#
# Elastic Constant Matrix: (Units=GPa)
#
#
# Indices 1 2 3 4 5 6 
#
# 1 83.1698 14.4408 22.7559 0.0000 0.0000 0.0000
# 2 14.4408 48.8613 22.8606 0.0000 0.0000 0.0000
# 3 22.7559 22.8606 146.4004 0.0000 0.0000 0.0000
# 4 0.0000 0.0000 0.0000 31.9621 0.0000 0.0000
# 5 0.0000 0.0000 0.0000 0.0000 41.5228 0.0000
# 6 0.0000 0.0000 0.0000 0.0000 0.0000 19.8627
#
#
#
# Elastic Compliance Matrix: (Units=1/GPa)
#
#
# Indices 1 2 3 4 5 6 
#
# 1 0.012984 -0.003121 -0.001531 0.000000 0.000000 0.000000
# 2 -0.003121 0.022829 -0.003080 0.000000 0.000000 0.000000
# 3 -0.001531 -0.003080 0.007549 0.000000 0.000000 0.000000
# 4 0.000000 0.000000 0.000000 0.031287 0.000000 0.000000
# 5 0.000000 0.000000 0.000000 0.000000 0.024083 0.000000
# 6 0.000000 0.000000 0.000000 0.000000 0.000000 0.050346
#
#
# Mechanical properties :
#
#
# Convention : Reuss Voigt Hill
#
# Bulk Modulus (GPa) = 35.84271 44.28289 40.06280
# Shear Modulus (GPa) = 28.76163 33.22779 30.99471
#
# Velocity S-wave (km/s) = 3.47483 3.73489 3.60720
# Velocity P-wave (km/s) = 5.58090 6.09833 5.84534
#
# Compressibility (1/GPa) = 0.02789968
#
# Stress axis : x y z
#
# Youngs Moduli (GPa) = 77.01551 43.80302 132.46031
#
# Poissons Ratio (x) = 0.13672 0.20278
# Poissons Ratio (y) = 0.24039 0.40794
# Poissons Ratio (z) = 0.11790 0.13490
#
# Static dielectric constant tensor:
#      x y z
#    x 2.154520 0.000000 0.000000 
#    y 0.000000 1.946750 0.000000 
#    z 0.000000 0.000000 1.936690 
# 
# From -- ./inp_files/16891.got.cif
#   From: 2010.05.17/outbox.cif.g08.bks.cpg/sg60_9_cif.got.tgz:16891.got - 2010.06.03 14:59:27.
