data_PCOD9456761
_publ_section_title
;
Structure prediction by ZEFSAII (Michael W. Deem and Ramdas Pophale) SiO2 
 PCOD9456761
Probable space group: P B C N
;
_chemical_formula_sum "Si O2"
_cell_formula_units_Z 48
_cell_length_a 7.997404
_cell_length_b 17.790521
_cell_length_c 15.868472
_cell_angle_alpha 90.000000
_cell_angle_beta 90.000000
_cell_angle_gamma 90.000000
_cell_volume 2257.734202
_symmetry_space_group_name_H-M "P B C N"
_symmetry_group_IT_number 60
_symmetry_cell_setting 'orthorhombic'
loop_
_space_group_symop_operation_xyz
x,y,z
1/2-x,1/2-y,1/2+z
1/2+x,1/2-y,-z
-x,y,1/2-z
-x,-y,-z
1/2+x,1/2+y,1/2-z
1/2-x,1/2+y,z
x,-y,1/2+z
loop_
_atom_site_type_symbol
_atom_site_label
_atom_site_fract_x
_atom_site_fract_y
_atom_site_fract_z
Si Si1 0.432290 0.051131 0.923660
Si Si2 0.067640 0.317982 0.540300
Si Si3 0.798463 0.205038 0.087842
Si Si4 0.083469 0.029922 0.414871
Si Si5 0.000000 0.222583 0.250000
Si Si6 0.283129 0.405732 0.674746
Si Si7 0.500000 0.989382 0.750000
O O1 0.241271 0.025700 0.904852
O O2 0.519268 0.035934 0.834887
O O3 0.471502 0.133109 0.957530
O O4 0.500000 0.000000 0.000000
O O5 0.157898 0.245833 0.500705
O O6 0.178570 0.376568 0.594416
O O7 0.902821 0.296239 0.592140
O O8 0.855657 0.117331 0.081812
O O9 0.890891 0.247299 0.166761
O O10 0.929882 0.036016 0.348790
O O11 0.000000 0.000000 0.500000
O O12 0.135495 0.169984 0.206474
O O13 0.162764 0.437152 0.746832
#
# Coordination Sequence:
#
# PCOD9456761 Si02
#       7
#     8   8   8   8   4   8   4
#     4  12  23  42  65  99 130 173 223 279 331 398
#     4  12  24  43  66  98 134 178 223 273 345 400
#     4  11  24  40  66  94 132 176 222 277 335 402
#     4  11  20  38  66  96 127 169 226 276 329 397
#     4  10  22  39  62  96 127 174 226 276 320 413
#     4  11  21  38  66  96 129 175 224 274 333 407
#     4  12  22  39  66  98 133 180 220 282 330 397
#
# _framework density 21.260254
#
# number of rings (size 3 to 8) (size 9 to 14) (size 15 to 20)
#    0.000    0.667    5.000    5.000    0.000    0.667 
#    0.000    0.000    0.000    2.000    0.000    0.000 
#    0.000    0.000    0.000    0.000    0.000    0.000 
#
# Total GULP energy -267441.473167 kJ/mol
# GULP energy per Si atom -5571.697358 kJ/mol
# Density = 2.121187 g / cm^3
# Si number density = 21.260254 Si / 1000 Ang^3
#
#
#
# Elastic Constant Matrix: (Units=GPa)
#
#
# Indices 1 2 3 4 5 6 
#
# 1 94.0893 -1.2464 18.2869 0.0000 0.0000 0.0000
# 2 -1.2464 26.0316 7.1846 0.0000 0.0000 0.0000
# 3 18.2869 7.1846 105.7190 0.0000 0.0000 0.0000
# 4 0.0000 0.0000 0.0000 32.4622 0.0000 0.0000
# 5 0.0000 0.0000 0.0000 0.0000 39.1255 0.0000
# 6 0.0000 0.0000 0.0000 0.0000 0.0000 16.3893
#
#
#
# Elastic Compliance Matrix: (Units=1/GPa)
#
#
# Indices 1 2 3 4 5 6 
#
# 1 0.011027 0.001075 -0.001981 0.000000 0.000000 0.000000
# 2 0.001075 0.039254 -0.002854 0.000000 0.000000 0.000000
# 3 -0.001981 -0.002854 0.009996 0.000000 0.000000 0.000000
# 4 0.000000 0.000000 0.000000 0.030805 0.000000 0.000000
# 5 0.000000 0.000000 0.000000 0.000000 0.025559 0.000000
# 6 0.000000 0.000000 0.000000 0.000000 0.000000 0.061015
#
#
# Mechanical properties :
#
#
# Convention : Reuss Voigt Hill
#
# Bulk Modulus (GPa) = 18.95450 30.47668 24.71559
# Shear Modulus (GPa) = 24.65956 31.03637 27.84797
#
# Velocity S-wave (km/s) = 3.40941 3.82492 3.62313
# Velocity P-wave (km/s) = 4.94304 5.82004 5.39937
#
# Compressibility (1/GPa) = 0.05275791
#
# Stress axis : x y z
#
# Youngs Moduli (GPa) = 90.68350 25.47515 100.04455
#
# Poissons Ratio (x) = -0.02738 0.19814
# Poissons Ratio (y) = -0.09745 0.28548
# Poissons Ratio (z) = 0.17960 0.07270
#
# Static dielectric constant tensor:
#      x y z
#    x 1.889180 0.000000 0.000000 
#    y 0.000000 1.772020 0.000000 
#    z 0.000000 0.000000 1.846330 
# 
# From -- ./inp_files/15068.got.cif
#   From: 2010.05.17/outbox.cif.g08.bks.cpg/sg60_8_cif.got.tgz:15068.got - 2010.06.03 14:59:27.
