data_PCOD9456523
_publ_section_title
;
Structure prediction by ZEFSAII (Michael W. Deem and Ramdas Pophale) SiO2 
 PCOD9456523
Probable space group: P B C N
;
_chemical_formula_sum "Si O2"
_cell_formula_units_Z 60
_cell_length_a 11.592879
_cell_length_b 14.613624
_cell_length_c 17.131104
_cell_angle_alpha 90.000000
_cell_angle_beta 90.000000
_cell_angle_gamma 90.000000
_cell_volume 2902.248421
_symmetry_space_group_name_H-M "P B C N"
_symmetry_group_IT_number 60
_symmetry_cell_setting 'orthorhombic'
loop_
_space_group_symop_operation_xyz
x,y,z
1/2-x,1/2-y,1/2+z
1/2+x,1/2-y,-z
-x,y,1/2-z
-x,-y,-z
1/2+x,1/2+y,1/2-z
1/2-x,1/2+y,z
x,-y,1/2+z
loop_
_atom_site_type_symbol
_atom_site_label
_atom_site_fract_x
_atom_site_fract_y
_atom_site_fract_z
Si Si1 0.046656 0.886545 0.432208
Si Si2 0.550618 0.973767 0.584549
Si Si3 0.724994 0.132323 0.282181
Si Si4 0.089607 0.295227 0.580301
Si Si5 0.296391 0.130904 0.926472
Si Si6 0.500000 0.020345 0.250000
Si Si7 0.926744 0.935405 0.888862
Si Si8 0.081678 0.227014 0.318610
O O1 0.167239 0.851574 0.398604
O O2 0.085281 0.922524 0.517917
O O3 0.958052 0.803621 0.440663
O O4 0.990316 0.967431 0.382229
O O5 0.517325 0.866732 0.589683
O O6 0.491195 0.018349 0.661808
O O7 0.500000 0.000000 0.500000
O O8 0.674731 0.022900 0.582081
O O9 0.661227 0.203263 0.339806
O O10 0.620792 0.075551 0.244337
O O11 0.809938 0.072631 0.338327
O O12 0.806238 0.180873 0.219936
O O13 0.173456 0.335443 0.513690
O O14 0.381035 0.192828 0.875285
O O15 0.008349 0.853135 0.859677
O O16 0.000000 0.263992 0.250000
#
# Coordination Sequence:
#
# PCOD9456523 Si02
#       8
#     8   8   8   8   8   4   8   8
#     4  11  23  39  69  97 129 166 230 271 337 402
#     4   9  22  41  64  94 130 166 220 274 335 388
#     4  10  22  43  63  92 133 176 216 275 332 395
#     4  10  21  44  64  96 128 169 219 277 321 396
#     4  11  22  39  66  97 124 170 222 273 327 396
#     4  10  22  40  70  90 130 174 224 278 336 382
#     4  10  22  44  63  97 134 175 214 275 337 404
#     4  10  23  42  65  91 136 174 212 264 337 394
#
# _framework density 20.673627
#
# number of rings (size 3 to 8) (size 9 to 14) (size 15 to 20)
#    0.000    1.867    2.667    0.000    6.533    0.000 
#    2.400    1.333    0.000    0.000    0.000    0.000 
#    0.000    0.000    0.000    0.000    0.000    0.000 
#
# Total GULP energy -334371.000492 kJ/mol
# GULP energy per Si atom -5572.850008 kJ/mol
# Density = 2.062657 g / cm^3
# Si number density = 20.673627 Si / 1000 Ang^3
#
#
#
# Elastic Constant Matrix: (Units=GPa)
#
#
# Indices 1 2 3 4 5 6 
#
# 1 100.6306 25.7527 5.6473 0.0000 0.0000 0.0000
# 2 25.7527 63.9026 -0.4283 0.0000 0.0000 0.0000
# 3 5.6473 -0.4283 81.3342 0.0000 0.0000 0.0000
# 4 0.0000 0.0000 0.0000 16.0315 0.0000 0.0000
# 5 0.0000 0.0000 0.0000 0.0000 27.3680 0.0000
# 6 0.0000 0.0000 0.0000 0.0000 0.0000 25.8853
#
#
#
# Elastic Compliance Matrix: (Units=1/GPa)
#
#
# Indices 1 2 3 4 5 6 
#
# 1 0.011131 -0.004491 -0.000797 0.000000 0.000000 0.000000
# 2 -0.004491 0.017462 0.000404 0.000000 0.000000 0.000000
# 3 -0.000797 0.000404 0.012352 0.000000 0.000000 0.000000
# 4 0.000000 0.000000 0.000000 0.062377 0.000000 0.000000
# 5 0.000000 0.000000 0.000000 0.000000 0.036539 0.000000
# 6 0.000000 0.000000 0.000000 0.000000 0.000000 0.038632
#
#
# Mechanical properties :
#
#
# Convention : Reuss Voigt Hill
#
# Bulk Modulus (GPa) = 32.07470 34.20122 33.13796
# Shear Modulus (GPa) = 25.16941 28.18335 26.67638
#
# Velocity S-wave (km/s) = 3.49300 3.69623 3.59605
# Velocity P-wave (km/s) = 5.64062 5.89877 5.77114
#
# Compressibility (1/GPa) = 0.03117722
#
# Stress axis : x y z
#
# Youngs Moduli (GPa) = 89.83581 57.26882 80.95600
#
# Poissons Ratio (x) = 0.25721 0.06449
# Poissons Ratio (y) = 0.40348 -0.03269
# Poissons Ratio (z) = 0.07156 -0.02312
#
# Static dielectric constant tensor:
#      x y z
#    x 1.762230 0.000000 0.000000 
#    y 0.000000 1.733830 0.000000 
#    z 0.000000 0.000000 1.715220 
# 
# From -- ./inp_files/20167.got.cif
#   From: 2010.05.17/outbox.cif.g08.bks.cpg/sg60_11_cif.got.tgz:20167.got - 2010.06.03 14:59:27.
