data_PCOD9456545
_publ_section_title
;
Structure prediction by ZEFSAII (Michael W. Deem and Ramdas Pophale) SiO2 
 PCOD9456545
Probable space group: P B C N
;
_chemical_formula_sum "Si O2"
_cell_formula_units_Z 40
_cell_length_a 5.715939
_cell_length_b 9.168136
_cell_length_c 29.070686
_cell_angle_alpha 90.000000
_cell_angle_beta 90.000000
_cell_angle_gamma 90.000000
_cell_volume 1523.434942
_symmetry_space_group_name_H-M "P B C N"
_symmetry_group_IT_number 60
_symmetry_cell_setting 'orthorhombic'
loop_
_space_group_symop_operation_xyz
x,y,z
1/2-x,1/2-y,1/2+z
1/2+x,1/2-y,-z
-x,y,1/2-z
-x,-y,-z
1/2+x,1/2+y,1/2-z
1/2-x,1/2+y,z
x,-y,1/2+z
loop_
_atom_site_type_symbol
_atom_site_label
_atom_site_fract_x
_atom_site_fract_y
_atom_site_fract_z
Si Si1 0.154935 0.472211 0.582769
Si Si2 0.445298 0.253402 0.526149
Si Si3 0.000000 0.801605 0.750000
Si Si4 0.640752 0.783172 0.646626
Si Si5 0.975950 0.978071 0.840791
Si Si6 0.000000 0.273020 0.750000
O O1 0.361378 0.399171 0.552882
O O2 0.037224 0.603299 0.555565
O O3 0.257758 0.532114 0.630705
O O4 0.002709 0.338483 0.602786
O O5 0.704285 0.273203 0.504137
O O6 0.046545 0.916991 0.709568
O O7 0.762668 0.707293 0.752650
O O8 0.649335 0.612165 0.654234
O O9 0.540417 0.838248 0.697267
O O10 0.898187 0.840066 0.637254
#
# Coordination Sequence:
#
# PCOD9456545 Si02
#       6
#     8   8   4   8   8   4
#     4  12  26  46  78 106 150 192 248 306 374 448
#     4  12  30  52  78 108 144 188 246 316 390 452
#     4  10  21  44  69 108 153 202 249 300 357 420
#     4  11  25  44  71 108 152 200 250 300 359 437
#     4  11  25  44  71 108 152 200 250 300 359 437
#     4  10  21  44  69 108 153 202 249 300 357 420
#
# _framework density 26.256454999999999
#
# number of rings (size 3 to 8) (size 9 to 14) (size 15 to 20)
#    0.000    0.800    4.000    1.800    8.400    0.000 
#    0.000    5.000    0.000    0.000    0.000    0.000 
#    0.000    0.000    0.000    0.000    0.000    0.000 
#
# Total GULP energy -222741.283826 kJ/mol
# GULP energy per Si atom -5568.532096 kJ/mol
# Density = 2.619669 g / cm^3
# Si number density = 26.256455 Si / 1000 Ang^3
#
#
#
# Elastic Constant Matrix: (Units=GPa)
#
#
# Indices 1 2 3 4 5 6 
#
# 1 115.4433 -12.8554 28.6988 0.0000 0.0000 0.0000
# 2 -12.8554 77.2265 -5.7438 0.0000 0.0000 0.0000
# 3 28.6988 -5.7438 75.0858 0.0000 0.0000 0.0000
# 4 0.0000 0.0000 0.0000 27.6651 0.0000 0.0000
# 5 0.0000 0.0000 0.0000 0.0000 47.9341 0.0000
# 6 0.0000 0.0000 0.0000 0.0000 0.0000 -1.3365
#
#
#
# Elastic Compliance Matrix: (Units=1/GPa)
#
#
# Indices 1 2 3 4 5 6 
#
# 1 0.009709 0.001348 -0.003608 0.000000 0.000000 0.000000
# 2 0.001348 0.013210 0.000495 0.000000 0.000000 0.000000
# 3 -0.003608 0.000495 0.014735 0.000000 0.000000 0.000000
# 4 0.000000 0.000000 0.000000 0.036147 0.000000 0.000000
# 5 0.000000 0.000000 0.000000 0.000000 0.020862 0.000000
# 6 0.000000 0.000000 0.000000 0.000000 0.000000 -0.748234
#
#
# Mechanical properties :
#
#
# Convention : Reuss Voigt Hill
#
# Bulk Modulus (GPa) = 29.30397 31.99497 30.64947
# Shear Modulus (GPa) = -7.82881 32.02962 12.10040
#
# Velocity S-wave (km/s) = -1.72863 3.49646 2.14908
# Velocity P-wave (km/s) = 2.68341 5.33969 4.22570
#
# Compressibility (1/GPa) = 0.03412507
#
# Stress axis : x y z
#
# Youngs Moduli (GPa) = 102.99434 75.69944 67.86575
#
# Poissons Ratio (x) = -0.10204 0.24485
# Poissons Ratio (y) = -0.13883 -0.03362
# Poissons Ratio (z) = 0.37159 -0.03750
#
# Static dielectric constant tensor:
#      x y z
#    x 2.148340 0.000000 0.000000 
#    y 0.000000 1.976150 0.000000 
#    z 0.000000 0.000000 2.219580 
# 
# From -- ./inp_files/24776.got.cif
#   From: 2010.05.17/outbox.cif.g08.bks.cpg/sg60_13_cif.got.tgz:24776.got - 2010.06.03 14:59:27.
