data_PCOD9456127
_publ_section_title
;
Structure prediction by ZEFSAII (Michael W. Deem and Ramdas Pophale) SiO2 
 PCOD9456127
Probable space group: P B C N
;
_chemical_formula_sum "Si O2"
_cell_formula_units_Z 56
_cell_length_a 18.229505
_cell_length_b 10.856461
_cell_length_c 10.496305
_cell_angle_alpha 90.000000
_cell_angle_beta 90.000000
_cell_angle_gamma 90.000000
_cell_volume 2077.301786
_symmetry_space_group_name_H-M "P B C N"
_symmetry_group_IT_number 60
_symmetry_cell_setting 'orthorhombic'
loop_
_space_group_symop_operation_xyz
x,y,z
1/2-x,1/2-y,1/2+z
1/2+x,1/2-y,-z
-x,y,1/2-z
-x,-y,-z
1/2+x,1/2+y,1/2-z
1/2-x,1/2+y,z
x,-y,1/2+z
loop_
_atom_site_type_symbol
_atom_site_label
_atom_site_fract_x
_atom_site_fract_y
_atom_site_fract_z
Si Si1 0.204657 0.512851 0.995199
Si Si2 0.706561 0.776457 0.192749
Si Si3 0.365003 0.771187 0.894706
Si Si4 0.858689 0.082805 0.396408
Si Si5 0.500000 0.477039 0.750000
Si Si6 0.075548 0.210550 0.426903
Si Si7 0.576254 0.874241 0.851110
Si Si8 0.000000 0.404063 0.250000
O O1 0.286349 0.515391 0.051299
O O2 0.155415 0.590636 0.092765
O O3 0.198778 0.581038 0.856249
O O4 0.166331 0.381781 0.980728
O O5 0.793458 0.765070 0.186992
O O6 0.672867 0.695988 0.308418
O O7 0.663183 0.704116 0.079499
O O8 0.420417 0.825974 0.792323
O O9 0.390503 0.658214 0.981973
O O10 0.919026 0.998170 0.322336
O O11 0.464709 0.405322 0.870067
O O12 0.048525 0.267128 0.557104
O O13 0.056386 0.316125 0.321327
O O14 0.535240 0.004599 0.851668
#
# Coordination Sequence:
#
# PCOD9456127 Si02
#       8
#     8   8   8   8   4   8   8   4
#     4  10  22  36  56  88 118 155 207 247 301 361
#     4   9  19  39  55  81 115 157 199 245 296 355
#     4  11  23  34  61  88 122 160 198 257 304 355
#     4  10  21  39  61  85 120 160 203 250 306 366
#     4   9  20  36  64  80 113 164 204 243 306 356
#     4   9  20  35  53  78 118 157 196 231 288 367
#     4  11  21  34  51  86 126 153 189 239 301 364
#     4  11  22  32  52  86 123 160 190 237 300 362
#
# _framework density 26.958048999999999
#
# number of rings (size 3 to 8) (size 9 to 14) (size 15 to 20)
#    0.000    2.000    1.429    2.143   10.000    0.000 
#    0.000    0.000    0.000    3.429    0.000    4.000 
#    0.000    0.000    0.000    0.000    0.000    0.000 
#
# Total GULP energy -312493.383925 kJ/mol
# GULP energy per Si atom -5580.238999 kJ/mol
# Density = 2.689669 g / cm^3
# Si number density = 26.958049 Si / 1000 Ang^3
#
#
#
# Elastic Constant Matrix: (Units=GPa)
#
#
# Indices 1 2 3 4 5 6 
#
# 1 94.8696 20.5687 14.1689 0.0000 0.0000 0.0000
# 2 20.5687 70.1072 52.6860 0.0000 0.0000 0.0000
# 3 14.1689 52.6860 98.5043 0.0000 0.0000 0.0000
# 4 0.0000 0.0000 0.0000 16.5254 0.0000 0.0000
# 5 0.0000 0.0000 0.0000 0.0000 39.7568 0.0000
# 6 0.0000 0.0000 0.0000 0.0000 0.0000 135.5088
#
#
#
# Elastic Compliance Matrix: (Units=1/GPa)
#
#
# Indices 1 2 3 4 5 6 
#
# 1 0.011260 -0.003489 0.000246 0.000000 0.000000 0.000000
# 2 -0.003489 0.024932 -0.012833 0.000000 0.000000 0.000000
# 3 0.000246 -0.012833 0.016980 0.000000 0.000000 0.000000
# 4 0.000000 0.000000 0.000000 0.060513 0.000000 0.000000
# 5 0.000000 0.000000 0.000000 0.000000 0.025153 0.000000
# 6 0.000000 0.000000 0.000000 0.000000 0.000000 0.007380
#
#
# Mechanical properties :
#
#
# Convention : Reuss Voigt Hill
#
# Bulk Modulus (GPa) = 47.57103 48.70313 48.13708
# Shear Modulus (GPa) = 26.97221 50.09537 38.53379
#
# Velocity S-wave (km/s) = 3.16654 4.31544 3.78484
# Velocity P-wave (km/s) = 5.57260 6.55257 6.08236
#
# Compressibility (1/GPa) = 0.02102120
#
# Stress axis : x y z
#
# Youngs Moduli (GPa) = 88.80677 40.10977 58.89173
#
# Poissons Ratio (x) = 0.13993 -0.01451
# Poissons Ratio (y) = 0.30983 0.75576
# Poissons Ratio (z) = -0.02187 0.51473
#
# Static dielectric constant tensor:
#      x y z
#    x 2.171950 0.000000 0.000000 
#    y 0.000000 2.096720 0.000000 
#    z 0.000000 0.000000 2.117100 
# 
# From -- ./inp_files/12859.got.cif
#   From: 2010.05.17/outbox.cif.g08.bks.cpg/sg60_7_cif.got.tgz:12859.got - 2010.06.03 14:59:27.
