data_PCOD9456460
_publ_section_title
;
Structure prediction by ZEFSAII (Michael W. Deem and Ramdas Pophale) SiO2 
 PCOD9456460
Probable space group: P B C N
;
_chemical_formula_sum "Si O2"
_cell_formula_units_Z 56
_cell_length_a 29.615204
_cell_length_b 5.348032
_cell_length_c 14.284311
_cell_angle_alpha 90.000000
_cell_angle_beta 90.000000
_cell_angle_gamma 90.000000
_cell_volume 2262.392867
_symmetry_space_group_name_H-M "P B C N"
_symmetry_group_IT_number 60
_symmetry_cell_setting 'orthorhombic'
loop_
_space_group_symop_operation_xyz
x,y,z
1/2-x,1/2-y,1/2+z
1/2+x,1/2-y,-z
-x,y,1/2-z
-x,-y,-z
1/2+x,1/2+y,1/2-z
1/2-x,1/2+y,z
x,-y,1/2+z
loop_
_atom_site_type_symbol
_atom_site_label
_atom_site_fract_x
_atom_site_fract_y
_atom_site_fract_z
Si Si1 0.137139 0.731136 0.562808
Si Si2 0.448785 0.406634 0.597438
Si Si3 0.363746 0.740595 0.682881
Si Si4 0.963051 0.691589 0.538588
Si Si5 0.730053 0.642168 0.737248
Si Si6 0.770487 0.137895 0.518065
Si Si7 0.947427 0.480905 0.236007
O O1 0.084635 0.734953 0.532219
O O2 0.146644 0.470395 0.613158
O O3 0.177197 0.791668 0.492700
O O4 0.135707 0.971014 0.632729
O O5 0.439136 0.676904 0.549151
O O6 0.502888 0.395115 0.586339
O O7 0.442752 0.262782 0.696704
O O8 0.321550 0.722701 0.752355
O O9 0.410783 0.814675 0.732239
O O10 0.937402 0.591379 0.629084
O O11 0.000000 0.500000 0.500000
O O12 0.739741 0.367338 0.777882
O O13 0.741317 0.616427 0.627560
O O14 0.741330 0.366686 0.477097
O O15 0.000000 0.564409 0.250000
#
# Coordination Sequence:
#
# PCOD9456460 Si02
#       7
#     8   8   8   8   8   8   8
#     4  11  24  41  66  94 135 170 221 281 330 419
#     4   9  22  42  60  95 135 168 229 287 346 412
#     4  11  24  43  64 102 130 181 227 274 358 406
#     4  10  21  42  67  97 126 182 236 278 356 423
#     4  10  22  42  66  94 134 171 220 283 334 409
#     4  10  22  42  64  96 129 176 218 272 346 399
#     4   9  21  44  64  98 139 180 230 297 356 421
#
# _framework density 24.752552000000001
#
# number of rings (size 3 to 8) (size 9 to 14) (size 15 to 20)
#    0.000    2.000    0.000    1.714    6.000    4.571 
#   30.857    0.000    0.000    0.000    0.000    0.000 
#    0.000    0.000    0.000    0.000    0.000    0.000 
#
# Total GULP energy -312506.288165 kJ/mol
# GULP energy per Si atom -5580.469432 kJ/mol
# Density = 2.469621 g / cm^3
# Si number density = 24.752552 Si / 1000 Ang^3
#
#
#
# Elastic Constant Matrix: (Units=GPa)
#
#
# Indices 1 2 3 4 5 6 
#
# 1 88.5101 21.4889 2.4109 0.0000 0.0000 0.0000
# 2 21.4889 146.4211 43.1116 0.0000 0.0000 0.0000
# 3 2.4109 43.1116 93.7554 0.0000 0.0000 0.0000
# 4 0.0000 0.0000 0.0000 33.8309 0.0000 0.0000
# 5 0.0000 0.0000 0.0000 0.0000 37.8189 0.0000
# 6 0.0000 0.0000 0.0000 0.0000 0.0000 31.6742
#
#
#
# Elastic Compliance Matrix: (Units=1/GPa)
#
#
# Indices 1 2 3 4 5 6 
#
# 1 0.011742 -0.001890 0.000567 0.000000 0.000000 0.000000
# 2 -0.001890 0.008203 -0.003724 0.000000 0.000000 0.000000
# 3 0.000567 -0.003724 0.012364 0.000000 0.000000 0.000000
# 4 0.000000 0.000000 0.000000 0.029559 0.000000 0.000000
# 5 0.000000 0.000000 0.000000 0.000000 0.026442 0.000000
# 6 0.000000 0.000000 0.000000 0.000000 0.000000 0.031571
#
#
# Mechanical properties :
#
#
# Convention : Reuss Voigt Hill
#
# Bulk Modulus (GPa) = 45.01344 51.41216 48.21280
# Shear Modulus (GPa) = 36.39564 38.10977 37.25270
#
# Velocity S-wave (km/s) = 3.83871 3.92807 3.88365
# Velocity P-wave (km/s) = 6.15406 6.43339 6.29527
#
# Compressibility (1/GPa) = 0.02221559
#
# Stress axis : x y z
#
# Youngs Moduli (GPa) = 85.16713 121.90093 80.88207
#
# Poissons Ratio (x) = 0.23042 -0.04588
# Poissons Ratio (y) = 0.16099 0.30117
# Poissons Ratio (z) = -0.04831 0.45391
#
# Static dielectric constant tensor:
#      x y z
#    x 2.170780 0.000000 0.000000 
#    y 0.000000 2.114340 0.000000 
#    z 0.000000 0.000000 2.040750 
# 
# From -- ./inp_files/18152.got.cif
#   From: 2010.05.17/outbox.cif.g08.bks.cpg/sg60_10_cif.got.tgz:18152.got - 2010.06.03 14:59:27.
