data_PCOD9456603
_publ_section_title
;
Structure prediction by ZEFSAII (Michael W. Deem and Ramdas Pophale) SiO2 
 PCOD9456603
Probable space group: P B C N
;
_chemical_formula_sum "Si O2"
_cell_formula_units_Z 64
_cell_length_a 8.930230
_cell_length_b 17.924417
_cell_length_c 18.842437
_cell_angle_alpha 90.000000
_cell_angle_beta 90.000000
_cell_angle_gamma 90.000000
_cell_volume 3016.093184
_symmetry_space_group_name_H-M "P B C N"
_symmetry_group_IT_number 60
_symmetry_cell_setting 'orthorhombic'
loop_
_space_group_symop_operation_xyz
x,y,z
1/2-x,1/2-y,1/2+z
1/2+x,1/2-y,-z
-x,y,1/2-z
-x,-y,-z
1/2+x,1/2+y,1/2-z
1/2-x,1/2+y,z
x,-y,1/2+z
loop_
_atom_site_type_symbol
_atom_site_label
_atom_site_fract_x
_atom_site_fract_y
_atom_site_fract_z
Si Si1 0.300177 0.059724 0.357117
Si Si2 0.354781 0.693992 0.430372
Si Si3 0.702381 0.152176 0.504389
Si Si4 0.937850 0.951297 0.065987
Si Si5 0.332718 0.586579 0.215496
Si Si6 0.222898 0.125511 0.585122
Si Si7 0.679602 0.279564 0.867621
Si Si8 0.128556 0.472725 0.589431
O O1 0.253045 0.143670 0.381379
O O2 0.276276 0.053550 0.273737
O O3 0.469645 0.041189 0.375165
O O4 0.180067 0.003789 0.393706
O O5 0.339570 0.783161 0.441090
O O6 0.320919 0.658916 0.507943
O O7 0.520557 0.690590 0.397736
O O8 0.857154 0.120164 0.532827
O O9 0.705477 0.192599 0.427991
O O10 0.622735 0.075179 0.483149
O O11 0.072003 0.915599 0.111754
O O12 0.000000 0.000000 0.000000
O O13 0.500000 0.575250 0.250000
O O14 0.306229 0.675357 0.204918
O O15 0.269735 0.554811 0.139780
O O16 0.293783 0.191279 0.632163
O O17 0.339060 0.058784 0.575223
#
# Coordination Sequence:
#
# PCOD9456603 Si02
#       8
#     8   8   8   8   8   8   8   8
#     4  12  25  41  69  96 133 182 229 278 339 415
#     4  11  22  37  63 100 133 176 218 269 348 403
#     4  10  22  35  63  95 142 162 216 277 336 395
#     4  12  21  40  64 101 135 180 222 270 347 415
#     4  11  23  47  72  90 125 183 235 278 332 405
#     4  11  23  40  67  98 143 168 221 280 342 407
#     4  10  22  41  65  97 128 179 220 277 332 404
#     4  11  25  42  65 103 136 177 222 283 344 405
#
# _framework density 21.219504000000001
#
# number of rings (size 3 to 8) (size 9 to 14) (size 15 to 20)
#    0.000    1.000    5.000    1.125    5.250    2.000 
#    0.000    2.500    0.000    7.500    0.000    0.000 
#    0.000    0.000    0.000    0.000    0.000    0.000 
#
# Total GULP energy -356582.963866 kJ/mol
# GULP energy per Si atom -5571.608810 kJ/mol
# Density = 2.117121 g / cm^3
# Si number density = 21.219504 Si / 1000 Ang^3
#
#
#
# Elastic Constant Matrix: (Units=GPa)
#
#
# Indices 1 2 3 4 5 6 
#
# 1 105.5526 37.6751 19.5456 0.0000 0.0000 0.0000
# 2 37.6751 119.6281 24.3255 0.0000 0.0000 0.0000
# 3 19.5456 24.3255 45.3765 0.0000 0.0000 0.0000
# 4 0.0000 0.0000 0.0000 23.9147 0.0000 0.0000
# 5 0.0000 0.0000 0.0000 0.0000 29.1186 0.0000
# 6 0.0000 0.0000 0.0000 0.0000 0.0000 33.6635
#
#
#
# Elastic Compliance Matrix: (Units=1/GPa)
#
#
# Indices 1 2 3 4 5 6 
#
# 1 0.011087 -0.002829 -0.003259 0.000000 0.000000 0.000000
# 2 -0.002829 0.010104 -0.004198 0.000000 0.000000 0.000000
# 3 -0.003259 -0.004198 0.025692 0.000000 0.000000 0.000000
# 4 0.000000 0.000000 0.000000 0.041815 0.000000 0.000000
# 5 0.000000 0.000000 0.000000 0.000000 0.034342 0.000000
# 6 0.000000 0.000000 0.000000 0.000000 0.000000 0.029706
#
#
# Mechanical properties :
#
#
# Convention : Reuss Voigt Hill
#
# Bulk Modulus (GPa) = 38.00689 48.18330 43.09510
# Shear Modulus (GPa) = 27.45911 29.94011 28.69961
#
# Velocity S-wave (km/s) = 3.60119 3.76036 3.68164
# Velocity P-wave (km/s) = 5.93647 6.45059 6.19886
#
# Compressibility (1/GPa) = 0.02631102
#
# Stress axis : x y z
#
# Youngs Moduli (GPa) = 90.19387 98.97253 38.92243
#
# Poissons Ratio (x) = 0.28000 0.12685
# Poissons Ratio (y) = 0.25516 0.16339
# Poissons Ratio (z) = 0.29396 0.41548
#
# Static dielectric constant tensor:
#      x y z
#    x 1.828930 0.000000 0.000000 
#    y 0.000000 1.837520 0.000000 
#    z 0.000000 0.000000 1.900810 
# 
# From -- ./inp_files/22345.got.cif
#   From: 2010.05.17/outbox.cif.g08.bks.cpg/sg60_12_cif.got.tgz:22345.got - 2010.06.03 14:59:27.
