data_PCOD9456392
_publ_section_title
;
Structure prediction by ZEFSAII (Michael W. Deem and Ramdas Pophale) SiO2 
 PCOD9456392
Probable space group: P B C N
;
_chemical_formula_sum "Si O2"
_cell_formula_units_Z 36
_cell_length_a 5.078872
_cell_length_b 27.732903
_cell_length_c 9.469971
_cell_angle_alpha 90.000000
_cell_angle_beta 90.000000
_cell_angle_gamma 90.000000
_cell_volume 1333.863072
_symmetry_space_group_name_H-M "P B C N"
_symmetry_group_IT_number 60
_symmetry_cell_setting 'orthorhombic'
loop_
_space_group_symop_operation_xyz
x,y,z
1/2-x,1/2-y,1/2+z
1/2+x,1/2-y,-z
-x,y,1/2-z
-x,-y,-z
1/2+x,1/2+y,1/2-z
1/2-x,1/2+y,z
x,-y,1/2+z
loop_
_atom_site_type_symbol
_atom_site_label
_atom_site_fract_x
_atom_site_fract_y
_atom_site_fract_z
Si Si1 0.242032 0.420756 0.846803
Si Si2 0.164521 0.780656 0.532913
Si Si3 0.251584 0.624776 0.850051
Si Si4 0.000000 0.669088 0.250000
Si Si5 0.250433 0.978017 0.354129
O O1 0.500000 0.414763 0.750000
O O2 0.138095 0.365862 0.870401
O O3 0.261908 0.470512 0.937427
O O4 0.000000 0.436594 0.750000
O O5 0.377750 0.742100 0.476296
O O6 0.188382 0.828798 0.440959
O O7 0.278381 0.798065 0.681949
O O8 0.500000 0.618516 0.750000
O O9 0.243885 0.573646 0.934574
O O10 0.000000 0.631889 0.750000
O O11 0.500000 0.971616 0.250000
O O12 0.000000 0.981219 0.250000
#
# Coordination Sequence:
#
# PCOD9456392 Si02
#       5
#     8   8   8   4   8
#     4   8  16  32  61  87 125 164 204 259 325 392
#     4  12  29  44  68  96 128 182 230 282 340 381
#     4  10  21  41  67  94 132 169 220 271 329 394
#     4  10  26  44  68  90 138 164 228 274 336 406
#     4   8  14  29  58  90 123 163 203 257 316 395
#
# _framework density 26.989277000000001
#
# number of rings (size 3 to 8) (size 9 to 14) (size 15 to 20)
#    0.667    1.778    0.000    1.333    7.778    0.000 
#    0.000    1.111    0.000    4.000    0.000    0.000 
#    0.000    0.000    0.000    0.000    0.000    0.000 
#
# Total GULP energy -201076.952038 kJ/mol
# GULP energy per Si atom -5585.470890 kJ/mol
# Density = 2.692785 g / cm^3
# Si number density = 26.989277 Si / 1000 Ang^3
#
#
#
# Elastic Constant Matrix: (Units=GPa)
#
#
# Indices 1 2 3 4 5 6 
#
# 1 143.0159 -1.5424 12.3637 0.0000 0.0000 0.0000
# 2 -1.5424 175.1626 42.4390 0.0000 0.0000 0.0000
# 3 12.3637 42.4390 68.3904 0.0000 0.0000 0.0000
# 4 0.0000 0.0000 0.0000 51.4521 0.0000 0.0000
# 5 0.0000 0.0000 0.0000 0.0000 30.9112 0.0000
# 6 0.0000 0.0000 0.0000 0.0000 0.0000 42.7335
#
#
#
# Elastic Compliance Matrix: (Units=1/GPa)
#
#
# Indices 1 2 3 4 5 6 
#
# 1 0.007132 0.000442 -0.001563 0.000000 0.000000 0.000000
# 2 0.000442 0.006747 -0.004266 0.000000 0.000000 0.000000
# 3 -0.001563 -0.004266 0.017552 0.000000 0.000000 0.000000
# 4 0.000000 0.000000 0.000000 0.019436 0.000000 0.000000
# 5 0.000000 0.000000 0.000000 0.000000 0.032351 0.000000
# 6 0.000000 0.000000 0.000000 0.000000 0.000000 0.023401
#
#
# Mechanical properties :
#
#
# Convention : Reuss Voigt Hill
#
# Bulk Modulus (GPa) = 48.41577 54.78771 51.60174
# Shear Modulus (GPa) = 40.23211 47.23993 43.73602
#
# Velocity S-wave (km/s) = 3.86511 4.18822 4.02991
# Velocity P-wave (km/s) = 6.15602 6.61303 6.38861
#
# Compressibility (1/GPa) = 0.02065443
#
# Stress axis : x y z
#
# Youngs Moduli (GPa) = 140.21030 148.22438 56.97363
#
# Poissons Ratio (x) = -0.06545 0.08907
# Poissons Ratio (y) = -0.06191 0.24307
# Poissons Ratio (z) = 0.21920 0.63237
#
# Static dielectric constant tensor:
#      x y z
#    x 2.077620 0.000000 0.000000 
#    y 0.000000 2.255600 0.000000 
#    z 0.000000 0.000000 2.177940 
# 
# From -- ./inp_files/9175.got.cif
#   From: 2010.05.17/outbox.cif.g08.bks.cpg/sg60_5_cif.got.tgz:9175.got - 2010.06.03 14:59:27.
