data_PCOD9456860
_publ_section_title
;
Structure prediction by ZEFSAII (Michael W. Deem and Ramdas Pophale) SiO2 
 PCOD9456860
Probable space group: P B C N
;
_chemical_formula_sum "Si O2"
_cell_formula_units_Z 44
_cell_length_a 22.236020
_cell_length_b 18.330586
_cell_length_c 4.945978
_cell_angle_alpha 90.000000
_cell_angle_beta 90.000000
_cell_angle_gamma 90.000000
_cell_volume 2015.977056
_symmetry_space_group_name_H-M "P B C N"
_symmetry_group_IT_number 60
_symmetry_cell_setting 'orthorhombic'
loop_
_space_group_symop_operation_xyz
x,y,z
1/2-x,1/2-y,1/2+z
1/2+x,1/2-y,-z
-x,y,1/2-z
-x,-y,-z
1/2+x,1/2+y,1/2-z
1/2-x,1/2+y,z
x,-y,1/2+z
loop_
_atom_site_type_symbol
_atom_site_label
_atom_site_fract_x
_atom_site_fract_y
_atom_site_fract_z
Si Si1 0.500000 0.582174 0.750000
Si Si2 0.632341 0.458941 0.415575
Si Si3 0.445193 0.179132 0.475923
Si Si4 0.689801 0.319864 0.710783
Si Si5 0.821065 0.280517 0.719708
Si Si6 0.000000 0.190700 0.250000
Si Si7 0.000000 0.447098 0.250000
O O1 0.439655 0.540371 0.654700
O O2 0.507188 0.636657 0.499593
O O3 0.654900 0.523718 0.613750
O O4 0.651204 0.385610 0.576187
O O5 0.500000 0.180636 0.250000
O O6 0.382731 0.178876 0.327008
O O7 0.449224 0.250202 0.669713
O O8 0.448610 0.110458 0.674002
O O9 0.761912 0.329755 0.677976
O O10 0.678712 0.250517 0.519958
O O11 0.680048 0.290109 0.015404
O O12 0.000000 0.500000 0.500000
#
# Coordination Sequence:
#
# PCOD9456860 Si02
#       7
#     4   8   8   8   8   4   4
#     4  12  22  38  58  88 124 166 202 248 304 358
#     4  12  24  39  59  84 124 165 208 243 291 363
#     4  11  23  38  64  97 125 155 204 268 315 381
#     4  10  22  42  63  89 123 163 203 260 311 375
#     4  10  22  40  66  93 119 154 207 262 328 362
#     4  11  22  35  58  93 126 151 198 252 314 359
#     4  11  24  41  58  83 128 169 196 240 318 385
#
# _framework density 21.825642999999999
#
# number of rings (size 3 to 8) (size 9 to 14) (size 15 to 20)
#    0.000    1.091    1.818    4.909    5.091    0.000 
#    0.000    1.818    0.000    0.000    0.000    0.000 
#    0.000    0.000    0.000    0.000    0.000    0.000 
#
# Total GULP energy -245068.178379 kJ/mol
# GULP energy per Si atom -5569.731327 kJ/mol
# Density = 2.177597 g / cm^3
# Si number density = 21.825643 Si / 1000 Ang^3
#
#
#
# Elastic Constant Matrix: (Units=GPa)
#
#
# Indices 1 2 3 4 5 6 
#
# 1 98.3150 -10.1535 0.4404 0.0000 0.0000 0.0000
# 2 -10.1535 58.6340 28.7452 0.0000 0.0000 0.0000
# 3 0.4404 28.7452 118.7543 0.0000 0.0000 0.0000
# 4 0.0000 0.0000 0.0000 -115.5038 0.0000 0.0000
# 5 0.0000 0.0000 0.0000 0.0000 27.2931 0.0000
# 6 0.0000 0.0000 0.0000 0.0000 0.0000 7.8734
#
#
#
# Elastic Compliance Matrix: (Units=1/GPa)
#
#
# Indices 1 2 3 4 5 6 
#
# 1 0.010387 0.002062 -0.000538 0.000000 0.000000 0.000000
# 2 0.002062 0.019761 -0.004791 0.000000 0.000000 0.000000
# 3 -0.000538 -0.004791 0.009582 0.000000 0.000000 0.000000
# 4 0.000000 0.000000 0.000000 -0.008658 0.000000 0.000000
# 5 0.000000 0.000000 0.000000 0.000000 0.036639 0.000000
# 6 0.000000 0.000000 0.000000 0.000000 0.000000 0.127009
#
#
# Mechanical properties :
#
#
# Convention : Reuss Voigt Hill
#
# Bulk Modulus (GPa) = 30.12290 34.86305 32.49297
# Shear Modulus (GPa) = 23.54944 1.04398 12.29671
#
# Velocity S-wave (km/s) = 3.28835 0.69236 2.37619
# Velocity P-wave (km/s) = 5.31500 4.08011 4.73796
#
# Compressibility (1/GPa) = 0.03319734
#
# Stress axis : x y z
#
# Youngs Moduli (GPa) = 96.27631 50.60532 104.35807
#
# Poissons Ratio (x) = -0.10436 0.05611
# Poissons Ratio (y) = -0.19855 0.49996
# Poissons Ratio (z) = 0.05177 0.24244
#
# Static dielectric constant tensor:
#      x y z
#    x 1.872200 0.000000 0.000000 
#    y 0.000000 1.844210 0.000000 
#    z 0.000000 0.000000 1.820530 
# 
# From -- ./inp_files/2332.got.cif
#   From: 2010.05.17/outbox.cif.g08.bks.cpg/sg60_2_cif.got.tgz:2332.got - 2010.06.03 14:59:27.
