data_PCOD9456352
_publ_section_title
;
Structure prediction by ZEFSAII (Michael W. Deem and Ramdas Pophale) SiO2 
 PCOD9456352
Probable space group: P B C N
;
_chemical_formula_sum "Si O2"
_cell_formula_units_Z 52
_cell_length_a 12.379885
_cell_length_b 8.617859
_cell_length_c 21.391703
_cell_angle_alpha 90.000000
_cell_angle_beta 90.000000
_cell_angle_gamma 90.000000
_cell_volume 2282.240221
_symmetry_space_group_name_H-M "P B C N"
_symmetry_group_IT_number 60
_symmetry_cell_setting 'orthorhombic'
loop_
_space_group_symop_operation_xyz
x,y,z
1/2-x,1/2-y,1/2+z
1/2+x,1/2-y,-z
-x,y,1/2-z
-x,-y,-z
1/2+x,1/2+y,1/2-z
1/2-x,1/2+y,z
x,-y,1/2+z
loop_
_atom_site_type_symbol
_atom_site_label
_atom_site_fract_x
_atom_site_fract_y
_atom_site_fract_z
Si Si1 0.719570 0.977115 0.024852
Si Si2 0.851247 0.239840 0.201970
Si Si3 0.865975 0.195617 0.946440
Si Si4 0.824571 0.765774 0.302334
Si Si5 0.000000 0.002667 0.250000
Si Si6 0.631310 0.087165 0.190788
Si Si7 0.897625 0.773659 0.082404
O O1 0.801089 0.895571 0.074141
O O2 0.643372 0.113555 0.050657
O O3 0.653095 0.840807 0.992174
O O4 0.796032 0.055476 0.973075
O O5 0.794945 0.273491 0.270295
O O6 0.751528 0.147479 0.171941
O O7 0.882836 0.407855 0.176349
O O8 0.949468 0.121975 0.200419
O O9 0.826161 0.236700 0.876347
O O10 0.992837 0.160710 0.945918
O O11 0.874832 0.618526 0.264869
O O12 0.898553 0.907053 0.276594
O O13 0.567032 0.215502 0.151638
#
# Coordination Sequence:
#
# PCOD9456352 Si02
#       7
#     8   8   8   8   4   8   8
#     4  10  25  43  65  95 131 172 225 277 317 380
#     4  10  22  40  61  97 134 167 213 258 327 398
#     4  11  24  42  69  94 129 178 214 276 327 387
#     4  10  23  41  65  99 136 165 219 269 330 398
#     4  12  22  40  66  90 136 180 204 256 328 404
#     4  10  21  41  63  96 134 164 210 280 319 391
#     4  11  22  44  68  93 130 173 223 269 328 388
#
# _framework density 22.784628000000001
#
# number of rings (size 3 to 8) (size 9 to 14) (size 15 to 20)
#    0.923    0.615    1.538    2.769    4.308    3.077 
#    0.000    1.538    0.000    0.000    0.000    0.000 
#    0.000    0.000    0.000    0.000    0.000    0.000 
#
# Total GULP energy -290158.755979 kJ/mol
# GULP energy per Si atom -5579.976077 kJ/mol
# Density = 2.273277 g / cm^3
# Si number density = 22.784628 Si / 1000 Ang^3
#
#
#
# Elastic Constant Matrix: (Units=GPa)
#
#
# Indices 1 2 3 4 5 6 
#
# 1 49.1966 -6.7142 1.2936 0.0000 0.0000 0.0000
# 2 -6.7142 81.0823 0.8487 0.0000 0.0000 0.0000
# 3 1.2936 0.8487 77.7934 0.0000 0.0000 0.0000
# 4 0.0000 0.0000 0.0000 31.2377 0.0000 0.0000
# 5 0.0000 0.0000 0.0000 0.0000 29.1056 0.0000
# 6 0.0000 0.0000 0.0000 0.0000 0.0000 34.2131
#
#
#
# Elastic Compliance Matrix: (Units=1/GPa)
#
#
# Indices 1 2 3 4 5 6 
#
# 1 0.020569 0.001707 -0.000361 0.000000 0.000000 0.000000
# 2 0.001707 0.012476 -0.000164 0.000000 0.000000 0.000000
# 3 -0.000361 -0.000164 0.012862 0.000000 0.000000 0.000000
# 4 0.000000 0.000000 0.000000 0.032013 0.000000 0.000000
# 5 0.000000 0.000000 0.000000 0.000000 0.034358 0.000000
# 6 0.000000 0.000000 0.000000 0.000000 0.000000 0.029229
#
#
# Mechanical properties :
#
#
# Convention : Reuss Voigt Hill
#
# Bulk Modulus (GPa) = 20.71622 22.10318 21.40970
# Shear Modulus (GPa) = 32.20961 33.08755 32.64858
#
# Velocity S-wave (km/s) = 3.76394 3.81489 3.78950
# Velocity P-wave (km/s) = 5.29165 5.39690 5.34453
#
# Compressibility (1/GPa) = 0.04827135
#
# Stress axis : x y z
#
# Youngs Moduli (GPa) = 48.61675 80.15246 77.74625
#
# Poissons Ratio (x) = -0.13682 0.02804
# Poissons Ratio (y) = -0.08299 0.01279
# Poissons Ratio (z) = 0.01753 0.01318
#
# Static dielectric constant tensor:
#      x y z
#    x 1.954900 0.000000 0.000000 
#    y 0.000000 1.808290 0.000000 
#    z 0.000000 0.000000 2.001640 
# 
# From -- ./inp_files/25313.got.cif
#   From: 2010.05.17/outbox.cif.g08.bks.cpg/sg60_13_cif.got.tgz:25313.got - 2010.06.03 14:59:27.
