data_PCOD9456467
_publ_section_title
;
Structure prediction by ZEFSAII (Michael W. Deem and Ramdas Pophale) SiO2 
 PCOD9456467
Probable space group: P B C N
;
_chemical_formula_sum "Si O2"
_cell_formula_units_Z 28
_cell_length_a 7.025107
_cell_length_b 17.461776
_cell_length_c 11.662621
_cell_angle_alpha 90.000000
_cell_angle_beta 90.000000
_cell_angle_gamma 90.000000
_cell_volume 1430.663571
_symmetry_space_group_name_H-M "P B C N"
_symmetry_group_IT_number 60
_symmetry_cell_setting 'orthorhombic'
loop_
_space_group_symop_operation_xyz
x,y,z
1/2-x,1/2-y,1/2+z
1/2+x,1/2-y,-z
-x,y,1/2-z
-x,-y,-z
1/2+x,1/2+y,1/2-z
1/2-x,1/2+y,z
x,-y,1/2+z
loop_
_atom_site_type_symbol
_atom_site_label
_atom_site_fract_x
_atom_site_fract_y
_atom_site_fract_z
Si Si1 0.820705 0.613555 0.665885
Si Si2 0.000000 0.770731 0.250000
Si Si3 0.537263 0.869078 0.908464
Si Si4 0.213398 0.057700 0.282382
O O1 0.668490 0.677022 0.702383
O O2 0.898532 0.625951 0.537999
O O3 0.725172 0.530047 0.678752
O O4 0.000000 0.616129 0.750000
O O5 0.931115 0.713642 0.350887
O O6 0.660913 0.928210 0.831856
O O7 0.318728 0.892309 0.880512
O O8 0.000000 0.080361 0.250000
#
# Coordination Sequence:
#
# PCOD9456467 Si02
#       4
#     8   4   8   8
#     4  12  24  41  68  96 131 171 225 271 325 401
#     4  10  26  44  60 100 128 178 218 264 348 386
#     4  10  25  45  62  99 135 169 223 274 325 395
#     4  10  21  42  69  96 129 172 217 271 333 384
#
# _framework density 19.571338999999998
#
# number of rings (size 3 to 8) (size 9 to 14) (size 15 to 20)
#    0.000    1.714    4.286    0.857    4.000    8.000 
#    0.000    0.000    0.000    0.000    0.000    0.000 
#    0.000    0.000    0.000    0.000    0.000    0.000 
#
# Total GULP energy -156411.010229 kJ/mol
# GULP energy per Si atom -5586.107508 kJ/mol
# Density = 1.952679 g / cm^3
# Si number density = 19.571339 Si / 1000 Ang^3
#
#
#
# Elastic Constant Matrix: (Units=GPa)
#
#
# Indices 1 2 3 4 5 6 
#
# 1 130.5105 31.9163 57.4917 0.0000 0.0000 0.0000
# 2 31.9163 109.9350 47.1315 0.0000 0.0000 0.0000
# 3 57.4917 47.1315 144.0868 0.0000 0.0000 0.0000
# 4 0.0000 0.0000 0.0000 5.9257 0.0000 0.0000
# 5 0.0000 0.0000 0.0000 0.0000 25.9457 0.0000
# 6 0.0000 0.0000 0.0000 0.0000 0.0000 31.5549
#
#
#
# Elastic Compliance Matrix: (Units=1/GPa)
#
#
# Indices 1 2 3 4 5 6 
#
# 1 0.009456 -0.001312 -0.003344 0.000000 0.000000 0.000000
# 2 -0.001312 0.010762 -0.002997 0.000000 0.000000 0.000000
# 3 -0.003344 -0.002997 0.009255 0.000000 0.000000 0.000000
# 4 0.000000 0.000000 0.000000 0.168755 0.000000 0.000000
# 5 0.000000 0.000000 0.000000 0.000000 0.038542 0.000000
# 6 0.000000 0.000000 0.000000 0.000000 0.000000 0.031691
#
#
# Mechanical properties :
#
#
# Convention : Reuss Voigt Hill
#
# Bulk Modulus (GPa) = 70.58302 73.06794 71.82548
# Shear Modulus (GPa) = 17.33171 29.21811 23.27491
#
# Velocity S-wave (km/s) = 2.97907 3.86800 3.45227
# Velocity P-wave (km/s) = 6.92647 7.57389 7.25740
#
# Compressibility (1/GPa) = 0.01416771
#
# Stress axis : x y z
#
# Youngs Moduli (GPa) = 105.75229 92.92020 108.05150
#
# Poissons Ratio (x) = 0.12188 0.36132
# Poissons Ratio (y) = 0.13871 0.32382
# Poissons Ratio (z) = 0.35364 0.27847
#
# Static dielectric constant tensor:
#      x y z
#    x 1.705670 0.000000 0.000000 
#    y 0.000000 1.698700 0.000000 
#    z 0.000000 0.000000 1.657130 
# 
# From -- ./inp_files/9414.got.cif
#   From: 2010.05.17/outbox.cif.g08.bks.cpg/sg60_5_cif.got.tgz:9414.got - 2010.06.03 14:59:27.
