data_PCOD9456068
_publ_section_title
;
Structure prediction by ZEFSAII (Michael W. Deem and Ramdas Pophale) SiO2 
 PCOD9456068
Probable space group: P B C N
;
_chemical_formula_sum "Si O2"
_cell_formula_units_Z 36
_cell_length_a 6.058260
_cell_length_b 13.931418
_cell_length_c 20.282865
_cell_angle_alpha 90.000000
_cell_angle_beta 90.000000
_cell_angle_gamma 90.000000
_cell_volume 1711.876897
_symmetry_space_group_name_H-M "P B C N"
_symmetry_group_IT_number 60
_symmetry_cell_setting 'orthorhombic'
loop_
_space_group_symop_operation_xyz
x,y,z
1/2-x,1/2-y,1/2+z
1/2+x,1/2-y,-z
-x,y,1/2-z
-x,-y,-z
1/2+x,1/2+y,1/2-z
1/2-x,1/2+y,z
x,-y,1/2+z
loop_
_atom_site_type_symbol
_atom_site_label
_atom_site_fract_x
_atom_site_fract_y
_atom_site_fract_z
Si Si1 0.844174 0.184898 0.907441
Si Si2 0.000000 0.110580 0.250000
Si Si3 0.707255 0.987400 0.860790
Si Si4 0.952599 0.854338 0.959030
Si Si5 0.834226 0.340774 0.646424
O O1 0.672585 0.254863 0.943955
O O2 0.994517 0.254299 0.863010
O O3 0.719052 0.100660 0.869724
O O4 0.997654 0.138471 0.964064
O O5 0.871469 0.046821 0.303270
O O6 0.824262 0.171772 0.208820
O O7 0.472540 0.939029 0.846217
O O8 0.798750 0.936469 0.927578
O O9 0.179299 0.851317 0.917624
#
# Coordination Sequence:
#
# PCOD9456068 Si02
#       5
#     8   4   8   8   8
#     4  11  21  40  65 101 129 170 213 265 330 397
#     4  10  22  46  64  90 128 174 218 274 322 388
#     4  10  23  40  66  91 129 174 217 269 321 389
#     4  10  21  38  63  97 135 166 209 270 327 393
#     4  10  22  42  66  92 135 169 214 276 329 385
#
# _framework density 21.02955
#
# number of rings (size 3 to 8) (size 9 to 14) (size 15 to 20)
#    0.000    1.778    2.222    1.333    0.000    4.444 
#   12.000    0.000    0.000    0.000    0.000    0.000 
#    0.000    0.000    0.000    0.000    0.000    0.000 
#
# Total GULP energy -201264.908707 kJ/mol
# GULP energy per Si atom -5590.691909 kJ/mol
# Density = 2.098169 g / cm^3
# Si number density = 21.029550 Si / 1000 Ang^3
#
#
#
# Elastic Constant Matrix: (Units=GPa)
#
#
# Indices 1 2 3 4 5 6 
#
# 1 84.9803 14.7290 23.7367 0.0000 0.0000 0.0000
# 2 14.7290 60.9557 23.0711 0.0000 0.0000 0.0000
# 3 23.7367 23.0711 76.8687 0.0000 0.0000 0.0000
# 4 0.0000 0.0000 0.0000 12.1981 0.0000 0.0000
# 5 0.0000 0.0000 0.0000 0.0000 29.4121 0.0000
# 6 0.0000 0.0000 0.0000 0.0000 0.0000 7.0371
#
#
#
# Elastic Compliance Matrix: (Units=1/GPa)
#
#
# Indices 1 2 3 4 5 6 
#
# 1 0.013058 -0.001838 -0.003481 0.000000 0.000000 0.000000
# 2 -0.001838 0.018767 -0.005065 0.000000 0.000000 0.000000
# 3 -0.003481 -0.005065 0.015604 0.000000 0.000000 0.000000
# 4 0.000000 0.000000 0.000000 0.081980 0.000000 0.000000
# 5 0.000000 0.000000 0.000000 0.000000 0.034000 0.000000
# 6 0.000000 0.000000 0.000000 0.000000 0.000000 0.142103
#
#
# Mechanical properties :
#
#
# Convention : Reuss Voigt Hill
#
# Bulk Modulus (GPa) = 37.50691 38.43094 37.96892
# Shear Modulus (GPa) = 14.91797 20.48065 17.69931
#
# Velocity S-wave (km/s) = 2.66631 3.12412 2.90425
# Velocity P-wave (km/s) = 5.23001 5.59713 5.41668
#
# Compressibility (1/GPa) = 0.02666175
#
# Stress axis : x y z
#
# Youngs Moduli (GPa) = 76.58021 53.28641 64.08528
#
# Poissons Ratio (x) = 0.09794 0.22306
# Poissons Ratio (y) = 0.14075 0.32459
# Poissons Ratio (z) = 0.26655 0.26989
#
# Static dielectric constant tensor:
#      x y z
#    x 1.754590 0.000000 0.000000 
#    y 0.000000 1.737180 0.000000 
#    z 0.000000 0.000000 1.761480 
# 
# From -- ./inp_files/21455.got.cif
#   From: 2010.05.17/outbox.cif.g08.bks.cpg/sg60_11_cif.got.tgz:21455.got - 2010.06.03 14:59:27.
