data_PCOD9456843
_publ_section_title
;
Structure prediction by ZEFSAII (Michael W. Deem and Ramdas Pophale) SiO2 
 PCOD9456843
Probable space group: P B C N
;
_chemical_formula_sum "Si O2"
_cell_formula_units_Z 48
_cell_length_a 24.783107
_cell_length_b 5.635270
_cell_length_c 14.422235
_cell_angle_alpha 90.000000
_cell_angle_beta 90.000000
_cell_angle_gamma 90.000000
_cell_volume 2014.202120
_symmetry_space_group_name_H-M "P B C N"
_symmetry_group_IT_number 60
_symmetry_cell_setting 'orthorhombic'
loop_
_space_group_symop_operation_xyz
x,y,z
1/2-x,1/2-y,1/2+z
1/2+x,1/2-y,-z
-x,y,1/2-z
-x,-y,-z
1/2+x,1/2+y,1/2-z
1/2-x,1/2+y,z
x,-y,1/2+z
loop_
_atom_site_type_symbol
_atom_site_label
_atom_site_fract_x
_atom_site_fract_y
_atom_site_fract_z
Si Si1 0.000000 0.712521 0.750000
Si Si2 0.000000 0.500000 0.500000
Si Si3 0.612910 0.192536 0.529044
Si Si4 0.108149 0.559007 0.272359
Si Si5 0.233000 0.633393 0.015192
Si Si6 0.730177 0.904363 0.773985
Si Si7 0.450154 0.576517 0.884252
O O1 0.054547 0.566145 0.732054
O O2 0.012895 0.867652 0.841413
O O3 0.064987 0.456731 0.514890
O O4 0.014445 0.718319 0.427790
O O5 0.669669 0.182606 0.481509
O O6 0.589219 0.455675 0.541952
O O7 0.619692 0.085692 0.632587
O O8 0.165312 0.571893 0.222777
O O9 0.086368 0.817160 0.302374
O O10 0.241797 0.372389 0.972091
O O11 0.253839 0.608594 0.121037
O O12 0.746428 0.648775 0.731465
#
# Coordination Sequence:
#
# PCOD9456843 Si02
#       7
#     4   4   8   8   8   8   8
#     4  10  22  40  64  98 132 172 220 272 342 406
#     4  10  22  42  62  98 130 168 220 272 338 398
#     4  10  23  40  65  94 130 169 218 272 335 400
#     4  10  23  41  65  97 130 169 221 272 335 402
#     4  10  24  44  65  94 132 176 225 273 328 394
#     4  10  24  45  66  95 130 176 225 275 330 395
#     4  10  22  41  62  98 130 171 217 277 333 416
#
# _framework density 23.830776
#
# number of rings (size 3 to 8) (size 9 to 14) (size 15 to 20)
#    0.000    2.000    0.000    1.000    9.333    6.667 
#    6.000    0.000    0.000    0.000    0.000    0.000 
#    0.000    0.000    0.000    0.000    0.000    0.000 
#
# Total GULP energy -267213.131655 kJ/mol
# GULP energy per Si atom -5566.940243 kJ/mol
# Density = 2.377654 g / cm^3
# Si number density = 23.830776 Si / 1000 Ang^3
#
#
#
# Elastic Constant Matrix: (Units=GPa)
#
#
# Indices 1 2 3 4 5 6 
#
# 1 164.6822 62.2052 13.8768 0.0000 0.0000 0.0000
# 2 62.2052 148.1863 26.6692 0.0000 0.0000 0.0000
# 3 13.8768 26.6692 53.0888 0.0000 0.0000 0.0000
# 4 0.0000 0.0000 0.0000 4.1054 0.0000 0.0000
# 5 0.0000 0.0000 0.0000 0.0000 29.1555 0.0000
# 6 0.0000 0.0000 0.0000 0.0000 0.0000 -7.6375
#
#
#
# Elastic Compliance Matrix: (Units=1/GPa)
#
#
# Indices 1 2 3 4 5 6 
#
# 1 0.007224 -0.002960 -0.000401 0.000000 0.000000 0.000000
# 2 -0.002960 0.008632 -0.003563 0.000000 0.000000 0.000000
# 3 -0.000401 -0.003563 0.020731 0.000000 0.000000 0.000000
# 4 0.000000 0.000000 0.000000 0.243583 0.000000 0.000000
# 5 0.000000 0.000000 0.000000 0.000000 0.034299 0.000000
# 6 0.000000 0.000000 0.000000 0.000000 0.000000 -0.130933
#
#
# Mechanical properties :
#
#
# Convention : Reuss Voigt Hill
#
# Bulk Modulus (GPa) = 43.97719 63.49551 53.73635
# Shear Modulus (GPa) = 24.39448 22.67174 23.53311
#
# Velocity S-wave (km/s) = 3.20293 3.08777 3.14588
# Velocity P-wave (km/s) = 5.67207 6.27810 5.98276
#
# Compressibility (1/GPa) = 0.02273906
#
# Stress axis : x y z
#
# Youngs Moduli (GPa) = 138.42101 115.84634 48.23722
#
# Poissons Ratio (x) = 0.34295 0.01935
# Poissons Ratio (y) = 0.40978 0.17185
# Poissons Ratio (z) = 0.05553 0.41271
#
# Static dielectric constant tensor:
#      x y z
#    x 1.801850 0.000000 0.000000 
#    y 0.000000 2.017940 0.000000 
#    z 0.000000 0.000000 2.016700 
# 
# From -- ./inp_files/21136.got.cif
#   From: 2010.05.17/outbox.cif.g08.bks.cpg/sg60_11_cif.got.tgz:21136.got - 2010.06.03 14:59:27.
