data_PCOD9456197
_publ_section_title
;
Structure prediction by ZEFSAII (Michael W. Deem and Ramdas Pophale) SiO2 
 PCOD9456197
Probable space group: P B C N
;
_chemical_formula_sum "Si O2"
_cell_formula_units_Z 56
_cell_length_a 19.554901
_cell_length_b 11.197602
_cell_length_c 10.943902
_cell_angle_alpha 90.000000
_cell_angle_beta 90.000000
_cell_angle_gamma 90.000000
_cell_volume 2396.364317
_symmetry_space_group_name_H-M "P B C N"
_symmetry_group_IT_number 60
_symmetry_cell_setting 'orthorhombic'
loop_
_space_group_symop_operation_xyz
x,y,z
1/2-x,1/2-y,1/2+z
1/2+x,1/2-y,-z
-x,y,1/2-z
-x,-y,-z
1/2+x,1/2+y,1/2-z
1/2-x,1/2+y,z
x,-y,1/2+z
loop_
_atom_site_type_symbol
_atom_site_label
_atom_site_fract_x
_atom_site_fract_y
_atom_site_fract_z
Si Si1 0.201093 0.475687 0.828604
Si Si2 0.926397 0.406209 0.967046
Si Si3 0.868001 0.161059 0.439794
Si Si4 0.280439 0.187201 0.117002
Si Si5 0.434101 0.147300 0.411975
Si Si6 0.315342 0.588404 0.514644
Si Si7 0.126365 0.721637 0.820202
O O1 0.241040 0.400403 0.726184
O O2 0.128351 0.405152 0.833599
O O3 0.245958 0.461536 0.951455
O O4 0.181218 0.612953 0.802257
O O5 0.849677 0.373104 0.931274
O O6 0.985886 0.358014 0.880744
O O7 0.931586 0.548310 0.978249
O O8 0.932904 0.345418 0.102052
O O9 0.788431 0.198026 0.462455
O O10 0.913571 0.223558 0.541538
O O11 0.888221 0.216803 0.308854
O O12 0.865054 0.019007 0.450307
O O13 0.301110 0.325766 0.130356
O O14 0.347066 0.676194 0.412513
#
# Coordination Sequence:
#
# PCOD9456197 Si02
#       7
#     8   8   8   8   8   8   8
#     4  11  22  39  65  94 129 169 222 276 335 389
#     4   9  21  43  63  92 129 165 220 276 329 382
#     4  12  23  36  64  95 131 173 221 263 344 399
#     4  11  23  38  63  92 133 167 216 274 332 394
#     4  10  21  39  66  93 127 169 216 278 326 396
#     4  11  23  39  58  96 132 167 213 279 330 402
#     4  10  23  40  61  92 127 167 218 270 332 396
#
# _framework density 23.368732000000001
#
# number of rings (size 3 to 8) (size 9 to 14) (size 15 to 20)
#    0.000    1.429    2.857    3.429    2.000    2.286 
#    0.000    7.143    0.000    3.429    0.000    0.000 
#    0.000    0.000    0.000    0.000    0.000    0.000 
#
# Total GULP energy -312328.181499 kJ/mol
# GULP energy per Si atom -5577.288955 kJ/mol
# Density = 2.331554 g / cm^3
# Si number density = 23.368732 Si / 1000 Ang^3
#
#
#
# Elastic Constant Matrix: (Units=GPa)
#
#
# Indices 1 2 3 4 5 6 
#
# 1 57.4991 -15.3926 -8.8386 0.0000 0.0000 0.0000
# 2 -15.3926 161.7276 25.3047 0.0000 0.0000 0.0000
# 3 -8.8386 25.3047 50.6020 0.0000 0.0000 0.0000
# 4 0.0000 0.0000 0.0000 29.4047 0.0000 0.0000
# 5 0.0000 0.0000 0.0000 0.0000 23.7877 0.0000
# 6 0.0000 0.0000 0.0000 0.0000 0.0000 28.8698
#
#
#
# Elastic Compliance Matrix: (Units=1/GPa)
#
#
# Indices 1 2 3 4 5 6 
#
# 1 0.018133 0.001335 0.002500 0.000000 0.000000 0.000000
# 2 0.001335 0.006806 -0.003171 0.000000 0.000000 0.000000
# 3 0.002500 -0.003171 0.021784 0.000000 0.000000 0.000000
# 4 0.000000 0.000000 0.000000 0.034008 0.000000 0.000000
# 5 0.000000 0.000000 0.000000 0.000000 0.042039 0.000000
# 6 0.000000 0.000000 0.000000 0.000000 0.000000 0.034638
#
#
# Mechanical properties :
#
#
# Convention : Reuss Voigt Hill
#
# Bulk Modulus (GPa) = 20.81091 30.21953 25.51522
# Shear Modulus (GPa) = 29.05322 34.32945 31.69133
#
# Velocity S-wave (km/s) = 3.52980 3.83696 3.68658
# Velocity P-wave (km/s) = 5.05346 5.70871 5.39105
#
# Compressibility (1/GPa) = 0.04805171
#
# Stress axis : x y z
#
# Youngs Moduli (GPa) = 55.14764 146.92170 45.90478
#
# Poissons Ratio (x) = -0.19610 -0.11475
# Poissons Ratio (y) = -0.07361 0.14554
# Poissons Ratio (z) = -0.13786 0.46582
#
# Static dielectric constant tensor:
#      x y z
#    x 1.903080 0.000000 0.000000 
#    y 0.000000 1.889100 0.000000 
#    z 0.000000 0.000000 2.022030 
# 
# From -- ./inp_files/12841.got.cif
#   From: 2010.05.17/outbox.cif.g08.bks.cpg/sg60_7_cif.got.tgz:12841.got - 2010.06.03 14:59:27.
