data_PCOD9456599
_publ_section_title
;
Structure prediction by ZEFSAII (Michael W. Deem and Ramdas Pophale) SiO2 
 PCOD9456599
Probable space group: P B C N
;
_chemical_formula_sum "Si O2"
_cell_formula_units_Z 64
_cell_length_a 29.662152
_cell_length_b 5.420013
_cell_length_c 19.809957
_cell_angle_alpha 90.000000
_cell_angle_beta 90.000000
_cell_angle_gamma 90.000000
_cell_volume 3184.831918
_symmetry_space_group_name_H-M "P B C N"
_symmetry_group_IT_number 60
_symmetry_cell_setting 'orthorhombic'
loop_
_space_group_symop_operation_xyz
x,y,z
1/2-x,1/2-y,1/2+z
1/2+x,1/2-y,-z
-x,y,1/2-z
-x,-y,-z
1/2+x,1/2+y,1/2-z
1/2-x,1/2+y,z
x,-y,1/2+z
loop_
_atom_site_type_symbol
_atom_site_label
_atom_site_fract_x
_atom_site_fract_y
_atom_site_fract_z
Si Si1 0.458611 0.187000 0.004820
Si Si2 0.426779 0.488003 0.616486
Si Si3 0.625382 0.149085 0.307449
Si Si4 0.773475 0.510856 0.963068
Si Si5 0.023643 0.880009 0.867629
Si Si6 0.226840 0.470817 0.700954
Si Si7 0.376392 0.901554 0.043513
Si Si8 0.545162 0.889131 0.705288
O O1 0.467037 0.389040 0.947629
O O2 0.454067 0.289895 0.080596
O O3 0.500000 0.000000 0.000000
O O4 0.410786 0.050452 0.996968
O O5 0.390275 0.576070 0.670394
O O6 0.469622 0.345026 0.645604
O O7 0.398771 0.363490 0.556244
O O8 0.675880 0.108629 0.282583
O O9 0.588162 0.078930 0.253416
O O10 0.622617 0.006243 0.379201
O O11 0.742550 0.740180 0.986358
O O12 0.770544 0.490574 0.881111
O O13 0.825133 0.577925 0.979404
O O14 0.044682 0.622458 0.843927
O O15 0.042874 0.121528 0.830936
O O16 0.241408 0.744039 0.724053
O O17 0.500000 0.896951 0.750000
#
# Coordination Sequence:
#
# PCOD9456599 Si02
#       8
#     8   8   8   8   8   8   8   8
#     4  11  23  39  57  86 116 157 203 243 286 339
#     4  11  22  37  58  83 120 158 192 241 291 348
#     4  10  23  37  57  87 120 157 192 234 299 354
#     4   9  19  33  52  83 119 146 183 230 294 359
#     4  12  25  40  58  82 118 158 200 239 278 335
#     4   9  19  33  54  83 115 149 185 238 289 350
#     4  10  22  35  61  84 117 157 192 239 295 352
#     4  12  25  40  58  82 118 159 195 238 283 348
#
# _framework density 20.095253
#
# number of rings (size 3 to 8) (size 9 to 14) (size 15 to 20)
#    0.000    1.500    2.500    2.250   14.000    0.000 
#    0.000    0.000    0.000    0.000    0.000    5.250 
#    0.000    0.000    0.000    0.000    0.000    0.000 
#
# Total GULP energy -356976.383943 kJ/mol
# GULP energy per Si atom -5577.755999 kJ/mol
# Density = 2.004952 g / cm^3
# Si number density = 20.095253 Si / 1000 Ang^3
#
#
#
# Elastic Constant Matrix: (Units=GPa)
#
#
# Indices 1 2 3 4 5 6 
#
# 1 142.3526 46.6660 13.1484 0.0000 0.0000 0.0000
# 2 46.6660 95.8692 12.6850 0.0000 0.0000 0.0000
# 3 13.1484 12.6850 32.5567 0.0000 0.0000 0.0000
# 4 0.0000 0.0000 0.0000 26.5148 0.0000 0.0000
# 5 0.0000 0.0000 0.0000 0.0000 19.9535 0.0000
# 6 0.0000 0.0000 0.0000 0.0000 0.0000 21.1291
#
#
#
# Elastic Compliance Matrix: (Units=1/GPa)
#
#
# Indices 1 2 3 4 5 6 
#
# 1 0.008470 -0.003870 -0.001913 0.000000 0.000000 0.000000
# 2 -0.003870 0.012766 -0.003411 0.000000 0.000000 0.000000
# 3 -0.001913 -0.003411 0.032817 0.000000 0.000000 0.000000
# 4 0.000000 0.000000 0.000000 0.037715 0.000000 0.000000
# 5 0.000000 0.000000 0.000000 0.000000 0.050116 0.000000
# 6 0.000000 0.000000 0.000000 0.000000 0.000000 0.047328
#
#
# Mechanical properties :
#
#
# Convention : Reuss Voigt Hill
#
# Bulk Modulus (GPa) = 28.03826 46.19746 37.11786
# Shear Modulus (GPa) = 22.78019 26.73810 24.75914
#
# Velocity S-wave (km/s) = 3.37057 3.65165 3.51392
# Velocity P-wave (km/s) = 5.39728 6.38894 5.91393
#
# Compressibility (1/GPa) = 0.03566555
#
# Stress axis : x y z
#
# Youngs Moduli (GPa) = 118.06221 78.33349 30.47177
#
# Poissons Ratio (x) = 0.30314 0.05829
# Poissons Ratio (y) = 0.45688 0.10394
# Poissons Ratio (z) = 0.22585 0.26720
#
# Static dielectric constant tensor:
#      x y z
#    x 1.725130 0.000000 0.000000 
#    y 0.000000 1.865130 0.000000 
#    z 0.000000 0.000000 1.748170 
# 
# From -- ./inp_files/23347.got.cif
#   From: 2010.05.17/outbox.cif.g08.bks.cpg/sg60_12_cif.got.tgz:23347.got - 2010.06.03 14:59:27.
