data_PCOD9456291
_publ_section_title
;
Structure prediction by ZEFSAII (Michael W. Deem and Ramdas Pophale) SiO2 
 PCOD9456291
Probable space group: P B C N
;
_chemical_formula_sum "Si O2"
_cell_formula_units_Z 32
_cell_length_a 5.976349
_cell_length_b 13.497624
_cell_length_c 16.650734
_cell_angle_alpha 90.000000
_cell_angle_beta 90.000000
_cell_angle_gamma 90.000000
_cell_volume 1343.156629
_symmetry_space_group_name_H-M "P B C N"
_symmetry_group_IT_number 60
_symmetry_cell_setting 'orthorhombic'
loop_
_space_group_symop_operation_xyz
x,y,z
1/2-x,1/2-y,1/2+z
1/2+x,1/2-y,-z
-x,y,1/2-z
-x,-y,-z
1/2+x,1/2+y,1/2-z
1/2-x,1/2+y,z
x,-y,1/2+z
loop_
_atom_site_type_symbol
_atom_site_label
_atom_site_fract_x
_atom_site_fract_y
_atom_site_fract_z
Si Si1 0.816647 0.831897 0.395339
Si Si2 0.538978 0.149867 0.044443
Si Si3 0.200233 0.961112 0.435939
Si Si4 0.743446 0.043844 0.740572
O O1 0.631781 0.803764 0.461527
O O2 0.745045 0.871983 0.309396
O O3 0.970969 0.735291 0.395166
O O4 0.945151 0.925587 0.437281
O O5 0.719493 0.073166 0.078564
O O6 0.333617 0.084807 0.010483
O O7 0.264844 0.913892 0.349355
O O8 0.500000 0.989652 0.750000
O O9 0.000000 0.998243 0.750000
#
# Coordination Sequence:
#
# PCOD9456291 Si02
#       4
#     8   8   8   8
#     4  11  21  39  67  96 137 179 224 294 343 415
#     4  11  21  37  66  99 130 173 239 277 353 413
#     4  10  22  39  62  93 134 181 227 289 341 417
#     4  10  21  40  66  91 133 184 216 278 350 397
#
# _framework density 23.824470999999999
#
# number of rings (size 3 to 8) (size 9 to 14) (size 15 to 20)
#    0.000    1.500    5.000    0.750    0.000    0.000 
#    0.000    3.750    0.000   16.500    0.000    0.000 
#    0.000    0.000    0.000    0.000    0.000    0.000 
#
# Total GULP energy -178136.705835 kJ/mol
# GULP energy per Si atom -5566.772057 kJ/mol
# Density = 2.377025 g / cm^3
# Si number density = 23.824471 Si / 1000 Ang^3
#
#
#
# Elastic Constant Matrix: (Units=GPa)
#
#
# Indices 1 2 3 4 5 6 
#
# 1 117.4487 26.6392 20.4398 0.0000 0.0000 0.0000
# 2 26.6392 113.2894 16.3586 0.0000 0.0000 0.0000
# 3 20.4398 16.3586 68.2106 0.0000 0.0000 0.0000
# 4 0.0000 0.0000 0.0000 7.1136 0.0000 0.0000
# 5 0.0000 0.0000 0.0000 0.0000 32.0113 0.0000
# 6 0.0000 0.0000 0.0000 0.0000 0.0000 26.0757
#
#
#
# Elastic Compliance Matrix: (Units=1/GPa)
#
#
# Indices 1 2 3 4 5 6 
#
# 1 0.009346 -0.001857 -0.002355 0.000000 0.000000 0.000000
# 2 -0.001857 0.009513 -0.001725 0.000000 0.000000 0.000000
# 3 -0.002355 -0.001725 0.015780 0.000000 0.000000 0.000000
# 4 0.000000 0.000000 0.000000 0.140576 0.000000 0.000000
# 5 0.000000 0.000000 0.000000 0.000000 0.031239 0.000000
# 6 0.000000 0.000000 0.000000 0.000000 0.000000 0.038350
#
#
# Mechanical properties :
#
#
# Convention : Reuss Voigt Hill
#
# Bulk Modulus (GPa) = 43.92979 47.31376 45.62178
# Shear Modulus (GPa) = 18.92039 28.74086 23.83062
#
# Velocity S-wave (km/s) = 2.82114 3.47704 3.16612
# Velocity P-wave (km/s) = 5.39358 6.00184 5.70582
#
# Compressibility (1/GPa) = 0.02276360
#
# Stress axis : x y z
#
# Youngs Moduli (GPa) = 107.00331 105.12172 63.37208
#
# Poissons Ratio (x) = 0.19526 0.14924
# Poissons Ratio (y) = 0.19876 0.10930
# Poissons Ratio (z) = 0.25199 0.18131
#
# Static dielectric constant tensor:
#      x y z
#    x 2.180250 0.000000 0.000000 
#    y 0.000000 1.926610 0.000000 
#    z 0.000000 0.000000 1.943890 
# 
# From -- ./inp_files/18398.got.cif
#   From: 2010.05.17/outbox.cif.g08.bks.cpg/sg60_10_cif.got.tgz:18398.got - 2010.06.03 14:59:27.
