data_PCOD9456993
_publ_section_title
;
Structure prediction by ZEFSAII (Michael W. Deem and Ramdas Pophale) SiO2 
 PCOD9456993
Probable space group: P B C N
;
_chemical_formula_sum "Si O2"
_cell_formula_units_Z 48
_cell_length_a 8.529458
_cell_length_b 12.451217
_cell_length_c 17.609695
_cell_angle_alpha 90.000000
_cell_angle_beta 90.000000
_cell_angle_gamma 90.000000
_cell_volume 1870.187161
_symmetry_space_group_name_H-M "P B C N"
_symmetry_group_IT_number 60
_symmetry_cell_setting 'orthorhombic'
loop_
_space_group_symop_operation_xyz
x,y,z
1/2-x,1/2-y,1/2+z
1/2+x,1/2-y,-z
-x,y,1/2-z
-x,-y,-z
1/2+x,1/2+y,1/2-z
1/2-x,1/2+y,z
x,-y,1/2+z
loop_
_atom_site_type_symbol
_atom_site_label
_atom_site_fract_x
_atom_site_fract_y
_atom_site_fract_z
Si Si1 0.342580 0.533392 0.902632
Si Si2 0.760566 0.670895 0.242550
Si Si3 0.307910 0.803449 0.593665
Si Si4 0.500000 0.836655 0.250000
Si Si5 0.985054 0.516640 0.139764
Si Si6 0.012544 0.830704 0.969258
Si Si7 0.000000 0.996431 0.250000
O O1 0.156775 0.542780 0.901806
O O2 0.382003 0.408583 0.918634
O O3 0.429688 0.562770 0.823679
O O4 0.414522 0.598051 0.971149
O O5 0.837307 0.723550 0.317601
O O6 0.638382 0.762494 0.215715
O O7 0.882862 0.607178 0.188410
O O8 0.644060 0.575614 0.271898
O O9 0.383353 0.922855 0.592220
O O10 0.389273 0.743459 0.524519
O O11 0.123727 0.783451 0.582492
O O12 0.563701 0.923524 0.310402
#
# Coordination Sequence:
#
# PCOD9456993 Si02
#       7
#     8   8   8   4   8   8   4
#     4  10  23  44  69 101 135 182 241 286 357 429
#     4  10  22  41  70 106 140 182 236 299 357 417
#     4  12  24  44  65  97 150 186 233 295 362 430
#     4  11  24  40  75 112 142 183 234 304 377 402
#     4  11  24  45  71 105 141 182 245 303 348 435
#     4  11  26  42  68 100 139 192 228 290 363 431
#     4   9  18  42  73  94 136 173 224 308 337 404
#
# _framework density 25.665880999999999
#
# number of rings (size 3 to 8) (size 9 to 14) (size 15 to 20)
#    0.000    1.333    3.333    1.000    2.333    7.333 
#    0.000    0.000    0.000    0.000    0.000    0.000 
#    0.000    0.000    0.000    0.000    0.000    0.000 
#
# Total GULP energy -268152.358577 kJ/mol
# GULP energy per Si atom -5586.507470 kJ/mol
# Density = 2.560746 g / cm^3
# Si number density = 25.665881 Si / 1000 Ang^3
#
#
#
# Elastic Constant Matrix: (Units=GPa)
#
#
# Indices 1 2 3 4 5 6 
#
# 1 83.9467 22.0694 8.5931 0.0000 0.0000 0.0000
# 2 22.0694 73.0371 14.1600 0.0000 0.0000 0.0000
# 3 8.5931 14.1600 92.8294 0.0000 0.0000 0.0000
# 4 0.0000 0.0000 0.0000 51.4278 0.0000 0.0000
# 5 0.0000 0.0000 0.0000 0.0000 50.5411 0.0000
# 6 0.0000 0.0000 0.0000 0.0000 0.0000 34.9067
#
#
#
# Elastic Compliance Matrix: (Units=1/GPa)
#
#
# Indices 1 2 3 4 5 6 
#
# 1 0.012975 -0.003800 -0.000621 0.000000 0.000000 0.000000
# 2 -0.003800 0.015222 -0.001970 0.000000 0.000000 0.000000
# 3 -0.000621 -0.001970 0.011130 0.000000 0.000000 0.000000
# 4 0.000000 0.000000 0.000000 0.019445 0.000000 0.000000
# 5 0.000000 0.000000 0.000000 0.000000 0.019786 0.000000
# 6 0.000000 0.000000 0.000000 0.000000 0.000000 0.028648
#
#
# Mechanical properties :
#
#
# Convention : Reuss Voigt Hill
#
# Bulk Modulus (GPa) = 37.67331 37.71759 37.69545
# Shear Modulus (GPa) = 38.80868 41.04117 39.92492
#
# Velocity S-wave (km/s) = 3.89276 4.00316 3.94834
# Velocity P-wave (km/s) = 5.90889 6.00787 5.95859
#
# Compressibility (1/GPa) = 0.02654399
#
# Stress axis : x y z
#
# Youngs Moduli (GPa) = 77.07139 65.69483 89.84329
#
# Poissons Ratio (x) = 0.24965 0.05583
# Poissons Ratio (y) = 0.29288 0.17700
# Poissons Ratio (z) = 0.04789 0.12943
#
# Static dielectric constant tensor:
#      x y z
#    x 2.018350 0.000000 0.000000 
#    y 0.000000 2.046450 0.000000 
#    z 0.000000 0.000000 2.066030 
# 
# From -- ./inp_files/19350.got.cif
#   From: 2010.05.17/outbox.cif.g08.bks.cpg/sg60_10_cif.got.tgz:19350.got - 2010.06.03 14:59:27.
