data_PCOD9456175
_publ_section_title
;
Structure prediction by ZEFSAII (Michael W. Deem and Ramdas Pophale) SiO2 
 PCOD9456175
Probable space group: P B C N
;
_chemical_formula_sum "Si O2"
_cell_formula_units_Z 56
_cell_length_a 13.623244
_cell_length_b 8.797034
_cell_length_c 20.781772
_cell_angle_alpha 90.000000
_cell_angle_beta 90.000000
_cell_angle_gamma 90.000000
_cell_volume 2490.573607
_symmetry_space_group_name_H-M "P B C N"
_symmetry_group_IT_number 60
_symmetry_cell_setting 'orthorhombic'
loop_
_space_group_symop_operation_xyz
x,y,z
1/2-x,1/2-y,1/2+z
1/2+x,1/2-y,-z
-x,y,1/2-z
-x,-y,-z
1/2+x,1/2+y,1/2-z
1/2-x,1/2+y,z
x,-y,1/2+z
loop_
_atom_site_type_symbol
_atom_site_label
_atom_site_fract_x
_atom_site_fract_y
_atom_site_fract_z
Si Si1 0.178691 0.135562 0.915129
Si Si2 0.300265 0.250378 0.794054
Si Si3 0.178546 0.319349 0.587128
Si Si4 0.000000 0.628593 0.250000
Si Si5 0.206305 0.513897 0.213726
Si Si6 0.988867 0.879406 0.347339
Si Si7 0.500000 0.367722 0.750000
Si Si8 0.305484 0.910346 0.001623
O O1 0.256863 0.184430 0.859783
O O2 0.079745 0.061440 0.888141
O O3 0.146832 0.291553 0.951676
O O4 0.228393 0.012492 0.961544
O O5 0.252108 0.409624 0.777112
O O6 0.417195 0.272798 0.787283
O O7 0.268664 0.158199 0.729374
O O8 0.229347 0.413312 0.645339
O O9 0.139049 0.456452 0.541089
O O10 0.252372 0.207198 0.550192
O O11 0.094859 0.207913 0.614184
O O12 0.089080 0.535250 0.221223
O O13 0.037584 0.746324 0.303729
O O14 0.951569 0.015264 0.301556
#
# Coordination Sequence:
#
# PCOD9456175 Si02
#       8
#     8   8   8   4   8   8   4   8
#     4  11  22  42  67  92 129 178 220 268 327 393
#     4  12  24  39  66  98 130 168 212 268 342 396
#     4  10  23  41  64  94 129 172 221 272 327 386
#     4   9  19  36  58  94 126 156 204 256 338 384
#     4  11  22  38  66  93 128 163 207 272 332 394
#     4  10  21  39  64  94 131 169 212 274 325 396
#     4  11  25  40  60 106 138 166 212 268 348 410
#     4  10  23  42  64  90 129 179 228 266 318 389
#
# _framework density 22.484777999999999
#
# number of rings (size 3 to 8) (size 9 to 14) (size 15 to 20)
#    0.000    1.429    1.429    3.857    6.000    1.143 
#    0.000    0.000    0.000    0.000    0.000    0.000 
#    0.000    0.000    0.000    0.000    0.000    0.000 
#
# Total GULP energy -312330.857608 kJ/mol
# GULP energy per Si atom -5577.336743 kJ/mol
# Density = 2.243360 g / cm^3
# Si number density = 22.484778 Si / 1000 Ang^3
#
#
#
# Elastic Constant Matrix: (Units=GPa)
#
#
# Indices 1 2 3 4 5 6 
#
# 1 49.6882 -3.7697 21.4710 0.0000 0.0000 0.0000
# 2 -3.7697 80.2338 35.0205 0.0000 0.0000 0.0000
# 3 21.4710 35.0205 96.1586 0.0000 0.0000 0.0000
# 4 0.0000 0.0000 0.0000 47.8105 0.0000 0.0000
# 5 0.0000 0.0000 0.0000 0.0000 19.0583 0.0000
# 6 0.0000 0.0000 0.0000 0.0000 0.0000 20.0884
#
#
#
# Elastic Compliance Matrix: (Units=1/GPa)
#
#
# Indices 1 2 3 4 5 6 
#
# 1 0.023308 0.004003 -0.006662 0.000000 0.000000 0.000000
# 2 0.004003 0.015507 -0.006541 0.000000 0.000000 0.000000
# 3 -0.006662 -0.006541 0.014269 0.000000 0.000000 0.000000
# 4 0.000000 0.000000 0.000000 0.020916 0.000000 0.000000
# 5 0.000000 0.000000 0.000000 0.000000 0.052471 0.000000
# 6 0.000000 0.000000 0.000000 0.000000 0.000000 0.049780
#
#
# Mechanical properties :
#
#
# Convention : Reuss Voigt Hill
#
# Bulk Modulus (GPa) = 28.83243 36.83603 32.83423
# Shear Modulus (GPa) = 24.24677 28.94868 26.59773
#
# Velocity S-wave (km/s) = 3.28741 3.59204 3.44309
# Velocity P-wave (km/s) = 5.22114 5.79844 5.51735
#
# Compressibility (1/GPa) = 0.03468317
#
# Stress axis : x y z
#
# Youngs Moduli (GPa) = 42.90353 64.48772 70.07986
#
# Poissons Ratio (x) = -0.25815 0.46689
# Poissons Ratio (y) = -0.17175 0.45842
# Poissons Ratio (z) = 0.28584 0.42184
#
# Static dielectric constant tensor:
#      x y z
#    x 1.829750 0.000000 0.000000 
#    y 0.000000 1.820890 0.000000 
#    z 0.000000 0.000000 1.885600 
# 
# From -- ./inp_files/22944.got.cif
#   From: 2010.05.17/outbox.cif.g08.bks.cpg/sg60_12_cif.got.tgz:22944.got - 2010.06.03 14:59:27.
