data_PCOD9456148
_publ_section_title
;
Structure prediction by ZEFSAII (Michael W. Deem and Ramdas Pophale) SiO2 
 PCOD9456148
Probable space group: P B C N
;
_chemical_formula_sum "Si O2"
_cell_formula_units_Z 64
_cell_length_a 12.444485
_cell_length_b 9.381933
_cell_length_c 22.444571
_cell_angle_alpha 90.000000
_cell_angle_beta 90.000000
_cell_angle_gamma 90.000000
_cell_volume 2620.478281
_symmetry_space_group_name_H-M "P B C N"
_symmetry_group_IT_number 60
_symmetry_cell_setting 'orthorhombic'
loop_
_space_group_symop_operation_xyz
x,y,z
1/2-x,1/2-y,1/2+z
1/2+x,1/2-y,-z
-x,y,1/2-z
-x,-y,-z
1/2+x,1/2+y,1/2-z
1/2-x,1/2+y,z
x,-y,1/2+z
loop_
_atom_site_type_symbol
_atom_site_label
_atom_site_fract_x
_atom_site_fract_y
_atom_site_fract_z
Si Si1 0.389630 0.002807 0.215965
Si Si2 0.092373 0.807623 0.004198
Si Si3 0.677474 0.672483 0.775326
Si Si4 0.403437 0.500907 0.613092
Si Si5 0.822531 0.563490 0.409541
Si Si6 0.734586 0.779709 0.600994
Si Si7 0.590617 0.879761 0.502246
Si Si8 0.636164 0.501035 0.659899
O O1 0.500000 0.974921 0.250000
O O2 0.346900 0.161115 0.233519
O O3 0.398676 0.017405 0.144536
O O4 0.301248 0.880117 0.226909
O O5 0.086354 0.945482 0.045385
O O6 0.133259 0.692107 0.052410
O O7 0.171966 0.787767 0.948872
O O8 0.972726 0.761581 0.984948
O O9 0.629696 0.624761 0.839201
O O10 0.624608 0.576347 0.723502
O O11 0.296477 0.404557 0.615161
O O12 0.520178 0.454696 0.635351
O O13 0.820305 0.430553 0.455603
O O14 0.637947 0.860742 0.567770
O O15 0.690892 0.624648 0.618660
O O16 0.783759 0.867383 0.655714
O O17 0.500000 0.000000 0.500000
#
# Coordination Sequence:
#
# PCOD9456148 Si02
#       8
#     8   8   8   8   8   8   8   8
#     4  11  24  45  74 103 138 185 235 288 354 413
#     4  11  22  40  66  96 133 175 226 278 348 404
#     4  11  25  45  73 105 136 183 238 288 344 420
#     4  11  22  42  70  96 131 181 226 287 339 401
#     4  10  22  41  67  98 136 172 231 282 340 414
#     4  12  26  43  65  99 134 177 222 280 335 415
#     4  10  21  39  62  93 132 174 213 270 339 406
#     4  12  26  45  67  96 141 180 226 276 349 405
#
# _framework density 24.423024000000002
#
# number of rings (size 3 to 8) (size 9 to 14) (size 15 to 20)
#    0.000    1.000    3.750    3.375    0.000    4.500 
#    0.000    5.625    0.000    0.000    0.000    0.000 
#    0.000    0.000    0.000    0.000    0.000    0.000 
#
# Total GULP energy -357977.836164 kJ/mol
# GULP energy per Si atom -5593.403690 kJ/mol
# Density = 2.436744 g / cm^3
# Si number density = 24.423024 Si / 1000 Ang^3
#
#
#
# Elastic Constant Matrix: (Units=GPa)
#
#
# Indices 1 2 3 4 5 6 
#
# 1 112.6501 27.4031 12.9823 0.0000 0.0000 0.0000
# 2 27.4031 41.9439 3.7818 0.0000 0.0000 0.0000
# 3 12.9823 3.7818 94.9870 0.0000 0.0000 0.0000
# 4 0.0000 0.0000 0.0000 33.0913 0.0000 0.0000
# 5 0.0000 0.0000 0.0000 0.0000 41.5773 0.0000
# 6 0.0000 0.0000 0.0000 0.0000 0.0000 23.6090
#
#
#
# Elastic Compliance Matrix: (Units=1/GPa)
#
#
# Indices 1 2 3 4 5 6 
#
# 1 0.010686 -0.006875 -0.001187 0.000000 0.000000 0.000000
# 2 -0.006875 0.028350 -0.000189 0.000000 0.000000 0.000000
# 3 -0.001187 -0.000189 0.010698 0.000000 0.000000 0.000000
# 4 0.000000 0.000000 0.000000 0.030219 0.000000 0.000000
# 5 0.000000 0.000000 0.000000 0.000000 0.024052 0.000000
# 6 0.000000 0.000000 0.000000 0.000000 0.000000 0.042357
#
#
# Mechanical properties :
#
#
# Convention : Reuss Voigt Hill
#
# Bulk Modulus (GPa) = 30.09113 37.54616 33.81864
# Shear Modulus (GPa) = 28.74564 33.34978 31.04771
#
# Velocity S-wave (km/s) = 3.43445 3.69928 3.56932
# Velocity P-wave (km/s) = 5.29857 5.80111 5.55553
#
# Compressibility (1/GPa) = 0.03323239
#
# Stress axis : x y z
#
# Youngs Moduli (GPa) = 93.57946 35.27368 93.47978
#
# Poissons Ratio (x) = 0.24249 0.11094
# Poissons Ratio (y) = 0.64331 0.01768
# Poissons Ratio (z) = 0.11106 0.00667
#
# Static dielectric constant tensor:
#      x y z
#    x 1.962000 0.000000 0.000000 
#    y 0.000000 1.957790 0.000000 
#    z 0.000000 0.000000 1.949030 
# 
# From -- ./inp_files/24317.got.cif
#   From: 2010.05.17/outbox.cif.g08.bks.cpg/sg60_13_cif.got.tgz:24317.got - 2010.06.03 14:59:27.
