data_PCOD9456792
_publ_section_title
;
Structure prediction by ZEFSAII (Michael W. Deem and Ramdas Pophale) SiO2 
 PCOD9456792
Probable space group: P B C N
;
_chemical_formula_sum "Si O2"
_cell_formula_units_Z 56
_cell_length_a 13.780082
_cell_length_b 9.737236
_cell_length_c 19.647444
_cell_angle_alpha 90.000000
_cell_angle_beta 90.000000
_cell_angle_gamma 90.000000
_cell_volume 2636.292278
_symmetry_space_group_name_H-M "P B C N"
_symmetry_group_IT_number 60
_symmetry_cell_setting 'orthorhombic'
loop_
_space_group_symop_operation_xyz
x,y,z
1/2-x,1/2-y,1/2+z
1/2+x,1/2-y,-z
-x,y,1/2-z
-x,-y,-z
1/2+x,1/2+y,1/2-z
1/2-x,1/2+y,z
x,-y,1/2+z
loop_
_atom_site_type_symbol
_atom_site_label
_atom_site_fract_x
_atom_site_fract_y
_atom_site_fract_z
Si Si1 0.789451 0.461631 0.539933
Si Si2 0.537334 0.343873 0.894516
Si Si3 0.046635 0.758615 0.451788
Si Si4 0.638994 0.517378 0.644783
Si Si5 0.816846 0.046070 0.290794
Si Si6 0.181214 0.323737 0.168422
Si Si7 0.179766 0.737923 0.044914
O O1 0.890366 0.379683 0.542598
O O2 0.745811 0.496307 0.613639
O O3 0.796939 0.596561 0.493765
O O4 0.711484 0.360643 0.504903
O O5 0.430573 0.389474 0.874548
O O6 0.609378 0.449690 0.855036
O O7 0.574435 0.198946 0.862877
O O8 0.552592 0.335616 0.974881
O O9 0.093731 0.854015 0.394657
O O10 0.933471 0.737131 0.438570
O O11 0.640972 0.530043 0.725657
O O12 0.717872 0.971817 0.311566
O O13 0.808514 0.207849 0.273308
O O14 0.253840 0.264700 0.110603
#
# Coordination Sequence:
#
# PCOD9456792 Si02
#       7
#     8   8   8   8   8   8   8
#     4  12  24  42  65 101 137 176 217 284 344 394
#     4  10  22  39  68  98 129 176 228 274 335 411
#     4  12  25  40  71 102 136 170 234 285 341 400
#     4  12  24  41  70  98 137 178 227 278 342 408
#     4  10  24  41  67  95 137 177 228 274 334 416
#     4  10  22  40  68  94 134 175 224 271 338 402
#     4  12  24  42  70 100 138 170 229 281 340 406
#
# _framework density 21.241952999999999
#
# number of rings (size 3 to 8) (size 9 to 14) (size 15 to 20)
#    0.857    0.000    4.286    3.000    6.000    0.000 
#    0.000    0.000    0.000    0.000    0.000    0.000 
#    0.000    0.000    0.000    0.000    0.000    0.000 
#
# Total GULP energy -312687.044748 kJ/mol
# GULP energy per Si atom -5583.697228 kJ/mol
# Density = 2.119361 g / cm^3
# Si number density = 21.241953 Si / 1000 Ang^3
#
#
#
# Elastic Constant Matrix: (Units=GPa)
#
#
# Indices 1 2 3 4 5 6 
#
# 1 52.2260 2.4984 -0.0323 0.0000 0.0000 0.0000
# 2 2.4984 51.5184 11.9781 0.0000 0.0000 0.0000
# 3 -0.0323 11.9781 37.4415 0.0000 0.0000 0.0000
# 4 0.0000 0.0000 0.0000 12.1769 0.0000 0.0000
# 5 0.0000 0.0000 0.0000 0.0000 15.0529 0.0000
# 6 0.0000 0.0000 0.0000 0.0000 0.0000 34.7639
#
#
#
# Elastic Compliance Matrix: (Units=1/GPa)
#
#
# Indices 1 2 3 4 5 6 
#
# 1 0.019196 -0.001010 0.000340 0.000000 0.000000 0.000000
# 2 -0.001010 0.021023 -0.006727 0.000000 0.000000 0.000000
# 3 0.000340 -0.006727 0.028861 0.000000 0.000000 0.000000
# 4 0.000000 0.000000 0.000000 0.082123 0.000000 0.000000
# 5 0.000000 0.000000 0.000000 0.000000 0.066433 0.000000
# 6 0.000000 0.000000 0.000000 0.000000 0.000000 0.028765
#
#
# Mechanical properties :
#
#
# Convention : Reuss Voigt Hill
#
# Bulk Modulus (GPa) = 18.42079 18.89712 18.65895
# Shear Modulus (GPa) = 17.90254 20.84818 19.37536
#
# Velocity S-wave (km/s) = 2.90624 3.13623 3.02342
# Velocity P-wave (km/s) = 4.46680 4.69361 4.58161
#
# Compressibility (1/GPa) = 0.05428649
#
# Stress axis : x y z
#
# Youngs Moduli (GPa) = 52.09397 47.56591 34.64939
#
# Poissons Ratio (x) = 0.04804 -0.01177
# Poissons Ratio (y) = 0.05261 0.23307
# Poissons Ratio (z) = -0.01769 0.31996
#
# Static dielectric constant tensor:
#      x y z
#    x 1.774740 0.000000 0.000000 
#    y 0.000000 1.815660 0.000000 
#    z 0.000000 0.000000 1.784740 
# 
# From -- ./inp_files/22891.got.cif
#   From: 2010.05.17/outbox.cif.g08.bks.cpg/sg60_12_cif.got.tgz:22891.got - 2010.06.03 14:59:27.
