data_PCOD9456704
_publ_section_title
;
Structure prediction by ZEFSAII (Michael W. Deem and Ramdas Pophale) SiO2 
 PCOD9456704
Probable space group: P B C N
;
_chemical_formula_sum "Si O2"
_cell_formula_units_Z 52
_cell_length_a 18.212825
_cell_length_b 8.679742
_cell_length_c 14.109290
_cell_angle_alpha 90.000000
_cell_angle_beta 90.000000
_cell_angle_gamma 90.000000
_cell_volume 2230.433559
_symmetry_space_group_name_H-M "P B C N"
_symmetry_group_IT_number 60
_symmetry_cell_setting 'orthorhombic'
loop_
_space_group_symop_operation_xyz
x,y,z
1/2-x,1/2-y,1/2+z
1/2+x,1/2-y,-z
-x,y,1/2-z
-x,-y,-z
1/2+x,1/2+y,1/2-z
1/2-x,1/2+y,z
x,-y,1/2+z
loop_
_atom_site_type_symbol
_atom_site_label
_atom_site_fract_x
_atom_site_fract_y
_atom_site_fract_z
Si Si1 0.093069 0.615315 0.326294
Si Si2 0.000000 0.143194 0.750000
Si Si3 0.373575 0.568484 0.276129
Si Si4 0.609037 0.191840 0.580453
Si Si5 0.785910 0.171326 0.599413
Si Si6 0.352555 0.893244 0.618908
Si Si7 0.799075 0.743195 0.889715
O O1 0.034281 0.751200 0.332390
O O2 0.072440 0.459132 0.376328
O O3 0.170620 0.678055 0.364925
O O4 0.103605 0.587300 0.215137
O O5 0.930986 0.040060 0.777254
O O6 0.414861 0.660208 0.360479
O O7 0.313794 0.463801 0.331357
O O8 0.341636 0.685648 0.199238
O O9 0.697944 0.184850 0.599998
O O10 0.602796 0.175378 0.468697
O O11 0.809548 0.163496 0.488602
O O12 0.286115 0.772888 0.634358
O O13 0.319388 0.063676 0.595621
#
# Coordination Sequence:
#
# PCOD9456704 Si02
#       7
#     8   4   8   8   8   8   8
#     4  11  22  44  62  87 134 165 217 258 320 361
#     4  10  28  46  62  86 120 182 222 272 296 370
#     4  11  24  42  66  89 130 175 214 261 314 368
#     4  11  21  38  67  99 124 164 203 263 324 391
#     4  10  22  38  65 100 134 160 197 262 327 399
#     4  11  24  37  66 104 131 162 200 263 326 393
#     4  11  23  39  63 102 135 159 205 257 328 395
#
# _framework density 23.313853999999999
#
# number of rings (size 3 to 8) (size 9 to 14) (size 15 to 20)
#    0.000    1.231    3.077    2.769   10.769    0.615 
#    0.000    7.692    0.000    0.000    0.000    0.000 
#    0.000    0.000    0.000    0.000    0.000    0.000 
#
# Total GULP energy -290771.811847 kJ/mol
# GULP energy per Si atom -5591.765612 kJ/mol
# Density = 2.326079 g / cm^3
# Si number density = 23.313854 Si / 1000 Ang^3
#
#
#
# Elastic Constant Matrix: (Units=GPa)
#
#
# Indices 1 2 3 4 5 6 
#
# 1 34.8043 16.4678 32.4190 0.0000 0.0000 0.0000
# 2 16.4678 75.3866 10.9534 0.0000 0.0000 0.0000
# 3 32.4190 10.9534 117.7600 0.0000 0.0000 0.0000
# 4 0.0000 0.0000 0.0000 30.4758 0.0000 0.0000
# 5 0.0000 0.0000 0.0000 0.0000 12.3696 0.0000
# 6 0.0000 0.0000 0.0000 0.0000 0.0000 22.4312
#
#
#
# Elastic Compliance Matrix: (Units=1/GPa)
#
#
# Indices 1 2 3 4 5 6 
#
# 1 0.042651 -0.007715 -0.011024 0.000000 0.000000 0.000000
# 2 -0.007715 0.014842 0.000743 0.000000 0.000000 0.000000
# 3 -0.011024 0.000743 0.011458 0.000000 0.000000 0.000000
# 4 0.000000 0.000000 0.000000 0.032813 0.000000 0.000000
# 5 0.000000 0.000000 0.000000 0.000000 0.080843 0.000000
# 6 0.000000 0.000000 0.000000 0.000000 0.000000 0.044581
#
#
# Mechanical properties :
#
#
# Convention : Reuss Voigt Hill
#
# Bulk Modulus (GPa) = 30.34043 38.62568 34.48306
# Shear Modulus (GPa) = 18.23714 24.26271 21.24993
#
# Velocity S-wave (km/s) = 2.79990 3.22949 3.02233
# Velocity P-wave (km/s) = 4.84714 5.52357 5.19637
#
# Compressibility (1/GPa) = 0.03295932
#
# Stress axis : x y z
#
# Youngs Moduli (GPa) = 23.44608 67.37517 87.27836
#
# Poissons Ratio (x) = 0.51981 0.96216
# Poissons Ratio (y) = 0.18089 -0.06488
# Poissons Ratio (z) = 0.25847 -0.05009
#
# Static dielectric constant tensor:
#      x y z
#    x 1.915790 0.000000 0.000000 
#    y 0.000000 1.906770 0.000000 
#    z 0.000000 0.000000 1.868310 
# 
# From -- ./inp_files/17659.got.cif
#   From: 2010.05.17/outbox.cif.g08.bks.cpg/sg60_9_cif.got.tgz:17659.got - 2010.06.03 14:59:27.
