data_PCOD9456424
_publ_section_title
;
Structure prediction by ZEFSAII (Michael W. Deem and Ramdas Pophale) SiO2 
 PCOD9456424
Probable space group: P B C N
;
_chemical_formula_sum "Si O2"
_cell_formula_units_Z 36
_cell_length_a 4.996569
_cell_length_b 12.148492
_cell_length_c 24.183392
_cell_angle_alpha 90.000000
_cell_angle_beta 90.000000
_cell_angle_gamma 90.000000
_cell_volume 1467.950722
_symmetry_space_group_name_H-M "P B C N"
_symmetry_group_IT_number 60
_symmetry_cell_setting 'orthorhombic'
loop_
_space_group_symop_operation_xyz
x,y,z
1/2-x,1/2-y,1/2+z
1/2+x,1/2-y,-z
-x,y,1/2-z
-x,-y,-z
1/2+x,1/2+y,1/2-z
1/2-x,1/2+y,z
x,-y,1/2+z
loop_
_atom_site_type_symbol
_atom_site_label
_atom_site_fract_x
_atom_site_fract_y
_atom_site_fract_z
Si Si1 0.321353 0.652589 0.166160
Si Si2 0.904296 0.888343 0.471580
Si Si3 0.408105 0.208562 0.930711
Si Si4 0.348964 0.974680 0.807048
Si Si5 0.000000 0.317454 0.250000
O O1 0.455493 0.720738 0.116963
O O2 0.549416 0.565227 0.184671
O O3 0.299997 0.740890 0.215821
O O4 0.049936 0.587795 0.151212
O O5 0.892652 0.794543 0.518573
O O6 0.117106 0.845970 0.425911
O O7 0.611131 0.889939 0.445745
O O8 0.000000 0.000000 0.500000
O O9 0.500000 0.940922 0.750000
O O10 0.363391 0.105182 0.796611
#
# Coordination Sequence:
#
# PCOD9456424 Si02
#       5
#     8   8   8   8   4
#     4  12  22  41  59  87 120 154 200 247 280 359
#     4  10  21  42  60  88 122 152 190 252 297 356
#     4  10  23  37  63  89 115 156 198 237 303 348
#     4  10  23  37  56  82 115 154 193 236 289 337
#     4  10  22  38  58  80 118 154 194 236 300 332
#
# _framework density 24.523986000000001
#
# number of rings (size 3 to 8) (size 9 to 14) (size 15 to 20)
#    0.667    0.889    2.222    2.000    0.000    7.111 
#    0.000    0.000    0.000    0.000    0.000    0.000 
#    0.000    0.000    0.000    0.000    0.000    0.000 
#
# Total GULP energy -201027.028189 kJ/mol
# GULP energy per Si atom -5584.084116 kJ/mol
# Density = 2.446817 g / cm^3
# Si number density = 24.523986 Si / 1000 Ang^3
#
#
#
# Elastic Constant Matrix: (Units=GPa)
#
#
# Indices 1 2 3 4 5 6 
#
# 1 96.7286 32.7998 -8.4640 0.0000 0.0000 0.0000
# 2 32.7998 99.7091 -4.4513 0.0000 0.0000 0.0000
# 3 -8.4640 -4.4513 39.3235 0.0000 0.0000 0.0000
# 4 0.0000 0.0000 0.0000 27.0933 0.0000 0.0000
# 5 0.0000 0.0000 0.0000 0.0000 21.3742 0.0000
# 6 0.0000 0.0000 0.0000 0.0000 0.0000 10.3316
#
#
#
# Elastic Compliance Matrix: (Units=1/GPa)
#
#
# Indices 1 2 3 4 5 6 
#
# 1 0.011808 -0.003790 0.002113 0.000000 0.000000 0.000000
# 2 -0.003790 0.011297 0.000463 0.000000 0.000000 0.000000
# 3 0.002113 0.000463 0.025937 0.000000 0.000000 0.000000
# 4 0.000000 0.000000 0.000000 0.036910 0.000000 0.000000
# 5 0.000000 0.000000 0.000000 0.000000 0.046785 0.000000
# 6 0.000000 0.000000 0.000000 0.000000 0.000000 0.096791
#
#
# Mechanical properties :
#
#
# Convention : Reuss Voigt Hill
#
# Bulk Modulus (GPa) = 21.45325 30.61448 26.03386
# Shear Modulus (GPa) = 20.20249 26.15159 23.17704
#
# Velocity S-wave (km/s) = 2.87328 3.26907 3.07754
# Velocity P-wave (km/s) = 4.44685 5.17298 4.82360
#
# Compressibility (1/GPa) = 0.04661298
#
# Stress axis : x y z
#
# Youngs Moduli (GPa) = 84.68661 88.52219 38.55467
#
# Poissons Ratio (x) = 0.33551 -0.08145
# Poissons Ratio (y) = 0.32097 -0.01785
# Poissons Ratio (z) = -0.17891 -0.04098
#
# Static dielectric constant tensor:
#      x y z
#    x 1.948850 0.000000 0.000000 
#    y 0.000000 1.926330 0.000000 
#    z 0.000000 0.000000 2.072720 
# 
# From -- ./inp_files/25593.got.cif
#   From: 2010.05.17/outbox.cif.g08.bks.cpg/sg60_13_cif.got.tgz:25593.got - 2010.06.03 14:59:27.
