data_PCOD9456893
_publ_section_title
;
Structure prediction by ZEFSAII (Michael W. Deem and Ramdas Pophale) SiO2 
 PCOD9456893
Probable space group: P B C N
;
_chemical_formula_sum "Si O2"
_cell_formula_units_Z 40
_cell_length_a 8.360287
_cell_length_b 8.842167
_cell_length_c 22.391408
_cell_angle_alpha 90.000000
_cell_angle_beta 90.000000
_cell_angle_gamma 90.000000
_cell_volume 1655.241259
_symmetry_space_group_name_H-M "P B C N"
_symmetry_group_IT_number 60
_symmetry_cell_setting 'orthorhombic'
loop_
_space_group_symop_operation_xyz
x,y,z
1/2-x,1/2-y,1/2+z
1/2+x,1/2-y,-z
-x,y,1/2-z
-x,-y,-z
1/2+x,1/2+y,1/2-z
1/2-x,1/2+y,z
x,-y,1/2+z
loop_
_atom_site_type_symbol
_atom_site_label
_atom_site_fract_x
_atom_site_fract_y
_atom_site_fract_z
Si Si1 0.953214 0.469372 0.915103
Si Si2 0.885695 0.657509 0.808455
Si Si3 0.552830 0.501144 0.818519
Si Si4 0.828649 0.030314 0.567837
Si Si5 0.772775 0.789706 0.483368
O O1 0.943054 0.513685 0.846426
O O2 0.848110 0.600133 0.948134
O O3 0.872144 0.316444 0.938359
O O4 0.141080 0.487483 0.925497
O O5 0.697302 0.619676 0.810309
O O6 0.903824 0.826722 0.835027
O O7 0.000000 0.656340 0.750000
O O8 0.500000 0.488771 0.750000
O O9 0.425195 0.545428 0.870206
O O10 0.816493 0.180933 0.529448
O O11 0.884931 0.893415 0.525533
#
# Coordination Sequence:
#
# PCOD9456893 Si02
#       5
#     8   8   8   8   8
#     4  11  23  43  69 104 147 190 242 298 362 434
#     4  11  25  46  71 102 139 184 240 295 357 431
#     4  11  26  47  73 102 138 187 241 297 359 427
#     4  11  24  44  70 104 143 188 241 300 362 432
#     4  10  22  40  71 110 148 191 236 294 365 438
#
# _framework density 24.165662999999999
#
# number of rings (size 3 to 8) (size 9 to 14) (size 15 to 20)
#    0.000    1.200    0.000    6.000    0.000    8.800 
#    0.000   11.000    0.000    0.000    0.000    0.000 
#    0.000    0.000    0.000    0.000    0.000    0.000 
#
# Total GULP energy -223386.730832 kJ/mol
# GULP energy per Si atom -5584.668271 kJ/mol
# Density = 2.411066 g / cm^3
# Si number density = 24.165663 Si / 1000 Ang^3
#
#
#
# Elastic Constant Matrix: (Units=GPa)
#
#
# Indices 1 2 3 4 5 6 
#
# 1 162.2607 50.7482 62.6206 0.0000 0.0000 0.0000
# 2 50.7482 109.5314 45.7808 0.0000 0.0000 0.0000
# 3 62.6206 45.7808 128.3712 0.0000 0.0000 0.0000
# 4 0.0000 0.0000 0.0000 -4.8122 0.0000 0.0000
# 5 0.0000 0.0000 0.0000 0.0000 48.6503 0.0000
# 6 0.0000 0.0000 0.0000 0.0000 0.0000 17.5053
#
#
#
# Elastic Compliance Matrix: (Units=1/GPa)
#
#
# Indices 1 2 3 4 5 6 
#
# 1 0.008127 -0.002478 -0.003081 0.000000 0.000000 0.000000
# 2 -0.002478 0.011484 -0.002887 0.000000 0.000000 0.000000
# 3 -0.003081 -0.002887 0.010322 0.000000 0.000000 0.000000
# 4 0.000000 0.000000 0.000000 -0.207804 0.000000 0.000000
# 5 0.000000 0.000000 0.000000 0.000000 0.020555 0.000000
# 6 0.000000 0.000000 0.000000 0.000000 0.000000 0.057126
#
#
# Mechanical properties :
#
#
# Convention : Reuss Voigt Hill
#
# Bulk Modulus (GPa) = 76.67131 79.82916 78.25024
# Shear Modulus (GPa) = -63.32962 28.33625 -17.49668
#
# Velocity S-wave (km/s) = -5.12478 3.42802 -2.69370
# Velocity P-wave (km/s) = 1.79486 6.98385 4.77246
#
# Compressibility (1/GPa) = 0.01304269
#
# Stress axis : x y z
#
# Youngs Moduli (GPa) = 123.05046 87.07422 96.87758
#
# Poissons Ratio (x) = 0.21574 0.29845
# Poissons Ratio (y) = 0.30488 0.27969
# Poissons Ratio (z) = 0.37908 0.25139
#
# Static dielectric constant tensor:
#      x y z
#    x 2.304250 0.000000 0.000000 
#    y 0.000000 1.947910 0.000000 
#    z 0.000000 0.000000 2.022300 
# 
# From -- ./inp_files/23840.got.cif
#   From: 2010.05.17/outbox.cif.g08.bks.cpg/sg60_12_cif.got.tgz:23840.got - 2010.06.03 14:59:27.
