data_PCOD9456673
_publ_section_title
;
Structure prediction by ZEFSAII (Michael W. Deem and Ramdas Pophale) SiO2 
 PCOD9456673
Probable space group: P B C N
;
_chemical_formula_sum "Si O2"
_cell_formula_units_Z 48
_cell_length_a 16.694878
_cell_length_b 16.556649
_cell_length_c 9.421706
_cell_angle_alpha 90.000000
_cell_angle_beta 90.000000
_cell_angle_gamma 90.000000
_cell_volume 2604.265393
_symmetry_space_group_name_H-M "P B C N"
_symmetry_group_IT_number 60
_symmetry_cell_setting 'orthorhombic'
loop_
_space_group_symop_operation_xyz
x,y,z
1/2-x,1/2-y,1/2+z
1/2+x,1/2-y,-z
-x,y,1/2-z
-x,-y,-z
1/2+x,1/2+y,1/2-z
1/2-x,1/2+y,z
x,-y,1/2+z
loop_
_atom_site_type_symbol
_atom_site_label
_atom_site_fract_x
_atom_site_fract_y
_atom_site_fract_z
Si Si1 0.639130 0.309754 0.484848
Si Si2 0.841927 0.648373 0.672578
Si Si3 0.560896 0.016103 0.125371
Si Si4 0.836341 0.821534 0.147792
Si Si5 0.183030 0.649291 0.491746
Si Si6 0.509862 0.583635 0.579621
O O1 0.634384 0.227532 0.578644
O O2 0.649604 0.300809 0.314199
O O3 0.720232 0.358918 0.526866
O O4 0.556821 0.358656 0.490556
O O5 0.895813 0.569628 0.651348
O O6 0.749112 0.635189 0.631504
O O7 0.839062 0.658998 0.842497
O O8 0.500000 0.042693 0.250000
O O9 0.500000 0.000000 0.000000
O O10 0.628811 0.080830 0.081657
O O11 0.903748 0.875160 0.074459
O O12 0.835017 0.735238 0.075520
O O13 0.500000 0.573291 0.750000
O O14 0.500000 0.500000 0.500000
#
# Coordination Sequence:
#
# PCOD9456673 Si02
#       6
#     8   8   8   8   8   8
#     4   9  21  40  64  88 120 160 199 251 301 362
#     4  10  22  41  60  88 122 157 204 249 304 363
#     4  12  26  40  59  91 124 163 205 256 309 367
#     4   9  21  40  63  87 119 161 199 250 301 363
#     4  10  22  41  61  89 122 158 204 246 309 363
#     4  10  22  38  59  89 118 152 198 242 296 353
#
# _framework density 18.4313
#
# number of rings (size 3 to 8) (size 9 to 14) (size 15 to 20)
#    0.000    2.000    1.667    0.000    7.000    2.000 
#    0.000    0.000    0.000    0.000    0.000    0.000 
#    0.000    0.000    0.000    0.000    0.000    0.000 
#
# Total GULP energy -267385.440535 kJ/mol
# GULP energy per Si atom -5570.530011 kJ/mol
# Density = 1.838935 g / cm^3
# Si number density = 18.431300 Si / 1000 Ang^3
#
#
#
# Elastic Constant Matrix: (Units=GPa)
#
#
# Indices 1 2 3 4 5 6 
#
# 1 142.8922 77.9270 52.6172 0.0000 0.0000 0.0000
# 2 77.9270 72.9002 30.2048 0.0000 0.0000 0.0000
# 3 52.6172 30.2048 53.9549 0.0000 0.0000 0.0000
# 4 0.0000 0.0000 0.0000 33.2273 0.0000 0.0000
# 5 0.0000 0.0000 0.0000 0.0000 30.0672 0.0000
# 6 0.0000 0.0000 0.0000 0.0000 0.0000 32.3664
#
#
#
# Elastic Compliance Matrix: (Units=1/GPa)
#
#
# Indices 1 2 3 4 5 6 
#
# 1 0.020154 -0.017447 -0.009887 0.000000 0.000000 0.000000
# 2 -0.017447 0.032964 -0.001439 0.000000 0.000000 0.000000
# 3 -0.009887 -0.001439 0.028982 0.000000 0.000000 0.000000
# 4 0.000000 0.000000 0.000000 0.030096 0.000000 0.000000
# 5 0.000000 0.000000 0.000000 0.000000 0.033259 0.000000
# 6 0.000000 0.000000 0.000000 0.000000 0.000000 0.030896
#
#
# Mechanical properties :
#
#
# Convention : Reuss Voigt Hill
#
# Bulk Modulus (GPa) = 40.72875 65.69394 53.21134
# Shear Modulus (GPa) = 20.65429 26.39874 23.52652
#
# Velocity S-wave (km/s) = 3.35118 3.78865 3.57661
# Velocity P-wave (km/s) = 6.09258 7.40665 6.78152
#
# Compressibility (1/GPa) = 0.02455268
#
# Stress axis : x y z
#
# Youngs Moduli (GPa) = 49.61853 30.33638 34.50470
#
# Poissons Ratio (x) = 0.52928 0.34115
# Poissons Ratio (y) = 0.86569 0.04966
# Poissons Ratio (z) = 0.49058 0.04366
#
# Static dielectric constant tensor:
#      x y z
#    x 1.675430 0.000000 0.000000 
#    y 0.000000 1.608280 0.000000 
#    z 0.000000 0.000000 1.733200 
# 
# From -- ./inp_files/6695.got.cif
#   From: 2010.05.17/outbox.cif.g08.bks.cpg/sg60_4_cif.got.tgz:6695.got - 2010.06.03 14:59:27.
