data_PCOD9456715
_publ_section_title
;
Structure prediction by ZEFSAII (Michael W. Deem and Ramdas Pophale) SiO2 
 PCOD9456715
Probable space group: P B C N
;
_chemical_formula_sum "Si O2"
_cell_formula_units_Z 48
_cell_length_a 16.448652
_cell_length_b 9.303815
_cell_length_c 13.083258
_cell_angle_alpha 90.000000
_cell_angle_beta 90.000000
_cell_angle_gamma 90.000000
_cell_volume 2002.199204
_symmetry_space_group_name_H-M "P B C N"
_symmetry_group_IT_number 60
_symmetry_cell_setting 'orthorhombic'
loop_
_space_group_symop_operation_xyz
x,y,z
1/2-x,1/2-y,1/2+z
1/2+x,1/2-y,-z
-x,y,1/2-z
-x,-y,-z
1/2+x,1/2+y,1/2-z
1/2-x,1/2+y,z
x,-y,1/2+z
loop_
_atom_site_type_symbol
_atom_site_label
_atom_site_fract_x
_atom_site_fract_y
_atom_site_fract_z
Si Si1 0.362049 0.684838 0.475426
Si Si2 0.074351 0.280463 0.674411
Si Si3 0.379350 0.907815 0.102624
Si Si4 0.718470 0.588607 0.771095
Si Si5 0.779660 0.472713 0.050024
Si Si6 0.086624 0.848833 0.744598
O O1 0.427059 0.692915 0.566595
O O2 0.307254 0.542703 0.476175
O O3 0.302057 0.819415 0.498798
O O4 0.394966 0.703740 0.360445
O O5 0.078282 0.447572 0.642579
O O6 0.158706 0.225979 0.726856
O O7 0.000000 0.257018 0.750000
O O8 0.287610 0.903952 0.145295
O O9 0.420012 0.773348 0.157945
O O10 0.356964 0.927154 0.982412
O O11 0.768475 0.563009 0.668247
O O12 0.659113 0.454039 0.784276
O O13 0.000000 0.925883 0.750000
#
# Coordination Sequence:
#
# PCOD9456715 Si02
#       6
#     8   8   8   8   8   8
#     4  10  22  42  64  94 124 166 218 260 326 378
#     4  11  24  43  63  95 132 168 207 266 326 387
#     4  11  22  42  66  94 126 166 216 263 313 377
#     4  11  22  42  66  94 126 166 216 263 313 377
#     4  10  22  38  66  96 120 160 220 270 308 376
#     4  11  24  43  63  95 132 168 207 266 326 387
#
# _framework density 23.973638999999999
#
# number of rings (size 3 to 8) (size 9 to 14) (size 15 to 20)
#    0.000    1.333    3.333    2.000    4.667    0.000 
#    6.000    5.000    0.000    0.000    0.000    0.000 
#    0.000    0.000    0.000    0.000    0.000    0.000 
#
# Total GULP energy -268142.948594 kJ/mol
# GULP energy per Si atom -5586.311429 kJ/mol
# Density = 2.391907 g / cm^3
# Si number density = 23.973639 Si / 1000 Ang^3
#
#
#
# Elastic Constant Matrix: (Units=GPa)
#
#
# Indices 1 2 3 4 5 6 
#
# 1 72.5179 9.6372 -11.0504 0.0000 0.0000 0.0000
# 2 9.6372 55.6397 1.8670 0.0000 0.0000 0.0000
# 3 -11.0504 1.8670 44.9790 0.0000 0.0000 0.0000
# 4 0.0000 0.0000 0.0000 3439.5458 0.0000 0.0000
# 5 0.0000 0.0000 0.0000 0.0000 37.7307 0.0000
# 6 0.0000 0.0000 0.0000 0.0000 0.0000 16.2124
#
#
#
# Elastic Compliance Matrix: (Units=1/GPa)
#
#
# Indices 1 2 3 4 5 6 
#
# 1 0.014713 -0.002673 0.003726 0.000000 0.000000 0.000000
# 2 -0.002673 0.018484 -0.001424 0.000000 0.000000 0.000000
# 3 0.003726 -0.001424 0.023207 0.000000 0.000000 0.000000
# 4 0.000000 0.000000 0.000000 0.000291 0.000000 0.000000
# 5 0.000000 0.000000 0.000000 0.000000 0.026504 0.000000
# 6 0.000000 0.000000 0.000000 0.000000 0.000000 0.061681
#
#
# Mechanical properties :
#
#
# Convention : Reuss Voigt Hill
#
# Bulk Modulus (GPa) = 17.96632 19.33824 18.65228
# Shear Modulus (GPa) = 30.45522 710.20997 370.33260
#
# Velocity S-wave (km/s) = 3.56808 17.23048 12.44228
# Velocity P-wave (km/s) = 4.94827 20.09817 14.63595
#
# Compressibility (1/GPa) = 0.05565970
#
# Stress axis : x y z
#
# Youngs Moduli (GPa) = 67.96858 54.10199 43.09047
#
# Poissons Ratio (x) = 0.14463 -0.16054
# Poissons Ratio (y) = 0.18170 0.06136
# Poissons Ratio (z) = -0.25322 0.07704
#
# Static dielectric constant tensor:
#      x y z
#    x 1.876220 0.000000 0.000000 
#    y 0.000000 1.973170 0.000000 
#    z 0.000000 0.000000 2.117980 
# 
# From -- ./inp_files/17323.got.cif
#   From: 2010.05.17/outbox.cif.g08.bks.cpg/sg60_9_cif.got.tgz:17323.got - 2010.06.03 14:59:27.
