data_PCOD9456642
_publ_section_title
;
Structure prediction by ZEFSAII (Michael W. Deem and Ramdas Pophale) SiO2 
 PCOD9456642
Probable space group: P B C N
;
_chemical_formula_sum "Si O2"
_cell_formula_units_Z 52
_cell_length_a 12.248693
_cell_length_b 20.518798
_cell_length_c 9.031794
_cell_angle_alpha 90.000000
_cell_angle_beta 90.000000
_cell_angle_gamma 90.000000
_cell_volume 2269.946854
_symmetry_space_group_name_H-M "P B C N"
_symmetry_group_IT_number 60
_symmetry_cell_setting 'orthorhombic'
loop_
_space_group_symop_operation_xyz
x,y,z
1/2-x,1/2-y,1/2+z
1/2+x,1/2-y,-z
-x,y,1/2-z
-x,-y,-z
1/2+x,1/2+y,1/2-z
1/2-x,1/2+y,z
x,-y,1/2+z
loop_
_atom_site_type_symbol
_atom_site_label
_atom_site_fract_x
_atom_site_fract_y
_atom_site_fract_z
Si Si1 0.836098 0.241842 0.478812
Si Si2 0.657170 0.684907 0.789916
Si Si3 0.500000 0.198348 0.750000
Si Si4 0.332706 0.089084 0.800271
Si Si5 0.925353 0.103224 0.026257
Si Si6 0.225780 0.507638 0.553168
Si Si7 0.153808 0.108553 0.161226
O O1 0.854302 0.236729 0.656115
O O2 0.742203 0.288726 0.414557
O O3 0.801962 0.169914 0.426635
O O4 0.941725 0.261074 0.380207
O O5 0.713330 0.621163 0.717856
O O6 0.562623 0.654588 0.892444
O O7 0.411902 0.149792 0.823443
O O8 0.353752 0.056382 0.639986
O O9 0.328467 0.033143 0.921922
O O10 0.878035 0.133654 0.177066
O O11 0.045627 0.082366 0.076766
O O12 0.835499 0.047968 0.989850
O O13 0.264581 0.451418 0.666396
#
# Coordination Sequence:
#
# PCOD9456642 Si02
#       7
#     8   8   4   8   8   8   8
#     4  11  22  41  67  90 135 171 223 272 338 394
#     4  10  22  41  65  94 125 179 218 273 331 409
#     4  10  24  44  66 100 132 182 216 292 320 388
#     4  10  22  41  67  92 132 169 229 264 340 385
#     4  10  22  37  60  93 133 168 217 270 331 394
#     4  11  20  40  63  92 128 179 212 273 325 406
#     4  11  21  37  60  95 129 173 211 271 335 392
#
# _framework density 22.908024000000001
#
# number of rings (size 3 to 8) (size 9 to 14) (size 15 to 20)
#    0.000    1.538    3.077    2.308    0.000    2.462 
#    0.000    0.000    0.000    1.846    0.000    0.000 
#    0.000    0.000    0.000    0.000    0.000    0.000 
#
# Total GULP energy -290156.669906 kJ/mol
# GULP energy per Si atom -5579.935960 kJ/mol
# Density = 2.285588 g / cm^3
# Si number density = 22.908024 Si / 1000 Ang^3
#
#
#
# Elastic Constant Matrix: (Units=GPa)
#
#
# Indices 1 2 3 4 5 6 
#
# 1 25.2854 -0.7857 24.5658 0.0000 0.0000 0.0000
# 2 -0.7857 65.7292 47.6521 0.0000 0.0000 0.0000
# 3 24.5658 47.6521 158.8068 0.0000 0.0000 0.0000
# 4 0.0000 0.0000 0.0000 49.6398 0.0000 0.0000
# 5 0.0000 0.0000 0.0000 0.0000 5.6954 0.0000
# 6 0.0000 0.0000 0.0000 0.0000 0.0000 31.2515
#
#
#
# Elastic Compliance Matrix: (Units=1/GPa)
#
#
# Indices 1 2 3 4 5 6 
#
# 1 0.049525 0.007855 -0.010018 0.000000 0.000000 0.000000
# 2 0.007855 0.020690 -0.007423 0.000000 0.000000 0.000000
# 3 -0.010018 -0.007423 0.010074 0.000000 0.000000 0.000000
# 4 0.000000 0.000000 0.000000 0.020145 0.000000 0.000000
# 5 0.000000 0.000000 0.000000 0.000000 0.175580 0.000000
# 6 0.000000 0.000000 0.000000 0.000000 0.000000 0.031998
#
#
# Mechanical properties :
#
#
# Convention : Reuss Voigt Hill
#
# Bulk Modulus (GPa) = 16.36226 43.63177 29.99701
# Shear Modulus (GPa) = 14.38612 29.20997 21.79804
#
# Velocity S-wave (km/s) = 2.50870 3.57472 3.08806
# Velocity P-wave (km/s) = 3.94329 6.01050 5.08309
#
# Compressibility (1/GPa) = 0.06111626
#
# Stress axis : x y z
#
# Youngs Moduli (GPa) = 20.19162 48.33366 99.26452
#
# Poissons Ratio (x) = -0.37965 0.99444
# Poissons Ratio (y) = -0.15860 0.73686
# Poissons Ratio (z) = 0.20228 0.35879
#
# Static dielectric constant tensor:
#      x y z
#    x 1.910260 0.000000 0.000000 
#    y 0.000000 1.829140 0.000000 
#    z 0.000000 0.000000 1.911370 
# 
# From -- ./inp_files/6102.got.cif
#   From: 2010.05.17/outbox.cif.g08.bks.cpg/sg60_4_cif.got.tgz:6102.got - 2010.06.03 14:59:27.
