data_PCOD9456698
_publ_section_title
;
Structure prediction by ZEFSAII (Michael W. Deem and Ramdas Pophale) SiO2 
 PCOD9456698
Probable space group: P B C N
;
_chemical_formula_sum "Si O2"
_cell_formula_units_Z 48
_cell_length_a 26.105084
_cell_length_b 5.164397
_cell_length_c 13.835307
_cell_angle_alpha 90.000000
_cell_angle_beta 90.000000
_cell_angle_gamma 90.000000
_cell_volume 1865.234826
_symmetry_space_group_name_H-M "P B C N"
_symmetry_group_IT_number 60
_symmetry_cell_setting 'orthorhombic'
loop_
_space_group_symop_operation_xyz
x,y,z
1/2-x,1/2-y,1/2+z
1/2+x,1/2-y,-z
-x,y,1/2-z
-x,-y,-z
1/2+x,1/2+y,1/2-z
1/2-x,1/2+y,z
x,-y,1/2+z
loop_
_atom_site_type_symbol
_atom_site_label
_atom_site_fract_x
_atom_site_fract_y
_atom_site_fract_z
Si Si1 0.546123 0.848300 0.587246
Si Si2 0.215033 0.261622 0.826880
Si Si3 0.972698 0.771590 0.885542
Si Si4 0.857774 0.641772 0.567133
Si Si5 0.419705 0.539115 0.290326
Si Si6 0.215047 0.791626 0.104396
O O1 0.541081 0.663427 0.494995
O O2 0.575416 0.762326 0.684544
O O3 0.491750 0.972604 0.613310
O O4 0.585294 0.054182 0.540817
O O5 0.260370 0.477943 0.840750
O O6 0.173319 0.388852 0.896936
O O7 0.196744 0.255069 0.714901
O O8 0.926848 0.855990 0.816318
O O9 0.025000 0.892128 0.841206
O O10 0.871362 0.839441 0.654718
O O11 0.827904 0.757110 0.476576
O O12 0.258485 0.570356 0.092428
#
# Coordination Sequence:
#
# PCOD9456698 Si02
#       6
#     8   8   8   8   8   8
#     4  10  22  41  65  92 130 171 214 273 322 397
#     4  10  23  43  67  92 129 176 218 270 334 401
#     4   9  21  43  63  89 129 171 219 254 330 396
#     4  11  24  37  61  98 126 162 219 270 329 389
#     4  10  22  38  63  96 124 170 213 269 329 383
#     4  10  23  43  67  91 129 175 218 269 337 399
#
# _framework density 25.734027000000001
#
# number of rings (size 3 to 8) (size 9 to 14) (size 15 to 20)
#    0.000    2.000    0.000    1.500    7.000    5.333 
#    3.000    0.000    0.000    0.000    0.000    0.000 
#    0.000    0.000    0.000    0.000    0.000    0.000 
#
# Total GULP energy -267993.728588 kJ/mol
# GULP energy per Si atom -5583.202679 kJ/mol
# Density = 2.567545 g / cm^3
# Si number density = 25.734027 Si / 1000 Ang^3
#
#
#
# Elastic Constant Matrix: (Units=GPa)
#
#
# Indices 1 2 3 4 5 6 
#
# 1 64.1764 8.0043 6.5559 0.0000 0.0000 0.0000
# 2 8.0043 51.9344 12.6614 0.0000 0.0000 0.0000
# 3 6.5559 12.6614 92.0711 0.0000 0.0000 0.0000
# 4 0.0000 0.0000 0.0000 25.4822 0.0000 0.0000
# 5 0.0000 0.0000 0.0000 0.0000 37.6041 0.0000
# 6 0.0000 0.0000 0.0000 0.0000 0.0000 32.7803
#
#
#
# Elastic Compliance Matrix: (Units=1/GPa)
#
#
# Indices 1 2 3 4 5 6 
#
# 1 0.015948 -0.002257 -0.000825 0.000000 0.000000 0.000000
# 2 -0.002257 0.020242 -0.002623 0.000000 0.000000 0.000000
# 3 -0.000825 -0.002623 0.011281 0.000000 0.000000 0.000000
# 4 0.000000 0.000000 0.000000 0.039243 0.000000 0.000000
# 5 0.000000 0.000000 0.000000 0.000000 0.026593 0.000000
# 6 0.000000 0.000000 0.000000 0.000000 0.000000 0.030506
#
#
# Mechanical properties :
#
#
# Convention : Reuss Voigt Hill
#
# Bulk Modulus (GPa) = 27.73087 29.18057 28.45572
# Shear Modulus (GPa) = 29.89659 31.23733 30.56696
#
# Velocity S-wave (km/s) = 3.41215 3.48782 3.45019
# Velocity P-wave (km/s) = 5.13060 5.25202 5.19167
#
# Compressibility (1/GPa) = 0.03606090
#
# Stress axis : x y z
#
# Youngs Moduli (GPa) = 62.70444 49.40143 88.64751
#
# Poissons Ratio (x) = 0.11149 0.07315
# Poissons Ratio (y) = 0.14151 0.23252
# Poissons Ratio (z) = 0.05175 0.12958
#
# Static dielectric constant tensor:
#      x y z
#    x 2.039020 0.000000 0.000000 
#    y 0.000000 2.514030 0.000000 
#    z 0.000000 0.000000 2.122040 
# 
# From -- ./inp_files/18047.got.cif
#   From: 2010.05.17/outbox.cif.g08.bks.cpg/sg60_10_cif.got.tgz:18047.got - 2010.06.03 14:59:27.
