data_PCOD9456039
_publ_section_title
;
Structure prediction by ZEFSAII (Michael W. Deem and Ramdas Pophale) SiO2 
 PCOD9456039
Probable space group: P B C N
;
_chemical_formula_sum "Si O2"
_cell_formula_units_Z 40
_cell_length_a 8.705921
_cell_length_b 23.657283
_cell_length_c 8.513497
_cell_angle_alpha 90.000000
_cell_angle_beta 90.000000
_cell_angle_gamma 90.000000
_cell_volume 1753.426534
_symmetry_space_group_name_H-M "P B C N"
_symmetry_group_IT_number 60
_symmetry_cell_setting 'orthorhombic'
loop_
_space_group_symop_operation_xyz
x,y,z
1/2-x,1/2-y,1/2+z
1/2+x,1/2-y,-z
-x,y,1/2-z
-x,-y,-z
1/2+x,1/2+y,1/2-z
1/2-x,1/2+y,z
x,-y,1/2+z
loop_
_atom_site_type_symbol
_atom_site_label
_atom_site_fract_x
_atom_site_fract_y
_atom_site_fract_z
Si Si1 0.678397 0.376705 0.771941
Si Si2 0.391373 0.799770 0.901790
Si Si3 0.817441 0.578482 0.749483
Si Si4 0.175491 0.011865 0.044417
Si Si5 0.693064 0.187495 0.578374
O O1 0.500000 0.362341 0.750000
O O2 0.788244 0.354839 0.633289
O O3 0.687253 0.442808 0.813165
O O4 0.739126 0.343481 0.924641
O O5 0.500000 0.791040 0.750000
O O6 0.276673 0.747122 0.909476
O O7 0.511187 0.804997 0.044938
O O8 0.749271 0.546318 0.898379
O O9 0.757478 0.542985 0.599543
O O10 0.772876 0.643773 0.719205
O O11 0.000000 0.575377 0.750000
O O12 0.000000 0.000000 0.000000
#
# Coordination Sequence:
#
# PCOD9456039 Si02
#       5
#     8   8   8   8   8
#     4  10  21  38  62  89 124 169 215 269 331 387
#     4  10  22  40  60  90 127 167 216 272 331 388
#     4  11  25  42  66  98 132 171 218 271 325 388
#     4  11  24  44  67  96 132 175 219 268 327 390
#     4  10  23  40  64  93 126 170 221 270 325 393
#
# _framework density 22.812477000000001
#
# number of rings (size 3 to 8) (size 9 to 14) (size 15 to 20)
#    0.000    1.600    0.000    3.600    0.000   14.400 
#    0.000    0.000    0.000    0.000    0.000    0.000 
#    0.000    0.000    0.000    0.000    0.000    0.000 
#
# Total GULP energy -223884.473274 kJ/mol
# GULP energy per Si atom -5597.111832 kJ/mol
# Density = 2.276055 g / cm^3
# Si number density = 22.812477 Si / 1000 Ang^3
#
#
#
# Elastic Constant Matrix: (Units=GPa)
#
#
# Indices 1 2 3 4 5 6 
#
# 1 130.8711 66.0420 15.0383 0.0000 0.0000 0.0000
# 2 66.0420 178.3179 52.9554 0.0000 0.0000 0.0000
# 3 15.0383 52.9554 39.8184 0.0000 0.0000 0.0000
# 4 0.0000 0.0000 0.0000 26.8520 0.0000 0.0000
# 5 0.0000 0.0000 0.0000 0.0000 35.8668 0.0000
# 6 0.0000 0.0000 0.0000 0.0000 0.0000 36.1766
#
#
#
# Elastic Compliance Matrix: (Units=1/GPa)
#
#
# Indices 1 2 3 4 5 6 
#
# 1 0.009475 -0.004043 0.001799 0.000000 0.000000 0.000000
# 2 -0.004043 0.010994 -0.013094 0.000000 0.000000 0.000000
# 3 0.001799 -0.013094 0.041849 0.000000 0.000000 0.000000
# 4 0.000000 0.000000 0.000000 0.037241 0.000000 0.000000
# 5 0.000000 0.000000 0.000000 0.000000 0.027881 0.000000
# 6 0.000000 0.000000 0.000000 0.000000 0.000000 0.027642
#
#
# Mechanical properties :
#
#
# Convention : Reuss Voigt Hill
#
# Bulk Modulus (GPa) = 31.60496 68.56431 50.08464
# Shear Modulus (GPa) = 25.47042 34.11052 29.79047
#
# Velocity S-wave (km/s) = 3.34505 3.87105 3.61762
# Velocity P-wave (km/s) = 5.36689 7.07820 6.28110
#
# Compressibility (1/GPa) = 0.03164060
#
# Stress axis : x y z
#
# Youngs Moduli (GPa) = 105.54318 90.95822 23.89548
#
# Poissons Ratio (x) = 0.36777 -0.04299
# Poissons Ratio (y) = 0.42675 0.31289
# Poissons Ratio (z) = -0.18987 1.19103
#
# Static dielectric constant tensor:
#      x y z
#    x 1.781450 0.000000 0.000000 
#    y 0.000000 1.839540 0.000000 
#    z 0.000000 0.000000 1.919260 
# 
# From -- ./inp_files/3877.got.cif
#   From: 2010.05.17/outbox.cif.g08.bks.cpg/sg60_2_cif.got.tgz:3877.got - 2010.06.03 14:59:27.
