data_PCOD9456699
_publ_section_title
;
Structure prediction by ZEFSAII (Michael W. Deem and Ramdas Pophale) SiO2 
 PCOD9456699
Probable space group: P B C N
;
_chemical_formula_sum "Si O2"
_cell_formula_units_Z 64
_cell_length_a 30.012755
_cell_length_b 7.518263
_cell_length_c 11.969813
_cell_angle_alpha 90.000000
_cell_angle_beta 90.000000
_cell_angle_gamma 90.000000
_cell_volume 2700.913916
_symmetry_space_group_name_H-M "P B C N"
_symmetry_group_IT_number 60
_symmetry_cell_setting 'orthorhombic'
loop_
_space_group_symop_operation_xyz
x,y,z
1/2-x,1/2-y,1/2+z
1/2+x,1/2-y,-z
-x,y,1/2-z
-x,-y,-z
1/2+x,1/2+y,1/2-z
1/2-x,1/2+y,z
x,-y,1/2+z
loop_
_atom_site_type_symbol
_atom_site_label
_atom_site_fract_x
_atom_site_fract_y
_atom_site_fract_z
Si Si1 0.170861 0.201603 0.067464
Si Si2 0.921623 0.695338 0.976174
Si Si3 0.451974 0.763238 0.795694
Si Si4 0.550899 0.803400 0.231401
Si Si5 0.689771 0.165051 0.699953
Si Si6 0.359657 0.338361 0.179872
Si Si7 0.109995 0.657594 0.956830
Si Si8 0.211567 0.073981 0.852824
O O1 0.129402 0.266584 0.995398
O O2 0.182691 0.335727 0.166504
O O3 0.152999 0.030302 0.132223
O O4 0.207758 0.146726 0.978739
O O5 0.927573 0.745711 0.849049
O O6 0.951387 0.777212 0.072027
O O7 0.924298 0.483561 0.989778
O O8 0.500000 0.709055 0.750000
O O9 0.407970 0.680607 0.738589
O O10 0.447712 0.979610 0.781012
O O11 0.500000 0.751702 0.250000
O O12 0.577879 0.727236 0.125257
O O13 0.647371 0.093300 0.632127
O O14 0.736834 0.074917 0.678206
O O15 0.694209 0.370982 0.657545
O O16 0.319342 0.309305 0.268276
O O17 0.364161 0.228854 0.064632
#
# Coordination Sequence:
#
# PCOD9456699 Si02
#       8
#     8   8   8   8   8   8   8   8
#     4  11  24  44  66  89 134 167 212 262 321 384
#     4  11  22  40  66  93 129 172 215 267 320 382
#     4  10  22  38  65  97 130 170 219 268 325 383
#     4  10  22  38  64 101 130 167 219 274 321 374
#     4  11  26  43  65  96 125 165 216 261 324 376
#     4  11  23  44  64  91 134 174 207 265 325 380
#     4  11  23  40  66  93 128 167 215 265 322 383
#     4  11  26  43  66  95 128 169 209 268 317 388
#
# _framework density 23.695682999999999
#
# number of rings (size 3 to 8) (size 9 to 14) (size 15 to 20)
#    0.000    1.250    5.000    0.000    5.250    2.500 
#    0.000    1.250    0.000    0.000    0.000    0.000 
#    0.000    0.000    0.000    0.000    0.000    0.000 
#
# Total GULP energy -357355.342303 kJ/mol
# GULP energy per Si atom -5583.677223 kJ/mol
# Density = 2.364175 g / cm^3
# Si number density = 23.695683 Si / 1000 Ang^3
#
#
#
# Elastic Constant Matrix: (Units=GPa)
#
#
# Indices 1 2 3 4 5 6 
#
# 1 103.9544 -0.2230 15.6157 0.0000 0.0000 0.0000
# 2 -0.2230 23.2712 17.5803 0.0000 0.0000 0.0000
# 3 15.6157 17.5803 110.4503 0.0000 0.0000 0.0000
# 4 0.0000 0.0000 0.0000 17.2846 0.0000 0.0000
# 5 0.0000 0.0000 0.0000 0.0000 41.6347 0.0000
# 6 0.0000 0.0000 0.0000 0.0000 0.0000 17.2994
#
#
#
# Elastic Compliance Matrix: (Units=1/GPa)
#
#
# Indices 1 2 3 4 5 6 
#
# 1 0.009863 0.001305 -0.001602 0.000000 0.000000 0.000000
# 2 0.001305 0.049017 -0.007987 0.000000 0.000000 0.000000
# 3 -0.001602 -0.007987 0.010552 0.000000 0.000000 0.000000
# 4 0.000000 0.000000 0.000000 0.057855 0.000000 0.000000
# 5 0.000000 0.000000 0.000000 0.000000 0.024018 0.000000
# 6 0.000000 0.000000 0.000000 0.000000 0.000000 0.057806
#
#
# Mechanical properties :
#
#
# Convention : Reuss Voigt Hill
#
# Bulk Modulus (GPa) = 18.91632 33.73578 26.32605
# Shear Modulus (GPa) = 20.55073 28.89059 24.72066
#
# Velocity S-wave (km/s) = 2.94815 3.49554 3.23345
# Velocity P-wave (km/s) = 4.42596 5.52809 5.00744
#
# Compressibility (1/GPa) = 0.05286441
#
# Stress axis : x y z
#
# Youngs Moduli (GPa) = 101.38826 20.40089 94.77261
#
# Poissons Ratio (x) = -0.02662 0.15184
# Poissons Ratio (y) = -0.13230 0.75691
# Poissons Ratio (z) = 0.16244 0.16293
#
# Static dielectric constant tensor:
#      x y z
#    x 1.885140 0.000000 0.000000 
#    y 0.000000 2.031040 0.000000 
#    z 0.000000 0.000000 1.917750 
# 
# From -- ./inp_files/13395.got.cif
#   From: 2010.05.17/outbox.cif.g08.bks.cpg/sg60_7_cif.got.tgz:13395.got - 2010.06.03 14:59:27.
