data_PCOD9456597
_publ_section_title
;
Structure prediction by ZEFSAII (Michael W. Deem and Ramdas Pophale) SiO2 
 PCOD9456597
Probable space group: P B C N
;
_chemical_formula_sum "Si O2"
_cell_formula_units_Z 56
_cell_length_a 30.521279
_cell_length_b 5.604620
_cell_length_c 13.207473
_cell_angle_alpha 90.000000
_cell_angle_beta 90.000000
_cell_angle_gamma 90.000000
_cell_volume 2259.272586
_symmetry_space_group_name_H-M "P B C N"
_symmetry_group_IT_number 60
_symmetry_cell_setting 'orthorhombic'
loop_
_space_group_symop_operation_xyz
x,y,z
1/2-x,1/2-y,1/2+z
1/2+x,1/2-y,-z
-x,y,1/2-z
-x,-y,-z
1/2+x,1/2+y,1/2-z
1/2-x,1/2+y,z
x,-y,1/2+z
loop_
_atom_site_type_symbol
_atom_site_label
_atom_site_fract_x
_atom_site_fract_y
_atom_site_fract_z
Si Si1 0.982201 0.694476 0.076907
Si Si2 0.836732 0.872279 0.527000
Si Si3 0.814546 0.214609 0.819262
Si Si4 0.227307 0.208929 0.886815
Si Si5 0.454088 0.805290 0.294545
Si Si6 0.856940 0.286857 0.252402
Si Si7 0.934121 0.074751 0.986782
O O1 0.962417 0.581890 0.177085
O O2 0.942442 0.801563 0.012255
O O3 0.000000 0.500000 0.000000
O O4 0.026616 0.849852 0.087681
O O5 0.805048 0.778526 0.438509
O O6 0.843709 0.731514 0.632576
O O7 0.883953 0.868846 0.471527
O O8 0.819364 0.132403 0.563675
O O9 0.776500 0.213616 0.735480
O O10 0.840902 0.457923 0.793017
O O11 0.836640 0.953798 0.799572
O O12 0.244814 0.470448 0.912798
O O13 0.500000 0.720599 0.250000
O O14 0.409503 0.772635 0.234254
O O15 0.445730 0.680955 0.402066
#
# Coordination Sequence:
#
# PCOD9456597 Si02
#       7
#     8   8   8   8   8   8   8
#     4   9  19  35  57  85 125 174 226 286 335 403
#     4  10  24  45  75 105 141 198 231 298 372 434
#     4  11  25  46  72 105 140 188 235 295 364 436
#     4  11  25  47  73 106 144 174 227 292 352 441
#     4  10  22  35  57  87 129 191 229 294 359 403
#     4  10  25  44  66 105 148 186 251 303 348 434
#     4   9  20  40  58  91 132 174 239 291 343 428
#
# _framework density 24.786739000000001
#
# number of rings (size 3 to 8) (size 9 to 14) (size 15 to 20)
#    0.000    2.000    0.000    1.714    8.000    8.571 
#    5.143    0.000    0.000    0.000    0.000    0.000 
#    0.000    0.000    0.000    0.000    0.000    0.000 
#
# Total GULP energy -312318.446444 kJ/mol
# GULP energy per Si atom -5577.115115 kJ/mol
# Density = 2.473032 g / cm^3
# Si number density = 24.786739 Si / 1000 Ang^3
#
#
#
# Elastic Constant Matrix: (Units=GPa)
#
#
# Indices 1 2 3 4 5 6 
#
# 1 81.7804 44.3379 19.1554 0.0000 0.0000 0.0000
# 2 44.3379 125.5916 40.9753 0.0000 0.0000 0.0000
# 3 19.1554 40.9753 106.5517 0.0000 0.0000 0.0000
# 4 0.0000 0.0000 0.0000 24.4878 0.0000 0.0000
# 5 0.0000 0.0000 0.0000 0.0000 36.2758 0.0000
# 6 0.0000 0.0000 0.0000 0.0000 0.0000 29.8862
#
#
#
# Elastic Compliance Matrix: (Units=1/GPa)
#
#
# Indices 1 2 3 4 5 6 
#
# 1 0.015176 -0.005109 -0.000764 0.000000 0.000000 0.000000
# 2 -0.005109 0.010824 -0.003244 0.000000 0.000000 0.000000
# 3 -0.000764 -0.003244 0.010770 0.000000 0.000000 0.000000
# 4 0.000000 0.000000 0.000000 0.040837 0.000000 0.000000
# 5 0.000000 0.000000 0.000000 0.000000 0.027567 0.000000
# 6 0.000000 0.000000 0.000000 0.000000 0.000000 0.033460
#
#
# Mechanical properties :
#
#
# Convention : Reuss Voigt Hill
#
# Bulk Modulus (GPa) = 53.94444 58.09567 56.02005
# Shear Modulus (GPa) = 30.66612 32.09364 31.37988
#
# Velocity S-wave (km/s) = 3.52120 3.60222 3.56194
# Velocity P-wave (km/s) = 6.19213 6.38674 6.29019
#
# Compressibility (1/GPa) = 0.01853759
#
# Stress axis : x y z
#
# Youngs Moduli (GPa) = 65.89162 92.38525 92.85060
#
# Poissons Ratio (x) = 0.47196 0.07092
# Poissons Ratio (y) = 0.33661 0.30122
# Poissons Ratio (z) = 0.05033 0.29971
#
# Static dielectric constant tensor:
#      x y z
#    x 2.023140 0.000000 0.000000 
#    y 0.000000 2.087060 0.000000 
#    z 0.000000 0.000000 1.927350 
# 
# From -- ./inp_files/18188.got.cif
#   From: 2010.05.17/outbox.cif.g08.bks.cpg/sg60_10_cif.got.tgz:18188.got - 2010.06.03 14:59:27.
