data_PCOD9456910
_publ_section_title
;
Structure prediction by ZEFSAII (Michael W. Deem and Ramdas Pophale) SiO2 
 PCOD9456910
Probable space group: P B C N
;
_chemical_formula_sum "Si O2"
_cell_formula_units_Z 60
_cell_length_a 19.898436
_cell_length_b 12.492527
_cell_length_c 11.614422
_cell_angle_alpha 90.000000
_cell_angle_beta 90.000000
_cell_angle_gamma 90.000000
_cell_volume 2887.133334
_symmetry_space_group_name_H-M "P B C N"
_symmetry_group_IT_number 60
_symmetry_cell_setting 'orthorhombic'
loop_
_space_group_symop_operation_xyz
x,y,z
1/2-x,1/2-y,1/2+z
1/2+x,1/2-y,-z
-x,y,1/2-z
-x,-y,-z
1/2+x,1/2+y,1/2-z
1/2-x,1/2+y,z
x,-y,1/2+z
loop_
_atom_site_type_symbol
_atom_site_label
_atom_site_fract_x
_atom_site_fract_y
_atom_site_fract_z
Si Si1 0.003264 0.372818 0.532302
Si Si2 0.608906 0.834209 0.160485
Si Si3 0.939267 0.059586 0.568576
Si Si4 0.819329 0.144344 0.419507
Si Si5 0.500000 0.266458 0.250000
Si Si6 0.126225 0.364744 0.089898
Si Si7 0.789828 0.482482 0.042708
Si Si8 0.172762 0.898423 0.835655
O O1 0.027162 0.319615 0.652988
O O2 0.925380 0.343433 0.513355
O O3 0.000000 0.500000 0.500000
O O4 0.050689 0.326505 0.433070
O O5 0.586105 0.857046 0.290766
O O6 0.649911 0.723915 0.152743
O O7 0.657899 0.932556 0.131210
O O8 0.891017 0.113784 0.473793
O O9 0.961770 0.147555 0.664800
O O10 0.890156 0.971819 0.626877
O O11 0.000000 0.000000 0.500000
O O12 0.819848 0.270600 0.401822
O O13 0.812472 0.084260 0.298794
O O14 0.759885 0.109654 0.501575
O O15 0.165709 0.472189 0.061718
O O16 0.739547 0.571121 0.094089
#
# Coordination Sequence:
#
# PCOD9456910 Si02
#       8
#     8   8   8   8   4   8   8   8
#     4  12  26  44  67 101 138 181 239 296 361 433
#     4  11  24  42  66  96 132 182 230 288 364 424
#     4  11  22  42  68  98 138 174 234 290 351 423
#     4  10  22  41  61  94 132 171 223 282 345 422
#     4  12  26  44  70 108 138 188 234 294 364 424
#     4  11  23  43  67  93 137 177 228 293 349 425
#     4  11  22  41  66  95 131 180 235 286 353 427
#     4  10  23  40  66  96 133 178 226 286 357 430
#
# _framework density 20.781859000000001
#
# number of rings (size 3 to 8) (size 9 to 14) (size 15 to 20)
#    0.000    1.067    2.667    3.600    1.867    1.067 
#    2.400    2.667    0.000    0.000    0.000    0.000 
#    0.000    0.000    0.000    0.000    0.000    0.000 
#
# Total GULP energy -334377.546041 kJ/mol
# GULP energy per Si atom -5572.959101 kJ/mol
# Density = 2.073456 g / cm^3
# Si number density = 20.781859 Si / 1000 Ang^3
#
#
#
# Elastic Constant Matrix: (Units=GPa)
#
#
# Indices 1 2 3 4 5 6 
#
# 1 60.6332 7.1250 12.5573 0.0000 0.0000 0.0000
# 2 7.1250 86.7271 21.1477 0.0000 0.0000 0.0000
# 3 12.5573 21.1477 97.1183 0.0000 0.0000 0.0000
# 4 0.0000 0.0000 0.0000 36.8854 0.0000 0.0000
# 5 0.0000 0.0000 0.0000 0.0000 32.5174 0.0000
# 6 0.0000 0.0000 0.0000 0.0000 0.0000 16.7914
#
#
#
# Elastic Compliance Matrix: (Units=1/GPa)
#
#
# Indices 1 2 3 4 5 6 
#
# 1 0.017014 -0.000910 -0.002002 0.000000 0.000000 0.000000
# 2 -0.000910 0.012226 -0.002545 0.000000 0.000000 0.000000
# 3 -0.002002 -0.002545 0.011110 0.000000 0.000000 0.000000
# 4 0.000000 0.000000 0.000000 0.027111 0.000000 0.000000
# 5 0.000000 0.000000 0.000000 0.000000 0.030753 0.000000
# 6 0.000000 0.000000 0.000000 0.000000 0.000000 0.059554
#
#
# Mechanical properties :
#
#
# Convention : Reuss Voigt Hill
#
# Bulk Modulus (GPa) = 33.97050 36.23763 35.10406
# Shear Modulus (GPa) = 28.01249 30.81542 29.41396
#
# Velocity S-wave (km/s) = 3.67540 3.85490 3.76622
# Velocity P-wave (km/s) = 5.86457 6.10644 5.98673
#
# Compressibility (1/GPa) = 0.02943731
#
# Stress axis : x y z
#
# Youngs Moduli (GPa) = 58.77485 81.79544 90.01194
#
# Poissons Ratio (x) = 0.07440 0.18019
# Poissons Ratio (y) = 0.05346 0.22904
# Poissons Ratio (z) = 0.11766 0.20813
#
# Static dielectric constant tensor:
#      x y z
#    x 1.716280 0.000000 0.000000 
#    y 0.000000 1.790210 0.000000 
#    z 0.000000 0.000000 1.754640 
# 
# From -- ./inp_files/12885.got.cif
#   From: 2010.05.17/outbox.cif.g08.bks.cpg/sg60_7_cif.got.tgz:12885.got - 2010.06.03 14:59:27.
