data_PCOD9456033
_publ_section_title
;
Structure prediction by ZEFSAII (Michael W. Deem and Ramdas Pophale) SiO2 
 PCOD9456033
Probable space group: P B C N
;
_chemical_formula_sum "Si O2"
_cell_formula_units_Z 24
_cell_length_a 8.841375
_cell_length_b 23.573937
_cell_length_c 5.233849
_cell_angle_alpha 90.000000
_cell_angle_beta 90.000000
_cell_angle_gamma 90.000000
_cell_volume 1090.870302
_symmetry_space_group_name_H-M "P B C N"
_symmetry_group_IT_number 60
_symmetry_cell_setting 'orthorhombic'
loop_
_space_group_symop_operation_xyz
x,y,z
1/2-x,1/2-y,1/2+z
1/2+x,1/2-y,-z
-x,y,1/2-z
-x,-y,-z
1/2+x,1/2+y,1/2-z
1/2-x,1/2+y,z
x,-y,1/2+z
loop_
_atom_site_type_symbol
_atom_site_label
_atom_site_fract_x
_atom_site_fract_y
_atom_site_fract_z
Si Si1 0.315761 0.468871 0.219781
Si Si2 0.178554 0.157759 0.705461
Si Si3 0.104103 0.726050 0.001162
O O1 0.500000 0.470684 0.250000
O O2 0.264135 0.487926 0.500254
O O3 0.270057 0.405306 0.137285
O O4 0.270399 0.178257 0.953484
O O5 0.185367 0.212560 0.521990
O O6 0.000000 0.152561 0.750000
O O7 0.000000 0.725223 0.750000
O O8 0.000000 0.718398 0.250000
#
# Coordination Sequence:
#
# PCOD9456033 Si02
#       3
#     8   8   8
#     4   9  19  33  53  82 112 146 193 247 293 341
#     4  10  21  38  62  87 118 156 200 245 299 364
#     4  11  24  39  59  91 126 158 196 251 312 363
#
# _framework density 22.000779999999999
#
# number of rings (size 3 to 8) (size 9 to 14) (size 15 to 20)
#    0.000    2.000    0.000    4.000    0.000   14.667 
#    0.000    0.000    0.000    6.000    0.000    0.000 
#    0.000    0.000    0.000    0.000    0.000    0.000 
#
# Total GULP energy -133878.780635 kJ/mol
# GULP energy per Si atom -5578.282526 kJ/mol
# Density = 2.195071 g / cm^3
# Si number density = 22.000780 Si / 1000 Ang^3
#
#
#
# Elastic Constant Matrix: (Units=GPa)
#
#
# Indices 1 2 3 4 5 6 
#
# 1 68.0780 26.8343 45.6362 0.0000 0.0000 0.0000
# 2 26.8343 108.0647 17.0550 0.0000 0.0000 0.0000
# 3 45.6362 17.0550 134.1751 0.0000 0.0000 0.0000
# 4 0.0000 0.0000 0.0000 32.4250 0.0000 0.0000
# 5 0.0000 0.0000 0.0000 0.0000 28.4599 0.0000
# 6 0.0000 0.0000 0.0000 0.0000 0.0000 9.4322
#
#
#
# Elastic Compliance Matrix: (Units=1/GPa)
#
#
# Indices 1 2 3 4 5 6 
#
# 1 0.020670 -0.004106 -0.006509 0.000000 0.000000 0.000000
# 2 -0.004106 0.010259 0.000092 0.000000 0.000000 0.000000
# 3 -0.006509 0.000092 0.009655 0.000000 0.000000 0.000000
# 4 0.000000 0.000000 0.000000 0.030840 0.000000 0.000000
# 5 0.000000 0.000000 0.000000 0.000000 0.035137 0.000000
# 6 0.000000 0.000000 0.000000 0.000000 0.000000 0.106020
#
#
# Mechanical properties :
#
#
# Convention : Reuss Voigt Hill
#
# Bulk Modulus (GPa) = 51.17613 54.37431 52.77522
# Shear Modulus (GPa) = 20.82135 28.78292 24.80213
#
# Velocity S-wave (km/s) = 3.07968 3.62092 3.36122
# Velocity P-wave (km/s) = 5.99646 6.49999 6.25329
#
# Compressibility (1/GPa) = 0.01954036
#
# Stress axis : x y z
#
# Youngs Moduli (GPa) = 48.37832 97.47895 103.57393
#
# Poissons Ratio (x) = 0.40021 0.67413
# Poissons Ratio (y) = 0.19862 -0.00957
# Poissons Ratio (z) = 0.31488 -0.00901
#
# Static dielectric constant tensor:
#      x y z
#    x 1.848250 0.000000 0.000000 
#    y 0.000000 1.792980 0.000000 
#    z 0.000000 0.000000 1.814320 
# 
# From -- ./inp_files/223.got.cif
#   From: 2010.05.17/outbox.cif.g08.bks.cpg/sg60_1_cif.got.tgz:223.got - 2010.06.03 14:59:27.
