data_PCOD9456629
_publ_section_title
;
Structure prediction by ZEFSAII (Michael W. Deem and Ramdas Pophale) SiO2 
 PCOD9456629
Probable space group: P B C N
;
_chemical_formula_sum "Si O2"
_cell_formula_units_Z 52
_cell_length_a 6.895009
_cell_length_b 20.060865
_cell_length_c 18.596382
_cell_angle_alpha 90.000000
_cell_angle_beta 90.000000
_cell_angle_gamma 90.000000
_cell_volume 2572.248671
_symmetry_space_group_name_H-M "P B C N"
_symmetry_group_IT_number 60
_symmetry_cell_setting 'orthorhombic'
loop_
_space_group_symop_operation_xyz
x,y,z
1/2-x,1/2-y,1/2+z
1/2+x,1/2-y,-z
-x,y,1/2-z
-x,-y,-z
1/2+x,1/2+y,1/2-z
1/2-x,1/2+y,z
x,-y,1/2+z
loop_
_atom_site_type_symbol
_atom_site_label
_atom_site_fract_x
_atom_site_fract_y
_atom_site_fract_z
Si Si1 0.500000 0.907079 0.250000
Si Si2 0.872291 0.870346 0.678429
Si Si3 0.168833 0.958811 0.459093
Si Si4 0.386478 0.624411 0.817187
Si Si5 0.751757 0.625858 0.409250
Si Si6 0.525925 0.224702 0.165168
Si Si7 0.560075 0.024528 0.143955
O O1 0.323395 0.863931 0.280097
O O2 0.481570 0.959172 0.183889
O O3 0.731203 0.811213 0.651801
O O4 0.000000 0.857267 0.750000
O O5 0.033321 0.879319 0.617813
O O6 0.729705 0.934522 0.685872
O O7 0.105567 0.925200 0.383925
O O8 0.247932 0.899159 0.509041
O O9 0.341859 0.006551 0.432242
O O10 0.000000 0.000000 0.500000
O O11 0.500000 0.593836 0.750000
O O12 0.467494 0.695904 0.840036
O O13 0.858761 0.693921 0.385524
O O14 0.881178 0.572658 0.366754
O O15 0.500000 0.208441 0.250000
#
# Coordination Sequence:
#
# PCOD9456629 Si02
#       7
#     4   8   8   8   8   8   8
#     4  10  22  36  64  98 122 168 214 270 322 380
#     4  11  20  34  64  92 126 167 218 275 317 387
#     4  11  23  43  63  95 133 172 213 270 345 398
#     4  10  25  45  66  94 129 175 224 269 329 402
#     4  11  22  39  62  92 129 172 210 275 323 389
#     4  10  22  41  62  91 122 168 223 268 326 385
#     4  10  22  37  60  94 131 166 216 260 336 389
#
# _framework density 20.215774
#
# number of rings (size 3 to 8) (size 9 to 14) (size 15 to 20)
#    0.000    1.538    3.077    1.385    5.385    2.462 
#    2.769    0.000    0.000    0.000    0.000    0.000 
#    0.000    0.000    0.000    0.000    0.000    0.000 
#
# Total GULP energy -289906.045921 kJ/mol
# GULP energy per Si atom -5575.116268 kJ/mol
# Density = 2.016976 g / cm^3
# Si number density = 20.215774 Si / 1000 Ang^3
#
#
#
# Elastic Constant Matrix: (Units=GPa)
#
#
# Indices 1 2 3 4 5 6 
#
# 1 84.4893 24.9291 36.4833 0.0000 0.0000 0.0000
# 2 24.9291 58.1018 25.1927 0.0000 0.0000 0.0000
# 3 36.4833 25.1927 81.3663 0.0000 0.0000 0.0000
# 4 0.0000 0.0000 0.0000 17.5327 0.0000 0.0000
# 5 0.0000 0.0000 0.0000 0.0000 40.4638 0.0000
# 6 0.0000 0.0000 0.0000 0.0000 0.0000 37.6709
#
#
#
# Elastic Compliance Matrix: (Units=1/GPa)
#
#
# Indices 1 2 3 4 5 6 
#
# 1 0.015519 -0.004206 -0.005656 0.000000 0.000000 0.000000
# 2 -0.004206 0.021020 -0.004622 0.000000 0.000000 0.000000
# 3 -0.005656 -0.004622 0.016257 0.000000 0.000000 0.000000
# 4 0.000000 0.000000 0.000000 0.057036 0.000000 0.000000
# 5 0.000000 0.000000 0.000000 0.000000 0.024713 0.000000
# 6 0.000000 0.000000 0.000000 0.000000 0.000000 0.026546
#
#
# Mechanical properties :
#
#
# Convention : Reuss Voigt Hill
#
# Bulk Modulus (GPa) = 41.96856 44.12974 43.04915
# Shear Modulus (GPa) = 25.25198 28.29029 26.77114
#
# Velocity S-wave (km/s) = 3.53813 3.74494 3.64300
# Velocity P-wave (km/s) = 6.12344 6.36994 6.24791
#
# Compressibility (1/GPa) = 0.02382736
#
# Stress axis : x y z
#
# Youngs Moduli (GPa) = 64.43588 47.57362 61.51029
#
# Poissons Ratio (x) = 0.20010 0.34792
# Poissons Ratio (y) = 0.27103 0.28432
# Poissons Ratio (z) = 0.36447 0.21990
#
# Static dielectric constant tensor:
#      x y z
#    x 1.739480 0.000000 0.000000 
#    y 0.000000 1.732680 0.000000 
#    z 0.000000 0.000000 1.629890 
# 
# From -- ./inp_files/21657.got.cif
#   From: 2010.05.17/outbox.cif.g08.bks.cpg/sg60_11_cif.got.tgz:21657.got - 2010.06.03 14:59:27.
