data_PCOD9456948
_publ_section_title
;
Structure prediction by ZEFSAII (Michael W. Deem and Ramdas Pophale) SiO2 
 PCOD9456948
Probable space group: P B C N
;
_chemical_formula_sum "Si O2"
_cell_formula_units_Z 40
_cell_length_a 6.438277
_cell_length_b 23.873909
_cell_length_c 12.730416
_cell_angle_alpha 90.000000
_cell_angle_beta 90.000000
_cell_angle_gamma 90.000000
_cell_volume 1956.752005
_symmetry_space_group_name_H-M "P B C N"
_symmetry_group_IT_number 60
_symmetry_cell_setting 'orthorhombic'
loop_
_space_group_symop_operation_xyz
x,y,z
1/2-x,1/2-y,1/2+z
1/2+x,1/2-y,-z
-x,y,1/2-z
-x,-y,-z
1/2+x,1/2+y,1/2-z
1/2-x,1/2+y,z
x,-y,1/2+z
loop_
_atom_site_type_symbol
_atom_site_label
_atom_site_fract_x
_atom_site_fract_y
_atom_site_fract_z
Si Si1 0.191296 0.326971 0.998865
Si Si2 0.845697 0.370304 0.838280
Si Si3 0.543830 0.069916 0.873342
Si Si4 0.703371 0.533104 0.465035
Si Si5 0.949695 0.773642 0.856667
O O1 0.187253 0.379593 0.079948
O O2 0.143162 0.270633 0.062407
O O3 0.384586 0.310210 0.924218
O O4 0.000015 0.345536 0.925775
O O5 0.712486 0.317216 0.806202
O O6 0.000000 0.393705 0.750000
O O7 0.841599 0.512565 0.904412
O O8 0.500000 0.076106 0.750000
O O9 0.326886 0.061230 0.937190
O O10 0.812073 0.916117 0.883187
O O11 0.500000 0.500000 0.500000
O O12 0.000000 0.739572 0.750000
#
# Coordination Sequence:
#
# PCOD9456948 Si02
#       5
#     8   8   8   8   8
#     4  11  23  40  62  93 131 168 217 273 316 396
#     4  11  22  40  63  95 127 167 222 269 328 389
#     4  10  22  42  63  92 131 170 212 262 325 382
#     4  10  22  41  65  93 130 166 213 270 320 389
#     4  12  23  39  65  92 127 174 217 268 335 387
#
# _framework density 20.442039999999999
#
# number of rings (size 3 to 8) (size 9 to 14) (size 15 to 20)
#    0.000    1.200    4.000    2.400    0.000    0.800 
#    3.600    0.000    0.000    0.000    0.000    0.000 
#    0.000    0.000    0.000    0.000    0.000    0.000 
#
# Total GULP energy -222773.123278 kJ/mol
# GULP energy per Si atom -5569.328082 kJ/mol
# Density = 2.039551 g / cm^3
# Si number density = 20.442040 Si / 1000 Ang^3
#
#
#
# Elastic Constant Matrix: (Units=GPa)
#
#
# Indices 1 2 3 4 5 6 
#
# 1 39.7460 14.9732 23.0030 0.0000 0.0000 0.0000
# 2 14.9732 95.6016 34.3040 0.0000 0.0000 0.0000
# 3 23.0030 34.3040 131.8294 0.0000 0.0000 0.0000
# 4 0.0000 0.0000 0.0000 23.4966 0.0000 0.0000
# 5 0.0000 0.0000 0.0000 0.0000 25.9070 0.0000
# 6 0.0000 0.0000 0.0000 0.0000 0.0000 30.5029
#
#
#
# Elastic Compliance Matrix: (Units=1/GPa)
#
#
# Indices 1 2 3 4 5 6 
#
# 1 0.028735 -0.002980 -0.004239 0.000000 0.000000 0.000000
# 2 -0.002980 0.011846 -0.002563 0.000000 0.000000 0.000000
# 3 -0.004239 -0.002563 0.008992 0.000000 0.000000 0.000000
# 4 0.000000 0.000000 0.000000 0.042559 0.000000 0.000000
# 5 0.000000 0.000000 0.000000 0.000000 0.038600 0.000000
# 6 0.000000 0.000000 0.000000 0.000000 0.000000 0.032784
#
#
# Mechanical properties :
#
#
# Convention : Reuss Voigt Hill
#
# Bulk Modulus (GPa) = 33.32035 45.74862 39.53448
# Shear Modulus (GPa) = 25.89568 28.97441 27.43505
#
# Velocity S-wave (km/s) = 3.56305 3.76891 3.66743
# Velocity P-wave (km/s) = 5.76736 6.43179 6.10861
#
# Compressibility (1/GPa) = 0.03001169
#
# Stress axis : x y z
#
# Youngs Moduli (GPa) = 34.80032 84.41461 111.20968
#
# Poissons Ratio (x) = 0.25152 0.47139
# Poissons Ratio (y) = 0.10369 0.28499
# Poissons Ratio (z) = 0.14751 0.21633
#
# Static dielectric constant tensor:
#      x y z
#    x 1.803390 0.000000 0.000000 
#    y 0.000000 1.706380 0.000000 
#    z 0.000000 0.000000 1.765870 
# 
# From -- ./inp_files/13809.got.cif
#   From: 2010.05.17/outbox.cif.g08.bks.cpg/sg60_7_cif.got.tgz:13809.got - 2010.06.03 14:59:27.
