data_PCOD9456432
_publ_section_title
;
Structure prediction by ZEFSAII (Michael W. Deem and Ramdas Pophale) SiO2 
 PCOD9456432
Probable space group: P B C N
;
_chemical_formula_sum "Si O2"
_cell_formula_units_Z 32
_cell_length_a 7.991547
_cell_length_b 14.914706
_cell_length_c 12.689701
_cell_angle_alpha 90.000000
_cell_angle_beta 90.000000
_cell_angle_gamma 90.000000
_cell_volume 1512.505436
_symmetry_space_group_name_H-M "P B C N"
_symmetry_group_IT_number 60
_symmetry_cell_setting 'orthorhombic'
loop_
_space_group_symop_operation_xyz
x,y,z
1/2-x,1/2-y,1/2+z
1/2+x,1/2-y,-z
-x,y,1/2-z
-x,-y,-z
1/2+x,1/2+y,1/2-z
1/2-x,1/2+y,z
x,-y,1/2+z
loop_
_atom_site_type_symbol
_atom_site_label
_atom_site_fract_x
_atom_site_fract_y
_atom_site_fract_z
Si Si1 0.666651 0.107964 0.318522
Si Si2 0.339112 0.453103 0.052849
Si Si3 0.991805 0.778092 0.425434
Si Si4 0.688694 0.678296 0.118484
O O1 0.500000 0.086818 0.250000
O O2 0.385142 0.192670 0.110436
O O3 0.806986 0.140294 0.234952
O O4 0.732337 0.024500 0.384504
O O5 0.411627 0.369274 0.119380
O O6 0.500000 0.500000 0.000000
O O7 0.243526 0.401859 0.958123
O O8 0.178097 0.758490 0.388476
O O9 0.973833 0.791999 0.552191
#
# Coordination Sequence:
#
# PCOD9456432 Si02
#       4
#     8   8   8   8
#     4  10  21  42  62  95 132 168 223 275 334 400
#     4  10  22  41  63  93 129 172 221 272 335 407
#     4   9  20  41  60  92 128 167 213 272 332 386
#     4   9  21  41  62  91 130 167 212 280 318 407
#
# _framework density 21.156949999999998
#
# number of rings (size 3 to 8) (size 9 to 14) (size 15 to 20)
#    1.500    1.000    0.000    1.500    0.000    5.000 
#   22.500    0.000    0.000    0.000    0.000    0.000 
#    0.000    0.000    0.000    0.000    0.000    0.000 
#
# Total GULP energy -178222.811047 kJ/mol
# GULP energy per Si atom -5569.462845 kJ/mol
# Density = 2.110880 g / cm^3
# Si number density = 21.156950 Si / 1000 Ang^3
#
#
#
# Elastic Constant Matrix: (Units=GPa)
#
#
# Indices 1 2 3 4 5 6 
#
# 1 61.5527 34.2019 8.3562 0.0000 0.0000 0.0000
# 2 34.2019 143.5938 24.5308 0.0000 0.0000 0.0000
# 3 8.3562 24.5308 74.4159 0.0000 0.0000 0.0000
# 4 0.0000 0.0000 0.0000 25.8368 0.0000 0.0000
# 5 0.0000 0.0000 0.0000 0.0000 29.6650 0.0000
# 6 0.0000 0.0000 0.0000 0.0000 0.0000 27.3107
#
#
#
# Elastic Compliance Matrix: (Units=1/GPa)
#
#
# Indices 1 2 3 4 5 6 
#
# 1 0.018756 -0.004353 -0.000671 0.000000 0.000000 0.000000
# 2 -0.004353 0.008390 -0.002277 0.000000 0.000000 0.000000
# 3 -0.000671 -0.002277 0.014264 0.000000 0.000000 0.000000
# 4 0.000000 0.000000 0.000000 0.038705 0.000000 0.000000
# 5 0.000000 0.000000 0.000000 0.000000 0.033710 0.000000
# 6 0.000000 0.000000 0.000000 0.000000 0.000000 0.036616
#
#
# Mechanical properties :
#
#
# Convention : Reuss Voigt Hill
#
# Bulk Modulus (GPa) = 37.30236 45.97113 41.63674
# Shear Modulus (GPa) = 28.73936 30.72739 29.73338
#
# Velocity S-wave (km/s) = 3.68963 3.81511 3.75290
# Velocity P-wave (km/s) = 5.98504 6.41736 6.20497
#
# Compressibility (1/GPa) = 0.02680796
#
# Stress axis : x y z
#
# Youngs Moduli (GPa) = 53.31637 119.19224 70.10694
#
# Poissons Ratio (x) = 0.51881 0.04706
# Poissons Ratio (y) = 0.23207 0.15963
# Poissons Ratio (z) = 0.03579 0.27139
#
# Static dielectric constant tensor:
#      x y z
#    x 1.827310 0.000000 0.000000 
#    y 0.000000 1.762930 0.000000 
#    z 0.000000 0.000000 1.786450 
# 
# From -- ./inp_files/9585.got.cif
#   From: 2010.05.17/outbox.cif.g08.bks.cpg/sg60_5_cif.got.tgz:9585.got - 2010.06.03 14:59:27.
