data_PCOD9456963
_publ_section_title
;
Structure prediction by ZEFSAII (Michael W. Deem and Ramdas Pophale) SiO2 
 PCOD9456963
Probable space group: P B C N
;
_chemical_formula_sum "Si O2"
_cell_formula_units_Z 48
_cell_length_a 11.073921
_cell_length_b 23.089230
_cell_length_c 9.052487
_cell_angle_alpha 90.000000
_cell_angle_beta 90.000000
_cell_angle_gamma 90.000000
_cell_volume 2314.615093
_symmetry_space_group_name_H-M "P B C N"
_symmetry_group_IT_number 60
_symmetry_cell_setting 'orthorhombic'
loop_
_space_group_symop_operation_xyz
x,y,z
1/2-x,1/2-y,1/2+z
1/2+x,1/2-y,-z
-x,y,1/2-z
-x,-y,-z
1/2+x,1/2+y,1/2-z
1/2-x,1/2+y,z
x,-y,1/2+z
loop_
_atom_site_type_symbol
_atom_site_label
_atom_site_fract_x
_atom_site_fract_y
_atom_site_fract_z
Si Si1 0.696818 0.449640 0.459539
Si Si2 0.977964 0.870164 0.080135
Si Si3 0.763249 0.431167 0.117964
Si Si4 0.094008 0.770422 0.880011
Si Si5 0.682892 0.850709 0.654912
Si Si6 0.425454 0.151213 0.026145
O O1 0.556903 0.428521 0.450682
O O2 0.745620 0.442864 0.292158
O O3 0.730415 0.511784 0.525003
O O4 0.754771 0.404095 0.572941
O O5 0.837892 0.884736 0.066590
O O6 0.000000 0.854010 0.250000
O O7 0.027053 0.818674 0.979956
O O8 0.890994 0.401783 0.080758
O O9 0.219073 0.799965 0.831495
O O10 0.000000 0.756775 0.750000
O O11 0.123427 0.711679 0.965072
O O12 0.633494 0.864566 0.816809
O O13 0.566456 0.837013 0.555085
#
# Coordination Sequence:
#
# PCOD9456963 Si02
#       6
#     8   8   8   8   8   8
#     4  10  22  41  66  96 131 175 218 276 321 394
#     4   9  21  40  64  99 130 173 220 272 329 383
#     4  11  22  39  67  95 133 171 222 271 331 389
#     4  11  25  40  68  95 129 169 217 272 325 395
#     4  10  25  45  62  92 129 168 218 260 330 390
#     4  11  26  41  64  92 128 175 211 269 324 396
#
# _framework density 20.73779
#
# number of rings (size 3 to 8) (size 9 to 14) (size 15 to 20)
#    0.000    1.667    0.000    2.500    9.333    3.333 
#    0.000    0.833    0.000    0.000    0.000    0.000 
#    0.000    0.000    0.000    0.000    0.000    0.000 
#
# Total GULP energy -268145.975301 kJ/mol
# GULP energy per Si atom -5586.374485 kJ/mol
# Density = 2.069059 g / cm^3
# Si number density = 20.737790 Si / 1000 Ang^3
#
#
#
# Elastic Constant Matrix: (Units=GPa)
#
#
# Indices 1 2 3 4 5 6 
#
# 1 78.9143 5.4690 31.0718 0.0000 0.0000 0.0000
# 2 5.4690 72.8377 41.4177 0.0000 0.0000 0.0000
# 3 31.0718 41.4177 73.6652 0.0000 0.0000 0.0000
# 4 0.0000 0.0000 0.0000 28.7776 0.0000 0.0000
# 5 0.0000 0.0000 0.0000 0.0000 20.1433 0.0000
# 6 0.0000 0.0000 0.0000 0.0000 0.0000 -14.1353
#
#
#
# Elastic Compliance Matrix: (Units=1/GPa)
#
#
# Indices 1 2 3 4 5 6 
#
# 1 0.015898 0.003850 -0.008870 0.000000 0.000000 0.000000
# 2 0.003850 0.021114 -0.013495 0.000000 0.000000 0.000000
# 3 -0.008870 -0.013495 0.024904 0.000000 0.000000 0.000000
# 4 0.000000 0.000000 0.000000 0.034749 0.000000 0.000000
# 5 0.000000 0.000000 0.000000 0.000000 0.049644 0.000000
# 6 0.000000 0.000000 0.000000 0.000000 0.000000 -0.070745
#
#
# Mechanical properties :
#
#
# Convention : Reuss Voigt Hill
#
# Bulk Modulus (GPa) = 40.18474 42.37046 41.27760
# Shear Modulus (GPa) = 41.35990 16.78770 29.07380
#
# Velocity S-wave (km/s) = 4.47074 2.84830 3.74835
# Velocity P-wave (km/s) = 6.78746 5.59401 6.21943
#
# Compressibility (1/GPa) = 0.02488507
#
# Stress axis : x y z
#
# Youngs Moduli (GPa) = 62.90180 47.36236 40.15414
#
# Poissons Ratio (x) = -0.18236 0.35619
# Poissons Ratio (y) = -0.24219 0.54189
# Poissons Ratio (z) = 0.55797 0.63916
#
# Static dielectric constant tensor:
#      x y z
#    x 1.779800 0.000000 0.000000 
#    y 0.000000 1.720890 0.000000 
#    z 0.000000 0.000000 1.727610 
# 
# From -- ./inp_files/5089.got.cif
#   From: 2010.05.17/outbox.cif.g08.bks.cpg/sg60_3_cif.got.tgz:5089.got - 2010.06.03 14:59:27.
