data_PCOD9456561
_publ_section_title
;
Structure prediction by ZEFSAII (Michael W. Deem and Ramdas Pophale) SiO2 
 PCOD9456561
Probable space group: P B C N
;
_chemical_formula_sum "Si O2"
_cell_formula_units_Z 48
_cell_length_a 7.255242
_cell_length_b 12.689770
_cell_length_c 18.170998
_cell_angle_alpha 90.000000
_cell_angle_beta 90.000000
_cell_angle_gamma 90.000000
_cell_volume 1672.955674
_symmetry_space_group_name_H-M "P B C N"
_symmetry_group_IT_number 60
_symmetry_cell_setting 'orthorhombic'
loop_
_space_group_symop_operation_xyz
x,y,z
1/2-x,1/2-y,1/2+z
1/2+x,1/2-y,-z
-x,y,1/2-z
-x,-y,-z
1/2+x,1/2+y,1/2-z
1/2-x,1/2+y,z
x,-y,1/2+z
loop_
_atom_site_type_symbol
_atom_site_label
_atom_site_fract_x
_atom_site_fract_y
_atom_site_fract_z
Si Si1 0.164715 0.119023 0.889345
Si Si2 0.846403 0.587733 0.304070
Si Si3 0.415011 0.169831 0.577767
Si Si4 0.609127 0.151974 0.083704
Si Si5 0.507150 0.594590 0.119488
Si Si6 0.285205 0.183377 0.732122
O O1 0.372059 0.131933 0.920402
O O2 0.060713 0.225285 0.911031
O O3 0.197683 0.121267 0.800596
O O4 0.060474 0.016412 0.916805
O O5 0.633259 0.562759 0.316371
O O6 0.826796 0.710126 0.280522
O O7 0.000000 0.537339 0.250000
O O8 0.943389 0.585472 0.384094
O O9 0.337140 0.133045 0.500142
O O10 0.422976 0.299236 0.582469
O O11 0.310540 0.132710 0.651256
O O12 0.785074 0.134218 0.136434
O O13 0.500000 0.209939 0.750000
#
# Coordination Sequence:
#
# PCOD9456561 Si02
#       6
#     8   8   8   8   8   8
#     4  10  21  45  76 106 154 205 263 333 390 473
#     4  11  23  43  74 107 150 210 260 317 400 480
#     4   9  22  42  77 109 160 208 253 325 406 479
#     4  11  24  46  72 109 164 210 251 329 406 474
#     4  10  25  44  74 115 153 201 269 323 388 478
#     4   9  19  42  76 101 143 197 256 320 392 461
#
# _framework density 28.691731999999998
#
# number of rings (size 3 to 8) (size 9 to 14) (size 15 to 20)
#    0.000    2.000    1.667    1.000    9.333    1.333 
#    0.000   12.500    0.000    0.000    0.000    0.000 
#    0.000    0.000    0.000    0.000    0.000    0.000 
#
# Total GULP energy -268826.856608 kJ/mol
# GULP energy per Si atom -5600.559513 kJ/mol
# Density = 2.862643 g / cm^3
# Si number density = 28.691732 Si / 1000 Ang^3
#
#
#
# Elastic Constant Matrix: (Units=GPa)
#
#
# Indices 1 2 3 4 5 6 
#
# 1 116.2173 16.6251 44.1718 0.0000 0.0000 0.0000
# 2 16.6251 133.6543 12.6322 0.0000 0.0000 0.0000
# 3 44.1718 12.6322 180.3395 0.0000 0.0000 0.0000
# 4 0.0000 0.0000 0.0000 13.1592 0.0000 0.0000
# 5 0.0000 0.0000 0.0000 0.0000 35.0484 0.0000
# 6 0.0000 0.0000 0.0000 0.0000 0.0000 57.0014
#
#
#
# Elastic Compliance Matrix: (Units=1/GPa)
#
#
# Indices 1 2 3 4 5 6 
#
# 1 0.009614 -0.000980 -0.002286 0.000000 0.000000 0.000000
# 2 -0.000980 0.007632 -0.000295 0.000000 0.000000 0.000000
# 3 -0.002286 -0.000295 0.006126 0.000000 0.000000 0.000000
# 4 0.000000 0.000000 0.000000 0.075992 0.000000 0.000000
# 5 0.000000 0.000000 0.000000 0.000000 0.028532 0.000000
# 6 0.000000 0.000000 0.000000 0.000000 0.000000 0.017543
#
#
# Mechanical properties :
#
#
# Convention : Reuss Voigt Hill
#
# Bulk Modulus (GPa) = 61.53808 64.11879 62.82843
# Shear Modulus (GPa) = 31.65033 44.82729 38.23881
#
# Velocity S-wave (km/s) = 3.32492 3.95698 3.65464
# Velocity P-wave (km/s) = 6.01953 6.57821 6.30506
#
# Compressibility (1/GPa) = 0.01625010
#
# Stress axis : x y z
#
# Youngs Moduli (GPa) = 104.01901 131.03236 163.24711
#
# Poissons Ratio (x) = 0.12838 0.37320
# Poissons Ratio (y) = 0.10191 0.04809
# Poissons Ratio (z) = 0.23780 0.03860
#
# Static dielectric constant tensor:
#      x y z
#    x 2.139650 0.000000 0.000000 
#    y 0.000000 2.305220 0.000000 
#    z 0.000000 0.000000 2.186440 
# 
# From -- ./inp_files/19271.got.cif
#   From: 2010.05.17/outbox.cif.g08.bks.cpg/sg60_10_cif.got.tgz:19271.got - 2010.06.03 14:59:27.
