data_PCOD9456388
_publ_section_title
;
Structure prediction by ZEFSAII (Michael W. Deem and Ramdas Pophale) SiO2 
 PCOD9456388
Probable space group: P B C N
;
_chemical_formula_sum "Si O2"
_cell_formula_units_Z 56
_cell_length_a 13.564038
_cell_length_b 9.714337
_cell_length_c 20.484807
_cell_angle_alpha 90.000000
_cell_angle_beta 90.000000
_cell_angle_gamma 90.000000
_cell_volume 2699.193627
_symmetry_space_group_name_H-M "P B C N"
_symmetry_group_IT_number 60
_symmetry_cell_setting 'orthorhombic'
loop_
_space_group_symop_operation_xyz
x,y,z
1/2-x,1/2-y,1/2+z
1/2+x,1/2-y,-z
-x,y,1/2-z
-x,-y,-z
1/2+x,1/2+y,1/2-z
1/2-x,1/2+y,z
x,-y,1/2+z
loop_
_atom_site_type_symbol
_atom_site_label
_atom_site_fract_x
_atom_site_fract_y
_atom_site_fract_z
Si Si1 0.661690 0.344292 0.157002
Si Si2 0.500000 0.240707 0.250000
Si Si3 0.939820 0.345320 0.553874
Si Si4 0.000000 0.270836 0.250000
Si Si5 0.285447 0.996351 0.040646
Si Si6 0.860030 0.776276 0.504464
Si Si7 0.073709 0.509013 0.156777
Si Si8 0.159185 0.840633 0.844695
O O1 0.571021 0.331083 0.206152
O O2 0.623425 0.267325 0.092431
O O3 0.691140 0.501442 0.148457
O O4 0.752948 0.254501 0.180772
O O5 0.566330 0.139463 0.294838
O O6 0.869804 0.420291 0.502467
O O7 0.034140 0.269984 0.522810
O O8 0.984985 0.456551 0.605311
O O9 0.944897 0.374004 0.300380
O O10 0.929102 0.179744 0.205489
O O11 0.327150 0.998089 0.114310
O O12 0.185008 0.914096 0.027734
O O13 0.286283 0.152662 0.015573
O O14 0.866049 0.791925 0.582108
#
# Coordination Sequence:
#
# PCOD9456388 Si02
#       8
#     8   4   8   4   8   8   8   8
#     4  11  25  43  65  92 127 172 217 260 322 385
#     4   9  21  44  66  88 132 176 216 260 326 382
#     4  10  21  41  67  90 129 170 209 260 329 390
#     4  11  23  42  64  94 128 166 220 270 316 378
#     4  11  21  41  63  99 126 165 215 267 321 394
#     4  11  23  40  67  95 132 168 212 267 333 386
#     4   9  20  39  67  92 125 169 210 262 325 385
#     4  12  25  42  67  97 128 170 219 268 321 388
#
# _framework density 20.746936999999999
#
# number of rings (size 3 to 8) (size 9 to 14) (size 15 to 20)
#    0.000    1.429    1.429    4.714    6.000    0.571 
#   10.286    0.000    0.000    0.000    0.000    0.000 
#    0.000    0.000    0.000    0.000    0.000    0.000 
#
# Total GULP energy -313139.309397 kJ/mol
# GULP energy per Si atom -5591.773382 kJ/mol
# Density = 2.069972 g / cm^3
# Si number density = 20.746937 Si / 1000 Ang^3
#
#
#
# Elastic Constant Matrix: (Units=GPa)
#
#
# Indices 1 2 3 4 5 6 
#
# 1 37.4009 1.6469 18.3822 0.0000 0.0000 0.0000
# 2 1.6469 95.0586 18.0040 0.0000 0.0000 0.0000
# 3 18.3822 18.0040 91.1486 0.0000 0.0000 0.0000
# 4 0.0000 0.0000 0.0000 72.5848 0.0000 0.0000
# 5 0.0000 0.0000 0.0000 0.0000 19.3083 0.0000
# 6 0.0000 0.0000 0.0000 0.0000 0.0000 22.3065
#
#
#
# Elastic Compliance Matrix: (Units=1/GPa)
#
#
# Indices 1 2 3 4 5 6 
#
# 1 0.029717 0.000644 -0.006120 0.000000 0.000000 0.000000
# 2 0.000644 0.010943 -0.002291 0.000000 0.000000 0.000000
# 3 -0.006120 -0.002291 0.012658 0.000000 0.000000 0.000000
# 4 0.000000 0.000000 0.000000 0.013777 0.000000 0.000000
# 5 0.000000 0.000000 0.000000 0.000000 0.051791 0.000000
# 6 0.000000 0.000000 0.000000 0.000000 0.000000 0.044830
#
#
# Mechanical properties :
#
#
# Convention : Reuss Voigt Hill
#
# Bulk Modulus (GPa) = 26.46700 33.29715 29.88207
# Shear Modulus (GPa) = 26.06268 35.21159 30.63714
#
# Velocity S-wave (km/s) = 3.54816 4.12417 3.84696
# Velocity P-wave (km/s) = 5.43789 6.22595 5.84522
#
# Compressibility (1/GPa) = 0.03778290
#
# Stress axis : x y z
#
# Youngs Moduli (GPa) = 33.65063 91.38560 79.00133
#
# Poissons Ratio (x) = -0.05888 0.48352
# Poissons Ratio (y) = -0.02168 0.18102
# Poissons Ratio (z) = 0.20596 0.20940
#
# Static dielectric constant tensor:
#      x y z
#    x 1.754570 0.000000 0.000000 
#    y 0.000000 1.724120 0.000000 
#    z 0.000000 0.000000 1.743090 
# 
# From -- ./inp_files/22937.got.cif
#   From: 2010.05.17/outbox.cif.g08.bks.cpg/sg60_12_cif.got.tgz:22937.got - 2010.06.03 14:59:27.
