data_PCOD9456854
_publ_section_title
;
Structure prediction by ZEFSAII (Michael W. Deem and Ramdas Pophale) SiO2 
 PCOD9456854
Probable space group: P B C N
;
_chemical_formula_sum "Si O2"
_cell_formula_units_Z 48
_cell_length_a 8.593310
_cell_length_b 21.076901
_cell_length_c 11.875083
_cell_angle_alpha 90.000000
_cell_angle_beta 90.000000
_cell_angle_gamma 90.000000
_cell_volume 2150.819120
_symmetry_space_group_name_H-M "P B C N"
_symmetry_group_IT_number 60
_symmetry_cell_setting 'orthorhombic'
loop_
_space_group_symop_operation_xyz
x,y,z
1/2-x,1/2-y,1/2+z
1/2+x,1/2-y,-z
-x,y,1/2-z
-x,-y,-z
1/2+x,1/2+y,1/2-z
1/2-x,1/2+y,z
x,-y,1/2+z
loop_
_atom_site_type_symbol
_atom_site_label
_atom_site_fract_x
_atom_site_fract_y
_atom_site_fract_z
Si Si1 0.129630 0.951947 0.458244
Si Si2 0.648017 0.334656 0.191217
Si Si3 0.876883 0.278137 0.006091
Si Si4 0.183349 0.607917 0.151740
Si Si5 0.652517 0.061301 0.107578
Si Si6 0.297318 0.163874 0.576689
O O1 0.085669 0.898706 0.367745
O O2 0.183236 0.916431 0.570739
O O3 0.269935 0.992998 0.404188
O O4 0.000000 0.000000 0.500000
O O5 0.500000 0.301615 0.250000
O O6 0.744982 0.297593 0.096839
O O7 0.765870 0.348759 0.293132
O O8 0.044407 0.295819 0.057162
O O9 0.857644 0.322200 0.894542
O O10 0.842986 0.206159 0.973652
O O11 0.216559 0.599425 0.283179
O O12 0.032759 0.563947 0.125190
O O13 0.688118 0.100310 0.995040
#
# Coordination Sequence:
#
# PCOD9456854 Si02
#       6
#     8   8   8   8   8   8
#     4  11  24  40  64  93 131 165 216 270 324 379
#     4  11  24  42  64  94 131 172 216 270 327 385
#     4  10  23  43  66  97 130 170 214 273 324 397
#     4   9  22  43  61  92 124 169 213 256 323 392
#     4  10  22  40  66  89 125 171 210 259 321 396
#     4  11  23  41  68  97 130 167 220 265 334 390
#
# _framework density 22.317080000000001
#
# number of rings (size 3 to 8) (size 9 to 14) (size 15 to 20)
#    0.000    1.667    0.000    3.000    7.000    1.333 
#    6.000    0.000    0.000    0.000    0.000    0.000 
#    0.000    0.000    0.000    0.000    0.000    0.000 
#
# Total GULP energy -268419.368835 kJ/mol
# GULP energy per Si atom -5592.070184 kJ/mol
# Density = 2.226628 g / cm^3
# Si number density = 22.317080 Si / 1000 Ang^3
#
#
#
# Elastic Constant Matrix: (Units=GPa)
#
#
# Indices 1 2 3 4 5 6 
#
# 1 54.8928 14.1050 8.5754 0.0000 0.0000 0.0000
# 2 14.1050 43.9979 10.8784 0.0000 0.0000 0.0000
# 3 8.5754 10.8784 125.6811 0.0000 0.0000 0.0000
# 4 0.0000 0.0000 0.0000 18.5745 0.0000 0.0000
# 5 0.0000 0.0000 0.0000 0.0000 35.8549 0.0000
# 6 0.0000 0.0000 0.0000 0.0000 0.0000 30.1914
#
#
#
# Elastic Compliance Matrix: (Units=1/GPa)
#
#
# Indices 1 2 3 4 5 6 
#
# 1 0.019936 -0.006187 -0.000825 0.000000 0.000000 0.000000
# 2 -0.006187 0.025146 -0.001754 0.000000 0.000000 0.000000
# 3 -0.000825 -0.001754 0.008165 0.000000 0.000000 0.000000
# 4 0.000000 0.000000 0.000000 0.053837 0.000000 0.000000
# 5 0.000000 0.000000 0.000000 0.000000 0.027890 0.000000
# 6 0.000000 0.000000 0.000000 0.000000 0.000000 0.033122
#
#
# Mechanical properties :
#
#
# Convention : Reuss Voigt Hill
#
# Bulk Modulus (GPa) = 28.00035 32.40991 30.20513
# Shear Modulus (GPa) = 25.31222 29.65837 27.48529
#
# Velocity S-wave (km/s) = 3.37145 3.64944 3.51320
# Velocity P-wave (km/s) = 5.26588 5.68435 5.47911
#
# Compressibility (1/GPa) = 0.03571384
#
# Stress axis : x y z
#
# Youngs Moduli (GPa) = 50.16043 39.76830 122.47748
#
# Poissons Ratio (x) = 0.24606 0.10101
# Poissons Ratio (y) = 0.31036 0.21487
# Poissons Ratio (z) = 0.04137 0.06977
#
# Static dielectric constant tensor:
#      x y z
#    x 1.870800 0.000000 0.000000 
#    y 0.000000 1.806020 0.000000 
#    z 0.000000 0.000000 1.808140 
# 
# From -- ./inp_files/10126.got.cif
#   From: 2010.05.17/outbox.cif.g08.bks.cpg/sg60_6_cif.got.tgz:10126.got - 2010.06.03 14:59:27.
