data_PCOD9456610
_publ_section_title
;
Structure prediction by ZEFSAII (Michael W. Deem and Ramdas Pophale) SiO2 
 PCOD9456610
Probable space group: P B C N
;
_chemical_formula_sum "Si O2"
_cell_formula_units_Z 56
_cell_length_a 20.589411
_cell_length_b 15.804267
_cell_length_c 7.694778
_cell_angle_alpha 90.000000
_cell_angle_beta 90.000000
_cell_angle_gamma 90.000000
_cell_volume 2503.884984
_symmetry_space_group_name_H-M "P B C N"
_symmetry_group_IT_number 60
_symmetry_cell_setting 'orthorhombic'
loop_
_space_group_symop_operation_xyz
x,y,z
1/2-x,1/2-y,1/2+z
1/2+x,1/2-y,-z
-x,y,1/2-z
-x,-y,-z
1/2+x,1/2+y,1/2-z
1/2-x,1/2+y,z
x,-y,1/2+z
loop_
_atom_site_type_symbol
_atom_site_label
_atom_site_fract_x
_atom_site_fract_y
_atom_site_fract_z
Si Si1 0.196642 0.462278 0.205904
Si Si2 0.069834 0.625004 0.682095
Si Si3 0.325295 0.584341 0.542539
Si Si4 0.980803 0.784597 0.955993
Si Si5 0.361853 0.605997 0.938072
Si Si6 0.773103 0.632530 0.432781
Si Si7 0.380234 0.253597 0.979242
O O1 0.123153 0.445662 0.145554
O O2 0.248894 0.418637 0.079912
O O3 0.216839 0.560213 0.209779
O O4 0.207534 0.419388 0.392047
O O5 0.053443 0.692571 0.532370
O O6 0.101048 0.685919 0.830501
O O7 0.000000 0.592292 0.750000
O O8 0.354103 0.608404 0.731041
O O9 0.350595 0.492171 0.489595
O O10 0.348742 0.658452 0.416072
O O11 0.000000 0.796838 0.750000
O O12 0.049299 0.778230 0.054806
O O13 0.930546 0.856119 0.007975
O O14 0.301606 0.655422 0.029650
O O15 0.823765 0.708307 0.410408
#
# Coordination Sequence:
#
# PCOD9456610 Si02
#       7
#     8   8   8   8   8   8   8
#     4   9  18  37  56  86 111 148 190 233 283 341
#     4   8  17  35  60  80 110 152 192 223 284 346
#     4  10  22  36  57  85 115 149 191 239 283 334
#     4   9  20  37  57  84 110 152 193 227 284 342
#     4  10  22  38  57  86 115 151 193 230 289 342
#     4   9  19  38  60  83 119 147 189 237 283 335
#     4   9  19  37  55  81 116 148 184 241 277 327
#
# _framework density 22.365243
#
# number of rings (size 3 to 8) (size 9 to 14) (size 15 to 20)
#    0.000    3.143    0.000    0.000    6.000    1.143 
#    2.571    6.429    0.000    0.000    0.000    0.000 
#    0.000    0.000    0.000    0.000    0.000    0.000 
#
# Total GULP energy -312313.747965 kJ/mol
# GULP energy per Si atom -5577.031214 kJ/mol
# Density = 2.231434 g / cm^3
# Si number density = 22.365243 Si / 1000 Ang^3
#
#
#
# Elastic Constant Matrix: (Units=GPa)
#
#
# Indices 1 2 3 4 5 6 
#
# 1 107.8949 44.3854 28.7478 0.0000 0.0000 0.0000
# 2 44.3854 34.9941 5.1044 0.0000 0.0000 0.0000
# 3 28.7478 5.1044 64.2178 0.0000 0.0000 0.0000
# 4 0.0000 0.0000 0.0000 2.4404 0.0000 0.0000
# 5 0.0000 0.0000 0.0000 0.0000 12.7904 0.0000
# 6 0.0000 0.0000 0.0000 0.0000 0.0000 48.9265
#
#
#
# Elastic Compliance Matrix: (Units=1/GPa)
#
#
# Indices 1 2 3 4 5 6 
#
# 1 0.022841 -0.027801 -0.008015 0.000000 0.000000 0.000000
# 2 -0.027801 0.062751 0.007458 0.000000 0.000000 0.000000
# 3 -0.008015 0.007458 0.018567 0.000000 0.000000 0.000000
# 4 0.000000 0.000000 0.000000 0.409774 0.000000 0.000000
# 5 0.000000 0.000000 0.000000 0.000000 0.078183 0.000000
# 6 0.000000 0.000000 0.000000 0.000000 0.000000 0.020439
#
#
# Mechanical properties :
#
#
# Convention : Reuss Voigt Hill
#
# Bulk Modulus (GPa) = 21.07859 40.39799 30.73829
# Shear Modulus (GPa) = 7.29836 21.42273 14.36054
#
# Velocity S-wave (km/s) = 1.80841 3.09829 2.53670
# Velocity P-wave (km/s) = 3.71559 5.55889 4.72794
#
# Compressibility (1/GPa) = 0.04744150
#
# Stress axis : x y z
#
# Youngs Moduli (GPa) = 43.78167 15.93609 53.85827
#
# Poissons Ratio (x) = 0.44304 0.43168
# Poissons Ratio (y) = 1.21718 -0.40166
# Poissons Ratio (z) = 0.35091 -0.11885
#
# Static dielectric constant tensor:
#      x y z
#    x 1.858970 0.000000 0.000000 
#    y 0.000000 1.864230 0.000000 
#    z 0.000000 0.000000 1.918430 
# 
# From -- ./inp_files/7415.got.cif
#   From: 2010.05.17/outbox.cif.g08.bks.cpg/sg60_4_cif.got.tgz:7415.got - 2010.06.03 14:59:27.
