data_PCOD9456663
_publ_section_title
;
Structure prediction by ZEFSAII (Michael W. Deem and Ramdas Pophale) SiO2 
 PCOD9456663
Probable space group: P B C N
;
_chemical_formula_sum "Si O2"
_cell_formula_units_Z 64
_cell_length_a 8.768337
_cell_length_b 15.090199
_cell_length_c 25.052496
_cell_angle_alpha 90.000000
_cell_angle_beta 90.000000
_cell_angle_gamma 90.000000
_cell_volume 3314.844814
_symmetry_space_group_name_H-M "P B C N"
_symmetry_group_IT_number 60
_symmetry_cell_setting 'orthorhombic'
loop_
_space_group_symop_operation_xyz
x,y,z
1/2-x,1/2-y,1/2+z
1/2+x,1/2-y,-z
-x,y,1/2-z
-x,-y,-z
1/2+x,1/2+y,1/2-z
1/2-x,1/2+y,z
x,-y,1/2+z
loop_
_atom_site_type_symbol
_atom_site_label
_atom_site_fract_x
_atom_site_fract_y
_atom_site_fract_z
Si Si1 0.952362 0.716416 0.412080
Si Si2 0.298129 0.018824 0.881410
Si Si3 0.135647 0.468916 0.581011
Si Si4 0.792902 0.819239 0.625250
Si Si5 0.019267 0.244262 0.030693
Si Si6 0.215917 0.648021 0.611096
Si Si7 0.647427 0.561539 0.511609
Si Si8 0.943829 0.328987 0.189813
O O1 0.854433 0.630071 0.396396
O O2 0.950175 0.717065 0.476470
O O3 0.874670 0.803109 0.389342
O O4 0.122662 0.707367 0.391536
O O5 0.192589 0.062845 0.926559
O O6 0.347561 0.087916 0.835142
O O7 0.458808 0.994763 0.910969
O O8 0.218644 0.925436 0.865666
O O9 0.229563 0.543052 0.612147
O O10 0.207788 0.472390 0.522314
O O11 0.899728 0.790585 0.575009
O O12 0.851333 0.760344 0.674799
O O13 0.128401 0.317222 0.057692
O O14 0.108053 0.158122 0.010269
O O15 0.100959 0.676305 0.656843
O O16 0.500000 0.500000 0.500000
O O17 0.000000 0.339909 0.250000
#
# Coordination Sequence:
#
# PCOD9456663 Si02
#       8
#     8   8   8   8   8   8   8   8
#     4  11  21  35  56  87 126 157 197 239 295 373
#     4  10  22  39  62  87 124 162 207 253 311 384
#     4  10  23  34  53  84 123 166 195 240 295 370
#     4  10  22  39  60  90 119 162 205 253 310 370
#     4  11  21  33  53  86 129 165 195 232 296 374
#     4  10  22  38  57  84 117 159 203 248 301 369
#     4  12  21  33  54  89 129 168 196 240 294 375
#     4  10  23  45  67  84 114 158 210 268 322 357
#
# _framework density 19.307088
#
# number of rings (size 3 to 8) (size 9 to 14) (size 15 to 20)
#    0.000    1.500    2.500    2.625    8.750    0.000 
#    0.000    4.375    0.000    0.000    0.000    0.000 
#    0.000    0.000    0.000    0.000    0.000    0.000 
#
# Total GULP energy -357240.971930 kJ/mol
# GULP energy per Si atom -5581.890186 kJ/mol
# Density = 1.926314 g / cm^3
# Si number density = 19.307088 Si / 1000 Ang^3
#
#
#
# Elastic Constant Matrix: (Units=GPa)
#
#
# Indices 1 2 3 4 5 6 
#
# 1 56.8156 47.7834 40.3021 0.0000 0.0000 0.0000
# 2 47.7834 97.2045 40.7198 0.0000 0.0000 0.0000
# 3 40.3021 40.7198 91.5953 0.0000 0.0000 0.0000
# 4 0.0000 0.0000 0.0000 14.6047 0.0000 0.0000
# 5 0.0000 0.0000 0.0000 0.0000 17.6999 0.0000
# 6 0.0000 0.0000 0.0000 0.0000 0.0000 -116.0001
#
#
#
# Elastic Compliance Matrix: (Units=1/GPa)
#
#
# Indices 1 2 3 4 5 6 
#
# 1 0.035964 -0.013579 -0.009787 0.000000 0.000000 0.000000
# 2 -0.013579 0.017769 -0.001925 0.000000 0.000000 0.000000
# 3 -0.009787 -0.001925 0.016080 0.000000 0.000000 0.000000
# 4 0.000000 0.000000 0.000000 0.068471 0.000000 0.000000
# 5 0.000000 0.000000 0.000000 0.000000 0.056497 0.000000
# 6 0.000000 0.000000 0.000000 0.000000 0.000000 -0.008621
#
#
# Mechanical properties :
#
#
# Convention : Reuss Voigt Hill
#
# Bulk Modulus (GPa) = 52.00107 55.91403 53.95755
# Shear Modulus (GPa) = 20.56327 -8.95176 5.80576
#
# Velocity S-wave (km/s) = 3.26707 -2.15559 1.73597
# Velocity P-wave (km/s) = 6.42058 4.77784 5.65913
#
# Compressibility (1/GPa) = 0.01923037
#
# Stress axis : x y z
#
# Youngs Moduli (GPa) = 27.80584 56.27816 62.19016
#
# Poissons Ratio (x) = 0.76419 0.60868
# Poissons Ratio (y) = 0.37757 0.11969
# Poissons Ratio (z) = 0.27215 0.10832
#
# Static dielectric constant tensor:
#      x y z
#    x 1.699020 0.000000 0.000000 
#    y 0.000000 1.740880 0.000000 
#    z 0.000000 0.000000 1.649770 
# 
# From -- ./inp_files/24116.got.cif
#   From: 2010.05.17/outbox.cif.g08.bks.cpg/sg60_13_cif.got.tgz:24116.got - 2010.06.03 14:59:27.
