data_PCOD9456914
_publ_section_title
;
Structure prediction by ZEFSAII (Michael W. Deem and Ramdas Pophale) SiO2 
 PCOD9456914
Probable space group: P B C N
;
_chemical_formula_sum "Si O2"
_cell_formula_units_Z 56
_cell_length_a 5.399061
_cell_length_b 15.055883
_cell_length_c 30.196122
_cell_angle_alpha 90.000000
_cell_angle_beta 90.000000
_cell_angle_gamma 90.000000
_cell_volume 2454.571214
_symmetry_space_group_name_H-M "P B C N"
_symmetry_group_IT_number 60
_symmetry_cell_setting 'orthorhombic'
loop_
_space_group_symop_operation_xyz
x,y,z
1/2-x,1/2-y,1/2+z
1/2+x,1/2-y,-z
-x,y,1/2-z
-x,-y,-z
1/2+x,1/2+y,1/2-z
1/2-x,1/2+y,z
x,-y,1/2+z
loop_
_atom_site_type_symbol
_atom_site_label
_atom_site_fract_x
_atom_site_fract_y
_atom_site_fract_z
Si Si1 0.031751 0.188464 0.797328
Si Si2 0.801521 0.347664 0.650761
Si Si3 0.177060 0.914816 0.608399
Si Si4 0.307836 0.099121 0.638237
Si Si5 0.681071 0.632640 0.489044
Si Si6 0.822598 0.659223 0.961420
Si Si7 0.833411 0.513970 0.705755
O O1 0.191855 0.249532 0.829431
O O2 0.142201 0.092406 0.786754
O O3 0.000000 0.234877 0.750000
O O4 0.788050 0.167614 0.825263
O O5 0.571547 0.359790 0.618069
O O6 0.070521 0.371122 0.628708
O O7 0.753627 0.415971 0.691377
O O8 0.203078 0.923175 0.555811
O O9 0.135765 0.012585 0.629218
O O10 0.333838 0.144545 0.591024
O O11 0.536005 0.051060 0.661344
O O12 0.681683 0.735778 0.472770
O O13 0.427390 0.620342 0.516341
O O14 0.926398 0.619774 0.518044
O O15 0.000000 0.508872 0.750000
#
# Coordination Sequence:
#
# PCOD9456914 Si02
#       7
#     8   8   8   8   8   8   8
#     4  12  25  44  70 103 134 188 238 282 347 412
#     4  11  26  43  72 102 140 184 226 284 342 410
#     4  11  24  45  68 101 140 178 226 284 347 407
#     4  11  25  42  67  98 135 183 227 286 346 408
#     4  10  22  41  62  96 134 174 225 283 337 405
#     4  10  23  39  65  94 131 177 226 281 339 404
#     4  11  24  46  67  99 143 177 227 291 339 404
#
# _framework density 22.814574
#
# number of rings (size 3 to 8) (size 9 to 14) (size 15 to 20)
#    0.000    1.143    2.857    2.143    6.000    2.286 
#    0.000    2.143    0.000    0.000    0.000    0.000 
#    0.000    0.000    0.000    0.000    0.000    0.000 
#
# Total GULP energy -312941.871443 kJ/mol
# GULP energy per Si atom -5588.247704 kJ/mol
# Density = 2.276265 g / cm^3
# Si number density = 22.814574 Si / 1000 Ang^3
#
#
#
# Elastic Constant Matrix: (Units=GPa)
#
#
# Indices 1 2 3 4 5 6 
#
# 1 112.6959 15.9481 38.5275 0.0000 0.0000 0.0000
# 2 15.9481 57.4431 6.1121 0.0000 0.0000 0.0000
# 3 38.5275 6.1121 121.6272 0.0000 0.0000 0.0000
# 4 0.0000 0.0000 0.0000 19.9606 0.0000 0.0000
# 5 0.0000 0.0000 0.0000 0.0000 35.7074 0.0000
# 6 0.0000 0.0000 0.0000 0.0000 0.0000 26.0140
#
#
#
# Elastic Compliance Matrix: (Units=1/GPa)
#
#
# Indices 1 2 3 4 5 6 
#
# 1 0.010303 -0.002527 -0.003137 0.000000 0.000000 0.000000
# 2 -0.002527 0.018122 -0.000110 0.000000 0.000000 0.000000
# 3 -0.003137 -0.000110 0.009221 0.000000 0.000000 0.000000
# 4 0.000000 0.000000 0.000000 0.050099 0.000000 0.000000
# 5 0.000000 0.000000 0.000000 0.000000 0.028005 0.000000
# 6 0.000000 0.000000 0.000000 0.000000 0.000000 0.038441
#
#
# Mechanical properties :
#
#
# Convention : Reuss Voigt Hill
#
# Bulk Modulus (GPa) = 38.31641 45.88239 42.09940
# Shear Modulus (GPa) = 28.66343 31.74830 30.20586
#
# Velocity S-wave (km/s) = 3.54837 3.73444 3.64259
# Velocity P-wave (km/s) = 5.79819 6.22490 6.01533
#
# Compressibility (1/GPa) = 0.02609848
#
# Stress axis : x y z
#
# Youngs Moduli (GPa) = 97.05535 55.18223 108.44785
#
# Poissons Ratio (x) = 0.13943 0.34018
# Poissons Ratio (y) = 0.24524 0.01196
# Poissons Ratio (z) = 0.30444 0.00608
#
# Static dielectric constant tensor:
#      x y z
#    x 1.918620 0.000000 0.000000 
#    y 0.000000 1.870410 0.000000 
#    z 0.000000 0.000000 2.003930 
# 
# From -- ./inp_files/25693.got.cif
#   From: 2010.05.17/outbox.cif.g08.bks.cpg/sg60_13_cif.got.tgz:25693.got - 2010.06.03 14:59:27.
