data_PCOD9456111
_publ_section_title
;
Structure prediction by ZEFSAII (Michael W. Deem and Ramdas Pophale) SiO2 
 PCOD9456111
Probable space group: P B C N
;
_chemical_formula_sum "Si O2"
_cell_formula_units_Z 48
_cell_length_a 18.069867
_cell_length_b 8.943686
_cell_length_c 14.173532
_cell_angle_alpha 90.000000
_cell_angle_beta 90.000000
_cell_angle_gamma 90.000000
_cell_volume 2290.601749
_symmetry_space_group_name_H-M "P B C N"
_symmetry_group_IT_number 60
_symmetry_cell_setting 'orthorhombic'
loop_
_space_group_symop_operation_xyz
x,y,z
1/2-x,1/2-y,1/2+z
1/2+x,1/2-y,-z
-x,y,1/2-z
-x,-y,-z
1/2+x,1/2+y,1/2-z
1/2-x,1/2+y,z
x,-y,1/2+z
loop_
_atom_site_type_symbol
_atom_site_label
_atom_site_fract_x
_atom_site_fract_y
_atom_site_fract_z
Si Si1 0.991419 0.161157 0.351657
Si Si2 0.737614 0.085660 0.641808
Si Si3 0.851495 0.333930 0.696130
Si Si4 0.574531 0.662704 0.859923
Si Si5 0.847800 0.846760 0.548639
Si Si6 0.043985 0.347339 0.977533
O O1 0.072429 0.133650 0.398882
O O2 0.000000 0.237316 0.250000
O O3 0.944645 0.261565 0.424115
O O4 0.950889 0.003666 0.333763
O O5 0.791181 0.203712 0.690477
O O6 0.684021 0.185344 0.577163
O O7 0.689877 0.989030 0.715436
O O8 0.790288 0.971284 0.584733
O O9 0.907491 0.271284 0.773318
O O10 0.886692 0.361051 0.592243
O O11 0.509368 0.739447 0.918354
O O12 0.639649 0.647226 0.936814
O O13 0.000000 0.500000 0.000000
#
# Coordination Sequence:
#
# PCOD9456111 Si02
#       6
#     8   8   8   8   8   8
#     4  11  22  39  64  89 116 155 202 252 305 363
#     4  10  22  39  59  81 124 163 196 244 290 369
#     4  11  22  40  61  89 121 160 202 244 306 363
#     4  11  22  38  64  88 116 155 202 253 304 364
#     4  10  21  39  59  87 118 156 199 242 302 361
#     4  11  23  39  62  92 122 153 197 261 313 358
#
# _framework density 20.955192
#
# number of rings (size 3 to 8) (size 9 to 14) (size 15 to 20)
#    0.000    1.333    0.000    8.500    0.000    4.000 
#    0.000    6.667    0.000    0.000    0.000    0.000 
#    0.000    0.000    0.000    0.000    0.000    0.000 
#
# Total GULP energy -268107.977768 kJ/mol
# GULP energy per Si atom -5585.582870 kJ/mol
# Density = 2.090750 g / cm^3
# Si number density = 20.955192 Si / 1000 Ang^3
#
#
#
# Elastic Constant Matrix: (Units=GPa)
#
#
# Indices 1 2 3 4 5 6 
#
# 1 49.5087 7.1127 9.6320 0.0000 0.0000 0.0000
# 2 7.1127 82.1966 7.8728 0.0000 0.0000 0.0000
# 3 9.6320 7.8728 104.9447 0.0000 0.0000 0.0000
# 4 0.0000 0.0000 0.0000 23.3194 0.0000 0.0000
# 5 0.0000 0.0000 0.0000 0.0000 21.5832 0.0000
# 6 0.0000 0.0000 0.0000 0.0000 0.0000 41.7700
#
#
#
# Elastic Compliance Matrix: (Units=1/GPa)
#
#
# Indices 1 2 3 4 5 6 
#
# 1 0.020780 -0.001627 -0.001785 0.000000 0.000000 0.000000
# 2 -0.001627 0.012381 -0.000779 0.000000 0.000000 0.000000
# 3 -0.001785 -0.000779 0.009751 0.000000 0.000000 0.000000
# 4 0.000000 0.000000 0.000000 0.042883 0.000000 0.000000
# 5 0.000000 0.000000 0.000000 0.000000 0.046332 0.000000
# 6 0.000000 0.000000 0.000000 0.000000 0.000000 0.023941
#
#
# Mechanical properties :
#
#
# Convention : Reuss Voigt Hill
#
# Bulk Modulus (GPa) = 28.96152 31.76503 30.36327
# Shear Modulus (GPa) = 28.41543 31.47002 29.94273
#
# Velocity S-wave (km/s) = 3.68640 3.87948 3.78417
# Velocity P-wave (km/s) = 5.65421 5.93790 5.79779
#
# Compressibility (1/GPa) = 0.03452857
#
# Stress axis : x y z
#
# Youngs Moduli (GPa) = 48.12429 80.76624 102.55203
#
# Poissons Ratio (x) = 0.13142 0.18307
# Poissons Ratio (y) = 0.07830 0.07994
# Poissons Ratio (z) = 0.08591 0.06296
#
# Static dielectric constant tensor:
#      x y z
#    x 1.813570 0.000000 0.000000 
#    y 0.000000 1.863670 0.000000 
#    z 0.000000 0.000000 2.170680 
# 
# From -- ./inp_files/17325.got.cif
#   From: 2010.05.17/outbox.cif.g08.bks.cpg/sg60_9_cif.got.tgz:17325.got - 2010.06.03 14:59:27.
