data_PCOD9456083
_publ_section_title
;
Structure prediction by ZEFSAII (Michael W. Deem and Ramdas Pophale) SiO2 
 PCOD9456083
Probable space group: P B C N
;
_chemical_formula_sum "Si O2"
_cell_formula_units_Z 56
_cell_length_a 7.803578
_cell_length_b 21.959645
_cell_length_c 14.656025
_cell_angle_alpha 90.000000
_cell_angle_beta 90.000000
_cell_angle_gamma 90.000000
_cell_volume 2511.512175
_symmetry_space_group_name_H-M "P B C N"
_symmetry_group_IT_number 60
_symmetry_cell_setting 'orthorhombic'
loop_
_space_group_symop_operation_xyz
x,y,z
1/2-x,1/2-y,1/2+z
1/2+x,1/2-y,-z
-x,y,1/2-z
-x,-y,-z
1/2+x,1/2+y,1/2-z
1/2-x,1/2+y,z
x,-y,1/2+z
loop_
_atom_site_type_symbol
_atom_site_label
_atom_site_fract_x
_atom_site_fract_y
_atom_site_fract_z
Si Si1 0.735755 0.338041 0.306577
Si Si2 0.827035 0.599022 0.986365
Si Si3 0.132097 0.011391 0.083064
Si Si4 0.096453 0.392745 0.652060
Si Si5 0.476235 0.237993 0.106195
Si Si6 0.500000 0.257043 0.750000
Si Si7 0.863132 0.799919 0.574080
Si Si8 0.000000 0.060531 0.750000
O O1 0.847384 0.359695 0.394808
O O2 0.573327 0.300459 0.344739
O O3 0.842574 0.289478 0.251695
O O4 0.666194 0.395714 0.252059
O O5 0.662382 0.632642 0.032853
O O6 0.969836 0.597720 0.064594
O O7 0.786944 0.533025 0.947816
O O8 0.230928 0.070448 0.124635
O O9 0.024038 0.981652 0.164085
O O10 0.000000 0.000000 0.000000
O O11 0.120289 0.319398 0.650992
O O12 0.000000 0.408294 0.750000
O O13 0.673493 0.219949 0.104602
O O14 0.421708 0.252168 0.002501
O O15 0.485592 0.296658 0.840170
#
# Coordination Sequence:
#
# PCOD9456083 Si02
#       8
#     8   8   8   8   8   4   8   4
#     4  10  22  40  66  97 141 173 226 280 348 431
#     4   9  22  46  61  91 132 180 220 281 347 408
#     4  11  26  46  70  95 133 179 234 296 346 411
#     4  11  25  42  69 100 134 184 234 288 358 430
#     4  10  22  42  64  98 140 182 215 281 359 423
#     4  12  22  32  61 108 131 180 210 278 336 430
#     4  10  21  38  65  95 140 171 230 267 347 425
#     4  10  24  46  69 100 129 180 238 290 352 416
#
# _framework density 22.297324
#
# number of rings (size 3 to 8) (size 9 to 14) (size 15 to 20)
#    0.000    1.714    0.000    3.857    7.000    6.857 
#    5.143    0.714    0.000    0.000    0.000    0.000 
#    0.000    0.000    0.000    0.000    0.000    0.000 
#
# Total GULP energy -312300.000310 kJ/mol
# GULP energy per Si atom -5576.785720 kJ/mol
# Density = 2.224657 g / cm^3
# Si number density = 22.297324 Si / 1000 Ang^3
#
#
#
# Elastic Constant Matrix: (Units=GPa)
#
#
# Indices 1 2 3 4 5 6 
#
# 1 75.1234 28.5362 50.8753 0.0000 0.0000 0.0000
# 2 28.5362 92.0815 57.8851 0.0000 0.0000 0.0000
# 3 50.8753 57.8851 128.9893 0.0000 0.0000 0.0000
# 4 0.0000 0.0000 0.0000 277.7195 0.0000 0.0000
# 5 0.0000 0.0000 0.0000 0.0000 37.8324 0.0000
# 6 0.0000 0.0000 0.0000 0.0000 0.0000 18.6411
#
#
#
# Elastic Compliance Matrix: (Units=1/GPa)
#
#
# Indices 1 2 3 4 5 6 
#
# 1 0.018327 -0.001582 -0.006519 0.000000 0.000000 0.000000
# 2 -0.001582 0.015264 -0.006226 0.000000 0.000000 0.000000
# 3 -0.006519 -0.006226 0.013118 0.000000 0.000000 0.000000
# 4 0.000000 0.000000 0.000000 0.003601 0.000000 0.000000
# 5 0.000000 0.000000 0.000000 0.000000 0.026432 0.000000
# 6 0.000000 0.000000 0.000000 0.000000 0.000000 0.053645
#
#
# Mechanical properties :
#
#
# Convention : Reuss Voigt Hill
#
# Bulk Modulus (GPa) = 55.38397 63.42082 59.40240
# Shear Modulus (GPa) = 30.29250 77.43178 53.86214
#
# Velocity S-wave (km/s) = 3.68988 5.89935 4.92024
# Velocity P-wave (km/s) = 6.56097 8.65495 7.67966
#
# Compressibility (1/GPa) = 0.01805576
#
# Stress axis : x y z
#
# Youngs Moduli (GPa) = 54.56497 65.51376 76.23375
#
# Poissons Ratio (x) = 0.10363 0.49693
# Poissons Ratio (y) = 0.08631 0.47463
# Poissons Ratio (z) = 0.35568 0.40789
#
# Static dielectric constant tensor:
#      x y z
#    x 1.860950 0.000000 0.000000 
#    y 0.000000 1.826070 0.000000 
#    z 0.000000 0.000000 1.862340 
# 
# From -- ./inp_files/15304.got.cif
#   From: 2010.05.17/outbox.cif.g08.bks.cpg/sg60_8_cif.got.tgz:15304.got - 2010.06.03 14:59:27.
