data_PCOD9456168
_publ_section_title
;
Structure prediction by ZEFSAII (Michael W. Deem and Ramdas Pophale) SiO2 
 PCOD9456168
Probable space group: P B C N
;
_chemical_formula_sum "Si O2"
_cell_formula_units_Z 56
_cell_length_a 19.646944
_cell_length_b 13.554830
_cell_length_c 8.862779
_cell_angle_alpha 90.000000
_cell_angle_beta 90.000000
_cell_angle_gamma 90.000000
_cell_volume 2360.255414
_symmetry_space_group_name_H-M "P B C N"
_symmetry_group_IT_number 60
_symmetry_cell_setting 'orthorhombic'
loop_
_space_group_symop_operation_xyz
x,y,z
1/2-x,1/2-y,1/2+z
1/2+x,1/2-y,-z
-x,y,1/2-z
-x,-y,-z
1/2+x,1/2+y,1/2-z
1/2-x,1/2+y,z
x,-y,1/2+z
loop_
_atom_site_type_symbol
_atom_site_label
_atom_site_fract_x
_atom_site_fract_y
_atom_site_fract_z
Si Si1 0.774997 0.694418 0.828570
Si Si2 0.598717 0.421317 0.161258
Si Si3 0.639520 0.055427 0.601905
Si Si4 0.582446 0.730568 0.437834
Si Si5 0.198509 0.390052 0.717496
Si Si6 0.312479 0.524720 0.578298
Si Si7 0.500000 0.885014 0.250000
Si Si8 0.500000 0.426383 0.750000
O O1 0.810315 0.628761 0.696801
O O2 0.839337 0.745750 0.905837
O O3 0.721762 0.776903 0.771619
O O4 0.734375 0.621047 0.939237
O O5 0.623504 0.431702 0.331304
O O6 0.540021 0.500885 0.140965
O O7 0.576673 0.314299 0.104518
O O8 0.661262 0.461519 0.061036
O O9 0.650515 0.086493 0.428653
O O10 0.563188 0.063729 0.666168
O O11 0.663447 0.944922 0.642377
O O12 0.536105 0.820054 0.381405
O O13 0.555415 0.641892 0.331260
O O14 0.267338 0.449999 0.677107
#
# Coordination Sequence:
#
# PCOD9456168 Si02
#       8
#     8   8   8   8   8   8   4   4
#     4  10  22  39  62  97 130 168 215 269 326 400
#     4  12  22  42  60  97 127 173 209 276 330 395
#     4  10  24  42  70  98 132 180 223 279 331 401
#     4  10  21  39  64  90 124 171 213 269 323 388
#     4  11  22  42  65  99 133 171 221 275 343 394
#     4  11  24  39  65  95 134 165 217 270 337 388
#     4   9  22  46  66  95 126 178 235 262 328 401
#     4  11  22  38  64  85 128 168 217 252 336 393
#
# _framework density 23.726246
#
# number of rings (size 3 to 8) (size 9 to 14) (size 15 to 20)
#    0.000    1.429    2.857    2.143    0.000    7.429 
#    2.571    0.000    0.000    0.000    0.000    0.000 
#    0.000    0.000    0.000    0.000    0.000    0.000 
#
# Total GULP energy -313112.733682 kJ/mol
# GULP energy per Si atom -5591.298816 kJ/mol
# Density = 2.367224 g / cm^3
# Si number density = 23.726246 Si / 1000 Ang^3
#
#
#
# Elastic Constant Matrix: (Units=GPa)
#
#
# Indices 1 2 3 4 5 6 
#
# 1 127.3358 45.7058 27.2276 0.0000 0.0000 0.0000
# 2 45.7058 91.9726 3.2066 0.0000 0.0000 0.0000
# 3 27.2276 3.2066 55.0005 0.0000 0.0000 0.0000
# 4 0.0000 0.0000 0.0000 41.0505 0.0000 0.0000
# 5 0.0000 0.0000 0.0000 0.0000 39.9171 0.0000
# 6 0.0000 0.0000 0.0000 0.0000 0.0000 52.6304
#
#
#
# Elastic Compliance Matrix: (Units=1/GPa)
#
#
# Indices 1 2 3 4 5 6 
#
# 1 0.010793 -0.005188 -0.005041 0.000000 0.000000 0.000000
# 2 -0.005188 0.013389 0.001788 0.000000 0.000000 0.000000
# 3 -0.005041 0.001788 0.020573 0.000000 0.000000 0.000000
# 4 0.000000 0.000000 0.000000 0.024360 0.000000 0.000000
# 5 0.000000 0.000000 0.000000 0.000000 0.025052 0.000000
# 6 0.000000 0.000000 0.000000 0.000000 0.000000 0.019000
#
#
# Mechanical properties :
#
#
# Convention : Reuss Voigt Hill
#
# Bulk Modulus (GPa) = 35.87725 47.39875 41.63800
# Shear Modulus (GPa) = 35.88345 39.93085 37.90715
#
# Velocity S-wave (km/s) = 3.89317 4.10687 4.00145
# Velocity P-wave (km/s) = 5.94670 6.51991 6.23989
#
# Compressibility (1/GPa) = 0.02787282
#
# Stress axis : x y z
#
# Youngs Moduli (GPa) = 92.65065 74.69017 48.60793
#
# Poissons Ratio (x) = 0.38749 0.24502
# Poissons Ratio (y) = 0.48067 -0.08690
# Poissons Ratio (z) = 0.46702 -0.13352
#
# Static dielectric constant tensor:
#      x y z
#    x 1.900380 0.000000 0.000000 
#    y 0.000000 1.906150 0.000000 
#    z 0.000000 0.000000 1.945050 
# 
# From -- ./inp_files/7465.got.cif
#   From: 2010.05.17/outbox.cif.g08.bks.cpg/sg60_4_cif.got.tgz:7465.got - 2010.06.03 14:59:27.
