data_PCOD9456147
_publ_section_title
;
Structure prediction by ZEFSAII (Michael W. Deem and Ramdas Pophale) SiO2 
 PCOD9456147
Probable space group: P B C N
;
_chemical_formula_sum "Si O2"
_cell_formula_units_Z 48
_cell_length_a 14.148773
_cell_length_b 14.595579
_cell_length_c 11.649286
_cell_angle_alpha 90.000000
_cell_angle_beta 90.000000
_cell_angle_gamma 90.000000
_cell_volume 2405.688624
_symmetry_space_group_name_H-M "P B C N"
_symmetry_group_IT_number 60
_symmetry_cell_setting 'orthorhombic'
loop_
_space_group_symop_operation_xyz
x,y,z
1/2-x,1/2-y,1/2+z
1/2+x,1/2-y,-z
-x,y,1/2-z
-x,-y,-z
1/2+x,1/2+y,1/2-z
1/2-x,1/2+y,z
x,-y,1/2+z
loop_
_atom_site_type_symbol
_atom_site_label
_atom_site_fract_x
_atom_site_fract_y
_atom_site_fract_z
Si Si1 0.760652 0.874691 0.393832
Si Si2 0.215409 0.926945 0.514873
Si Si3 0.134957 0.858252 0.740638
Si Si4 0.644448 0.223503 0.546814
Si Si5 0.452751 0.194036 0.634142
Si Si6 0.400381 0.436383 0.303949
O O1 0.816867 0.789908 0.448518
O O2 0.650017 0.848456 0.385573
O O3 0.815021 0.900186 0.276368
O O4 0.768748 0.964787 0.473542
O O5 0.210271 0.889360 0.644903
O O6 0.296601 0.869527 0.453627
O O7 0.122670 0.911887 0.435523
O O8 0.161239 0.783756 0.837254
O O9 0.063104 0.801429 0.661266
O O10 0.100773 0.952821 0.795238
O O11 0.534655 0.194870 0.539851
O O12 0.500000 0.153149 0.750000
O O13 0.500000 0.405147 0.250000
#
# Coordination Sequence:
#
# PCOD9456147 Si02
#       6
#     8   8   8   8   8   8
#     4  11  24  41  64  96 125 165 217 268 317 390
#     4  11  24  39  66  96 129 167 214 267 319 381
#     4  10  21  39  62  93 124 168 213 256 323 385
#     4  11  22  41  65  87 128 169 211 266 320 385
#     4  10  21  40  66  88 126 175 213 252 325 391
#     4  11  23  37  62  97 131 163 212 266 324 372
#
# _framework density 19.952705000000002
#
# number of rings (size 3 to 8) (size 9 to 14) (size 15 to 20)
#    0.000    1.333    3.333    3.500    2.333    2.000 
#    0.000    0.000    0.000    0.000    0.000    0.000 
#    0.000    0.000    0.000    0.000    0.000    0.000 
#
# Total GULP energy -267476.299565 kJ/mol
# GULP energy per Si atom -5572.422908 kJ/mol
# Density = 1.990729 g / cm^3
# Si number density = 19.952705 Si / 1000 Ang^3
#
#
#
# Elastic Constant Matrix: (Units=GPa)
#
#
# Indices 1 2 3 4 5 6 
#
# 1 116.7121 28.5234 28.4536 0.0000 0.0000 0.0000
# 2 28.5234 59.3977 19.8781 0.0000 0.0000 0.0000
# 3 28.4536 19.8781 69.1332 0.0000 0.0000 0.0000
# 4 0.0000 0.0000 0.0000 25.7302 0.0000 0.0000
# 5 0.0000 0.0000 0.0000 0.0000 27.6814 0.0000
# 6 0.0000 0.0000 0.0000 0.0000 0.0000 22.2336
#
#
#
# Elastic Compliance Matrix: (Units=1/GPa)
#
#
# Indices 1 2 3 4 5 6 
#
# 1 0.010278 -0.003895 -0.003110 0.000000 0.000000 0.000000
# 2 -0.003895 0.020104 -0.004178 0.000000 0.000000 0.000000
# 3 -0.003110 -0.004178 0.016946 0.000000 0.000000 0.000000
# 4 0.000000 0.000000 0.000000 0.038865 0.000000 0.000000
# 5 0.000000 0.000000 0.000000 0.000000 0.036125 0.000000
# 6 0.000000 0.000000 0.000000 0.000000 0.000000 0.044977
#
#
# Mechanical properties :
#
#
# Convention : Reuss Voigt Hill
#
# Bulk Modulus (GPa) = 40.05939 44.32815 42.19377
# Shear Modulus (GPa) = 25.25480 26.35490 25.80485
#
# Velocity S-wave (km/s) = 3.56157 3.63832 3.60015
# Velocity P-wave (km/s) = 6.08554 6.31780 6.20276
#
# Compressibility (1/GPa) = 0.02496294
#
# Stress axis : x y z
#
# Youngs Moduli (GPa) = 97.29292 49.74121 59.01034
#
# Poissons Ratio (x) = 0.19373 0.18355
# Poissons Ratio (y) = 0.37894 0.24652
# Poissons Ratio (z) = 0.30262 0.20780
#
# Static dielectric constant tensor:
#      x y z
#    x 1.764690 0.000000 0.000000 
#    y 0.000000 1.693520 0.000000 
#    z 0.000000 0.000000 1.776480 
# 
# From -- ./inp_files/11884.got.cif
#   From: 2010.05.17/outbox.cif.g08.bks.cpg/sg60_6_cif.got.tgz:11884.got - 2010.06.03 14:59:27.
