data_PCOD9456575
_publ_section_title
;
Structure prediction by ZEFSAII (Michael W. Deem and Ramdas Pophale) SiO2 
 PCOD9456575
Probable space group: P B C N
;
_chemical_formula_sum "Si O2"
_cell_formula_units_Z 36
_cell_length_a 14.606718
_cell_length_b 11.518085
_cell_length_c 9.783217
_cell_angle_alpha 90.000000
_cell_angle_beta 90.000000
_cell_angle_gamma 90.000000
_cell_volume 1645.942315
_symmetry_space_group_name_H-M "P B C N"
_symmetry_group_IT_number 60
_symmetry_cell_setting 'orthorhombic'
loop_
_space_group_symop_operation_xyz
x,y,z
1/2-x,1/2-y,1/2+z
1/2+x,1/2-y,-z
-x,y,1/2-z
-x,-y,-z
1/2+x,1/2+y,1/2-z
1/2-x,1/2+y,z
x,-y,1/2+z
loop_
_atom_site_type_symbol
_atom_site_label
_atom_site_fract_x
_atom_site_fract_y
_atom_site_fract_z
Si Si1 0.394695 0.878918 0.606503
Si Si2 0.656190 0.352928 0.273154
Si Si3 0.000000 0.213204 0.250000
Si Si4 0.357302 0.914897 0.295830
Si Si5 0.992068 0.162563 0.548597
O O1 0.330546 0.781063 0.677593
O O2 0.360782 0.925102 0.460073
O O3 0.484726 0.800553 0.574799
O O4 0.404122 0.982673 0.711378
O O5 0.753332 0.410717 0.256605
O O6 0.582210 0.395954 0.384996
O O7 0.599260 0.360197 0.132470
O O8 0.911700 0.296541 0.236617
O O9 0.009297 0.142877 0.111157
#
# Coordination Sequence:
#
# PCOD9456575 Si02
#       5
#     8   8   4   8   8
#     4   9  22  36  54  92 110 157 190 238 289 343
#     4   9  20  39  58  82 118 160 187 242 290 347
#     4  10  22  30  58  92 114 152 190 246 290 346
#     4  11  23  35  59  89 125 148 196 239 300 339
#     4   8  19  38  57  81 116 149 201 229 292 336
#
# _framework density 21.871970000000001
#
# number of rings (size 3 to 8) (size 9 to 14) (size 15 to 20)
#    1.333    1.333    0.000    0.000    9.333    1.778 
#    0.000    0.000    0.000    8.000    0.000    0.000 
#    0.000    0.000    0.000    0.000    0.000    0.000 
#
# Total GULP energy -200802.431633 kJ/mol
# GULP energy per Si atom -5577.845323 kJ/mol
# Density = 2.182219 g / cm^3
# Si number density = 21.871970 Si / 1000 Ang^3
#
#
#
# Elastic Constant Matrix: (Units=GPa)
#
#
# Indices 1 2 3 4 5 6 
#
# 1 125.9485 22.8170 67.5372 0.0000 0.0000 0.0000
# 2 22.8170 62.2499 53.9586 0.0000 0.0000 0.0000
# 3 67.5372 53.9586 155.6918 0.0000 0.0000 0.0000
# 4 0.0000 0.0000 0.0000 -9.9314 0.0000 0.0000
# 5 0.0000 0.0000 0.0000 0.0000 9.8559 0.0000
# 6 0.0000 0.0000 0.0000 0.0000 0.0000 16.5961
#
#
#
# Elastic Compliance Matrix: (Units=1/GPa)
#
#
# Indices 1 2 3 4 5 6 
#
# 1 0.010347 0.000140 -0.004537 0.000000 0.000000 0.000000
# 2 0.000140 0.022964 -0.008020 0.000000 0.000000 0.000000
# 3 -0.004537 -0.008020 0.011170 0.000000 0.000000 0.000000
# 4 0.000000 0.000000 0.000000 -0.100691 0.000000 0.000000
# 5 0.000000 0.000000 0.000000 0.000000 0.101462 0.000000
# 6 0.000000 0.000000 0.000000 0.000000 0.000000 0.060255
#
#
# Mechanical properties :
#
#
# Convention : Reuss Voigt Hill
#
# Bulk Modulus (GPa) = 50.89339 70.27954 60.58646
# Shear Modulus (GPa) = 36.52534 16.60927 26.56731
#
# Velocity S-wave (km/s) = 4.09095 2.75869 3.48900
# Velocity P-wave (km/s) = 6.75528 6.50762 6.63261
#
# Compressibility (1/GPa) = 0.01964892
#
# Stress axis : x y z
#
# Youngs Moduli (GPa) = 96.64369 43.54571 89.52189
#
# Poissons Ratio (x) = -0.00610 0.40617
# Poissons Ratio (y) = -0.01354 0.71793
# Poissons Ratio (z) = 0.43848 0.34922
#
# Static dielectric constant tensor:
#      x y z
#    x 1.777660 0.000000 0.000000 
#    y 0.000000 1.828350 0.000000 
#    z 0.000000 0.000000 1.804840 
# 
# From -- ./inp_files/5626.got.cif
#   From: 2010.05.17/outbox.cif.g08.bks.cpg/sg60_3_cif.got.tgz:5626.got - 2010.06.03 14:59:27.
