data_PCOD9456662
_publ_section_title
;
Structure prediction by ZEFSAII (Michael W. Deem and Ramdas Pophale) SiO2 
 PCOD9456662
Probable space group: P B C N
;
_chemical_formula_sum "Si O2"
_cell_formula_units_Z 36
_cell_length_a 4.910652
_cell_length_b 10.345903
_cell_length_c 25.614019
_cell_angle_alpha 90.000000
_cell_angle_beta 90.000000
_cell_angle_gamma 90.000000
_cell_volume 1301.323546
_symmetry_space_group_name_H-M "P B C N"
_symmetry_group_IT_number 60
_symmetry_cell_setting 'orthorhombic'
loop_
_space_group_symop_operation_xyz
x,y,z
1/2-x,1/2-y,1/2+z
1/2+x,1/2-y,-z
-x,y,1/2-z
-x,-y,-z
1/2+x,1/2+y,1/2-z
1/2-x,1/2+y,z
x,-y,1/2+z
loop_
_atom_site_type_symbol
_atom_site_label
_atom_site_fract_x
_atom_site_fract_y
_atom_site_fract_z
Si Si1 0.500000 0.704242 0.250000
Si Si2 0.679638 0.573509 0.057371
Si Si3 0.699666 0.632967 0.838317
Si Si4 0.819593 0.608951 0.949984
Si Si5 0.695543 0.959012 0.667669
O O1 0.681188 0.783997 0.291320
O O2 0.708822 0.618188 0.217287
O O3 0.378248 0.516752 0.054056
O O4 0.739131 0.621237 0.115271
O O5 0.878787 0.448562 0.052403
O O6 0.749968 0.661050 0.007582
O O7 0.754860 0.685545 0.897029
O O8 0.389103 0.586737 0.833511
O O9 0.885550 0.503392 0.834487
#
# Coordination Sequence:
#
# PCOD9456662 Si02
#       5
#     4   8   8   8   8
#     4  12  24  38  60  84 120 162 196 236 292 348
#     4   8  14  28  52  77 103 138 178 226 283 333
#     4  10  22  38  57  84 115 150 195 241 287 345
#     4   8  14  28  52  77 103 138 178 226 283 333
#     4  10  22  38  57  84 115 150 195 241 287 345
#
# _framework density 27.664145000000001
#
# number of rings (size 3 to 8) (size 9 to 14) (size 15 to 20)
#    0.000    2.667    0.000    1.333    0.000    3.556 
#    0.000    0.000    0.000   26.667    0.000    0.000 
#    0.000    0.000    0.000    0.000    0.000    0.000 
#
# Total GULP energy -201859.377302 kJ/mol
# GULP energy per Si atom -5607.204925 kJ/mol
# Density = 2.760118 g / cm^3
# Si number density = 27.664145 Si / 1000 Ang^3
#
#
#
# Elastic Constant Matrix: (Units=GPa)
#
#
# Indices 1 2 3 4 5 6 
#
# 1 118.2123 28.0640 4.4858 0.0000 0.0000 0.0000
# 2 28.0640 59.4336 23.7645 0.0000 0.0000 0.0000
# 3 4.4858 23.7645 194.2358 0.0000 0.0000 0.0000
# 4 0.0000 0.0000 0.0000 -57.0692 0.0000 0.0000
# 5 0.0000 0.0000 0.0000 0.0000 46.3006 0.0000
# 6 0.0000 0.0000 0.0000 0.0000 0.0000 36.5252
#
#
#
# Elastic Compliance Matrix: (Units=1/GPa)
#
#
# Indices 1 2 3 4 5 6 
#
# 1 0.009550 -0.004649 0.000348 0.000000 0.000000 0.000000
# 2 -0.004649 0.019954 -0.002334 0.000000 0.000000 0.000000
# 3 0.000348 -0.002334 0.005426 0.000000 0.000000 0.000000
# 4 0.000000 0.000000 0.000000 -0.017523 0.000000 0.000000
# 5 0.000000 0.000000 0.000000 0.000000 0.021598 0.000000
# 6 0.000000 0.000000 0.000000 0.000000 0.000000 0.027378
#
#
# Mechanical properties :
#
#
# Convention : Reuss Voigt Hill
#
# Bulk Modulus (GPa) = 46.16640 53.83448 50.00044
# Shear Modulus (GPa) = 57.55605 26.18915 41.87260
#
# Velocity S-wave (km/s) = 4.56623 3.08016 3.89473
# Velocity P-wave (km/s) = 6.67271 5.67028 6.19181
#
# Compressibility (1/GPa) = 0.02166077
#
# Stress axis : x y z
#
# Youngs Moduli (GPa) = 104.71519 50.11603 184.30133
#
# Poissons Ratio (x) = 0.23296 -0.06417
# Poissons Ratio (y) = 0.48677 0.43015
# Poissons Ratio (z) = -0.03646 0.11697
#
# Static dielectric constant tensor:
#      x y z
#    x 2.032840 0.000000 0.000000 
#    y 0.000000 2.090680 0.000000 
#    z 0.000000 0.000000 2.200460 
# 
# From -- ./inp_files/23509.got.cif
#   From: 2010.05.17/outbox.cif.g08.bks.cpg/sg60_12_cif.got.tgz:23509.got - 2010.06.03 14:59:27.
