data_PCOD9456751
_publ_section_title
;
Structure prediction by ZEFSAII (Michael W. Deem and Ramdas Pophale) SiO2 
 PCOD9456751
Probable space group: P B C N
;
_chemical_formula_sum "Si O2"
_cell_formula_units_Z 52
_cell_length_a 14.118740
_cell_length_b 9.586179
_cell_length_c 19.043487
_cell_angle_alpha 90.000000
_cell_angle_beta 90.000000
_cell_angle_gamma 90.000000
_cell_volume 2577.436347
_symmetry_space_group_name_H-M "P B C N"
_symmetry_group_IT_number 60
_symmetry_cell_setting 'orthorhombic'
loop_
_space_group_symop_operation_xyz
x,y,z
1/2-x,1/2-y,1/2+z
1/2+x,1/2-y,-z
-x,y,1/2-z
-x,-y,-z
1/2+x,1/2+y,1/2-z
1/2-x,1/2+y,z
x,-y,1/2+z
loop_
_atom_site_type_symbol
_atom_site_label
_atom_site_fract_x
_atom_site_fract_y
_atom_site_fract_z
Si Si1 0.500000 0.377317 0.250000
Si Si2 0.768316 0.296283 0.402866
Si Si3 0.594690 0.085479 0.008026
Si Si4 0.308684 0.181752 0.948811
Si Si5 0.142096 0.045497 0.157605
Si Si6 0.118739 0.810324 0.378806
Si Si7 0.537644 0.584868 0.066806
O O1 0.584946 0.476703 0.278195
O O2 0.553023 0.287412 0.189548
O O3 0.860466 0.375665 0.433151
O O4 0.733428 0.219548 0.474220
O O5 0.787853 0.179013 0.343441
O O6 0.695250 0.414595 0.378318
O O7 0.578024 0.219082 0.056849
O O8 0.666829 0.981246 0.047880
O O9 0.500000 0.000000 0.000000
O O10 0.231515 0.213767 0.888133
O O11 0.401869 0.276632 0.942995
O O12 0.056641 0.104871 0.110961
O O13 0.104081 0.973263 0.394398
O O14 0.500000 0.500000 0.000000
#
# Coordination Sequence:
#
# PCOD9456751 Si02
#       7
#     4   8   8   8   8   8   8
#     4  10  26  46  62  86 128 190 228 258 314 402
#     4  11  21  38  65  96 125 164 203 273 335 384
#     4  11  22  35  64 104 134 152 203 279 345 383
#     4  11  20  36  61 102 130 155 209 270 338 390
#     4  11  23  42  63  89 129 170 225 256 322 391
#     4  10  22  39  61  87 127 173 218 260 318 398
#     4  11  19  35  63  91 128 167 201 266 330 389
#
# _framework density 20.175086
#
# number of rings (size 3 to 8) (size 9 to 14) (size 15 to 20)
#    0.000    1.231    3.077    5.538    2.154    0.000 
#    8.308    0.000    0.000    4.615    0.000    0.000 
#    0.000    0.000    0.000    0.000    0.000    0.000 
#
# Total GULP energy -289797.295030 kJ/mol
# GULP energy per Si atom -5573.024904 kJ/mol
# Density = 2.012917 g / cm^3
# Si number density = 20.175086 Si / 1000 Ang^3
#
#
#
# Elastic Constant Matrix: (Units=GPa)
#
#
# Indices 1 2 3 4 5 6 
#
# 1 99.2121 40.3074 32.7610 0.0000 0.0000 0.0000
# 2 40.3074 104.3260 14.3285 0.0000 0.0000 0.0000
# 3 32.7610 14.3285 59.4242 0.0000 0.0000 0.0000
# 4 0.0000 0.0000 0.0000 12.7973 0.0000 0.0000
# 5 0.0000 0.0000 0.0000 0.0000 42.0063 0.0000
# 6 0.0000 0.0000 0.0000 0.0000 0.0000 35.5135
#
#
#
# Elastic Compliance Matrix: (Units=1/GPa)
#
#
# Indices 1 2 3 4 5 6 
#
# 1 0.014137 -0.004542 -0.006698 0.000000 0.000000 0.000000
# 2 -0.004542 0.011373 -0.000238 0.000000 0.000000 0.000000
# 3 -0.006698 -0.000238 0.020579 0.000000 0.000000 0.000000
# 4 0.000000 0.000000 0.000000 0.078141 0.000000 0.000000
# 5 0.000000 0.000000 0.000000 0.000000 0.023806 0.000000
# 6 0.000000 0.000000 0.000000 0.000000 0.000000 0.028158
#
#
# Mechanical properties :
#
#
# Convention : Reuss Voigt Hill
#
# Bulk Modulus (GPa) = 43.23244 48.63957 45.93600
# Shear Modulus (GPa) = 24.17082 29.76777 26.96929
#
# Velocity S-wave (km/s) = 3.46504 3.84535 3.66014
# Velocity P-wave (km/s) = 6.12241 6.62395 6.37811
#
# Compressibility (1/GPa) = 0.02313078
#
# Stress axis : x y z
#
# Youngs Moduli (GPa) = 70.73855 87.92874 48.59428
#
# Poissons Ratio (x) = 0.39936 0.32551
# Poissons Ratio (y) = 0.32128 0.01158
# Poissons Ratio (z) = 0.47384 0.02095
#
# Static dielectric constant tensor:
#      x y z
#    x 1.796720 0.000000 0.000000 
#    y 0.000000 1.416250 0.000000 
#    z 0.000000 0.000000 1.762470 
# 
# From -- ./inp_files/22868.got.cif
#   From: 2010.05.17/outbox.cif.g08.bks.cpg/sg60_12_cif.got.tgz:22868.got - 2010.06.03 14:59:27.
