data_PCOD9456866
_publ_section_title
;
Structure prediction by ZEFSAII (Michael W. Deem and Ramdas Pophale) SiO2 
 PCOD9456866
Probable space group: P B C N
;
_chemical_formula_sum "Si O2"
_cell_formula_units_Z 56
_cell_length_a 13.803664
_cell_length_b 17.282178
_cell_length_c 10.115228
_cell_angle_alpha 90.000000
_cell_angle_beta 90.000000
_cell_angle_gamma 90.000000
_cell_volume 2413.062273
_symmetry_space_group_name_H-M "P B C N"
_symmetry_group_IT_number 60
_symmetry_cell_setting 'orthorhombic'
loop_
_space_group_symop_operation_xyz
x,y,z
1/2-x,1/2-y,1/2+z
1/2+x,1/2-y,-z
-x,y,1/2-z
-x,-y,-z
1/2+x,1/2+y,1/2-z
1/2-x,1/2+y,z
x,-y,1/2+z
loop_
_atom_site_type_symbol
_atom_site_label
_atom_site_fract_x
_atom_site_fract_y
_atom_site_fract_z
Si Si1 0.092956 0.901043 0.343112
Si Si2 0.923839 0.068081 0.128054
Si Si3 0.000958 0.218022 0.987517
Si Si4 0.323407 0.187207 0.126831
Si Si5 0.698489 0.908981 0.624332
Si Si6 0.649923 0.189718 0.862834
Si Si7 0.195374 0.412871 0.364327
O O1 0.088910 0.814663 0.399250
O O2 0.200380 0.911727 0.288005
O O3 0.000000 0.904017 0.250000
O O4 0.084791 0.980411 0.428563
O O5 0.813039 0.089299 0.161675
O O6 0.000000 0.067837 0.250000
O O7 0.957054 0.136419 0.033576
O O8 0.052378 0.265387 0.100839
O O9 0.917812 0.265418 0.917289
O O10 0.348396 0.137408 0.255511
O O11 0.235553 0.246864 0.154781
O O12 0.295144 0.129860 0.005411
O O13 0.679092 0.864639 0.487403
O O14 0.666002 0.998354 0.616854
O O15 0.632933 0.138810 0.733137
#
# Coordination Sequence:
#
# PCOD9456866 Si02
#       7
#     8   8   8   8   8   8   8
#     4  10  22  40  67 100 135 173 219 282 353 416
#     4  10  22  40  67 100 135 173 219 282 353 416
#     4  12  25  40  69 100 140 172 230 282 347 398
#     4  12  25  44  70 102 139 176 228 281 342 402
#     4  11  25  47  69  97 138 185 226 277 340 407
#     4  12  25  44  70 102 139 176 228 281 342 402
#     4  11  25  47  69  97 138 185 226 277 340 407
#
# _framework density 23.207028000000001
#
# number of rings (size 3 to 8) (size 9 to 14) (size 15 to 20)
#    0.000    0.857    2.857    3.857    4.000    0.000 
#    0.000    4.286    0.000    0.000    0.000    0.000 
#    0.000    0.000    0.000    0.000    0.000    0.000 
#
# Total GULP energy -313086.955514 kJ/mol
# GULP energy per Si atom -5590.838491 kJ/mol
# Density = 2.315421 g / cm^3
# Si number density = 23.207028 Si / 1000 Ang^3
#
#
#
# Elastic Constant Matrix: (Units=GPa)
#
#
# Indices 1 2 3 4 5 6 
#
# 1 49.6889 17.7655 -19.2646 0.0000 0.0000 0.0000
# 2 17.7655 170.4416 43.2622 0.0000 0.0000 0.0000
# 3 -19.2646 43.2622 72.2611 0.0000 0.0000 0.0000
# 4 0.0000 0.0000 0.0000 79.4108 0.0000 0.0000
# 5 0.0000 0.0000 0.0000 0.0000 27.2557 0.0000
# 6 0.0000 0.0000 0.0000 0.0000 0.0000 54.4921
#
#
#
# Elastic Compliance Matrix: (Units=1/GPa)
#
#
# Indices 1 2 3 4 5 6 
#
# 1 0.025897 -0.005250 0.010047 0.000000 0.000000 0.000000
# 2 -0.005250 0.007983 -0.006179 0.000000 0.000000 0.000000
# 3 0.010047 -0.006179 0.020216 0.000000 0.000000 0.000000
# 4 0.000000 0.000000 0.000000 0.012593 0.000000 0.000000
# 5 0.000000 0.000000 0.000000 0.000000 0.036690 0.000000
# 6 0.000000 0.000000 0.000000 0.000000 0.000000 0.018351
#
#
# Mechanical properties :
#
#
# Convention : Reuss Voigt Hill
#
# Bulk Modulus (GPa) = 19.48028 41.76866 30.62447
# Shear Modulus (GPa) = 35.30988 48.94027 42.12507
#
# Velocity S-wave (km/s) = 3.90489 4.59721 4.26512
# Velocity P-wave (km/s) = 5.36128 6.79827 6.12208
#
# Compressibility (1/GPa) = 0.05133396
#
# Stress axis : x y z
#
# Youngs Moduli (GPa) = 38.61398 125.27305 49.46506
#
# Poissons Ratio (x) = 0.65762 -0.49698
# Poissons Ratio (y) = 0.20270 0.30563
# Poissons Ratio (z) = -0.38795 0.77401
#
# Static dielectric constant tensor:
#      x y z
#    x 1.964690 0.000000 0.000000 
#    y 0.000000 1.882620 0.000000 
#    z 0.000000 0.000000 1.975870 
# 
# From -- ./inp_files/11972.got.cif
#   From: 2010.05.17/outbox.cif.g08.bks.cpg/sg60_6_cif.got.tgz:11972.got - 2010.06.03 14:59:27.
