data_PCOD9456473
_publ_section_title
;
Structure prediction by ZEFSAII (Michael W. Deem and Ramdas Pophale) SiO2 
 PCOD9456473
Probable space group: P B C N
;
_chemical_formula_sum "Si O2"
_cell_formula_units_Z 60
_cell_length_a 5.408020
_cell_length_b 25.720898
_cell_length_c 19.322217
_cell_angle_alpha 90.000000
_cell_angle_beta 90.000000
_cell_angle_gamma 90.000000
_cell_volume 2687.703590
_symmetry_space_group_name_H-M "P B C N"
_symmetry_group_IT_number 60
_symmetry_cell_setting 'orthorhombic'
loop_
_space_group_symop_operation_xyz
x,y,z
1/2-x,1/2-y,1/2+z
1/2+x,1/2-y,-z
-x,y,1/2-z
-x,-y,-z
1/2+x,1/2+y,1/2-z
1/2-x,1/2+y,z
x,-y,1/2+z
loop_
_atom_site_type_symbol
_atom_site_label
_atom_site_fract_x
_atom_site_fract_y
_atom_site_fract_z
Si Si1 0.452654 0.928073 0.828096
Si Si2 0.890541 0.625194 0.571075
Si Si3 0.500000 0.373863 0.250000
Si Si4 0.823333 0.870886 0.924680
Si Si5 0.169518 0.292582 0.319157
Si Si6 0.871266 0.929740 0.376734
Si Si7 0.926968 0.972708 0.572705
Si Si8 0.860359 0.821086 0.677380
O O1 0.500000 0.947459 0.750000
O O2 0.689662 0.903765 0.864883
O O3 0.324475 0.967889 0.882118
O O4 0.286765 0.875102 0.821637
O O5 0.844547 0.638820 0.490812
O O6 0.945024 0.678218 0.614363
O O7 0.639158 0.593830 0.596178
O O8 0.131431 0.589294 0.581434
O O9 0.376860 0.333804 0.301581
O O10 0.332759 0.409672 0.201684
O O11 0.027845 0.912788 0.946070
O O12 0.948992 0.823048 0.886676
O O13 0.272201 0.234532 0.329833
O O14 0.000000 0.291961 0.250000
O O15 0.902702 0.991621 0.378012
O O16 0.000000 0.000000 0.500000
O O17 0.000000 0.819615 0.750000
#
# Coordination Sequence:
#
# PCOD9456473 Si02
#       8
#     8   8   4   8   8   8   8   8
#     4  11  24  42  66  98 134 177 236 298 346 427
#     4  11  24  44  66 102 140 180 230 292 346 419
#     4  10  22  40  66 102 136 178 232 298 352 416
#     4  11  24  42  68  94 140 180 228 294 347 421
#     4  10  21  42  70  98 135 182 231 284 354 428
#     4  11  24  42  67  98 139 177 232 285 345 418
#     4  11  24  43  66  96 131 187 231 278 365 430
#     4  10  22  42  67  97 129 179 233 283 356 419
#
# _framework density 22.323892000000001
#
# number of rings (size 3 to 8) (size 9 to 14) (size 15 to 20)
#    0.000    1.333    4.000    0.800    4.667    2.133 
#    2.400    0.000    0.000    0.000    0.000    0.000 
#    0.000    0.000    0.000    0.000    0.000    0.000 
#
# Total GULP energy -334026.074187 kJ/mol
# GULP energy per Si atom -5567.101236 kJ/mol
# Density = 2.227308 g / cm^3
# Si number density = 22.323892 Si / 1000 Ang^3
#
#
#
# Elastic Constant Matrix: (Units=GPa)
#
#
# Indices 1 2 3 4 5 6 
#
# 1 65.2589 6.0362 18.5995 0.0000 0.0000 0.0000
# 2 6.0362 82.5867 24.9931 0.0000 0.0000 0.0000
# 3 18.5995 24.9931 107.0634 0.0000 0.0000 0.0000
# 4 0.0000 0.0000 0.0000 20.6429 0.0000 0.0000
# 5 0.0000 0.0000 0.0000 0.0000 33.0856 0.0000
# 6 0.0000 0.0000 0.0000 0.0000 0.0000 26.3275
#
#
#
# Elastic Compliance Matrix: (Units=1/GPa)
#
#
# Indices 1 2 3 4 5 6 
#
# 1 0.016132 -0.000356 -0.002719 0.000000 0.000000 0.000000
# 2 -0.000356 0.013037 -0.002981 0.000000 0.000000 0.000000
# 3 -0.002719 -0.002981 0.010509 0.000000 0.000000 0.000000
# 4 0.000000 0.000000 0.000000 0.048443 0.000000 0.000000
# 5 0.000000 0.000000 0.000000 0.000000 0.030225 0.000000
# 6 0.000000 0.000000 0.000000 0.000000 0.000000 0.037983
#
#
# Mechanical properties :
#
#
# Convention : Reuss Voigt Hill
#
# Bulk Modulus (GPa) = 36.28021 39.35186 37.81604
# Shear Modulus (GPa) = 28.14855 29.69655 28.92255
#
# Velocity S-wave (km/s) = 3.55479 3.65123 3.60333
# Velocity P-wave (km/s) = 5.75636 5.95325 5.85564
#
# Compressibility (1/GPa) = 0.02756323
#
# Stress axis : x y z
#
# Youngs Moduli (GPa) = 61.99034 76.70600 95.15956
#
# Poissons Ratio (x) = 0.02732 0.25877
# Poissons Ratio (y) = 0.02208 0.28372
# Poissons Ratio (z) = 0.16857 0.22870
#
# Static dielectric constant tensor:
#      x y z
#    x 0.771900 0.000000 0.000000 
#    y 0.000000 1.872590 0.000000 
#    z 0.000000 0.000000 1.948810 
# 
# From -- ./inp_files/21766.got.cif
#   From: 2010.05.17/outbox.cif.g08.bks.cpg/sg60_11_cif.got.tgz:21766.got - 2010.06.03 14:59:27.
