data_PCOD9456295
_publ_section_title
;
Structure prediction by ZEFSAII (Michael W. Deem and Ramdas Pophale) SiO2 
 PCOD9456295
Probable space group: P B C N
;
_chemical_formula_sum "Si O2"
_cell_formula_units_Z 48
_cell_length_a 15.688635
_cell_length_b 9.494074
_cell_length_c 13.815954
_cell_angle_alpha 90.000000
_cell_angle_beta 90.000000
_cell_angle_gamma 90.000000
_cell_volume 2057.873384
_symmetry_space_group_name_H-M "P B C N"
_symmetry_group_IT_number 60
_symmetry_cell_setting 'orthorhombic'
loop_
_space_group_symop_operation_xyz
x,y,z
1/2-x,1/2-y,1/2+z
1/2+x,1/2-y,-z
-x,y,1/2-z
-x,-y,-z
1/2+x,1/2+y,1/2-z
1/2-x,1/2+y,z
x,-y,1/2+z
loop_
_atom_site_type_symbol
_atom_site_label
_atom_site_fract_x
_atom_site_fract_y
_atom_site_fract_z
Si Si1 0.753029 0.797485 0.157177
Si Si2 0.739858 0.344600 0.934976
Si Si3 0.000000 0.084750 0.750000
Si Si4 0.000000 0.370341 0.250000
Si Si5 0.927097 0.153542 0.116707
Si Si6 0.670224 0.042867 0.263555
Si Si7 0.635442 0.399033 0.403106
O O1 0.662846 0.716099 0.152547
O O2 0.816768 0.680377 0.197118
O O3 0.740331 0.930104 0.226645
O O4 0.768965 0.854761 0.049747
O O5 0.815199 0.420585 0.875529
O O6 0.774330 0.185517 0.916334
O O7 0.658772 0.433524 0.894879
O O8 0.073339 0.151995 0.682837
O O9 0.050105 0.987955 0.827147
O O10 0.005544 0.269162 0.344127
O O11 0.081235 0.468921 0.250146
O O12 0.915687 0.128730 0.003030
#
# Coordination Sequence:
#
# PCOD9456295 Si02
#       7
#     8   8   4   4   8   8   8
#     4  10  21  40  66  96 131 175 224 273 327 400
#     4  11  24  42  66  99 134 177 229 278 330 395
#     4  11  22  41  66  96 134 176 218 268 338 406
#     4   9  22  43  70 104 140 174 214 284 352 392
#     4   9  20  41  66  95 134 176 219 270 334 403
#     4  11  22  42  68  98 135 175 222 276 336 401
#     4  11  24  42  67  99 133 176 226 278 333 400
#
# _framework density 23.325050999999998
#
# number of rings (size 3 to 8) (size 9 to 14) (size 15 to 20)
#    0.000    1.667    0.000    4.500    0.000    4.667 
#    0.000   12.500    0.000    2.000    0.000    0.000 
#    0.000    0.000    0.000    0.000    0.000    0.000 
#
# Total GULP energy -267932.426080 kJ/mol
# GULP energy per Si atom -5581.925543 kJ/mol
# Density = 2.327196 g / cm^3
# Si number density = 23.325051 Si / 1000 Ang^3
#
#
#
# Elastic Constant Matrix: (Units=GPa)
#
#
# Indices 1 2 3 4 5 6 
#
# 1 75.3514 46.1783 51.4241 0.0000 0.0000 0.0000
# 2 46.1783 90.1376 70.1210 0.0000 0.0000 0.0000
# 3 51.4241 70.1210 160.9883 0.0000 0.0000 0.0000
# 4 0.0000 0.0000 0.0000 25.9060 0.0000 0.0000
# 5 0.0000 0.0000 0.0000 0.0000 33.9524 0.0000
# 6 0.0000 0.0000 0.0000 0.0000 0.0000 -42.0743
#
#
#
# Elastic Compliance Matrix: (Units=1/GPa)
#
#
# Indices 1 2 3 4 5 6 
#
# 1 0.020228 -0.008071 -0.002946 0.000000 0.000000 0.000000
# 2 -0.008071 0.020001 -0.006133 0.000000 0.000000 0.000000
# 3 -0.002946 -0.006133 0.009824 0.000000 0.000000 0.000000
# 4 0.000000 0.000000 0.000000 0.038601 0.000000 0.000000
# 5 0.000000 0.000000 0.000000 0.000000 0.029453 0.000000
# 6 0.000000 0.000000 0.000000 0.000000 0.000000 -0.023767
#
#
# Mechanical properties :
#
#
# Convention : Reuss Voigt Hill
#
# Bulk Modulus (GPa) = 63.48548 73.54711 68.51630
# Shear Modulus (GPa) = 37.34394 14.14041 25.74217
#
# Velocity S-wave (km/s) = 4.00562 2.46485 3.32569
# Velocity P-wave (km/s) = 6.97640 6.30083 6.64720
#
# Compressibility (1/GPa) = 0.01575163
#
# Stress axis : x y z
#
# Youngs Moduli (GPa) = 49.43653 49.99874 101.79102
#
# Poissons Ratio (x) = 0.40356 0.29985
# Poissons Ratio (y) = 0.39902 0.62432
# Poissons Ratio (z) = 0.14563 0.30666
#
# Static dielectric constant tensor:
#      x y z
#    x 1.917810 0.000000 0.000000 
#    y 0.000000 1.921040 0.000000 
#    z 0.000000 0.000000 1.862480 
# 
# From -- ./inp_files/17364.got.cif
#   From: 2010.05.17/outbox.cif.g08.bks.cpg/sg60_9_cif.got.tgz:17364.got - 2010.06.03 14:59:27.
