data_PCOD9456524
_publ_section_title
;
Structure prediction by ZEFSAII (Michael W. Deem and Ramdas Pophale) SiO2 
 PCOD9456524
Probable space group: P B C N
;
_chemical_formula_sum "Si O2"
_cell_formula_units_Z 36
_cell_length_a 14.575874
_cell_length_b 12.737488
_cell_length_c 10.173926
_cell_angle_alpha 90.000000
_cell_angle_beta 90.000000
_cell_angle_gamma 90.000000
_cell_volume 1888.891306
_symmetry_space_group_name_H-M "P B C N"
_symmetry_group_IT_number 60
_symmetry_cell_setting 'orthorhombic'
loop_
_space_group_symop_operation_xyz
x,y,z
1/2-x,1/2-y,1/2+z
1/2+x,1/2-y,-z
-x,y,1/2-z
-x,-y,-z
1/2+x,1/2+y,1/2-z
1/2-x,1/2+y,z
x,-y,1/2+z
loop_
_atom_site_type_symbol
_atom_site_label
_atom_site_fract_x
_atom_site_fract_y
_atom_site_fract_z
Si Si1 0.500000 0.582517 0.250000
Si Si2 0.143228 0.032615 0.897213
Si Si3 0.050325 0.563971 0.610667
Si Si4 0.367219 0.277100 0.591411
Si Si5 0.745444 0.585511 0.873460
O O1 0.458043 0.509228 0.362706
O O2 0.585068 0.654526 0.294992
O O3 0.192299 0.051756 0.757133
O O4 0.145861 0.142931 0.973280
O O5 0.192530 0.950097 0.995349
O O6 0.060109 0.684490 0.563704
O O7 0.155611 0.527963 0.626819
O O8 0.000000 0.559930 0.750000
O O9 0.000000 0.500000 0.500000
O O10 0.276583 0.208622 0.626117
#
# Coordination Sequence:
#
# PCOD9456524 Si02
#       5
#     4   8   8   8   8
#     4  12  24  46  68  94 142 184 220 292 336 428
#     4  12  24  46  64 103 133 179 233 276 350 402
#     4  10  21  44  65  99 134 173 218 277 344 403
#     4  10  24  41  67  95 131 179 217 280 342 390
#     4  10  25  40  72  95 134 174 227 283 332 413
#
# _framework density 19.058799
#
# number of rings (size 3 to 8) (size 9 to 14) (size 15 to 20)
#    1.333    0.000    3.333    2.000    3.111    0.000 
#    2.000    0.000    0.000    0.000    0.000    0.000 
#    0.000    0.000    0.000    0.000    0.000    0.000 
#
# Total GULP energy -200502.401713 kJ/mol
# GULP energy per Si atom -5569.511159 kJ/mol
# Density = 1.901542 g / cm^3
# Si number density = 19.058799 Si / 1000 Ang^3
#
#
#
# Elastic Constant Matrix: (Units=GPa)
#
#
# Indices 1 2 3 4 5 6 
#
# 1 69.1608 31.6836 55.5413 0.0000 0.0000 0.0000
# 2 31.6836 104.2254 59.6473 0.0000 0.0000 0.0000
# 3 55.5413 59.6473 107.1513 0.0000 0.0000 0.0000
# 4 0.0000 0.0000 0.0000 29.8986 0.0000 0.0000
# 5 0.0000 0.0000 0.0000 0.0000 46.9836 0.0000
# 6 0.0000 0.0000 0.0000 0.0000 0.0000 30.3375
#
#
#
# Elastic Compliance Matrix: (Units=1/GPa)
#
#
# Indices 1 2 3 4 5 6 
#
# 1 0.024775 -0.000267 -0.012693 0.000000 0.000000 0.000000
# 2 -0.000267 0.014083 -0.007701 0.000000 0.000000 0.000000
# 3 -0.012693 -0.007701 0.020199 0.000000 0.000000 0.000000
# 4 0.000000 0.000000 0.000000 0.033446 0.000000 0.000000
# 5 0.000000 0.000000 0.000000 0.000000 0.021284 0.000000
# 6 0.000000 0.000000 0.000000 0.000000 0.000000 0.032962
#
#
# Mechanical properties :
#
#
# Convention : Reuss Voigt Hill
#
# Bulk Modulus (GPa) = 56.38846 63.80911 60.09878
# Shear Modulus (GPa) = 25.77526 30.35498 28.06512
#
# Velocity S-wave (km/s) = 3.68150 3.99520 3.84155
# Velocity P-wave (km/s) = 6.90811 7.40506 7.16090
#
# Compressibility (1/GPa) = 0.01773413
#
# Stress axis : x y z
#
# Youngs Moduli (GPa) = 40.36305 71.00738 49.50734
#
# Poissons Ratio (x) = 0.01897 0.62841
# Poissons Ratio (y) = 0.01078 0.38126
# Poissons Ratio (z) = 0.51234 0.54683
#
# Static dielectric constant tensor:
#      x y z
#    x 1.681640 0.000000 0.000000 
#    y 0.000000 1.693820 0.000000 
#    z 0.000000 0.000000 1.655920 
# 
# From -- ./inp_files/5616.got.cif
#   From: 2010.05.17/outbox.cif.g08.bks.cpg/sg60_3_cif.got.tgz:5616.got - 2010.06.03 14:59:27.
