data_PCOD9456717
_publ_section_title
;
Structure prediction by ZEFSAII (Michael W. Deem and Ramdas Pophale) SiO2 
 PCOD9456717
Probable space group: P B C N
;
_chemical_formula_sum "Si O2"
_cell_formula_units_Z 40
_cell_length_a 10.433260
_cell_length_b 8.797539
_cell_length_c 19.232137
_cell_angle_alpha 90.000000
_cell_angle_beta 90.000000
_cell_angle_gamma 90.000000
_cell_volume 1765.260385
_symmetry_space_group_name_H-M "P B C N"
_symmetry_group_IT_number 60
_symmetry_cell_setting 'orthorhombic'
loop_
_space_group_symop_operation_xyz
x,y,z
1/2-x,1/2-y,1/2+z
1/2+x,1/2-y,-z
-x,y,1/2-z
-x,-y,-z
1/2+x,1/2+y,1/2-z
1/2-x,1/2+y,z
x,-y,1/2+z
loop_
_atom_site_type_symbol
_atom_site_label
_atom_site_fract_x
_atom_site_fract_y
_atom_site_fract_z
Si Si1 0.387553 0.067419 0.547213
Si Si2 0.610251 0.573304 0.453709
Si Si3 0.939626 0.995799 0.673758
Si Si4 0.213394 0.721973 0.291017
Si Si5 0.116008 0.565779 0.710162
O O1 0.382983 0.247260 0.536449
O O2 0.500000 0.000000 0.500000
O O3 0.248810 0.996755 0.531526
O O4 0.409833 0.040016 0.629700
O O5 0.500000 0.500000 0.500000
O O6 0.557695 0.538240 0.376685
O O7 0.829285 0.865278 0.669319
O O8 0.000000 0.000704 0.750000
O O9 0.869496 0.159927 0.663267
O O10 0.137953 0.587142 0.253829
O O11 0.265792 0.825141 0.227417
O O12 0.000000 0.645886 0.750000
#
# Coordination Sequence:
#
# PCOD9456717 Si02
#       5
#     8   8   8   8   8
#     4  12  27  48  72 102 143 189 239 297 362 433
#     4  12  28  48  72 102 142 189 240 298 363 437
#     4  11  23  42  68 101 141 186 237 295 356 425
#     4  10  22  38  67 103 136 174 230 291 347 411
#     4  11  22  40  67  98 131 174 223 277 339 408
#
# _framework density 22.659547
#
# number of rings (size 3 to 8) (size 9 to 14) (size 15 to 20)
#    0.000    0.800    0.000    8.400    0.000   11.200 
#    0.000    0.000    0.000    0.000    0.000    0.000 
#    0.000    0.000    0.000    0.000    0.000    0.000 
#
# Total GULP energy -223938.220638 kJ/mol
# GULP energy per Si atom -5598.455516 kJ/mol
# Density = 2.260797 g / cm^3
# Si number density = 22.659547 Si / 1000 Ang^3
#
#
#
# Elastic Constant Matrix: (Units=GPa)
#
#
# Indices 1 2 3 4 5 6 
#
# 1 172.2207 72.4017 43.4366 0.0000 0.0000 0.0000
# 2 72.4017 171.8812 6.6074 0.0000 0.0000 0.0000
# 3 43.4366 6.6074 58.0060 0.0000 0.0000 0.0000
# 4 0.0000 0.0000 0.0000 18.9487 0.0000 0.0000
# 5 0.0000 0.0000 0.0000 0.0000 44.5195 0.0000
# 6 0.0000 0.0000 0.0000 0.0000 0.0000 9.7657
#
#
#
# Elastic Compliance Matrix: (Units=1/GPa)
#
#
# Indices 1 2 3 4 5 6 
#
# 1 0.008841 -0.003485 -0.006224 0.000000 0.000000 0.000000
# 2 -0.003485 0.007217 0.001788 0.000000 0.000000 0.000000
# 3 -0.006224 0.001788 0.021696 0.000000 0.000000 0.000000
# 4 0.000000 0.000000 0.000000 0.052774 0.000000 0.000000
# 5 0.000000 0.000000 0.000000 0.000000 0.022462 0.000000
# 6 0.000000 0.000000 0.000000 0.000000 0.000000 0.102399
#
#
# Mechanical properties :
#
#
# Convention : Reuss Voigt Hill
#
# Bulk Modulus (GPa) = 45.63544 71.88881 58.76212
# Shear Modulus (GPa) = 20.96113 33.29093 27.12603
#
# Velocity S-wave (km/s) = 3.04476 3.83715 3.46369
# Velocity P-wave (km/s) = 5.70474 7.17120 6.47959
#
# Compressibility (1/GPa) = 0.02191279
#
# Stress axis : x y z
#
# Youngs Moduli (GPa) = 113.10581 138.55716 46.09057
#
# Poissons Ratio (x) = 0.48287 0.28685
# Poissons Ratio (y) = 0.39417 -0.08239
# Poissons Ratio (z) = 0.70393 -0.24768
#
# Static dielectric constant tensor:
#      x y z
#    x 1.325590 0.000000 0.000000 
#    y 0.000000 1.832020 0.000000 
#    z 0.000000 0.000000 2.097470 
# 
# From -- ./inp_files/22507.got.cif
#   From: 2010.05.17/outbox.cif.g08.bks.cpg/sg60_12_cif.got.tgz:22507.got - 2010.06.03 14:59:27.
