data_PCOD9456177
_publ_section_title
;
Structure prediction by ZEFSAII (Michael W. Deem and Ramdas Pophale) SiO2 
 PCOD9456177
Probable space group: P B C N
;
_chemical_formula_sum "Si O2"
_cell_formula_units_Z 64
_cell_length_a 8.244111
_cell_length_b 16.087910
_cell_length_c 22.073736
_cell_angle_alpha 90.000000
_cell_angle_beta 90.000000
_cell_angle_gamma 90.000000
_cell_volume 2927.650991
_symmetry_space_group_name_H-M "P B C N"
_symmetry_group_IT_number 60
_symmetry_cell_setting 'orthorhombic'
loop_
_space_group_symop_operation_xyz
x,y,z
1/2-x,1/2-y,1/2+z
1/2+x,1/2-y,-z
-x,y,1/2-z
-x,-y,-z
1/2+x,1/2+y,1/2-z
1/2-x,1/2+y,z
x,-y,1/2+z
loop_
_atom_site_type_symbol
_atom_site_label
_atom_site_fract_x
_atom_site_fract_y
_atom_site_fract_z
Si Si1 0.632409 0.266240 0.432556
Si Si2 0.631794 0.077078 0.945557
Si Si3 0.385510 0.574568 0.362843
Si Si4 0.639380 0.308281 0.299076
Si Si5 0.785440 0.458993 0.053017
Si Si6 0.192936 0.645466 0.252432
Si Si7 0.917731 0.156973 0.471845
Si Si8 0.778283 0.007937 0.829203
O O1 0.750078 0.345359 0.441280
O O2 0.568319 0.278290 0.364312
O O3 0.752150 0.188622 0.440679
O O4 0.498689 0.273380 0.484946
O O5 0.442784 0.097947 0.937696
O O6 0.687908 0.012005 0.893846
O O7 0.657943 0.033472 0.009545
O O8 0.267498 0.502389 0.385891
O O9 0.288601 0.630468 0.314860
O O10 0.458892 0.624901 0.420493
O O11 0.538210 0.524498 0.336380
O O12 0.500000 0.324093 0.250000
O O13 0.753094 0.231400 0.278376
O O14 0.726159 0.396902 0.307085
O O15 0.637176 0.414133 0.019251
O O16 0.208585 0.560784 0.215007
O O17 0.000000 0.659788 0.250000
#
# Coordination Sequence:
#
# PCOD9456177 Si02
#       8
#     8   8   8   8   8   8   8   8
#     4  11  24  41  63  96 139 172 228 281 343 422
#     4  10  21  39  64  96 132 172 218 275 339 410
#     4  12  23  41  69  99 134 178 234 284 351 435
#     4  10  23  43  65  93 127 177 227 281 341 404
#     4  11  21  39  67  96 134 176 215 274 344 416
#     4  11  25  44  66  97 131 181 235 290 351 414
#     4  12  24  41  65 103 138 181 225 286 356 422
#     4  11  22  43  70  97 134 178 233 285 346 415
#
# _framework density 21.860531000000002
#
# number of rings (size 3 to 8) (size 9 to 14) (size 15 to 20)
#    0.000    1.000    2.500    5.250    0.000    2.000 
#    2.250    7.500    0.000    0.000    0.000    0.000 
#    0.000    0.000    0.000    0.000    0.000    0.000 
#
# Total GULP energy -357476.987310 kJ/mol
# GULP energy per Si atom -5585.577927 kJ/mol
# Density = 2.181078 g / cm^3
# Si number density = 21.860531 Si / 1000 Ang^3
#
#
#
# Elastic Constant Matrix: (Units=GPa)
#
#
# Indices 1 2 3 4 5 6 
#
# 1 66.5771 5.1809 18.4457 0.0000 0.0000 0.0000
# 2 5.1809 74.3255 21.6930 0.0000 0.0000 0.0000
# 3 18.4457 21.6930 49.7643 0.0000 0.0000 0.0000
# 4 0.0000 0.0000 0.0000 24.4610 0.0000 0.0000
# 5 0.0000 0.0000 0.0000 0.0000 23.6882 0.0000
# 6 0.0000 0.0000 0.0000 0.0000 0.0000 23.1651
#
#
#
# Elastic Compliance Matrix: (Units=1/GPa)
#
#
# Indices 1 2 3 4 5 6 
#
# 1 0.016775 0.000740 -0.006540 0.000000 0.000000 0.000000
# 2 0.000740 0.015448 -0.007008 0.000000 0.000000 0.000000
# 3 -0.006540 -0.007008 0.025574 0.000000 0.000000 0.000000
# 4 0.000000 0.000000 0.000000 0.040881 0.000000 0.000000
# 5 0.000000 0.000000 0.000000 0.000000 0.042215 0.000000
# 6 0.000000 0.000000 0.000000 0.000000 0.000000 0.043168
#
#
# Mechanical properties :
#
#
# Convention : Reuss Voigt Hill
#
# Bulk Modulus (GPa) = 31.07598 31.25622 31.16610
# Shear Modulus (GPa) = 22.68546 23.95269 23.31907
#
# Velocity S-wave (km/s) = 3.22489 3.31373 3.26961
# Velocity P-wave (km/s) = 5.30216 5.38239 5.34243
#
# Compressibility (1/GPa) = 0.03217919
#
# Stress axis : x y z
#
# Youngs Moduli (GPa) = 59.61388 64.73230 39.10242
#
# Poissons Ratio (x) = -0.04787 0.25573
# Poissons Ratio (y) = -0.04409 0.27404
# Poissons Ratio (z) = 0.38988 0.45366
#
# Static dielectric constant tensor:
#      x y z
#    x 2.008040 0.000000 0.000000 
#    y 0.000000 1.834980 0.000000 
#    z 0.000000 0.000000 1.842980 
# 
# From -- ./inp_files/22381.got.cif
#   From: 2010.05.17/outbox.cif.g08.bks.cpg/sg60_12_cif.got.tgz:22381.got - 2010.06.03 14:59:27.
