data_PCOD9456491
_publ_section_title
;
Structure prediction by ZEFSAII (Michael W. Deem and Ramdas Pophale) SiO2 
 PCOD9456491
Probable space group: P B C N
;
_chemical_formula_sum "Si O2"
_cell_formula_units_Z 48
_cell_length_a 27.571613
_cell_length_b 8.471841
_cell_length_c 8.571327
_cell_angle_alpha 90.000000
_cell_angle_beta 90.000000
_cell_angle_gamma 90.000000
_cell_volume 2002.110459
_symmetry_space_group_name_H-M "P B C N"
_symmetry_group_IT_number 60
_symmetry_cell_setting 'orthorhombic'
loop_
_space_group_symop_operation_xyz
x,y,z
1/2-x,1/2-y,1/2+z
1/2+x,1/2-y,-z
-x,y,1/2-z
-x,-y,-z
1/2+x,1/2+y,1/2-z
1/2-x,1/2+y,z
x,-y,1/2+z
loop_
_atom_site_type_symbol
_atom_site_label
_atom_site_fract_x
_atom_site_fract_y
_atom_site_fract_z
Si Si1 0.453213 0.904395 0.143341
Si Si2 0.194764 0.717785 0.163794
Si Si3 0.113330 0.898903 0.030180
Si Si4 0.984222 0.242214 0.914244
Si Si5 0.719382 0.111023 0.982274
Si Si6 0.137459 0.212589 0.201015
O O1 0.500000 0.872007 0.250000
O O2 0.402611 0.850997 0.212180
O O3 0.456880 0.088741 0.106690
O O4 0.466379 0.795952 0.996440
O O5 0.139758 0.782155 0.154478
O O6 0.203371 0.568649 0.049286
O O7 0.227747 0.857345 0.090771
O O8 0.211145 0.664911 0.338159
O O9 0.056253 0.864621 0.006582
O O10 0.119402 0.074662 0.088799
O O11 0.140983 0.863616 0.870216
O O12 0.000000 0.171514 0.750000
O O13 0.685367 0.217127 0.872313
#
# Coordination Sequence:
#
# PCOD9456491 Si02
#       6
#     8   8   8   8   8   8
#     4  10  21  43  64  94 128 176 220 278 331 400
#     4  12  26  47  74 102 137 172 222 266 335 388
#     4  12  26  44  64  99 134 180 223 279 329 399
#     4  10  23  39  68  93 131 171 227 274 338 395
#     4  12  26  47  74 103 135 176 215 275 325 400
#     4  12  26  43  67  95 138 175 228 273 336 391
#
# _framework density 23.974701
#
# number of rings (size 3 to 8) (size 9 to 14) (size 15 to 20)
#    0.000    0.667    1.667    6.000    4.667    1.333 
#    0.000    0.000    0.000    0.000    0.000    0.000 
#    0.000    0.000    0.000    0.000    0.000    0.000 
#
# Total GULP energy -268684.025795 kJ/mol
# GULP energy per Si atom -5597.583871 kJ/mol
# Density = 2.392013 g / cm^3
# Si number density = 23.974701 Si / 1000 Ang^3
#
#
#
# Elastic Constant Matrix: (Units=GPa)
#
#
# Indices 1 2 3 4 5 6 
#
# 1 75.5849 4.6702 3.8967 0.0000 0.0000 0.0000
# 2 4.6702 72.8058 -15.6701 0.0000 0.0000 0.0000
# 3 3.8967 -15.6701 77.5932 0.0000 0.0000 0.0000
# 4 0.0000 0.0000 0.0000 28.2673 0.0000 0.0000
# 5 0.0000 0.0000 0.0000 0.0000 31.0560 0.0000
# 6 0.0000 0.0000 0.0000 0.0000 0.0000 16.3294
#
#
#
# Elastic Compliance Matrix: (Units=1/GPa)
#
#
# Indices 1 2 3 4 5 6 
#
# 1 0.013340 -0.001045 -0.000881 0.000000 0.000000 0.000000
# 2 -0.001045 0.014441 0.002969 0.000000 0.000000 0.000000
# 3 -0.000881 0.002969 0.013532 0.000000 0.000000 0.000000
# 4 0.000000 0.000000 0.000000 0.035377 0.000000 0.000000
# 5 0.000000 0.000000 0.000000 0.000000 0.032200 0.000000
# 6 0.000000 0.000000 0.000000 0.000000 0.000000 0.061239
#
#
# Mechanical properties :
#
#
# Convention : Reuss Voigt Hill
#
# Bulk Modulus (GPa) = 23.04251 23.53082 23.28667
# Shear Modulus (GPa) = 27.39582 30.66969 29.03276
#
# Velocity S-wave (km/s) = 3.38405 3.58054 3.48368
# Velocity P-wave (km/s) = 4.99010 5.18940 5.09073
#
# Compressibility (1/GPa) = 0.04339805
#
# Stress axis : x y z
#
# Youngs Moduli (GPa) = 74.96154 69.24614 73.90134
#
# Poissons Ratio (x) = 0.07239 0.06511
# Poissons Ratio (y) = 0.07836 -0.21941
# Poissons Ratio (z) = 0.06604 -0.20559
#
# Static dielectric constant tensor:
#      x y z
#    x 1.890600 0.000000 0.000000 
#    y 0.000000 1.885590 0.000000 
#    z 0.000000 0.000000 2.039320 
# 
# From -- ./inp_files/8414.got.cif
#   From: 2010.05.17/outbox.cif.g08.bks.cpg/sg60_5_cif.got.tgz:8414.got - 2010.06.03 14:59:27.
