data_PCOD9456994
_publ_section_title
;
Structure prediction by ZEFSAII (Michael W. Deem and Ramdas Pophale) SiO2 
 PCOD9456994
Probable space group: P B C N
;
_chemical_formula_sum "Si O2"
_cell_formula_units_Z 48
_cell_length_a 8.461868
_cell_length_b 28.215707
_cell_length_c 9.367688
_cell_angle_alpha 90.000000
_cell_angle_beta 90.000000
_cell_angle_gamma 90.000000
_cell_volume 2236.606594
_symmetry_space_group_name_H-M "P B C N"
_symmetry_group_IT_number 60
_symmetry_cell_setting 'orthorhombic'
loop_
_space_group_symop_operation_xyz
x,y,z
1/2-x,1/2-y,1/2+z
1/2+x,1/2-y,-z
-x,y,1/2-z
-x,-y,-z
1/2+x,1/2+y,1/2-z
1/2-x,1/2+y,z
x,-y,1/2+z
loop_
_atom_site_type_symbol
_atom_site_label
_atom_site_fract_x
_atom_site_fract_y
_atom_site_fract_z
Si Si1 0.166718 0.802902 0.589521
Si Si2 0.186359 0.400548 0.540007
Si Si3 0.593138 0.156724 0.893003
Si Si4 0.684553 0.577085 0.763149
Si Si5 0.301540 0.274747 0.910991
Si Si6 0.382751 0.997444 0.632321
O O1 0.197787 0.858865 0.589481
O O2 0.223145 0.782282 0.742267
O O3 0.269119 0.778381 0.465126
O O4 0.982673 0.790812 0.565298
O O5 0.254292 0.426066 0.399326
O O6 0.160654 0.442479 0.652451
O O7 0.026279 0.374306 0.489746
O O8 0.500000 0.174403 0.750000
O O9 0.726515 0.121518 0.832572
O O10 0.679848 0.195114 0.991860
O O11 0.500000 0.584434 0.750000
O O12 0.732073 0.531292 0.856932
O O13 0.500000 0.017420 0.750000
O O14 0.500000 0.000000 0.500000
#
# Coordination Sequence:
#
# PCOD9456994 Si02
#       6
#     8   8   8   8   8   8
#     4  11  27  46  70 106 141 184 228 294 348 429
#     4  11  24  43  68  99 138 179 234 279 352 412
#     4  10  22  41  71  96 134 182 230 286 344 420
#     4  11  23  42  68 101 136 183 231 291 355 412
#     4  11  26  47  71 105 143 180 234 286 360 416
#     4  12  23  45  68  98 137 182 232 284 345 420
#
# _framework density 21.461082000000001
#
# number of rings (size 3 to 8) (size 9 to 14) (size 15 to 20)
#    0.000    1.000    3.333    2.500    9.333    2.667 
#    3.000    0.000    0.000    0.000    0.000    0.000 
#    0.000    0.000    0.000    0.000    0.000    0.000 
#
# Total GULP energy -268302.297312 kJ/mol
# GULP energy per Si atom -5589.631194 kJ/mol
# Density = 2.141224 g / cm^3
# Si number density = 21.461082 Si / 1000 Ang^3
#
#
#
# Elastic Constant Matrix: (Units=GPa)
#
#
# Indices 1 2 3 4 5 6 
#
# 1 105.4609 25.6853 25.0237 0.0000 0.0000 0.0000
# 2 25.6853 89.2631 15.6324 0.0000 0.0000 0.0000
# 3 25.0237 15.6324 77.7808 0.0000 0.0000 0.0000
# 4 0.0000 0.0000 0.0000 35.3639 0.0000 0.0000
# 5 0.0000 0.0000 0.0000 0.0000 30.8789 0.0000
# 6 0.0000 0.0000 0.0000 0.0000 0.0000 34.4572
#
#
#
# Elastic Compliance Matrix: (Units=1/GPa)
#
#
# Indices 1 2 3 4 5 6 
#
# 1 0.010816 -0.002594 -0.002958 0.000000 0.000000 0.000000
# 2 -0.002594 0.012234 -0.001624 0.000000 0.000000 0.000000
# 3 -0.002958 -0.001624 0.014135 0.000000 0.000000 0.000000
# 4 0.000000 0.000000 0.000000 0.028277 0.000000 0.000000
# 5 0.000000 0.000000 0.000000 0.000000 0.032385 0.000000
# 6 0.000000 0.000000 0.000000 0.000000 0.000000 0.029022
#
#
# Mechanical properties :
#
#
# Convention : Reuss Voigt Hill
#
# Bulk Modulus (GPa) = 43.79969 45.02082 44.41025
# Shear Modulus (GPa) = 33.59497 33.88422 33.73959
#
# Velocity S-wave (km/s) = 3.96079 3.97781 3.96931
# Velocity P-wave (km/s) = 6.43198 6.49005 6.46108
#
# Compressibility (1/GPa) = 0.02283121
#
# Stress axis : x y z
#
# Youngs Moduli (GPa) = 92.45600 81.74113 70.74728
#
# Poissons Ratio (x) = 0.21205 0.20929
# Poissons Ratio (y) = 0.23985 0.11490
# Poissons Ratio (z) = 0.27352 0.13276
#
# Static dielectric constant tensor:
#      x y z
#    x 1.894970 0.000000 0.000000 
#    y 0.000000 1.806570 0.000000 
#    z 0.000000 0.000000 1.823030 
# 
# From -- ./inp_files/4219.got.cif
#   From: 2010.05.17/outbox.cif.g08.bks.cpg/sg60_3_cif.got.tgz:4219.got - 2010.06.03 14:59:27.
