data_PCOD9456234
_publ_section_title
;
Structure prediction by ZEFSAII (Michael W. Deem and Ramdas Pophale) SiO2 
 PCOD9456234
Probable space group: P B C N
;
_chemical_formula_sum "Si O2"
_cell_formula_units_Z 60
_cell_length_a 25.992006
_cell_length_b 9.255729
_cell_length_c 10.129864
_cell_angle_alpha 90.000000
_cell_angle_beta 90.000000
_cell_angle_gamma 90.000000
_cell_volume 2436.991664
_symmetry_space_group_name_H-M "P B C N"
_symmetry_group_IT_number 60
_symmetry_cell_setting 'orthorhombic'
loop_
_space_group_symop_operation_xyz
x,y,z
1/2-x,1/2-y,1/2+z
1/2+x,1/2-y,-z
-x,y,1/2-z
-x,-y,-z
1/2+x,1/2+y,1/2-z
1/2-x,1/2+y,z
x,-y,1/2+z
loop_
_atom_site_type_symbol
_atom_site_label
_atom_site_fract_x
_atom_site_fract_y
_atom_site_fract_z
Si Si1 0.250523 0.548641 0.027086
Si Si2 0.175000 0.608428 0.321740
Si Si3 0.574236 0.753960 0.544922
Si Si4 0.739686 0.204617 0.797001
Si Si5 0.913091 0.552787 0.807310
Si Si6 0.367043 0.673488 0.323311
Si Si7 0.868327 0.990147 0.429151
Si Si8 0.000000 0.678090 0.250000
O O1 0.209067 0.493438 0.921022
O O2 0.311152 0.521814 0.012141
O O3 0.240456 0.462135 0.164436
O O4 0.249659 0.717071 0.062084
O O5 0.127601 0.686143 0.394390
O O6 0.211287 0.740490 0.280723
O O7 0.142781 0.524313 0.206443
O O8 0.565272 0.882266 0.441864
O O9 0.590553 0.605691 0.478364
O O10 0.523902 0.729411 0.632624
O O11 0.688802 0.266016 0.726887
O O12 0.905387 0.697374 0.719739
O O13 0.952746 0.429313 0.772009
O O14 0.377018 0.651204 0.479859
O O15 0.370356 0.527010 0.229290
#
# Coordination Sequence:
#
# PCOD9456234 Si02
#       8
#     8   8   8   8   8   8   8   4
#     4  11  23  36  55  89 133 178 217 263 302 375
#     4  11  21  35  60  89 127 171 219 253 323 375
#     4  10  22  41  63  93 124 161 213 278 334 397
#     4  11  23  35  55  87 134 178 216 258 305 377
#     4  10  22  41  64  93 124 160 216 278 332 399
#     4  10  21  40  60  93 135 173 216 266 317 389
#     4  10  22  39  62  91 133 173 216 264 321 384
#     4  10  22  44  72  88 116 160 208 278 350 410
#
# _framework density 24.620521
#
# number of rings (size 3 to 8) (size 9 to 14) (size 15 to 20)
#    0.000    1.600    1.333    4.400    5.600    2.133 
#    0.000    2.000    0.000    3.200    0.000    0.000 
#    0.000    0.000    0.000    0.000    0.000    0.000 
#
# Total GULP energy -334391.656574 kJ/mol
# GULP energy per Si atom -5573.194276 kJ/mol
# Density = 2.456448 g / cm^3
# Si number density = 24.620521 Si / 1000 Ang^3
#
#
#
# Elastic Constant Matrix: (Units=GPa)
#
#
# Indices 1 2 3 4 5 6 
#
# 1 53.1805 1.1211 -24.3920 0.0000 0.0000 0.0000
# 2 1.1211 36.9315 1.7858 0.0000 0.0000 0.0000
# 3 -24.3920 1.7858 38.0148 0.0000 0.0000 0.0000
# 4 0.0000 0.0000 0.0000 35.5328 0.0000 0.0000
# 5 0.0000 0.0000 0.0000 0.0000 3.7853 0.0000
# 6 0.0000 0.0000 0.0000 0.0000 0.0000 17.4451
#
#
#
# Elastic Compliance Matrix: (Units=1/GPa)
#
#
# Indices 1 2 3 4 5 6 
#
# 1 0.026745 -0.001645 0.017238 0.000000 0.000000 0.000000
# 2 -0.001645 0.027240 -0.002335 0.000000 0.000000 0.000000
# 3 0.017238 -0.002335 0.037476 0.000000 0.000000 0.000000
# 4 0.000000 0.000000 0.000000 0.028143 0.000000 0.000000
# 5 0.000000 0.000000 0.000000 0.000000 0.264181 0.000000
# 6 0.000000 0.000000 0.000000 0.000000 0.000000 0.057323
#
#
# Mechanical properties :
#
#
# Convention : Reuss Voigt Hill
#
# Bulk Modulus (GPa) = 8.47631 9.46184 8.96908
# Shear Modulus (GPa) = 11.01520 21.32679 16.17099
#
# Velocity S-wave (km/s) = 2.11748 2.94635 2.56561
# Velocity P-wave (km/s) = 3.07059 3.92761 3.52524
#
# Compressibility (1/GPa) = 0.11797585
#
# Stress axis : x y z
#
# Youngs Moduli (GPa) = 37.39002 36.71072 26.68372
#
# Poissons Ratio (x) = 0.06040 -0.45998
# Poissons Ratio (y) = 0.06152 0.06232
# Poissons Ratio (z) = -0.64454 0.08573
#
# Static dielectric constant tensor:
#      x y z
#    x 2.225920 0.000000 0.000000 
#    y 0.000000 1.997930 0.000000 
#    z 0.000000 0.000000 2.223670 
# 
# From -- ./inp_files/13277.got.cif
#   From: 2010.05.17/outbox.cif.g08.bks.cpg/sg60_7_cif.got.tgz:13277.got - 2010.06.03 14:59:27.
