data_PCOD9456528
_publ_section_title
;
Structure prediction by ZEFSAII (Michael W. Deem and Ramdas Pophale) SiO2 
 PCOD9456528
Probable space group: P B C N
;
_chemical_formula_sum "Si O2"
_cell_formula_units_Z 48
_cell_length_a 28.693791
_cell_length_b 5.383721
_cell_length_c 12.850717
_cell_angle_alpha 90.000000
_cell_angle_beta 90.000000
_cell_angle_gamma 90.000000
_cell_volume 1985.170604
_symmetry_space_group_name_H-M "P B C N"
_symmetry_group_IT_number 60
_symmetry_cell_setting 'orthorhombic'
loop_
_space_group_symop_operation_xyz
x,y,z
1/2-x,1/2-y,1/2+z
1/2+x,1/2-y,-z
-x,y,1/2-z
-x,-y,-z
1/2+x,1/2+y,1/2-z
1/2-x,1/2+y,z
x,-y,1/2+z
loop_
_atom_site_type_symbol
_atom_site_label
_atom_site_fract_x
_atom_site_fract_y
_atom_site_fract_z
Si Si1 0.867357 0.514252 0.008423
Si Si2 0.773104 0.099628 0.744612
Si Si3 0.036453 0.691123 0.546301
Si Si4 0.130765 0.013219 0.354627
Si Si5 0.529230 0.520783 0.667685
Si Si6 0.235727 0.407208 0.026285
O O1 0.913612 0.560293 0.939954
O O2 0.867532 0.245418 0.064612
O O3 0.868051 0.741057 0.091341
O O4 0.818364 0.550587 0.951288
O O5 0.764376 0.386363 0.714358
O O6 0.823412 0.990415 0.716170
O O7 0.766484 0.110084 0.869860
O O8 0.000000 0.500000 0.500000
O O9 0.010272 0.815075 0.642809
O O10 0.040431 0.881533 0.448995
O O11 0.081394 0.040024 0.295329
O O12 0.500000 0.688097 0.750000
O O13 0.243329 0.146109 0.970033
#
# Coordination Sequence:
#
# PCOD9456528 Si02
#       6
#     8   8   8   8   8   8
#     4  11  23  40  68  94 127 177 219 269 345 401
#     4  10  22  40  59  86 129 163 209 269 322 385
#     4  10  21  44  66  96 138 175 227 291 338 415
#     4  11  23  41  64  95 131 168 218 274 339 400
#     4  10  23  42  67 100 134 181 226 280 350 410
#     4  10  22  40  60  91 126 165 220 263 323 397
#
# _framework density 24.179283999999999
#
# number of rings (size 3 to 8) (size 9 to 14) (size 15 to 20)
#    0.000    1.667    1.667    2.000    0.000    7.333 
#    6.000    0.000    0.000    0.000    0.000    0.000 
#    0.000    0.000    0.000    0.000    0.000    0.000 
#
# Total GULP energy -267848.163592 kJ/mol
# GULP energy per Si atom -5580.170075 kJ/mol
# Density = 2.412425 g / cm^3
# Si number density = 24.179284 Si / 1000 Ang^3
#
#
#
# Elastic Constant Matrix: (Units=GPa)
#
#
# Indices 1 2 3 4 5 6 
#
# 1 217.3799 26.1262 32.0802 0.0000 0.0000 0.0000
# 2 26.1262 136.3907 6.1459 0.0000 0.0000 0.0000
# 3 32.0802 6.1459 46.7843 0.0000 0.0000 0.0000
# 4 0.0000 0.0000 0.0000 25.0776 0.0000 0.0000
# 5 0.0000 0.0000 0.0000 0.0000 42.9273 0.0000
# 6 0.0000 0.0000 0.0000 0.0000 0.0000 38.0568
#
#
#
# Elastic Compliance Matrix: (Units=1/GPa)
#
#
# Indices 1 2 3 4 5 6 
#
# 1 0.005213 -0.000842 -0.003464 0.000000 0.000000 0.000000
# 2 -0.000842 0.007512 -0.000409 0.000000 0.000000 0.000000
# 3 -0.003464 -0.000409 0.023803 0.000000 0.000000 0.000000
# 4 0.000000 0.000000 0.000000 0.039876 0.000000 0.000000
# 5 0.000000 0.000000 0.000000 0.000000 0.023295 0.000000
# 6 0.000000 0.000000 0.000000 0.000000 0.000000 0.026276
#
#
# Mechanical properties :
#
#
# Convention : Reuss Voigt Hill
#
# Bulk Modulus (GPa) = 36.90394 58.80661 47.85527
# Shear Modulus (GPa) = 34.61678 43.62585 39.12132
#
# Velocity S-wave (km/s) = 3.78785 4.25227 4.02676
# Velocity P-wave (km/s) = 5.86738 6.96297 6.43852
#
# Compressibility (1/GPa) = 0.02709738
#
# Stress axis : x y z
#
# Youngs Moduli (GPa) = 191.84112 133.12591 42.01066
#
# Poissons Ratio (x) = 0.11215 0.14551
# Poissons Ratio (y) = 0.16161 0.01719
# Poissons Ratio (z) = 0.66447 0.05446
#
# Static dielectric constant tensor:
#      x y z
#    x 1.893700 0.000000 0.000000 
#    y 0.000000 2.165610 0.000000 
#    z 0.000000 0.000000 2.176910 
# 
# From -- ./inp_files/18042.got.cif
#   From: 2010.05.17/outbox.cif.g08.bks.cpg/sg60_10_cif.got.tgz:18042.got - 2010.06.03 14:59:27.
