data_PCOD9456322
_publ_section_title
;
Structure prediction by ZEFSAII (Michael W. Deem and Ramdas Pophale) SiO2 
 PCOD9456322
Probable space group: P B C N
;
_chemical_formula_sum "Si O2"
_cell_formula_units_Z 40
_cell_length_a 10.179644
_cell_length_b 10.143114
_cell_length_c 15.837110
_cell_angle_alpha 90.000000
_cell_angle_beta 90.000000
_cell_angle_gamma 90.000000
_cell_volume 1635.233705
_symmetry_space_group_name_H-M "P B C N"
_symmetry_group_IT_number 60
_symmetry_cell_setting 'orthorhombic'
loop_
_space_group_symop_operation_xyz
x,y,z
1/2-x,1/2-y,1/2+z
1/2+x,1/2-y,-z
-x,y,1/2-z
-x,-y,-z
1/2+x,1/2+y,1/2-z
1/2-x,1/2+y,z
x,-y,1/2+z
loop_
_atom_site_type_symbol
_atom_site_label
_atom_site_fract_x
_atom_site_fract_y
_atom_site_fract_z
Si Si1 0.254491 0.086303 0.688776
Si Si2 0.055165 0.768971 0.625606
Si Si3 0.848063 0.037171 0.487222
Si Si4 0.000000 0.007878 0.250000
Si Si5 0.000000 0.417172 0.750000
Si Si6 0.911945 0.502212 0.584792
O O1 0.323825 0.226092 0.684487
O O2 0.211819 0.036958 0.595478
O O3 0.364356 0.990456 0.725297
O O4 0.125492 0.083325 0.743510
O O5 0.129090 0.810154 0.539588
O O6 0.992775 0.894859 0.670172
O O7 0.957576 0.646030 0.621026
O O8 0.740674 0.009787 0.558856
O O9 0.000000 0.000000 0.500000
O O10 0.045291 0.387654 0.848588
O O11 0.000000 0.500000 0.500000
#
# Coordination Sequence:
#
# PCOD9456322 Si02
#       6
#     8   8   8   4   4   8
#     4  10  22  45  69 103 144 187 241 304 380 442
#     4  10  22  42  70 100 146 192 240 301 381 432
#     4  11  25  42  66 105 143 187 245 303 362 445
#     4  10  23  44  71 106 146 188 245 312 355 456
#     4  10  21  40  71  92 138 188 233 290 367 426
#     4  11  22  43  71 100 142 192 243 302 368 444
#
# _framework density 24.461334999999998
#
# number of rings (size 3 to 8) (size 9 to 14) (size 15 to 20)
#    0.000    1.600    4.000    2.400    8.400    0.000 
#    0.000    4.000    0.000    0.000    0.000    0.000 
#    0.000    0.000    0.000    0.000    0.000    0.000 
#
# Total GULP energy -222807.048839 kJ/mol
# GULP energy per Si atom -5570.176221 kJ/mol
# Density = 2.440566 g / cm^3
# Si number density = 24.461335 Si / 1000 Ang^3
#
#
#
# Elastic Constant Matrix: (Units=GPa)
#
#
# Indices 1 2 3 4 5 6 
#
# 1 202.0401 17.0483 42.8757 0.0000 0.0000 0.0000
# 2 17.0483 27.2259 4.4993 0.0000 0.0000 0.0000
# 3 42.8757 4.4993 116.7030 0.0000 0.0000 0.0000
# 4 0.0000 0.0000 0.0000 24.0246 0.0000 0.0000
# 5 0.0000 0.0000 0.0000 0.0000 62.1494 0.0000
# 6 0.0000 0.0000 0.0000 0.0000 0.0000 159.7327
#
#
#
# Elastic Compliance Matrix: (Units=1/GPa)
#
#
# Indices 1 2 3 4 5 6 
#
# 1 0.005633 -0.003206 -0.001946 0.000000 0.000000 0.000000
# 2 -0.003206 0.038790 -0.000318 0.000000 0.000000 0.000000
# 3 -0.001946 -0.000318 0.009296 0.000000 0.000000 0.000000
# 4 0.000000 0.000000 0.000000 0.041624 0.000000 0.000000
# 5 0.000000 0.000000 0.000000 0.000000 0.016090 0.000000
# 6 0.000000 0.000000 0.000000 0.000000 0.000000 0.006260
#
#
# Mechanical properties :
#
#
# Convention : Reuss Voigt Hill
#
# Bulk Modulus (GPa) = 23.37554 52.75730 38.06642
# Shear Modulus (GPa) = 34.99156 67.95106 51.47131
#
# Velocity S-wave (km/s) = 3.78628 5.27629 4.59212
# Velocity P-wave (km/s) = 5.35643 7.66378 6.61154
#
# Compressibility (1/GPa) = 0.04277976
#
# Stress axis : x y z
#
# Youngs Moduli (GPa) = 177.52664 25.78017 107.57404
#
# Poissons Ratio (x) = 0.08264 0.20933
# Poissons Ratio (y) = 0.56909 0.03418
# Poissons Ratio (z) = 0.34545 0.00819
#
# Static dielectric constant tensor:
#      x y z
#    x 1.854750 0.000000 0.000000 
#    y 0.000000 1.991730 0.000000 
#    z 0.000000 0.000000 2.122190 
# 
# From -- ./inp_files/19078.got.cif
#   From: 2010.05.17/outbox.cif.g08.bks.cpg/sg60_10_cif.got.tgz:19078.got - 2010.06.03 14:59:27.
