data_PCOD9456821
_publ_section_title
;
Structure prediction by ZEFSAII (Michael W. Deem and Ramdas Pophale) SiO2 
 PCOD9456821
Probable space group: P B C N
;
_chemical_formula_sum "Si O2"
_cell_formula_units_Z 36
_cell_length_a 8.054762
_cell_length_b 25.559581
_cell_length_c 8.790960
_cell_angle_alpha 90.000000
_cell_angle_beta 90.000000
_cell_angle_gamma 90.000000
_cell_volume 1809.850685
_symmetry_space_group_name_H-M "P B C N"
_symmetry_group_IT_number 60
_symmetry_cell_setting 'orthorhombic'
loop_
_space_group_symop_operation_xyz
x,y,z
1/2-x,1/2-y,1/2+z
1/2+x,1/2-y,-z
-x,y,1/2-z
-x,-y,-z
1/2+x,1/2+y,1/2-z
1/2-x,1/2+y,z
x,-y,1/2+z
loop_
_atom_site_type_symbol
_atom_site_label
_atom_site_fract_x
_atom_site_fract_y
_atom_site_fract_z
Si Si1 0.954850 0.779507 0.925052
Si Si2 0.500000 0.995881 0.750000
Si Si3 0.345337 0.649607 0.653362
Si Si4 0.378292 0.172180 0.946157
Si Si5 0.888503 0.575793 0.005818
O O1 0.000000 0.790905 0.750000
O O2 0.981433 0.717321 0.946641
O O3 0.774752 0.804082 0.957672
O O4 0.077717 0.804237 0.051427
O O5 0.620369 0.956900 0.659565
O O6 0.417578 0.033726 0.627322
O O7 0.500000 0.628143 0.750000
O O8 0.204899 0.663284 0.779532
O O9 0.271848 0.608422 0.536661
O O10 0.459949 0.118094 0.002877
#
# Coordination Sequence:
#
# PCOD9456821 Si02
#       5
#     8   4   8   8   8
#     4  11  23  36  60  95 125 163 205 240 304 384
#     4  10  24  38  70  86 114 158 220 252 312 362
#     4  10  22  40  62  88 131 165 194 254 319 367
#     4  11  21  39  62  89 129 165 193 254 311 367
#     4  11  21  43  64  91 118 159 208 258 307 371
#
# _framework density 19.891145000000002
#
# number of rings (size 3 to 8) (size 9 to 14) (size 15 to 20)
#    0.000    1.333    2.222    4.000    3.111    0.000 
#    6.000    1.111    0.000    0.000    0.000    0.000 
#    0.000    0.000    0.000    0.000    0.000    0.000 
#
# Total GULP energy -200912.788343 kJ/mol
# GULP energy per Si atom -5580.910787 kJ/mol
# Density = 1.984587 g / cm^3
# Si number density = 19.891145 Si / 1000 Ang^3
#
#
#
# Elastic Constant Matrix: (Units=GPa)
#
#
# Indices 1 2 3 4 5 6 
#
# 1 75.9297 52.3571 7.8024 0.0000 0.0000 0.0000
# 2 52.3571 123.8377 28.6125 0.0000 0.0000 0.0000
# 3 7.8024 28.6125 44.2313 0.0000 0.0000 0.0000
# 4 0.0000 0.0000 0.0000 30.5803 0.0000 0.0000
# 5 0.0000 0.0000 0.0000 0.0000 32.1329 0.0000
# 6 0.0000 0.0000 0.0000 0.0000 0.0000 -7.1633
#
#
#
# Elastic Compliance Matrix: (Units=1/GPa)
#
#
# Indices 1 2 3 4 5 6 
#
# 1 0.018761 -0.008427 0.002142 0.000000 0.000000 0.000000
# 2 -0.008427 0.013279 -0.007104 0.000000 0.000000 0.000000
# 3 0.002142 -0.007104 0.026826 0.000000 0.000000 0.000000
# 4 0.000000 0.000000 0.000000 0.032701 0.000000 0.000000
# 5 0.000000 0.000000 0.000000 0.000000 0.031121 0.000000
# 6 0.000000 0.000000 0.000000 0.000000 0.000000 -0.139600
#
#
# Mechanical properties :
#
#
# Convention : Reuss Voigt Hill
#
# Bulk Modulus (GPa) = 31.16388 46.83809 39.00098
# Shear Modulus (GPa) = 243.19089 21.45841 132.32465
#
# Velocity S-wave (km/s) = 11.06916 3.28806 8.16510
# Velocity P-wave (km/s) = 13.38169 6.16550 10.41833
#
# Compressibility (1/GPa) = 0.03208843
#
# Stress axis : x y z
#
# Youngs Moduli (GPa) = 53.30339 75.30685 37.27759
#
# Poissons Ratio (x) = 0.63458 -0.07984
# Poissons Ratio (y) = 0.44916 0.26480
# Poissons Ratio (z) = -0.11416 0.53494
#
# Static dielectric constant tensor:
#      x y z
#    x 1.719900 0.000000 0.000000 
#    y 0.000000 1.689520 0.000000 
#    z 0.000000 0.000000 1.717830 
# 
# From -- ./inp_files/3670.got.cif
#   From: 2010.05.17/outbox.cif.g08.bks.cpg/sg60_2_cif.got.tgz:3670.got - 2010.06.03 14:59:27.
