data_PCOD9456439
_publ_section_title
;
Structure prediction by ZEFSAII (Michael W. Deem and Ramdas Pophale) SiO2 
 PCOD9456439
Probable space group: P B C N
;
_chemical_formula_sum "Si O2"
_cell_formula_units_Z 48
_cell_length_a 7.610114
_cell_length_b 17.722311
_cell_length_c 16.569989
_cell_angle_alpha 90.000000
_cell_angle_beta 90.000000
_cell_angle_gamma 90.000000
_cell_volume 2234.774649
_symmetry_space_group_name_H-M "P B C N"
_symmetry_group_IT_number 60
_symmetry_cell_setting 'orthorhombic'
loop_
_space_group_symop_operation_xyz
x,y,z
1/2-x,1/2-y,1/2+z
1/2+x,1/2-y,-z
-x,y,1/2-z
-x,-y,-z
1/2+x,1/2+y,1/2-z
1/2-x,1/2+y,z
x,-y,1/2+z
loop_
_atom_site_type_symbol
_atom_site_label
_atom_site_fract_x
_atom_site_fract_y
_atom_site_fract_z
Si Si1 0.953360 0.419566 0.037257
Si Si2 0.000000 0.769744 0.750000
Si Si3 0.124166 0.993128 0.920419
Si Si4 0.380525 0.674376 0.408998
Si Si5 0.739402 0.843962 0.347156
Si Si6 0.500000 0.451203 0.250000
Si Si7 0.224617 0.283755 0.534230
O O1 0.766675 0.440151 0.078266
O O2 0.101975 0.392018 0.099019
O O3 0.907560 0.353590 0.973869
O O4 0.000000 0.500000 0.000000
O O5 0.106751 0.818293 0.813588
O O6 0.870114 0.714490 0.795332
O O7 0.192417 0.907564 0.930128
O O8 0.044189 0.999965 0.830272
O O9 0.000000 0.000000 0.000000
O O10 0.583331 0.686118 0.439790
O O11 0.274383 0.743359 0.447228
O O12 0.851686 0.896336 0.288398
O O13 0.835732 0.786222 0.408953
#
# Coordination Sequence:
#
# PCOD9456439 Si02
#       7
#     8   4   8   8   8   4   8
#     4  12  24  44  70 103 144 185 237 302 375 437
#     4  10  21  42  64  89 142 176 226 288 353 414
#     4  12  25  43  72 103 145 189 235 296 371 438
#     4  11  23  40  67 100 131 182 237 284 360 426
#     4  11  25  44  69 102 137 189 235 304 364 431
#     4  12  27  44  72 105 148 182 252 296 371 444
#     4  11  22  41  72  96 134 178 241 291 353 438
#
# _framework density 21.478674999999999
#
# number of rings (size 3 to 8) (size 9 to 14) (size 15 to 20)
#    0.000    0.667    5.000    4.500    0.000    0.000 
#    0.000    0.000    0.000    0.000    0.000    0.000 
#    0.000    0.000    0.000    0.000    0.000    0.000 
#
# Total GULP energy -267904.532560 kJ/mol
# GULP energy per Si atom -5581.344428 kJ/mol
# Density = 2.142979 g / cm^3
# Si number density = 21.478675 Si / 1000 Ang^3
#
#
#
# Elastic Constant Matrix: (Units=GPa)
#
#
# Indices 1 2 3 4 5 6 
#
# 1 72.7759 38.7003 40.9145 0.0000 0.0000 0.0000
# 2 38.7003 145.9343 42.9543 0.0000 0.0000 0.0000
# 3 40.9145 42.9543 132.0824 0.0000 0.0000 0.0000
# 4 0.0000 0.0000 0.0000 35.9790 0.0000 0.0000
# 5 0.0000 0.0000 0.0000 0.0000 38.1755 0.0000
# 6 0.0000 0.0000 0.0000 0.0000 0.0000 37.0489
#
#
#
# Elastic Compliance Matrix: (Units=1/GPa)
#
#
# Indices 1 2 3 4 5 6 
#
# 1 0.018111 -0.003485 -0.004477 0.000000 0.000000 0.000000
# 2 -0.003485 0.008248 -0.001603 0.000000 0.000000 0.000000
# 3 -0.004477 -0.001603 0.009479 0.000000 0.000000 0.000000
# 4 0.000000 0.000000 0.000000 0.027794 0.000000 0.000000
# 5 0.000000 0.000000 0.000000 0.000000 0.026195 0.000000
# 6 0.000000 0.000000 0.000000 0.000000 0.000000 0.026991
#
#
# Mechanical properties :
#
#
# Convention : Reuss Voigt Hill
#
# Bulk Modulus (GPa) = 59.84847 66.21454 63.03150
# Shear Modulus (GPa) = 35.33127 37.45558 36.39342
#
# Velocity S-wave (km/s) = 4.06019 4.18047 4.12077
# Velocity P-wave (km/s) = 7.06434 7.36185 7.21462
#
# Compressibility (1/GPa) = 0.01670886
#
# Stress axis : x y z
#
# Youngs Moduli (GPa) = 55.21524 121.23541 105.49595
#
# Poissons Ratio (x) = 0.42252 0.47228
# Poissons Ratio (y) = 0.19243 0.16910
# Poissons Ratio (z) = 0.24718 0.19433
#
# Static dielectric constant tensor:
#      x y z
#    x 1.495950 0.000000 0.000000 
#    y 0.000000 1.791290 0.000000 
#    z 0.000000 0.000000 1.842290 
# 
# From -- ./inp_files/15065.got.cif
#   From: 2010.05.17/outbox.cif.g08.bks.cpg/sg60_8_cif.got.tgz:15065.got - 2010.06.03 14:59:27.
