data_PCOD9456345
_publ_section_title
;
Structure prediction by ZEFSAII (Michael W. Deem and Ramdas Pophale) SiO2 
 PCOD9456345
Probable space group: P B C N
;
_chemical_formula_sum "Si O2"
_cell_formula_units_Z 40
_cell_length_a 10.925072
_cell_length_b 9.218739
_cell_length_c 16.802945
_cell_angle_alpha 90.000000
_cell_angle_beta 90.000000
_cell_angle_gamma 90.000000
_cell_volume 1692.315114
_symmetry_space_group_name_H-M "P B C N"
_symmetry_group_IT_number 60
_symmetry_cell_setting 'orthorhombic'
loop_
_space_group_symop_operation_xyz
x,y,z
1/2-x,1/2-y,1/2+z
1/2+x,1/2-y,-z
-x,y,1/2-z
-x,-y,-z
1/2+x,1/2+y,1/2-z
1/2-x,1/2+y,z
x,-y,1/2+z
loop_
_atom_site_type_symbol
_atom_site_label
_atom_site_fract_x
_atom_site_fract_y
_atom_site_fract_z
Si Si1 0.120315 0.834878 0.849803
Si Si2 0.707053 0.066606 0.742065
Si Si3 0.905336 0.080768 0.440101
Si Si4 0.396665 0.788251 0.684935
Si Si5 0.792856 0.196703 0.969439
O O1 0.206913 0.959309 0.811646
O O2 0.125594 0.679698 0.807444
O O3 0.982920 0.896978 0.860053
O O4 0.168152 0.800287 0.938780
O O5 0.633927 0.953645 0.795290
O O6 0.788587 0.179080 0.791100
O O7 0.839138 0.229262 0.461845
O O8 0.793296 0.969858 0.442270
O O9 0.000000 0.000000 0.500000
O O10 0.500000 0.749105 0.750000
O O11 0.397063 0.765500 0.589717
#
# Coordination Sequence:
#
# PCOD9456345 Si02
#       5
#     8   8   8   8   8
#     4  10  21  41  63  89 125 165 211 268 327 385
#     4  10  23  40  61  90 127 165 211 268 330 397
#     4  10  22  39  63  95 127 163 212 273 325 376
#     4  11  24  42  62  91 128 168 211 266 331 395
#     4  11  22  40  66  93 124 167 220 263 319 401
#
# _framework density 23.636258999999999
#
# number of rings (size 3 to 8) (size 9 to 14) (size 15 to 20)
#    0.000    1.600    0.000    4.800    0.000    8.000 
#    0.000   10.000    0.000    0.000    0.000    0.000 
#    0.000    0.000    0.000    0.000    0.000    0.000 
#
# Total GULP energy -223201.510483 kJ/mol
# GULP energy per Si atom -5580.037762 kJ/mol
# Density = 2.358246 g / cm^3
# Si number density = 23.636259 Si / 1000 Ang^3
#
#
#
# Elastic Constant Matrix: (Units=GPa)
#
#
# Indices 1 2 3 4 5 6 
#
# 1 48.7499 17.6921 8.4978 0.0000 0.0000 0.0000
# 2 17.6921 140.7504 33.4567 0.0000 0.0000 0.0000
# 3 8.4978 33.4567 88.2108 0.0000 0.0000 0.0000
# 4 0.0000 0.0000 0.0000 4.7922 0.0000 0.0000
# 5 0.0000 0.0000 0.0000 0.0000 30.2073 0.0000
# 6 0.0000 0.0000 0.0000 0.0000 0.0000 51.3506
#
#
#
# Elastic Compliance Matrix: (Units=1/GPa)
#
#
# Indices 1 2 3 4 5 6 
#
# 1 0.021600 -0.002440 -0.001155 0.000000 0.000000 0.000000
# 2 -0.002440 0.008085 -0.002831 0.000000 0.000000 0.000000
# 3 -0.001155 -0.002831 0.012522 0.000000 0.000000 0.000000
# 4 0.000000 0.000000 0.000000 0.208674 0.000000 0.000000
# 5 0.000000 0.000000 0.000000 0.000000 0.033105 0.000000
# 6 0.000000 0.000000 0.000000 0.000000 0.000000 0.019474
#
#
# Mechanical properties :
#
#
# Convention : Reuss Voigt Hill
#
# Bulk Modulus (GPa) = 34.06897 44.11162 39.09029
# Shear Modulus (GPa) = 15.33289 31.80765 23.57027
#
# Velocity S-wave (km/s) = 2.54973 3.67238 3.16129
# Velocity P-wave (km/s) = 4.80763 6.05682 5.46801
#
# Compressibility (1/GPa) = 0.02935223
#
# Stress axis : x y z
#
# Youngs Moduli (GPa) = 46.29650 123.69311 79.86208
#
# Poissons Ratio (x) = 0.30187 0.09226
# Poissons Ratio (y) = 0.11299 0.22611
# Poissons Ratio (z) = 0.05348 0.35020
#
# Static dielectric constant tensor:
#      x y z
#    x 2.006770 0.000000 0.000000 
#    y 0.000000 1.867760 0.000000 
#    z 0.000000 0.000000 2.108850 
# 
# From -- ./inp_files/19845.got.cif
#   From: 2010.05.17/outbox.cif.g08.bks.cpg/sg60_10_cif.got.tgz:19845.got - 2010.06.03 14:59:27.
