data_PCOD9456216
_publ_section_title
;
Structure prediction by ZEFSAII (Michael W. Deem and Ramdas Pophale) SiO2 
 PCOD9456216
Probable space group: P B C N
;
_chemical_formula_sum "Si O2"
_cell_formula_units_Z 28
_cell_length_a 5.413338
_cell_length_b 28.588408
_cell_length_c 7.492079
_cell_angle_alpha 90.000000
_cell_angle_beta 90.000000
_cell_angle_gamma 90.000000
_cell_volume 1159.464522
_symmetry_space_group_name_H-M "P B C N"
_symmetry_group_IT_number 60
_symmetry_cell_setting 'orthorhombic'
loop_
_space_group_symop_operation_xyz
x,y,z
1/2-x,1/2-y,1/2+z
1/2+x,1/2-y,-z
-x,y,1/2-z
-x,-y,-z
1/2+x,1/2+y,1/2-z
1/2-x,1/2+y,z
x,-y,1/2+z
loop_
_atom_site_type_symbol
_atom_site_label
_atom_site_fract_x
_atom_site_fract_y
_atom_site_fract_z
Si Si1 0.504048 0.099359 0.043914
Si Si2 0.498859 0.555013 0.035636
Si Si3 0.192487 0.187175 0.393105
Si Si4 0.500000 0.729005 0.750000
O O1 0.500000 0.082731 0.250000
O O2 0.747051 0.076187 0.960764
O O3 0.574315 0.154111 0.059819
O O4 0.243944 0.082519 0.967693
O O5 0.500000 0.560464 0.250000
O O6 0.500000 0.500000 0.000000
O O7 0.282100 0.235529 0.305784
O O8 0.000000 0.165229 0.250000
O O9 0.062944 0.198582 0.578631
#
# Coordination Sequence:
#
# PCOD9456216 Si02
#       4
#     8   8   8   4
#     4  10  21  39  70  97 131 184 229 284 359 434
#     4  10  21  40  68  96 131 176 225 283 362 433
#     4  12  24  44  70 103 146 190 250 305 368 436
#     4  12  26  42  72 104 140 200 252 308 370 442
#
# _framework density 24.149079
#
# number of rings (size 3 to 8) (size 9 to 14) (size 15 to 20)
#    0.000    1.143    4.286    3.429    0.000    0.000 
#    2.571    0.000   12.571    0.000    0.000    0.000 
#    0.000    0.000    0.000    0.000    0.000    0.000 
#
# Total GULP energy -156634.362617 kJ/mol
# GULP energy per Si atom -5594.084379 kJ/mol
# Density = 2.409411 g / cm^3
# Si number density = 24.149079 Si / 1000 Ang^3
#
#
#
# Elastic Constant Matrix: (Units=GPa)
#
#
# Indices 1 2 3 4 5 6 
#
# 1 195.0732 75.1594 41.3358 0.0000 0.0000 0.0000
# 2 75.1594 130.0953 32.2779 0.0000 0.0000 0.0000
# 3 41.3358 32.2779 126.8285 0.0000 0.0000 0.0000
# 4 0.0000 0.0000 0.0000 21.4829 0.0000 0.0000
# 5 0.0000 0.0000 0.0000 0.0000 10.7826 0.0000
# 6 0.0000 0.0000 0.0000 0.0000 0.0000 46.9587
#
#
#
# Elastic Compliance Matrix: (Units=1/GPa)
#
#
# Indices 1 2 3 4 5 6 
#
# 1 0.006788 -0.003600 -0.001296 0.000000 0.000000 0.000000
# 2 -0.003600 0.010114 -0.001401 0.000000 0.000000 0.000000
# 3 -0.001296 -0.001401 0.008664 0.000000 0.000000 0.000000
# 4 0.000000 0.000000 0.000000 0.046549 0.000000 0.000000
# 5 0.000000 0.000000 0.000000 0.000000 0.092742 0.000000
# 6 0.000000 0.000000 0.000000 0.000000 0.000000 0.021295
#
#
# Mechanical properties :
#
#
# Convention : Reuss Voigt Hill
#
# Bulk Modulus (GPa) = 77.08982 83.28259 80.18620
# Shear Modulus (GPa) = 24.62212 36.05976 30.34094
#
# Velocity S-wave (km/s) = 3.19656 3.86841 3.54842
# Velocity P-wave (km/s) = 6.75395 7.38339 7.07567
#
# Compressibility (1/GPa) = 0.01297188
#
# Stress axis : x y z
#
# Youngs Moduli (GPa) = 147.31953 98.87266 115.42575
#
# Poissons Ratio (x) = 0.35594 0.14961
# Poissons Ratio (y) = 0.53035 0.16168
# Poissons Ratio (z) = 0.19094 0.13849
#
# Static dielectric constant tensor:
#      x y z
#    x 2.006160 0.000000 0.000000 
#    y 0.000000 1.904110 0.000000 
#    z 0.000000 0.000000 1.877700 
# 
# From -- ./inp_files/2963.got.cif
#   From: 2010.05.17/outbox.cif.g08.bks.cpg/sg60_2_cif.got.tgz:2963.got - 2010.06.03 14:59:27.
