data_PCOD9456056
_publ_section_title
;
Structure prediction by ZEFSAII (Michael W. Deem and Ramdas Pophale) SiO2 
 PCOD9456056
Probable space group: P B C N
;
_chemical_formula_sum "Si O2"
_cell_formula_units_Z 56
_cell_length_a 5.056596
_cell_length_b 16.298973
_cell_length_c 34.204083
_cell_angle_alpha 90.000000
_cell_angle_beta 90.000000
_cell_angle_gamma 90.000000
_cell_volume 2819.008911
_symmetry_space_group_name_H-M "P B C N"
_symmetry_group_IT_number 60
_symmetry_cell_setting 'orthorhombic'
loop_
_space_group_symop_operation_xyz
x,y,z
1/2-x,1/2-y,1/2+z
1/2+x,1/2-y,-z
-x,y,1/2-z
-x,-y,-z
1/2+x,1/2+y,1/2-z
1/2-x,1/2+y,z
x,-y,1/2+z
loop_
_atom_site_type_symbol
_atom_site_label
_atom_site_fract_x
_atom_site_fract_y
_atom_site_fract_z
Si Si1 0.281472 0.151641 0.900065
Si Si2 0.563211 0.780670 0.663608
Si Si3 0.715794 0.537369 0.896908
Si Si4 0.000000 0.274582 0.750000
Si Si5 0.000000 0.894077 0.750000
Si Si6 0.751215 0.460012 0.979567
Si Si7 0.937937 0.098923 0.334785
Si Si8 0.391022 0.209985 0.986883
O O1 0.164281 0.215241 0.868242
O O2 0.533564 0.096007 0.887171
O O3 0.367360 0.194982 0.940564
O O4 0.034437 0.092673 0.908639
O O5 0.527237 0.736479 0.706464
O O6 0.288892 0.831259 0.658847
O O7 0.787134 0.851729 0.661627
O O8 0.776235 0.481282 0.934271
O O9 0.624866 0.475742 0.863140
O O10 0.748578 0.333705 0.749660
O O11 0.041545 0.938577 0.709094
O O12 0.500000 0.500000 0.000000
O O13 0.763883 0.364921 0.989285
O O14 0.000000 0.500000 0.000000
O O15 0.694239 0.217461 0.000121
#
# Coordination Sequence:
#
# PCOD9456056 Si02
#       8
#     8   8   8   4   4   8   8   8
#     4  12  25  42  58  90 129 159 198 262 312 361
#     4  10  21  38  63  90 119 155 204 250 297 359
#     4  12  24  41  61  88 125 164 201 247 317 371
#     4   8  16  34  59  86 115 152 188 236 298 354
#     4   8  16  34  59  88 119 142 194 246 288 340
#     4  12  23  44  62  83 119 169 204 244 309 378
#     4  10  21  38  64  92 115 160 203 248 296 368
#     4  12  26  41  62  88 119 158 210 261 307 353
#
# _framework density 19.86514
#
# number of rings (size 3 to 8) (size 9 to 14) (size 15 to 20)
#    0.000    1.143    2.857    3.429    4.000    0.000 
#    0.000    0.714    0.000    1.714    0.000    0.000 
#    0.000    0.000    0.000    0.000    0.000    0.000 
#
# Total GULP energy -312234.308665 kJ/mol
# GULP energy per Si atom -5575.612655 kJ/mol
# Density = 1.981993 g / cm^3
# Si number density = 19.865140 Si / 1000 Ang^3
#
#
#
# Elastic Constant Matrix: (Units=GPa)
#
#
# Indices 1 2 3 4 5 6 
#
# 1 119.0581 -0.1754 1.9995 0.0000 0.0000 0.0000
# 2 -0.1754 37.2012 33.4234 0.0000 0.0000 0.0000
# 3 1.9995 33.4234 164.2928 0.0000 0.0000 0.0000
# 4 0.0000 0.0000 0.0000 19.3801 0.0000 0.0000
# 5 0.0000 0.0000 0.0000 0.0000 30.3942 0.0000
# 6 0.0000 0.0000 0.0000 0.0000 0.0000 19.6199
#
#
#
# Elastic Compliance Matrix: (Units=1/GPa)
#
#
# Indices 1 2 3 4 5 6 
#
# 1 0.008402 0.000161 -0.000135 0.000000 0.000000 0.000000
# 2 0.000161 0.032896 -0.006694 0.000000 0.000000 0.000000
# 3 -0.000135 -0.006694 0.007450 0.000000 0.000000 0.000000
# 4 0.000000 0.000000 0.000000 0.051599 0.000000 0.000000
# 5 0.000000 0.000000 0.000000 0.000000 0.032901 0.000000
# 6 0.000000 0.000000 0.000000 0.000000 0.000000 0.050969
#
#
# Mechanical properties :
#
#
# Convention : Reuss Voigt Hill
#
# Bulk Modulus (GPa) = 28.23953 43.44968 35.84461
# Shear Modulus (GPa) = 23.88257 32.89914 28.39086
#
# Velocity S-wave (km/s) = 3.47109 4.07397 3.78455
# Velocity P-wave (km/s) = 5.50555 6.63697 6.09756
#
# Compressibility (1/GPa) = 0.03541136
#
# Stress axis : x y z
#
# Youngs Moduli (GPa) = 119.02263 30.39872 134.22448
#
# Poissons Ratio (x) = -0.00489 0.01812
# Poissons Ratio (y) = -0.01915 0.89854
# Poissons Ratio (z) = 0.01607 0.20350
#
# Static dielectric constant tensor:
#      x y z
#    x 1.716960 0.000000 0.000000 
#    y 0.000000 1.627550 0.000000 
#    z 0.000000 0.000000 1.756250 
# 
# From -- ./inp_files/25741.got.cif
#   From: 2010.05.17/outbox.cif.g08.bks.cpg/sg60_13_cif.got.tgz:25741.got - 2010.06.03 14:59:27.
