data_PCOD9456208
_publ_section_title
;
Structure prediction by ZEFSAII (Michael W. Deem and Ramdas Pophale) SiO2 
 PCOD9456208
Probable space group: P B C N
;
_chemical_formula_sum "Si O2"
_cell_formula_units_Z 56
_cell_length_a 14.603381
_cell_length_b 14.416914
_cell_length_c 9.882606
_cell_angle_alpha 90.000000
_cell_angle_beta 90.000000
_cell_angle_gamma 90.000000
_cell_volume 2080.641253
_symmetry_space_group_name_H-M "P B C N"
_symmetry_group_IT_number 60
_symmetry_cell_setting 'orthorhombic'
loop_
_space_group_symop_operation_xyz
x,y,z
1/2-x,1/2-y,1/2+z
1/2+x,1/2-y,-z
-x,y,1/2-z
-x,-y,-z
1/2+x,1/2+y,1/2-z
1/2-x,1/2+y,z
x,-y,1/2+z
loop_
_atom_site_type_symbol
_atom_site_label
_atom_site_fract_x
_atom_site_fract_y
_atom_site_fract_z
Si Si1 0.436325 0.617263 0.410183
Si Si2 0.695684 0.612044 0.679270
Si Si3 0.361778 0.089116 0.316769
Si Si4 0.000000 0.946775 0.250000
Si Si5 0.705145 0.710804 0.290836
Si Si6 0.059270 0.287736 0.019782
Si Si7 0.000000 0.430244 0.250000
Si Si8 0.270624 0.477614 0.049092
O O1 0.492283 0.525731 0.367497
O O2 0.380687 0.660350 0.282341
O O3 0.497059 0.697092 0.472929
O O4 0.354584 0.588651 0.507788
O O5 0.588975 0.614310 0.719092
O O6 0.756035 0.702082 0.704915
O O7 0.705017 0.573219 0.527486
O O8 0.731870 0.535749 0.789806
O O9 0.291820 0.141350 0.215602
O O10 0.431148 0.166352 0.374440
O O11 0.415547 0.000640 0.262438
O O12 0.313336 0.057970 0.458332
O O13 0.659077 0.756626 0.422525
O O14 0.015275 0.362970 0.122469
#
# Coordination Sequence:
#
# PCOD9456208 Si02
#       8
#     8   8   8   4   8   8   4   8
#     4  10  21  42  68  94 128 186 230 277 342 434
#     4  11  24  43  70 103 144 182 232 296 351 428
#     4  11  27  43  67 106 137 188 236 299 353 427
#     4  10  21  39  68 100 134 174 226 283 353 406
#     4  11  22  45  66  98 139 182 235 280 350 421
#     4  12  22  46  74  95 136 190 236 285 362 428
#     4  12  25  47  70 102 146 180 240 301 363 428
#     4  10  24  44  68 105 142 179 235 291 358 421
#
# _framework density 26.914778999999999
#
# number of rings (size 3 to 8) (size 9 to 14) (size 15 to 20)
#    0.000    1.143    4.286    1.286    0.000    6.286 
#    0.000    0.000    0.000    0.000    0.000    0.000 
#    0.000    0.000    0.000    0.000    0.000    0.000 
#
# Total GULP energy -313724.929819 kJ/mol
# GULP energy per Si atom -5602.230890 kJ/mol
# Density = 2.685352 g / cm^3
# Si number density = 26.914779 Si / 1000 Ang^3
#
#
#
# Elastic Constant Matrix: (Units=GPa)
#
#
# Indices 1 2 3 4 5 6 
#
# 1 113.7702 16.5274 13.1762 0.0000 0.0000 0.0000
# 2 16.5274 82.0369 1.0827 0.0000 0.0000 0.0000
# 3 13.1762 1.0827 103.8274 0.0000 0.0000 0.0000
# 4 0.0000 0.0000 0.0000 29.3745 0.0000 0.0000
# 5 0.0000 0.0000 0.0000 0.0000 28.6188 0.0000
# 6 0.0000 0.0000 0.0000 0.0000 0.0000 69.2612
#
#
#
# Elastic Compliance Matrix: (Units=1/GPa)
#
#
# Indices 1 2 3 4 5 6 
#
# 1 0.009189 -0.001836 -0.001147 0.000000 0.000000 0.000000
# 2 -0.001836 0.012558 0.000102 0.000000 0.000000 0.000000
# 3 -0.001147 0.000102 0.009776 0.000000 0.000000 0.000000
# 4 0.000000 0.000000 0.000000 0.034043 0.000000 0.000000
# 5 0.000000 0.000000 0.000000 0.000000 0.034942 0.000000
# 6 0.000000 0.000000 0.000000 0.000000 0.000000 0.014438
#
#
# Mechanical properties :
#
#
# Convention : Reuss Voigt Hill
#
# Bulk Modulus (GPa) = 38.81822 40.13412 39.47617
# Shear Modulus (GPa) = 38.67099 43.37411 41.02255
#
# Velocity S-wave (km/s) = 3.79462 4.01875 3.90829
# Velocity P-wave (km/s) = 5.80110 6.03968 5.92159
#
# Compressibility (1/GPa) = 0.02576110
#
# Stress axis : x y z
#
# Youngs Moduli (GPa) = 108.82314 79.62921 102.29272
#
# Poissons Ratio (x) = 0.14621 0.11733
# Poissons Ratio (y) = 0.19982 -0.01044
# Poissons Ratio (z) = 0.12482 -0.00813
#
# Static dielectric constant tensor:
#      x y z
#    x 2.116840 0.000000 0.000000 
#    y 0.000000 2.111190 0.000000 
#    z 0.000000 0.000000 2.191160 
# 
# From -- ./inp_files/11998.got.cif
#   From: 2010.05.17/outbox.cif.g08.bks.cpg/sg60_6_cif.got.tgz:11998.got - 2010.06.03 14:59:27.
