data_PCOD9456440
_publ_section_title
;
Structure prediction by ZEFSAII (Michael W. Deem and Ramdas Pophale) SiO2 
 PCOD9456440
Probable space group: P B C N
;
_chemical_formula_sum "Si O2"
_cell_formula_units_Z 56
_cell_length_a 9.190322
_cell_length_b 19.301633
_cell_length_c 15.741571
_cell_angle_alpha 90.000000
_cell_angle_beta 90.000000
_cell_angle_gamma 90.000000
_cell_volume 2792.369297
_symmetry_space_group_name_H-M "P B C N"
_symmetry_group_IT_number 60
_symmetry_cell_setting 'orthorhombic'
loop_
_space_group_symop_operation_xyz
x,y,z
1/2-x,1/2-y,1/2+z
1/2+x,1/2-y,-z
-x,y,1/2-z
-x,-y,-z
1/2+x,1/2+y,1/2-z
1/2-x,1/2+y,z
x,-y,1/2+z
loop_
_atom_site_type_symbol
_atom_site_label
_atom_site_fract_x
_atom_site_fract_y
_atom_site_fract_z
Si Si1 0.000000 0.036079 0.250000
Si Si2 0.000000 0.400801 0.250000
Si Si3 0.820668 0.622456 0.490274
Si Si4 0.755516 0.477472 0.148482
Si Si5 0.346752 0.755590 0.780750
Si Si6 0.632769 0.335727 0.845875
Si Si7 0.928330 0.710104 0.629972
Si Si8 0.448304 0.105107 0.347802
O O1 0.100492 0.090876 0.198349
O O2 0.096785 0.989258 0.312443
O O3 0.864021 0.445789 0.219809
O O4 0.030298 0.348147 0.172559
O O5 0.777148 0.569030 0.564463
O O6 0.681425 0.650326 0.441267
O O7 0.903528 0.686640 0.534498
O O8 0.924656 0.592934 0.416108
O O9 0.818653 0.553603 0.130496
O O10 0.500000 0.724274 0.750000
O O11 0.260781 0.795295 0.704706
O O12 0.229102 0.706542 0.824293
O O13 0.392557 0.816069 0.846347
O O14 0.494447 0.284747 0.849466
O O15 0.500000 0.093465 0.250000
#
# Coordination Sequence:
#
# PCOD9456440 Si02
#       8
#     4   4   8   8   8   8   8   8
#     4  12  23  44  70  92 127 180 228 268 328 396
#     4  10  21  42  64  90 127 182 206 262 326 398
#     4  11  26  38  63 102 133 163 222 277 327 382
#     4  11  23  41  66  95 133 169 224 267 326 387
#     4  11  20  38  72  95 117 172 224 257 315 407
#     4  12  21  43  69  93 128 174 216 270 325 399
#     4  11  23  43  62  99 134 166 215 269 336 384
#     4  11  19  40  66  93 121 177 223 258 320 401
#
# _framework density 20.054653999999999
#
# number of rings (size 3 to 8) (size 9 to 14) (size 15 to 20)
#    0.000    0.857    7.857    0.429    2.000    0.571 
#    5.143    1.429    0.000    0.000    0.000    0.000 
#    0.000    0.000    0.000    0.000    0.000    0.000 
#
# Total GULP energy -312472.761230 kJ/mol
# GULP energy per Si atom -5579.870736 kJ/mol
# Density = 2.000901 g / cm^3
# Si number density = 20.054654 Si / 1000 Ang^3
#
#
#
# Elastic Constant Matrix: (Units=GPa)
#
#
# Indices 1 2 3 4 5 6 
#
# 1 93.4131 9.0005 44.2311 0.0000 0.0000 0.0000
# 2 9.0005 38.4817 21.7167 0.0000 0.0000 0.0000
# 3 44.2311 21.7167 113.8640 0.0000 0.0000 0.0000
# 4 0.0000 0.0000 0.0000 17.6092 0.0000 0.0000
# 5 0.0000 0.0000 0.0000 0.0000 43.7117 0.0000
# 6 0.0000 0.0000 0.0000 0.0000 0.0000 20.0807
#
#
#
# Elastic Compliance Matrix: (Units=1/GPa)
#
#
# Indices 1 2 3 4 5 6 
#
# 1 0.013120 -0.000216 -0.005055 0.000000 0.000000 0.000000
# 2 -0.000216 0.029124 -0.005471 0.000000 0.000000 0.000000
# 3 -0.005055 -0.005471 0.011790 0.000000 0.000000 0.000000
# 4 0.000000 0.000000 0.000000 0.056789 0.000000 0.000000
# 5 0.000000 0.000000 0.000000 0.000000 0.022877 0.000000
# 6 0.000000 0.000000 0.000000 0.000000 0.000000 0.049799
#
#
# Mechanical properties :
#
#
# Convention : Reuss Voigt Hill
#
# Bulk Modulus (GPa) = 30.72225 43.96172 37.34199
# Shear Modulus (GPa) = 23.16618 27.66768 25.41693
#
# Velocity S-wave (km/s) = 3.40244 3.71835 3.56389
# Velocity P-wave (km/s) = 5.54869 6.35636 5.96621
#
# Compressibility (1/GPa) = 0.03254970
#
# Stress axis : x y z
#
# Youngs Moduli (GPa) = 76.22207 34.33561 84.82063
#
# Poissons Ratio (x) = 0.00741 0.42879
# Poissons Ratio (y) = 0.01644 0.46405
# Poissons Ratio (z) = 0.38532 0.18785
#
# Static dielectric constant tensor:
#      x y z
#    x 1.755170 0.000000 0.000000 
#    y 0.000000 1.721170 0.000000 
#    z 0.000000 0.000000 1.729710 
# 
# From -- ./inp_files/15312.got.cif
#   From: 2010.05.17/outbox.cif.g08.bks.cpg/sg60_8_cif.got.tgz:15312.got - 2010.06.03 14:59:27.
