data_PCOD9456414
_publ_section_title
;
Structure prediction by ZEFSAII (Michael W. Deem and Ramdas Pophale) SiO2 
 PCOD9456414
Probable space group: P B C N
;
_chemical_formula_sum "Si O2"
_cell_formula_units_Z 56
_cell_length_a 8.549291
_cell_length_b 19.100792
_cell_length_c 14.627026
_cell_angle_alpha 90.000000
_cell_angle_beta 90.000000
_cell_angle_gamma 90.000000
_cell_volume 2388.567443
_symmetry_space_group_name_H-M "P B C N"
_symmetry_group_IT_number 60
_symmetry_cell_setting 'orthorhombic'
loop_
_space_group_symop_operation_xyz
x,y,z
1/2-x,1/2-y,1/2+z
1/2+x,1/2-y,-z
-x,y,1/2-z
-x,-y,-z
1/2+x,1/2+y,1/2-z
1/2-x,1/2+y,z
x,-y,1/2+z
loop_
_atom_site_type_symbol
_atom_site_label
_atom_site_fract_x
_atom_site_fract_y
_atom_site_fract_z
Si Si1 0.960730 0.547171 0.587847
Si Si2 0.540709 0.835219 0.544701
Si Si3 0.943828 0.877897 0.952898
Si Si4 0.733126 0.483698 0.845002
Si Si5 0.734797 0.247994 0.917163
Si Si6 0.573557 0.369704 0.346836
Si Si7 0.244322 0.060910 0.352054
O O1 0.982160 0.624333 0.547297
O O2 0.099396 0.521755 0.654277
O O3 0.000000 0.500000 0.500000
O O4 0.798224 0.518854 0.627111
O O5 0.395491 0.791269 0.580016
O O6 0.683889 0.786327 0.513427
O O7 0.611298 0.889694 0.617399
O O8 0.899347 0.805675 0.901435
O O9 0.098253 0.914206 0.911820
O O10 0.805593 0.933258 0.930441
O O11 0.973895 0.861363 0.059444
O O12 0.615680 0.548529 0.846156
O O13 0.287605 0.437257 0.745002
O O14 0.775293 0.180778 0.856349
O O15 0.500000 0.351545 0.250000
#
# Coordination Sequence:
#
# PCOD9456414 Si02
#       7
#     8   8   8   8   8   8   8
#     4  10  21  41  70 103 143 186 240 308 365 430
#     4  11  22  44  72 103 143 198 244 302 378 449
#     4  12  25  47  74 105 149 198 246 306 374 448
#     4  12  25  44  74 111 146 196 253 311 373 439
#     4  12  24  47  75 103 146 202 249 301 378 457
#     4  12  26  45  73 111 151 190 249 314 379 441
#     4  11  23  44  72 110 147 189 254 309 370 441
#
# _framework density 23.445015000000001
#
# number of rings (size 3 to 8) (size 9 to 14) (size 15 to 20)
#    0.000    0.571    4.286    4.714    0.000    5.714 
#    0.000    0.000    6.286    0.000    0.000    0.000 
#    0.000    0.000    0.000    0.000    0.000    0.000 
#
# Total GULP energy -312974.805717 kJ/mol
# GULP energy per Si atom -5588.835816 kJ/mol
# Density = 2.339165 g / cm^3
# Si number density = 23.445015 Si / 1000 Ang^3
#
#
#
# Elastic Constant Matrix: (Units=GPa)
#
#
# Indices 1 2 3 4 5 6 
#
# 1 75.5111 32.3101 34.2564 0.0000 0.0000 0.0000
# 2 32.3101 94.2806 25.5520 0.0000 0.0000 0.0000
# 3 34.2564 25.5520 114.0516 0.0000 0.0000 0.0000
# 4 0.0000 0.0000 0.0000 21.6174 0.0000 0.0000
# 5 0.0000 0.0000 0.0000 0.0000 13.3277 0.0000
# 6 0.0000 0.0000 0.0000 0.0000 0.0000 51.1503
#
#
#
# Elastic Compliance Matrix: (Units=1/GPa)
#
#
# Indices 1 2 3 4 5 6 
#
# 1 0.017132 -0.004766 -0.004078 0.000000 0.000000 0.000000
# 2 -0.004766 0.012618 -0.001395 0.000000 0.000000 0.000000
# 3 -0.004078 -0.001395 0.010305 0.000000 0.000000 0.000000
# 4 0.000000 0.000000 0.000000 0.046259 0.000000 0.000000
# 5 0.000000 0.000000 0.000000 0.000000 0.075031 0.000000
# 6 0.000000 0.000000 0.000000 0.000000 0.000000 0.019550
#
#
# Mechanical properties :
#
#
# Convention : Reuss Voigt Hill
#
# Bulk Modulus (GPa) = 51.08055 52.00891 51.54473
# Shear Modulus (GPa) = 24.04983 30.00075 27.02529
#
# Velocity S-wave (km/s) = 3.20628 3.58106 3.39884
# Velocity P-wave (km/s) = 5.96168 6.27138 6.11849
#
# Compressibility (1/GPa) = 0.01957692
#
# Stress axis : x y z
#
# Youngs Moduli (GPa) = 58.36864 79.25079 97.03570
#
# Poissons Ratio (x) = 0.37772 0.39572
# Poissons Ratio (y) = 0.27819 0.13541
# Poissons Ratio (z) = 0.23803 0.11059
#
# Static dielectric constant tensor:
#      x y z
#    x 1.976520 0.000000 0.000000 
#    y 0.000000 1.912500 0.000000 
#    z 0.000000 0.000000 1.871180 
# 
# From -- ./inp_files/19645.got.cif
#   From: 2010.05.17/outbox.cif.g08.bks.cpg/sg60_10_cif.got.tgz:19645.got - 2010.06.03 14:59:27.
