data_PCOD9456248
_publ_section_title
;
Structure prediction by ZEFSAII (Michael W. Deem and Ramdas Pophale) SiO2 
 PCOD9456248
Probable space group: P B C N
;
_chemical_formula_sum "Si O2"
_cell_formula_units_Z 32
_cell_length_a 6.907622
_cell_length_b 9.877214
_cell_length_c 18.021185
_cell_angle_alpha 90.000000
_cell_angle_beta 90.000000
_cell_angle_gamma 90.000000
_cell_volume 1229.550505
_symmetry_space_group_name_H-M "P B C N"
_symmetry_group_IT_number 60
_symmetry_cell_setting 'orthorhombic'
loop_
_space_group_symop_operation_xyz
x,y,z
1/2-x,1/2-y,1/2+z
1/2+x,1/2-y,-z
-x,y,1/2-z
-x,-y,-z
1/2+x,1/2+y,1/2-z
1/2-x,1/2+y,z
x,-y,1/2+z
loop_
_atom_site_type_symbol
_atom_site_label
_atom_site_fract_x
_atom_site_fract_y
_atom_site_fract_z
Si Si1 0.687788 0.107144 0.654251
Si Si2 0.263205 0.997514 0.999951
Si Si3 0.793965 0.253371 0.402715
Si Si4 0.235177 0.144717 0.253259
O O1 0.481290 0.164511 0.626615
O O2 0.785308 0.241446 0.686276
O O3 0.784655 0.029663 0.585333
O O4 0.688316 0.999059 0.720263
O O5 0.200278 0.858314 0.039026
O O6 0.500000 0.000000 0.000000
O O7 0.181121 0.118628 0.049384
O O8 0.699753 0.197509 0.327098
O O9 0.000000 0.133443 0.250000
#
# Coordination Sequence:
#
# PCOD9456248 Si02
#       4
#     8   8   8   8
#     4  10  21  40  63  93 132 175 227 283 344 413
#     4  10  21  40  65  99 136 181 228 282 344 412
#     4  10  21  40  66  97 135 179 228 284 344 411
#     4  10  21  40  62  91 127 173 224 283 344 412
#
# _framework density 26.025770000000001
#
# number of rings (size 3 to 8) (size 9 to 14) (size 15 to 20)
#    0.000    2.000    0.000    3.000    0.000    2.000 
#    0.000   43.750    0.000    0.000    0.000    0.000 
#    0.000    0.000    0.000    0.000    0.000    0.000 
#
# Total GULP energy -179068.359349 kJ/mol
# GULP energy per Si atom -5595.886230 kJ/mol
# Density = 2.596653 g / cm^3
# Si number density = 26.025770 Si / 1000 Ang^3
#
#
#
# Elastic Constant Matrix: (Units=GPa)
#
#
# Indices 1 2 3 4 5 6 
#
# 1 126.8412 9.3682 29.3857 0.0000 0.0000 0.0000
# 2 9.3682 122.1059 -4.4970 0.0000 0.0000 0.0000
# 3 29.3857 -4.4970 99.5080 0.0000 0.0000 0.0000
# 4 0.0000 0.0000 0.0000 61.0570 0.0000 0.0000
# 5 0.0000 0.0000 0.0000 0.0000 -17.3111 0.0000
# 6 0.0000 0.0000 0.0000 0.0000 0.0000 3.1010
#
#
#
# Elastic Compliance Matrix: (Units=1/GPa)
#
#
# Indices 1 2 3 4 5 6 
#
# 1 0.008531 -0.000749 -0.002553 0.000000 0.000000 0.000000
# 2 -0.000749 0.008269 0.000595 0.000000 0.000000 0.000000
# 3 -0.002553 0.000595 0.010830 0.000000 0.000000 0.000000
# 4 0.000000 0.000000 0.000000 0.016378 0.000000 0.000000
# 5 0.000000 0.000000 0.000000 0.000000 -0.057766 0.000000
# 6 0.000000 0.000000 0.000000 0.000000 0.000000 0.322472
#
#
# Mechanical properties :
#
#
# Convention : Reuss Voigt Hill
#
# Bulk Modulus (GPa) = 45.01208 46.32987 45.67097
# Shear Modulus (GPa) = 15.55050 30.31593 22.93322
#
# Velocity S-wave (km/s) = 2.44704 3.41668 2.97168
# Velocity P-wave (km/s) = 5.03158 5.77972 5.41857
#
# Compressibility (1/GPa) = 0.02221626
#
# Stress axis : x y z
#
# Youngs Moduli (GPa) = 117.22482 120.93441 92.33396
#
# Poissons Ratio (x) = 0.09052 0.23573
# Poissons Ratio (y) = 0.08774 -0.05491
# Poissons Ratio (z) = 0.29928 -0.07192
#
# Static dielectric constant tensor:
#      x y z
#    x 2.123640 0.000000 0.000000 
#    y 0.000000 1.946750 0.000000 
#    z 0.000000 0.000000 2.038260 
# 
# From -- ./inp_files/21873.got.cif
#   From: 2010.05.17/outbox.cif.g08.bks.cpg/sg60_11_cif.got.tgz:21873.got - 2010.06.03 14:59:27.
