data_PCOD9456727
_publ_section_title
;
Structure prediction by ZEFSAII (Michael W. Deem and Ramdas Pophale) SiO2 
 PCOD9456727
Probable space group: P B C N
;
_chemical_formula_sum "Si O2"
_cell_formula_units_Z 48
_cell_length_a 5.352395
_cell_length_b 18.948412
_cell_length_c 18.535806
_cell_angle_alpha 90.000000
_cell_angle_beta 90.000000
_cell_angle_gamma 90.000000
_cell_volume 1879.890057
_symmetry_space_group_name_H-M "P B C N"
_symmetry_group_IT_number 60
_symmetry_cell_setting 'orthorhombic'
loop_
_space_group_symop_operation_xyz
x,y,z
1/2-x,1/2-y,1/2+z
1/2+x,1/2-y,-z
-x,y,1/2-z
-x,-y,-z
1/2+x,1/2+y,1/2-z
1/2-x,1/2+y,z
x,-y,1/2+z
loop_
_atom_site_type_symbol
_atom_site_label
_atom_site_fract_x
_atom_site_fract_y
_atom_site_fract_z
Si Si1 0.739380 0.363989 0.679659
Si Si2 0.252126 0.230752 0.714867
Si Si3 0.546373 0.486769 0.176857
Si Si4 0.758793 0.603510 0.392684
Si Si5 0.072350 0.075564 0.965987
Si Si6 0.789306 0.217527 0.960832
O O1 0.740489 0.308623 0.744119
O O2 0.711541 0.445777 0.701531
O O3 0.499612 0.356426 0.627953
O O4 0.994528 0.362485 0.637323
O O5 0.500000 0.196460 0.750000
O O6 0.240192 0.227342 0.627324
O O7 0.000000 0.201879 0.750000
O O8 0.500000 0.447190 0.250000
O O9 0.304992 0.526064 0.140598
O O10 0.660350 0.440004 0.114303
O O11 0.355921 0.634068 0.532892
O O12 0.778614 0.601106 0.478093
O O13 0.000000 0.000000 0.000000
O O14 0.540922 0.244870 0.003963
#
# Coordination Sequence:
#
# PCOD9456727 Si02
#       6
#     8   8   8   8   8   8
#     4  10  22  38  71 113 147 199 263 343 386 489
#     4  12  27  45  79 118 158 214 275 345 415 493
#     4   9  21  40  68 107 155 199 265 328 416 479
#     4   9  22  39  70 110 149 193 271 330 410 471
#     4  10  24  51  80 117 162 217 276 350 419 512
#     4  12  31  55  82 121 175 228 285 350 439 523
#
# _framework density 25.533408000000001
#
# number of rings (size 3 to 8) (size 9 to 14) (size 15 to 20)
#    1.000    0.667    0.000    2.500    9.333    2.667 
#    6.000    0.000    0.000    0.000    0.000    0.000 
#    0.000    0.000    0.000    0.000    0.000    0.000 
#
# Total GULP energy -267729.927759 kJ/mol
# GULP energy per Si atom -5577.706828 kJ/mol
# Density = 2.547529 g / cm^3
# Si number density = 25.533408 Si / 1000 Ang^3
#
#
#
# Elastic Constant Matrix: (Units=GPa)
#
#
# Indices 1 2 3 4 5 6 
#
# 1 180.0928 43.4211 72.8220 0.0000 0.0000 0.0000
# 2 43.4211 142.2158 55.8175 0.0000 0.0000 0.0000
# 3 72.8220 55.8175 275.6804 0.0000 0.0000 0.0000
# 4 0.0000 0.0000 0.0000 26.4847 0.0000 0.0000
# 5 0.0000 0.0000 0.0000 0.0000 32.4766 0.0000
# 6 0.0000 0.0000 0.0000 0.0000 0.0000 -5.2072
#
#
#
# Elastic Compliance Matrix: (Units=1/GPa)
#
#
# Indices 1 2 3 4 5 6 
#
# 1 0.006469 -0.001417 -0.001422 0.000000 0.000000 0.000000
# 2 -0.001417 0.007949 -0.001235 0.000000 0.000000 0.000000
# 3 -0.001422 -0.001235 0.004253 0.000000 0.000000 0.000000
# 4 0.000000 0.000000 0.000000 0.037758 0.000000 0.000000
# 5 0.000000 0.000000 0.000000 0.000000 0.030791 0.000000
# 6 0.000000 0.000000 0.000000 0.000000 0.000000 -0.192041
#
#
# Mechanical properties :
#
#
# Convention : Reuss Voigt Hill
#
# Bulk Modulus (GPa) = 95.02959 104.67890 99.85424
# Shear Modulus (GPa) = -53.66840 39.14603 -7.26119
#
# Velocity S-wave (km/s) = -4.58961 3.91977 -1.68819
# Velocity P-wave (km/s) = 3.03521 7.84678 5.94914
#
# Compressibility (1/GPa) = 0.01052304
#
# Stress axis : x y z
#
# Youngs Moduli (GPa) = 154.57500 125.80198 235.12343
#
# Poissons Ratio (x) = 0.17827 0.33434
# Poissons Ratio (y) = 0.21905 0.29040
# Poissons Ratio (z) = 0.21980 0.15538
#
# Static dielectric constant tensor:
#      x y z
#    x 2.073370 0.000000 0.000000 
#    y 0.000000 2.137890 0.000000 
#    z 0.000000 0.000000 2.079390 
# 
# From -- ./inp_files/14042.got.cif
#   From: 2010.05.17/outbox.cif.g08.bks.cpg/sg60_8_cif.got.tgz:14042.got - 2010.06.03 14:59:27.
