data_PCOD9456271
_publ_section_title
;
Structure prediction by ZEFSAII (Michael W. Deem and Ramdas Pophale) SiO2 
 PCOD9456271
Probable space group: P B C N
;
_chemical_formula_sum "Si O2"
_cell_formula_units_Z 44
_cell_length_a 29.242805
_cell_length_b 4.802260
_cell_length_c 14.406353
_cell_angle_alpha 90.000000
_cell_angle_beta 90.000000
_cell_angle_gamma 90.000000
_cell_volume 2023.106521
_symmetry_space_group_name_H-M "P B C N"
_symmetry_group_IT_number 60
_symmetry_cell_setting 'orthorhombic'
loop_
_space_group_symop_operation_xyz
x,y,z
1/2-x,1/2-y,1/2+z
1/2+x,1/2-y,-z
-x,y,1/2-z
-x,-y,-z
1/2+x,1/2+y,1/2-z
1/2-x,1/2+y,z
x,-y,1/2+z
loop_
_atom_site_type_symbol
_atom_site_label
_atom_site_fract_x
_atom_site_fract_y
_atom_site_fract_z
Si Si1 0.219204 0.122711 0.565358
Si Si2 0.718831 0.313440 0.652464
Si Si3 0.014292 0.249312 0.566282
Si Si4 0.084421 0.459445 0.186802
Si Si5 0.644906 0.555934 0.790551
Si Si6 0.000000 0.078094 0.250000
O O1 0.236488 0.811811 0.584023
O O2 0.208220 0.159516 0.456914
O O3 0.177648 0.189543 0.632043
O O4 0.763631 0.503675 0.672061
O O5 0.676759 0.423676 0.711506
O O6 0.063753 0.359085 0.602064
O O7 0.000000 0.500000 0.500000
O O8 0.000000 0.000000 0.500000
O O9 0.993758 0.129906 0.663109
O O10 0.111195 0.698541 0.243927
O O11 0.042557 0.286991 0.232936
O O12 0.118233 0.205309 0.164469
#
# Coordination Sequence:
#
# PCOD9456271 Si02
#       6
#     8   8   8   8   8   4
#     4  10  21  40  64  91 132 180 224 274 342 417
#     4  10  21  40  66  95 132 183 230 267 347 439
#     4  12  25  48  76 101 133 192 243 287 364 444
#     4  12  26  45  68 103 142 176 242 295 359 427
#     4  12  23  41  64 103 137 173 228 303 350 406
#     4  12  26  52  74 102 146 190 236 304 362 452
#
# _framework density 21.748733000000001
#
# number of rings (size 3 to 8) (size 9 to 14) (size 15 to 20)
#    0.000    0.727    3.636    3.818    0.000    0.000 
#    9.818    0.000    0.000    0.000    0.000    0.000 
#    0.000    0.000    0.000    0.000    0.000    0.000 
#
# Total GULP energy -245374.410839 kJ/mol
# GULP energy per Si atom -5576.691155 kJ/mol
# Density = 2.169923 g / cm^3
# Si number density = 21.748733 Si / 1000 Ang^3
#
#
#
# Elastic Constant Matrix: (Units=GPa)
#
#
# Indices 1 2 3 4 5 6 
#
# 1 89.5111 22.5893 40.3487 0.0000 0.0000 0.0000
# 2 22.5893 134.0580 40.2648 0.0000 0.0000 0.0000
# 3 40.3487 40.2648 107.0130 0.0000 0.0000 0.0000
# 4 0.0000 0.0000 0.0000 39.4288 0.0000 0.0000
# 5 0.0000 0.0000 0.0000 0.0000 11.8601 0.0000
# 6 0.0000 0.0000 0.0000 0.0000 0.0000 15.4627
#
#
#
# Elastic Compliance Matrix: (Units=1/GPa)
#
#
# Indices 1 2 3 4 5 6 
#
# 1 0.013543 -0.000844 -0.004789 0.000000 0.000000 0.000000
# 2 -0.000844 0.008462 -0.002866 0.000000 0.000000 0.000000
# 3 -0.004789 -0.002866 0.012229 0.000000 0.000000 0.000000
# 4 0.000000 0.000000 0.000000 0.025362 0.000000 0.000000
# 5 0.000000 0.000000 0.000000 0.000000 0.084316 0.000000
# 6 0.000000 0.000000 0.000000 0.000000 0.000000 0.064672
#
#
# Mechanical properties :
#
#
# Convention : Reuss Voigt Hill
#
# Bulk Modulus (GPa) = 58.01422 59.66529 58.83975
# Shear Modulus (GPa) = 21.61431 28.50893 25.06162
#
# Velocity S-wave (km/s) = 3.15591 3.62447 3.39827
# Velocity P-wave (km/s) = 6.32553 6.70889 6.52003
#
# Compressibility (1/GPa) = 0.01723715
#
# Stress axis : x y z
#
# Youngs Moduli (GPa) = 73.83635 118.16941 81.77501
#
# Poissons Ratio (x) = 0.09970 0.39162
# Poissons Ratio (y) = 0.06230 0.23436
# Poissons Ratio (z) = 0.35360 0.33867
#
# Static dielectric constant tensor:
#      x y z
#    x 1.804130 0.000000 0.000000 
#    y 0.000000 1.780970 0.000000 
#    z 0.000000 0.000000 1.446770 
# 
# From -- ./inp_files/18002.got.cif
#   From: 2010.05.17/outbox.cif.g08.bks.cpg/sg60_10_cif.got.tgz:18002.got - 2010.06.03 14:59:27.
