data_PCOD9456936
_publ_section_title
;
Structure prediction by ZEFSAII (Michael W. Deem and Ramdas Pophale) SiO2 
 PCOD9456936
Probable space group: P B C N
;
_chemical_formula_sum "Si O2"
_cell_formula_units_Z 48
_cell_length_a 8.638556
_cell_length_b 10.023575
_cell_length_c 29.895460
_cell_angle_alpha 90.000000
_cell_angle_beta 90.000000
_cell_angle_gamma 90.000000
_cell_volume 2588.624382
_symmetry_space_group_name_H-M "P B C N"
_symmetry_group_IT_number 60
_symmetry_cell_setting 'orthorhombic'
loop_
_space_group_symop_operation_xyz
x,y,z
1/2-x,1/2-y,1/2+z
1/2+x,1/2-y,-z
-x,y,1/2-z
-x,-y,-z
1/2+x,1/2+y,1/2-z
1/2-x,1/2+y,z
x,-y,1/2+z
loop_
_atom_site_type_symbol
_atom_site_label
_atom_site_fract_x
_atom_site_fract_y
_atom_site_fract_z
Si Si1 0.399571 0.475926 0.381742
Si Si2 0.399567 0.794478 0.205357
Si Si3 0.065393 0.883275 0.030846
Si Si4 0.097767 0.709204 0.885875
Si Si5 0.066807 0.635329 0.520705
Si Si6 0.602247 0.482431 0.293261
O O1 0.515136 0.422132 0.419581
O O2 0.362779 0.632833 0.389606
O O3 0.247746 0.384501 0.382813
O O4 0.489629 0.465200 0.335308
O O5 0.500000 0.823935 0.250000
O O6 0.498389 0.808723 0.159632
O O7 0.351875 0.638731 0.208662
O O8 0.251661 0.889679 0.203753
O O9 0.248797 0.871264 0.025383
O O10 0.983302 0.750236 0.013579
O O11 0.000000 0.000000 0.000000
O O12 0.005195 0.667996 0.930651
O O13 0.000000 0.500000 0.500000
O O14 0.500000 0.450618 0.250000
#
# Coordination Sequence:
#
# PCOD9456936 Si02
#       6
#     8   8   8   8   8   8
#     4  11  24  41  64  92 128 164 210 263 313 381
#     4  10  22  41  65  93 128 164 209 259 316 379
#     4  12  24  44  63  92 128 164 214 262 315 379
#     4  11  24  42  63  94 126 165 211 259 318 377
#     4  12  26  42  67  92 126 171 210 265 321 377
#     4  10  22  41  64  93 128 164 208 261 315 377
#
# _framework density 18.542667999999999
#
# number of rings (size 3 to 8) (size 9 to 14) (size 15 to 20)
#    0.000    1.000    1.667    5.000    2.333    2.000 
#    0.000    0.000    0.000    0.000    0.000    0.000 
#    0.000    0.000    0.000    0.000    0.000    0.000 
#
# Total GULP energy -268420.449485 kJ/mol
# GULP energy per Si atom -5592.092698 kJ/mol
# Density = 1.850046 g / cm^3
# Si number density = 18.542668 Si / 1000 Ang^3
#
#
#
# Elastic Constant Matrix: (Units=GPa)
#
#
# Indices 1 2 3 4 5 6 
#
# 1 177.0736 108.0376 61.4720 0.0000 0.0000 0.0000
# 2 108.0376 159.3512 70.7106 0.0000 0.0000 0.0000
# 3 61.4720 70.7106 151.2784 0.0000 0.0000 0.0000
# 4 0.0000 0.0000 0.0000 29.1510 0.0000 0.0000
# 5 0.0000 0.0000 0.0000 0.0000 23.9390 0.0000
# 6 0.0000 0.0000 0.0000 0.0000 0.0000 42.1762
#
#
#
# Elastic Compliance Matrix: (Units=1/GPa)
#
#
# Indices 1 2 3 4 5 6 
#
# 1 0.009775 -0.006138 -0.001103 0.000000 0.000000 0.000000
# 2 -0.006138 0.011772 -0.003008 0.000000 0.000000 0.000000
# 3 -0.001103 -0.003008 0.008465 0.000000 0.000000 0.000000
# 4 0.000000 0.000000 0.000000 0.034304 0.000000 0.000000
# 5 0.000000 0.000000 0.000000 0.000000 0.041773 0.000000
# 6 0.000000 0.000000 0.000000 0.000000 0.000000 0.023710
#
#
# Mechanical properties :
#
#
# Convention : Reuss Voigt Hill
#
# Bulk Modulus (GPa) = 105.11866 107.57151 106.34508
# Shear Modulus (GPa) = 32.58000 35.55211 34.06606
#
# Velocity S-wave (km/s) = 4.19624 4.38346 4.29087
# Velocity P-wave (km/s) = 8.96053 9.15197 9.05676
#
# Compressibility (1/GPa) = 0.00951306
#
# Stress axis : x y z
#
# Youngs Moduli (GPa) = 102.29872 84.94910 118.13768
#
# Poissons Ratio (x) = 0.52141 0.13033
# Poissons Ratio (y) = 0.62791 0.35538
# Poissons Ratio (z) = 0.11285 0.25554
#
# Static dielectric constant tensor:
#      x y z
#    x 1.590110 0.000000 0.000000 
#    y 0.000000 1.607520 0.000000 
#    z 0.000000 0.000000 1.624010 
# 
# From -- ./inp_files/25939.got.cif
#   From: 2010.05.17/outbox.cif.g08.bks.cpg/sg60_13_cif.got.tgz:25939.got - 2010.06.03 14:59:27.
