data_PCOD9456301
_publ_section_title
;
Structure prediction by ZEFSAII (Michael W. Deem and Ramdas Pophale) SiO2 
 PCOD9456301
Probable space group: P B C N
;
_chemical_formula_sum "Si O2"
_cell_formula_units_Z 44
_cell_length_a 13.292813
_cell_length_b 23.547441
_cell_length_c 6.544921
_cell_angle_alpha 90.000000
_cell_angle_beta 90.000000
_cell_angle_gamma 90.000000
_cell_volume 2048.637044
_symmetry_space_group_name_H-M "P B C N"
_symmetry_group_IT_number 60
_symmetry_cell_setting 'orthorhombic'
loop_
_space_group_symop_operation_xyz
x,y,z
1/2-x,1/2-y,1/2+z
1/2+x,1/2-y,-z
-x,y,1/2-z
-x,-y,-z
1/2+x,1/2+y,1/2-z
1/2-x,1/2+y,z
x,-y,1/2+z
loop_
_atom_site_type_symbol
_atom_site_label
_atom_site_fract_x
_atom_site_fract_y
_atom_site_fract_z
Si Si1 0.420553 0.078043 0.048207
Si Si2 0.637452 0.695260 0.600572
Si Si3 0.818619 0.311059 0.787291
Si Si4 0.319202 0.620839 0.513776
Si Si5 0.362561 0.047868 0.600781
Si Si6 0.500000 0.352347 0.750000
O O1 0.388725 0.136721 0.148295
O O2 0.459889 0.066672 0.468135
O O3 0.370945 0.019616 0.129384
O O4 0.381239 0.078952 0.815272
O O5 0.625672 0.753896 0.722533
O O6 0.741751 0.698670 0.474360
O O7 0.645299 0.644880 0.767395
O O8 0.552711 0.684031 0.429817
O O9 0.751318 0.331887 0.595329
O O10 0.246160 0.567091 0.527653
O O11 0.413027 0.612618 0.363221
#
# Coordination Sequence:
#
# PCOD9456301 Si02
#       6
#     8   8   8   8   8   4
#     4  10  21  40  67 108 140 181 218 284 361 431
#     4  11  22  44  65 100 137 182 230 294 339 422
#     4  11  22  40  69  99 140 177 227 277 356 414
#     4  11  22  43  66  96 138 185 231 290 340 417
#     4  10  21  40  69 101 146 174 228 285 353 429
#     4  10  26  44  68  96 136 190 240 290 354 396
#
# _framework density 21.477695000000001
#
# number of rings (size 3 to 8) (size 9 to 14) (size 15 to 20)
#    0.000    1.455    3.636    1.636    0.000    2.182 
#    6.545    0.000    0.000    9.818    0.000    0.000 
#    0.000    0.000    0.000    0.000    0.000    0.000 
#
# Total GULP energy -246015.012222 kJ/mol
# GULP energy per Si atom -5591.250278 kJ/mol
# Density = 2.142881 g / cm^3
# Si number density = 21.477695 Si / 1000 Ang^3
#
#
#
# Elastic Constant Matrix: (Units=GPa)
#
#
# Indices 1 2 3 4 5 6 
#
# 1 152.0237 75.5920 64.8501 0.0000 0.0000 0.0000
# 2 75.5920 117.9506 53.0107 0.0000 0.0000 0.0000
# 3 64.8501 53.0107 114.0370 0.0000 0.0000 0.0000
# 4 0.0000 0.0000 0.0000 33.5062 0.0000 0.0000
# 5 0.0000 0.0000 0.0000 0.0000 38.8029 0.0000
# 6 0.0000 0.0000 0.0000 0.0000 0.0000 33.9681
#
#
#
# Elastic Compliance Matrix: (Units=1/GPa)
#
#
# Indices 1 2 3 4 5 6 
#
# 1 0.010751 -0.005237 -0.003680 0.000000 0.000000 0.000000
# 2 -0.005237 0.013268 -0.003190 0.000000 0.000000 0.000000
# 3 -0.003680 -0.003190 0.012344 0.000000 0.000000 0.000000
# 4 0.000000 0.000000 0.000000 0.029845 0.000000 0.000000
# 5 0.000000 0.000000 0.000000 0.000000 0.025771 0.000000
# 6 0.000000 0.000000 0.000000 0.000000 0.000000 0.029439
#
#
# Mechanical properties :
#
#
# Convention : Reuss Voigt Hill
#
# Bulk Modulus (GPa) = 82.29458 85.65746 83.97602
# Shear Modulus (GPa) = 33.40413 33.95934 33.68174
#
# Velocity S-wave (km/s) = 3.94800 3.98067 3.96437
# Velocity P-wave (km/s) = 7.69297 7.81641 7.75494
#
# Compressibility (1/GPa) = 0.01215147
#
# Stress axis : x y z
#
# Youngs Moduli (GPa) = 93.01030 75.37133 81.00800
#
# Poissons Ratio (x) = 0.39469 0.29810
# Poissons Ratio (y) = 0.48705 0.25839
# Poissons Ratio (z) = 0.34227 0.24041
#
# Static dielectric constant tensor:
#      x y z
#    x 1.775730 0.000000 0.000000 
#    y 0.000000 1.723300 0.000000 
#    z 0.000000 0.000000 1.886200 
# 
# From -- ./inp_files/1730.got.cif
#   From: 2010.05.17/outbox.cif.g08.bks.cpg/sg60_1_cif.got.tgz:1730.got - 2010.06.03 14:59:27.
