data_PCOD9456451
_publ_section_title
;
Structure prediction by ZEFSAII (Michael W. Deem and Ramdas Pophale) SiO2 
 PCOD9456451
Probable space group: P B C N
;
_chemical_formula_sum "Si O2"
_cell_formula_units_Z 48
_cell_length_a 18.227657
_cell_length_b 15.249060
_cell_length_c 8.658511
_cell_angle_alpha 90.000000
_cell_angle_beta 90.000000
_cell_angle_gamma 90.000000
_cell_volume 2406.673267
_symmetry_space_group_name_H-M "P B C N"
_symmetry_group_IT_number 60
_symmetry_cell_setting 'orthorhombic'
loop_
_space_group_symop_operation_xyz
x,y,z
1/2-x,1/2-y,1/2+z
1/2+x,1/2-y,-z
-x,y,1/2-z
-x,-y,-z
1/2+x,1/2+y,1/2-z
1/2-x,1/2+y,z
x,-y,1/2+z
loop_
_atom_site_type_symbol
_atom_site_label
_atom_site_fract_x
_atom_site_fract_y
_atom_site_fract_z
Si Si1 0.922110 0.742934 0.955770
Si Si2 0.433555 0.122301 0.948113
Si Si3 0.013679 0.094786 0.433390
Si Si4 0.631327 0.992309 0.325380
Si Si5 0.194873 0.627280 0.406088
Si Si6 0.853294 0.212551 0.117864
O O1 0.867991 0.700664 0.078619
O O2 0.880213 0.763127 0.793367
O O3 0.990314 0.675215 0.935675
O O4 0.957907 0.834464 0.004459
O O5 0.409588 0.069121 0.796672
O O6 0.371842 0.197778 0.972090
O O7 0.427900 0.050561 0.082326
O O8 0.094086 0.136405 0.448053
O O9 0.000000 0.092954 0.250000
O O10 0.000000 0.000000 0.500000
O O11 0.678998 0.932587 0.441704
O O12 0.682040 0.060743 0.234040
O O13 0.271618 0.676976 0.393972
#
# Coordination Sequence:
#
# PCOD9456451 Si02
#       6
#     8   8   8   8   8   8
#     4  10  22  42  67  88 127 175 208 261 334 370
#     4  10  21  42  65  94 130 168 217 260 323 386
#     4   9  20  42  64  88 114 163 216 264 306 370
#     4  10  24  39  64 100 130 169 214 264 322 387
#     4  11  24  40  62  97 133 171 209 266 328 389
#     4  10  22  41  64  87 129 168 210 261 320 382
#
# _framework density 19.944542999999999
#
# number of rings (size 3 to 8) (size 9 to 14) (size 15 to 20)
#    0.000    2.000    1.667    1.500    2.333    7.333 
#    9.000    0.000    0.000    0.000    0.000    0.000 
#    0.000    0.000    0.000    0.000    0.000    0.000 
#
# Total GULP energy -268051.386742 kJ/mol
# GULP energy per Si atom -5584.403890 kJ/mol
# Density = 1.989915 g / cm^3
# Si number density = 19.944543 Si / 1000 Ang^3
#
#
#
# Elastic Constant Matrix: (Units=GPa)
#
#
# Indices 1 2 3 4 5 6 
#
# 1 148.6046 89.4968 35.0193 0.0000 0.0000 0.0000
# 2 89.4968 175.1750 43.1297 0.0000 0.0000 0.0000
# 3 35.0193 43.1297 49.4248 0.0000 0.0000 0.0000
# 4 0.0000 0.0000 0.0000 35.9439 0.0000 0.0000
# 5 0.0000 0.0000 0.0000 0.0000 13.6688 0.0000
# 6 0.0000 0.0000 0.0000 0.0000 0.0000 25.3558
#
#
#
# Elastic Compliance Matrix: (Units=1/GPa)
#
#
# Indices 1 2 3 4 5 6 
#
# 1 0.010149 -0.004349 -0.003396 0.000000 0.000000 0.000000
# 2 -0.004349 0.009134 -0.004890 0.000000 0.000000 0.000000
# 3 -0.003396 -0.004890 0.026905 0.000000 0.000000 0.000000
# 4 0.000000 0.000000 0.000000 0.027821 0.000000 0.000000
# 5 0.000000 0.000000 0.000000 0.000000 0.073159 0.000000
# 6 0.000000 0.000000 0.000000 0.000000 0.000000 0.039439
#
#
# Mechanical properties :
#
#
# Convention : Reuss Voigt Hill
#
# Bulk Modulus (GPa) = 47.80075 78.72178 63.26126
# Shear Modulus (GPa) = 22.84679 28.69760 25.77220
#
# Velocity S-wave (km/s) = 3.38822 3.79736 3.59861
# Velocity P-wave (km/s) = 6.27101 7.66698 7.00386
#
# Compressibility (1/GPa) = 0.02092018
#
# Stress axis : x y z
#
# Youngs Moduli (GPa) = 98.53616 109.47813 37.16714
#
# Poissons Ratio (x) = 0.47610 0.12621
# Poissons Ratio (y) = 0.42852 0.18173
# Poissons Ratio (z) = 0.33460 0.53530
#
# Static dielectric constant tensor:
#      x y z
#    x 1.684110 0.000000 0.000000 
#    y 0.000000 1.703030 0.000000 
#    z 0.000000 0.000000 1.745760 
# 
# From -- ./inp_files/6691.got.cif
#   From: 2010.05.17/outbox.cif.g08.bks.cpg/sg60_4_cif.got.tgz:6691.got - 2010.06.03 14:59:27.
