data_PCOD9456780
_publ_section_title
;
Structure prediction by ZEFSAII (Michael W. Deem and Ramdas Pophale) SiO2 
 PCOD9456780
Probable space group: P B C N
;
_chemical_formula_sum "Si O2"
_cell_formula_units_Z 60
_cell_length_a 9.528472
_cell_length_b 27.431034
_cell_length_c 11.650574
_cell_angle_alpha 90.000000
_cell_angle_beta 90.000000
_cell_angle_gamma 90.000000
_cell_volume 3045.178559
_symmetry_space_group_name_H-M "P B C N"
_symmetry_group_IT_number 60
_symmetry_cell_setting 'orthorhombic'
loop_
_space_group_symop_operation_xyz
x,y,z
1/2-x,1/2-y,1/2+z
1/2+x,1/2-y,-z
-x,y,1/2-z
-x,-y,-z
1/2+x,1/2+y,1/2-z
1/2-x,1/2+y,z
x,-y,1/2+z
loop_
_atom_site_type_symbol
_atom_site_label
_atom_site_fract_x
_atom_site_fract_y
_atom_site_fract_z
Si Si1 0.373521 0.880221 0.090569
Si Si2 0.234639 0.684972 0.062627
Si Si3 0.647320 0.562195 0.050599
Si Si4 0.534326 0.661275 0.126728
Si Si5 0.000000 0.704609 0.250000
Si Si6 0.323359 0.122796 0.850250
Si Si7 0.302880 0.784126 0.958527
Si Si8 0.591388 0.459609 0.134591
O O1 0.527819 0.900510 0.114214
O O2 0.321194 0.863812 0.216297
O O3 0.274267 0.919509 0.029488
O O4 0.373420 0.832145 0.012341
O O5 0.379317 0.655344 0.076292
O O6 0.119417 0.679352 0.165354
O O7 0.184832 0.668135 0.936790
O O8 0.284857 0.740672 0.048467
O O9 0.608422 0.608475 0.129634
O O10 0.666819 0.511756 0.117107
O O11 0.515931 0.551842 0.967871
O O12 0.500000 0.682130 0.250000
O O13 0.645067 0.697563 0.069253
O O14 0.102077 0.729558 0.346465
O O15 0.202337 0.083584 0.864124
O O16 0.500000 0.461020 0.250000
#
# Coordination Sequence:
#
# PCOD9456780 Si02
#       8
#     8   8   8   8   4   8   8   8
#     4  10  23  43  64  95 131 173 215 275 334 396
#     4  12  25  43  63  96 129 179 223 271 334 387
#     4  10  22  39  65  92 126 165 218 273 335 394
#     4  11  22  40  64  91 128 165 215 275 324 390
#     4  12  24  46  66  90 134 172 226 274 322 394
#     4  11  23  41  67  91 133 171 217 271 333 405
#     4  11  25  43  65  94 132 172 223 275 325 398
#     4  11  21  40  64  94 125 165 218 274 330 406
#
# _framework density 19.703277
#
# number of rings (size 3 to 8) (size 9 to 14) (size 15 to 20)
#    0.000    1.067    5.333    1.200    1.867    0.533 
#    1.200    0.000    0.000    0.000    0.000    0.000 
#    0.000    0.000    0.000    0.000    0.000    0.000 
#
# Total GULP energy -334208.748681 kJ/mol
# GULP energy per Si atom -5570.145811 kJ/mol
# Density = 1.965843 g / cm^3
# Si number density = 19.703277 Si / 1000 Ang^3
#
#
#
# Elastic Constant Matrix: (Units=GPa)
#
#
# Indices 1 2 3 4 5 6 
#
# 1 89.4905 7.3518 33.2822 0.0000 0.0000 0.0000
# 2 7.3518 57.4492 11.1643 0.0000 0.0000 0.0000
# 3 33.2822 11.1643 75.0337 0.0000 0.0000 0.0000
# 4 0.0000 0.0000 0.0000 39.6924 0.0000 0.0000
# 5 0.0000 0.0000 0.0000 0.0000 34.1370 0.0000
# 6 0.0000 0.0000 0.0000 0.0000 0.0000 20.2677
#
#
#
# Elastic Compliance Matrix: (Units=1/GPa)
#
#
# Indices 1 2 3 4 5 6 
#
# 1 0.013400 -0.000576 -0.005858 0.000000 0.000000 0.000000
# 2 -0.000576 0.017950 -0.002415 0.000000 0.000000 0.000000
# 3 -0.005858 -0.002415 0.016285 0.000000 0.000000 0.000000
# 4 0.000000 0.000000 0.000000 0.025194 0.000000 0.000000
# 5 0.000000 0.000000 0.000000 0.000000 0.029294 0.000000
# 6 0.000000 0.000000 0.000000 0.000000 0.000000 0.049339
#
#
# Mechanical properties :
#
#
# Convention : Reuss Voigt Hill
#
# Bulk Modulus (GPa) = 33.40459 36.17446 34.78952
# Shear Modulus (GPa) = 27.91109 30.16444 29.03777
#
# Velocity S-wave (km/s) = 3.76782 3.91696 3.84311
# Velocity P-wave (km/s) = 5.99327 6.23348 6.11455
#
# Compressibility (1/GPa) = 0.02993601
#
# Stress axis : x y z
#
# Youngs Moduli (GPa) = 74.62453 55.71102 61.40562
#
# Poissons Ratio (x) = 0.03211 0.35972
# Poissons Ratio (y) = 0.04301 0.14830
# Poissons Ratio (z) = 0.43716 0.13455
#
# Static dielectric constant tensor:
#      x y z
#    x 2.609150 0.000000 0.000000 
#    y 0.000000 1.661320 0.000000 
#    z 0.000000 0.000000 1.772100 
# 
# From -- ./inp_files/10348.got.cif
#   From: 2010.05.17/outbox.cif.g08.bks.cpg/sg60_6_cif.got.tgz:10348.got - 2010.06.03 14:59:27.
