data_PCOD9456363
_publ_section_title
;
Structure prediction by ZEFSAII (Michael W. Deem and Ramdas Pophale) SiO2 
 PCOD9456363
Probable space group: P B C N
;
_chemical_formula_sum "Si O2"
_cell_formula_units_Z 64
_cell_length_a 8.551248
_cell_length_b 18.885246
_cell_length_c 18.796494
_cell_angle_alpha 90.000000
_cell_angle_beta 90.000000
_cell_angle_gamma 90.000000
_cell_volume 3035.491343
_symmetry_space_group_name_H-M "P B C N"
_symmetry_group_IT_number 60
_symmetry_cell_setting 'orthorhombic'
loop_
_space_group_symop_operation_xyz
x,y,z
1/2-x,1/2-y,1/2+z
1/2+x,1/2-y,-z
-x,y,1/2-z
-x,-y,-z
1/2+x,1/2+y,1/2-z
1/2-x,1/2+y,z
x,-y,1/2+z
loop_
_atom_site_type_symbol
_atom_site_label
_atom_site_fract_x
_atom_site_fract_y
_atom_site_fract_z
Si Si1 0.625220 0.051007 0.104990
Si Si2 0.820926 0.633774 0.772630
Si Si3 0.993786 0.699798 0.056067
Si Si4 0.647968 0.746549 0.698373
Si Si5 0.820491 0.486902 0.832975
Si Si6 0.835273 0.031489 0.975817
Si Si7 0.259275 0.188368 0.568336
Si Si8 0.321475 0.383689 0.770800
O O1 0.519121 0.118443 0.081490
O O2 0.501738 0.003018 0.146219
O O3 0.761178 0.079119 0.156996
O O4 0.705983 0.017819 0.036624
O O5 0.709024 0.669164 0.715130
O O6 0.776914 0.552308 0.783110
O O7 0.792997 0.672027 0.849076
O O8 0.000000 0.641210 0.750000
O O9 0.894586 0.740779 0.116713
O O10 0.155930 0.741446 0.057896
O O11 0.913703 0.699492 0.978970
O O12 0.500000 0.761344 0.750000
O O13 0.783454 0.801421 0.719737
O O14 0.719242 0.494249 0.903686
O O15 0.787919 0.415466 0.790949
O O16 0.827012 0.116967 0.961943
O O17 0.000000 0.000000 0.000000
O O18 0.500000 0.396920 0.750000
#
# Coordination Sequence:
#
# PCOD9456363 Si02
#       8
#     8   8   8   8   8   8   8   8
#     4  10  21  41  65  88 125 169 219 258 322 388
#     4  11  24  41  60  94 133 166 213 270 324 394
#     4  10  22  41  63  92 123 169 213 272 320 385
#     4  11  22  42  65  88 127 170 212 263 328 384
#     4  11  23  41  64  93 131 171 212 264 323 392
#     4  10  22  42  62  93 130 167 218 268 318 387
#     4  10  23  41  62  95 130 164 220 268 326 386
#     4  11  22  38  63  93 121 162 215 265 313 379
#
# _framework density 21.083901999999998
#
# number of rings (size 3 to 8) (size 9 to 14) (size 15 to 20)
#    0.000    1.500    1.250    4.125    1.750    1.500 
#    6.750    0.000    0.000    0.000    0.000    0.000 
#    0.000    0.000    0.000    0.000    0.000    0.000 
#
# Total GULP energy -357732.284071 kJ/mol
# GULP energy per Si atom -5589.566939 kJ/mol
# Density = 2.103591 g / cm^3
# Si number density = 21.083902 Si / 1000 Ang^3
#
#
#
# Elastic Constant Matrix: (Units=GPa)
#
#
# Indices 1 2 3 4 5 6 
#
# 1 41.5905 2.3019 -4.3073 0.0000 0.0000 0.0000
# 2 2.3019 33.2122 -1.0833 0.0000 0.0000 0.0000
# 3 -4.3073 -1.0833 36.8842 0.0000 0.0000 0.0000
# 4 0.0000 0.0000 0.0000 12.2328 0.0000 0.0000
# 5 0.0000 0.0000 0.0000 0.0000 34.3738 0.0000
# 6 0.0000 0.0000 0.0000 0.0000 0.0000 31.3072
#
#
#
# Elastic Compliance Matrix: (Units=1/GPa)
#
#
# Indices 1 2 3 4 5 6 
#
# 1 0.024423 -0.001601 0.002805 0.000000 0.000000 0.000000
# 2 -0.001601 0.030243 0.000701 0.000000 0.000000 0.000000
# 3 0.002805 0.000701 0.027460 0.000000 0.000000 0.000000
# 4 0.000000 0.000000 0.000000 0.081747 0.000000 0.000000
# 5 0.000000 0.000000 0.000000 0.000000 0.029092 0.000000
# 6 0.000000 0.000000 0.000000 0.000000 0.000000 0.031942
#
#
# Mechanical properties :
#
#
# Convention : Reuss Voigt Hill
#
# Bulk Modulus (GPa) = 11.63649 11.72328 11.67989
# Shear Modulus (GPa) = 20.02063 23.23447 21.62755
#
# Velocity S-wave (km/s) = 3.08485 3.32324 3.20626
# Velocity P-wave (km/s) = 4.26843 4.50529 4.38846
#
# Compressibility (1/GPa) = 0.08593655
#
# Stress axis : x y z
#
# Youngs Moduli (GPa) = 40.94487 33.06526 36.41652
#
# Poissons Ratio (x) = 0.05294 -0.10215
# Poissons Ratio (y) = 0.06556 -0.02554
# Poissons Ratio (z) = -0.11485 -0.02319
#
# Static dielectric constant tensor:
#      x y z
#    x 1.752430 0.000000 0.000000 
#    y 0.000000 1.747840 0.000000 
#    z 0.000000 0.000000 1.758500 
# 
# From -- ./inp_files/19689.got.cif
#   From: 2010.05.17/outbox.cif.g08.bks.cpg/sg60_10_cif.got.tgz:19689.got - 2010.06.03 14:59:27.
