data_PCOD9456255
_publ_section_title
;
Structure prediction by ZEFSAII (Michael W. Deem and Ramdas Pophale) SiO2 
 PCOD9456255
Probable space group: P B C N
;
_chemical_formula_sum "Si O2"
_cell_formula_units_Z 48
_cell_length_a 8.668615
_cell_length_b 16.837705
_cell_length_c 14.656983
_cell_angle_alpha 90.000000
_cell_angle_beta 90.000000
_cell_angle_gamma 90.000000
_cell_volume 2139.327114
_symmetry_space_group_name_H-M "P B C N"
_symmetry_group_IT_number 60
_symmetry_cell_setting 'orthorhombic'
loop_
_space_group_symop_operation_xyz
x,y,z
1/2-x,1/2-y,1/2+z
1/2+x,1/2-y,-z
-x,y,1/2-z
-x,-y,-z
1/2+x,1/2+y,1/2-z
1/2-x,1/2+y,z
x,-y,1/2+z
loop_
_atom_site_type_symbol
_atom_site_label
_atom_site_fract_x
_atom_site_fract_y
_atom_site_fract_z
Si Si1 0.557301 0.699137 0.027852
Si Si2 0.880090 0.752031 0.323871
Si Si3 0.559112 0.837076 0.347258
Si Si4 0.648885 0.450489 0.967567
Si Si5 0.650917 0.919958 0.525300
Si Si6 0.611567 0.927896 0.826638
O O1 0.539856 0.767038 0.103926
O O2 0.408452 0.640125 0.028806
O O3 0.560628 0.738799 0.927866
O O4 0.711232 0.644769 0.040832
O O5 0.723927 0.799787 0.324843
O O6 0.846264 0.661435 0.295284
O O7 0.000000 0.784506 0.250000
O O8 0.500000 0.863660 0.250000
O O9 0.588613 0.902826 0.423849
O O10 0.776321 0.491960 0.031737
O O11 0.728766 0.462415 0.867865
O O12 0.500000 0.500000 0.000000
O O13 0.508378 0.913249 0.591655
O O14 0.500000 0.964598 0.750000
#
# Coordination Sequence:
#
# PCOD9456255 Si02
#       6
#     8   8   8   8   8   8
#     4  10  21  40  63  90 127 168 218 272 332 397
#     4  10  22  37  60  95 127 161 217 276 336 387
#     4  11  23  37  63  95 127 169 221 280 328 394
#     4  10  22  43  65  89 131 175 218 270 336 406
#     4  10  23  41  62  95 127 174 217 268 336 401
#     4  11  22  38  64  94 130 172 220 276 327 400
#
# _framework density 22.436962999999999
#
# number of rings (size 3 to 8) (size 9 to 14) (size 15 to 20)
#    0.000    1.667    3.333    0.500    4.667    2.000 
#    0.000    7.500    0.000    4.000    0.000    0.000 
#    0.000    0.000    0.000    0.000    0.000    0.000 
#
# Total GULP energy -267745.356186 kJ/mol
# GULP energy per Si atom -5578.028254 kJ/mol
# Density = 2.238590 g / cm^3
# Si number density = 22.436963 Si / 1000 Ang^3
#
#
#
# Elastic Constant Matrix: (Units=GPa)
#
#
# Indices 1 2 3 4 5 6 
#
# 1 112.1085 27.7236 58.5306 0.0000 0.0000 0.0000
# 2 27.7236 90.1699 18.4381 0.0000 0.0000 0.0000
# 3 58.5306 18.4381 123.2928 0.0000 0.0000 0.0000
# 4 0.0000 0.0000 0.0000 9.3900 0.0000 0.0000
# 5 0.0000 0.0000 0.0000 0.0000 53.6081 0.0000
# 6 0.0000 0.0000 0.0000 0.0000 0.0000 25.0441
#
#
#
# Elastic Compliance Matrix: (Units=1/GPa)
#
#
# Indices 1 2 3 4 5 6 
#
# 1 0.012468 -0.002706 -0.005514 0.000000 0.000000 0.000000
# 2 -0.002706 0.012027 -0.000514 0.000000 0.000000 0.000000
# 3 -0.005514 -0.000514 0.010805 0.000000 0.000000 0.000000
# 4 0.000000 0.000000 0.000000 0.106497 0.000000 0.000000
# 5 0.000000 0.000000 0.000000 0.000000 0.018654 0.000000
# 6 0.000000 0.000000 0.000000 0.000000 0.000000 0.039930
#
#
# Mechanical properties :
#
#
# Convention : Reuss Voigt Hill
#
# Bulk Modulus (GPa) = 56.07815 59.43954 57.75885
# Shear Modulus (GPa) = 22.34203 32.33369 27.33786
#
# Velocity S-wave (km/s) = 3.15900 3.80029 3.49439
# Velocity P-wave (km/s) = 6.19303 6.76798 6.48688
#
# Compressibility (1/GPa) = 0.01783226
#
# Stress axis : x y z
#
# Youngs Moduli (GPa) = 80.20531 83.14468 92.54604
#
# Poissons Ratio (x) = 0.22498 0.51032
# Poissons Ratio (y) = 0.21702 0.04758
# Poissons Ratio (z) = 0.44227 0.04275
#
# Static dielectric constant tensor:
#      x y z
#    x 1.951810 0.000000 0.000000 
#    y 0.000000 1.903990 0.000000 
#    z 0.000000 0.000000 1.870520 
# 
# From -- ./inp_files/15151.got.cif
#   From: 2010.05.17/outbox.cif.g08.bks.cpg/sg60_8_cif.got.tgz:15151.got - 2010.06.03 14:59:27.
