data_PCOD9456017
_publ_section_title
;
Structure prediction by ZEFSAII (Michael W. Deem and Ramdas Pophale) SiO2 
 PCOD9456017
Probable space group: P B C N
;
_chemical_formula_sum "Si O2"
_cell_formula_units_Z 56
_cell_length_a 5.189328
_cell_length_b 22.091838
_cell_length_c 24.026898
_cell_angle_alpha 90.000000
_cell_angle_beta 90.000000
_cell_angle_gamma 90.000000
_cell_volume 2754.486679
_symmetry_space_group_name_H-M "P B C N"
_symmetry_group_IT_number 60
_symmetry_cell_setting 'orthorhombic'
loop_
_space_group_symop_operation_xyz
x,y,z
1/2-x,1/2-y,1/2+z
1/2+x,1/2-y,-z
-x,y,1/2-z
-x,-y,-z
1/2+x,1/2+y,1/2-z
1/2-x,1/2+y,z
x,-y,1/2+z
loop_
_atom_site_type_symbol
_atom_site_label
_atom_site_fract_x
_atom_site_fract_y
_atom_site_fract_z
Si Si1 0.744500 0.949186 0.285939
Si Si2 0.413072 0.478519 0.607208
Si Si3 0.166366 0.681484 0.008333
Si Si4 0.887150 0.420254 0.562274
Si Si5 0.740279 0.806580 0.287928
Si Si6 0.327104 0.792016 0.085975
Si Si7 0.929022 0.908966 0.462486
O O1 0.500000 0.969251 0.250000
O O2 0.701123 0.878437 0.300734
O O3 0.000000 0.948510 0.250000
O O4 0.808158 0.993608 0.335955
O O5 0.653740 0.432162 0.605484
O O6 0.531395 0.537140 0.575179
O O7 0.152971 0.450569 0.580901
O O8 0.228386 0.740623 0.043591
O O9 0.942510 0.649252 0.044514
O O10 0.377765 0.628855 0.001198
O O11 0.104608 0.697246 0.943605
O O12 0.776368 0.441631 0.502670
O O13 0.500000 0.786991 0.250000
O O14 0.716959 0.776623 0.349399
O O15 0.000000 0.799082 0.250000
O O16 0.195772 0.856913 0.075026
#
# Coordination Sequence:
#
# PCOD9456017 Si02
#       7
#     8   8   8   8   8   8   8
#     4  10  21  38  60  92 122 156 212 267 320 371
#     4  12  23  39  65  89 129 170 204 266 320 386
#     4  11  24  40  64  98 136 174 212 269 322 403
#     4  11  25  40  59  93 132 169 208 249 317 392
#     4  10  23  41  64  94 129 166 214 271 323 380
#     4  11  23  40  66  98 134 171 216 267 335 386
#     4  11  23  39  61  98 131 167 209 259 321 394
#
# _framework density 20.330468
#
# number of rings (size 3 to 8) (size 9 to 14) (size 15 to 20)
#    0.000    1.143    4.286    1.714    6.000    1.143 
#    0.000    0.000    0.000    3.429    0.000    0.000 
#    0.000    0.000    0.000    0.000    0.000    0.000 
#
# Total GULP energy -311822.013738 kJ/mol
# GULP energy per Si atom -5568.250245 kJ/mol
# Density = 2.028420 g / cm^3
# Si number density = 20.330468 Si / 1000 Ang^3
#
#
#
# Elastic Constant Matrix: (Units=GPa)
#
#
# Indices 1 2 3 4 5 6 
#
# 1 102.4031 25.0555 29.8036 0.0000 0.0000 0.0000
# 2 25.0555 24.9564 33.7349 0.0000 0.0000 0.0000
# 3 29.8036 33.7349 109.9610 0.0000 0.0000 0.0000
# 4 0.0000 0.0000 0.0000 32.3922 0.0000 0.0000
# 5 0.0000 0.0000 0.0000 0.0000 23.2696 0.0000
# 6 0.0000 0.0000 0.0000 0.0000 0.0000 29.6899
#
#
#
# Elastic Compliance Matrix: (Units=1/GPa)
#
#
# Indices 1 2 3 4 5 6 
#
# 1 0.012988 -0.014149 0.000820 0.000000 0.000000 0.000000
# 2 -0.014149 0.083874 -0.021897 0.000000 0.000000 0.000000
# 3 0.000820 -0.021897 0.015590 0.000000 0.000000 0.000000
# 4 0.000000 0.000000 0.000000 0.030872 0.000000 0.000000
# 5 0.000000 0.000000 0.000000 0.000000 0.042974 0.000000
# 6 0.000000 0.000000 0.000000 0.000000 0.000000 0.033681
#
#
# Mechanical properties :
#
#
# Convention : Reuss Voigt Hill
#
# Bulk Modulus (GPa) = 23.80880 46.05651 34.93265
# Shear Modulus (GPa) = 16.42407 26.98545 21.70476
#
# Velocity S-wave (km/s) = 2.84536 3.64722 3.27096
# Velocity P-wave (km/s) = 4.74669 6.35920 5.61117
#
# Compressibility (1/GPa) = 0.04200128
#
# Stress axis : x y z
#
# Youngs Moduli (GPa) = 76.99133 11.92260 64.14565
#
# Poissons Ratio (x) = 0.16869 -0.05263
# Poissons Ratio (y) = 1.08935 1.40459
# Poissons Ratio (z) = -0.06316 0.26107
#
# Static dielectric constant tensor:
#      x y z
#    x 1.814960 0.000000 0.000000 
#    y 0.000000 1.730250 0.000000 
#    z 0.000000 0.000000 1.761660 
# 
# From -- ./inp_files/23681.got.cif
#   From: 2010.05.17/outbox.cif.g08.bks.cpg/sg60_12_cif.got.tgz:23681.got - 2010.06.03 14:59:27.
