data_PCOD9456967
_publ_section_title
;
Structure prediction by ZEFSAII (Michael W. Deem and Ramdas Pophale) SiO2 
 PCOD9456967
Probable space group: P B C N
;
_chemical_formula_sum "Si O2"
_cell_formula_units_Z 56
_cell_length_a 5.309272
_cell_length_b 32.676679
_cell_length_c 14.106962
_cell_angle_alpha 90.000000
_cell_angle_beta 90.000000
_cell_angle_gamma 90.000000
_cell_volume 2447.408047
_symmetry_space_group_name_H-M "P B C N"
_symmetry_group_IT_number 60
_symmetry_cell_setting 'orthorhombic'
loop_
_space_group_symop_operation_xyz
x,y,z
1/2-x,1/2-y,1/2+z
1/2+x,1/2-y,-z
-x,y,1/2-z
-x,-y,-z
1/2+x,1/2+y,1/2-z
1/2-x,1/2+y,z
x,-y,1/2+z
loop_
_atom_site_type_symbol
_atom_site_label
_atom_site_fract_x
_atom_site_fract_y
_atom_site_fract_z
Si Si1 0.250808 0.304005 0.791690
Si Si2 0.500000 0.116190 0.250000
Si Si3 0.814508 0.775002 0.501468
Si Si4 0.000000 0.991160 0.250000
Si Si5 0.712419 0.968523 0.423544
Si Si6 0.988621 0.843050 0.363840
Si Si7 0.013098 0.608622 0.863664
Si Si8 0.370832 0.042355 0.376782
O O1 0.500000 0.284519 0.750000
O O2 0.224566 0.350587 0.752049
O O3 0.262226 0.301841 0.904441
O O4 0.000000 0.283285 0.750000
O O5 0.462858 0.086003 0.338962
O O6 0.542831 0.756279 0.474352
O O7 0.934408 0.801089 0.416923
O O8 0.096364 0.963740 0.163258
O O9 0.218274 0.019925 0.293006
O O10 0.486420 0.936717 0.405119
O O11 0.802995 0.958783 0.529165
O O12 0.602133 0.013840 0.409442
O O13 0.250053 0.864246 0.392807
O O14 0.000000 0.838356 0.250000
O O15 0.751149 0.871103 0.391904
O O16 0.000000 0.605649 0.750000
#
# Coordination Sequence:
#
# PCOD9456967 Si02
#       8
#     8   4   8   4   8   8   8   8
#     4  10  25  45  72 106 147 196 243 294 372 433
#     4  10  24  44  68  96 151 194 248 307 360 442
#     4  12  26  46  77 111 145 182 236 299 362 452
#     4  12  22  42  62  94 143 178 260 307 368 428
#     4  11  25  39  66  95 141 186 253 301 372 419
#     4  10  24  44  68 102 141 182 230 279 367 431
#     4  10  22  41  66  98 138 187 230 292 349 429
#     4  11  24  43  63 101 132 196 246 305 366 424
#
# _framework density 22.881347999999999
#
# number of rings (size 3 to 8) (size 9 to 14) (size 15 to 20)
#    0.429    0.857    1.429    3.000    8.000    2.857 
#    0.000    0.000    0.000    0.000    0.000    0.000 
#    0.000    0.000    0.000    0.000    0.000    0.000 
#
# Total GULP energy -312879.955924 kJ/mol
# GULP energy per Si atom -5587.142070 kJ/mol
# Density = 2.282927 g / cm^3
# Si number density = 22.881348 Si / 1000 Ang^3
#
#
#
# Elastic Constant Matrix: (Units=GPa)
#
#
# Indices 1 2 3 4 5 6 
#
# 1 130.4114 22.5013 34.5652 0.0000 0.0000 0.0000
# 2 22.5013 41.9686 15.8747 0.0000 0.0000 0.0000
# 3 34.5652 15.8747 111.0096 0.0000 0.0000 0.0000
# 4 0.0000 0.0000 0.0000 28.6419 0.0000 0.0000
# 5 0.0000 0.0000 0.0000 0.0000 27.3201 0.0000
# 6 0.0000 0.0000 0.0000 0.0000 0.0000 4.2082
#
#
#
# Elastic Compliance Matrix: (Units=1/GPa)
#
#
# Indices 1 2 3 4 5 6 
#
# 1 0.008938 -0.003953 -0.002218 0.000000 0.000000 0.000000
# 2 -0.003953 0.026938 -0.002621 0.000000 0.000000 0.000000
# 3 -0.002218 -0.002621 0.010074 0.000000 0.000000 0.000000
# 4 0.000000 0.000000 0.000000 0.034914 0.000000 0.000000
# 5 0.000000 0.000000 0.000000 0.000000 0.036603 0.000000
# 6 0.000000 0.000000 0.000000 0.000000 0.000000 0.237628
#
#
# Mechanical properties :
#
#
# Convention : Reuss Voigt Hill
#
# Bulk Modulus (GPa) = 35.25421 47.69688 41.47555
# Shear Modulus (GPa) = 13.08438 26.06394 19.57416
#
# Velocity S-wave (km/s) = 2.39390 3.37870 2.92800
# Velocity P-wave (km/s) = 4.80436 6.00928 5.44028
#
# Compressibility (1/GPa) = 0.02836541
#
# Stress axis : x y z
#
# Youngs Moduli (GPa) = 111.88282 37.12180 99.26917
#
# Poissons Ratio (x) = 0.14675 0.22015
# Poissons Ratio (y) = 0.44229 0.26022
# Poissons Ratio (z) = 0.24812 0.09731
#
# Static dielectric constant tensor:
#      x y z
#    x 1.933160 0.000000 0.000000 
#    y 0.000000 1.880400 0.000000 
#    z 0.000000 0.000000 1.886430 
# 
# From -- ./inp_files/14140.got.cif
#   From: 2010.05.17/outbox.cif.g08.bks.cpg/sg60_8_cif.got.tgz:14140.got - 2010.06.03 14:59:27.
