data_PCOD9456427
_publ_section_title
;
Structure prediction by ZEFSAII (Michael W. Deem and Ramdas Pophale) SiO2 
 PCOD9456427
Probable space group: P B C N
;
_chemical_formula_sum "Si O2"
_cell_formula_units_Z 32
_cell_length_a 10.009980
_cell_length_b 13.310358
_cell_length_c 9.790283
_cell_angle_alpha 90.000000
_cell_angle_beta 90.000000
_cell_angle_gamma 90.000000
_cell_volume 1304.422232
_symmetry_space_group_name_H-M "P B C N"
_symmetry_group_IT_number 60
_symmetry_cell_setting 'orthorhombic'
loop_
_space_group_symop_operation_xyz
x,y,z
1/2-x,1/2-y,1/2+z
1/2+x,1/2-y,-z
-x,y,1/2-z
-x,-y,-z
1/2+x,1/2+y,1/2-z
1/2-x,1/2+y,z
x,-y,1/2+z
loop_
_atom_site_type_symbol
_atom_site_label
_atom_site_fract_x
_atom_site_fract_y
_atom_site_fract_z
Si Si1 0.859501 0.107658 0.502133
Si Si2 0.079967 0.610388 0.870153
Si Si3 0.424841 0.813402 0.894282
Si Si4 0.785006 0.946586 0.701130
O O1 0.711151 0.145420 0.548192
O O2 0.947275 0.203447 0.540360
O O3 0.848084 0.076073 0.346115
O O4 0.877281 0.010440 0.598909
O O5 0.150283 0.516896 0.789139
O O6 0.000000 0.667338 0.750000
O O7 0.975142 0.606888 0.993704
O O8 0.500000 0.815714 0.750000
O O9 0.272993 0.845367 0.862866
#
# Coordination Sequence:
#
# PCOD9456427 Si02
#       4
#     8   8   8   8
#     4  10  25  38  66  96 132 167 224 272 325 391
#     4  10  22  37  65  93 128 169 218 270 330 388
#     4  12  22  41  68  98 129 171 225 274 328 388
#     4  10  21  42  61  96 126 172 211 279 316 400
#
# _framework density 24.531935000000001
#
# number of rings (size 3 to 8) (size 9 to 14) (size 15 to 20)
#    1.500    0.000    2.500    3.000    3.500    0.000 
#    0.000    1.250    0.000    0.000    0.000    0.000 
#    0.000    0.000    0.000    0.000    0.000    0.000 
#
# Total GULP energy -178325.801614 kJ/mol
# GULP energy per Si atom -5572.681300 kJ/mol
# Density = 2.447610 g / cm^3
# Si number density = 24.531935 Si / 1000 Ang^3
#
#
#
# Elastic Constant Matrix: (Units=GPa)
#
#
# Indices 1 2 3 4 5 6 
#
# 1 62.3604 8.3556 43.1417 0.0000 0.0000 0.0000
# 2 8.3556 138.2460 93.3487 0.0000 0.0000 0.0000
# 3 43.1417 93.3487 217.3922 0.0000 0.0000 0.0000
# 4 0.0000 0.0000 0.0000 13.0327 0.0000 0.0000
# 5 0.0000 0.0000 0.0000 0.0000 27.3722 0.0000
# 6 0.0000 0.0000 0.0000 0.0000 0.0000 9.1480
#
#
#
# Elastic Compliance Matrix: (Units=1/GPa)
#
#
# Indices 1 2 3 4 5 6 
#
# 1 0.018959 0.001964 -0.004606 0.000000 0.000000 0.000000
# 2 0.001964 0.010391 -0.004852 0.000000 0.000000 0.000000
# 3 -0.004606 -0.004852 0.007597 0.000000 0.000000 0.000000
# 4 0.000000 0.000000 0.000000 0.076730 0.000000 0.000000
# 5 0.000000 0.000000 0.000000 0.000000 0.036533 0.000000
# 6 0.000000 0.000000 0.000000 0.000000 0.000000 0.109314
#
#
# Mechanical properties :
#
#
# Convention : Reuss Voigt Hill
#
# Bulk Modulus (GPa) = 45.53630 78.63228 62.08429
# Shear Modulus (GPa) = 17.74111 28.12074 22.93092
#
# Velocity S-wave (km/s) = 2.69213 3.38936 3.06066
# Velocity P-wave (km/s) = 5.31655 6.88765 6.15246
#
# Compressibility (1/GPa) = 0.02196050
#
# Stress axis : x y z
#
# Youngs Moduli (GPa) = 52.74526 96.23947 131.62555
#
# Poissons Ratio (x) = -0.18903 0.60625
# Poissons Ratio (y) = -0.10360 0.63859
# Poissons Ratio (z) = 0.24294 0.46692
#
# Static dielectric constant tensor:
#      x y z
#    x 2.000540 0.000000 0.000000 
#    y 0.000000 2.005750 0.000000 
#    z 0.000000 0.000000 1.879870 
# 
# From -- ./inp_files/4543.got.cif
#   From: 2010.05.17/outbox.cif.g08.bks.cpg/sg60_3_cif.got.tgz:4543.got - 2010.06.03 14:59:27.
