data_PCOD9456530
_publ_section_title
;
Structure prediction by ZEFSAII (Michael W. Deem and Ramdas Pophale) SiO2 
 PCOD9456530
Probable space group: P B C N
;
_chemical_formula_sum "Si O2"
_cell_formula_units_Z 48
_cell_length_a 8.995844
_cell_length_b 24.610112
_cell_length_c 11.212376
_cell_angle_alpha 90.000000
_cell_angle_beta 90.000000
_cell_angle_gamma 90.000000
_cell_volume 2482.293665
_symmetry_space_group_name_H-M "P B C N"
_symmetry_group_IT_number 60
_symmetry_cell_setting 'orthorhombic'
loop_
_space_group_symop_operation_xyz
x,y,z
1/2-x,1/2-y,1/2+z
1/2+x,1/2-y,-z
-x,y,1/2-z
-x,-y,-z
1/2+x,1/2+y,1/2-z
1/2-x,1/2+y,z
x,-y,1/2+z
loop_
_atom_site_type_symbol
_atom_site_label
_atom_site_fract_x
_atom_site_fract_y
_atom_site_fract_z
Si Si1 0.694980 0.368632 0.420876
Si Si2 0.662879 0.673548 0.188713
Si Si3 0.862658 0.892783 0.088906
Si Si4 0.659925 0.569252 0.317628
Si Si5 0.329095 0.957117 0.215872
Si Si6 0.673026 0.286676 0.218897
O O1 0.664463 0.345400 0.551420
O O2 0.536876 0.393063 0.378319
O O3 0.808869 0.417657 0.399261
O O4 0.737255 0.319742 0.332124
O O5 0.500000 0.679677 0.250000
O O6 0.733273 0.622323 0.257651
O O7 0.746510 0.730282 0.198621
O O8 0.760295 0.927680 0.176669
O O9 0.817841 0.829430 0.109055
O O10 0.856956 0.915584 0.955889
O O11 0.500000 0.561907 0.250000
O O12 0.754064 0.515026 0.304999
O O13 0.500000 0.962178 0.250000
O O14 0.500000 0.277268 0.250000
#
# Coordination Sequence:
#
# PCOD9456530 Si02
#       6
#     8   8   8   8   8   8
#     4  10  21  44  67  90 128 170 217 256 312 387
#     4  11  23  40  65  98 125 165 221 262 309 374
#     4  10  21  45  67  91 126 172 217 257 310 388
#     4  11  23  41  68  93 125 169 222 260 308 378
#     4  11  26  43  64  97 129 168 210 266 334 378
#     4   9  22  39  62  92 128 172 206 260 320 375
#
# _framework density 19.336955
#
# number of rings (size 3 to 8) (size 9 to 14) (size 15 to 20)
#    0.000    1.667    3.333    2.500    4.667    5.333 
#    3.000    0.000    0.000    0.000    0.000    0.000 
#    0.000    0.000    0.000    0.000    0.000    0.000 
#
# Total GULP energy -267802.323701 kJ/mol
# GULP energy per Si atom -5579.215077 kJ/mol
# Density = 1.929294 g / cm^3
# Si number density = 19.336955 Si / 1000 Ang^3
#
#
#
# Elastic Constant Matrix: (Units=GPa)
#
#
# Indices 1 2 3 4 5 6 
#
# 1 82.1469 89.8038 51.5418 0.0000 0.0000 0.0000
# 2 89.8038 195.6234 69.2905 0.0000 0.0000 0.0000
# 3 51.5418 69.2905 141.0214 0.0000 0.0000 0.0000
# 4 0.0000 0.0000 0.0000 20.7642 0.0000 0.0000
# 5 0.0000 0.0000 0.0000 0.0000 12.7157 0.0000
# 6 0.0000 0.0000 0.0000 0.0000 0.0000 36.3390
#
#
#
# Elastic Compliance Matrix: (Units=1/GPa)
#
#
# Indices 1 2 3 4 5 6 
#
# 1 0.026611 -0.010619 -0.004508 0.000000 0.000000 0.000000
# 2 -0.010619 0.010427 -0.001242 0.000000 0.000000 0.000000
# 3 -0.004508 -0.001242 0.009349 0.000000 0.000000 0.000000
# 4 0.000000 0.000000 0.000000 0.048160 0.000000 0.000000
# 5 0.000000 0.000000 0.000000 0.000000 0.078643 0.000000
# 6 0.000000 0.000000 0.000000 0.000000 0.000000 0.027519
#
#
# Mechanical properties :
#
#
# Convention : Reuss Voigt Hill
#
# Bulk Modulus (GPa) = 73.27158 93.34041 83.30600
# Shear Modulus (GPa) = 21.00870 27.84083 24.42476
#
# Velocity S-wave (km/s) = 3.29971 3.79855 3.55789
# Velocity P-wave (km/s) = 7.24512 8.22277 7.74938
#
# Compressibility (1/GPa) = 0.01364786
#
# Stress axis : x y z
#
# Youngs Moduli (GPa) = 37.57812 95.90726 106.96284
#
# Poissons Ratio (x) = 1.01848 0.48222
# Poissons Ratio (y) = 0.39906 0.13283
# Poissons Ratio (z) = 0.16941 0.11910
#
# Static dielectric constant tensor:
#      x y z
#    x 1.671670 0.000000 0.000000 
#    y 0.000000 1.673370 0.000000 
#    z 0.000000 0.000000 1.745370 
# 
# From -- ./inp_files/10084.got.cif
#   From: 2010.05.17/outbox.cif.g08.bks.cpg/sg60_6_cif.got.tgz:10084.got - 2010.06.03 14:59:27.
