data_PCOD9456975
_publ_section_title
;
Structure prediction by ZEFSAII (Michael W. Deem and Ramdas Pophale) SiO2 
 PCOD9456975
Probable space group: P B C N
;
_chemical_formula_sum "Si O2"
_cell_formula_units_Z 60
_cell_length_a 27.153250
_cell_length_b 5.200988
_cell_length_c 18.478275
_cell_angle_alpha 90.000000
_cell_angle_beta 90.000000
_cell_angle_gamma 90.000000
_cell_volume 2609.570872
_symmetry_space_group_name_H-M "P B C N"
_symmetry_group_IT_number 60
_symmetry_cell_setting 'orthorhombic'
loop_
_space_group_symop_operation_xyz
x,y,z
1/2-x,1/2-y,1/2+z
1/2+x,1/2-y,-z
-x,y,1/2-z
-x,-y,-z
1/2+x,1/2+y,1/2-z
1/2-x,1/2+y,z
x,-y,1/2+z
loop_
_atom_site_type_symbol
_atom_site_label
_atom_site_fract_x
_atom_site_fract_y
_atom_site_fract_z
Si Si1 0.608007 0.597565 0.731175
Si Si2 0.560030 0.751244 0.026249
Si Si3 0.872094 0.618962 0.819790
Si Si4 0.619418 0.262221 0.063651
Si Si5 0.232119 0.866138 0.451592
Si Si6 0.727261 0.047587 0.386542
Si Si7 0.500000 0.291708 0.250000
Si Si8 0.973308 0.451258 0.386820
O O1 0.635614 0.353430 0.764708
O O2 0.618566 0.661025 0.648127
O O3 0.549486 0.546732 0.739942
O O4 0.618899 0.854844 0.776519
O O5 0.585278 0.475012 0.025219
O O6 0.598181 0.976752 0.050785
O O7 0.514445 0.761838 0.081830
O O8 0.539298 0.843529 0.949498
O O9 0.826413 0.563699 0.872151
O O10 0.921711 0.674543 0.864530
O O11 0.675385 0.298408 0.038462
O O12 0.260372 0.636579 0.412488
O O13 0.259329 0.915148 0.528767
O O14 0.735776 0.331737 0.355622
O O15 0.494602 0.107074 0.180831
#
# Coordination Sequence:
#
# PCOD9456975 Si02
#       8
#     8   8   8   8   8   8   4   8
#     4  11  25  43  69 101 143 190 224 277 346 417
#     4  11  26  43  67 107 142 183 227 292 342 408
#     4  11  25  42  69 102 137 177 241 275 346 414
#     4  12  25  45  72  99 147 178 234 287 349 422
#     4  10  23  42  69  98 124 178 226 282 355 403
#     4  10  22  41  67  97 129 168 227 293 346 389
#     4  10  22  46  68 102 146 192 234 274 340 432
#     4  10  25  43  70 104 143 187 229 283 347 414
#
# _framework density 22.992287000000001
#
# number of rings (size 3 to 8) (size 9 to 14) (size 15 to 20)
#    0.000    1.333    1.333    2.400   11.200    4.800 
#    0.000    4.000    0.000    0.000    0.000    0.000 
#    0.000    0.000    0.000    0.000    0.000    0.000 
#
# Total GULP energy -335837.934509 kJ/mol
# GULP energy per Si atom -5597.298908 kJ/mol
# Density = 2.293996 g / cm^3
# Si number density = 22.992287 Si / 1000 Ang^3
#
#
#
# Elastic Constant Matrix: (Units=GPa)
#
#
# Indices 1 2 3 4 5 6 
#
# 1 115.1014 17.8540 22.5612 0.0000 0.0000 0.0000
# 2 17.8540 116.2969 6.1908 0.0000 0.0000 0.0000
# 3 22.5612 6.1908 84.9989 0.0000 0.0000 0.0000
# 4 0.0000 0.0000 0.0000 2.7996 0.0000 0.0000
# 5 0.0000 0.0000 0.0000 0.0000 22.9963 0.0000
# 6 0.0000 0.0000 0.0000 0.0000 0.0000 -62.3849
#
#
#
# Elastic Compliance Matrix: (Units=1/GPa)
#
#
# Indices 1 2 3 4 5 6 
#
# 1 0.009359 -0.001310 -0.002389 0.000000 0.000000 0.000000
# 2 -0.001310 0.008815 -0.000294 0.000000 0.000000 0.000000
# 3 -0.002389 -0.000294 0.012420 0.000000 0.000000 0.000000
# 4 0.000000 0.000000 0.000000 0.357198 0.000000 0.000000
# 5 0.000000 0.000000 0.000000 0.000000 0.043485 0.000000
# 6 0.000000 0.000000 0.000000 0.000000 0.000000 -0.016030
#
#
# Mechanical properties :
#
#
# Convention : Reuss Voigt Hill
#
# Bulk Modulus (GPa) = 44.22980 45.51216 44.87098
# Shear Modulus (GPa) = 11.60708 10.66827 11.13767
#
# Velocity S-wave (km/s) = 2.24927 2.15639 2.20332
# Velocity P-wave (km/s) = 5.10139 5.10270 5.10204
#
# Compressibility (1/GPa) = 0.02260919
#
# Stress axis : x y z
#
# Youngs Moduli (GPa) = 106.84456 113.43760 80.51286
#
# Poissons Ratio (x) = 0.14857 0.19233
# Poissons Ratio (y) = 0.13993 0.02371
# Poissons Ratio (z) = 0.25524 0.03340
#
# Static dielectric constant tensor:
#      x y z
#    x 1.864800 0.000000 0.000000 
#    y 0.000000 1.937310 0.000000 
#    z 0.000000 0.000000 1.887930 
# 
# From -- ./inp_files/21221.got.cif
#   From: 2010.05.17/outbox.cif.g08.bks.cpg/sg60_11_cif.got.tgz:21221.got - 2010.06.03 14:59:27.
