data_PCOD9456443
_publ_section_title
;
Structure prediction by ZEFSAII (Michael W. Deem and Ramdas Pophale) SiO2 
 PCOD9456443
Probable space group: P B C N
;
_chemical_formula_sum "Si O2"
_cell_formula_units_Z 40
_cell_length_a 10.092527
_cell_length_b 22.559586
_cell_length_c 7.287881
_cell_angle_alpha 90.000000
_cell_angle_beta 90.000000
_cell_angle_gamma 90.000000
_cell_volume 1659.328292
_symmetry_space_group_name_H-M "P B C N"
_symmetry_group_IT_number 60
_symmetry_cell_setting 'orthorhombic'
loop_
_space_group_symop_operation_xyz
x,y,z
1/2-x,1/2-y,1/2+z
1/2+x,1/2-y,-z
-x,y,1/2-z
-x,-y,-z
1/2+x,1/2+y,1/2-z
1/2-x,1/2+y,z
x,-y,1/2+z
loop_
_atom_site_type_symbol
_atom_site_label
_atom_site_fract_x
_atom_site_fract_y
_atom_site_fract_z
Si Si1 0.785675 0.076409 0.303613
Si Si2 0.098100 0.320750 0.078775
Si Si3 0.000000 0.405725 0.750000
Si Si4 0.143006 0.887573 0.109226
Si Si5 0.083808 0.187729 0.062258
Si Si6 0.500000 0.490163 0.250000
O O1 0.631799 0.058188 0.312950
O O2 0.799355 0.141860 0.390513
O O3 0.820492 0.082028 0.086817
O O4 0.910824 0.036465 0.370542
O O5 0.235064 0.346260 0.155328
O O6 0.120614 0.253893 0.005308
O O7 0.000000 0.320107 0.250000
O O8 0.046210 0.363468 0.917365
O O9 0.117031 0.940253 0.251490
O O10 0.018299 0.845798 0.067906
O O11 0.000000 0.193348 0.250000
#
# Coordination Sequence:
#
# PCOD9456443 Si02
#       6
#     8   8   4   8   8   4
#     4  10  21  42  64  93 134 181 219 290 335 394
#     4  10  23  44  65 101 141 172 223 287 338 413
#     4  10  24  43  68  96 137 184 222 274 366 392
#     4  10  22  40  63  98 126 177 235 268 341 408
#     4   9  19  39  64  91 131 172 216 278 337 391
#     4  12  22  41  68  94 135 176 242 278 320 416
#
# _framework density 24.10614
#
# number of rings (size 3 to 8) (size 9 to 14) (size 15 to 20)
#    0.000    2.000    3.000    0.600    2.800    2.400 
#    9.000    2.000    0.000    0.000    0.000    0.000 
#    0.000    0.000    0.000    0.000    0.000    0.000 
#
# Total GULP energy -222959.358255 kJ/mol
# GULP energy per Si atom -5573.983956 kJ/mol
# Density = 2.405127 g / cm^3
# Si number density = 24.106140 Si / 1000 Ang^3
#
#
#
# Elastic Constant Matrix: (Units=GPa)
#
#
# Indices 1 2 3 4 5 6 
#
# 1 173.2494 54.2575 7.7931 0.0000 0.0000 0.0000
# 2 54.2575 110.5841 20.7397 0.0000 0.0000 0.0000
# 3 7.7931 20.7397 102.9645 0.0000 0.0000 0.0000
# 4 0.0000 0.0000 0.0000 35.9354 0.0000 0.0000
# 5 0.0000 0.0000 0.0000 0.0000 19.0611 0.0000
# 6 0.0000 0.0000 0.0000 0.0000 0.0000 28.6527
#
#
#
# Elastic Compliance Matrix: (Units=1/GPa)
#
#
# Indices 1 2 3 4 5 6 
#
# 1 0.006823 -0.003378 0.000164 0.000000 0.000000 0.000000
# 2 -0.003378 0.011071 -0.001974 0.000000 0.000000 0.000000
# 3 0.000164 -0.001974 0.010097 0.000000 0.000000 0.000000
# 4 0.000000 0.000000 0.000000 0.027828 0.000000 0.000000
# 5 0.000000 0.000000 0.000000 0.000000 0.052463 0.000000
# 6 0.000000 0.000000 0.000000 0.000000 0.000000 0.034901
#
#
# Mechanical properties :
#
#
# Convention : Reuss Voigt Hill
#
# Bulk Modulus (GPa) = 56.77360 61.37541 59.07451
# Shear Modulus (GPa) = 31.36169 36.99700 34.17935
#
# Velocity S-wave (km/s) = 3.61083 3.92184 3.76955
# Velocity P-wave (km/s) = 6.40209 6.78407 6.59584
#
# Compressibility (1/GPa) = 0.01761382
#
# Stress axis : x y z
#
# Youngs Moduli (GPa) = 146.57093 90.32869 99.03610
#
# Poissons Ratio (x) = 0.30515 -0.01625
# Poissons Ratio (y) = 0.49516 0.19552
# Poissons Ratio (z) = -0.02405 0.17833
#
# Static dielectric constant tensor:
#      x y z
#    x 2.078300 0.000000 0.000000 
#    y 0.000000 1.937050 0.000000 
#    z 0.000000 0.000000 2.289140 
# 
# From -- ./inp_files/3921.got.cif
#   From: 2010.05.17/outbox.cif.g08.bks.cpg/sg60_2_cif.got.tgz:3921.got - 2010.06.03 14:59:27.
