data_PCOD9456209
_publ_section_title
;
Structure prediction by ZEFSAII (Michael W. Deem and Ramdas Pophale) SiO2 
 PCOD9456209
Probable space group: P B C N
;
_chemical_formula_sum "Si O2"
_cell_formula_units_Z 36
_cell_length_a 6.256353
_cell_length_b 16.661672
_cell_length_c 18.204064
_cell_angle_alpha 90.000000
_cell_angle_beta 90.000000
_cell_angle_gamma 90.000000
_cell_volume 1897.615326
_symmetry_space_group_name_H-M "P B C N"
_symmetry_group_IT_number 60
_symmetry_cell_setting 'orthorhombic'
loop_
_space_group_symop_operation_xyz
x,y,z
1/2-x,1/2-y,1/2+z
1/2+x,1/2-y,-z
-x,y,1/2-z
-x,-y,-z
1/2+x,1/2+y,1/2-z
1/2-x,1/2+y,z
x,-y,1/2+z
loop_
_atom_site_type_symbol
_atom_site_label
_atom_site_fract_x
_atom_site_fract_y
_atom_site_fract_z
Si Si1 0.798455 0.499689 0.946763
Si Si2 0.729523 0.764960 0.110590
Si Si3 0.007216 0.862147 0.511515
Si Si4 0.380173 0.885490 0.175154
Si Si5 0.500000 0.708708 0.750000
O O1 0.692767 0.412615 0.948738
O O2 0.857036 0.531705 0.867268
O O3 0.638772 0.569227 0.975235
O O4 0.000000 0.500000 0.000000
O O5 0.629092 0.689208 0.068971
O O6 0.531763 0.825199 0.128608
O O7 0.851155 0.748226 0.188228
O O8 0.888801 0.807360 0.052164
O O9 0.500000 0.900848 0.250000
O O10 0.158464 0.844498 0.199461
#
# Coordination Sequence:
#
# PCOD9456209 Si02
#       5
#     8   8   8   8   4
#     4  11  22  41  63  97 124 165 213 270 326 383
#     4  11  22  40  65  97 123 175 216 269 322 396
#     4  11  24  36  69  94 128 162 218 270 325 384
#     4  10  21  39  68  88 124 171 215 259 323 394
#     4  10  22  40  68  88 128 172 218 258 328 392
#
# _framework density 18.97118
#
# number of rings (size 3 to 8) (size 9 to 14) (size 15 to 20)
#    0.000    1.333    4.444    1.333    0.000    0.000 
#    0.000    0.000   31.778    0.000    0.000    0.000 
#    0.000    0.000    0.000    0.000    0.000    0.000 
#
# Total GULP energy -200890.829158 kJ/mol
# GULP energy per Si atom -5580.300810 kJ/mol
# Density = 1.892800 g / cm^3
# Si number density = 18.971180 Si / 1000 Ang^3
#
#
#
# Elastic Constant Matrix: (Units=GPa)
#
#
# Indices 1 2 3 4 5 6 
#
# 1 86.8987 28.2462 27.1087 0.0000 0.0000 0.0000
# 2 28.2462 79.4361 48.3815 0.0000 0.0000 0.0000
# 3 27.1087 48.3815 87.6097 0.0000 0.0000 0.0000
# 4 0.0000 0.0000 0.0000 36.2264 0.0000 0.0000
# 5 0.0000 0.0000 0.0000 0.0000 36.7588 0.0000
# 6 0.0000 0.0000 0.0000 0.0000 0.0000 34.0217
#
#
#
# Elastic Compliance Matrix: (Units=1/GPa)
#
#
# Indices 1 2 3 4 5 6 
#
# 1 0.013304 -0.003350 -0.002266 0.000000 0.000000 0.000000
# 2 -0.003350 0.019813 -0.009905 0.000000 0.000000 0.000000
# 3 -0.002266 -0.009905 0.017585 0.000000 0.000000 0.000000
# 4 0.000000 0.000000 0.000000 0.027604 0.000000 0.000000
# 5 0.000000 0.000000 0.000000 0.000000 0.027204 0.000000
# 6 0.000000 0.000000 0.000000 0.000000 0.000000 0.029393
#
#
# Mechanical properties :
#
#
# Convention : Reuss Voigt Hill
#
# Bulk Modulus (GPa) = 50.86716 51.26857 51.06786
# Shear Modulus (GPa) = 28.98580 31.41527 30.20054
#
# Velocity S-wave (km/s) = 3.91306 4.07375 3.99421
# Velocity P-wave (km/s) = 6.87656 7.01501 6.94613
#
# Compressibility (1/GPa) = 0.01965905
#
# Stress axis : x y z
#
# Youngs Moduli (GPa) = 75.16737 50.47313 56.86587
#
# Poissons Ratio (x) = 0.16910 0.12888
# Poissons Ratio (y) = 0.25183 0.56323
# Poissons Ratio (z) = 0.17036 0.49992
#
# Static dielectric constant tensor:
#      x y z
#    x 1.724410 0.000000 0.000000 
#    y 0.000000 1.638450 0.000000 
#    z 0.000000 0.000000 1.663510 
# 
# From -- ./inp_files/18499.got.cif
#   From: 2010.05.17/outbox.cif.g08.bks.cpg/sg60_10_cif.got.tgz:18499.got - 2010.06.03 14:59:27.
