data_PCOD9456349
_publ_section_title
;
Structure prediction by ZEFSAII (Michael W. Deem and Ramdas Pophale) SiO2 
 PCOD9456349
Probable space group: P B C N
;
_chemical_formula_sum "Si O2"
_cell_formula_units_Z 40
_cell_length_a 17.945500
_cell_length_b 5.762723
_cell_length_c 17.526558
_cell_angle_alpha 90.000000
_cell_angle_beta 90.000000
_cell_angle_gamma 90.000000
_cell_volume 1812.508042
_symmetry_space_group_name_H-M "P B C N"
_symmetry_group_IT_number 60
_symmetry_cell_setting 'orthorhombic'
loop_
_space_group_symop_operation_xyz
x,y,z
1/2-x,1/2-y,1/2+z
1/2+x,1/2-y,-z
-x,y,1/2-z
-x,-y,-z
1/2+x,1/2+y,1/2-z
1/2-x,1/2+y,z
x,-y,1/2+z
loop_
_atom_site_type_symbol
_atom_site_label
_atom_site_fract_x
_atom_site_fract_y
_atom_site_fract_z
Si Si1 0.934658 0.922900 0.584877
Si Si2 0.776003 0.788716 0.801249
Si Si3 0.944172 0.349731 0.319588
Si Si4 0.525532 0.810469 0.939146
Si Si5 0.773541 0.796439 0.625289
O O1 0.931827 0.867332 0.494486
O O2 0.862125 0.823367 0.623114
O O3 0.006793 0.814298 0.625531
O O4 0.949786 0.195145 0.592437
O O5 0.745927 0.542143 0.834721
O O6 0.865587 0.763145 0.799611
O O7 0.746372 0.792547 0.713330
O O8 0.930343 0.580346 0.369638
O O9 0.000000 0.399884 0.250000
O O10 0.500000 0.000000 0.000000
O O11 0.754078 0.543458 0.590832
#
# Coordination Sequence:
#
# PCOD9456349 Si02
#       5
#     8   8   8   8   8
#     4  10  21  41  63  92 128 171 223 271 325 390
#     4  10  23  41  59  92 139 168 205 272 338 382
#     4  11  22  38  66  98 120 170 222 262 325 398
#     4   9  22  39  64  88 130 162 215 276 324 372
#     4  10  22  38  63  94 131 173 216 269 327 388
#
# _framework density 22.06887
#
# number of rings (size 3 to 8) (size 9 to 14) (size 15 to 20)
#    0.000    2.000    2.000    0.000    8.400    2.400 
#    0.000    2.000    0.000    0.000    0.000    0.000 
#    0.000    0.000    0.000    0.000    0.000    0.000 
#
# Total GULP energy -222784.607982 kJ/mol
# GULP energy per Si atom -5569.615200 kJ/mol
# Density = 2.201864 g / cm^3
# Si number density = 22.068870 Si / 1000 Ang^3
#
#
#
# Elastic Constant Matrix: (Units=GPa)
#
#
# Indices 1 2 3 4 5 6 
#
# 1 92.7607 41.4278 -2.2709 0.0000 0.0000 0.0000
# 2 41.4278 149.9944 15.4527 0.0000 0.0000 0.0000
# 3 -2.2709 15.4527 60.6932 0.0000 0.0000 0.0000
# 4 0.0000 0.0000 0.0000 12.2778 0.0000 0.0000
# 5 0.0000 0.0000 0.0000 0.0000 11.5091 0.0000
# 6 0.0000 0.0000 0.0000 0.0000 0.0000 38.7557
#
#
#
# Elastic Compliance Matrix: (Units=1/GPa)
#
#
# Indices 1 2 3 4 5 6 
#
# 1 0.012408 -0.003568 0.001373 0.000000 0.000000 0.000000
# 2 -0.003568 0.007873 -0.002138 0.000000 0.000000 0.000000
# 3 0.001373 -0.002138 0.017072 0.000000 0.000000 0.000000
# 4 0.000000 0.000000 0.000000 0.081448 0.000000 0.000000
# 5 0.000000 0.000000 0.000000 0.000000 0.086888 0.000000
# 6 0.000000 0.000000 0.000000 0.000000 0.000000 0.025803
#
#
# Mechanical properties :
#
#
# Convention : Reuss Voigt Hill
#
# Bulk Modulus (GPa) = 34.86098 45.85194 40.35646
# Shear Modulus (GPa) = 20.02249 29.09779 24.56014
#
# Velocity S-wave (km/s) = 3.01536 3.63505 3.33961
# Velocity P-wave (km/s) = 5.28715 6.20000 5.76168
#
# Compressibility (1/GPa) = 0.02868536
#
# Stress axis : x y z
#
# Youngs Moduli (GPa) = 80.59509 127.02059 58.57542
#
# Poissons Ratio (x) = 0.45326 -0.08041
# Poissons Ratio (y) = 0.28759 0.12523
# Poissons Ratio (z) = -0.11064 0.27156
#
# Static dielectric constant tensor:
#      x y z
#    x 1.799330 0.000000 0.000000 
#    y 0.000000 2.095330 0.000000 
#    z 0.000000 0.000000 1.827090 
# 
# From -- ./inp_files/20734.got.cif
#   From: 2010.05.17/outbox.cif.g08.bks.cpg/sg60_11_cif.got.tgz:20734.got - 2010.06.03 14:59:27.
