data_PCOD9456705
_publ_section_title
;
Structure prediction by ZEFSAII (Michael W. Deem and Ramdas Pophale) SiO2 
 PCOD9456705
Probable space group: P B C N
;
_chemical_formula_sum "Si O2"
_cell_formula_units_Z 64
_cell_length_a 16.996444
_cell_length_b 16.525603
_cell_length_c 10.859961
_cell_angle_alpha 90.000000
_cell_angle_beta 90.000000
_cell_angle_gamma 90.000000
_cell_volume 3050.307683
_symmetry_space_group_name_H-M "P B C N"
_symmetry_group_IT_number 60
_symmetry_cell_setting 'orthorhombic'
loop_
_space_group_symop_operation_xyz
x,y,z
1/2-x,1/2-y,1/2+z
1/2+x,1/2-y,-z
-x,y,1/2-z
-x,-y,-z
1/2+x,1/2+y,1/2-z
1/2-x,1/2+y,z
x,-y,1/2+z
loop_
_atom_site_type_symbol
_atom_site_label
_atom_site_fract_x
_atom_site_fract_y
_atom_site_fract_z
Si Si1 0.118061 0.340684 0.465520
Si Si2 0.177035 0.475887 0.653649
Si Si3 0.033891 0.577397 0.567904
Si Si4 0.802295 0.270846 0.271016
Si Si5 0.779504 0.357550 0.653371
Si Si6 0.899428 0.733162 0.010427
Si Si7 0.540315 0.305326 0.383842
Si Si8 0.306047 0.599939 0.597003
O O1 0.158363 0.412242 0.543970
O O2 0.171586 0.299505 0.363254
O O3 0.089020 0.272074 0.562943
O O4 0.044271 0.376657 0.386734
O O5 0.109061 0.544698 0.642741
O O6 0.172317 0.429365 0.783176
O O7 0.262528 0.518003 0.641040
O O8 0.062860 0.644265 0.471050
O O9 0.000000 0.500000 0.500000
O O10 0.772139 0.179619 0.261884
O O11 0.871342 0.269864 0.370772
O O12 0.736243 0.329889 0.324235
O O13 0.827282 0.278922 0.603213
O O14 0.725900 0.388587 0.542043
O O15 0.961591 0.803425 0.032566
O O16 0.500000 0.293668 0.250000
O O17 0.601056 0.380411 0.391239
#
# Coordination Sequence:
#
# PCOD9456705 Si02
#       8
#     8   8   8   8   8   8   8   8
#     4  10  22  38  65 101 135 175 212 270 341 398
#     4  11  22  39  64  96 138 178 208 267 340 395
#     4   9  19  36  54  92 134 163 198 246 325 404
#     4  11  22  40  64  96 131 167 216 272 324 387
#     4  11  23  41  65  97 135 165 225 269 328 403
#     4  10  22  40  63  94 128 167 214 268 324 391
#     4  11  22  44  68  95 127 174 226 275 323 396
#     4  11  24  41  62  98 132 175 223 269 323 407
#
# _framework density 20.981490000000001
#
# number of rings (size 3 to 8) (size 9 to 14) (size 15 to 20)
#    0.000    1.500    3.750    2.250    3.500    2.000 
#    2.250    1.250    0.000    3.000    0.000    0.000 
#    0.000    0.000    0.000    0.000    0.000    0.000 
#
# Total GULP energy -356634.851343 kJ/mol
# GULP energy per Si atom -5572.419552 kJ/mol
# Density = 2.093374 g / cm^3
# Si number density = 20.981490 Si / 1000 Ang^3
#
#
#
# Elastic Constant Matrix: (Units=GPa)
#
#
# Indices 1 2 3 4 5 6 
#
# 1 116.2799 35.1550 41.5779 0.0000 0.0000 0.0000
# 2 35.1550 48.5849 23.0686 0.0000 0.0000 0.0000
# 3 41.5779 23.0686 88.7484 0.0000 0.0000 0.0000
# 4 0.0000 0.0000 0.0000 21.9119 0.0000 0.0000
# 5 0.0000 0.0000 0.0000 0.0000 25.5324 0.0000
# 6 0.0000 0.0000 0.0000 0.0000 0.0000 45.4893
#
#
#
# Elastic Compliance Matrix: (Units=1/GPa)
#
#
# Indices 1 2 3 4 5 6 
#
# 1 0.012065 -0.006898 -0.003860 0.000000 0.000000 0.000000
# 2 -0.006898 0.027424 -0.003897 0.000000 0.000000 0.000000
# 3 -0.003860 -0.003897 0.014089 0.000000 0.000000 0.000000
# 4 0.000000 0.000000 0.000000 0.045637 0.000000 0.000000
# 5 0.000000 0.000000 0.000000 0.000000 0.039166 0.000000
# 6 0.000000 0.000000 0.000000 0.000000 0.000000 0.021983
#
#
# Mechanical properties :
#
#
# Convention : Reuss Voigt Hill
#
# Bulk Modulus (GPa) = 41.20337 50.35736 45.78036
# Shear Modulus (GPa) = 25.28284 28.84085 27.06185
#
# Velocity S-wave (km/s) = 3.47509 3.71156 3.59527
# Velocity P-wave (km/s) = 5.98183 6.51311 6.25311
#
# Compressibility (1/GPa) = 0.02426986
#
# Stress axis : x y z
#
# Youngs Moduli (GPa) = 82.88180 36.46469 70.97775
#
# Poissons Ratio (x) = 0.25152 0.27395
# Poissons Ratio (y) = 0.57169 0.27659
# Poissons Ratio (z) = 0.31989 0.14210
#
# Static dielectric constant tensor:
#      x y z
#    x 1.367540 0.000000 0.000000 
#    y 0.000000 1.764900 0.000000 
#    z 0.000000 0.000000 1.775840 
# 
# From -- ./inp_files/12543.got.cif
#   From: 2010.05.17/outbox.cif.g08.bks.cpg/sg60_7_cif.got.tgz:12543.got - 2010.06.03 14:59:27.
