data_PCOD9456920
_publ_section_title
;
Structure prediction by ZEFSAII (Michael W. Deem and Ramdas Pophale) SiO2 
 PCOD9456920
Probable space group: P B C N
;
_chemical_formula_sum "Si O2"
_cell_formula_units_Z 36
_cell_length_a 18.142291
_cell_length_b 8.382849
_cell_length_c 8.890951
_cell_angle_alpha 90.000000
_cell_angle_beta 90.000000
_cell_angle_gamma 90.000000
_cell_volume 1352.172156
_symmetry_space_group_name_H-M "P B C N"
_symmetry_group_IT_number 60
_symmetry_cell_setting 'orthorhombic'
loop_
_space_group_symop_operation_xyz
x,y,z
1/2-x,1/2-y,1/2+z
1/2+x,1/2-y,-z
-x,y,1/2-z
-x,-y,-z
1/2+x,1/2+y,1/2-z
1/2-x,1/2+y,z
x,-y,1/2+z
loop_
_atom_site_type_symbol
_atom_site_label
_atom_site_fract_x
_atom_site_fract_y
_atom_site_fract_z
Si Si1 0.245560 0.027638 0.910745
Si Si2 0.000000 0.030518 0.250000
Si Si3 0.536492 0.735947 0.972468
Si Si4 0.113112 0.574035 0.503338
Si Si5 0.243220 0.204061 0.624180
O O1 0.214707 0.137385 0.781167
O O2 0.256484 0.115037 0.072109
O O3 0.327527 0.965811 0.873042
O O4 0.203837 0.874490 0.975979
O O5 0.046434 0.905870 0.147876
O O6 0.040964 0.148508 0.365924
O O7 0.581588 0.900189 0.951635
O O8 0.452704 0.807124 0.962835
O O9 0.169017 0.665604 0.614415
#
# Coordination Sequence:
#
# PCOD9456920 Si02
#       5
#     8   4   8   8   8
#     4  10  22  41  63  94 126 171 222 270 331 386
#     4  10  24  40  60  98 136 168 212 278 320 388
#     4  10  22  44  66 100 134 168 222 266 343 402
#     4   9  24  40  74  92 134 179 218 268 336 413
#     4  10  22  41  63  94 126 171 222 270 331 386
#
# _framework density 26.623828
#
# number of rings (size 3 to 8) (size 9 to 14) (size 15 to 20)
#    1.333    0.889    0.000    1.333    6.222    1.778 
#    8.000    0.000    0.000    0.000    0.000    0.000 
#    0.000    0.000    0.000    0.000    0.000    0.000 
#
# Total GULP energy -200456.200310 kJ/mol
# GULP energy per Si atom -5568.227786 kJ/mol
# Density = 2.656323 g / cm^3
# Si number density = 26.623828 Si / 1000 Ang^3
#
#
#
# Elastic Constant Matrix: (Units=GPa)
#
#
# Indices 1 2 3 4 5 6 
#
# 1 78.6895 30.6964 16.6878 0.0000 0.0000 0.0000
# 2 30.6964 136.4391 32.1622 0.0000 0.0000 0.0000
# 3 16.6878 32.1622 111.8001 0.0000 0.0000 0.0000
# 4 0.0000 0.0000 0.0000 91.9164 0.0000 0.0000
# 5 0.0000 0.0000 0.0000 0.0000 15.1658 0.0000
# 6 0.0000 0.0000 0.0000 0.0000 0.0000 26.8542
#
#
#
# Elastic Compliance Matrix: (Units=1/GPa)
#
#
# Indices 1 2 3 4 5 6 
#
# 1 0.014099 -0.002871 -0.001279 0.000000 0.000000 0.000000
# 2 -0.002871 0.008447 -0.002001 0.000000 0.000000 0.000000
# 3 -0.001279 -0.002001 0.009711 0.000000 0.000000 0.000000
# 4 0.000000 0.000000 0.000000 0.010879 0.000000 0.000000
# 5 0.000000 0.000000 0.000000 0.000000 0.065938 0.000000
# 6 0.000000 0.000000 0.000000 0.000000 0.000000 0.037238
#
#
# Mechanical properties :
#
#
# Convention : Reuss Voigt Hill
#
# Bulk Modulus (GPa) = 50.11122 54.00240 52.05681
# Shear Modulus (GPa) = 30.25419 43.27943 36.76681
#
# Velocity S-wave (km/s) = 3.37465 4.03623 3.72018
# Velocity P-wave (km/s) = 5.83499 6.48453 6.16832
#
# Compressibility (1/GPa) = 0.01995561
#
# Stress axis : x y z
#
# Youngs Moduli (GPa) = 70.92613 118.38623 102.97413
#
# Poissons Ratio (x) = 0.33985 0.13167
# Poissons Ratio (y) = 0.20360 0.20610
# Poissons Ratio (z) = 0.09069 0.23695
#
# Static dielectric constant tensor:
#      x y z
#    x 2.104330 0.000000 0.000000 
#    y 0.000000 2.093190 0.000000 
#    z 0.000000 0.000000 2.128290 
# 
# From -- ./inp_files/8070.got.cif
#   From: 2010.05.17/outbox.cif.g08.bks.cpg/sg60_5_cif.got.tgz:8070.got - 2010.06.03 14:59:27.
