data_PCOD9456006
_publ_section_title
;
Structure prediction by ZEFSAII (Michael W. Deem and Ramdas Pophale) SiO2 
 PCOD9456006
Probable space group: P B C N
;
_chemical_formula_sum "Si O2"
_cell_formula_units_Z 40
_cell_length_a 15.767759
_cell_length_b 12.702090
_cell_length_c 8.976483
_cell_angle_alpha 90.000000
_cell_angle_beta 90.000000
_cell_angle_gamma 90.000000
_cell_volume 1797.841378
_symmetry_space_group_name_H-M "P B C N"
_symmetry_group_IT_number 60
_symmetry_cell_setting 'orthorhombic'
loop_
_space_group_symop_operation_xyz
x,y,z
1/2-x,1/2-y,1/2+z
1/2+x,1/2-y,-z
-x,y,1/2-z
-x,-y,-z
1/2+x,1/2+y,1/2-z
1/2-x,1/2+y,z
x,-y,1/2+z
loop_
_atom_site_type_symbol
_atom_site_label
_atom_site_fract_x
_atom_site_fract_y
_atom_site_fract_z
Si Si1 0.591527 0.374280 0.785909
Si Si2 0.652939 0.431560 0.095364
Si Si3 0.814183 0.399581 0.937983
Si Si4 0.230415 0.288605 0.195515
Si Si5 0.899832 0.548404 0.738214
O O1 0.500000 0.327659 0.750000
O O2 0.605831 0.483132 0.696280
O O3 0.671548 0.304359 0.737456
O O4 0.593664 0.386202 0.965491
O O5 0.701537 0.349129 0.202596
O O6 0.731893 0.467890 0.989361
O O7 0.782602 0.279748 0.923067
O O8 0.856743 0.438581 0.786175
O O9 0.878747 0.416769 0.071434
O O10 0.155027 0.371220 0.158139
O O11 0.000000 0.546610 0.750000
#
# Coordination Sequence:
#
# PCOD9456006 Si02
#       5
#     8   8   8   8   8
#     4  11  23  41  64  94 125 157 201 259 307 354
#     4  10  22  40  64  90 122 165 203 247 304 369
#     4  10  22  40  64  90 122 165 203 247 304 369
#     4  10  21  38  59  88 124 166 206 240 297 366
#     4  11  23  41  64  94 125 157 201 259 307 354
#
# _framework density 22.248904
#
# number of rings (size 3 to 8) (size 9 to 14) (size 15 to 20)
#    0.000    1.600    0.000    6.600    0.000   14.400 
#    0.000    9.000    0.000    0.000    0.000    0.000 
#    0.000    0.000    0.000    0.000    0.000    0.000 
#
# Total GULP energy -222846.653339 kJ/mol
# GULP energy per Si atom -5571.166333 kJ/mol
# Density = 2.219826 g / cm^3
# Si number density = 22.248904 Si / 1000 Ang^3
#
#
#
# Elastic Constant Matrix: (Units=GPa)
#
#
# Indices 1 2 3 4 5 6 
#
# 1 63.4178 -19.3633 5.1611 0.0000 0.0000 0.0000
# 2 -19.3633 33.2864 -3.5280 0.0000 0.0000 0.0000
# 3 5.1611 -3.5280 48.3068 0.0000 0.0000 0.0000
# 4 0.0000 0.0000 0.0000 24.2026 0.0000 0.0000
# 5 0.0000 0.0000 0.0000 0.0000 36.4591 0.0000
# 6 0.0000 0.0000 0.0000 0.0000 0.0000 13.6003
#
#
#
# Elastic Compliance Matrix: (Units=1/GPa)
#
#
# Indices 1 2 3 4 5 6 
#
# 1 0.019248 0.011065 -0.001248 0.000000 0.000000 0.000000
# 2 0.011065 0.036637 0.001494 0.000000 0.000000 0.000000
# 3 -0.001248 0.001494 0.020943 0.000000 0.000000 0.000000
# 4 0.000000 0.000000 0.000000 0.041318 0.000000 0.000000
# 5 0.000000 0.000000 0.000000 0.000000 0.027428 0.000000
# 6 0.000000 0.000000 0.000000 0.000000 0.000000 0.073528
#
#
# Mechanical properties :
#
#
# Convention : Reuss Voigt Hill
#
# Bulk Modulus (GPa) = 10.05536 12.17226 11.11381
# Shear Modulus (GPa) = 21.77390 25.70181 23.73786
#
# Velocity S-wave (km/s) = 3.13173 3.40250 3.26992
# Velocity P-wave (km/s) = 4.19599 4.57371 4.38892
#
# Compressibility (1/GPa) = 0.09944942
#
# Stress axis : x y z
#
# Youngs Moduli (GPa) = 51.95212 27.29461 47.74751
#
# Poissons Ratio (x) = -0.30201 0.05961
# Poissons Ratio (y) = -0.57484 -0.07131
# Poissons Ratio (z) = 0.06486 -0.04077
#
# Static dielectric constant tensor:
#      x y z
#    x 1.795250 0.000000 0.000000 
#    y 0.000000 1.912210 0.000000 
#    z 0.000000 0.000000 1.901170 
# 
# From -- ./inp_files/5694.got.cif
#   From: 2010.05.17/outbox.cif.g08.bks.cpg/sg60_3_cif.got.tgz:5694.got - 2010.06.03 14:59:27.
