data_PCOD9456547
_publ_section_title
;
Structure prediction by ZEFSAII (Michael W. Deem and Ramdas Pophale) SiO2 
 PCOD9456547
Probable space group: P B C N
;
_chemical_formula_sum "Si O2"
_cell_formula_units_Z 56
_cell_length_a 8.550660
_cell_length_b 12.401420
_cell_length_c 20.759900
_cell_angle_alpha 90.000000
_cell_angle_beta 90.000000
_cell_angle_gamma 90.000000
_cell_volume 2201.386562
_symmetry_space_group_name_H-M "P B C N"
_symmetry_group_IT_number 60
_symmetry_cell_setting 'orthorhombic'
loop_
_space_group_symop_operation_xyz
x,y,z
1/2-x,1/2-y,1/2+z
1/2+x,1/2-y,-z
-x,y,1/2-z
-x,-y,-z
1/2+x,1/2+y,1/2-z
1/2-x,1/2+y,z
x,-y,1/2+z
loop_
_atom_site_type_symbol
_atom_site_label
_atom_site_fract_x
_atom_site_fract_y
_atom_site_fract_z
Si Si1 0.481714 0.176878 0.364223
Si Si2 0.456021 0.579821 0.395946
Si Si3 0.241917 0.746527 0.964053
Si Si4 0.500000 0.683430 0.750000
Si Si5 0.326044 0.254092 0.611876
Si Si6 0.000000 0.454551 0.250000
Si Si7 0.342193 0.057510 0.874116
Si Si8 0.729498 0.538390 0.836893
O O1 0.397904 0.240321 0.421714
O O2 0.416042 0.233991 0.299914
O O3 0.827970 0.371252 0.373951
O O4 0.439365 0.053977 0.380642
O O5 0.364180 0.644883 0.453094
O O6 0.524456 0.684541 0.358943
O O7 0.332060 0.494562 0.369693
O O8 0.622541 0.517380 0.392028
O O9 0.156799 0.642322 0.932595
O O10 0.300824 0.729678 0.035842
O O11 0.611122 0.604220 0.790707
O O12 0.164586 0.300588 0.638674
O O13 0.899628 0.396654 0.194503
O O14 0.856776 0.514125 0.287606
#
# Coordination Sequence:
#
# PCOD9456547 Si02
#       8
#     8   8   8   4   8   4   8   8
#     4  10  22  40  65  95 132 183 231 291 362 424
#     4  11  25  44  70 102 137 188 240 293 373 439
#     4  11  24  43  68 102 141 185 241 302 364 441
#     4  10  21  44  69  96 136 182 239 294 357 436
#     4  11  24  42  67 102 141 184 243 301 363 443
#     4  12  23  42  67  94 138 184 233 304 371 438
#     4  11  24  42  65  97 139 186 242 302 365 440
#     4  11  24  43  68 100 139 186 240 304 368 444
#
# _framework density 25.438513
#
# number of rings (size 3 to 8) (size 9 to 14) (size 15 to 20)
#    0.000    1.143    0.000    6.429    0.000    6.286 
#    0.000   10.000    0.000    0.000    0.000    0.000 
#    0.000    0.000    0.000    0.000    0.000    0.000 
#
# Total GULP energy -311883.930724 kJ/mol
# GULP energy per Si atom -5569.355906 kJ/mol
# Density = 2.538061 g / cm^3
# Si number density = 25.438513 Si / 1000 Ang^3
#
#
#
# Elastic Constant Matrix: (Units=GPa)
#
#
# Indices 1 2 3 4 5 6 
#
# 1 95.2530 31.0484 22.9112 0.0000 0.0000 0.0000
# 2 31.0484 114.6410 46.6817 0.0000 0.0000 0.0000
# 3 22.9112 46.6817 112.1179 0.0000 0.0000 0.0000
# 4 0.0000 0.0000 0.0000 29.9721 0.0000 0.0000
# 5 0.0000 0.0000 0.0000 0.0000 39.1946 0.0000
# 6 0.0000 0.0000 0.0000 0.0000 0.0000 57.0423
#
#
#
# Elastic Compliance Matrix: (Units=1/GPa)
#
#
# Indices 1 2 3 4 5 6 
#
# 1 0.011667 -0.002636 -0.001287 0.000000 0.000000 0.000000
# 2 -0.002636 0.011099 -0.004083 0.000000 0.000000 0.000000
# 3 -0.001287 -0.004083 0.010882 0.000000 0.000000 0.000000
# 4 0.000000 0.000000 0.000000 0.033364 0.000000 0.000000
# 5 0.000000 0.000000 0.000000 0.000000 0.025514 0.000000
# 6 0.000000 0.000000 0.000000 0.000000 0.000000 0.017531
#
#
# Mechanical properties :
#
#
# Convention : Reuss Voigt Hill
#
# Bulk Modulus (GPa) = 56.69634 58.14382 57.42008
# Shear Modulus (GPa) = 37.89406 39.99984 38.94695
#
# Velocity S-wave (km/s) = 3.86376 3.96967 3.91707
# Velocity P-wave (km/s) = 6.49930 6.62701 6.56346
#
# Compressibility (1/GPa) = 0.01763782
#
# Stress axis : x y z
#
# Youngs Moduli (GPa) = 85.71166 90.09643 91.89498
#
# Poissons Ratio (x) = 0.23748 0.11824
# Poissons Ratio (y) = 0.22592 0.37518
# Poissons Ratio (z) = 0.11028 0.36783
#
# Static dielectric constant tensor:
#      x y z
#    x 2.113510 0.000000 0.000000 
#    y 0.000000 2.141280 0.000000 
#    z 0.000000 0.000000 2.047930 
# 
# From -- ./inp_files/22260.got.cif
#   From: 2010.05.17/outbox.cif.g08.bks.cpg/sg60_12_cif.got.tgz:22260.got - 2010.06.03 14:59:27.
