data_PCOD9456657
_publ_section_title
;
Structure prediction by ZEFSAII (Michael W. Deem and Ramdas Pophale) SiO2 
 PCOD9456657
Probable space group: P B C N
;
_chemical_formula_sum "Si O2"
_cell_formula_units_Z 36
_cell_length_a 11.160431
_cell_length_b 19.017720
_cell_length_c 7.981420
_cell_angle_alpha 90.000000
_cell_angle_beta 90.000000
_cell_angle_gamma 90.000000
_cell_volume 1694.024085
_symmetry_space_group_name_H-M "P B C N"
_symmetry_group_IT_number 60
_symmetry_cell_setting 'orthorhombic'
loop_
_space_group_symop_operation_xyz
x,y,z
1/2-x,1/2-y,1/2+z
1/2+x,1/2-y,-z
-x,y,1/2-z
-x,-y,-z
1/2+x,1/2+y,1/2-z
1/2-x,1/2+y,z
x,-y,1/2+z
loop_
_atom_site_type_symbol
_atom_site_label
_atom_site_fract_x
_atom_site_fract_y
_atom_site_fract_z
Si Si1 0.044622 0.679987 0.572132
Si Si2 0.196887 0.888864 0.153543
Si Si3 0.598019 0.060146 0.393314
Si Si4 0.000000 0.776728 0.250000
Si Si5 0.741478 0.475597 0.627173
O O1 0.174899 0.646161 0.606906
O O2 0.000000 0.710652 0.750000
O O3 0.951127 0.619027 0.516067
O O4 0.039832 0.730448 0.410618
O O5 0.205101 0.949286 0.296355
O O6 0.109084 0.826901 0.200714
O O7 0.153308 0.932743 0.990641
O O8 0.500000 0.044844 0.250000
O O9 0.647827 0.995922 0.502418
O O10 0.713270 0.074922 0.276056
#
# Coordination Sequence:
#
# PCOD9456657 Si02
#       5
#     8   8   8   4   8
#     4  12  25  44  71 101 135 180 235 292 349 398
#     4  11  25  44  70 100 134 184 226 289 346 409
#     4  11  19  34  63 104 137 166 220 299 348 385
#     4  12  30  50  64  98 148 190 234 272 338 440
#     4  10  22  37  68 103 139 172 228 287 352 405
#
# _framework density 21.251173999999999
#
# number of rings (size 3 to 8) (size 9 to 14) (size 15 to 20)
#    0.000    0.889    5.556    0.667    6.222    0.889 
#    8.000    0.000    0.000    0.000    0.000    0.000 
#    0.000    0.000    0.000    0.000    0.000    0.000 
#
# Total GULP energy -200707.812595 kJ/mol
# GULP energy per Si atom -5575.217017 kJ/mol
# Density = 2.120281 g / cm^3
# Si number density = 21.251174 Si / 1000 Ang^3
#
#
#
# Elastic Constant Matrix: (Units=GPa)
#
#
# Indices 1 2 3 4 5 6 
#
# 1 48.3575 56.3670 34.1713 0.0000 0.0000 0.0000
# 2 56.3670 114.3481 61.3599 0.0000 0.0000 0.0000
# 3 34.1713 61.3599 156.5060 0.0000 0.0000 0.0000
# 4 0.0000 0.0000 0.0000 32.9024 0.0000 0.0000
# 5 0.0000 0.0000 0.0000 0.0000 9.8069 0.0000
# 6 0.0000 0.0000 0.0000 0.0000 0.0000 25.4549
#
#
#
# Elastic Compliance Matrix: (Units=1/GPa)
#
#
# Indices 1 2 3 4 5 6 
#
# 1 0.048906 -0.023275 -0.001553 0.000000 0.000000 0.000000
# 2 -0.023275 0.022152 -0.003603 0.000000 0.000000 0.000000
# 3 -0.001553 -0.003603 0.008141 0.000000 0.000000 0.000000
# 4 0.000000 0.000000 0.000000 0.030393 0.000000 0.000000
# 5 0.000000 0.000000 0.000000 0.000000 0.101969 0.000000
# 6 0.000000 0.000000 0.000000 0.000000 0.000000 0.039285
#
#
# Mechanical properties :
#
#
# Convention : Reuss Voigt Hill
#
# Bulk Modulus (GPa) = 44.76722 69.22310 56.99516
# Shear Modulus (GPa) = 15.86527 24.78707 20.32617
#
# Velocity S-wave (km/s) = 2.73529 3.41894 3.09604
# Velocity P-wave (km/s) = 5.57559 6.94479 6.29751
#
# Compressibility (1/GPa) = 0.02233777
#
# Stress axis : x y z
#
# Youngs Moduli (GPa) = 20.44728 45.14332 122.83130
#
# Poissons Ratio (x) = 1.05069 0.19077
# Poissons Ratio (y) = 0.47590 0.44257
# Poissons Ratio (z) = 0.03176 0.16265
#
# Static dielectric constant tensor:
#      x y z
#    x 1.837390 0.000000 0.000000 
#    y 0.000000 1.754120 0.000000 
#    z 0.000000 0.000000 1.849930 
# 
# From -- ./inp_files/4767.got.cif
#   From: 2010.05.17/outbox.cif.g08.bks.cpg/sg60_3_cif.got.tgz:4767.got - 2010.06.03 14:59:27.
