data_PCOD9456941
_publ_section_title
;
Structure prediction by ZEFSAII (Michael W. Deem and Ramdas Pophale) SiO2 
 PCOD9456941
Probable space group: P B C N
;
_chemical_formula_sum "Si O2"
_cell_formula_units_Z 32
_cell_length_a 10.403450
_cell_length_b 14.232288
_cell_length_c 8.862478
_cell_angle_alpha 90.000000
_cell_angle_beta 90.000000
_cell_angle_gamma 90.000000
_cell_volume 1312.221889
_symmetry_space_group_name_H-M "P B C N"
_symmetry_group_IT_number 60
_symmetry_cell_setting 'orthorhombic'
loop_
_space_group_symop_operation_xyz
x,y,z
1/2-x,1/2-y,1/2+z
1/2+x,1/2-y,-z
-x,y,1/2-z
-x,-y,-z
1/2+x,1/2+y,1/2-z
1/2-x,1/2+y,z
x,-y,1/2+z
loop_
_atom_site_type_symbol
_atom_site_label
_atom_site_fract_x
_atom_site_fract_y
_atom_site_fract_z
Si Si1 0.500000 0.972566 0.250000
Si Si2 0.000000 0.026958 0.750000
Si Si3 0.158371 0.856527 0.441411
Si Si4 0.751864 0.047153 0.118211
Si Si5 0.692984 0.178954 0.870267
O O1 0.422080 0.896853 0.147989
O O2 0.611664 0.040291 0.189730
O O3 0.976719 0.096811 0.608889
O O4 0.128733 0.966489 0.766918
O O5 0.225446 0.819187 0.284909
O O6 0.242988 0.948671 0.475176
O O7 0.849521 0.219883 0.429661
O O8 0.769023 0.134795 0.011041
#
# Coordination Sequence:
#
# PCOD9456941 Si02
#       5
#     4   4   8   8   8
#     4  10  22  41  65 104 134 184 240 285 359 422
#     4   8  20  45  61  98 142 174 238 283 349 420
#     4   9  23  41  66 104 137 184 236 285 358 418
#     4   9  21  43  66  99 140 183 235 289 354 421
#     4  11  22  42  71 101 143 186 235 297 353 428
#
# _framework density 24.386119000000001
#
# number of rings (size 3 to 8) (size 9 to 14) (size 15 to 20)
#    1.500    1.000    0.000    0.750    0.000   10.000 
#    0.000    5.000    0.000    0.000    0.000    0.000 
#    0.000    0.000    0.000    0.000    0.000    0.000 
#
# Total GULP energy -178319.791746 kJ/mol
# GULP energy per Si atom -5572.493492 kJ/mol
# Density = 2.433061 g / cm^3
# Si number density = 24.386119 Si / 1000 Ang^3
#
#
#
# Elastic Constant Matrix: (Units=GPa)
#
#
# Indices 1 2 3 4 5 6 
#
# 1 150.2055 -3.4712 44.4152 0.0000 0.0000 0.0000
# 2 -3.4712 66.9553 35.7237 0.0000 0.0000 0.0000
# 3 44.4152 35.7237 88.1506 0.0000 0.0000 0.0000
# 4 0.0000 0.0000 0.0000 46.6374 0.0000 0.0000
# 5 0.0000 0.0000 0.0000 0.0000 23.0081 0.0000
# 6 0.0000 0.0000 0.0000 0.0000 0.0000 -3.0875
#
#
#
# Elastic Compliance Matrix: (Units=1/GPa)
#
#
# Indices 1 2 3 4 5 6 
#
# 1 0.008400 0.003437 -0.005625 0.000000 0.000000 0.000000
# 2 0.003437 0.020462 -0.010024 0.000000 0.000000 0.000000
# 3 -0.005625 -0.010024 0.018241 0.000000 0.000000 0.000000
# 4 0.000000 0.000000 0.000000 0.021442 0.000000 0.000000
# 5 0.000000 0.000000 0.000000 0.000000 0.043463 0.000000
# 6 0.000000 0.000000 0.000000 0.000000 0.000000 -0.323890
#
#
# Mechanical properties :
#
#
# Convention : Reuss Voigt Hill
#
# Bulk Modulus (GPa) = 44.09543 50.96075 47.52809
# Shear Modulus (GPa) = -27.79359 28.55453 0.38047
#
# Velocity S-wave (km/s) = -3.37965 3.42560 0.39542
# Velocity P-wave (km/s) = 1.70060 6.04890 4.44304
#
# Compressibility (1/GPa) = 0.02267809
#
# Stress axis : x y z
#
# Youngs Moduli (GPa) = 119.04218 48.87159 54.82179
#
# Poissons Ratio (x) = -0.16797 0.30840
# Poissons Ratio (y) = -0.40914 0.54953
# Poissons Ratio (z) = 0.66966 0.48989
#
# Static dielectric constant tensor:
#      x y z
#    x 1.993160 0.000000 0.000000 
#    y 0.000000 1.937870 0.000000 
#    z 0.000000 0.000000 2.089600 
# 
# From -- ./inp_files/4643.got.cif
#   From: 2010.05.17/outbox.cif.g08.bks.cpg/sg60_3_cif.got.tgz:4643.got - 2010.06.03 14:59:27.
