data_PCOD9456286
_publ_section_title
;
Structure prediction by ZEFSAII (Michael W. Deem and Ramdas Pophale) SiO2 
 PCOD9456286
Probable space group: P B C N
;
_chemical_formula_sum "Si O2"
_cell_formula_units_Z 60
_cell_length_a 13.789523
_cell_length_b 23.021633
_cell_length_c 8.646547
_cell_angle_alpha 90.000000
_cell_angle_beta 90.000000
_cell_angle_gamma 90.000000
_cell_volume 2744.909791
_symmetry_space_group_name_H-M "P B C N"
_symmetry_group_IT_number 60
_symmetry_cell_setting 'orthorhombic'
loop_
_space_group_symop_operation_xyz
x,y,z
1/2-x,1/2-y,1/2+z
1/2+x,1/2-y,-z
-x,y,1/2-z
-x,-y,-z
1/2+x,1/2+y,1/2-z
1/2-x,1/2+y,z
x,-y,1/2+z
loop_
_atom_site_type_symbol
_atom_site_label
_atom_site_fract_x
_atom_site_fract_y
_atom_site_fract_z
Si Si1 0.603337 0.585541 0.716396
Si Si2 0.767020 0.665018 0.571913
Si Si3 0.827128 0.996265 0.970871
Si Si4 0.243760 0.745488 0.665624
Si Si5 0.021427 0.630500 0.922727
Si Si6 0.194739 0.443767 0.776136
Si Si7 0.145843 0.316515 0.886138
Si Si8 0.500000 0.017328 0.750000
O O1 0.500000 0.614230 0.750000
O O2 0.689947 0.628693 0.670505
O O3 0.597877 0.539671 0.574801
O O4 0.631396 0.546764 0.863645
O O5 0.716665 0.695346 0.424993
O O6 0.805627 0.717078 0.684654
O O7 0.865492 0.631149 0.537192
O O8 0.769160 0.951443 0.864077
O O9 0.748618 0.024629 0.083128
O O10 0.343341 0.767163 0.752636
O O11 0.218919 0.699893 0.528553
O O12 0.000000 0.654203 0.750000
O O13 0.992846 0.562694 0.895593
O O14 0.958462 0.668365 0.040581
O O15 0.177620 0.377587 0.816822
O O16 0.094951 0.478011 0.749460
#
# Coordination Sequence:
#
# PCOD9456286 Si02
#       8
#     8   8   8   8   8   8   8   4
#     4  11  23  42  66  96 128 176 224 285 337 410
#     4  11  22  44  66  92 136 173 229 288 348 398
#     4  10  22  38  64  93 137 177 220 271 345 395
#     4  10  23  42  64  89 127 176 230 290 325 390
#     4  10  21  40  65  98 142 185 210 275 352 419
#     4  11  22  38  63 100 141 187 218 274 333 416
#     4  11  22  39  65  92 131 178 236 275 336 398
#     4  10  22  36  62 106 152 180 220 250 338 446
#
# _framework density 21.858643000000001
#
# number of rings (size 3 to 8) (size 9 to 14) (size 15 to 20)
#    0.400    1.067    1.333    4.400    0.000    4.800 
#    4.800    0.000    2.933    0.000    0.000    0.000 
#    0.000    0.000    0.000    0.000    0.000    0.000 
#
# Total GULP energy -334471.296789 kJ/mol
# GULP energy per Si atom -5574.521613 kJ/mol
# Density = 2.180889 g / cm^3
# Si number density = 21.858643 Si / 1000 Ang^3
#
#
#
# Elastic Constant Matrix: (Units=GPa)
#
#
# Indices 1 2 3 4 5 6 
#
# 1 119.2265 46.2955 34.8883 0.0000 0.0000 0.0000
# 2 46.2955 86.5606 21.5771 0.0000 0.0000 0.0000
# 3 34.8883 21.5771 77.7345 0.0000 0.0000 0.0000
# 4 0.0000 0.0000 0.0000 17.7820 0.0000 0.0000
# 5 0.0000 0.0000 0.0000 0.0000 12.4034 0.0000
# 6 0.0000 0.0000 0.0000 0.0000 0.0000 14.6602
#
#
#
# Elastic Compliance Matrix: (Units=1/GPa)
#
#
# Indices 1 2 3 4 5 6 
#
# 1 0.011503 -0.005227 -0.003712 0.000000 0.000000 0.000000
# 2 -0.005227 0.014787 -0.001758 0.000000 0.000000 0.000000
# 3 -0.003712 -0.001758 0.015018 0.000000 0.000000 0.000000
# 4 0.000000 0.000000 0.000000 0.056237 0.000000 0.000000
# 5 0.000000 0.000000 0.000000 0.000000 0.080623 0.000000
# 6 0.000000 0.000000 0.000000 0.000000 0.000000 0.068212
#
#
# Mechanical properties :
#
#
# Convention : Reuss Voigt Hill
#
# Bulk Modulus (GPa) = 50.21744 54.33816 52.27780
# Shear Modulus (GPa) = 18.22079 21.01985 19.62032
#
# Velocity S-wave (km/s) = 2.89030 3.10437 2.99925
# Velocity P-wave (km/s) = 5.84483 6.14511 5.99685
#
# Compressibility (1/GPa) = 0.01991340
#
# Stress axis : x y z
#
# Youngs Moduli (GPa) = 86.93204 67.62917 66.58530
#
# Poissons Ratio (x) = 0.35350 0.24716
# Poissons Ratio (y) = 0.45440 0.11708
# Poissons Ratio (z) = 0.32268 0.11892
#
# Static dielectric constant tensor:
#      x y z
#    x 1.796820 0.000000 0.000000 
#    y 0.000000 1.833360 0.000000 
#    z 0.000000 0.000000 1.868600 
# 
# From -- ./inp_files/5251.got.cif
#   From: 2010.05.17/outbox.cif.g08.bks.cpg/sg60_3_cif.got.tgz:5251.got - 2010.06.03 14:59:27.
