data_PCOD9456691
_publ_section_title
;
Structure prediction by ZEFSAII (Michael W. Deem and Ramdas Pophale) SiO2 
 PCOD9456691
Probable space group: P B C N
;
_chemical_formula_sum "Si O2"
_cell_formula_units_Z 52
_cell_length_a 19.991203
_cell_length_b 8.632810
_cell_length_c 14.542428
_cell_angle_alpha 90.000000
_cell_angle_beta 90.000000
_cell_angle_gamma 90.000000
_cell_volume 2509.735964
_symmetry_space_group_name_H-M "P B C N"
_symmetry_group_IT_number 60
_symmetry_cell_setting 'orthorhombic'
loop_
_space_group_symop_operation_xyz
x,y,z
1/2-x,1/2-y,1/2+z
1/2+x,1/2-y,-z
-x,y,1/2-z
-x,-y,-z
1/2+x,1/2+y,1/2-z
1/2-x,1/2+y,z
x,-y,1/2+z
loop_
_atom_site_type_symbol
_atom_site_label
_atom_site_fract_x
_atom_site_fract_y
_atom_site_fract_z
Si Si1 0.500000 0.811719 0.750000
Si Si2 0.431695 0.276611 0.570077
Si Si3 0.301435 0.624512 0.748580
Si Si4 0.578670 0.826667 0.083769
Si Si5 0.614813 0.848891 0.619786
Si Si6 0.087529 0.866272 0.100958
Si Si7 0.659226 0.731847 0.256741
O O1 0.558212 0.895704 0.694799
O O2 0.463500 0.711782 0.672181
O O3 0.497498 0.171512 0.585759
O O4 0.410453 0.254186 0.464809
O O5 0.439824 0.460084 0.586913
O O6 0.374582 0.239501 0.644415
O O7 0.333219 0.744001 0.823232
O O8 0.340913 0.648507 0.652272
O O9 0.223060 0.657125 0.748580
O O10 0.315555 0.442948 0.762613
O O11 0.604153 0.757522 0.178962
O O12 0.622762 0.983262 0.072704
O O13 0.591547 0.718658 0.995900
#
# Coordination Sequence:
#
# PCOD9456691 Si02
#       7
#     4   8   8   8   8   8   8
#     4  10  22  38  62  92 130 168 202 270 316 382
#     4  11  24  40  66  99 129 172 217 270 324 393
#     4  10  24  46  65  96 125 180 216 271 322 383
#     4  12  24  39  66 100 132 173 210 273 323 393
#     4  11  24  40  65  95 136 167 215 264 326 381
#     4  10  23  40  68  91 132 170 218 265 327 381
#     4  11  25  43  68  92 133 170 225 264 323 387
#
# _framework density 20.71931
#
# number of rings (size 3 to 8) (size 9 to 14) (size 15 to 20)
#    0.000    1.231    1.538    3.231    8.615    3.692 
#    0.000    3.077    0.000    0.000    0.000    0.000 
#    0.000    0.000    0.000    0.000    0.000    0.000 
#
# Total GULP energy -290016.832372 kJ/mol
# GULP energy per Si atom -5577.246776 kJ/mol
# Density = 2.067215 g / cm^3
# Si number density = 20.719310 Si / 1000 Ang^3
#
#
#
# Elastic Constant Matrix: (Units=GPa)
#
#
# Indices 1 2 3 4 5 6 
#
# 1 59.2814 -1.4494 29.1454 0.0000 0.0000 0.0000
# 2 -1.4494 56.8783 7.1505 0.0000 0.0000 0.0000
# 3 29.1454 7.1505 91.6585 0.0000 0.0000 0.0000
# 4 0.0000 0.0000 0.0000 28.4907 0.0000 0.0000
# 5 0.0000 0.0000 0.0000 0.0000 18.1420 0.0000
# 6 0.0000 0.0000 0.0000 0.0000 0.0000 26.1406
#
#
#
# Elastic Compliance Matrix: (Units=1/GPa)
#
#
# Indices 1 2 3 4 5 6 
#
# 1 0.020093 0.001328 -0.006493 0.000000 0.000000 0.000000
# 2 0.001328 0.017843 -0.001814 0.000000 0.000000 0.000000
# 3 -0.006493 -0.001814 0.013116 0.000000 0.000000 0.000000
# 4 0.000000 0.000000 0.000000 0.035099 0.000000 0.000000
# 5 0.000000 0.000000 0.000000 0.000000 0.055121 0.000000
# 6 0.000000 0.000000 0.000000 0.000000 0.000000 0.038255
#
#
# Mechanical properties :
#
#
# Convention : Reuss Voigt Hill
#
# Bulk Modulus (GPa) = 26.95782 30.83458 28.89620
# Shear Modulus (GPa) = 24.28949 26.08611 25.18780
#
# Velocity S-wave (km/s) = 3.42762 3.55212 3.49043
# Velocity P-wave (km/s) = 5.35761 5.63363 5.49735
#
# Compressibility (1/GPa) = 0.03709498
#
# Stress axis : x y z
#
# Youngs Moduli (GPa) = 49.76769 56.04333 76.24165
#
# Poissons Ratio (x) = -0.07444 0.49503
# Poissons Ratio (y) = -0.06611 0.13833
# Poissons Ratio (z) = 0.32314 0.10168
#
# Static dielectric constant tensor:
#      x y z
#    x 1.747350 0.000000 0.000000 
#    y 0.000000 1.794030 0.000000 
#    z 0.000000 0.000000 1.705700 
# 
# From -- ./inp_files/17667.got.cif
#   From: 2010.05.17/outbox.cif.g08.bks.cpg/sg60_9_cif.got.tgz:17667.got - 2010.06.03 14:59:27.
