data_PCOD9456188
_publ_section_title
;
Structure prediction by ZEFSAII (Michael W. Deem and Ramdas Pophale) SiO2 
 PCOD9456188
Probable space group: P B C N
;
_chemical_formula_sum "Si O2"
_cell_formula_units_Z 40
_cell_length_a 11.102997
_cell_length_b 18.090819
_cell_length_c 8.347542
_cell_angle_alpha 90.000000
_cell_angle_beta 90.000000
_cell_angle_gamma 90.000000
_cell_volume 1676.706561
_symmetry_space_group_name_H-M "P B C N"
_symmetry_group_IT_number 60
_symmetry_cell_setting 'orthorhombic'
loop_
_space_group_symop_operation_xyz
x,y,z
1/2-x,1/2-y,1/2+z
1/2+x,1/2-y,-z
-x,y,1/2-z
-x,-y,-z
1/2+x,1/2+y,1/2-z
1/2-x,1/2+y,z
x,-y,1/2+z
loop_
_atom_site_type_symbol
_atom_site_label
_atom_site_fract_x
_atom_site_fract_y
_atom_site_fract_z
Si Si1 0.271335 0.353891 0.236511
Si Si2 0.179714 0.538860 0.482114
Si Si3 0.678681 0.426670 0.833204
Si Si4 0.202855 0.703105 0.071437
Si Si5 0.500000 0.542531 0.750000
Si Si6 0.500000 0.108562 0.250000
O O1 0.303323 0.288670 0.113221
O O2 0.206476 0.314099 0.383965
O O3 0.389576 0.401334 0.288968
O O4 0.187985 0.410181 0.138699
O O5 0.216887 0.459327 0.549481
O O6 0.280995 0.560834 0.350276
O O7 0.060417 0.556501 0.383609
O O8 0.676139 0.339805 0.865976
O O9 0.568107 0.481617 0.861435
O O10 0.097125 0.662915 0.169662
#
# Coordination Sequence:
#
# PCOD9456188 Si02
#       6
#     8   8   8   8   4   4
#     4  11  24  42  66  96 137 179 224 280 341 413
#     4  10  22  40  62  94 128 169 220 275 333 401
#     4  10  21  39  65  97 131 168 222 281 335 402
#     4  11  23  42  65  96 136 177 226 282 339 407
#     4  10  23  44  72 100 135 178 222 276 349 412
#     4  10  23  42  64  88 127 174 222 272 341 404
#
# _framework density 23.856292
#
# number of rings (size 3 to 8) (size 9 to 14) (size 15 to 20)
#    0.000    1.600    0.000    5.400    0.000   11.200 
#    0.000    4.000    0.000    0.000    0.000    0.000 
#    0.000    0.000    0.000    0.000    0.000    0.000 
#
# Total GULP energy -223290.601084 kJ/mol
# GULP energy per Si atom -5582.265027 kJ/mol
# Density = 2.380199 g / cm^3
# Si number density = 23.856292 Si / 1000 Ang^3
#
#
#
# Elastic Constant Matrix: (Units=GPa)
#
#
# Indices 1 2 3 4 5 6 
#
# 1 91.4269 29.1782 18.3304 0.0000 0.0000 0.0000
# 2 29.1782 116.9485 5.0161 0.0000 0.0000 0.0000
# 3 18.3304 5.0161 92.5098 0.0000 0.0000 0.0000
# 4 0.0000 0.0000 0.0000 43.3369 0.0000 0.0000
# 5 0.0000 0.0000 0.0000 0.0000 37.7664 0.0000
# 6 0.0000 0.0000 0.0000 0.0000 0.0000 24.5250
#
#
#
# Elastic Compliance Matrix: (Units=1/GPa)
#
#
# Indices 1 2 3 4 5 6 
#
# 1 0.012348 -0.002983 -0.002285 0.000000 0.000000 0.000000
# 2 -0.002983 0.009291 0.000087 0.000000 0.000000 0.000000
# 3 -0.002285 0.000087 0.011258 0.000000 0.000000 0.000000
# 4 0.000000 0.000000 0.000000 0.023075 0.000000 0.000000
# 5 0.000000 0.000000 0.000000 0.000000 0.026479 0.000000
# 6 0.000000 0.000000 0.000000 0.000000 0.000000 0.040775
#
#
# Mechanical properties :
#
#
# Convention : Reuss Voigt Hill
#
# Bulk Modulus (GPa) = 44.37385 45.10385 44.73885
# Shear Modulus (GPa) = 35.43644 37.68302 36.55973
#
# Velocity S-wave (km/s) = 3.85829 3.97871 3.91896
# Velocity P-wave (km/s) = 6.20398 6.32885 6.26673
#
# Compressibility (1/GPa) = 0.02253580
#
# Stress axis : x y z
#
# Youngs Moduli (GPa) = 80.98661 107.62866 88.82827
#
# Poissons Ratio (x) = 0.32102 0.20296
# Poissons Ratio (y) = 0.24156 -0.00775
# Poissons Ratio (z) = 0.18505 -0.00939
#
# Static dielectric constant tensor:
#      x y z
#    x 2.009880 0.000000 0.000000 
#    y 0.000000 1.907870 0.000000 
#    z 0.000000 0.000000 1.965300 
# 
# From -- ./inp_files/4793.got.cif
#   From: 2010.05.17/outbox.cif.g08.bks.cpg/sg60_3_cif.got.tgz:4793.got - 2010.06.03 14:59:27.
