data_PCOD9456679
_publ_section_title
;
Structure prediction by ZEFSAII (Michael W. Deem and Ramdas Pophale) SiO2 
 PCOD9456679
Probable space group: P B C N
;
_chemical_formula_sum "Si O2"
_cell_formula_units_Z 40
_cell_length_a 11.642852
_cell_length_b 14.026798
_cell_length_c 9.981059
_cell_angle_alpha 90.000000
_cell_angle_beta 90.000000
_cell_angle_gamma 90.000000
_cell_volume 1630.026040
_symmetry_space_group_name_H-M "P B C N"
_symmetry_group_IT_number 60
_symmetry_cell_setting 'orthorhombic'
loop_
_space_group_symop_operation_xyz
x,y,z
1/2-x,1/2-y,1/2+z
1/2+x,1/2-y,-z
-x,y,1/2-z
-x,-y,-z
1/2+x,1/2+y,1/2-z
1/2-x,1/2+y,z
x,-y,1/2+z
loop_
_atom_site_type_symbol
_atom_site_label
_atom_site_fract_x
_atom_site_fract_y
_atom_site_fract_z
Si Si1 0.346939 0.720039 0.966395
Si Si2 0.554732 0.374668 0.615932
Si Si3 0.294602 0.933846 0.911557
Si Si4 0.388802 0.005023 0.665975
Si Si5 0.307351 0.208712 0.736556
O O1 0.457781 0.663323 0.015711
O O2 0.271011 0.734872 0.102077
O O3 0.356712 0.830624 0.919367
O O4 0.289164 0.672939 0.838009
O O5 0.500000 0.422095 0.750000
O O6 0.661280 0.427454 0.544777
O O7 0.615727 0.280343 0.677434
O O8 0.289604 0.960638 0.756501
O O9 0.364759 0.006030 0.008319
O O10 0.500000 0.972587 0.750000
O O11 0.378312 0.118353 0.687083
#
# Coordination Sequence:
#
# PCOD9456679 Si02
#       5
#     8   8   8   8   8
#     4   9  18  36  58  83 111 147 192 239 282 332
#     4   9  18  37  61  84 114 152 193 241 292 338
#     4  10  22  38  60  89 115 152 196 232 289 354
#     4  11  22  39  58  83 117 149 189 243 292 342
#     4   9  18  34  58  83 111 148 191 235 286 340
#
# _framework density 24.539484000000002
#
# number of rings (size 3 to 8) (size 9 to 14) (size 15 to 20)
#    0.000    2.400    0.000    3.600    0.000    4.800 
#    0.000   23.000    0.000    0.000    0.000    0.000 
#    0.000    0.000    0.000    0.000    0.000    0.000 
#
# Total GULP energy -223022.565167 kJ/mol
# GULP energy per Si atom -5575.564129 kJ/mol
# Density = 2.448363 g / cm^3
# Si number density = 24.539484 Si / 1000 Ang^3
#
#
#
# Elastic Constant Matrix: (Units=GPa)
#
#
# Indices 1 2 3 4 5 6 
#
# 1 74.5707 0.4249 8.1862 0.0000 0.0000 0.0000
# 2 0.4249 23.9563 12.7175 0.0000 0.0000 0.0000
# 3 8.1862 12.7175 62.5617 0.0000 0.0000 0.0000
# 4 0.0000 0.0000 0.0000 34.5611 0.0000 0.0000
# 5 0.0000 0.0000 0.0000 0.0000 41.0390 0.0000
# 6 0.0000 0.0000 0.0000 0.0000 0.0000 18.5751
#
#
#
# Elastic Compliance Matrix: (Units=1/GPa)
#
#
# Indices 1 2 3 4 5 6 
#
# 1 0.013619 0.000790 -0.001943 0.000000 0.000000 0.000000
# 2 0.000790 0.046838 -0.009625 0.000000 0.000000 0.000000
# 3 -0.001943 -0.009625 0.018195 0.000000 0.000000 0.000000
# 4 0.000000 0.000000 0.000000 0.028934 0.000000 0.000000
# 5 0.000000 0.000000 0.000000 0.000000 0.024367 0.000000
# 6 0.000000 0.000000 0.000000 0.000000 0.000000 0.053836
#
#
# Mechanical properties :
#
#
# Convention : Reuss Voigt Hill
#
# Bulk Modulus (GPa) = 17.51408 22.63843 20.07626
# Shear Modulus (GPa) = 22.08718 28.15238 25.11978
#
# Velocity S-wave (km/s) = 3.00337 3.39075 3.20292
# Velocity P-wave (km/s) = 4.37945 4.95731 4.67731
#
# Compressibility (1/GPa) = 0.05709693
#
# Stress axis : x y z
#
# Youngs Moduli (GPa) = 73.42771 21.35019 54.96054
#
# Poissons Ratio (x) = -0.01686 0.10676
# Poissons Ratio (y) = -0.05799 0.52897
# Poissons Ratio (z) = 0.14264 0.20549
#
# Static dielectric constant tensor:
#      x y z
#    x 2.092500 0.000000 0.000000 
#    y 0.000000 1.967730 0.000000 
#    z 0.000000 0.000000 1.980430 
# 
# From -- ./inp_files/4725.got.cif
#   From: 2010.05.17/outbox.cif.g08.bks.cpg/sg60_3_cif.got.tgz:4725.got - 2010.06.03 14:59:27.
