data_PCOD9456106
_publ_section_title
;
Structure prediction by ZEFSAII (Michael W. Deem and Ramdas Pophale) SiO2 
 PCOD9456106
Probable space group: P B C N
;
_chemical_formula_sum "Si O2"
_cell_formula_units_Z 64
_cell_length_a 8.370621
_cell_length_b 19.045624
_cell_length_c 16.440634
_cell_angle_alpha 90.000000
_cell_angle_beta 90.000000
_cell_angle_gamma 90.000000
_cell_volume 2621.026706
_symmetry_space_group_name_H-M "P B C N"
_symmetry_group_IT_number 60
_symmetry_cell_setting 'orthorhombic'
loop_
_space_group_symop_operation_xyz
x,y,z
1/2-x,1/2-y,1/2+z
1/2+x,1/2-y,-z
-x,y,1/2-z
-x,-y,-z
1/2+x,1/2+y,1/2-z
1/2-x,1/2+y,z
x,-y,1/2+z
loop_
_atom_site_type_symbol
_atom_site_label
_atom_site_fract_x
_atom_site_fract_y
_atom_site_fract_z
Si Si1 0.499674 0.792939 0.632588
Si Si2 0.503704 0.143388 0.654159
Si Si3 0.856449 0.153488 0.588064
Si Si4 0.071036 0.886357 0.964599
Si Si5 0.660060 0.218920 0.975832
Si Si6 0.569777 0.000379 0.409377
Si Si7 0.211292 0.421168 0.831658
Si Si8 0.296287 0.387742 0.656393
O O1 0.182819 0.796351 0.489206
O O2 0.524174 0.810151 0.537126
O O3 0.639025 0.841973 0.668102
O O4 0.330042 0.823200 0.658343
O O5 0.500000 0.147651 0.750000
O O6 0.689067 0.133889 0.627701
O O7 0.415398 0.208587 0.611670
O O8 0.401779 0.078695 0.618364
O O9 0.965272 0.094838 0.543958
O O10 0.956824 0.210618 0.642518
O O11 0.961234 0.867975 0.886150
O O12 0.193821 0.935090 0.915657
O O13 0.180410 0.823631 0.001484
O O14 0.500000 0.000000 0.500000
O O15 0.442585 0.029996 0.343151
O O16 0.717768 0.052490 0.401073
O O17 0.301447 0.423449 0.745911
#
# Coordination Sequence:
#
# PCOD9456106 Si02
#       8
#     8   8   8   8   8   8   8   8
#     4   8  18  36  60  86 126 179 217 264 328 402
#     4  12  24  45  73 102 132 178 232 285 340 395
#     4  10  22  42  64  90 133 177 225 265 339 403
#     4  11  21  37  66  92 127 180 222 267 335 406
#     4   9  21  40  61  92 132 171 223 267 320 412
#     4  11  22  42  73  94 131 184 234 268 338 411
#     4  10  21  39  59 102 133 163 227 288 331 383
#     4  11  21  37  63  99 135 168 223 288 339 383
#
# _framework density 24.417914
#
# number of rings (size 3 to 8) (size 9 to 14) (size 15 to 20)
#    0.750    1.000    0.000    7.125    1.750    0.000 
#    4.500    7.500    0.000    0.000    0.000    0.000 
#    0.000    0.000    0.000    0.000    0.000    0.000 
#
# Total GULP energy -356909.132245 kJ/mol
# GULP energy per Si atom -5576.705191 kJ/mol
# Density = 2.436234 g / cm^3
# Si number density = 24.417914 Si / 1000 Ang^3
#
#
#
# Elastic Constant Matrix: (Units=GPa)
#
#
# Indices 1 2 3 4 5 6 
#
# 1 90.9369 6.7367 19.5909 0.0000 0.0000 0.0000
# 2 6.7367 44.1849 5.2263 0.0000 0.0000 0.0000
# 3 19.5909 5.2263 124.5723 0.0000 0.0000 0.0000
# 4 0.0000 0.0000 0.0000 19.1102 0.0000 0.0000
# 5 0.0000 0.0000 0.0000 0.0000 30.9267 0.0000
# 6 0.0000 0.0000 0.0000 0.0000 0.0000 22.9804
#
#
#
# Elastic Compliance Matrix: (Units=1/GPa)
#
#
# Indices 1 2 3 4 5 6 
#
# 1 0.011486 -0.001545 -0.001742 0.000000 0.000000 0.000000
# 2 -0.001545 0.022953 -0.000720 0.000000 0.000000 0.000000
# 3 -0.001742 -0.000720 0.008332 0.000000 0.000000 0.000000
# 4 0.000000 0.000000 0.000000 0.052328 0.000000 0.000000
# 5 0.000000 0.000000 0.000000 0.000000 0.032334 0.000000
# 6 0.000000 0.000000 0.000000 0.000000 0.000000 0.043515
#
#
# Mechanical properties :
#
#
# Convention : Reuss Voigt Hill
#
# Bulk Modulus (GPa) = 28.77099 35.86689 32.31894
# Shear Modulus (GPa) = 26.24008 29.81280 28.02644
#
# Velocity S-wave (km/s) = 3.28170 3.49799 3.39157
# Velocity P-wave (km/s) = 5.11544 5.57092 5.34803
#
# Compressibility (1/GPa) = 0.03475723
#
# Stress axis : x y z
#
# Youngs Moduli (GPa) = 87.06022 43.56738 120.02557
#
# Poissons Ratio (x) = 0.06732 0.20903
# Poissons Ratio (y) = 0.13453 0.08641
# Poissons Ratio (z) = 0.15162 0.03137
#
# Static dielectric constant tensor:
#      x y z
#    x 2.023290 0.000000 0.000000 
#    y 0.000000 2.001130 0.000000 
#    z 0.000000 0.000000 1.969620 
# 
# From -- ./inp_files/15405.got.cif
#   From: 2010.05.17/outbox.cif.g08.bks.cpg/sg60_8_cif.got.tgz:15405.got - 2010.06.03 14:59:27.
