data_PCOD9456335
_publ_section_title
;
Structure prediction by ZEFSAII (Michael W. Deem and Ramdas Pophale) SiO2 
 PCOD9456335
Probable space group: P B C N
;
_chemical_formula_sum "Si O2"
_cell_formula_units_Z 64
_cell_length_a 22.813111
_cell_length_b 9.151615
_cell_length_c 13.916557
_cell_angle_alpha 90.000000
_cell_angle_beta 90.000000
_cell_angle_gamma 90.000000
_cell_volume 2905.454360
_symmetry_space_group_name_H-M "P B C N"
_symmetry_group_IT_number 60
_symmetry_cell_setting 'orthorhombic'
loop_
_space_group_symop_operation_xyz
x,y,z
1/2-x,1/2-y,1/2+z
1/2+x,1/2-y,-z
-x,y,1/2-z
-x,-y,-z
1/2+x,1/2+y,1/2-z
1/2-x,1/2+y,z
x,-y,1/2+z
loop_
_atom_site_type_symbol
_atom_site_label
_atom_site_fract_x
_atom_site_fract_y
_atom_site_fract_z
Si Si1 0.376990 0.149151 0.575191
Si Si2 0.517163 0.568185 0.897719
Si Si3 0.594056 0.408918 0.656801
Si Si4 0.191655 0.886942 0.987060
Si Si5 0.024118 0.375458 0.929034
Si Si6 0.854040 0.044614 0.347403
Si Si7 0.802957 0.446296 0.064172
Si Si8 0.593259 0.922118 0.210861
O O1 0.425240 0.194741 0.496096
O O2 0.343957 0.295137 0.608237
O O3 0.403336 0.081743 0.673791
O O4 0.337884 0.033701 0.518526
O O5 0.460548 0.517042 0.836682
O O6 0.519036 0.743990 0.902803
O O7 0.578197 0.499624 0.865721
O O8 0.500000 0.500000 0.000000
O O9 0.626896 0.416273 0.555435
O O10 0.645164 0.443713 0.733320
O O11 0.574226 0.241705 0.677485
O O12 0.203985 0.718891 0.969483
O O13 0.188250 0.934115 0.098072
O O14 0.240131 0.979341 0.931236
O O15 0.051467 0.457210 0.837064
O O16 0.000000 0.500000 0.000000
O O17 0.843302 0.446945 0.159899
#
# Coordination Sequence:
#
# PCOD9456335 Si02
#       8
#     8   8   8   8   8   8   8   8
#     4  10  21  41  62  89 123 160 204 250 311 364
#     4  12  21  38  62  90 126 166 203 250 301 363
#     4  10  22  41  62  90 122 160 206 252 308 365
#     4  11  22  41  63  88 120 156 204 254 310 367
#     4  11  23  37  60  87 127 166 205 248 298 361
#     4  11  23  39  64  92 123 162 204 256 306 366
#     4  10  23  40  65  88 119 160 200 257 310 369
#     4   9  22  41  62  88 124 162 201 254 308 364
#
# _framework density 22.027536000000001
#
# number of rings (size 3 to 8) (size 9 to 14) (size 15 to 20)
#    0.000    1.500    2.500    1.875    3.500    3.500 
#    2.250    2.500    0.000    0.000    0.000    0.000 
#    0.000    0.000    0.000    0.000    0.000    0.000 
#
# Total GULP energy -357728.890207 kJ/mol
# GULP energy per Si atom -5589.513909 kJ/mol
# Density = 2.197740 g / cm^3
# Si number density = 22.027536 Si / 1000 Ang^3
#
#
#
# Elastic Constant Matrix: (Units=GPa)
#
#
# Indices 1 2 3 4 5 6 
#
# 1 45.2350 30.8883 -0.9282 0.0000 0.0000 0.0000
# 2 30.8883 108.0615 14.5666 0.0000 0.0000 0.0000
# 3 -0.9282 14.5666 91.3013 0.0000 0.0000 0.0000
# 4 0.0000 0.0000 0.0000 23.3955 0.0000 0.0000
# 5 0.0000 0.0000 0.0000 0.0000 23.2032 0.0000
# 6 0.0000 0.0000 0.0000 0.0000 0.0000 28.6818
#
#
#
# Elastic Compliance Matrix: (Units=1/GPa)
#
#
# Indices 1 2 3 4 5 6 
#
# 1 0.027689 -0.008127 0.001578 0.000000 0.000000 0.000000
# 2 -0.008127 0.011843 -0.001972 0.000000 0.000000 0.000000
# 3 0.001578 -0.001972 0.011283 0.000000 0.000000 0.000000
# 4 0.000000 0.000000 0.000000 0.042743 0.000000 0.000000
# 5 0.000000 0.000000 0.000000 0.000000 0.043097 0.000000
# 6 0.000000 0.000000 0.000000 0.000000 0.000000 0.034865
#
#
# Mechanical properties :
#
#
# Convention : Reuss Voigt Hill
#
# Bulk Modulus (GPa) = 29.60975 37.07238 33.34106
# Shear Modulus (GPa) = 25.02237 28.39418 26.70828
#
# Velocity S-wave (km/s) = 3.37406 3.59420 3.48587
# Velocity P-wave (km/s) = 5.35260 5.83875 5.60095
#
# Compressibility (1/GPa) = 0.03377266
#
# Stress axis : x y z
#
# Youngs Moduli (GPa) = 36.11571 84.43854 88.62551
#
# Poissons Ratio (x) = 0.68626 -0.13986
# Poissons Ratio (y) = 0.29352 0.17478
# Poissons Ratio (z) = -0.05700 0.16652
#
# Static dielectric constant tensor:
#      x y z
#    x 1.838420 0.000000 0.000000 
#    y 0.000000 1.782260 0.000000 
#    z 0.000000 0.000000 1.785110 
# 
# From -- ./inp_files/17949.got.cif
#   From: 2010.05.17/outbox.cif.g08.bks.cpg/sg60_9_cif.got.tgz:17949.got - 2010.06.03 14:59:27.
