data_PCOD9456190
_publ_section_title
;
Structure prediction by ZEFSAII (Michael W. Deem and Ramdas Pophale) SiO2 
 PCOD9456190
Probable space group: P B C N
;
_chemical_formula_sum "Si O2"
_cell_formula_units_Z 52
_cell_length_a 15.122365
_cell_length_b 14.545912
_cell_length_c 11.115339
_cell_angle_alpha 90.000000
_cell_angle_beta 90.000000
_cell_angle_gamma 90.000000
_cell_volume 2445.025453
_symmetry_space_group_name_H-M "P B C N"
_symmetry_group_IT_number 60
_symmetry_cell_setting 'orthorhombic'
loop_
_space_group_symop_operation_xyz
x,y,z
1/2-x,1/2-y,1/2+z
1/2+x,1/2-y,-z
-x,y,1/2-z
-x,-y,-z
1/2+x,1/2+y,1/2-z
1/2-x,1/2+y,z
x,-y,1/2+z
loop_
_atom_site_type_symbol
_atom_site_label
_atom_site_fract_x
_atom_site_fract_y
_atom_site_fract_z
Si Si1 0.500000 0.936425 0.750000
Si Si2 0.331833 0.126891 0.115220
Si Si3 0.969792 0.061614 0.614904
Si Si4 0.785501 0.118115 0.713401
Si Si5 0.262366 0.330435 0.835189
Si Si6 0.852671 0.490621 0.596111
Si Si7 0.624721 0.672488 0.955385
O O1 0.581170 0.879178 0.801803
O O2 0.453083 0.992070 0.857305
O O3 0.245925 0.132117 0.199414
O O4 0.344059 0.222631 0.048331
O O5 0.335926 0.041871 0.027395
O O6 0.866427 0.083413 0.629681
O O7 0.000000 0.029568 0.750000
O O8 0.024931 0.154859 0.585824
O O9 0.000000 0.000000 0.500000
O O10 0.759912 0.222677 0.677646
O O11 0.704282 0.050072 0.691759
O O12 0.819264 0.121247 0.851083
O O13 0.187018 0.388015 0.906355
O O14 0.350476 0.355081 0.908732
#
# Coordination Sequence:
#
# PCOD9456190 Si02
#       7
#     4   8   8   8   8   8   8
#     4  10  24  38  62  96 124 170 212 258 336 380
#     4  10  22  40  64  90 128 169 218 261 322 396
#     4  10  22  42  66  93 128 173 218 272 330 393
#     4  10  22  41  63  94 125 172 215 263 326 392
#     4  10  22  38  63  95 121 171 212 261 324 389
#     4  11  22  41  65  93 131 163 216 266 319 388
#     4  10  21  39  66  88 130 165 217 264 323 382
#
# _framework density 21.267672000000001
#
# number of rings (size 3 to 8) (size 9 to 14) (size 15 to 20)
#    0.000    1.846    1.538    1.385   11.846    0.000 
#    2.769    0.000    1.692    0.000    0.000    0.000 
#    0.000    0.000    0.000    0.000    0.000    0.000 
#
# Total GULP energy -289877.212625 kJ/mol
# GULP energy per Si atom -5574.561781 kJ/mol
# Density = 2.121927 g / cm^3
# Si number density = 21.267672 Si / 1000 Ang^3
#
#
#
# Elastic Constant Matrix: (Units=GPa)
#
#
# Indices 1 2 3 4 5 6 
#
# 1 52.5806 -12.3603 10.3578 0.0000 0.0000 0.0000
# 2 -12.3603 55.4349 9.7742 0.0000 0.0000 0.0000
# 3 10.3578 9.7742 80.9110 0.0000 0.0000 0.0000
# 4 0.0000 0.0000 0.0000 25.4277 0.0000 0.0000
# 5 0.0000 0.0000 0.0000 0.0000 38.9594 0.0000
# 6 0.0000 0.0000 0.0000 0.0000 0.0000 24.4288
#
#
#
# Elastic Compliance Matrix: (Units=1/GPa)
#
#
# Indices 1 2 3 4 5 6 
#
# 1 0.020903 0.005244 -0.003309 0.000000 0.000000 0.000000
# 2 0.005244 0.019747 -0.003057 0.000000 0.000000 0.000000
# 3 -0.003309 -0.003057 0.013152 0.000000 0.000000 0.000000
# 4 0.000000 0.000000 0.000000 0.039327 0.000000 0.000000
# 5 0.000000 0.000000 0.000000 0.000000 0.025668 0.000000
# 6 0.000000 0.000000 0.000000 0.000000 0.000000 0.040935
#
#
# Mechanical properties :
#
#
# Convention : Reuss Voigt Hill
#
# Bulk Modulus (GPa) = 19.39536 22.71887 21.05712
# Shear Modulus (GPa) = 27.90748 29.84014 28.87381
#
# Velocity S-wave (km/s) = 3.62636 3.74983 3.68861
# Velocity P-wave (km/s) = 5.16463 5.42714 5.29751
#
# Compressibility (1/GPa) = 0.05155871
#
# Stress axis : x y z
#
# Youngs Moduli (GPa) = 47.83981 50.63940 76.03299
#
# Poissons Ratio (x) = -0.26557 0.25162
# Poissons Ratio (y) = -0.25088 0.23242
# Poissons Ratio (z) = 0.15832 0.15480
#
# Static dielectric constant tensor:
#      x y z
#    x 1.755040 0.000000 0.000000 
#    y 0.000000 1.802460 0.000000 
#    z 0.000000 0.000000 1.860820 
# 
# From -- ./inp_files/12494.got.cif
#   From: 2010.05.17/outbox.cif.g08.bks.cpg/sg60_7_cif.got.tgz:12494.got - 2010.06.03 14:59:27.
