data_PCOD9456079
_publ_section_title
;
Structure prediction by ZEFSAII (Michael W. Deem and Ramdas Pophale) SiO2 
 PCOD9456079
Probable space group: P B C N
;
_chemical_formula_sum "Si O2"
_cell_formula_units_Z 48
_cell_length_a 23.265170
_cell_length_b 5.848726
_cell_length_c 14.067995
_cell_angle_alpha 90.000000
_cell_angle_beta 90.000000
_cell_angle_gamma 90.000000
_cell_volume 1914.254654
_symmetry_space_group_name_H-M "P B C N"
_symmetry_group_IT_number 60
_symmetry_cell_setting 'orthorhombic'
loop_
_space_group_symop_operation_xyz
x,y,z
1/2-x,1/2-y,1/2+z
1/2+x,1/2-y,-z
-x,y,1/2-z
-x,-y,-z
1/2+x,1/2+y,1/2-z
1/2-x,1/2+y,z
x,-y,1/2+z
loop_
_atom_site_type_symbol
_atom_site_label
_atom_site_fract_x
_atom_site_fract_y
_atom_site_fract_z
Si Si1 0.577999 0.751646 0.194786
Si Si2 0.324442 0.005293 0.403307
Si Si3 0.274454 0.171846 0.227242
Si Si4 0.865495 0.271047 0.920337
Si Si5 0.081531 0.120853 0.954188
Si Si6 0.967331 0.381510 0.389640
O O1 0.564179 0.522165 0.137737
O O2 0.530526 0.926740 0.151066
O O3 0.564747 0.742306 0.305203
O O4 0.641937 0.826623 0.166054
O O5 0.276264 0.134536 0.341831
O O6 0.371781 0.196167 0.423786
O O7 0.319114 0.884255 0.505642
O O8 0.243055 0.410395 0.197442
O O9 0.336788 0.224852 0.182577
O O10 0.923701 0.415662 0.911157
O O11 0.884671 0.041224 0.971424
O O12 0.030879 0.236783 0.013968
#
# Coordination Sequence:
#
# PCOD9456079 Si02
#       6
#     8   8   8   8   8   8
#     4  10  21  38  65 100 140 182 226 275 338 414
#     4  10  24  44  68  98 138 176 228 287 350 417
#     4  12  30  48  77 102 137 180 236 298 358 420
#     4  10  24  44  68  98 138 176 228 287 350 417
#     4  10  23  38  66  94 144 178 226 278 345 414
#     4  10  21  38  65 100 140 182 226 275 338 414
#
# _framework density 25.075035
#
# number of rings (size 3 to 8) (size 9 to 14) (size 15 to 20)
#    0.000    1.667    1.667    0.500   11.667    8.667 
#    0.000    3.333    0.000    0.000    0.000    0.000 
#    0.000    0.000    0.000    0.000    0.000    0.000 
#
# Total GULP energy -268063.628087 kJ/mol
# GULP energy per Si atom -5584.658918 kJ/mol
# Density = 2.501796 g / cm^3
# Si number density = 25.075035 Si / 1000 Ang^3
#
#
#
# Elastic Constant Matrix: (Units=GPa)
#
#
# Indices 1 2 3 4 5 6 
#
# 1 48.4226 17.4888 -2.2008 0.0000 0.0000 0.0000
# 2 17.4888 68.9497 14.3657 0.0000 0.0000 0.0000
# 3 -2.2008 14.3657 95.6188 0.0000 0.0000 0.0000
# 4 0.0000 0.0000 0.0000 29.7016 0.0000 0.0000
# 5 0.0000 0.0000 0.0000 0.0000 50.0363 0.0000
# 6 0.0000 0.0000 0.0000 0.0000 0.0000 19.4135
#
#
#
# Elastic Compliance Matrix: (Units=1/GPa)
#
#
# Indices 1 2 3 4 5 6 
#
# 1 0.022926 -0.006117 0.001447 0.000000 0.000000 0.000000
# 2 -0.006117 0.016604 -0.002635 0.000000 0.000000 0.000000
# 3 0.001447 -0.002635 0.010887 0.000000 0.000000 0.000000
# 4 0.000000 0.000000 0.000000 0.033668 0.000000 0.000000
# 5 0.000000 0.000000 0.000000 0.000000 0.019985 0.000000
# 6 0.000000 0.000000 0.000000 0.000000 0.000000 0.051511
#
#
# Mechanical properties :
#
#
# Convention : Reuss Voigt Hill
#
# Bulk Modulus (GPa) = 27.92743 30.25539 29.09141
# Shear Modulus (GPa) = 27.45318 32.05276 29.75297
#
# Velocity S-wave (km/s) = 3.31243 3.57917 3.44838
# Velocity P-wave (km/s) = 5.07851 5.40118 5.24233
#
# Compressibility (1/GPa) = 0.03580709
#
# Stress axis : x y z
#
# Youngs Moduli (GPa) = 43.61782 60.22703 91.84908
#
# Poissons Ratio (x) = 0.36838 -0.13287
# Poissons Ratio (y) = 0.26679 0.24205
# Poissons Ratio (z) = -0.06310 0.15872
#
# Static dielectric constant tensor:
#      x y z
#    x 1.950680 0.000000 0.000000 
#    y 0.000000 2.049460 0.000000 
#    z 0.000000 0.000000 1.950980 
# 
# From -- ./inp_files/18056.got.cif
#   From: 2010.05.17/outbox.cif.g08.bks.cpg/sg60_10_cif.got.tgz:18056.got - 2010.06.03 14:59:27.
