data_PCOD9456778
_publ_section_title
;
Structure prediction by ZEFSAII (Michael W. Deem and Ramdas Pophale) SiO2 
 PCOD9456778
Probable space group: P B C N
;
_chemical_formula_sum "Si O2"
_cell_formula_units_Z 64
_cell_length_a 23.834059
_cell_length_b 8.368711
_cell_length_c 14.278294
_cell_angle_alpha 90.000000
_cell_angle_beta 90.000000
_cell_angle_gamma 90.000000
_cell_volume 2847.953543
_symmetry_space_group_name_H-M "P B C N"
_symmetry_group_IT_number 60
_symmetry_cell_setting 'orthorhombic'
loop_
_space_group_symop_operation_xyz
x,y,z
1/2-x,1/2-y,1/2+z
1/2+x,1/2-y,-z
-x,y,1/2-z
-x,-y,-z
1/2+x,1/2+y,1/2-z
1/2-x,1/2+y,z
x,-y,1/2+z
loop_
_atom_site_type_symbol
_atom_site_label
_atom_site_fract_x
_atom_site_fract_y
_atom_site_fract_z
Si Si1 0.313574 0.500818 0.965117
Si Si2 0.515586 0.456809 0.394627
Si Si3 0.195967 0.622509 0.415265
Si Si4 0.970754 0.628725 0.066008
Si Si5 0.098505 0.103681 0.334029
Si Si6 0.375074 0.888033 0.079766
Si Si7 0.893462 0.523239 0.719043
Si Si8 0.142934 0.950444 0.651643
O O1 0.312354 0.688421 0.935866
O O2 0.261253 0.415753 0.917293
O O3 0.372350 0.426668 0.932321
O O4 0.315138 0.472780 0.077454
O O5 0.500000 0.500000 0.500000
O O6 0.510746 0.266644 0.397535
O O7 0.463869 0.531531 0.335348
O O8 0.577227 0.515674 0.369939
O O9 0.167967 0.534681 0.506379
O O10 0.163280 0.553845 0.324952
O O11 0.941543 0.560659 0.158345
O O12 0.922100 0.681196 0.992072
O O13 0.000000 0.500000 0.000000
O O14 0.098926 0.289717 0.307769
O O15 0.141597 0.017635 0.261596
O O16 0.396424 0.990495 0.168139
O O17 0.347580 0.737156 0.131602
#
# Coordination Sequence:
#
# PCOD9456778 Si02
#       8
#     8   8   8   8   8   8   8   8
#     4  11  22  42  65  88 123 158 207 257 312 372
#     4  12  20  40  64  87 128 165 206 251 303 365
#     4  10  22  42  64  90 120 162 202 259 314 367
#     4  11  23  39  58  91 126 167 205 251 302 363
#     4  11  22  39  64  92 122 164 206 253 311 366
#     4   9  20  41  62  86 125 160 205 251 308 364
#     4  10  22  40  62  91 126 161 203 256 311 367
#     4  10  22  39  65  91 120 164 206 255 304 368
#
# _framework density 22.472276000000001
#
# number of rings (size 3 to 8) (size 9 to 14) (size 15 to 20)
#    0.000    1.500    2.500    3.375    0.000    1.500 
#    6.750    2.500    0.000    0.000    0.000    0.000 
#    0.000    0.000    0.000    0.000    0.000    0.000 
#
# Total GULP energy -356934.836874 kJ/mol
# GULP energy per Si atom -5577.106826 kJ/mol
# Density = 2.242113 g / cm^3
# Si number density = 22.472276 Si / 1000 Ang^3
#
#
#
# Elastic Constant Matrix: (Units=GPa)
#
#
# Indices 1 2 3 4 5 6 
#
# 1 58.5135 15.0245 -9.3644 0.0000 0.0000 0.0000
# 2 15.0245 53.6012 5.3572 0.0000 0.0000 0.0000
# 3 -9.3644 5.3572 98.5947 0.0000 0.0000 0.0000
# 4 0.0000 0.0000 0.0000 19.5783 0.0000 0.0000
# 5 0.0000 0.0000 0.0000 0.0000 20.9745 0.0000
# 6 0.0000 0.0000 0.0000 0.0000 0.0000 24.8911
#
#
#
# Elastic Compliance Matrix: (Units=1/GPa)
#
#
# Indices 1 2 3 4 5 6 
#
# 1 0.018833 -0.005488 0.002087 0.000000 0.000000 0.000000
# 2 -0.005488 0.020357 -0.001627 0.000000 0.000000 0.000000
# 3 0.002087 -0.001627 0.010429 0.000000 0.000000 0.000000
# 4 0.000000 0.000000 0.000000 0.051077 0.000000 0.000000
# 5 0.000000 0.000000 0.000000 0.000000 0.047677 0.000000
# 6 0.000000 0.000000 0.000000 0.000000 0.000000 0.040175
#
#
# Mechanical properties :
#
#
# Convention : Reuss Voigt Hill
#
# Bulk Modulus (GPa) = 25.27582 25.86045 25.56813
# Shear Modulus (GPa) = 23.60809 26.40160 25.00484
#
# Velocity S-wave (km/s) = 3.24472 3.43133 3.33933
# Velocity P-wave (km/s) = 5.03087 5.21837 5.12548
#
# Compressibility (1/GPa) = 0.03956351
#
# Stress axis : x y z
#
# Youngs Moduli (GPa) = 53.09808 49.12288 95.88496
#
# Poissons Ratio (x) = 0.26956 -0.20010
# Poissons Ratio (y) = 0.29138 0.15604
# Poissons Ratio (z) = -0.11081 0.07994
#
# Static dielectric constant tensor:
#      x y z
#    x 1.839970 0.000000 0.000000 
#    y 0.000000 2.005460 0.000000 
#    z 0.000000 0.000000 1.924700 
# 
# From -- ./inp_files/17933.got.cif
#   From: 2010.05.17/outbox.cif.g08.bks.cpg/sg60_9_cif.got.tgz:17933.got - 2010.06.03 14:59:27.
