data_PCOD9456095
_publ_section_title
;
Structure prediction by ZEFSAII (Michael W. Deem and Ramdas Pophale) SiO2 
 PCOD9456095
Probable space group: P B C N
;
_chemical_formula_sum "Si O2"
_cell_formula_units_Z 32
_cell_length_a 15.928605
_cell_length_b 13.363511
_cell_length_c 5.253040
_cell_angle_alpha 90.000000
_cell_angle_beta 90.000000
_cell_angle_gamma 90.000000
_cell_volume 1118.173063
_symmetry_space_group_name_H-M "P B C N"
_symmetry_group_IT_number 60
_symmetry_cell_setting 'orthorhombic'
loop_
_space_group_symop_operation_xyz
x,y,z
1/2-x,1/2-y,1/2+z
1/2+x,1/2-y,-z
-x,y,1/2-z
-x,-y,-z
1/2+x,1/2+y,1/2-z
1/2-x,1/2+y,z
x,-y,1/2+z
loop_
_atom_site_type_symbol
_atom_site_label
_atom_site_fract_x
_atom_site_fract_y
_atom_site_fract_z
Si Si1 0.946992 0.876098 0.508563
Si Si2 0.150803 0.248235 0.133629
Si Si3 0.212774 0.904020 0.254903
Si Si4 0.607798 0.956348 0.388272
O O1 0.907126 0.774536 0.622683
O O2 0.861688 0.933230 0.435497
O O3 0.000000 0.917605 0.750000
O O4 0.000000 0.861887 0.250000
O O5 0.240271 0.298310 0.186832
O O6 0.105371 0.343474 0.003088
O O7 0.166572 0.142147 0.001936
O O8 0.292116 0.975049 0.190141
O O9 0.575042 0.969022 0.101963
#
# Coordination Sequence:
#
# PCOD9456095 Si02
#       4
#     8   8   8   8
#     4  12  24  36  62 100 126 160 212 272 316 364
#     4  10  21  38  67  91 125 162 221 262 305 369
#     4  10  21  38  67  91 125 162 221 262 305 369
#     4  10  24  36  64 100 128 160 212 270 318 366
#
# _framework density 28.618106999999998
#
# number of rings (size 3 to 8) (size 9 to 14) (size 15 to 20)
#    1.500    0.000    5.000    0.000   10.500    0.000 
#    0.000    0.000    0.000    9.000    0.000    0.000 
#    0.000    0.000    0.000    0.000    0.000    0.000 
#
# Total GULP energy -178213.762622 kJ/mol
# GULP energy per Si atom -5569.180082 kJ/mol
# Density = 2.855297 g / cm^3
# Si number density = 28.618107 Si / 1000 Ang^3
#
#
#
# Elastic Constant Matrix: (Units=GPa)
#
#
# Indices 1 2 3 4 5 6 
#
# 1 150.6258 -0.1800 42.2283 0.0000 0.0000 0.0000
# 2 -0.1800 125.4214 37.1387 0.0000 0.0000 0.0000
# 3 42.2283 37.1387 188.1404 0.0000 0.0000 0.0000
# 4 0.0000 0.0000 0.0000 26.7770 0.0000 0.0000
# 5 0.0000 0.0000 0.0000 0.0000 55.8710 0.0000
# 6 0.0000 0.0000 0.0000 0.0000 0.0000 29.9278
#
#
#
# Elastic Compliance Matrix: (Units=1/GPa)
#
#
# Indices 1 2 3 4 5 6 
#
# 1 0.007116 0.000513 -0.001698 0.000000 0.000000 0.000000
# 2 0.000513 0.008505 -0.001794 0.000000 0.000000 0.000000
# 3 -0.001698 -0.001794 0.006051 0.000000 0.000000 0.000000
# 4 0.000000 0.000000 0.000000 0.037346 0.000000 0.000000
# 5 0.000000 0.000000 0.000000 0.000000 0.017898 0.000000
# 6 0.000000 0.000000 0.000000 0.000000 0.000000 0.033414
#
#
# Mechanical properties :
#
#
# Convention : Reuss Voigt Hill
#
# Bulk Modulus (GPa) = 63.64294 69.17350 66.40822
# Shear Modulus (GPa) = 41.14371 48.18187 44.66279
#
# Velocity S-wave (km/s) = 3.79579 4.10764 3.95479
# Velocity P-wave (km/s) = 6.44187 6.83525 6.64147
#
# Compressibility (1/GPa) = 0.01571266
#
# Stress axis : x y z
#
# Youngs Moduli (GPa) = 140.53351 117.57645 165.27445
#
# Poissons Ratio (x) = -0.06033 0.28071
# Poissons Ratio (y) = -0.07211 0.29651
# Poissons Ratio (z) = 0.23869 0.21094
#
# Static dielectric constant tensor:
#      x y z
#    x 2.372260 0.000000 0.000000 
#    y 0.000000 2.104050 0.000000 
#    z 0.000000 0.000000 2.405220 
# 
# From -- ./inp_files/1607.got.cif
#   From: 2010.05.17/outbox.cif.g08.bks.cpg/sg60_1_cif.got.tgz:1607.got - 2010.06.03 14:59:27.
