data_PCOD9456030
_publ_section_title
;
Structure prediction by ZEFSAII (Michael W. Deem and Ramdas Pophale) SiO2 
 PCOD9456030
Probable space group: P B C N
;
_chemical_formula_sum "Si O2"
_cell_formula_units_Z 64
_cell_length_a 7.618014
_cell_length_b 31.314553
_cell_length_c 11.108242
_cell_angle_alpha 90.000000
_cell_angle_beta 90.000000
_cell_angle_gamma 90.000000
_cell_volume 2649.923373
_symmetry_space_group_name_H-M "P B C N"
_symmetry_group_IT_number 60
_symmetry_cell_setting 'orthorhombic'
loop_
_space_group_symop_operation_xyz
x,y,z
1/2-x,1/2-y,1/2+z
1/2+x,1/2-y,-z
-x,y,1/2-z
-x,-y,-z
1/2+x,1/2+y,1/2-z
1/2-x,1/2+y,z
x,-y,1/2+z
loop_
_atom_site_type_symbol
_atom_site_label
_atom_site_fract_x
_atom_site_fract_y
_atom_site_fract_z
Si Si1 0.690032 0.171190 0.504830
Si Si2 0.805236 0.236347 0.702026
Si Si3 0.206385 0.985412 0.990492
Si Si4 0.790394 0.671687 0.231854
Si Si5 0.758894 0.921366 0.986697
Si Si6 0.869967 0.669271 0.861124
Si Si7 0.299869 0.580104 0.284731
Si Si8 0.888448 0.910762 0.373269
O O1 0.769173 0.173235 0.372277
O O2 0.683460 0.121406 0.543498
O O3 0.484403 0.181340 0.521943
O O4 0.791103 0.202813 0.593465
O O5 0.734808 0.283491 0.674843
O O6 0.710300 0.213100 0.812333
O O7 0.771924 0.131834 0.876807
O O8 0.000000 0.242590 0.750000
O O9 0.254683 0.955417 0.878815
O O10 0.296257 0.031344 0.975153
O O11 0.225633 0.953862 0.105320
O O12 0.000000 0.000000 0.000000
O O13 0.720937 0.628668 0.171477
O O14 0.000000 0.667029 0.250000
O O15 0.965441 0.913452 0.019990
O O16 0.709934 0.920681 0.845762
O O17 0.000000 0.656975 0.750000
O O18 0.500000 0.570635 0.250000
O O19 0.000000 0.912483 0.250000
#
# Coordination Sequence:
#
# PCOD9456030 Si02
#       8
#     8   8   8   8   8   8   8   8
#     4  10  22  41  64  91 131 165 205 260 320 381
#     4  10  21  42  64  93 123 164 217 261 314 378
#     4  10  22  35  63  93 124 164 211 264 311 366
#     4  10  25  42  65  90 130 170 203 261 321 385
#     4  10  22  39  63  90 125 166 207 268 310 371
#     4  10  21  38  61  90 131 164 205 259 314 380
#     4  11  21  41  62  92 127 163 215 259 313 375
#     4  11  21  34  62  94 123 164 210 263 313 365
#
# _framework density 24.151641000000001
#
# number of rings (size 3 to 8) (size 9 to 14) (size 15 to 20)
#    0.000    1.750    2.500    2.625    5.250    3.500 
#    0.000    1.875    0.000    0.000    0.000    0.000 
#    0.000    0.000    0.000    0.000    0.000    0.000 
#
# Total GULP energy -357296.110523 kJ/mol
# GULP energy per Si atom -5582.751727 kJ/mol
# Density = 2.409667 g / cm^3
# Si number density = 24.151641 Si / 1000 Ang^3
#
#
#
# Elastic Constant Matrix: (Units=GPa)
#
#
# Indices 1 2 3 4 5 6 
#
# 1 26.6418 15.4959 9.8358 0.0000 0.0000 0.0000
# 2 15.4959 211.6908 62.0058 0.0000 0.0000 0.0000
# 3 9.8358 62.0058 94.5446 0.0000 0.0000 0.0000
# 4 0.0000 0.0000 0.0000 -4.7774 0.0000 0.0000
# 5 0.0000 0.0000 0.0000 0.0000 14.0910 0.0000
# 6 0.0000 0.0000 0.0000 0.0000 0.0000 10.5108
#
#
#
# Elastic Compliance Matrix: (Units=1/GPa)
#
#
# Indices 1 2 3 4 5 6 
#
# 1 0.039777 -0.002104 -0.002758 0.000000 0.000000 0.000000
# 2 -0.002104 0.005958 -0.003689 0.000000 0.000000 0.000000
# 3 -0.002758 -0.003689 0.013283 0.000000 0.000000 0.000000
# 4 0.000000 0.000000 0.000000 -0.209319 0.000000 0.000000
# 5 0.000000 0.000000 0.000000 0.000000 0.070967 0.000000
# 6 0.000000 0.000000 0.000000 0.000000 0.000000 0.095140
#
#
# Mechanical properties :
#
#
# Convention : Reuss Voigt Hill
#
# Bulk Modulus (GPa) = 23.85687 56.39468 40.12577
# Shear Modulus (GPa) = 106.65082 20.33418 63.49250
#
# Velocity S-wave (km/s) = 6.65242 2.90476 5.13285
# Velocity P-wave (km/s) = 8.30094 5.88652 7.19572
#
# Compressibility (1/GPa) = 0.04191665
#
# Stress axis : x y z
#
# Youngs Moduli (GPa) = 25.14012 167.83142 75.28260
#
# Poissons Ratio (x) = 0.35307 0.20766
# Poissons Ratio (y) = 0.05289 0.27771
# Poissons Ratio (z) = 0.06935 0.61911
#
# Static dielectric constant tensor:
#      x y z
#    x 2.399200 0.000000 0.000000 
#    y 0.000000 1.978140 0.000000 
#    z 0.000000 0.000000 2.009710 
# 
# From -- ./inp_files/11418.got.cif
#   From: 2010.05.17/outbox.cif.g08.bks.cpg/sg60_6_cif.got.tgz:11418.got - 2010.06.03 14:59:27.
