data_PCOD9456233
_publ_section_title
;
Structure prediction by ZEFSAII (Michael W. Deem and Ramdas Pophale) SiO2 
 PCOD9456233
Probable space group: P B C N
;
_chemical_formula_sum "Si O2"
_cell_formula_units_Z 40
_cell_length_a 20.298822
_cell_length_b 18.212880
_cell_length_c 5.429426
_cell_angle_alpha 90.000000
_cell_angle_beta 90.000000
_cell_angle_gamma 90.000000
_cell_volume 2007.258842
_symmetry_space_group_name_H-M "P B C N"
_symmetry_group_IT_number 60
_symmetry_cell_setting 'orthorhombic'
loop_
_space_group_symop_operation_xyz
x,y,z
1/2-x,1/2-y,1/2+z
1/2+x,1/2-y,-z
-x,y,1/2-z
-x,-y,-z
1/2+x,1/2+y,1/2-z
1/2-x,1/2+y,z
x,-y,1/2+z
loop_
_atom_site_type_symbol
_atom_site_label
_atom_site_fract_x
_atom_site_fract_y
_atom_site_fract_z
Si Si1 0.693842 0.955547 0.870543
Si Si2 0.648668 0.455611 0.863580
Si Si3 0.074469 0.802571 0.638824
Si Si4 0.500000 0.230218 0.250000
Si Si5 0.900915 0.657025 0.601413
Si Si6 0.500000 0.953413 0.250000
O O1 0.772552 0.943283 0.869947
O O2 0.655069 0.881006 0.938475
O O3 0.678985 0.010441 0.101343
O O4 0.632115 0.495851 0.121834
O O5 0.611934 0.378297 0.840683
O O6 0.112917 0.733260 0.758021
O O7 0.000000 0.807898 0.750000
O O8 0.057658 0.780151 0.360370
O O9 0.535759 0.178500 0.440619
O O10 0.933390 0.594821 0.769864
O O11 0.500000 0.000000 0.500000
#
# Coordination Sequence:
#
# PCOD9456233 Si02
#       6
#     8   8   8   4   8   4
#     4  10  23  43  64  91 129 170 212 263 311 376
#     4  10  24  46  67  94 128 165 216 269 323 384
#     4  10  23  41  65  94 129 168 209 274 323 380
#     4  10  21  40  60  89 134 160 206 268 313 374
#     4  11  22  39  60  92 129 170 210 260 316 373
#     4  12  23  34  58  89 122 166 208 242 301 370
#
# _framework density 19.927672999999999
#
# number of rings (size 3 to 8) (size 9 to 14) (size 15 to 20)
#    0.000    1.600    3.000    1.800    8.400    0.800 
#    3.600    0.000    0.000    0.000    0.000    0.000 
#    0.000    0.000    0.000    0.000    0.000    0.000 
#
# Total GULP energy -223119.923880 kJ/mol
# GULP energy per Si atom -5577.998097 kJ/mol
# Density = 1.988232 g / cm^3
# Si number density = 19.927673 Si / 1000 Ang^3
#
#
#
# Elastic Constant Matrix: (Units=GPa)
#
#
# Indices 1 2 3 4 5 6 
#
# 1 52.6509 60.9322 26.7983 0.0000 0.0000 0.0000
# 2 60.9322 154.9340 56.3172 0.0000 0.0000 0.0000
# 3 26.7983 56.3172 108.3102 0.0000 0.0000 0.0000
# 4 0.0000 0.0000 0.0000 29.6150 0.0000 0.0000
# 5 0.0000 0.0000 0.0000 0.0000 17.3251 0.0000
# 6 0.0000 0.0000 0.0000 0.0000 0.0000 41.9679
#
#
#
# Elastic Compliance Matrix: (Units=1/GPa)
#
#
# Indices 1 2 3 4 5 6 
#
# 1 0.035160 -0.013151 -0.001861 0.000000 0.000000 0.000000
# 2 -0.013151 0.012878 -0.003442 0.000000 0.000000 0.000000
# 3 -0.001861 -0.003442 0.011483 0.000000 0.000000 0.000000
# 4 0.000000 0.000000 0.000000 0.033767 0.000000 0.000000
# 5 0.000000 0.000000 0.000000 0.000000 0.057720 0.000000
# 6 0.000000 0.000000 0.000000 0.000000 0.000000 0.023828
#
#
# Mechanical properties :
#
#
# Convention : Reuss Voigt Hill
#
# Bulk Modulus (GPa) = 44.22470 67.11005 55.66737
# Shear Modulus (GPa) = 22.80185 29.23810 26.01997
#
# Velocity S-wave (km/s) = 3.38632 3.83457 3.61740
# Velocity P-wave (km/s) = 6.12620 7.30446 6.74112
#
# Compressibility (1/GPa) = 0.02261180
#
# Stress axis : x y z
#
# Youngs Moduli (GPa) = 28.44142 77.65459 87.08566
#
# Poissons Ratio (x) = 1.02125 0.16209
# Poissons Ratio (y) = 0.37404 0.29975
# Poissons Ratio (z) = 0.05294 0.26728
#
# Static dielectric constant tensor:
#      x y z
#    x 1.685420 0.000000 0.000000 
#    y 0.000000 1.723490 0.000000 
#    z 0.000000 0.000000 1.953470 
# 
# From -- ./inp_files/1657.got.cif
#   From: 2010.05.17/outbox.cif.g08.bks.cpg/sg60_1_cif.got.tgz:1657.got - 2010.06.03 14:59:27.
