data_PCOD9456998
_publ_section_title
;
Structure prediction by ZEFSAII (Michael W. Deem and Ramdas Pophale) SiO2 
 PCOD9456998
Probable space group: P B C N
;
_chemical_formula_sum "Si O2"
_cell_formula_units_Z 40
_cell_length_a 15.502163
_cell_length_b 9.889966
_cell_length_c 12.099041
_cell_angle_alpha 90.000000
_cell_angle_beta 90.000000
_cell_angle_gamma 90.000000
_cell_volume 1854.974937
_symmetry_space_group_name_H-M "P B C N"
_symmetry_group_IT_number 60
_symmetry_cell_setting 'orthorhombic'
loop_
_space_group_symop_operation_xyz
x,y,z
1/2-x,1/2-y,1/2+z
1/2+x,1/2-y,-z
-x,y,1/2-z
-x,-y,-z
1/2+x,1/2+y,1/2-z
1/2-x,1/2+y,z
x,-y,1/2+z
loop_
_atom_site_type_symbol
_atom_site_label
_atom_site_fract_x
_atom_site_fract_y
_atom_site_fract_z
Si Si1 0.345786 0.785832 0.017335
Si Si2 0.500464 0.340883 0.377873
Si Si3 0.733587 0.042734 0.580582
Si Si4 0.593025 0.614538 0.082170
Si Si5 0.906755 0.357689 0.243749
O O1 0.374851 0.786280 0.144241
O O2 0.427537 0.743345 0.942589
O O3 0.271248 0.678301 0.979066
O O4 0.319369 0.940943 0.996758
O O5 0.500000 0.302361 0.250000
O O6 0.474767 0.498363 0.387650
O O7 0.585788 0.338817 0.454012
O O8 0.673906 0.067050 0.687204
O O9 0.817059 0.954701 0.610675
O O10 0.574195 0.741898 0.155403
O O11 0.000000 0.433224 0.250000
#
# Coordination Sequence:
#
# PCOD9456998 Si02
#       5
#     8   8   8   8   8
#     4  11  26  45  72 105 138 193 241 299 366 426
#     4  10  22  41  75 103 142 182 248 295 357 436
#     4  11  26  46  67 108 142 189 245 292 360 428
#     4  10  22  44  68 108 137 194 239 296 359 425
#     4  12  25  47  73 103 153 188 234 305 366 430
#
# _framework density 21.563631999999998
#
# number of rings (size 3 to 8) (size 9 to 14) (size 15 to 20)
#    0.000    1.200    4.000    0.600    8.400    3.200 
#    3.600    0.000    0.000    0.000    0.000    0.000 
#    0.000    0.000    0.000    0.000    0.000    0.000 
#
# Total GULP energy -223133.978911 kJ/mol
# GULP energy per Si atom -5578.349473 kJ/mol
# Density = 2.151455 g / cm^3
# Si number density = 21.563632 Si / 1000 Ang^3
#
#
#
# Elastic Constant Matrix: (Units=GPa)
#
#
# Indices 1 2 3 4 5 6 
#
# 1 114.5766 35.6549 55.1944 0.0000 0.0000 0.0000
# 2 35.6549 56.0283 33.7980 0.0000 0.0000 0.0000
# 3 55.1944 33.7980 150.0236 0.0000 0.0000 0.0000
# 4 0.0000 0.0000 0.0000 15.1077 0.0000 0.0000
# 5 0.0000 0.0000 0.0000 0.0000 37.3128 0.0000
# 6 0.0000 0.0000 0.0000 0.0000 0.0000 19.4663
#
#
#
# Elastic Compliance Matrix: (Units=1/GPa)
#
#
# Indices 1 2 3 4 5 6 
#
# 1 0.012029 -0.005769 -0.003126 0.000000 0.000000 0.000000
# 2 -0.005769 0.023422 -0.003154 0.000000 0.000000 0.000000
# 3 -0.003126 -0.003154 0.008526 0.000000 0.000000 0.000000
# 4 0.000000 0.000000 0.000000 0.066191 0.000000 0.000000
# 5 0.000000 0.000000 0.000000 0.000000 0.026800 0.000000
# 6 0.000000 0.000000 0.000000 0.000000 0.000000 0.051371
#
#
# Mechanical properties :
#
#
# Convention : Reuss Voigt Hill
#
# Bulk Modulus (GPa) = 50.30452 63.32478 56.81465
# Shear Modulus (GPa) = 22.82432 27.44278 25.13355
#
# Velocity S-wave (km/s) = 3.25693 3.57128 3.41772
# Velocity P-wave (km/s) = 6.12556 6.81437 6.47913
#
# Compressibility (1/GPa) = 0.01987893
#
# Stress axis : x y z
#
# Youngs Moduli (GPa) = 83.13332 42.69457 117.28601
#
# Poissons Ratio (x) = 0.24632 0.36661
# Poissons Ratio (y) = 0.47962 0.36993
# Poissons Ratio (z) = 0.25985 0.13466
#
# Static dielectric constant tensor:
#      x y z
#    x 1.890930 0.000000 0.000000 
#    y 0.000000 1.774690 0.000000 
#    z 0.000000 0.000000 1.774320 
# 
# From -- ./inp_files/11667.got.cif
#   From: 2010.05.17/outbox.cif.g08.bks.cpg/sg60_6_cif.got.tgz:11667.got - 2010.06.03 14:59:27.
