data_PCOD9456721
_publ_section_title
;
Structure prediction by ZEFSAII (Michael W. Deem and Ramdas Pophale) SiO2 
 PCOD9456721
Probable space group: P B C N
;
_chemical_formula_sum "Si O2"
_cell_formula_units_Z 32
_cell_length_a 12.252268
_cell_length_b 6.913539
_cell_length_c 12.461465
_cell_angle_alpha 90.000000
_cell_angle_beta 90.000000
_cell_angle_gamma 90.000000
_cell_volume 1055.567492
_symmetry_space_group_name_H-M "P B C N"
_symmetry_group_IT_number 60
_symmetry_cell_setting 'orthorhombic'
loop_
_space_group_symop_operation_xyz
x,y,z
1/2-x,1/2-y,1/2+z
1/2+x,1/2-y,-z
-x,y,1/2-z
-x,-y,-z
1/2+x,1/2+y,1/2-z
1/2-x,1/2+y,z
x,-y,1/2+z
loop_
_atom_site_type_symbol
_atom_site_label
_atom_site_fract_x
_atom_site_fract_y
_atom_site_fract_z
Si Si1 0.770259 0.805645 0.995958
Si Si2 0.911746 0.861085 0.449432
Si Si3 0.614613 0.828084 0.276132
Si Si4 0.651734 0.580801 0.714614
O O1 0.709518 0.555678 0.985910
O O2 0.837629 0.791170 0.108664
O O3 0.634094 0.840140 0.991161
O O4 0.909955 0.846793 0.321391
O O5 0.851189 0.238735 0.392036
O O6 0.000000 0.000000 0.500000
O O7 0.500000 0.925816 0.250000
O O8 0.608835 0.636586 0.199862
O O9 0.721384 0.947428 0.247177
#
# Coordination Sequence:
#
# PCOD9456721 Si02
#       4
#     8   8   8   8
#     4  10  22  38  68  99 132 176 242 278 339 433
#     4  10  23  42  66 100 142 186 225 293 361 406
#     4  10  23  42  66  96 137 180 222 292 353 403
#     4  10  22  38  68  96 131 180 236 282 342 429
#
# _framework density 30.315445
#
# number of rings (size 3 to 8) (size 9 to 14) (size 15 to 20)
#    0.000    2.000    0.000    1.500   14.000    0.000 
#    0.000    2.500   22.000    0.000    0.000    0.000 
#    0.000    0.000    0.000    0.000    0.000    0.000 
#
# Total GULP energy -178383.891974 kJ/mol
# GULP energy per Si atom -5574.496624 kJ/mol
# Density = 3.024645 g / cm^3
# Si number density = 30.315445 Si / 1000 Ang^3
#
#
#
# Elastic Constant Matrix: (Units=GPa)
#
#
# Indices 1 2 3 4 5 6 
#
# 1 193.7925 45.7367 78.1189 0.0000 0.0000 0.0000
# 2 45.7367 101.6092 47.5441 0.0000 0.0000 0.0000
# 3 78.1189 47.5441 245.7706 0.0000 0.0000 0.0000
# 4 0.0000 0.0000 0.0000 51.2089 0.0000 0.0000
# 5 0.0000 0.0000 0.0000 0.0000 73.3416 0.0000
# 6 0.0000 0.0000 0.0000 0.0000 0.0000 79.4762
#
#
#
# Elastic Compliance Matrix: (Units=1/GPa)
#
#
# Indices 1 2 3 4 5 6 
#
# 1 0.006297 -0.002087 -0.001598 0.000000 0.000000 0.000000
# 2 -0.002087 0.011513 -0.001564 0.000000 0.000000 0.000000
# 3 -0.001598 -0.001564 0.004879 0.000000 0.000000 0.000000
# 4 0.000000 0.000000 0.000000 0.019528 0.000000 0.000000
# 5 0.000000 0.000000 0.000000 0.000000 0.013635 0.000000
# 6 0.000000 0.000000 0.000000 0.000000 0.000000 0.012582
#
#
# Mechanical properties :
#
#
# Convention : Reuss Voigt Hill
#
# Bulk Modulus (GPa) = 82.02124 98.21908 90.12016
# Shear Modulus (GPa) = 60.24518 65.45684 62.85101
#
# Velocity S-wave (km/s) = 4.46272 4.65175 4.55822
# Velocity P-wave (km/s) = 7.32593 7.83078 7.58255
#
# Compressibility (1/GPa) = 0.01219196
#
# Stress axis : x y z
#
# Youngs Moduli (GPa) = 158.81339 86.86107 204.95115
#
# Poissons Ratio (x) = 0.18125 0.32746
# Poissons Ratio (y) = 0.33139 0.32051
# Poissons Ratio (z) = 0.25375 0.13584
#
# Static dielectric constant tensor:
#      x y z
#    x 2.540870 0.000000 0.000000 
#    y 0.000000 2.821010 0.000000 
#    z 0.000000 0.000000 2.494350 
# 
# From -- ./inp_files/17153.got.cif
#   From: 2010.05.17/outbox.cif.g08.bks.cpg/sg60_9_cif.got.tgz:17153.got - 2010.06.03 14:59:27.
