data_PCOD9456202
_publ_section_title
;
Structure prediction by ZEFSAII (Michael W. Deem and Ramdas Pophale) SiO2 
 PCOD9456202
Probable space group: P B C N
;
_chemical_formula_sum "Si O2"
_cell_formula_units_Z 56
_cell_length_a 5.036799
_cell_length_b 26.628059
_cell_length_c 19.849457
_cell_angle_alpha 90.000000
_cell_angle_beta 90.000000
_cell_angle_gamma 90.000000
_cell_volume 2662.212764
_symmetry_space_group_name_H-M "P B C N"
_symmetry_group_IT_number 60
_symmetry_cell_setting 'orthorhombic'
loop_
_space_group_symop_operation_xyz
x,y,z
1/2-x,1/2-y,1/2+z
1/2+x,1/2-y,-z
-x,y,1/2-z
-x,-y,-z
1/2+x,1/2+y,1/2-z
1/2-x,1/2+y,z
x,-y,1/2+z
loop_
_atom_site_type_symbol
_atom_site_label
_atom_site_fract_x
_atom_site_fract_y
_atom_site_fract_z
Si Si1 0.378046 0.892363 0.860814
Si Si2 0.855180 0.449990 0.973759
Si Si3 0.613082 0.048365 0.818024
Si Si4 0.369584 0.448181 0.667244
Si Si5 0.363621 0.584399 0.889913
Si Si6 0.750080 0.678547 0.700309
Si Si7 0.249806 0.208405 0.299211
O O1 0.435169 0.912813 0.936371
O O2 0.278992 0.835945 0.853141
O O3 0.161188 0.927480 0.824555
O O4 0.159982 0.923529 0.138950
O O5 0.838678 0.402603 0.825851
O O6 0.685875 0.422021 0.031035
O O7 0.000000 0.500000 0.000000
O O8 0.500000 0.072829 0.750000
O O9 0.344301 0.042951 0.860676
O O10 0.239062 0.136638 0.857754
O O11 0.755174 0.996863 0.796605
O O12 0.336454 0.464374 0.588379
O O13 0.500000 0.671078 0.750000
O O14 0.749582 0.735228 0.671402
O O15 0.000000 0.676955 0.750000
O O16 0.500000 0.205447 0.250000
O O17 0.000000 0.201676 0.250000
#
# Coordination Sequence:
#
# PCOD9456202 Si02
#       7
#     8   8   8   8   8   8   8
#     4  10  22  38  59  88 118 155 206 251 290 372
#     4  10  22  40  60  85 119 168 207 239 296 366
#     4  12  24  37  55  87 121 158 197 256 308 362
#     4  10  22  38  58  84 122 159 203 246 291 369
#     4  12  23  37  63  83 120 161 204 251 305 370
#     4  10  21  40  62  90 117 150 199 255 313 372
#     4  10  21  39  67  88 117 156 198 255 318 367
#
# _framework density 21.035135
#
# number of rings (size 3 to 8) (size 9 to 14) (size 15 to 20)
#    0.857    0.571    1.429    5.143    2.000    2.857 
#    0.000    0.000    3.143    0.000    0.000    0.000 
#    0.000    0.000    0.000    0.000    0.000    0.000 
#
# Total GULP energy -312587.060518 kJ/mol
# GULP energy per Si atom -5581.911795 kJ/mol
# Density = 2.098726 g / cm^3
# Si number density = 21.035135 Si / 1000 Ang^3
#
#
#
# Elastic Constant Matrix: (Units=GPa)
#
#
# Indices 1 2 3 4 5 6 
#
# 1 138.2179 15.6083 38.2691 0.0000 0.0000 0.0000
# 2 15.6083 150.3129 50.1404 0.0000 0.0000 0.0000
# 3 38.2691 50.1404 90.4280 0.0000 0.0000 0.0000
# 4 0.0000 0.0000 0.0000 36.4023 0.0000 0.0000
# 5 0.0000 0.0000 0.0000 0.0000 32.2078 0.0000
# 6 0.0000 0.0000 0.0000 0.0000 0.0000 25.0908
#
#
#
# Elastic Compliance Matrix: (Units=1/GPa)
#
#
# Indices 1 2 3 4 5 6 
#
# 1 0.008213 0.000376 -0.003684 0.000000 0.000000 0.000000
# 2 0.000376 0.008180 -0.004695 0.000000 0.000000 0.000000
# 3 -0.003684 -0.004695 0.015221 0.000000 0.000000 0.000000
# 4 0.000000 0.000000 0.000000 0.027471 0.000000 0.000000
# 5 0.000000 0.000000 0.000000 0.000000 0.031048 0.000000
# 6 0.000000 0.000000 0.000000 0.000000 0.000000 0.039855
#
#
# Mechanical properties :
#
#
# Convention : Reuss Voigt Hill
#
# Bulk Modulus (GPa) = 64.07086 65.22161 64.64623
# Shear Modulus (GPa) = 33.06982 37.06958 35.06970
#
# Velocity S-wave (km/s) = 3.96930 4.20249 4.08756
# Velocity P-wave (km/s) = 7.17860 7.39062 7.28538
#
# Compressibility (1/GPa) = 0.01560772
#
# Stress axis : x y z
#
# Youngs Moduli (GPa) = 121.76542 122.25313 65.69992
#
# Poissons Ratio (x) = -0.04598 0.24204
# Poissons Ratio (y) = -0.04580 0.30844
# Poissons Ratio (z) = 0.44860 0.57394
#
# Static dielectric constant tensor:
#      x y z
#    x 1.749480 0.000000 0.000000 
#    y 0.000000 1.791330 0.000000 
#    z 0.000000 0.000000 1.814100 
# 
# From -- ./inp_files/21734.got.cif
#   From: 2010.05.17/outbox.cif.g08.bks.cpg/sg60_11_cif.got.tgz:21734.got - 2010.06.03 14:59:27.
