data_PCOD9456943
_publ_section_title
;
Structure prediction by ZEFSAII (Michael W. Deem and Ramdas Pophale) SiO2 
 PCOD9456943
Probable space group: P B C N
;
_chemical_formula_sum "Si O2"
_cell_formula_units_Z 64
_cell_length_a 11.326474
_cell_length_b 31.815209
_cell_length_c 8.276772
_cell_angle_alpha 90.000000
_cell_angle_beta 90.000000
_cell_angle_gamma 90.000000
_cell_volume 2982.569036
_symmetry_space_group_name_H-M "P B C N"
_symmetry_group_IT_number 60
_symmetry_cell_setting 'orthorhombic'
loop_
_space_group_symop_operation_xyz
x,y,z
1/2-x,1/2-y,1/2+z
1/2+x,1/2-y,-z
-x,y,1/2-z
-x,-y,-z
1/2+x,1/2+y,1/2-z
1/2-x,1/2+y,z
x,-y,1/2+z
loop_
_atom_site_type_symbol
_atom_site_label
_atom_site_fract_x
_atom_site_fract_y
_atom_site_fract_z
Si Si1 0.693286 0.611476 0.468937
Si Si2 0.858063 0.463080 0.440322
Si Si3 0.999652 0.952015 0.442111
Si Si4 0.449571 0.311778 0.421679
Si Si5 0.134982 0.749672 0.694267
Si Si6 0.286963 0.398059 0.899438
Si Si7 0.137863 0.551561 0.921777
Si Si8 0.710889 0.309999 0.515344
O O1 0.618767 0.570015 0.502610
O O2 0.638087 0.648625 0.575763
O O3 0.680274 0.618225 0.278655
O O4 0.824767 0.596661 0.509460
O O5 0.810603 0.434306 0.584963
O O6 0.821976 0.510746 0.477391
O O7 0.813772 0.450923 0.261667
O O8 0.997615 0.455614 0.426769
O O9 0.896418 0.922160 0.515134
O O10 0.000000 0.951075 0.250000
O O11 0.000000 0.000000 0.500000
O O12 0.500000 0.296592 0.250000
O O13 0.390233 0.277522 0.535260
O O14 0.573991 0.324232 0.500971
O O15 0.225316 0.714050 0.632081
O O16 0.000000 0.737088 0.750000
O O17 0.199447 0.777961 0.831983
O O18 0.231151 0.355820 0.974504
#
# Coordination Sequence:
#
# PCOD9456943 Si02
#       8
#     8   8   8   8   8   8   8   8
#     4  12  23  39  64  98 132 178 223 281 342 416
#     4  10  22  42  64  92 127 182 229 289 341 405
#     4  12  25  41  63  97 138 183 227 276 335 408
#     4  11  23  41  70 102 134 176 225 281 355 428
#     4  10  23  46  73 103 136 180 237 288 361 443
#     4  12  24  40  65  95 137 174 223 284 340 412
#     4  10  22  41  65  90 130 177 236 281 344 409
#     4  11  23  44  70  99 138 177 224 289 358 418
#
# _framework density 21.458010000000002
#
# number of rings (size 3 to 8) (size 9 to 14) (size 15 to 20)
#    0.000    1.000    2.500    4.500    1.750    1.500 
#    2.250    1.250    5.500    0.000    0.000    0.000 
#    0.000    0.000    0.000    0.000    0.000    0.000 
#
# Total GULP energy -356890.908372 kJ/mol
# GULP energy per Si atom -5576.420443 kJ/mol
# Density = 2.140917 g / cm^3
# Si number density = 21.458010 Si / 1000 Ang^3
#
#
#
# Elastic Constant Matrix: (Units=GPa)
#
#
# Indices 1 2 3 4 5 6 
#
# 1 59.0879 32.7109 6.3300 0.0000 0.0000 0.0000
# 2 32.7109 85.9990 10.8063 0.0000 0.0000 0.0000
# 3 6.3300 10.8063 67.6514 0.0000 0.0000 0.0000
# 4 0.0000 0.0000 0.0000 13.5229 0.0000 0.0000
# 5 0.0000 0.0000 0.0000 0.0000 33.4089 0.0000
# 6 0.0000 0.0000 0.0000 0.0000 0.0000 30.4303
#
#
#
# Elastic Compliance Matrix: (Units=1/GPa)
#
#
# Indices 1 2 3 4 5 6 
#
# 1 0.021472 -0.008077 -0.000719 0.000000 0.000000 0.000000
# 2 -0.008077 0.014904 -0.001625 0.000000 0.000000 0.000000
# 3 -0.000719 -0.001625 0.015108 0.000000 0.000000 0.000000
# 4 0.000000 0.000000 0.000000 0.073949 0.000000 0.000000
# 5 0.000000 0.000000 0.000000 0.000000 0.029932 0.000000
# 6 0.000000 0.000000 0.000000 0.000000 0.000000 0.032862
#
#
# Mechanical properties :
#
#
# Convention : Reuss Voigt Hill
#
# Bulk Modulus (GPa) = 32.63343 34.71474 33.67409
# Shear Modulus (GPa) = 22.80144 26.33184 24.56664
#
# Velocity S-wave (km/s) = 3.26330 3.50685 3.38726
# Velocity P-wave (km/s) = 5.42586 5.71055 5.57002
#
# Compressibility (1/GPa) = 0.03064342
#
# Stress axis : x y z
#
# Youngs Moduli (GPa) = 46.57158 67.09423 66.18794
#
# Poissons Ratio (x) = 0.54192 0.04759
# Poissons Ratio (y) = 0.37616 0.10756
# Poissons Ratio (z) = 0.03348 0.10903
#
# Static dielectric constant tensor:
#      x y z
#    x 1.888320 0.000000 0.000000 
#    y 0.000000 2.913290 0.000000 
#    z 0.000000 0.000000 1.924420 
# 
# From -- ./inp_files/5325.got.cif
#   From: 2010.05.17/outbox.cif.g08.bks.cpg/sg60_3_cif.got.tgz:5325.got - 2010.06.03 14:59:27.
