data_PCOD9456832
_publ_section_title
;
Structure prediction by ZEFSAII (Michael W. Deem and Ramdas Pophale) SiO2 
 PCOD9456832
Probable space group: P B C N
;
_chemical_formula_sum "Si O2"
_cell_formula_units_Z 36
_cell_length_a 21.054258
_cell_length_b 5.075257
_cell_length_c 13.098450
_cell_angle_alpha 90.000000
_cell_angle_beta 90.000000
_cell_angle_gamma 90.000000
_cell_volume 1399.644964
_symmetry_space_group_name_H-M "P B C N"
_symmetry_group_IT_number 60
_symmetry_cell_setting 'orthorhombic'
loop_
_space_group_symop_operation_xyz
x,y,z
1/2-x,1/2-y,1/2+z
1/2+x,1/2-y,-z
-x,y,1/2-z
-x,-y,-z
1/2+x,1/2+y,1/2-z
1/2-x,1/2+y,z
x,-y,1/2+z
loop_
_atom_site_type_symbol
_atom_site_label
_atom_site_fract_x
_atom_site_fract_y
_atom_site_fract_z
Si Si1 0.460978 0.254540 0.461067
Si Si2 0.703720 0.726397 0.971072
Si Si3 0.500000 0.903480 0.750000
Si Si4 0.291891 0.654904 0.300837
Si Si5 0.881360 0.605132 0.867080
O O1 0.500000 0.500000 0.500000
O O2 0.462470 0.253586 0.338649
O O3 0.395159 0.239711 0.523201
O O4 0.500000 0.000000 0.500000
O O5 0.745051 0.464061 0.958421
O O6 0.679138 0.717045 0.087898
O O7 0.648189 0.820675 0.895985
O O8 0.447049 0.071753 0.692481
O O9 0.268223 0.355258 0.295624
O O10 0.336573 0.737967 0.209029
#
# Coordination Sequence:
#
# PCOD9456832 Si02
#       5
#     8   8   4   8   8
#     4  10  24  43  64  92 128 172 220 269 326 392
#     4  10  22  40  63  94 129 169 219 275 340 406
#     4  10  24  44  66  96 134 178 226 274 330 396
#     4  10  22  40  65  96 128 167 215 272 336 397
#     4  11  22  42  66  95 131 175 222 278 333 399
#
# _framework density 25.720811000000001
#
# number of rings (size 3 to 8) (size 9 to 14) (size 15 to 20)
#    0.000    1.778    0.000    2.667    0.000   10.667 
#    0.000   13.333    0.000    0.000    0.000    0.000 
#    0.000    0.000    0.000    0.000    0.000    0.000 
#
# Total GULP energy -201793.081239 kJ/mol
# GULP energy per Si atom -5605.363368 kJ/mol
# Density = 2.566227 g / cm^3
# Si number density = 25.720811 Si / 1000 Ang^3
#
#
#
# Elastic Constant Matrix: (Units=GPa)
#
#
# Indices 1 2 3 4 5 6 
#
# 1 57.9564 7.5283 52.7321 0.0000 0.0000 0.0000
# 2 7.5283 126.3597 22.0117 0.0000 0.0000 0.0000
# 3 52.7321 22.0117 176.0139 0.0000 0.0000 0.0000
# 4 0.0000 0.0000 0.0000 31.7870 0.0000 0.0000
# 5 0.0000 0.0000 0.0000 0.0000 74.0904 0.0000
# 6 0.0000 0.0000 0.0000 0.0000 0.0000 28.0700
#
#
#
# Elastic Compliance Matrix: (Units=1/GPa)
#
#
# Indices 1 2 3 4 5 6 
#
# 1 0.023724 -0.000179 -0.007085 0.000000 0.000000 0.000000
# 2 -0.000179 0.008092 -0.000958 0.000000 0.000000 0.000000
# 3 -0.007085 -0.000958 0.007924 0.000000 0.000000 0.000000
# 4 0.000000 0.000000 0.000000 0.031459 0.000000 0.000000
# 5 0.000000 0.000000 0.000000 0.000000 0.013497 0.000000
# 6 0.000000 0.000000 0.000000 0.000000 0.000000 0.035625
#
#
# Mechanical properties :
#
#
# Convention : Reuss Voigt Hill
#
# Bulk Modulus (GPa) = 42.92883 58.31935 50.62409
# Shear Modulus (GPa) = 34.59468 45.32667 39.96068
#
# Velocity S-wave (km/s) = 3.67141 4.20248 3.94589
# Velocity P-wave (km/s) = 5.89058 6.80228 6.36278
#
# Compressibility (1/GPa) = 0.02329437
#
# Stress axis : x y z
#
# Youngs Moduli (GPa) = 42.15125 123.58635 126.20156
#
# Poissons Ratio (x) = 0.02215 0.89415
# Poissons Ratio (y) = 0.00755 0.12093
# Poissons Ratio (z) = 0.29865 0.11842
#
# Static dielectric constant tensor:
#      x y z
#    x 2.059090 0.000000 0.000000 
#    y 0.000000 2.004950 0.000000 
#    z 0.000000 0.000000 2.070360 
# 
# From -- ./inp_files/17579.got.cif
#   From: 2010.05.17/outbox.cif.g08.bks.cpg/sg60_9_cif.got.tgz:17579.got - 2010.06.03 14:59:27.
