data_PCOD9456633
_publ_section_title
;
Structure prediction by ZEFSAII (Michael W. Deem and Ramdas Pophale) SiO2 
 PCOD9456633
Probable space group: P B C N
;
_chemical_formula_sum "Si O2"
_cell_formula_units_Z 48
_cell_length_a 16.660466
_cell_length_b 11.464620
_cell_length_c 9.447462
_cell_angle_alpha 90.000000
_cell_angle_beta 90.000000
_cell_angle_gamma 90.000000
_cell_volume 1804.521093
_symmetry_space_group_name_H-M "P B C N"
_symmetry_group_IT_number 60
_symmetry_cell_setting 'orthorhombic'
loop_
_space_group_symop_operation_xyz
x,y,z
1/2-x,1/2-y,1/2+z
1/2+x,1/2-y,-z
-x,y,1/2-z
-x,-y,-z
1/2+x,1/2+y,1/2-z
1/2-x,1/2+y,z
x,-y,1/2+z
loop_
_atom_site_type_symbol
_atom_site_label
_atom_site_fract_x
_atom_site_fract_y
_atom_site_fract_z
Si Si1 0.611164 0.035442 0.955611
Si Si2 0.942498 0.229571 0.618501
Si Si3 0.891605 0.639131 0.672669
Si Si4 0.277665 0.725573 0.739372
Si Si5 0.545716 0.394200 0.617807
Si Si6 0.778767 0.898069 0.545472
O O1 0.585091 0.154869 0.033243
O O2 0.707644 0.027190 0.977832
O O3 0.581583 0.918525 0.027796
O O4 0.584124 0.052189 0.796927
O O5 0.860083 0.186339 0.689974
O O6 0.000000 0.256925 0.750000
O O7 0.986491 0.140222 0.510700
O O8 0.797052 0.651337 0.703411
O O9 0.925045 0.768803 0.681156
O O10 0.283960 0.708202 0.570766
O O11 0.254690 0.851840 0.803756
O O12 0.500000 0.453696 0.750000
O O13 0.631008 0.443546 0.563201
#
# Coordination Sequence:
#
# PCOD9456633 Si02
#       6
#     8   8   8   8   8   8
#     4  10  22  37  53  79 109 146 180 215 264 323
#     4  11  21  35  57  83 107 140 179 221 276 319
#     4  10  22  37  54  77 112 145 179 217 263 321
#     4   9  19  35  54  78 104 140 182 222 258 315
#     4  11  21  37  55  82 112 139 175 229 272 312
#     4   9  19  35  55  76 105 140 184 219 258 317
#
# _framework density 26.599855999999999
#
# number of rings (size 3 to 8) (size 9 to 14) (size 15 to 20)
#    0.000    2.000    3.333    0.000    4.667    2.667 
#    0.000    0.000    0.000    2.000    0.000    0.000 
#    0.000    0.000    0.000    0.000    0.000    0.000 
#
# Total GULP energy -268730.504675 kJ/mol
# GULP energy per Si atom -5598.552181 kJ/mol
# Density = 2.653931 g / cm^3
# Si number density = 26.599856 Si / 1000 Ang^3
#
#
#
# Elastic Constant Matrix: (Units=GPa)
#
#
# Indices 1 2 3 4 5 6 
#
# 1 220.7618 12.0136 55.3775 0.0000 0.0000 0.0000
# 2 12.0136 43.5377 6.3232 0.0000 0.0000 0.0000
# 3 55.3775 6.3232 100.7410 0.0000 0.0000 0.0000
# 4 0.0000 0.0000 0.0000 34.0067 0.0000 0.0000
# 5 0.0000 0.0000 0.0000 0.0000 44.8497 0.0000
# 6 0.0000 0.0000 0.0000 0.0000 0.0000 12.7151
#
#
#
# Elastic Compliance Matrix: (Units=1/GPa)
#
#
# Indices 1 2 3 4 5 6 
#
# 1 0.005301 -0.001049 -0.002848 0.000000 0.000000 0.000000
# 2 -0.001049 0.023388 -0.000891 0.000000 0.000000 0.000000
# 3 -0.002848 -0.000891 0.011548 0.000000 0.000000 0.000000
# 4 0.000000 0.000000 0.000000 0.029406 0.000000 0.000000
# 5 0.000000 0.000000 0.000000 0.000000 0.022297 0.000000
# 6 0.000000 0.000000 0.000000 0.000000 0.000000 0.078647
#
#
# Mechanical properties :
#
#
# Convention : Reuss Voigt Hill
#
# Bulk Modulus (GPa) = 32.61625 56.94104 44.77864
# Shear Modulus (GPa) = 26.26275 37.73603 31.99939
#
# Velocity S-wave (km/s) = 3.14558 3.77059 3.47218
# Velocity P-wave (km/s) = 5.04791 6.35684 5.73981
#
# Compressibility (1/GPa) = 0.03065956
#
# Stress axis : x y z
#
# Youngs Moduli (GPa) = 188.63106 42.75782 86.59430
#
# Poissons Ratio (x) = 0.04486 0.24665
# Poissons Ratio (y) = 0.19790 0.07718
# Poissons Ratio (z) = 0.53728 0.03811
#
# Static dielectric constant tensor:
#      x y z
#    x 2.109220 0.000000 0.000000 
#    y 0.000000 2.087610 0.000000 
#    z 0.000000 0.000000 2.047710 
# 
# From -- ./inp_files/5878.got.cif
#   From: 2010.05.17/outbox.cif.g08.bks.cpg/sg60_3_cif.got.tgz:5878.got - 2010.06.03 14:59:27.
