data_PCOD9456274
_publ_section_title
;
Structure prediction by ZEFSAII (Michael W. Deem and Ramdas Pophale) SiO2 
 PCOD9456274
Probable space group: P B C N
;
_chemical_formula_sum "Si O2"
_cell_formula_units_Z 60
_cell_length_a 5.546066
_cell_length_b 17.700120
_cell_length_c 25.604003
_cell_angle_alpha 90.000000
_cell_angle_beta 90.000000
_cell_angle_gamma 90.000000
_cell_volume 2513.443422
_symmetry_space_group_name_H-M "P B C N"
_symmetry_group_IT_number 60
_symmetry_cell_setting 'orthorhombic'
loop_
_space_group_symop_operation_xyz
x,y,z
1/2-x,1/2-y,1/2+z
1/2+x,1/2-y,-z
-x,y,1/2-z
-x,-y,-z
1/2+x,1/2+y,1/2-z
1/2-x,1/2+y,z
x,-y,1/2+z
loop_
_atom_site_type_symbol
_atom_site_label
_atom_site_fract_x
_atom_site_fract_y
_atom_site_fract_z
Si Si1 0.787604 0.860787 0.604381
Si Si2 0.500000 0.265023 0.250000
Si Si3 0.793566 0.878555 0.167327
Si Si4 0.507934 0.972042 0.557871
Si Si5 0.602178 0.293892 0.060929
Si Si6 0.795578 0.464692 0.343412
Si Si7 0.403865 0.124355 0.195357
Si Si8 0.720163 0.317363 0.941487
O O1 0.768491 0.945935 0.580375
O O2 0.732478 0.787355 0.567562
O O3 0.624876 0.860485 0.655299
O O4 0.065056 0.839229 0.609179
O O5 0.338401 0.314271 0.289199
O O6 0.333359 0.208535 0.214734
O O7 0.800745 0.844870 0.107891
O O8 0.542684 0.923580 0.176683
O O9 0.044911 0.925016 0.169467
O O10 0.401090 0.887958 0.559221
O O11 0.500000 0.000000 0.500000
O O12 0.360562 0.027029 0.595088
O O13 0.327106 0.265873 0.067608
O O14 0.631770 0.321104 0.001719
O O15 0.767698 0.551156 0.325275
O O16 0.500000 0.092227 0.250000
#
# Coordination Sequence:
#
# PCOD9456274 Si02
#       8
#     8   4   8   8   8   8   8   8
#     4  10  21  40  64  97 137 179 248 294 366 439
#     4  10  24  46  80 106 140 186 248 306 368 446
#     4  12  28  47  75 109 146 187 245 309 367 434
#     4  10  24  42  63  95 140 199 245 291 358 447
#     4  11  22  40  64 103 141 188 238 303 367 424
#     4  11  28  48  74 106 151 190 240 303 373 436
#     4   9  21  48  74 101 137 192 238 300 370 447
#     4  11  23  36  69  98 144 191 250 297 366 441
#
# _framework density 23.871635000000001
#
# number of rings (size 3 to 8) (size 9 to 14) (size 15 to 20)
#    0.400    1.067    2.667    0.800    9.333    0.533 
#    0.000    2.667    0.000    0.000    0.000    0.000 
#    0.000    0.000    0.000    0.000    0.000    0.000 
#
# Total GULP energy -334013.735413 kJ/mol
# GULP energy per Si atom -5566.895590 kJ/mol
# Density = 2.381730 g / cm^3
# Si number density = 23.871635 Si / 1000 Ang^3
#
#
#
# Elastic Constant Matrix: (Units=GPa)
#
#
# Indices 1 2 3 4 5 6 
#
# 1 61.6506 49.1098 2.6278 0.0000 0.0000 0.0000
# 2 49.1098 110.0113 38.6543 0.0000 0.0000 0.0000
# 3 2.6278 38.6543 120.6117 0.0000 0.0000 0.0000
# 4 0.0000 0.0000 0.0000 37.8920 0.0000 0.0000
# 5 0.0000 0.0000 0.0000 0.0000 6.9861 0.0000
# 6 0.0000 0.0000 0.0000 0.0000 0.0000 133.5268
#
#
#
# Elastic Compliance Matrix: (Units=1/GPa)
#
#
# Indices 1 2 3 4 5 6 
#
# 1 0.026505 -0.013105 0.003622 0.000000 0.000000 0.000000
# 2 -0.013105 0.016723 -0.005074 0.000000 0.000000 0.000000
# 3 0.003622 -0.005074 0.009838 0.000000 0.000000 0.000000
# 4 0.000000 0.000000 0.000000 0.026391 0.000000 0.000000
# 5 0.000000 0.000000 0.000000 0.000000 0.143142 0.000000
# 6 0.000000 0.000000 0.000000 0.000000 0.000000 0.007489
#
#
# Mechanical properties :
#
#
# Convention : Reuss Voigt Hill
#
# Bulk Modulus (GPa) = 41.74738 52.56192 47.15465
# Shear Modulus (GPa) = 18.71362 49.13977 33.92669
#
# Velocity S-wave (km/s) = 2.80291 4.54199 3.77399
# Velocity P-wave (km/s) = 5.29163 7.04078 6.22792
#
# Compressibility (1/GPa) = 0.02395360
#
# Stress axis : x y z
#
# Youngs Moduli (GPa) = 37.72849 59.79825 101.64395
#
# Poissons Ratio (x) = 0.78365 -0.36820
# Poissons Ratio (y) = 0.49443 0.51573
# Poissons Ratio (z) = -0.13667 0.30341
#
# Static dielectric constant tensor:
#      x y z
#    x 6.341520 0.000000 0.000000 
#    y 0.000000 1.414670 0.000000 
#    z 0.000000 0.000000 2.071100 
# 
# From -- ./inp_files/24997.got.cif
#   From: 2010.05.17/outbox.cif.g08.bks.cpg/sg60_13_cif.got.tgz:24997.got - 2010.06.03 14:59:27.
