data_PCOD9456959
_publ_section_title
;
Structure prediction by ZEFSAII (Michael W. Deem and Ramdas Pophale) SiO2 
 PCOD9456959
Probable space group: P B C N
;
_chemical_formula_sum "Si O2"
_cell_formula_units_Z 48
_cell_length_a 8.113236
_cell_length_b 31.459572
_cell_length_c 9.324148
_cell_angle_alpha 90.000000
_cell_angle_beta 90.000000
_cell_angle_gamma 90.000000
_cell_volume 2379.885578
_symmetry_space_group_name_H-M "P B C N"
_symmetry_group_IT_number 60
_symmetry_cell_setting 'orthorhombic'
loop_
_space_group_symop_operation_xyz
x,y,z
1/2-x,1/2-y,1/2+z
1/2+x,1/2-y,-z
-x,y,1/2-z
-x,-y,-z
1/2+x,1/2+y,1/2-z
1/2-x,1/2+y,z
x,-y,1/2+z
loop_
_atom_site_type_symbol
_atom_site_label
_atom_site_fract_x
_atom_site_fract_y
_atom_site_fract_z
Si Si1 0.625315 0.739052 0.629088
Si Si2 0.136571 0.709957 0.659868
Si Si3 0.500000 0.421647 0.250000
Si Si4 0.556166 0.656508 0.947739
Si Si5 0.809797 0.556675 0.274886
Si Si6 0.500000 0.620584 0.250000
Si Si7 0.819029 0.013644 0.559964
O O1 0.500000 0.755009 0.750000
O O2 0.597714 0.763261 0.481962
O O3 0.797142 0.740884 0.712856
O O4 0.586559 0.689167 0.601583
O O5 0.279002 0.679500 0.603027
O O6 0.000000 0.684937 0.750000
O O7 0.448689 0.389561 0.124463
O O8 0.640672 0.451120 0.181443
O O9 0.539458 0.649392 0.114552
O O10 0.663562 0.591853 0.276570
O O11 0.764675 0.525222 0.143319
O O12 0.785064 0.531942 0.426608
O O13 0.000000 0.571058 0.250000
O O14 0.000000 0.000000 0.500000
#
# Coordination Sequence:
#
# PCOD9456959 Si02
#       7
#     8   8   4   8   8   4   8
#     4  10  22  41  66  93 127 180 227 276 353 416
#     4  11  22  41  65  97 132 166 235 289 334 422
#     4  12  19  42  70  86 136 184 212 274 354 412
#     4  11  24  43  65  93 130 185 218 272 368 403
#     4  12  25  44  69 104 132 178 236 276 336 414
#     4  12  25  46  68  92 146 178 222 290 344 408
#     4  12  21  42  74  95 136 184 222 278 343 409
#
# _framework density 20.169035999999998
#
# number of rings (size 3 to 8) (size 9 to 14) (size 15 to 20)
#    0.000    0.667    7.500    2.500    3.500    0.000 
#    6.000    0.000    0.000    0.000    0.000    0.000 
#    0.000    0.000    0.000    0.000    0.000    0.000 
#
# Total GULP energy -267743.907608 kJ/mol
# GULP energy per Si atom -5577.998075 kJ/mol
# Density = 2.012313 g / cm^3
# Si number density = 20.169036 Si / 1000 Ang^3
#
#
#
# Elastic Constant Matrix: (Units=GPa)
#
#
# Indices 1 2 3 4 5 6 
#
# 1 90.3721 19.6192 47.8371 0.0000 0.0000 0.0000
# 2 19.6192 53.1045 32.7526 0.0000 0.0000 0.0000
# 3 47.8371 32.7526 171.3921 0.0000 0.0000 0.0000
# 4 0.0000 0.0000 0.0000 43.7615 0.0000 0.0000
# 5 0.0000 0.0000 0.0000 0.0000 33.0398 0.0000
# 6 0.0000 0.0000 0.0000 0.0000 0.0000 -3.4772
#
#
#
# Elastic Compliance Matrix: (Units=1/GPa)
#
#
# Indices 1 2 3 4 5 6 
#
# 1 0.013391 -0.002995 -0.003165 0.000000 0.000000 0.000000
# 2 -0.002995 0.022017 -0.003371 0.000000 0.000000 0.000000
# 3 -0.003165 -0.003371 0.007362 0.000000 0.000000 0.000000
# 4 0.000000 0.000000 0.000000 0.022851 0.000000 0.000000
# 5 0.000000 0.000000 0.000000 0.000000 0.030267 0.000000
# 6 0.000000 0.000000 0.000000 0.000000 0.000000 -0.287587
#
#
# Mechanical properties :
#
#
# Convention : Reuss Voigt Hill
#
# Bulk Modulus (GPa) = 42.18233 57.25406 49.71820
# Shear Modulus (GPa) = -30.35191 28.97547 -0.68822
#
# Velocity S-wave (km/s) = -3.88348 3.79440 -0.58478
# Velocity P-wave (km/s) = 0.92262 6.90256 4.92426
#
# Compressibility (1/GPa) = 0.02370661
#
# Stress axis : x y z
#
# Youngs Moduli (GPa) = 74.67688 45.42018 135.82763
#
# Poissons Ratio (x) = 0.13604 0.42992
# Poissons Ratio (y) = 0.22366 0.45793
# Poissons Ratio (z) = 0.23637 0.15313
#
# Static dielectric constant tensor:
#      x y z
#    x 1.979690 0.000000 0.000000 
#    y 0.000000 1.713140 0.000000 
#    z 0.000000 0.000000 1.751310 
# 
# From -- ./inp_files/4259.got.cif
#   From: 2010.05.17/outbox.cif.g08.bks.cpg/sg60_3_cif.got.tgz:4259.got - 2010.06.03 14:59:27.
