data_PCOD9456836
_publ_section_title
;
Structure prediction by ZEFSAII (Michael W. Deem and Ramdas Pophale) SiO2 
 PCOD9456836
Probable space group: P B C N
;
_chemical_formula_sum "Si O2"
_cell_formula_units_Z 56
_cell_length_a 5.239915
_cell_length_b 30.536254
_cell_length_c 16.147475
_cell_angle_alpha 90.000000
_cell_angle_beta 90.000000
_cell_angle_gamma 90.000000
_cell_volume 2583.715094
_symmetry_space_group_name_H-M "P B C N"
_symmetry_group_IT_number 60
_symmetry_cell_setting 'orthorhombic'
loop_
_space_group_symop_operation_xyz
x,y,z
1/2-x,1/2-y,1/2+z
1/2+x,1/2-y,-z
-x,y,1/2-z
-x,-y,-z
1/2+x,1/2+y,1/2-z
1/2-x,1/2+y,z
x,-y,1/2+z
loop_
_atom_site_type_symbol
_atom_site_label
_atom_site_fract_x
_atom_site_fract_y
_atom_site_fract_z
Si Si1 0.754390 0.123888 0.057825
Si Si2 0.754389 0.123888 0.557825
Si Si3 0.876275 0.297351 0.165414
Si Si4 0.000001 0.275400 0.000000
Si Si5 0.747295 0.551603 0.695211
Si Si6 0.123726 0.702649 0.334586
Si Si7 0.252705 0.551602 0.304789
O O1 0.790759 0.164860 0.121372
O O2 0.733657 0.080995 0.113904
O O3 0.500000 0.128811 0.000000
O O4 0.000000 0.122059 0.000000
O O5 0.790758 0.164860 0.621372
O O6 0.733657 0.080995 0.613903
O O7 0.750000 0.250000 0.186456
O O8 0.000000 0.313729 0.250000
O O9 0.080744 0.293490 0.090217
O O10 0.250001 0.250000 0.973935
O O11 0.919257 0.293490 0.909783
O O12 0.500000 0.563573 0.750000
O O13 0.726429 0.500000 0.674578
O O14 0.000000 0.557909 0.750000
O O15 0.000000 0.686271 0.250000
O O16 0.500000 0.563572 0.250000
O O17 0.000000 0.557909 0.250000
#
# Coordination Sequence:
#
# PCOD9456836 Si02
#       7
#     8   8   8   8   8   8   8
#     4  12  27  43  68 100 140 180 224 286 342 406
#     4  12  27  43  68 100 140 180 224 286 342 406
#     4  11  25  42  69  96 135 180 236 280 346 398
#     4  10  22  40  64  88 127 166 219 280 330 390
#     4  10  22  44  72 100 135 177 225 281 338 406
#     4  11  25  42  69  96 135 180 236 280 346 398
#     4  10  22  44  72 100 135 177 225 281 338 406
#
# _framework density 21.674216000000001
#
# number of rings (size 3 to 8) (size 9 to 14) (size 15 to 20)
#    0.000    1.143    1.429    3.429    8.000    4.571 
#    0.000    0.000    0.000    0.000    0.000    0.000 
#    0.000    0.000    0.000    0.000    0.000    0.000 
#
# Total GULP energy -312050.215479 kJ/mol
# GULP energy per Si atom -5572.325276 kJ/mol
# Density = 2.162488 g / cm^3
# Si number density = 21.674216 Si / 1000 Ang^3
#
#
#
# Elastic Constant Matrix: (Units=GPa)
#
#
# Indices 1 2 3 4 5 6 
#
# 1 120.7027 42.8731 50.1648 0.0000 0.0000 0.0000
# 2 42.8731 107.8559 68.2307 0.0000 0.0000 0.0000
# 3 50.1648 68.2307 177.6693 0.0000 0.0000 0.0000
# 4 0.0000 0.0000 0.0000 648.8306 0.0000 0.0000
# 5 0.0000 0.0000 0.0000 0.0000 31.8783 0.0000
# 6 0.0000 0.0000 0.0000 0.0000 0.0000 -2.5321
#
#
#
# Elastic Compliance Matrix: (Units=1/GPa)
#
#
# Indices 1 2 3 4 5 6 
#
# 1 0.010029 -0.002900 -0.001718 0.000000 0.000000 0.000000
# 2 -0.002900 0.013085 -0.004206 0.000000 0.000000 0.000000
# 3 -0.001718 -0.004206 0.007729 0.000000 0.000000 0.000000
# 4 0.000000 0.000000 0.000000 0.001541 0.000000 0.000000
# 5 0.000000 0.000000 0.000000 0.000000 0.031369 0.000000
# 6 0.000000 0.000000 0.000000 0.000000 0.000000 -0.394931
#
#
# Mechanical properties :
#
#
# Convention : Reuss Voigt Hill
#
# Bulk Modulus (GPa) = 75.78790 80.97392 78.38091
# Shear Modulus (GPa) = -16.17437 151.96598 67.89580
#
# Velocity S-wave (km/s) = -2.73472 8.38248 5.60300
# Velocity P-wave (km/s) = 5.00711 11.45114 8.83741
#
# Compressibility (1/GPa) = 0.01319472
#
# Stress axis : x y z
#
# Youngs Moduli (GPa) = 99.71288 76.42171 129.38360
#
# Poissons Ratio (x) = 0.22159 0.22229
# Poissons Ratio (y) = 0.28913 0.54425
# Poissons Ratio (z) = 0.17131 0.32147
#
# Static dielectric constant tensor:
#      x y z
#    x 1.809760 0.000000 0.000000 
#    y 0.000000 1.942230 0.000000 
#    z 0.000000 0.000000 1.818510 
# 
# From -- ./inp_files/14096.got.cif
#   From: 2010.05.17/outbox.cif.g08.bks.cpg/sg60_8_cif.got.tgz:14096.got - 2010.06.03 14:59:27.
