data_PCOD9456479
_publ_section_title
;
Structure prediction by ZEFSAII (Michael W. Deem and Ramdas Pophale) SiO2 
 PCOD9456479
Probable space group: P B C N
;
_chemical_formula_sum "Si O2"
_cell_formula_units_Z 40
_cell_length_a 5.736053
_cell_length_b 23.994858
_cell_length_c 12.131254
_cell_angle_alpha 90.000000
_cell_angle_beta 90.000000
_cell_angle_gamma 90.000000
_cell_volume 1669.694573
_symmetry_space_group_name_H-M "P B C N"
_symmetry_group_IT_number 60
_symmetry_cell_setting 'orthorhombic'
loop_
_space_group_symop_operation_xyz
x,y,z
1/2-x,1/2-y,1/2+z
1/2+x,1/2-y,-z
-x,y,1/2-z
-x,-y,-z
1/2+x,1/2+y,1/2-z
1/2-x,1/2+y,z
x,-y,1/2+z
loop_
_atom_site_type_symbol
_atom_site_label
_atom_site_fract_x
_atom_site_fract_y
_atom_site_fract_z
Si Si1 0.794589 0.868644 0.083651
Si Si2 0.614859 0.060530 0.999390
Si Si3 0.667845 0.751953 0.564918
Si Si4 0.265921 0.464739 0.232206
Si Si5 0.627960 0.365438 0.634543
O O1 0.810157 0.806238 0.130398
O O2 0.795810 0.912884 0.183808
O O3 0.553171 0.888370 0.029126
O O4 0.964211 0.866692 0.975845
O O5 0.725454 0.078653 0.113426
O O6 0.780114 0.054788 0.894223
O O7 0.500000 0.000000 0.000000
O O8 0.402689 0.753092 0.514811
O O9 0.719235 0.809106 0.628305
O O10 0.500000 0.500143 0.250000
O O11 0.000000 0.484527 0.250000
O O12 0.500000 0.365444 0.750000
#
# Coordination Sequence:
#
# PCOD9456479 Si02
#       5
#     8   8   8   8   8
#     4  10  22  45  70 103 143 191 254 301 369 455
#     4  11  24  46  69 103 147 196 251 314 375 453
#     4  10  21  42  72 102 147 192 242 303 367 448
#     4  10  21  42  72 100 131 183 247 298 353 426
#     4  11  24  44  69 109 154 200 243 314 392 455
#
# _framework density 23.956479999999999
#
# number of rings (size 3 to 8) (size 9 to 14) (size 15 to 20)
#    0.000    1.600    4.000    0.000    0.000    4.000 
#   10.800    0.000    0.000    0.000    0.000    0.000 
#    0.000    0.000    0.000    0.000    0.000    0.000 
#
# Total GULP energy -222768.290904 kJ/mol
# GULP energy per Si atom -5569.207273 kJ/mol
# Density = 2.390195 g / cm^3
# Si number density = 23.956480 Si / 1000 Ang^3
#
#
#
# Elastic Constant Matrix: (Units=GPa)
#
#
# Indices 1 2 3 4 5 6 
#
# 1 105.8816 32.5886 14.1154 0.0000 0.0000 0.0000
# 2 32.5886 114.2263 48.6924 0.0000 0.0000 0.0000
# 3 14.1154 48.6924 114.9643 0.0000 0.0000 0.0000
# 4 0.0000 0.0000 0.0000 149.3032 0.0000 0.0000
# 5 0.0000 0.0000 0.0000 0.0000 36.7916 0.0000
# 6 0.0000 0.0000 0.0000 0.0000 0.0000 -9.5966
#
#
#
# Elastic Compliance Matrix: (Units=1/GPa)
#
#
# Indices 1 2 3 4 5 6 
#
# 1 0.010354 -0.002943 -0.000025 0.000000 0.000000 0.000000
# 2 -0.002943 0.011520 -0.004518 0.000000 0.000000 0.000000
# 3 -0.000025 -0.004518 0.010615 0.000000 0.000000 0.000000
# 4 0.000000 0.000000 0.000000 0.006698 0.000000 0.000000
# 5 0.000000 0.000000 0.000000 0.000000 0.027180 0.000000
# 6 0.000000 0.000000 0.000000 0.000000 0.000000 -0.104204
#
#
# Mechanical properties :
#
#
# Convention : Reuss Voigt Hill
#
# Bulk Modulus (GPa) = 57.08737 58.42945 57.75841
# Shear Modulus (GPa) = -293.66590 51.27802 -121.19394
#
# Velocity S-wave (km/s) = -11.08374 4.63154 -7.12033
# Velocity P-wave (km/s) = 11.82868 7.28315 6.59065
#
# Compressibility (1/GPa) = 0.01751701
#
# Stress axis : x y z
#
# Youngs Moduli (GPa) = 96.58358 86.80396 94.20718
#
# Poissons Ratio (x) = 0.25550 0.00231
# Poissons Ratio (y) = 0.28429 0.42562
# Poissons Ratio (z) = 0.00237 0.39217
#
# Static dielectric constant tensor:
#      x y z
#    x 2.100580 0.000000 0.000000 
#    y 0.000000 1.932650 0.000000 
#    z 0.000000 0.000000 1.903130 
# 
# From -- ./inp_files/9097.got.cif
#   From: 2010.05.17/outbox.cif.g08.bks.cpg/sg60_5_cif.got.tgz:9097.got - 2010.06.03 14:59:27.
