data_PCOD9456060
_publ_section_title
;
Structure prediction by ZEFSAII (Michael W. Deem and Ramdas Pophale) SiO2 
 PCOD9456060
Probable space group: P B C N
;
_chemical_formula_sum "Si O2"
_cell_formula_units_Z 48
_cell_length_a 17.717315
_cell_length_b 25.388490
_cell_length_c 4.896760
_cell_angle_alpha 90.000000
_cell_angle_beta 90.000000
_cell_angle_gamma 90.000000
_cell_volume 2202.640383
_symmetry_space_group_name_H-M "P B C N"
_symmetry_group_IT_number 60
_symmetry_cell_setting 'orthorhombic'
loop_
_space_group_symop_operation_xyz
x,y,z
1/2-x,1/2-y,1/2+z
1/2+x,1/2-y,-z
-x,y,1/2-z
-x,-y,-z
1/2+x,1/2+y,1/2-z
1/2-x,1/2+y,z
x,-y,1/2+z
loop_
_atom_site_type_symbol
_atom_site_label
_atom_site_fract_x
_atom_site_fract_y
_atom_site_fract_z
Si Si1 0.663832 0.536954 0.754645
Si Si2 0.000000 0.039975 0.750000
Si Si3 0.289608 0.725462 0.173343
Si Si4 0.722824 0.117585 0.483022
Si Si5 0.877339 0.620212 0.978908
Si Si6 0.052134 0.270906 0.987110
Si Si7 0.500000 0.960000 0.250000
O O1 0.667796 0.484929 0.561856
O O2 0.582180 0.566122 0.734429
O O3 0.728781 0.573708 0.638419
O O4 0.000000 0.000000 0.500000
O O5 0.229578 0.755401 0.977279
O O6 0.273424 0.663590 0.144182
O O7 0.372939 0.739365 0.069250
O O8 0.673441 0.141597 0.729844
O O9 0.670912 0.097375 0.232132
O O10 0.920971 0.670501 0.099036
O O11 0.931008 0.578463 0.829077
O O12 0.000000 0.277185 0.250000
O O13 0.000000 0.247256 0.750000
O O14 0.500000 0.000000 0.500000
#
# Coordination Sequence:
#
# PCOD9456060 Si02
#       7
#     8   4   8   8   8   8   4
#     4  10  21  38  63  90 123 163 209 257 316 386
#     4   8  16  34  58  82 112 158 198 238 304 380
#     4  12  23  43  67  97 131 170 213 270 334 388
#     4  12  24  41  67  97 128 168 217 271 324 396
#     4  12  25  42  68  90 125 180 219 259 335 394
#     4  12  24  42  70  95 127 172 221 269 325 408
#     4  12  28  44  62  96 138 172 226 288 324 378
#
# _framework density 21.792027999999998
#
# number of rings (size 3 to 8) (size 9 to 14) (size 15 to 20)
#    0.000    0.667    4.167    4.000    1.167    4.000 
#    1.500    0.000    7.333    0.000    0.000    0.000 
#    0.000    0.000    0.000    0.000    0.000    0.000 
#
# Total GULP energy -268153.114583 kJ/mol
# GULP energy per Si atom -5586.523220 kJ/mol
# Density = 2.174243 g / cm^3
# Si number density = 21.792028 Si / 1000 Ang^3
#
#
#
# Elastic Constant Matrix: (Units=GPa)
#
#
# Indices 1 2 3 4 5 6 
#
# 1 118.7943 20.9942 19.7911 0.0000 0.0000 0.0000
# 2 20.9942 45.9447 -15.2558 0.0000 0.0000 0.0000
# 3 19.7911 -15.2558 102.7950 0.0000 0.0000 0.0000
# 4 0.0000 0.0000 0.0000 15.0449 0.0000 0.0000
# 5 0.0000 0.0000 0.0000 0.0000 43.5988 0.0000
# 6 0.0000 0.0000 0.0000 0.0000 0.0000 14.7141
#
#
#
# Elastic Compliance Matrix: (Units=1/GPa)
#
#
# Indices 1 2 3 4 5 6 
#
# 1 0.009816 -0.005378 -0.002688 0.000000 0.000000 0.000000
# 2 -0.005378 0.025840 0.004870 0.000000 0.000000 0.000000
# 3 -0.002688 0.004870 0.010968 0.000000 0.000000 0.000000
# 4 0.000000 0.000000 0.000000 0.066468 0.000000 0.000000
# 5 0.000000 0.000000 0.000000 0.000000 0.022936 0.000000
# 6 0.000000 0.000000 0.000000 0.000000 0.000000 0.067962
#
#
# Mechanical properties :
#
#
# Convention : Reuss Voigt Hill
#
# Bulk Modulus (GPa) = 24.85516 35.39921 30.12719
# Shear Modulus (GPa) = 22.34206 30.80519 26.57363
#
# Velocity S-wave (km/s) = 3.20541 3.76387 3.49581
# Velocity P-wave (km/s) = 5.01298 5.93029 5.49082
#
# Compressibility (1/GPa) = 0.04023309
#
# Stress axis : x y z
#
# Youngs Moduli (GPa) = 101.87255 38.69976 91.17064
#
# Poissons Ratio (x) = 0.20813 0.24507
# Poissons Ratio (y) = 0.54787 -0.44403
# Poissons Ratio (z) = 0.27384 -0.18848
#
# Static dielectric constant tensor:
#      x y z
#    x 1.877950 0.000000 0.000000 
#    y 0.000000 1.795750 0.000000 
#    z 0.000000 0.000000 1.768430 
# 
# From -- ./inp_files/1357.got.cif
#   From: 2010.05.17/outbox.cif.g08.bks.cpg/sg60_1_cif.got.tgz:1357.got - 2010.06.03 14:59:27.
