data_PCOD9456231
_publ_section_title
;
Structure prediction by ZEFSAII (Michael W. Deem and Ramdas Pophale) SiO2 
 PCOD9456231
Probable space group: P B C N
;
_chemical_formula_sum "Si O2"
_cell_formula_units_Z 20
_cell_length_a 9.394250
_cell_length_b 10.082557
_cell_length_c 7.883591
_cell_angle_alpha 90.000000
_cell_angle_beta 90.000000
_cell_angle_gamma 90.000000
_cell_volume 746.718454
_symmetry_space_group_name_H-M "P B C N"
_symmetry_group_IT_number 60
_symmetry_cell_setting 'orthorhombic'
loop_
_space_group_symop_operation_xyz
x,y,z
1/2-x,1/2-y,1/2+z
1/2+x,1/2-y,-z
-x,y,1/2-z
-x,-y,-z
1/2+x,1/2+y,1/2-z
1/2-x,1/2+y,z
x,-y,1/2+z
loop_
_atom_site_type_symbol
_atom_site_label
_atom_site_fract_x
_atom_site_fract_y
_atom_site_fract_z
Si Si1 0.000000 0.082780 0.750000
Si Si2 0.185727 0.540861 0.796447
Si Si3 0.474042 0.177341 0.485008
O O1 0.848967 0.013039 0.741959
O O2 0.992380 0.175602 0.582125
O O3 0.121021 0.633835 0.647524
O O4 0.130698 0.621837 0.963251
O O5 0.111944 0.401243 0.838764
#
# Coordination Sequence:
#
# PCOD9456231 Si02
#       3
#     4   8   8
#     4  12  22  38  66  92 118 162 212 254 308 374
#     4  10  22  39  63  91 122 164 207 254 313 370
#     4  10  21  40  60  87 127 162 201 256 313 367
#
# _framework density 26.783854999999999
#
# number of rings (size 3 to 8) (size 9 to 14) (size 15 to 20)
#    0.000    1.600    0.000    7.200    0.000    1.600 
#    0.000    4.000    0.000    0.000    0.000    0.000 
#    0.000    0.000    0.000    0.000    0.000    0.000 
#
# Total GULP energy -111670.410011 kJ/mol
# GULP energy per Si atom -5583.520501 kJ/mol
# Density = 2.672289 g / cm^3
# Si number density = 26.783855 Si / 1000 Ang^3
#
#
#
# Elastic Constant Matrix: (Units=GPa)
#
#
# Indices 1 2 3 4 5 6 
#
# 1 258.7037 32.1560 82.3723 0.0000 0.0000 0.0000
# 2 32.1560 35.5673 22.6793 0.0000 0.0000 0.0000
# 3 82.3723 22.6793 143.4266 0.0000 0.0000 0.0000
# 4 0.0000 0.0000 0.0000 26.0297 0.0000 0.0000
# 5 0.0000 0.0000 0.0000 0.0000 41.1804 0.0000
# 6 0.0000 0.0000 0.0000 0.0000 0.0000 18.1528
#
#
#
# Elastic Compliance Matrix: (Units=1/GPa)
#
#
# Indices 1 2 3 4 5 6 
#
# 1 0.005001 -0.002992 -0.002399 0.000000 0.000000 0.000000
# 2 -0.002992 0.033058 -0.003509 0.000000 0.000000 0.000000
# 3 -0.002399 -0.003509 0.008905 0.000000 0.000000 0.000000
# 4 0.000000 0.000000 0.000000 0.038418 0.000000 0.000000
# 5 0.000000 0.000000 0.000000 0.000000 0.024283 0.000000
# 6 0.000000 0.000000 0.000000 0.000000 0.000000 0.055088
#
#
# Mechanical properties :
#
#
# Convention : Reuss Voigt Hill
#
# Bulk Modulus (GPa) = 34.28866 79.12366 56.70616
# Shear Modulus (GPa) = 26.00445 37.10523 31.55484
#
# Velocity S-wave (km/s) = 3.11931 3.72608 3.43611
# Velocity P-wave (km/s) = 5.07969 6.93666 6.07949
#
# Compressibility (1/GPa) = 0.02916416
#
# Stress axis : x y z
#
# Youngs Moduli (GPa) = 199.95187 30.24986 112.29650
#
# Poissons Ratio (x) = 0.09050 0.26942
# Poissons Ratio (y) = 0.59819 0.39406
# Poissons Ratio (z) = 0.47973 0.10615
#
# Static dielectric constant tensor:
#      x y z
#    x 2.104180 0.000000 0.000000 
#    y 0.000000 2.123400 0.000000 
#    z 0.000000 0.000000 2.346300 
# 
# From -- ./inp_files/3218.got.cif
#   From: 2010.05.17/outbox.cif.g08.bks.cpg/sg60_2_cif.got.tgz:3218.got - 2010.06.03 14:59:27.
