data_PCOD9456504
_publ_section_title
;
Structure prediction by ZEFSAII (Michael W. Deem and Ramdas Pophale) SiO2 
 PCOD9456504
Probable space group: P B C N
;
_chemical_formula_sum "Si O2"
_cell_formula_units_Z 52
_cell_length_a 8.545537
_cell_length_b 13.641104
_cell_length_c 18.268764
_cell_angle_alpha 90.000000
_cell_angle_beta 90.000000
_cell_angle_gamma 90.000000
_cell_volume 2129.600031
_symmetry_space_group_name_H-M "P B C N"
_symmetry_group_IT_number 60
_symmetry_cell_setting 'orthorhombic'
loop_
_space_group_symop_operation_xyz
x,y,z
1/2-x,1/2-y,1/2+z
1/2+x,1/2-y,-z
-x,y,1/2-z
-x,-y,-z
1/2+x,1/2+y,1/2-z
1/2-x,1/2+y,z
x,-y,1/2+z
loop_
_atom_site_type_symbol
_atom_site_label
_atom_site_fract_x
_atom_site_fract_y
_atom_site_fract_z
Si Si1 0.028256 0.937105 0.908038
Si Si2 0.000000 0.060444 0.250000
Si Si3 0.229181 0.117799 0.720457
Si Si4 0.075952 0.836271 0.363451
Si Si5 0.805995 0.400323 0.978409
Si Si6 0.532304 0.069829 0.900901
Si Si7 0.221644 0.698063 0.484303
O O1 0.017687 0.886924 0.827310
O O2 0.162383 0.880358 0.950020
O O3 0.055171 0.051977 0.892546
O O4 0.131728 0.072441 0.047132
O O5 0.850420 0.989192 0.264512
O O6 0.211310 0.165362 0.800472
O O7 0.391897 0.100927 0.677057
O O8 0.096670 0.175643 0.673271
O O9 0.126209 0.757296 0.422862
O O10 0.813394 0.284135 0.974852
O O11 0.860446 0.425288 0.062104
O O12 0.912729 0.460328 0.921809
O O13 0.619121 0.142030 0.957106
#
# Coordination Sequence:
#
# PCOD9456504 Si02
#       7
#     8   4   8   8   8   8   8
#     4  10  21  43  69  92 133 182 229 291 341 426
#     4   8  16  40  70  96 114 186 238 272 346 412
#     4   8  17  40  69  91 126 181 229 291 345 407
#     4   9  20  41  69  95 128 183 241 280 350 417
#     4  11  24  40  61  98 134 174 223 282 358 412
#     4  11  23  40  65  96 134 174 227 287 350 417
#     4  12  25  38  60 102 128 180 222 285 348 417
#
# _framework density 24.417731
#
# number of rings (size 3 to 8) (size 9 to 14) (size 15 to 20)
#    0.000    2.462    3.077    1.846    4.308    1.231 
#    5.538    0.000    0.000    0.000    0.000    0.000 
#    0.000    0.000    0.000    0.000    0.000    0.000 
#
# Total GULP energy -290355.507484 kJ/mol
# GULP energy per Si atom -5583.759759 kJ/mol
# Density = 2.436216 g / cm^3
# Si number density = 24.417731 Si / 1000 Ang^3
#
#
#
# Elastic Constant Matrix: (Units=GPa)
#
#
# Indices 1 2 3 4 5 6 
#
# 1 132.1970 26.2720 73.4303 0.0000 0.0000 0.0000
# 2 26.2720 97.8890 38.0085 0.0000 0.0000 0.0000
# 3 73.4303 38.0085 174.7906 0.0000 0.0000 0.0000
# 4 0.0000 0.0000 0.0000 18.0397 0.0000 0.0000
# 5 0.0000 0.0000 0.0000 0.0000 -32.7625 0.0000
# 6 0.0000 0.0000 0.0000 0.0000 0.0000 -18.2970
#
#
#
# Elastic Compliance Matrix: (Units=1/GPa)
#
#
# Indices 1 2 3 4 5 6 
#
# 1 0.009984 -0.001148 -0.003945 0.000000 0.000000 0.000000
# 2 -0.001148 0.011290 -0.001973 0.000000 0.000000 0.000000
# 3 -0.003945 -0.001973 0.007807 0.000000 0.000000 0.000000
# 4 0.000000 0.000000 0.000000 0.055433 0.000000 0.000000
# 5 0.000000 0.000000 0.000000 0.000000 -0.030523 0.000000
# 6 0.000000 0.000000 0.000000 0.000000 0.000000 -0.054654
#
#
# Mechanical properties :
#
#
# Convention : Reuss Voigt Hill
#
# Bulk Modulus (GPa) = 66.88858 75.58871 71.23865
# Shear Modulus (GPa) = 270.98936 11.20711 141.09824
#
# Velocity S-wave (km/s) = 10.54616 2.14469 7.60990
# Velocity P-wave (km/s) = 13.25701 6.09562 10.31758
#
# Compressibility (1/GPa) = 0.01495023
#
# Stress axis : x y z
#
# Youngs Moduli (GPa) = 100.16387 88.57628 128.08627
#
# Poissons Ratio (x) = 0.10167 0.50524
# Poissons Ratio (y) = 0.11497 0.25268
# Poissons Ratio (z) = 0.39510 0.17474
#
# Static dielectric constant tensor:
#      x y z
#    x 2.030160 0.000000 0.000000 
#    y 0.000000 1.911720 0.000000 
#    z 0.000000 0.000000 2.013470 
# 
# From -- ./inp_files/22718.got.cif
#   From: 2010.05.17/outbox.cif.g08.bks.cpg/sg60_12_cif.got.tgz:22718.got - 2010.06.03 14:59:27.
