data_PCOD9456777
_publ_section_title
;
Structure prediction by ZEFSAII (Michael W. Deem and Ramdas Pophale) SiO2 
 PCOD9456777
Probable space group: P B C N
;
_chemical_formula_sum "Si O2"
_cell_formula_units_Z 56
_cell_length_a 16.444049
_cell_length_b 14.949321
_cell_length_c 8.651842
_cell_angle_alpha 90.000000
_cell_angle_beta 90.000000
_cell_angle_gamma 90.000000
_cell_volume 2126.859539
_symmetry_space_group_name_H-M "P B C N"
_symmetry_group_IT_number 60
_symmetry_cell_setting 'orthorhombic'
loop_
_space_group_symop_operation_xyz
x,y,z
1/2-x,1/2-y,1/2+z
1/2+x,1/2-y,-z
-x,y,1/2-z
-x,-y,-z
1/2+x,1/2+y,1/2-z
1/2-x,1/2+y,z
x,-y,1/2+z
loop_
_atom_site_type_symbol
_atom_site_label
_atom_site_fract_x
_atom_site_fract_y
_atom_site_fract_z
Si Si1 0.890514 0.865573 0.514734
Si Si2 0.884407 0.010056 0.283212
Si Si3 0.286235 0.212308 0.459886
Si Si4 0.105558 0.527147 0.993969
Si Si5 0.776514 0.081429 0.537953
Si Si6 0.414677 0.800053 0.678793
Si Si7 0.581402 0.136249 0.819373
O O1 0.921884 0.921913 0.660094
O O2 0.791759 0.853727 0.537315
O O3 0.909843 0.765121 0.468631
O O4 0.923036 0.926485 0.372584
O O5 0.849313 0.071368 0.417883
O O6 0.811583 0.958267 0.194772
O O7 0.254311 0.314478 0.459269
O O8 0.341987 0.206857 0.304662
O O9 0.345599 0.194900 0.608746
O O10 0.202333 0.520955 0.016786
O O11 0.081795 0.599892 0.119802
O O12 0.065234 0.433085 0.038046
O O13 0.101893 0.569862 0.823140
O O14 0.500000 0.774939 0.750000
O O15 0.500000 0.182192 0.750000
#
# Coordination Sequence:
#
# PCOD9456777 Si02
#       7
#     8   8   8   8   8   8   8
#     4  11  23  43  70  97 137 173 237 286 349 411
#     4  10  22  39  65 101 130 172 222 297 340 404
#     4  12  25  42  69 103 138 182 236 289 351 423
#     4  12  23  41  68  94 138 185 229 280 351 424
#     4  11  21  39  66 101 134 170 233 286 347 397
#     4  12  26  45  68 101 144 188 230 293 359 425
#     4  12  26  43  65 101 142 186 230 282 354 435
#
# _framework density 26.329901
#
# number of rings (size 3 to 8) (size 9 to 14) (size 15 to 20)
#    0.000    0.571    2.857    6.857    2.000    0.000 
#    0.000    0.714    0.000    0.000    0.000    0.000 
#    0.000    0.000    0.000    0.000    0.000    0.000 
#
# Total GULP energy -313176.415520 kJ/mol
# GULP energy per Si atom -5592.435991 kJ/mol
# Density = 2.626997 g / cm^3
# Si number density = 26.329901 Si / 1000 Ang^3
#
#
#
# Elastic Constant Matrix: (Units=GPa)
#
#
# Indices 1 2 3 4 5 6 
#
# 1 71.9802 12.5879 26.5853 0.0000 0.0000 0.0000
# 2 12.5879 96.8417 10.9097 0.0000 0.0000 0.0000
# 3 26.5853 10.9097 92.7174 0.0000 0.0000 0.0000
# 4 0.0000 0.0000 0.0000 -38.4229 0.0000 0.0000
# 5 0.0000 0.0000 0.0000 0.0000 43.6699 0.0000
# 6 0.0000 0.0000 0.0000 0.0000 0.0000 23.5647
#
#
#
# Elastic Compliance Matrix: (Units=1/GPa)
#
#
# Indices 1 2 3 4 5 6 
#
# 1 0.015768 -0.001561 -0.004337 0.000000 0.000000 0.000000
# 2 -0.001561 0.010619 -0.000802 0.000000 0.000000 0.000000
# 3 -0.004337 -0.000802 0.012124 0.000000 0.000000 0.000000
# 4 0.000000 0.000000 0.000000 -0.026026 0.000000 0.000000
# 5 0.000000 0.000000 0.000000 0.000000 0.022899 0.000000
# 6 0.000000 0.000000 0.000000 0.000000 0.000000 0.042436
#
#
# Mechanical properties :
#
#
# Convention : Reuss Voigt Hill
#
# Bulk Modulus (GPa) = 39.82501 40.18948 40.00725
# Shear Modulus (GPa) = 50.20559 19.85944 35.03251
#
# Velocity S-wave (km/s) = 4.37142 2.74935 3.65159
# Velocity P-wave (km/s) = 6.37474 5.03741 5.74512
#
# Compressibility (1/GPa) = 0.02510985
#
# Stress axis : x y z
#
# Youngs Moduli (GPa) = 63.42084 94.16751 82.48420
#
# Poissons Ratio (x) = 0.14699 0.35777
# Poissons Ratio (y) = 0.09899 0.06615
# Poissons Ratio (z) = 0.27509 0.07552
#
# Static dielectric constant tensor:
#      x y z
#    x 2.209050 0.000000 0.000000 
#    y 0.000000 2.039990 0.000000 
#    z 0.000000 0.000000 2.096350 
# 
# From -- ./inp_files/7424.got.cif
#   From: 2010.05.17/outbox.cif.g08.bks.cpg/sg60_4_cif.got.tgz:7424.got - 2010.06.03 14:59:27.
