data_PCOD9456572
_publ_section_title
;
Structure prediction by ZEFSAII (Michael W. Deem and Ramdas Pophale) SiO2 
 PCOD9456572
Probable space group: P B C N
;
_chemical_formula_sum "Si O2"
_cell_formula_units_Z 44
_cell_length_a 17.887647
_cell_length_b 10.452970
_cell_length_c 9.503042
_cell_angle_alpha 90.000000
_cell_angle_beta 90.000000
_cell_angle_gamma 90.000000
_cell_volume 1776.869646
_symmetry_space_group_name_H-M "P B C N"
_symmetry_group_IT_number 60
_symmetry_cell_setting 'orthorhombic'
loop_
_space_group_symop_operation_xyz
x,y,z
1/2-x,1/2-y,1/2+z
1/2+x,1/2-y,-z
-x,y,1/2-z
-x,-y,-z
1/2+x,1/2+y,1/2-z
1/2-x,1/2+y,z
x,-y,1/2+z
loop_
_atom_site_type_symbol
_atom_site_label
_atom_site_fract_x
_atom_site_fract_y
_atom_site_fract_z
Si Si1 0.500000 0.399317 0.750000
Si Si2 0.500000 0.200782 0.250000
Si Si3 0.120209 0.899829 0.313696
Si Si4 0.152811 0.506768 0.968901
Si Si5 0.371943 0.256394 0.600773
Si Si6 0.754293 0.916392 0.784844
Si Si7 0.500000 0.000000 0.500000
O O1 0.441957 0.489287 0.835209
O O2 0.449175 0.313987 0.651400
O O3 0.573292 0.289156 0.261357
O O4 0.497434 0.111433 0.383445
O O5 0.146784 0.836465 0.458969
O O6 0.186406 0.965888 0.225821
O O7 0.200394 0.439316 0.847269
O O8 0.119672 0.392772 0.069066
O O9 0.205765 0.582625 0.073956
O O10 0.076421 0.570254 0.922230
O O11 0.306041 0.290115 0.710639
#
# Coordination Sequence:
#
# PCOD9456572 Si02
#       7
#     4   4   8   8   8   8   4
#     4   9  22  39  74 102 136 175 234 291 342 426
#     4  11  24  47  72 102 142 191 232 295 354 432
#     4  10  21  47  72 101 137 183 234 293 356 411
#     4  12  27  44  70 100 145 187 232 292 357 434
#     4  11  23  44  70 104 140 179 236 288 361 416
#     4  11  26  47  73 104 142 185 241 297 353 428
#     4  12  26  46  68 100 144 188 240 284 362 432
#
# _framework density 24.762650000000001
#
# number of rings (size 3 to 8) (size 9 to 14) (size 15 to 20)
#    0.000    1.091    3.636    1.636    2.545    2.182 
#    0.000    1.818    0.000    0.000    0.000    0.000 
#    0.000    0.000    0.000    0.000    0.000    0.000 
#
# Total GULP energy -245366.996170 kJ/mol
# GULP energy per Si atom -5576.522640 kJ/mol
# Density = 2.470629 g / cm^3
# Si number density = 24.762650 Si / 1000 Ang^3
#
#
#
# Elastic Constant Matrix: (Units=GPa)
#
#
# Indices 1 2 3 4 5 6 
#
# 1 114.7855 3.2636 23.1946 0.0000 0.0000 0.0000
# 2 3.2636 65.3500 -2.6845 0.0000 0.0000 0.0000
# 3 23.1946 -2.6845 36.6582 0.0000 0.0000 0.0000
# 4 0.0000 0.0000 0.0000 17.1423 0.0000 0.0000
# 5 0.0000 0.0000 0.0000 0.0000 26.2879 0.0000
# 6 0.0000 0.0000 0.0000 0.0000 0.0000 81.9985
#
#
#
# Elastic Compliance Matrix: (Units=1/GPa)
#
#
# Indices 1 2 3 4 5 6 
#
# 1 0.010027 -0.000764 -0.006400 0.000000 0.000000 0.000000
# 2 -0.000764 0.015407 0.001611 0.000000 0.000000 0.000000
# 3 -0.006400 0.001611 0.031447 0.000000 0.000000 0.000000
# 4 0.000000 0.000000 0.000000 0.058335 0.000000 0.000000
# 5 0.000000 0.000000 0.000000 0.000000 0.038040 0.000000
# 6 0.000000 0.000000 0.000000 0.000000 0.000000 0.012195
#
#
# Mechanical properties :
#
#
# Convention : Reuss Voigt Hill
#
# Bulk Modulus (GPa) = 21.84591 29.37125 25.60858
# Shear Modulus (GPa) = 26.06689 37.95373 32.01031
#
# Velocity S-wave (km/s) = 3.24801 3.91922 3.59929
# Velocity P-wave (km/s) = 4.78616 5.68922 5.25712
#
# Compressibility (1/GPa) = 0.04577516
#
# Stress axis : x y z
#
# Youngs Moduli (GPa) = 99.73171 64.90745 31.79995
#
# Poissons Ratio (x) = 0.04957 0.20353
# Poissons Ratio (y) = 0.07616 -0.05124
# Poissons Ratio (z) = 0.63830 -0.10459
#
# Static dielectric constant tensor:
#      x y z
#    x 3.753860 0.000000 0.000000 
#    y 0.000000 1.643300 0.000000 
#    z 0.000000 0.000000 1.802200 
# 
# From -- ./inp_files/12396.got.cif
#   From: 2010.05.17/outbox.cif.g08.bks.cpg/sg60_7_cif.got.tgz:12396.got - 2010.06.03 14:59:27.
