data_PCOD9456170
_publ_section_title
;
Structure prediction by ZEFSAII (Michael W. Deem and Ramdas Pophale) SiO2 
 PCOD9456170
Probable space group: P B C N
;
_chemical_formula_sum "Si O2"
_cell_formula_units_Z 32
_cell_length_a 6.893423
_cell_length_b 13.445004
_cell_length_c 12.732033
_cell_angle_alpha 90.000000
_cell_angle_beta 90.000000
_cell_angle_gamma 90.000000
_cell_volume 1180.031553
_symmetry_space_group_name_H-M "P B C N"
_symmetry_group_IT_number 60
_symmetry_cell_setting 'orthorhombic'
loop_
_space_group_symop_operation_xyz
x,y,z
1/2-x,1/2-y,1/2+z
1/2+x,1/2-y,-z
-x,y,1/2-z
-x,-y,-z
1/2+x,1/2+y,1/2-z
1/2-x,1/2+y,z
x,-y,1/2+z
loop_
_atom_site_type_symbol
_atom_site_label
_atom_site_fract_x
_atom_site_fract_y
_atom_site_fract_z
Si Si1 0.111673 0.331489 0.503824
Si Si2 0.270868 0.248340 0.711543
Si Si3 0.726256 0.359789 0.597473
Si Si4 0.285918 0.950415 0.295379
O O1 0.226605 0.317400 0.612480
O O2 0.091665 0.215684 0.466994
O O3 0.197571 0.389602 0.405067
O O4 0.905720 0.383822 0.522451
O O5 0.500000 0.250838 0.750000
O O6 0.171334 0.292146 0.814205
O O7 0.218415 0.131272 0.709411
O O8 0.663915 0.454744 0.665077
O O9 0.500000 0.981598 0.250000
#
# Coordination Sequence:
#
# PCOD9456170 Si02
#       4
#     8   8   8   8
#     4  11  22  39  64  94 128 168 216 270 327 384
#     4  10  22  41  60  89 127 165 213 269 319 381
#     4  11  22  39  64  90 122 168 213 266 323 388
#     4  10  21  39  64  91 123 171 219 257 317 405
#
# _framework density 27.117919000000001
#
# number of rings (size 3 to 8) (size 9 to 14) (size 15 to 20)
#    0.000    1.500    0.000    7.500    0.000    2.000 
#    0.000   16.250    0.000    3.000    0.000    0.000 
#    0.000    0.000    0.000    0.000    0.000    0.000 
#
# Total GULP energy -178407.476141 kJ/mol
# GULP energy per Si atom -5575.233629 kJ/mol
# Density = 2.705620 g / cm^3
# Si number density = 27.117919 Si / 1000 Ang^3
#
#
#
# Elastic Constant Matrix: (Units=GPa)
#
#
# Indices 1 2 3 4 5 6 
#
# 1 58.5389 -7.7196 9.7111 0.0000 0.0000 0.0000
# 2 -7.7196 124.1040 13.1193 0.0000 0.0000 0.0000
# 3 9.7111 13.1193 136.9397 0.0000 0.0000 0.0000
# 4 0.0000 0.0000 0.0000 30.6802 0.0000 0.0000
# 5 0.0000 0.0000 0.0000 0.0000 47.0594 0.0000
# 6 0.0000 0.0000 0.0000 0.0000 0.0000 23.9345
#
#
#
# Elastic Compliance Matrix: (Units=1/GPa)
#
#
# Indices 1 2 3 4 5 6 
#
# 1 0.017470 0.001230 -0.001357 0.000000 0.000000 0.000000
# 2 0.001230 0.008227 -0.000875 0.000000 0.000000 0.000000
# 3 -0.001357 -0.000875 0.007483 0.000000 0.000000 0.000000
# 4 0.000000 0.000000 0.000000 0.032594 0.000000 0.000000
# 5 0.000000 0.000000 0.000000 0.000000 0.021250 0.000000
# 6 0.000000 0.000000 0.000000 0.000000 0.000000 0.041781
#
#
# Mechanical properties :
#
#
# Convention : Reuss Voigt Hill
#
# Bulk Modulus (GPa) = 32.07668 38.86711 35.47190
# Shear Modulus (GPa) = 35.41082 40.63296 38.02189
#
# Velocity S-wave (km/s) = 3.61752 3.87509 3.74852
# Velocity P-wave (km/s) = 5.41321 5.86392 5.64307
#
# Compressibility (1/GPa) = 0.03117529
#
# Stress axis : x y z
#
# Youngs Moduli (GPa) = 57.24117 121.55377 133.64404
#
# Poissons Ratio (x) = -0.14952 0.18132
# Poissons Ratio (y) = -0.07041 0.11699
# Poissons Ratio (z) = 0.07766 0.10641
#
# Static dielectric constant tensor:
#      x y z
#    x 2.328050 0.000000 0.000000 
#    y 0.000000 2.166980 0.000000 
#    z 0.000000 0.000000 2.163590 
# 
# From -- ./inp_files/9522.got.cif
#   From: 2010.05.17/outbox.cif.g08.bks.cpg/sg60_5_cif.got.tgz:9522.got - 2010.06.03 14:59:27.
