data_PCOD9456122
_publ_section_title
;
Structure prediction by ZEFSAII (Michael W. Deem and Ramdas Pophale) SiO2 
 PCOD9456122
Probable space group: P B C N
;
_chemical_formula_sum "Si O2"
_cell_formula_units_Z 56
_cell_length_a 10.842433
_cell_length_b 11.649020
_cell_length_c 17.671325
_cell_angle_alpha 90.000000
_cell_angle_beta 90.000000
_cell_angle_gamma 90.000000
_cell_volume 2231.954065
_symmetry_space_group_name_H-M "P B C N"
_symmetry_group_IT_number 60
_symmetry_cell_setting 'orthorhombic'
loop_
_space_group_symop_operation_xyz
x,y,z
1/2-x,1/2-y,1/2+z
1/2+x,1/2-y,-z
-x,y,1/2-z
-x,-y,-z
1/2+x,1/2+y,1/2-z
1/2-x,1/2+y,z
x,-y,1/2+z
loop_
_atom_site_type_symbol
_atom_site_label
_atom_site_fract_x
_atom_site_fract_y
_atom_site_fract_z
Si Si1 0.708925 0.655857 0.270440
Si Si2 0.034555 0.565333 0.622575
Si Si3 0.847066 0.275203 0.056365
Si Si4 0.408788 0.636254 0.930831
Si Si5 0.593751 0.820486 0.899583
Si Si6 0.309848 0.914741 0.263774
Si Si7 0.989834 0.096617 0.396232
O O1 0.830753 0.672775 0.322592
O O2 0.706732 0.776148 0.223982
O O3 0.720778 0.526995 0.234601
O O4 0.590959 0.645714 0.327470
O O5 0.978691 0.663178 0.570413
O O6 0.924179 0.547929 0.683286
O O7 0.068318 0.451404 0.578444
O O8 0.150622 0.592616 0.675001
O O9 0.736551 0.356496 0.081796
O O10 0.875166 0.154187 0.094483
O O11 0.830875 0.259039 0.966598
O O12 0.465708 0.753604 0.899275
O O13 0.485073 0.537746 0.889145
O O14 0.428481 0.615857 0.020829
#
# Coordination Sequence:
#
# PCOD9456122 Si02
#       7
#     8   8   8   8   8   8   8
#     4  11  20  43  67  95 125 177 218 267 330 401
#     4  10  22  41  59  90 124 168 219 263 315 389
#     4  11  21  38  62  92 129 169 205 268 337 388
#     4  10  22  37  58  96 133 163 209 270 331 394
#     4  10  22  38  64  95 127 167 212 269 330 396
#     4  10  23  40  68  87 128 171 222 264 318 386
#     4  10  21  39  60  92 132 167 212 266 328 396
#
# _framework density 25.090122999999998
#
# number of rings (size 3 to 8) (size 9 to 14) (size 15 to 20)
#    0.000    1.714    2.857    1.286    2.000    1.143 
#    0.000    0.000    0.000    3.429    0.000    0.000 
#    0.000    0.000    0.000    0.000    0.000    0.000 
#
# Total GULP energy -312536.917135 kJ/mol
# GULP energy per Si atom -5581.016377 kJ/mol
# Density = 2.503302 g / cm^3
# Si number density = 25.090123 Si / 1000 Ang^3
#
#
#
# Elastic Constant Matrix: (Units=GPa)
#
#
# Indices 1 2 3 4 5 6 
#
# 1 56.5677 16.6679 6.5061 0.0000 0.0000 0.0000
# 2 16.6679 107.9712 16.3442 0.0000 0.0000 0.0000
# 3 6.5061 16.3442 74.3879 0.0000 0.0000 0.0000
# 4 0.0000 0.0000 0.0000 30.7802 0.0000 0.0000
# 5 0.0000 0.0000 0.0000 0.0000 39.3344 0.0000
# 6 0.0000 0.0000 0.0000 0.0000 0.0000 34.7192
#
#
#
# Elastic Compliance Matrix: (Units=1/GPa)
#
#
# Indices 1 2 3 4 5 6 
#
# 1 0.018596 -0.002715 -0.001030 0.000000 0.000000 0.000000
# 2 -0.002715 0.009977 -0.001955 0.000000 0.000000 0.000000
# 3 -0.001030 -0.001955 0.013963 0.000000 0.000000 0.000000
# 4 0.000000 0.000000 0.000000 0.032488 0.000000 0.000000
# 5 0.000000 0.000000 0.000000 0.000000 0.025423 0.000000
# 6 0.000000 0.000000 0.000000 0.000000 0.000000 0.028803
#
#
# Mechanical properties :
#
#
# Convention : Reuss Voigt Hill
#
# Bulk Modulus (GPa) = 32.11639 35.32925 33.72282
# Shear Modulus (GPa) = 33.10656 34.26065 33.68361
#
# Velocity S-wave (km/s) = 3.63644 3.69928 3.66800
# Velocity P-wave (km/s) = 5.51904 5.68839 5.60435
#
# Compressibility (1/GPa) = 0.03113675
#
# Stress axis : x y z
#
# Youngs Moduli (GPa) = 53.77403 100.23346 71.61998
#
# Poissons Ratio (x) = 0.27212 0.07377
# Poissons Ratio (y) = 0.14599 0.13999
# Poissons Ratio (z) = 0.05539 0.19592
#
# Static dielectric constant tensor:
#      x y z
#    x 1.966240 0.000000 0.000000 
#    y 0.000000 2.000520 0.000000 
#    z 0.000000 0.000000 2.031830 
# 
# From -- ./inp_files/22596.got.cif
#   From: 2010.05.17/outbox.cif.g08.bks.cpg/sg60_12_cif.got.tgz:22596.got - 2010.06.03 14:59:27.
