data_PCOD9456637
_publ_section_title
;
Structure prediction by ZEFSAII (Michael W. Deem and Ramdas Pophale) SiO2 
 PCOD9456637
Probable space group: P B C N
;
_chemical_formula_sum "Si O2"
_cell_formula_units_Z 40
_cell_length_a 7.640510
_cell_length_b 24.696377
_cell_length_c 9.026130
_cell_angle_alpha 90.000000
_cell_angle_beta 90.000000
_cell_angle_gamma 90.000000
_cell_volume 1703.166785
_symmetry_space_group_name_H-M "P B C N"
_symmetry_group_IT_number 60
_symmetry_cell_setting 'orthorhombic'
loop_
_space_group_symop_operation_xyz
x,y,z
1/2-x,1/2-y,1/2+z
1/2+x,1/2-y,-z
-x,y,1/2-z
-x,-y,-z
1/2+x,1/2+y,1/2-z
1/2-x,1/2+y,z
x,-y,1/2+z
loop_
_atom_site_type_symbol
_atom_site_label
_atom_site_fract_x
_atom_site_fract_y
_atom_site_fract_z
Si Si1 0.221509 0.943113 0.909134
Si Si2 0.201064 0.742122 0.711852
Si Si3 0.216528 0.824216 0.936124
Si Si4 0.113345 0.854499 0.385767
Si Si5 0.292598 0.551868 0.067102
O O1 0.287338 0.884508 0.964375
O O2 0.266203 0.944396 0.735901
O O3 0.007598 0.946048 0.924213
O O4 0.275937 0.996353 0.996713
O O5 0.253340 0.801322 0.772544
O O6 0.224702 0.723501 0.544566
O O7 0.301310 0.695976 0.803820
O O8 0.000000 0.737537 0.750000
O O9 0.013558 0.832636 0.983772
O O10 0.242949 0.897567 0.459107
O O11 0.000000 0.881350 0.250000
#
# Coordination Sequence:
#
# PCOD9456637 Si02
#       5
#     8   8   8   8   8
#     4   9  19  30  53  85 114 138 183 232 295 335
#     4  11  23  37  58  81 117 155 190 227 278 334
#     4  10  22  37  58  86 115 147 192 233 282 336
#     4   9  20  36  56  84 114 149 190 236 282 334
#     4   9  18  30  54  83 114 142 177 241 291 334
#
# _framework density 23.485661
#
# number of rings (size 3 to 8) (size 9 to 14) (size 15 to 20)
#    0.000    2.400    0.000    1.200   19.600    0.000 
#    0.000    0.000    0.000    1.200    0.000    0.000 
#    0.000    0.000    0.000    0.000    0.000    0.000 
#
# Total GULP energy -223225.087961 kJ/mol
# GULP energy per Si atom -5580.627199 kJ/mol
# Density = 2.343221 g / cm^3
# Si number density = 23.485661 Si / 1000 Ang^3
#
#
#
# Elastic Constant Matrix: (Units=GPa)
#
#
# Indices 1 2 3 4 5 6 
#
# 1 20.7285 9.0804 -9.5663 0.0000 0.0000 0.0000
# 2 9.0804 113.9945 65.7362 0.0000 0.0000 0.0000
# 3 -9.5663 65.7362 117.0351 0.0000 0.0000 0.0000
# 4 0.0000 0.0000 0.0000 7.2378 0.0000 0.0000
# 5 0.0000 0.0000 0.0000 0.0000 8.8607 0.0000
# 6 0.0000 0.0000 0.0000 0.0000 0.0000 2.0868
#
#
#
# Elastic Compliance Matrix: (Units=1/GPa)
#
#
# Indices 1 2 3 4 5 6 
#
# 1 0.058018 -0.010880 0.010854 0.000000 0.000000 0.000000
# 2 -0.010880 0.015015 -0.009323 0.000000 0.000000 0.000000
# 3 0.010854 -0.009323 0.014668 0.000000 0.000000 0.000000
# 4 0.000000 0.000000 0.000000 0.138163 0.000000 0.000000
# 5 0.000000 0.000000 0.000000 0.000000 0.112858 0.000000
# 6 0.000000 0.000000 0.000000 0.000000 0.000000 0.479200
#
#
# Mechanical properties :
#
#
# Convention : Reuss Voigt Hill
#
# Bulk Modulus (GPa) = 14.49236 42.47319 28.48277
# Shear Modulus (GPa) = 5.81650 16.07091 10.94370
#
# Velocity S-wave (km/s) = 1.57543 2.61872 2.16098
# Velocity P-wave (km/s) = 3.08114 5.22184 4.28725
#
# Compressibility (1/GPa) = 0.06900190
#
# Stress axis : x y z
#
# Youngs Moduli (GPa) = 17.23598 66.59853 68.17453
#
# Poissons Ratio (x) = 0.72462 -0.73994
# Poissons Ratio (y) = 0.18753 0.63560
# Poissons Ratio (z) = -0.18707 0.62091
#
# Static dielectric constant tensor:
#      x y z
#    x 1.969390 0.000000 0.000000 
#    y 0.000000 1.915210 0.000000 
#    z 0.000000 0.000000 1.945160 
# 
# From -- ./inp_files/3845.got.cif
#   From: 2010.05.17/outbox.cif.g08.bks.cpg/sg60_2_cif.got.tgz:3845.got - 2010.06.03 14:59:27.
