data_PCOD9456757
_publ_section_title
;
Structure prediction by ZEFSAII (Michael W. Deem and Ramdas Pophale) SiO2 
 PCOD9456757
Probable space group: P B C N
;
_chemical_formula_sum "Si O2"
_cell_formula_units_Z 32
_cell_length_a 11.675450
_cell_length_b 5.256462
_cell_length_c 22.251503
_cell_angle_alpha 90.000000
_cell_angle_beta 90.000000
_cell_angle_gamma 90.000000
_cell_volume 1365.609435
_symmetry_space_group_name_H-M "P B C N"
_symmetry_group_IT_number 60
_symmetry_cell_setting 'orthorhombic'
loop_
_space_group_symop_operation_xyz
x,y,z
1/2-x,1/2-y,1/2+z
1/2+x,1/2-y,-z
-x,y,1/2-z
-x,-y,-z
1/2+x,1/2+y,1/2-z
1/2-x,1/2+y,z
x,-y,1/2+z
loop_
_atom_site_type_symbol
_atom_site_label
_atom_site_fract_x
_atom_site_fract_y
_atom_site_fract_z
Si Si1 0.820402 0.002741 0.754627
Si Si2 0.317005 0.226018 0.587584
Si Si3 0.938082 0.748804 0.024273
Si Si4 0.511911 0.529343 0.648269
O O1 0.722666 0.214370 0.763119
O O2 0.917671 0.094162 0.801256
O O3 0.875399 0.990140 0.688091
O O4 0.230422 0.452218 0.605537
O O5 0.322298 0.241041 0.514616
O O6 0.441029 0.299890 0.615234
O O7 0.950623 0.777984 0.095542
O O8 0.000000 0.500000 0.000000
O O9 0.000000 0.000000 0.000000
#
# Coordination Sequence:
#
# PCOD9456757 Si02
#       4
#     8   8   8   8
#     4  11  26  44  67  97 129 174 226 275 329 392
#     4  11  22  38  64  97 131 169 212 260 322 396
#     4  10  22  39  61  92 128 170 215 266 327 389
#     4  10  24  44  68  95 135 174 218 277 333 392
#
# _framework density 23.432762
#
# number of rings (size 3 to 8) (size 9 to 14) (size 15 to 20)
#    0.000    1.500    0.000    4.500    0.000   16.000 
#    0.000    0.000    0.000    0.000    0.000    0.000 
#    0.000    0.000    0.000    0.000    0.000    0.000 
#
# Total GULP energy -178417.411652 kJ/mol
# GULP energy per Si atom -5575.544114 kJ/mol
# Density = 2.337943 g / cm^3
# Si number density = 23.432762 Si / 1000 Ang^3
#
#
#
# Elastic Constant Matrix: (Units=GPa)
#
#
# Indices 1 2 3 4 5 6 
#
# 1 30.5690 19.8740 28.1903 0.0000 0.0000 0.0000
# 2 19.8740 125.2586 29.3755 0.0000 0.0000 0.0000
# 3 28.1903 29.3755 148.1242 0.0000 0.0000 0.0000
# 4 0.0000 0.0000 0.0000 27.4355 0.0000 0.0000
# 5 0.0000 0.0000 0.0000 0.0000 55.1049 0.0000
# 6 0.0000 0.0000 0.0000 0.0000 0.0000 30.3692
#
#
#
# Elastic Compliance Matrix: (Units=1/GPa)
#
#
# Indices 1 2 3 4 5 6 
#
# 1 0.042561 -0.005090 -0.007091 0.000000 0.000000 0.000000
# 2 -0.005090 0.008982 -0.000813 0.000000 0.000000 0.000000
# 3 -0.007091 -0.000813 0.008262 0.000000 0.000000 0.000000
# 4 0.000000 0.000000 0.000000 0.036449 0.000000 0.000000
# 5 0.000000 0.000000 0.000000 0.000000 0.018147 0.000000
# 6 0.000000 0.000000 0.000000 0.000000 0.000000 0.032928
#
#
# Mechanical properties :
#
#
# Convention : Reuss Voigt Hill
#
# Bulk Modulus (GPa) = 29.57001 50.98127 40.27564
# Shear Modulus (GPa) = 27.08743 37.68271 32.38507
#
# Velocity S-wave (km/s) = 3.40364 4.01449 3.72162
# Velocity P-wave (km/s) = 5.30026 6.57965 5.97430
#
# Compressibility (1/GPa) = 0.03381805
#
# Stress axis : x y z
#
# Youngs Moduli (GPa) = 23.49576 111.33832 121.04090
#
# Poissons Ratio (x) = 0.56671 0.85825
# Poissons Ratio (y) = 0.11959 0.09835
# Poissons Ratio (z) = 0.16660 0.09046
#
# Static dielectric constant tensor:
#      x y z
#    x 1.912110 0.000000 0.000000 
#    y 0.000000 1.822070 0.000000 
#    z 0.000000 0.000000 2.032870 
# 
# From -- ./inp_files/22481.got.cif
#   From: 2010.05.17/outbox.cif.g08.bks.cpg/sg60_12_cif.got.tgz:22481.got - 2010.06.03 14:59:27.
