data_PCOD9456019
_publ_section_title
;
Structure prediction by ZEFSAII (Michael W. Deem and Ramdas Pophale) SiO2 
 PCOD9456019
Probable space group: P B C N
;
_chemical_formula_sum "Si O2"
_cell_formula_units_Z 44
_cell_length_a 5.100724
_cell_length_b 15.740768
_cell_length_c 22.227521
_cell_angle_alpha 90.000000
_cell_angle_beta 90.000000
_cell_angle_gamma 90.000000
_cell_volume 1784.632393
_symmetry_space_group_name_H-M "P B C N"
_symmetry_group_IT_number 60
_symmetry_cell_setting 'orthorhombic'
loop_
_space_group_symop_operation_xyz
x,y,z
1/2-x,1/2-y,1/2+z
1/2+x,1/2-y,-z
-x,y,1/2-z
-x,-y,-z
1/2+x,1/2+y,1/2-z
1/2-x,1/2+y,z
x,-y,1/2+z
loop_
_atom_site_type_symbol
_atom_site_label
_atom_site_fract_x
_atom_site_fract_y
_atom_site_fract_z
Si Si1 0.056656 0.205221 0.478625
Si Si2 0.344274 0.554714 0.075186
Si Si3 0.861720 0.537773 0.621492
Si Si4 0.755888 0.768156 0.144444
Si Si5 0.264271 0.317972 0.684447
Si Si6 0.500000 0.958767 0.750000
O O1 0.795628 0.265517 0.477939
O O2 0.937002 0.109844 0.482879
O O3 0.214652 0.213599 0.416106
O O4 0.603016 0.511868 0.101705
O O5 0.258087 0.627553 0.122422
O O6 0.101951 0.489257 0.077546
O O7 0.789953 0.636169 0.624219
O O8 0.938041 0.511026 0.690030
O O9 0.523246 0.736600 0.186186
O O10 0.024123 0.747013 0.177286
O O11 0.225273 0.391551 0.733106
#
# Coordination Sequence:
#
# PCOD9456019 Si02
#       6
#     8   8   8   8   8   4
#     4  11  21  38  64  87 113 158 212 242 284 370
#     4  10  21  40  60  86 121 159 187 242 307 345
#     4  11  23  39  61  88 126 153 191 249 307 347
#     4  11  23  41  60  90 122 154 192 259 304 331
#     4  10  21  38  61  83 117 157 200 232 283 357
#     4  10  22  38  62  88 114 164 202 230 286 370
#
# _framework density 24.654938999999999
#
# number of rings (size 3 to 8) (size 9 to 14) (size 15 to 20)
#    0.000    1.455    0.000    8.727    0.000    8.000 
#    0.000    5.455    0.000    0.000    0.000    0.000 
#    0.000    0.000    0.000    0.000    0.000    0.000 
#
# Total GULP energy -246053.715065 kJ/mol
# GULP energy per Si atom -5592.129888 kJ/mol
# Density = 2.459882 g / cm^3
# Si number density = 24.654939 Si / 1000 Ang^3
#
#
#
# Elastic Constant Matrix: (Units=GPa)
#
#
# Indices 1 2 3 4 5 6 
#
# 1 157.1027 17.9693 4.3825 0.0000 0.0000 0.0000
# 2 17.9693 98.1594 -5.4782 0.0000 0.0000 0.0000
# 3 4.3825 -5.4782 65.0171 0.0000 0.0000 0.0000
# 4 0.0000 0.0000 0.0000 30.8705 0.0000 0.0000
# 5 0.0000 0.0000 0.0000 0.0000 18.0166 0.0000
# 6 0.0000 0.0000 0.0000 0.0000 0.0000 17.2836
#
#
#
# Elastic Compliance Matrix: (Units=1/GPa)
#
#
# Indices 1 2 3 4 5 6 
#
# 1 0.006520 -0.001224 -0.000543 0.000000 0.000000 0.000000
# 2 -0.001224 0.010465 0.000964 0.000000 0.000000 0.000000
# 3 -0.000543 0.000964 0.015498 0.000000 0.000000 0.000000
# 4 0.000000 0.000000 0.000000 0.032393 0.000000 0.000000
# 5 0.000000 0.000000 0.000000 0.000000 0.055504 0.000000
# 6 0.000000 0.000000 0.000000 0.000000 0.000000 0.057858
#
#
# Mechanical properties :
#
#
# Convention : Reuss Voigt Hill
#
# Bulk Modulus (GPa) = 32.38381 39.33627 35.86004
# Shear Modulus (GPa) = 26.29669 33.46118 29.87894
#
# Velocity S-wave (km/s) = 3.26941 3.68799 3.48499
# Velocity P-wave (km/s) = 5.23597 5.84161 5.54706
#
# Compressibility (1/GPa) = 0.03087963
#
# Stress axis : x y z
#
# Youngs Moduli (GPa) = 153.36501 95.55315 64.52284
#
# Poissons Ratio (x) = 0.11695 0.03501
# Poissons Ratio (y) = 0.18771 -0.06222
# Poissons Ratio (z) = 0.08322 -0.09214
#
# Static dielectric constant tensor:
#      x y z
#    x 1.960530 0.000000 0.000000 
#    y 0.000000 1.950720 0.000000 
#    z 0.000000 0.000000 2.094640 
# 
# From -- ./inp_files/24805.got.cif
#   From: 2010.05.17/outbox.cif.g08.bks.cpg/sg60_13_cif.got.tgz:24805.got - 2010.06.03 14:59:27.
