data_PCOD9456497
_publ_section_title
;
Structure prediction by ZEFSAII (Michael W. Deem and Ramdas Pophale) SiO2 
 PCOD9456497
Probable space group: P B C N
;
_chemical_formula_sum "Si O2"
_cell_formula_units_Z 60
_cell_length_a 12.368853
_cell_length_b 25.387447
_cell_length_c 9.445848
_cell_angle_alpha 90.000000
_cell_angle_beta 90.000000
_cell_angle_gamma 90.000000
_cell_volume 2966.124735
_symmetry_space_group_name_H-M "P B C N"
_symmetry_group_IT_number 60
_symmetry_cell_setting 'orthorhombic'
loop_
_space_group_symop_operation_xyz
x,y,z
1/2-x,1/2-y,1/2+z
1/2+x,1/2-y,-z
-x,y,1/2-z
-x,-y,-z
1/2+x,1/2+y,1/2-z
1/2-x,1/2+y,z
x,-y,1/2+z
loop_
_atom_site_type_symbol
_atom_site_label
_atom_site_fract_x
_atom_site_fract_y
_atom_site_fract_z
Si Si1 0.266601 0.114813 0.763429
Si Si2 0.500000 0.837244 0.250000
Si Si3 0.980145 0.922032 0.906755
Si Si4 0.607626 0.466230 0.347935
Si Si5 0.546255 0.768395 0.526107
Si Si6 0.824488 0.162776 0.466656
Si Si7 0.338401 0.708237 0.609539
Si Si8 0.767515 0.299331 0.692764
O O1 0.391791 0.127179 0.728645
O O2 0.212926 0.057761 0.729864
O O3 0.183603 0.151354 0.673592
O O4 0.257713 0.138595 0.921172
O O5 0.502331 0.798682 0.387924
O O6 0.926721 0.874499 0.988289
O O7 0.000000 0.901681 0.750000
O O8 0.898933 0.971339 0.881384
O O9 0.081421 0.941497 0.997990
O O10 0.500000 0.456899 0.250000
O O11 0.632056 0.721700 0.491682
O O12 0.451768 0.737580 0.604607
O O13 0.613396 0.807539 0.627219
O O14 0.775291 0.160216 0.309477
O O15 0.306396 0.704709 0.445017
O O16 0.270944 0.745065 0.717871
#
# Coordination Sequence:
#
# PCOD9456497 Si02
#       8
#     8   4   8   8   8   8   8   8
#     4  12  24  43  63  91 126 177 221 262 328 393
#     4  12  26  42  60  90 130 178 224 266 304 386
#     4  10  23  38  65 107 129 158 201 273 343 393
#     4  10  21  43  67  97 132 160 206 270 341 396
#     4  12  24  37  60  86 130 169 217 268 314 384
#     4  12  24  39  62  93 128 170 216 262 332 392
#     4  12  23  39  58  86 121 169 217 263 321 372
#     4  12  23  39  54  87 125 169 211 259 309 383
#
# _framework density 20.228414999999998
#
# number of rings (size 3 to 8) (size 9 to 14) (size 15 to 20)
#    0.000    0.533    5.333    3.600    4.667    0.000 
#    0.000    0.000    0.000    0.800    3.467    0.000 
#    0.000    0.000    0.000    0.000    0.000    0.000 
#
# Total GULP energy -334448.920917 kJ/mol
# GULP energy per Si atom -5574.148682 kJ/mol
# Density = 2.018237 g / cm^3
# Si number density = 20.228415 Si / 1000 Ang^3
#
#
#
# Elastic Constant Matrix: (Units=GPa)
#
#
# Indices 1 2 3 4 5 6 
#
# 1 60.2287 16.5303 16.1773 0.0000 0.0000 0.0000
# 2 16.5303 51.1952 4.9382 0.0000 0.0000 0.0000
# 3 16.1773 4.9382 118.5245 0.0000 0.0000 0.0000
# 4 0.0000 0.0000 0.0000 16.7607 0.0000 0.0000
# 5 0.0000 0.0000 0.0000 0.0000 37.5764 0.0000
# 6 0.0000 0.0000 0.0000 0.0000 0.0000 12.3514
#
#
#
# Elastic Compliance Matrix: (Units=1/GPa)
#
#
# Indices 1 2 3 4 5 6 
#
# 1 0.018836 -0.005857 -0.002327 0.000000 0.000000 0.000000
# 2 -0.005857 0.021433 -0.000094 0.000000 0.000000 0.000000
# 3 -0.002327 -0.000094 0.008759 0.000000 0.000000 0.000000
# 4 0.000000 0.000000 0.000000 0.059663 0.000000 0.000000
# 5 0.000000 0.000000 0.000000 0.000000 0.026612 0.000000
# 6 0.000000 0.000000 0.000000 0.000000 0.000000 0.080962
#
#
# Mechanical properties :
#
#
# Convention : Reuss Voigt Hill
#
# Bulk Modulus (GPa) = 30.79552 33.91556 32.35554
# Shear Modulus (GPa) = 20.52157 26.15786 23.33972
#
# Velocity S-wave (km/s) = 3.18857 3.59991 3.40046
# Velocity P-wave (km/s) = 5.36776 5.83796 5.60779
#
# Compressibility (1/GPa) = 0.03247225
#
# Stress axis : x y z
#
# Youngs Moduli (GPa) = 53.08983 46.65616 114.17399
#
# Poissons Ratio (x) = 0.27329 0.26567
# Poissons Ratio (y) = 0.31097 0.01068
# Poissons Ratio (z) = 0.12353 0.00436
#
# Static dielectric constant tensor:
#      x y z
#    x 1.848540 0.000000 0.000000 
#    y 0.000000 1.735490 0.000000 
#    z 0.000000 0.000000 1.819800 
# 
# From -- ./inp_files/5231.got.cif
#   From: 2010.05.17/outbox.cif.g08.bks.cpg/sg60_3_cif.got.tgz:5231.got - 2010.06.03 14:59:27.
