data_PCOD9456668
_publ_section_title
;
Structure prediction by ZEFSAII (Michael W. Deem and Ramdas Pophale) SiO2 
 PCOD9456668
Probable space group: P B C N
;
_chemical_formula_sum "Si O2"
_cell_formula_units_Z 32
_cell_length_a 13.391252
_cell_length_b 22.014382
_cell_length_c 5.291419
_cell_angle_alpha 90.000000
_cell_angle_beta 90.000000
_cell_angle_gamma 90.000000
_cell_volume 1559.911046
_symmetry_space_group_name_H-M "P B C N"
_symmetry_group_IT_number 60
_symmetry_cell_setting 'orthorhombic'
loop_
_space_group_symop_operation_xyz
x,y,z
1/2-x,1/2-y,1/2+z
1/2+x,1/2-y,-z
-x,y,1/2-z
-x,-y,-z
1/2+x,1/2+y,1/2-z
1/2-x,1/2+y,z
x,-y,1/2+z
loop_
_atom_site_type_symbol
_atom_site_label
_atom_site_fract_x
_atom_site_fract_y
_atom_site_fract_z
Si Si1 0.829619 0.018063 0.593020
Si Si2 0.285307 0.906506 0.736584
Si Si3 0.708342 0.280362 0.596363
Si Si4 0.500000 0.227822 0.750000
Si Si5 0.000000 0.646501 0.250000
O O1 0.780998 0.081933 0.516804
O O2 0.885701 0.990406 0.352910
O O3 0.737292 0.030174 0.123508
O O4 0.238801 0.850327 0.886240
O O5 0.400697 0.892412 0.694956
O O6 0.728649 0.253081 0.319304
O O7 0.595069 0.267810 0.676660
O O8 0.479560 0.186587 0.501387
#
# Coordination Sequence:
#
# PCOD9456668 Si02
#       5
#     8   8   8   4   4
#     4   8  20  35  54  83 112 158 196 237 294 355
#     4  10  22  38  58  87 118 161 195 246 299 357
#     4  12  24  39  65  86 121 165 196 250 305 345
#     4  12  24  42  53 100 117 160 206 240 298 366
#     4  12  24  34  63  82 131 158 196 244 298 370
#
# _framework density 20.51399
#
# number of rings (size 3 to 8) (size 9 to 14) (size 15 to 20)
#    1.500    0.000    5.000    0.000    7.000    1.000 
#    0.000    0.000    0.000    1.500    0.000    0.000 
#    0.000    0.000    0.000    0.000    0.000    0.000 
#
# Total GULP energy -178139.229464 kJ/mol
# GULP energy per Si atom -5566.850921 kJ/mol
# Density = 2.046730 g / cm^3
# Si number density = 20.513990 Si / 1000 Ang^3
#
#
#
# Elastic Constant Matrix: (Units=GPa)
#
#
# Indices 1 2 3 4 5 6 
#
# 1 70.2149 -9.3867 -13.9932 0.0000 0.0000 0.0000
# 2 -9.3867 54.6611 -7.7189 0.0000 0.0000 0.0000
# 3 -13.9932 -7.7189 115.4295 0.0000 0.0000 0.0000
# 4 0.0000 0.0000 0.0000 21.8949 0.0000 0.0000
# 5 0.0000 0.0000 0.0000 0.0000 20.5310 0.0000
# 6 0.0000 0.0000 0.0000 0.0000 0.0000 -44.9516
#
#
#
# Elastic Compliance Matrix: (Units=1/GPa)
#
#
# Indices 1 2 3 4 5 6 
#
# 1 0.015026 0.002865 0.002013 0.000000 0.000000 0.000000
# 2 0.002865 0.019015 0.001619 0.000000 0.000000 0.000000
# 3 0.002013 0.001619 0.009016 0.000000 0.000000 0.000000
# 4 0.000000 0.000000 0.000000 0.045673 0.000000 0.000000
# 5 0.000000 0.000000 0.000000 0.000000 0.048707 0.000000
# 6 0.000000 0.000000 0.000000 0.000000 0.000000 -0.022246
#
#
# Mechanical properties :
#
#
# Convention : Reuss Voigt Hill
#
# Bulk Modulus (GPa) = 17.84117 19.78976 18.81547
# Shear Modulus (GPa) = 41.36319 17.58848 29.47584
#
# Velocity S-wave (km/s) = 4.49524 2.93130 3.79471
# Velocity P-wave (km/s) = 5.97150 4.59615 5.32839
#
# Compressibility (1/GPa) = 0.05605012
#
# Stress axis : x y z
#
# Youngs Moduli (GPa) = 66.55057 52.58987 110.91888
#
# Poissons Ratio (x) = -0.15065 -0.22330
# Poissons Ratio (y) = -0.19064 -0.17956
# Poissons Ratio (z) = -0.13398 -0.08513
#
# Static dielectric constant tensor:
#      x y z
#    x 1.707160 0.000000 0.000000 
#    y 0.000000 1.692690 0.000000 
#    z 0.000000 0.000000 1.878950 
# 
# From -- ./inp_files/1119.got.cif
#   From: 2010.05.17/outbox.cif.g08.bks.cpg/sg60_1_cif.got.tgz:1119.got - 2010.06.03 14:59:27.
