data_PCOD9456651
_publ_section_title
;
Structure prediction by ZEFSAII (Michael W. Deem and Ramdas Pophale) SiO2 
 PCOD9456651
Probable space group: P B C N
;
_chemical_formula_sum "Si O2"
_cell_formula_units_Z 48
_cell_length_a 13.821074
_cell_length_b 9.371129
_cell_length_c 14.999768
_cell_angle_alpha 90.000000
_cell_angle_beta 90.000000
_cell_angle_gamma 90.000000
_cell_volume 1942.755962
_symmetry_space_group_name_H-M "P B C N"
_symmetry_group_IT_number 60
_symmetry_cell_setting 'orthorhombic'
loop_
_space_group_symop_operation_xyz
x,y,z
1/2-x,1/2-y,1/2+z
1/2+x,1/2-y,-z
-x,y,1/2-z
-x,-y,-z
1/2+x,1/2+y,1/2-z
1/2-x,1/2+y,z
x,-y,1/2+z
loop_
_atom_site_type_symbol
_atom_site_label
_atom_site_fract_x
_atom_site_fract_y
_atom_site_fract_z
Si Si1 0.703912 0.497032 0.657464
Si Si2 0.770257 0.458124 0.925914
Si Si3 0.607825 0.033752 0.763794
Si Si4 0.849123 0.201187 0.990715
Si Si5 0.481834 0.374611 0.353098
Si Si6 0.102832 0.857452 0.671680
O O1 0.815439 0.526642 0.682846
O O2 0.676542 0.382566 0.581482
O O3 0.633908 0.631516 0.633810
O O4 0.661352 0.439002 0.750919
O O5 0.841772 0.447181 0.842945
O O6 0.826658 0.368613 0.000119
O O7 0.730839 0.618419 0.930113
O O8 0.670016 0.374684 0.913699
O O9 0.500000 0.979334 0.750000
O O10 0.592687 0.196158 0.798339
O O11 0.949894 0.181960 0.934157
O O12 0.500000 0.326277 0.250000
O O13 0.510863 0.544368 0.349205
#
# Coordination Sequence:
#
# PCOD9456651 Si02
#       6
#     8   8   8   8   8   8
#     4  10  22  37  63  94 124 166 213 271 317 379
#     4  10  22  40  63  87 125 167 206 259 320 383
#     4  11  22  41  63  93 126 170 215 262 317 400
#     4  11  22  40  62  96 130 163 209 270 329 373
#     4   9  19  38  65  94 119 172 220 259 310 388
#     4   9  19  40  65  86 123 171 213 251 323 393
#
# _framework density 24.707170000000001
#
# number of rings (size 3 to 8) (size 9 to 14) (size 15 to 20)
#    0.000    2.000    1.667    3.000    2.333    0.667 
#    3.000    4.167    0.000    0.000    0.000    0.000 
#    0.000    0.000    0.000    0.000    0.000    0.000 
#
# Total GULP energy -267340.174749 kJ/mol
# GULP energy per Si atom -5569.586974 kJ/mol
# Density = 2.465094 g / cm^3
# Si number density = 24.707170 Si / 1000 Ang^3
#
#
#
# Elastic Constant Matrix: (Units=GPa)
#
#
# Indices 1 2 3 4 5 6 
#
# 1 159.6001 10.7389 27.6116 0.0000 0.0000 0.0000
# 2 10.7389 72.6047 -17.5433 0.0000 0.0000 0.0000
# 3 27.6116 -17.5433 80.7754 0.0000 0.0000 0.0000
# 4 0.0000 0.0000 0.0000 17.3156 0.0000 0.0000
# 5 0.0000 0.0000 0.0000 0.0000 5.1667 0.0000
# 6 0.0000 0.0000 0.0000 0.0000 0.0000 15.3732
#
#
#
# Elastic Compliance Matrix: (Units=1/GPa)
#
#
# Indices 1 2 3 4 5 6 
#
# 1 0.006845 -0.001665 -0.002702 0.000000 0.000000 0.000000
# 2 -0.001665 0.014941 0.003814 0.000000 0.000000 0.000000
# 3 -0.002702 0.003814 0.014132 0.000000 0.000000 0.000000
# 4 0.000000 0.000000 0.000000 0.057751 0.000000 0.000000
# 5 0.000000 0.000000 0.000000 0.000000 0.193546 0.000000
# 6 0.000000 0.000000 0.000000 0.000000 0.000000 0.065048
#
#
# Mechanical properties :
#
#
# Convention : Reuss Voigt Hill
#
# Bulk Modulus (GPa) = 28.72486 39.39941 34.06213
# Shear Modulus (GPa) = 13.69964 27.04932 20.37448
#
# Velocity S-wave (km/s) = 2.35729 3.31236 2.87477
# Velocity P-wave (km/s) = 4.36583 5.53264 4.98350
#
# Compressibility (1/GPa) = 0.03481306
#
# Stress axis : x y z
#
# Youngs Moduli (GPa) = 146.09026 66.92934 70.76204
#
# Poissons Ratio (x) = 0.11145 0.19117
# Poissons Ratio (y) = 0.24327 -0.26990
# Poissons Ratio (z) = 0.39467 -0.25528
#
# Static dielectric constant tensor:
#      x y z
#    x 2.052260 0.000000 0.000000 
#    y 0.000000 1.990620 0.000000 
#    z 0.000000 0.000000 2.102200 
# 
# From -- ./inp_files/16796.got.cif
#   From: 2010.05.17/outbox.cif.g08.bks.cpg/sg60_9_cif.got.tgz:16796.got - 2010.06.03 14:59:27.
