data_PCOD9456604
_publ_section_title
;
Structure prediction by ZEFSAII (Michael W. Deem and Ramdas Pophale) SiO2 
 PCOD9456604
Probable space group: P B C N
;
_chemical_formula_sum "Si O2"
_cell_formula_units_Z 56
_cell_length_a 9.171121
_cell_length_b 21.950904
_cell_length_c 13.208802
_cell_angle_alpha 90.000000
_cell_angle_beta 90.000000
_cell_angle_gamma 90.000000
_cell_volume 2659.122005
_symmetry_space_group_name_H-M "P B C N"
_symmetry_group_IT_number 60
_symmetry_cell_setting 'orthorhombic'
loop_
_space_group_symop_operation_xyz
x,y,z
1/2-x,1/2-y,1/2+z
1/2+x,1/2-y,-z
-x,y,1/2-z
-x,-y,-z
1/2+x,1/2+y,1/2-z
1/2-x,1/2+y,z
x,-y,1/2+z
loop_
_atom_site_type_symbol
_atom_site_label
_atom_site_fract_x
_atom_site_fract_y
_atom_site_fract_z
Si Si1 0.631709 0.895640 0.528320
Si Si2 0.132615 0.979393 0.077094
Si Si3 0.000000 0.215728 0.250000
Si Si4 0.377498 0.288990 0.382661
Si Si5 0.000000 0.103788 0.750000
Si Si6 0.598172 0.056808 0.345088
Si Si7 0.558660 0.217283 0.541123
Si Si8 0.198979 0.330779 0.764457
O O1 0.761199 0.930963 0.476363
O O2 0.507726 0.943093 0.560116
O O3 0.547121 0.840882 0.472439
O O4 0.696725 0.868175 0.631604
O O5 0.073503 0.941654 0.171503
O O6 0.245322 0.029599 0.124605
O O7 0.000000 0.000000 0.000000
O O8 0.971098 0.255371 0.151355
O O9 0.861591 0.175279 0.273289
O O10 0.405479 0.350476 0.320559
O O11 0.509636 0.265354 0.454196
O O12 0.232808 0.294317 0.453437
O O13 0.353125 0.235936 0.298460
O O14 0.500000 0.031119 0.250000
O O15 0.616192 0.128899 0.317715
#
# Coordination Sequence:
#
# PCOD9456604 Si02
#       8
#     8   8   4   8   4   8   8   8
#     4  10  24  45  70 103 134 189 243 302 366 439
#     4  12  31  49  75 105 149 196 259 312 378 443
#     4  10  22  35  66 104 143 184 224 288 358 452
#     4  10  25  45  69 109 152 187 243 296 394 441
#     4  12  32  45  76 110 155 196 242 328 372 456
#     4  10  24  47  78 101 137 195 250 307 368 448
#     4  10  24  40  71 103 148 189 237 297 372 457
#     4   9  22  40  72 102 136 187 235 296 361 449
#
# _framework density 21.059584000000001
#
# number of rings (size 3 to 8) (size 9 to 14) (size 15 to 20)
#    0.000    1.714    0.000    0.429   25.000    1.143 
#    0.000    0.000    0.000    0.000    0.000    0.000 
#    0.000    0.000    0.000    0.000    0.000    0.000 
#
# Total GULP energy -312315.261077 kJ/mol
# GULP energy per Si atom -5577.058234 kJ/mol
# Density = 2.101165 g / cm^3
# Si number density = 21.059584 Si / 1000 Ang^3
#
#
#
# Elastic Constant Matrix: (Units=GPa)
#
#
# Indices 1 2 3 4 5 6 
#
# 1 133.4236 45.0624 75.0969 0.0000 0.0000 0.0000
# 2 45.0624 79.5149 40.6496 0.0000 0.0000 0.0000
# 3 75.0969 40.6496 85.3358 0.0000 0.0000 0.0000
# 4 0.0000 0.0000 0.0000 38.3370 0.0000 0.0000
# 5 0.0000 0.0000 0.0000 0.0000 45.4161 0.0000
# 6 0.0000 0.0000 0.0000 0.0000 0.0000 10.3863
#
#
#
# Elastic Compliance Matrix: (Units=1/GPa)
#
#
# Indices 1 2 3 4 5 6 
#
# 1 0.015174 -0.002344 -0.012237 0.000000 0.000000 0.000000
# 2 -0.002344 0.016987 -0.006029 0.000000 0.000000 0.000000
# 3 -0.012237 -0.006029 0.025359 0.000000 0.000000 0.000000
# 4 0.000000 0.000000 0.000000 0.026084 0.000000 0.000000
# 5 0.000000 0.000000 0.000000 0.000000 0.022019 0.000000
# 6 0.000000 0.000000 0.000000 0.000000 0.000000 0.096280
#
#
# Mechanical properties :
#
#
# Convention : Reuss Voigt Hill
#
# Bulk Modulus (GPa) = 61.34858 68.87689 65.11274
# Shear Modulus (GPa) = 20.11618 27.99224 24.05421
#
# Velocity S-wave (km/s) = 3.09399 3.64976 3.38331
# Velocity P-wave (km/s) = 6.47749 7.10899 6.80058
#
# Compressibility (1/GPa) = 0.01630029
#
# Stress axis : x y z
#
# Youngs Moduli (GPa) = 65.90224 58.86981 39.43344
#
# Poissons Ratio (x) = 0.13796 0.48255
# Poissons Ratio (y) = 0.15445 0.23775
# Poissons Ratio (z) = 0.80645 0.35494
#
# Static dielectric constant tensor:
#      x y z
#    x 1.675930 0.000000 0.000000 
#    y 0.000000 1.800420 0.000000 
#    z 0.000000 0.000000 1.343220 
# 
# From -- ./inp_files/15292.got.cif
#   From: 2010.05.17/outbox.cif.g08.bks.cpg/sg60_8_cif.got.tgz:15292.got - 2010.06.03 14:59:27.
