data_PCOD9456768
_publ_section_title
;
Structure prediction by ZEFSAII (Michael W. Deem and Ramdas Pophale) SiO2 
 PCOD9456768
Probable space group: P B C N
;
_chemical_formula_sum "Si O2"
_cell_formula_units_Z 56
_cell_length_a 18.817441
_cell_length_b 13.414311
_cell_length_c 8.888314
_cell_angle_alpha 90.000000
_cell_angle_beta 90.000000
_cell_angle_gamma 90.000000
_cell_volume 2243.614936
_symmetry_space_group_name_H-M "P B C N"
_symmetry_group_IT_number 60
_symmetry_cell_setting 'orthorhombic'
loop_
_space_group_symop_operation_xyz
x,y,z
1/2-x,1/2-y,1/2+z
1/2+x,1/2-y,-z
-x,y,1/2-z
-x,-y,-z
1/2+x,1/2+y,1/2-z
1/2-x,1/2+y,z
x,-y,1/2+z
loop_
_atom_site_type_symbol
_atom_site_label
_atom_site_fract_x
_atom_site_fract_y
_atom_site_fract_z
Si Si1 0.416169 0.735922 0.009534
Si Si2 0.887361 0.858270 0.510001
Si Si3 0.779641 0.544256 0.328038
Si Si4 0.717716 0.858125 0.505461
Si Si5 0.500000 0.838191 0.750000
Si Si6 0.096594 0.373656 0.499253
Si Si7 0.000000 0.372213 0.250000
Si Si8 0.391274 0.542665 0.171070
O O1 0.332566 0.763154 0.005090
O O2 0.449211 0.770289 0.852739
O O3 0.452242 0.804621 0.137343
O O4 0.424985 0.621734 0.055925
O O5 0.801978 0.843644 0.504890
O O6 0.914196 0.745842 0.513849
O O7 0.906566 0.918302 0.661739
O O8 0.909544 0.929683 0.372648
O O9 0.797952 0.585828 0.163569
O O10 0.799001 0.430132 0.364856
O O11 0.823171 0.603329 0.455836
O O12 0.694634 0.550347 0.346273
O O13 0.549382 0.902700 0.857886
O O14 0.058960 0.422278 0.356804
#
# Coordination Sequence:
#
# PCOD9456768 Si02
#       8
#     8   8   8   8   4   8   4   8
#     4  11  21  44  60  86 121 161 196 250 288 349
#     4  10  22  39  63  93 120 151 195 246 302 357
#     4  10  22  39  63  93 120 151 195 246 302 357
#     4  10  22  39  63  93 120 151 195 246 302 357
#     4  10  24  38  64  82 118 162 212 236 282 348
#     4  11  21  44  60  86 121 161 196 250 288 349
#     4  10  24  38  64  82 118 162 212 236 282 348
#     4  10  22  39  63  93 120 151 195 246 302 357
#
# _framework density 24.959720999999998
#
# number of rings (size 3 to 8) (size 9 to 14) (size 15 to 20)
#    0.000    1.714    2.857    0.857    4.000    0.000 
#    0.000    8.571    0.000    0.000    0.000    0.000 
#    0.000    0.000    0.000    0.000    0.000    0.000 
#
# Total GULP energy -313440.294600 kJ/mol
# GULP energy per Si atom -5597.148118 kJ/mol
# Density = 2.490291 g / cm^3
# Si number density = 24.959721 Si / 1000 Ang^3
#
#
#
# Elastic Constant Matrix: (Units=GPa)
#
#
# Indices 1 2 3 4 5 6 
#
# 1 52.0105 11.9506 32.1402 0.0000 0.0000 0.0000
# 2 11.9506 73.7827 20.8914 0.0000 0.0000 0.0000
# 3 32.1402 20.8914 102.5513 0.0000 0.0000 0.0000
# 4 0.0000 0.0000 0.0000 28.5011 0.0000 0.0000
# 5 0.0000 0.0000 0.0000 0.0000 39.1787 0.0000
# 6 0.0000 0.0000 0.0000 0.0000 0.0000 34.1966
#
#
#
# Elastic Compliance Matrix: (Units=1/GPa)
#
#
# Indices 1 2 3 4 5 6 
#
# 1 0.024086 -0.001872 -0.007167 0.000000 0.000000 0.000000
# 2 -0.001872 0.014528 -0.002373 0.000000 0.000000 0.000000
# 3 -0.007167 -0.002373 0.012481 0.000000 0.000000 0.000000
# 4 0.000000 0.000000 0.000000 0.035086 0.000000 0.000000
# 5 0.000000 0.000000 0.000000 0.000000 0.025524 0.000000
# 6 0.000000 0.000000 0.000000 0.000000 0.000000 0.029243
#
#
# Mechanical properties :
#
#
# Convention : Reuss Voigt Hill
#
# Bulk Modulus (GPa) = 35.37199 39.81210 37.59204
# Shear Modulus (GPa) = 28.86889 31.26609 30.06749
#
# Velocity S-wave (km/s) = 3.40460 3.54314 3.47456
# Velocity P-wave (km/s) = 5.44587 5.72045 5.58485
#
# Compressibility (1/GPa) = 0.02827096
#
# Stress axis : x y z
#
# Youngs Moduli (GPa) = 41.51770 68.83061 80.12204
#
# Poissons Ratio (x) = 0.12884 0.57427
# Poissons Ratio (y) = 0.07771 0.19013
# Poissons Ratio (z) = 0.29757 0.16334
#
# Static dielectric constant tensor:
#      x y z
#    x 1.974770 0.000000 0.000000 
#    y 0.000000 1.961390 0.000000 
#    z 0.000000 0.000000 1.956480 
# 
# From -- ./inp_files/7448.got.cif
#   From: 2010.05.17/outbox.cif.g08.bks.cpg/sg60_4_cif.got.tgz:7448.got - 2010.06.03 14:59:27.
