data_PCOD9456886
_publ_section_title
;
Structure prediction by ZEFSAII (Michael W. Deem and Ramdas Pophale) SiO2 
 PCOD9456886
Probable space group: P B C N
;
_chemical_formula_sum "Si O2"
_cell_formula_units_Z 36
_cell_length_a 19.930350
_cell_length_b 7.811925
_cell_length_c 9.035691
_cell_angle_alpha 90.000000
_cell_angle_beta 90.000000
_cell_angle_gamma 90.000000
_cell_volume 1406.806484
_symmetry_space_group_name_H-M "P B C N"
_symmetry_group_IT_number 60
_symmetry_cell_setting 'orthorhombic'
loop_
_space_group_symop_operation_xyz
x,y,z
1/2-x,1/2-y,1/2+z
1/2+x,1/2-y,-z
-x,y,1/2-z
-x,-y,-z
1/2+x,1/2+y,1/2-z
1/2-x,1/2+y,z
x,-y,1/2+z
loop_
_atom_site_type_symbol
_atom_site_label
_atom_site_fract_x
_atom_site_fract_y
_atom_site_fract_z
Si Si1 0.409391 0.006645 0.010531
Si Si2 0.687127 0.430007 0.265491
Si Si3 0.000000 0.459276 0.250000
Si Si4 0.545978 0.612619 0.891186
Si Si5 0.227963 0.356737 0.946669
O O1 0.443217 0.888325 0.137609
O O2 0.428493 0.204870 0.042847
O O3 0.448894 0.955133 0.864099
O O4 0.331121 0.989299 0.986359
O O5 0.614191 0.472398 0.328831
O O6 0.687660 0.302386 0.123551
O O7 0.728400 0.351895 0.404285
O O8 0.725284 0.587254 0.189731
O O9 0.500000 0.642465 0.750000
O O10 0.500000 0.500000 0.000000
#
# Coordination Sequence:
#
# PCOD9456886 Si02
#       5
#     8   8   4   8   8
#     4  11  23  45  71 107 140 197 244 312 377 457
#     4  12  26  48  74 113 149 208 251 326 383 469
#     4  10  22  40  70 102 142 180 240 308 372 458
#     4  12  27  46  70 104 153 198 252 313 386 458
#     4  12  26  48  80 110 159 195 266 316 395 460
#
# _framework density 25.589872
#
# number of rings (size 3 to 8) (size 9 to 14) (size 15 to 20)
#    0.000    0.444    1.111    8.000    4.667    0.000 
#    0.000    0.000    0.000    0.000    0.000    0.000 
#    0.000    0.000    0.000    0.000    0.000    0.000 
#
# Total GULP energy -201131.730833 kJ/mol
# GULP energy per Si atom -5586.992523 kJ/mol
# Density = 2.553163 g / cm^3
# Si number density = 25.589872 Si / 1000 Ang^3
#
#
#
# Elastic Constant Matrix: (Units=GPa)
#
#
# Indices 1 2 3 4 5 6 
#
# 1 175.5825 27.6954 55.4796 0.0000 0.0000 0.0000
# 2 27.6954 83.4139 23.5364 0.0000 0.0000 0.0000
# 3 55.4796 23.5364 174.6809 0.0000 0.0000 0.0000
# 4 0.0000 0.0000 0.0000 35.3197 0.0000 0.0000
# 5 0.0000 0.0000 0.0000 0.0000 54.2539 0.0000
# 6 0.0000 0.0000 0.0000 0.0000 0.0000 32.5476
#
#
#
# Elastic Compliance Matrix: (Units=1/GPa)
#
#
# Indices 1 2 3 4 5 6 
#
# 1 0.006542 -0.001648 -0.001856 0.000000 0.000000 0.000000
# 2 -0.001648 0.012878 -0.001212 0.000000 0.000000 0.000000
# 3 -0.001856 -0.001212 0.006477 0.000000 0.000000 0.000000
# 4 0.000000 0.000000 0.000000 0.028313 0.000000 0.000000
# 5 0.000000 0.000000 0.000000 0.000000 0.018432 0.000000
# 6 0.000000 0.000000 0.000000 0.000000 0.000000 0.030724
#
#
# Mechanical properties :
#
#
# Convention : Reuss Voigt Hill
#
# Bulk Modulus (GPa) = 60.73322 71.90002 66.31662
# Shear Modulus (GPa) = 42.27080 46.22198 44.24639
#
# Velocity S-wave (km/s) = 4.06871 4.25462 4.16271
# Velocity P-wave (km/s) = 6.77181 7.23145 7.00540
#
# Compressibility (1/GPa) = 0.01646545
#
# Stress axis : x y z
#
# Youngs Moduli (GPa) = 152.86671 77.65430 154.38524
#
# Poissons Ratio (x) = 0.12801 0.28647
# Poissons Ratio (y) = 0.25199 0.18705
# Poissons Ratio (z) = 0.28365 0.09408
#
# Static dielectric constant tensor:
#      x y z
#    x 2.019390 0.000000 0.000000 
#    y 0.000000 2.278470 0.000000 
#    z 0.000000 0.000000 1.976690 
# 
# From -- ./inp_files/7202.got.cif
#   From: 2010.05.17/outbox.cif.g08.bks.cpg/sg60_4_cif.got.tgz:7202.got - 2010.06.03 14:59:27.
