data_PCOD9456891
_publ_section_title
;
Structure prediction by ZEFSAII (Michael W. Deem and Ramdas Pophale) SiO2 
 PCOD9456891
Probable space group: P B C N
;
_chemical_formula_sum "Si O2"
_cell_formula_units_Z 48
_cell_length_a 8.805459
_cell_length_b 23.969320
_cell_length_c 9.821496
_cell_angle_alpha 90.000000
_cell_angle_beta 90.000000
_cell_angle_gamma 90.000000
_cell_volume 2072.933437
_symmetry_space_group_name_H-M "P B C N"
_symmetry_group_IT_number 60
_symmetry_cell_setting 'orthorhombic'
loop_
_space_group_symop_operation_xyz
x,y,z
1/2-x,1/2-y,1/2+z
1/2+x,1/2-y,-z
-x,y,1/2-z
-x,-y,-z
1/2+x,1/2+y,1/2-z
1/2-x,1/2+y,z
x,-y,1/2+z
loop_
_atom_site_type_symbol
_atom_site_label
_atom_site_fract_x
_atom_site_fract_y
_atom_site_fract_z
Si Si1 0.606682 0.514078 0.868448
Si Si2 0.377400 0.289343 0.866823
Si Si3 0.821855 0.106671 0.274759
Si Si4 0.067055 0.768442 0.388655
Si Si5 0.951060 0.357922 0.901494
Si Si6 0.435357 0.049892 0.596174
O O1 0.500000 0.538304 0.750000
O O2 0.687609 0.459581 0.797109
O O3 0.752483 0.549172 0.909331
O O4 0.500000 0.500000 0.000000
O O5 0.500000 0.273252 0.750000
O O6 0.280865 0.345802 0.836802
O O7 0.247094 0.242635 0.885682
O O8 0.487349 0.301205 0.991570
O O9 0.730078 0.131657 0.400943
O O10 0.000000 0.111321 0.250000
O O11 0.000000 0.791893 0.250000
O O12 0.992478 0.706514 0.404460
O O13 0.000000 0.381936 0.750000
O O14 0.014188 0.393155 0.024925
O O15 0.500000 0.044743 0.750000
O O16 0.500000 0.000000 0.500000
#
# Coordination Sequence:
#
# PCOD9456891 Si02
#       6
#     8   8   8   8   8   8
#     4  11  25  42  68 103 144 183 239 293 357 437
#     4  11  23  41  71 100 137 189 235 297 365 422
#     4  10  22  40  70  98 133 186 239 280 365 422
#     4  11  23  42  68 103 140 185 243 296 359 432
#     4  11  23  43  70  98 143 188 243 293 358 440
#     4  12  25  41  69 101 138 191 240 295 358 434
#
# _framework density 23.155591999999999
#
# number of rings (size 3 to 8) (size 9 to 14) (size 15 to 20)
#    0.000    1.000    5.000    2.500    7.000    0.667 
#    0.000    0.000    0.000    9.000    0.000    0.000 
#    0.000    0.000    0.000    0.000    0.000    0.000 
#
# Total GULP energy -267455.368365 kJ/mol
# GULP energy per Si atom -5571.986841 kJ/mol
# Density = 2.310289 g / cm^3
# Si number density = 23.155592 Si / 1000 Ang^3
#
#
#
# Elastic Constant Matrix: (Units=GPa)
#
#
# Indices 1 2 3 4 5 6 
#
# 1 158.3579 8.7891 71.1603 0.0000 0.0000 0.0000
# 2 8.7891 30.5894 2.7012 0.0000 0.0000 0.0000
# 3 71.1603 2.7012 161.7232 0.0000 0.0000 0.0000
# 4 0.0000 0.0000 0.0000 26.3943 0.0000 0.0000
# 5 0.0000 0.0000 0.0000 0.0000 48.8441 0.0000
# 6 0.0000 0.0000 0.0000 0.0000 0.0000 28.1648
#
#
#
# Elastic Compliance Matrix: (Units=1/GPa)
#
#
# Indices 1 2 3 4 5 6 
#
# 1 0.007990 -0.001988 -0.003483 0.000000 0.000000 0.000000
# 2 -0.001988 0.033234 0.000320 0.000000 0.000000 0.000000
# 3 -0.003483 0.000320 0.007710 0.000000 0.000000 0.000000
# 4 0.000000 0.000000 0.000000 0.037887 0.000000 0.000000
# 5 0.000000 0.000000 0.000000 0.000000 0.020473 0.000000
# 6 0.000000 0.000000 0.000000 0.000000 0.000000 0.035505
#
#
# Mechanical properties :
#
#
# Convention : Reuss Voigt Hill
#
# Bulk Modulus (GPa) = 25.88490 57.33019 41.60754
# Shear Modulus (GPa) = 30.12415 38.54862 34.33639
#
# Velocity S-wave (km/s) = 3.61077 4.08458 3.85496
# Velocity P-wave (km/s) = 5.34664 6.85985 6.14996
#
# Compressibility (1/GPa) = 0.03863257
#
# Stress axis : x y z
#
# Youngs Moduli (GPa) = 125.15514 30.08959 129.69453
#
# Poissons Ratio (x) = 0.05983 0.45167
# Poissons Ratio (y) = 0.24884 -0.04147
# Poissons Ratio (z) = 0.43586 -0.00962
#
# Static dielectric constant tensor:
#      x y z
#    x 1.970590 0.000000 0.000000 
#    y 0.000000 2.040650 0.000000 
#    z 0.000000 0.000000 1.893980 
# 
# From -- ./inp_files/4205.got.cif
#   From: 2010.05.17/outbox.cif.g08.bks.cpg/sg60_3_cif.got.tgz:4205.got - 2010.06.03 14:59:27.
