data_PCOD9456261
_publ_section_title
;
Structure prediction by ZEFSAII (Michael W. Deem and Ramdas Pophale) SiO2 
 PCOD9456261
Probable space group: P B C N
;
_chemical_formula_sum "Si O2"
_cell_formula_units_Z 32
_cell_length_a 13.728223
_cell_length_b 15.671443
_cell_length_c 5.398733
_cell_angle_alpha 90.000000
_cell_angle_beta 90.000000
_cell_angle_gamma 90.000000
_cell_volume 1161.489163
_symmetry_space_group_name_H-M "P B C N"
_symmetry_group_IT_number 60
_symmetry_cell_setting 'orthorhombic'
loop_
_space_group_symop_operation_xyz
x,y,z
1/2-x,1/2-y,1/2+z
1/2+x,1/2-y,-z
-x,y,1/2-z
-x,-y,-z
1/2+x,1/2+y,1/2-z
1/2-x,1/2+y,z
x,-y,1/2+z
loop_
_atom_site_type_symbol
_atom_site_label
_atom_site_fract_x
_atom_site_fract_y
_atom_site_fract_z
Si Si1 0.891484 0.281688 0.980902
Si Si2 0.388116 0.711811 0.025814
Si Si3 0.129225 0.472056 0.393431
Si Si4 0.853160 0.027829 0.231782
O O1 0.847084 0.266131 0.248930
O O2 0.883740 0.383135 0.960129
O O3 0.999675 0.242123 0.003285
O O4 0.849332 0.234781 0.743157
O O5 0.368986 0.616617 0.123383
O O6 0.089646 0.534963 0.610501
O O7 0.241816 0.499543 0.332442
O O8 0.894784 0.965774 0.449955
#
# Coordination Sequence:
#
# PCOD9456261 Si02
#       4
#     8   8   8   8
#     4  10  21  40  63  94 132 174 220 274 331 396
#     4  10  21  40  63  94 132 174 220 274 331 396
#     4  10  21  40  64  93 128 173 220 273 329 393
#     4  10  21  40  64  93 128 173 220 273 329 393
#
# _framework density 27.550837000000001
#
# number of rings (size 3 to 8) (size 9 to 14) (size 15 to 20)
#    0.000    2.000    0.000    3.000    0.000    0.000 
#    0.000   50.000    0.000    0.000    0.000    0.000 
#    0.000    0.000    0.000    0.000    0.000    0.000 
#
# Total GULP energy -178506.365059 kJ/mol
# GULP energy per Si atom -5578.323908 kJ/mol
# Density = 2.748813 g / cm^3
# Si number density = 27.550837 Si / 1000 Ang^3
#
#
#
# Elastic Constant Matrix: (Units=GPa)
#
#
# Indices 1 2 3 4 5 6 
#
# 1 180.5611 13.4638 20.1581 0.0000 0.0000 0.0000
# 2 13.4638 147.6510 28.9242 0.0000 0.0000 0.0000
# 3 20.1581 28.9242 308.1005 0.0000 0.0000 0.0000
# 4 0.0000 0.0000 0.0000 60.1457 0.0000 0.0000
# 5 0.0000 0.0000 0.0000 0.0000 -19.8450 0.0000
# 6 0.0000 0.0000 0.0000 0.0000 0.0000 -680.9978
#
#
#
# Elastic Compliance Matrix: (Units=1/GPa)
#
#
# Indices 1 2 3 4 5 6 
#
# 1 0.005608 -0.000448 -0.000325 0.000000 0.000000 0.000000
# 2 -0.000448 0.006935 -0.000622 0.000000 0.000000 0.000000
# 3 -0.000325 -0.000622 0.003325 0.000000 0.000000 0.000000
# 4 0.000000 0.000000 0.000000 0.016626 0.000000 0.000000
# 5 0.000000 0.000000 0.000000 0.000000 -0.050390 0.000000
# 6 0.000000 0.000000 0.000000 0.000000 0.000000 -0.001468
#
#
# Mechanical properties :
#
#
# Convention : Reuss Voigt Hill
#
# Bulk Modulus (GPa) = 76.45357 84.60053 80.52705
# Shear Modulus (GPa) = -409.32584 -89.88832 -249.60708
#
# Velocity S-wave (km/s) = -12.20220 -5.71814 -9.52866
# Velocity P-wave (km/s) = 13.06578 3.58085 9.57959
#
# Compressibility (1/GPa) = 0.01307983
#
# Stress axis : x y z
#
# Youngs Moduli (GPa) = 178.31837 144.18857 300.72265
#
# Poissons Ratio (x) = 0.06456 0.09770
# Poissons Ratio (y) = 0.07984 0.18699
# Poissons Ratio (z) = 0.05793 0.08966
#
# Static dielectric constant tensor:
#      x y z
#    x 2.207590 0.000000 0.000000 
#    y 0.000000 2.276450 0.000000 
#    z 0.000000 0.000000 1.264300 
# 
# From -- ./inp_files/1947.got.cif
#   From: 2010.05.17/outbox.cif.g08.bks.cpg/sg60_1_cif.got.tgz:1947.got - 2010.06.03 14:59:27.
