data_PCOD9456267
_publ_section_title
;
Structure prediction by ZEFSAII (Michael W. Deem and Ramdas Pophale) SiO2 
 PCOD9456267
Probable space group: P B C N
;
_chemical_formula_sum "Si O2"
_cell_formula_units_Z 60
_cell_length_a 10.940138
_cell_length_b 13.866836
_cell_length_c 19.995360
_cell_angle_alpha 90.000000
_cell_angle_beta 90.000000
_cell_angle_gamma 90.000000
_cell_volume 3033.398078
_symmetry_space_group_name_H-M "P B C N"
_symmetry_group_IT_number 60
_symmetry_cell_setting 'orthorhombic'
loop_
_space_group_symop_operation_xyz
x,y,z
1/2-x,1/2-y,1/2+z
1/2+x,1/2-y,-z
-x,y,1/2-z
-x,-y,-z
1/2+x,1/2+y,1/2-z
1/2-x,1/2+y,z
x,-y,1/2+z
loop_
_atom_site_type_symbol
_atom_site_label
_atom_site_fract_x
_atom_site_fract_y
_atom_site_fract_z
Si Si1 0.541503 0.872790 0.045917
Si Si2 0.500000 0.487668 0.750000
Si Si3 0.074393 0.984597 0.888572
Si Si4 0.100405 0.810178 0.582147
Si Si5 0.806429 0.161277 0.558019
Si Si6 0.055460 0.440815 0.605786
Si Si7 0.232558 0.138310 0.202161
Si Si8 0.807295 0.650076 0.149991
O O1 0.503009 0.766564 0.066064
O O2 0.677156 0.888162 0.073054
O O3 0.450822 0.948879 0.080415
O O4 0.547860 0.885674 0.965877
O O5 0.543542 0.536244 0.682270
O O6 0.382412 0.425358 0.727337
O O7 0.191872 0.914136 0.876521
O O8 0.964181 0.914117 0.909386
O O9 0.097844 0.074358 0.936196
O O10 0.189430 0.806130 0.518847
O O11 0.170946 0.786974 0.650666
O O12 0.821247 0.253227 0.605747
O O13 0.168754 0.416039 0.654413
O O14 0.930788 0.411561 0.642864
O O15 0.288608 0.174700 0.271628
#
# Coordination Sequence:
#
# PCOD9456267 Si02
#       8
#     8   4   8   8   8   8   8   8
#     4  11  23  39  66  98 127 169 219 269 332 395
#     4   8  20  42  62  84 126 166 216 264 324 390
#     4  10  21  40  64  88 124 170 212 266 320 388
#     4  11  22  42  64  95 128 170 217 266 324 395
#     4  12  22  40  64  96 128 170 221 267 320 388
#     4  11  22  42  64  95 134 165 217 278 330 390
#     4  10  22  42  64  90 129 174 213 271 330 390
#     4  11  22  40  64  90 133 169 211 272 326 382
#
# _framework density 19.779798
#
# number of rings (size 3 to 8) (size 9 to 14) (size 15 to 20)
#    0.000    1.333    5.333    0.800    0.000    0.000 
#    7.200    1.333    0.000    0.000    0.000    0.000 
#    0.000    0.000    0.000    0.000    0.000    0.000 
#
# Total GULP energy -334223.937564 kJ/mol
# GULP energy per Si atom -5570.398959 kJ/mol
# Density = 1.973478 g / cm^3
# Si number density = 19.779798 Si / 1000 Ang^3
#
#
#
# Elastic Constant Matrix: (Units=GPa)
#
#
# Indices 1 2 3 4 5 6 
#
# 1 65.2424 -6.6888 11.2657 0.0000 0.0000 0.0000
# 2 -6.6888 26.4595 28.3614 0.0000 0.0000 0.0000
# 3 11.2657 28.3614 113.3074 0.0000 0.0000 0.0000
# 4 0.0000 0.0000 0.0000 20.8484 0.0000 0.0000
# 5 0.0000 0.0000 0.0000 0.0000 37.2023 0.0000
# 6 0.0000 0.0000 0.0000 0.0000 0.0000 7.5088
#
#
#
# Elastic Compliance Matrix: (Units=1/GPa)
#
#
# Indices 1 2 3 4 5 6 
#
# 1 0.016820 0.008261 -0.003740 0.000000 0.000000 0.000000
# 2 0.008261 0.055709 -0.014766 0.000000 0.000000 0.000000
# 3 -0.003740 -0.014766 0.012893 0.000000 0.000000 0.000000
# 4 0.000000 0.000000 0.000000 0.047965 0.000000 0.000000
# 5 0.000000 0.000000 0.000000 0.000000 0.026880 0.000000
# 6 0.000000 0.000000 0.000000 0.000000 0.000000 0.133177
#
#
# Mechanical properties :
#
#
# Convention : Reuss Voigt Hill
#
# Bulk Modulus (GPa) = 15.40045 30.09842 22.74944
# Shear Modulus (GPa) = 14.89965 24.58330 19.74147
#
# Velocity S-wave (km/s) = 2.74756 3.52923 3.16264
# Velocity P-wave (km/s) = 4.22710 5.64421 4.98625
#
# Compressibility (1/GPa) = 0.06493315
#
# Stress axis : x y z
#
# Youngs Moduli (GPa) = 59.45217 17.95044 77.55954
#
# Poissons Ratio (x) = -0.14829 0.29008
# Poissons Ratio (y) = -0.49114 1.14521
# Poissons Ratio (z) = 0.22236 0.26505
#
# Static dielectric constant tensor:
#      x y z
#    x 1.745840 0.000000 0.000000 
#    y 0.000000 1.661830 0.000000 
#    z 0.000000 0.000000 1.719980 
# 
# From -- ./inp_files/20183.got.cif
#   From: 2010.05.17/outbox.cif.g08.bks.cpg/sg60_11_cif.got.tgz:20183.got - 2010.06.03 14:59:27.
