data_PCOD9456456
_publ_section_title
;
Structure prediction by ZEFSAII (Michael W. Deem and Ramdas Pophale) SiO2 
 PCOD9456456
Probable space group: P B C N
;
_chemical_formula_sum "Si O2"
_cell_formula_units_Z 64
_cell_length_a 30.968133
_cell_length_b 9.171321
_cell_length_c 12.315346
_cell_angle_alpha 90.000000
_cell_angle_beta 90.000000
_cell_angle_gamma 90.000000
_cell_volume 3497.788420
_symmetry_space_group_name_H-M "P B C N"
_symmetry_group_IT_number 60
_symmetry_cell_setting 'orthorhombic'
loop_
_space_group_symop_operation_xyz
x,y,z
1/2-x,1/2-y,1/2+z
1/2+x,1/2-y,-z
-x,y,1/2-z
-x,-y,-z
1/2+x,1/2+y,1/2-z
1/2-x,1/2+y,z
x,-y,1/2+z
loop_
_atom_site_type_symbol
_atom_site_label
_atom_site_fract_x
_atom_site_fract_y
_atom_site_fract_z
Si Si1 0.501904 0.420381 0.878280
Si Si2 0.149513 0.054056 0.964631
Si Si3 0.124368 0.466333 0.534321
Si Si4 0.406633 0.742821 0.131278
Si Si5 0.308631 0.835573 0.903596
Si Si6 0.765825 0.901619 0.443526
Si Si7 0.296891 0.871100 0.668331
Si Si8 0.408347 0.289653 0.880786
O O1 0.500000 0.488366 0.750000
O O2 0.546649 0.331953 0.879573
O O3 0.459280 0.321307 0.879925
O O4 0.500000 0.500000 0.000000
O O5 0.127046 0.141969 0.064154
O O6 0.191863 0.966150 0.000515
O O7 0.166360 0.183315 0.886681
O O8 0.116029 0.938187 0.916046
O O9 0.094373 0.593080 0.583928
O O10 0.158236 0.555864 0.461154
O O11 0.154542 0.394014 0.625947
O O12 0.102556 0.340472 0.463516
O O13 0.394463 0.748190 0.258072
O O14 0.294421 0.908100 0.793099
O O15 0.265993 0.814308 0.975801
O O16 0.781944 0.792829 0.351511
O O17 0.735785 0.027065 0.396397
#
# Coordination Sequence:
#
# PCOD9456456 Si02
#       8
#     8   8   8   8   8   8   8   8
#     4  10  21  42  66  98 132 167 208 261 324 385
#     4  11  22  39  60  89 119 156 213 252 307 375
#     4  10  22  42  58  90 123 154 209 249 306 371
#     4  10  23  41  63  92 129 162 203 261 318 380
#     4  10  24  40  56  81 122 159 196 255 308 359
#     4  11  23  39  53  85 115 153 208 249 296 370
#     4  11  23  38  59  80 120 159 200 253 307 359
#     4  11  22  38  69  91 124 166 204 259 316 382
#
# _framework density 18.297277000000001
#
# number of rings (size 3 to 8) (size 9 to 14) (size 15 to 20)
#    0.000    1.500    3.750    0.750    3.500    0.500 
#    0.000    1.250    0.000    0.000    0.000    0.000 
#    0.000    0.000    0.000    0.000    0.000    0.000 
#
# Total GULP energy -356576.479204 kJ/mol
# GULP energy per Si atom -5571.507488 kJ/mol
# Density = 1.825563 g / cm^3
# Si number density = 18.297277 Si / 1000 Ang^3
#
#
#
# Elastic Constant Matrix: (Units=GPa)
#
#
# Indices 1 2 3 4 5 6 
#
# 1 59.7007 14.0825 11.6099 0.0000 0.0000 0.0000
# 2 14.0825 67.7350 16.9741 0.0000 0.0000 0.0000
# 3 11.6099 16.9741 92.0529 0.0000 0.0000 0.0000
# 4 0.0000 0.0000 0.0000 477.1476 0.0000 0.0000
# 5 0.0000 0.0000 0.0000 0.0000 19.5701 0.0000
# 6 0.0000 0.0000 0.0000 0.0000 0.0000 13.2538
#
#
#
# Elastic Compliance Matrix: (Units=1/GPa)
#
#
# Indices 1 2 3 4 5 6 
#
# 1 0.017848 -0.003299 -0.001643 0.000000 0.000000 0.000000
# 2 -0.003299 0.016088 -0.002551 0.000000 0.000000 0.000000
# 3 -0.001643 -0.002551 0.011541 0.000000 0.000000 0.000000
# 4 0.000000 0.000000 0.000000 0.002096 0.000000 0.000000
# 5 0.000000 0.000000 0.000000 0.000000 0.051098 0.000000
# 6 0.000000 0.000000 0.000000 0.000000 0.000000 0.075450
#
#
# Mechanical properties :
#
#
# Convention : Reuss Voigt Hill
#
# Bulk Modulus (GPa) = 32.79483 33.86906 33.33195
# Shear Modulus (GPa) = 25.09159 113.78243 69.43701
#
# Velocity S-wave (km/s) = 3.70716 7.89433 6.16699
# Velocity P-wave (km/s) = 6.02381 10.08189 8.30454
#
# Compressibility (1/GPa) = 0.03049261
#
# Stress axis : x y z
#
# Youngs Moduli (GPa) = 56.02907 62.15632 86.64909
#
# Poissons Ratio (x) = 0.20506 0.14234
# Poissons Ratio (y) = 0.18484 0.22100
# Poissons Ratio (z) = 0.09204 0.15853
#
# Static dielectric constant tensor:
#      x y z
#    x 1.600020 0.000000 0.000000 
#    y 0.000000 2.189190 0.000000 
#    z 0.000000 0.000000 1.676960 
# 
# From -- ./inp_files/13405.got.cif
#   From: 2010.05.17/outbox.cif.g08.bks.cpg/sg60_7_cif.got.tgz:13405.got - 2010.06.03 14:59:27.
