data_PCOD9456703
_publ_section_title
;
Structure prediction by ZEFSAII (Michael W. Deem and Ramdas Pophale) SiO2 
 PCOD9456703
Probable space group: P B C N
;
_chemical_formula_sum "Si O2"
_cell_formula_units_Z 56
_cell_length_a 20.784804
_cell_length_b 10.634661
_cell_length_c 11.359399
_cell_angle_alpha 90.000000
_cell_angle_beta 90.000000
_cell_angle_gamma 90.000000
_cell_volume 2510.874109
_symmetry_space_group_name_H-M "P B C N"
_symmetry_group_IT_number 60
_symmetry_cell_setting 'orthorhombic'
loop_
_space_group_symop_operation_xyz
x,y,z
1/2-x,1/2-y,1/2+z
1/2+x,1/2-y,-z
-x,y,1/2-z
-x,-y,-z
1/2+x,1/2+y,1/2-z
1/2-x,1/2+y,z
x,-y,1/2+z
loop_
_atom_site_type_symbol
_atom_site_label
_atom_site_fract_x
_atom_site_fract_y
_atom_site_fract_z
Si Si1 0.233543 0.073867 0.866608
Si Si2 0.926343 0.784320 0.721579
Si Si3 0.807196 0.816914 0.587769
Si Si4 0.563475 0.758497 0.671362
Si Si5 0.152333 0.885557 0.154178
Si Si6 0.613947 0.365554 0.960510
Si Si7 0.462111 0.023141 0.876181
O O1 0.285536 0.183726 0.863179
O O2 0.208901 0.058953 0.733145
O O3 0.244614 0.929458 0.903199
O O4 0.179990 0.124385 0.962854
O O5 0.873194 0.865071 0.651151
O O6 0.893985 0.769290 0.851013
O O7 0.932904 0.661625 0.637689
O O8 0.000000 0.827811 0.750000
O O9 0.822174 0.803325 0.451711
O O10 0.500000 0.758917 0.750000
O O11 0.615406 0.700823 0.756191
O O12 0.560199 0.672803 0.555106
O O13 0.581484 0.899356 0.632355
O O14 0.109726 0.998466 0.101121
O O15 0.500000 0.019236 0.750000
O O16 0.500000 0.000000 0.000000
#
# Coordination Sequence:
#
# PCOD9456703 Si02
#       7
#     8   8   8   8   8   8   8
#     4  10  24  47  66 101 138 186 250 296 363 427
#     4  11  24  42  72 105 143 191 235 290 380 444
#     4  11  25  43  73 101 137 188 240 309 361 435
#     4  10  22  38  64  97 138 186 230 285 353 431
#     4  10  23  42  64  98 138 175 246 292 353 434
#     4  10  22  44  64  94 143 184 231 293 354 435
#     4  10  22  40  63  94 141 186 239 287 347 440
#
# _framework density 22.302989
#
# number of rings (size 3 to 8) (size 9 to 14) (size 15 to 20)
#    0.000    1.714    1.429    1.714    8.000    3.429 
#    2.571    0.000    0.000    0.000    0.000    0.000 
#    0.000    0.000    0.000    0.000    0.000    0.000 
#
# Total GULP energy -311826.448258 kJ/mol
# GULP energy per Si atom -5568.329433 kJ/mol
# Density = 2.225223 g / cm^3
# Si number density = 22.302989 Si / 1000 Ang^3
#
#
#
# Elastic Constant Matrix: (Units=GPa)
#
#
# Indices 1 2 3 4 5 6 
#
# 1 36.3774 23.8441 14.5728 0.0000 0.0000 0.0000
# 2 23.8441 97.0881 22.8030 0.0000 0.0000 0.0000
# 3 14.5728 22.8030 140.5630 0.0000 0.0000 0.0000
# 4 0.0000 0.0000 0.0000 25.7169 0.0000 0.0000
# 5 0.0000 0.0000 0.0000 0.0000 22.3602 0.0000
# 6 0.0000 0.0000 0.0000 0.0000 0.0000 29.1900
#
#
#
# Elastic Compliance Matrix: (Units=1/GPa)
#
#
# Indices 1 2 3 4 5 6 
#
# 1 0.033416 -0.007686 -0.002218 0.000000 0.000000 0.000000
# 2 -0.007686 0.012476 -0.001227 0.000000 0.000000 0.000000
# 3 -0.002218 -0.001227 0.007543 0.000000 0.000000 0.000000
# 4 0.000000 0.000000 0.000000 0.038885 0.000000 0.000000
# 5 0.000000 0.000000 0.000000 0.000000 0.044722 0.000000
# 6 0.000000 0.000000 0.000000 0.000000 0.000000 0.034258
#
#
# Mechanical properties :
#
#
# Convention : Reuss Voigt Hill
#
# Bulk Modulus (GPa) = 32.07819 44.05203 38.06511
# Shear Modulus (GPa) = 24.51554 29.64067 27.07810
#
# Velocity S-wave (km/s) = 3.31902 3.64950 3.48818
# Velocity P-wave (km/s) = 5.39463 6.12805 5.77300
#
# Compressibility (1/GPa) = 0.03117383
#
# Stress axis : x y z
#
# Youngs Moduli (GPa) = 29.92601 80.15575 132.56959
#
# Poissons Ratio (x) = 0.61606 0.29398
# Poissons Ratio (y) = 0.23001 0.16267
# Poissons Ratio (z) = 0.06636 0.09836
#
# Static dielectric constant tensor:
#      x y z
#    x 2.164790 0.000000 0.000000 
#    y 0.000000 1.905000 0.000000 
#    z 0.000000 0.000000 1.902220 
# 
# From -- ./inp_files/12837.got.cif
#   From: 2010.05.17/outbox.cif.g08.bks.cpg/sg60_7_cif.got.tgz:12837.got - 2010.06.03 14:59:27.
