data_PCOD9456169
_publ_section_title
;
Structure prediction by ZEFSAII (Michael W. Deem and Ramdas Pophale) SiO2 
 PCOD9456169
Probable space group: P B C N
;
_chemical_formula_sum "Si O2"
_cell_formula_units_Z 64
_cell_length_a 13.630541
_cell_length_b 17.415197
_cell_length_c 13.170560
_cell_angle_alpha 90.000000
_cell_angle_beta 90.000000
_cell_angle_gamma 90.000000
_cell_volume 3126.408524
_symmetry_space_group_name_H-M "P B C N"
_symmetry_group_IT_number 60
_symmetry_cell_setting 'orthorhombic'
loop_
_space_group_symop_operation_xyz
x,y,z
1/2-x,1/2-y,1/2+z
1/2+x,1/2-y,-z
-x,y,1/2-z
-x,-y,-z
1/2+x,1/2+y,1/2-z
1/2-x,1/2+y,z
x,-y,1/2+z
loop_
_atom_site_type_symbol
_atom_site_label
_atom_site_fract_x
_atom_site_fract_y
_atom_site_fract_z
Si Si1 0.554466 0.692442 0.640641
Si Si2 0.087667 0.028013 0.831761
Si Si3 0.136716 0.556528 0.527673
Si Si4 0.290879 0.089665 0.735936
Si Si5 0.924024 0.595453 0.580185
Si Si6 0.194236 0.878364 0.900861
Si Si7 0.235509 0.739058 0.247100
Si Si8 0.875266 0.259756 0.962210
O O1 0.500000 0.686163 0.750000
O O2 0.559868 0.604185 0.602971
O O3 0.655776 0.734100 0.667883
O O4 0.487121 0.743721 0.569792
O O5 0.188186 0.060079 0.781053
O O6 0.000000 0.014400 0.750000
O O7 0.120670 0.950195 0.887616
O O8 0.203230 0.552564 0.626412
O O9 0.105357 0.472042 0.495868
O O10 0.198906 0.591639 0.435758
O O11 0.040554 0.602052 0.565949
O O12 0.381372 0.071705 0.810627
O O13 0.291714 0.181838 0.724812
O O14 0.871596 0.672896 0.544027
O O15 0.204336 0.830212 0.796460
O O16 0.162659 0.818492 0.987667
O O17 0.182088 0.719149 0.141138
#
# Coordination Sequence:
#
# PCOD9456169 Si02
#       8
#     8   8   8   8   8   8   8   8
#     4   8  18  39  62  84 118 170 214 256 316 386
#     4  10  23  42  63  93 130 173 219 264 327 397
#     4  11  25  42  66  95 129 172 216 272 330 391
#     4  11  21  45  67  90 133 168 210 276 325 383
#     4  11  24  43  65  97 127 169 225 263 332 397
#     4  12  23  40  62  99 133 166 222 269 324 403
#     4  10  21  39  64  90 130 166 211 265 322 381
#     4  11  22  40  64  96 127 169 217 269 327 384
#
# _framework density 20.470773999999999
#
# number of rings (size 3 to 8) (size 9 to 14) (size 15 to 20)
#    0.000    1.500    3.750    1.875    1.750    0.500 
#    2.250    1.250    0.000    0.000    0.000    0.000 
#    0.000    0.000    0.000    0.000    0.000    0.000 
#
# Total GULP energy -357080.414657 kJ/mol
# GULP energy per Si atom -5579.381479 kJ/mol
# Density = 2.042418 g / cm^3
# Si number density = 20.470774 Si / 1000 Ang^3
#
#
#
# Elastic Constant Matrix: (Units=GPa)
#
#
# Indices 1 2 3 4 5 6 
#
# 1 45.7505 0.5713 -5.5165 0.0000 0.0000 0.0000
# 2 0.5713 61.7722 11.6329 0.0000 0.0000 0.0000
# 3 -5.5165 11.6329 48.0529 0.0000 0.0000 0.0000
# 4 0.0000 0.0000 0.0000 19.5666 0.0000 0.0000
# 5 0.0000 0.0000 0.0000 0.0000 26.6929 0.0000
# 6 0.0000 0.0000 0.0000 0.0000 0.0000 26.6001
#
#
#
# Elastic Compliance Matrix: (Units=1/GPa)
#
#
# Indices 1 2 3 4 5 6 
#
# 1 0.022195 -0.000718 0.002722 0.000000 0.000000 0.000000
# 2 -0.000718 0.016985 -0.004194 0.000000 0.000000 0.000000
# 3 0.002722 -0.004194 0.022138 0.000000 0.000000 0.000000
# 4 0.000000 0.000000 0.000000 0.051108 0.000000 0.000000
# 5 0.000000 0.000000 0.000000 0.000000 0.037463 0.000000
# 6 0.000000 0.000000 0.000000 0.000000 0.000000 0.037594
#
#
# Mechanical properties :
#
#
# Convention : Reuss Voigt Hill
#
# Bulk Modulus (GPa) = 17.56314 18.77233 18.16774
# Shear Modulus (GPa) = 23.71440 24.49777 24.10609
#
# Velocity S-wave (km/s) = 3.40730 3.46312 3.43532
# Velocity P-wave (km/s) = 4.90691 5.01808 4.96281
#
# Compressibility (1/GPa) = 0.05693743
#
# Stress axis : x y z
#
# Youngs Moduli (GPa) = 45.05558 58.87542 45.17070
#
# Poissons Ratio (x) = 0.04226 -0.12294
# Poissons Ratio (y) = 0.03234 0.18946
# Poissons Ratio (z) = -0.12263 0.24694
#
# Static dielectric constant tensor:
#      x y z
#    x 1.782140 0.000000 0.000000 
#    y 0.000000 1.725200 0.000000 
#    z 0.000000 0.000000 1.704750 
# 
# From -- ./inp_files/12133.got.cif
#   From: 2010.05.17/outbox.cif.g08.bks.cpg/sg60_7_cif.got.tgz:12133.got - 2010.06.03 14:59:27.
