data_PCOD9456587
_publ_section_title
;
Structure prediction by ZEFSAII (Michael W. Deem and Ramdas Pophale) SiO2 
 PCOD9456587
Probable space group: P B C N
;
_chemical_formula_sum "Si O2"
_cell_formula_units_Z 56
_cell_length_a 5.875891
_cell_length_b 23.302480
_cell_length_c 21.846081
_cell_angle_alpha 90.000000
_cell_angle_beta 90.000000
_cell_angle_gamma 90.000000
_cell_volume 2991.227290
_symmetry_space_group_name_H-M "P B C N"
_symmetry_group_IT_number 60
_symmetry_cell_setting 'orthorhombic'
loop_
_space_group_symop_operation_xyz
x,y,z
1/2-x,1/2-y,1/2+z
1/2+x,1/2-y,-z
-x,y,1/2-z
-x,-y,-z
1/2+x,1/2+y,1/2-z
1/2-x,1/2+y,z
x,-y,1/2+z
loop_
_atom_site_type_symbol
_atom_site_label
_atom_site_fract_x
_atom_site_fract_y
_atom_site_fract_z
Si Si1 0.112964 0.815949 0.808908
Si Si2 0.849362 0.732191 0.076269
Si Si3 0.458199 0.964155 0.901853
Si Si4 0.523224 0.341727 0.485714
Si Si5 0.764584 0.354768 0.902619
Si Si6 0.248584 0.556624 0.280842
Si Si7 0.300989 0.540780 0.528042
O O1 0.250204 0.776212 0.855668
O O2 0.242049 0.873699 0.787511
O O3 0.000000 0.786992 0.750000
O O4 0.911271 0.839796 0.850770
O O5 0.883950 0.796983 0.055007
O O6 0.090446 0.700502 0.079404
O O7 0.697411 0.696777 0.026820
O O8 0.583505 0.906650 0.880820
O O9 0.273553 0.973119 0.848284
O O10 0.648357 0.010892 0.919605
O O11 0.348411 0.949265 0.967075
O O12 0.365107 0.372198 0.536073
O O13 0.627035 0.395701 0.450662
O O14 0.500000 0.542540 0.250000
O O15 0.000000 0.541995 0.250000
O O16 0.500000 0.500000 0.500000
#
# Coordination Sequence:
#
# PCOD9456587 Si02
#       7
#     8   8   8   8   8   8   8
#     4  10  22  34  54  88 123 159 200 253 318 368
#     4  11  21  33  58  81 125 160 193 262 303 390
#     4  11  21  37  56  88 127 160 200 251 326 372
#     4  11  21  36  53  88 120 159 208 240 328 379
#     4  11  19  35  58  82 126 156 198 251 308 385
#     4  11  23  37  62  89 128 165 205 262 315 380
#     4  11  23  34  59  87 126 161 197 264 307 391
#
# _framework density 18.721412999999998
#
# number of rings (size 3 to 8) (size 9 to 14) (size 15 to 20)
#    0.000    1.143    5.714    2.571    2.000    0.000 
#    0.000    0.000    0.000    0.000    0.000    6.000 
#    0.000    0.000    0.000    0.000    0.000    0.000 
#
# Total GULP energy -312054.073713 kJ/mol
# GULP energy per Si atom -5572.394173 kJ/mol
# Density = 1.867880 g / cm^3
# Si number density = 18.721413 Si / 1000 Ang^3
#
#
#
# Elastic Constant Matrix: (Units=GPa)
#
#
# Indices 1 2 3 4 5 6 
#
# 1 74.0049 18.2304 18.0147 0.0000 0.0000 0.0000
# 2 18.2304 79.2566 15.9831 0.0000 0.0000 0.0000
# 3 18.0147 15.9831 67.8457 0.0000 0.0000 0.0000
# 4 0.0000 0.0000 0.0000 17.7392 0.0000 0.0000
# 5 0.0000 0.0000 0.0000 0.0000 32.7394 0.0000
# 6 0.0000 0.0000 0.0000 0.0000 0.0000 227.7245
#
#
#
# Elastic Compliance Matrix: (Units=1/GPa)
#
#
# Indices 1 2 3 4 5 6 
#
# 1 0.015008 -0.002781 -0.003330 0.000000 0.000000 0.000000
# 2 -0.002781 0.013762 -0.002504 0.000000 0.000000 0.000000
# 3 -0.003330 -0.002504 0.016213 0.000000 0.000000 0.000000
# 4 0.000000 0.000000 0.000000 0.056372 0.000000 0.000000
# 5 0.000000 0.000000 0.000000 0.000000 0.030544 0.000000
# 6 0.000000 0.000000 0.000000 0.000000 0.000000 0.004391
#
#
# Mechanical properties :
#
#
# Convention : Reuss Voigt Hill
#
# Bulk Modulus (GPa) = 36.02991 36.17374 36.10182
# Shear Modulus (GPa) = 30.71796 66.89922 48.80859
#
# Velocity S-wave (km/s) = 4.05506 5.98428 5.11152
# Velocity P-wave (km/s) = 6.41964 8.19225 7.35951
#
# Compressibility (1/GPa) = 0.02775472
#
# Stress axis : x y z
#
# Youngs Moduli (GPa) = 66.63026 72.66527 61.67762
#
# Poissons Ratio (x) = 0.20205 0.20539
# Poissons Ratio (y) = 0.18527 0.15442
# Poissons Ratio (z) = 0.22188 0.18193
#
# Static dielectric constant tensor:
#      x y z
#    x 1.870720 0.000000 0.000000 
#    y 0.000000 1.619220 0.000000 
#    z 0.000000 0.000000 1.713400 
# 
# From -- ./inp_files/21715.got.cif
#   From: 2010.05.17/outbox.cif.g08.bks.cpg/sg60_11_cif.got.tgz:21715.got - 2010.06.03 14:59:27.
