data_PCOD9456773
_publ_section_title
;
Structure prediction by ZEFSAII (Michael W. Deem and Ramdas Pophale) SiO2 
 PCOD9456773
Probable space group: P B C N
;
_chemical_formula_sum "Si O2"
_cell_formula_units_Z 64
_cell_length_a 23.236487
_cell_length_b 9.291252
_cell_length_c 14.960714
_cell_angle_alpha 90.000000
_cell_angle_beta 90.000000
_cell_angle_gamma 90.000000
_cell_volume 3229.959152
_symmetry_space_group_name_H-M "P B C N"
_symmetry_group_IT_number 60
_symmetry_cell_setting 'orthorhombic'
loop_
_space_group_symop_operation_xyz
x,y,z
1/2-x,1/2-y,1/2+z
1/2+x,1/2-y,-z
-x,y,1/2-z
-x,-y,-z
1/2+x,1/2+y,1/2-z
1/2-x,1/2+y,z
x,-y,1/2+z
loop_
_atom_site_type_symbol
_atom_site_label
_atom_site_fract_x
_atom_site_fract_y
_atom_site_fract_z
Si Si1 0.217499 0.392783 0.848157
Si Si2 0.200546 0.991821 0.090388
Si Si3 0.125705 0.616748 0.843172
Si Si4 0.063642 0.588410 0.213474
Si Si5 0.931070 0.507264 0.979487
Si Si6 0.184342 0.323584 0.049006
Si Si7 0.654981 0.574329 0.108196
Si Si8 0.856748 0.163347 0.741543
O O1 0.190157 0.552255 0.844044
O O2 0.284487 0.406610 0.841959
O O3 0.191224 0.285337 0.776696
O O4 0.201433 0.325920 0.944287
O O5 0.267467 0.934992 0.089932
O O6 0.165066 0.927580 0.173688
O O7 0.196377 0.165256 0.088117
O O8 0.170520 0.939028 0.996733
O O9 0.098146 0.546659 0.755630
O O10 0.120682 0.784579 0.862132
O O11 0.095999 0.544143 0.928352
O O12 0.071815 0.590607 0.107864
O O13 0.087315 0.740253 0.245339
O O14 0.000000 0.568542 0.250000
O O15 0.883861 0.632733 0.950712
O O16 0.000000 0.500000 0.000000
O O17 0.631403 0.431711 0.153781
#
# Coordination Sequence:
#
# PCOD9456773 Si02
#       8
#     8   8   8   8   8   8   8   8
#     4   9  20  38  60  88 129 169 200 249 314 382
#     4  11  25  40  63  98 136 172 206 266 328 397
#     4  10  22  39  64  92 123 164 211 258 308 380
#     4  11  24  44  65  91 121 166 221 268 314 380
#     4  11  23  42  70  92 120 171 221 268 316 380
#     4  10  24  41  63  95 134 167 215 265 325 391
#     4  11  22  39  61  94 128 162 204 257 317 384
#     4  11  24  39  63  93 130 168 205 262 327 378
#
# _framework density 19.814491
#
# number of rings (size 3 to 8) (size 9 to 14) (size 15 to 20)
#    0.000    1.500    2.500    1.500   14.000    1.000 
#    0.000    1.875    0.000    3.000    0.000    0.000 
#    0.000    0.000    0.000    0.000    0.000    0.000 
#
# Total GULP energy -356569.952594 kJ/mol
# GULP energy per Si atom -5571.405509 kJ/mol
# Density = 1.976939 g / cm^3
# Si number density = 19.814491 Si / 1000 Ang^3
#
#
#
# Elastic Constant Matrix: (Units=GPa)
#
#
# Indices 1 2 3 4 5 6 
#
# 1 56.9399 15.3247 -9.0765 0.0000 0.0000 0.0000
# 2 15.3247 78.3429 -3.8250 0.0000 0.0000 0.0000
# 3 -9.0765 -3.8250 59.7816 0.0000 0.0000 0.0000
# 4 0.0000 0.0000 0.0000 24.1073 0.0000 0.0000
# 5 0.0000 0.0000 0.0000 0.0000 29.7857 0.0000
# 6 0.0000 0.0000 0.0000 0.0000 0.0000 36.5676
#
#
#
# Elastic Compliance Matrix: (Units=1/GPa)
#
#
# Indices 1 2 3 4 5 6 
#
# 1 0.018947 -0.003577 0.002648 0.000000 0.000000 0.000000
# 2 -0.003577 0.013480 0.000319 0.000000 0.000000 0.000000
# 3 0.002648 0.000319 0.017150 0.000000 0.000000 0.000000
# 4 0.000000 0.000000 0.000000 0.041481 0.000000 0.000000
# 5 0.000000 0.000000 0.000000 0.000000 0.033573 0.000000
# 6 0.000000 0.000000 0.000000 0.000000 0.000000 0.027347
#
#
# Mechanical properties :
#
#
# Convention : Reuss Voigt Hill
#
# Bulk Modulus (GPa) = 20.67940 22.21231 21.44586
# Shear Modulus (GPa) = 29.53048 30.93485 30.23266
#
# Velocity S-wave (km/s) = 3.86469 3.95552 3.91037
# Velocity P-wave (km/s) = 5.51122 5.66533 5.58881
#
# Compressibility (1/GPa) = 0.04835731
#
# Stress axis : x y z
#
# Youngs Moduli (GPa) = 52.77836 74.18571 58.30905
#
# Poissons Ratio (x) = 0.26536 -0.15439
# Poissons Ratio (y) = 0.18879 -0.01862
# Poissons Ratio (z) = -0.13975 -0.02369
#
# Static dielectric constant tensor:
#      x y z
#    x 1.736780 0.000000 0.000000 
#    y 0.000000 1.742100 0.000000 
#    z 0.000000 0.000000 1.712130 
# 
# From -- ./inp_files/17934.got.cif
#   From: 2010.05.17/outbox.cif.g08.bks.cpg/sg60_9_cif.got.tgz:17934.got - 2010.06.03 14:59:27.
