data_PCOD9456429
_publ_section_title
;
Structure prediction by ZEFSAII (Michael W. Deem and Ramdas Pophale) SiO2 
 PCOD9456429
Probable space group: P B C N
;
_chemical_formula_sum "Si O2"
_cell_formula_units_Z 44
_cell_length_a 4.983758
_cell_length_b 22.943167
_cell_length_c 18.232204
_cell_angle_alpha 90.000000
_cell_angle_beta 90.000000
_cell_angle_gamma 90.000000
_cell_volume 2084.728404
_symmetry_space_group_name_H-M "P B C N"
_symmetry_group_IT_number 60
_symmetry_cell_setting 'orthorhombic'
loop_
_space_group_symop_operation_xyz
x,y,z
1/2-x,1/2-y,1/2+z
1/2+x,1/2-y,-z
-x,y,1/2-z
-x,-y,-z
1/2+x,1/2+y,1/2-z
1/2-x,1/2+y,z
x,-y,1/2+z
loop_
_atom_site_type_symbol
_atom_site_label
_atom_site_fract_x
_atom_site_fract_y
_atom_site_fract_z
Si Si1 0.000000 0.498757 0.250000
Si Si2 0.124003 0.986805 0.078776
Si Si3 0.590828 0.923895 0.121515
Si Si4 0.261878 0.813546 0.449403
Si Si5 0.242526 0.821891 0.951009
Si Si6 0.083413 0.086937 0.326916
O O1 0.078037 0.451658 0.188180
O O2 0.204753 0.540527 0.292764
O O3 0.891291 0.947993 0.116578
O O4 0.398395 0.952382 0.060645
O O5 0.130381 0.046360 0.128181
O O6 0.000000 0.000000 0.000000
O O7 0.629339 0.855647 0.113739
O O8 0.286870 0.746011 0.428400
O O9 0.968175 0.828768 0.481358
O O10 0.459075 0.826290 0.517586
O O11 0.189640 0.867099 0.885951
O O12 0.000000 0.117048 0.250000
#
# Coordination Sequence:
#
# PCOD9456429 Si02
#       6
#     4   8   8   8   8   8
#     4  10  24  38  56  88 128 162 196 244 304 376
#     4  11  22  35  59  88 115 154 200 242 293 357
#     4  11  21  37  58  82 120 153 193 243 297 349
#     4  10  21  42  62  90 113 156 207 258 298 349
#     4  10  23  39  65  86 119 155 205 255 301 356
#     4  11  22  39  58  87 129 160 198 247 313 362
#
# _framework density 21.105868999999998
#
# number of rings (size 3 to 8) (size 9 to 14) (size 15 to 20)
#    0.000    1.455    1.818    3.818    2.545    1.455 
#    1.636    0.000    0.000    0.000    0.000    0.000 
#    0.000    0.000    0.000    0.000    0.000    0.000 
#
# Total GULP energy -245036.950593 kJ/mol
# GULP energy per Si atom -5569.021604 kJ/mol
# Density = 2.105783 g / cm^3
# Si number density = 21.105869 Si / 1000 Ang^3
#
#
#
# Elastic Constant Matrix: (Units=GPa)
#
#
# Indices 1 2 3 4 5 6 
#
# 1 78.3845 0.9675 -10.6059 0.0000 0.0000 0.0000
# 2 0.9675 85.9936 38.8488 0.0000 0.0000 0.0000
# 3 -10.6059 38.8488 47.1019 0.0000 0.0000 0.0000
# 4 0.0000 0.0000 0.0000 42.3517 0.0000 0.0000
# 5 0.0000 0.0000 0.0000 0.0000 21.2280 0.0000
# 6 0.0000 0.0000 0.0000 0.0000 0.0000 23.9572
#
#
#
# Elastic Compliance Matrix: (Units=1/GPa)
#
#
# Indices 1 2 3 4 5 6 
#
# 1 0.013469 -0.002425 0.005033 0.000000 0.000000 0.000000
# 2 -0.002425 0.018972 -0.016194 0.000000 0.000000 0.000000
# 3 0.005033 -0.016194 0.035720 0.000000 0.000000 0.000000
# 4 0.000000 0.000000 0.000000 0.023612 0.000000 0.000000
# 5 0.000000 0.000000 0.000000 0.000000 0.047108 0.000000
# 6 0.000000 0.000000 0.000000 0.000000 0.000000 0.041741
#
#
# Mechanical properties :
#
#
# Convention : Reuss Voigt Hill
#
# Bulk Modulus (GPa) = 24.39705 29.98898 27.19302
# Shear Modulus (GPa) = 22.57789 29.65870 26.11830
#
# Velocity S-wave (km/s) = 3.27424 3.75271 3.52161
# Velocity P-wave (km/s) = 5.08711 5.74603 5.42658
#
# Compressibility (1/GPa) = 0.04098856
#
# Stress axis : x y z
#
# Youngs Moduli (GPa) = 74.24702 52.70984 27.99544
#
# Poissons Ratio (x) = 0.12783 -0.14090
# Poissons Ratio (y) = 0.18007 0.45335
# Poissons Ratio (z) = -0.37369 0.85357
#
# Static dielectric constant tensor:
#      x y z
#    x 2.039050 0.000000 0.000000 
#    y 0.000000 1.803550 0.000000 
#    z 0.000000 0.000000 2.150950 
# 
# From -- ./inp_files/18664.got.cif
#   From: 2010.05.17/outbox.cif.g08.bks.cpg/sg60_10_cif.got.tgz:18664.got - 2010.06.03 14:59:27.
