data_PCOD9456249
_publ_section_title
;
Structure prediction by ZEFSAII (Michael W. Deem and Ramdas Pophale) SiO2 
 PCOD9456249
Probable space group: P B C N
;
_chemical_formula_sum "Si O2"
_cell_formula_units_Z 40
_cell_length_a 6.503151
_cell_length_b 14.106348
_cell_length_c 22.703892
_cell_angle_alpha 90.000000
_cell_angle_beta 90.000000
_cell_angle_gamma 90.000000
_cell_volume 2082.757677
_symmetry_space_group_name_H-M "P B C N"
_symmetry_group_IT_number 60
_symmetry_cell_setting 'orthorhombic'
loop_
_space_group_symop_operation_xyz
x,y,z
1/2-x,1/2-y,1/2+z
1/2+x,1/2-y,-z
-x,y,1/2-z
-x,-y,-z
1/2+x,1/2+y,1/2-z
1/2-x,1/2+y,z
x,-y,1/2+z
loop_
_atom_site_type_symbol
_atom_site_label
_atom_site_fract_x
_atom_site_fract_y
_atom_site_fract_z
Si Si1 0.323508 0.828479 0.373580
Si Si2 0.553730 0.005606 0.816117
Si Si3 0.559615 0.540927 0.888469
Si Si4 0.736129 0.123345 0.103470
Si Si5 0.907321 0.399626 0.479480
O O1 0.459031 0.890255 0.328688
O O2 0.309154 0.717164 0.363418
O O3 0.431723 0.847779 0.436885
O O4 0.099188 0.876020 0.372991
O O5 0.500000 0.977849 0.750000
O O6 0.791259 0.011631 0.834695
O O7 0.436732 0.934314 0.860571
O O8 0.421581 0.450702 0.906027
O O9 0.707809 0.576361 0.940455
O O10 0.648917 0.153012 0.039673
O O11 0.000000 0.500000 0.500000
#
# Coordination Sequence:
#
# PCOD9456249 Si02
#       5
#     8   8   8   8   8
#     4  10  24  38  59  97 120 161 209 253 309 374
#     4  10  23  46  62  85 123 163 214 260 308 364
#     4  10  21  40  63  81 128 163 194 256 310 360
#     4  11  23  38  61  95 122 161 212 245 317 372
#     4  11  20  37  59  88 127 162 200 248 307 383
#
# _framework density 19.205304999999999
#
# number of rings (size 3 to 8) (size 9 to 14) (size 15 to 20)
#    0.000    1.600    6.000    0.600    2.800    6.400 
#    7.200    0.000    0.000    0.000    0.000    0.000 
#    0.000    0.000    0.000    0.000    0.000    0.000 
#
# Total GULP energy -223311.423382 kJ/mol
# GULP energy per Si atom -5582.785585 kJ/mol
# Density = 1.916159 g / cm^3
# Si number density = 19.205305 Si / 1000 Ang^3
#
#
#
# Elastic Constant Matrix: (Units=GPa)
#
#
# Indices 1 2 3 4 5 6 
#
# 1 101.3573 10.3220 30.8160 0.0000 0.0000 0.0000
# 2 10.3220 81.4744 -13.6074 0.0000 0.0000 0.0000
# 3 30.8160 -13.6074 95.0337 0.0000 0.0000 0.0000
# 4 0.0000 0.0000 0.0000 12.1843 0.0000 0.0000
# 5 0.0000 0.0000 0.0000 0.0000 15.2386 0.0000
# 6 0.0000 0.0000 0.0000 0.0000 0.0000 6.6060
#
#
#
# Elastic Compliance Matrix: (Units=1/GPa)
#
#
# Indices 1 2 3 4 5 6 
#
# 1 0.011282 -0.002090 -0.003958 0.000000 0.000000 0.000000
# 2 -0.002090 0.012962 0.002534 0.000000 0.000000 0.000000
# 3 -0.003958 0.002534 0.012169 0.000000 0.000000 0.000000
# 4 0.000000 0.000000 0.000000 0.082073 0.000000 0.000000
# 5 0.000000 0.000000 0.000000 0.000000 0.065623 0.000000
# 6 0.000000 0.000000 0.000000 0.000000 0.000000 0.151378
#
#
# Mechanical properties :
#
#
# Convention : Reuss Voigt Hill
#
# Bulk Modulus (GPa) = 34.03199 36.99186 35.51193
# Shear Modulus (GPa) = 14.19206 23.49476 18.84341
#
# Velocity S-wave (km/s) = 2.72134 3.50143 3.13574
# Velocity P-wave (km/s) = 5.25669 5.97075 5.62506
#
# Compressibility (1/GPa) = 0.02938411
#
# Stress axis : x y z
#
# Youngs Moduli (GPa) = 88.63488 77.14984 82.17787
#
# Poissons Ratio (x) = 0.16127 0.32524
# Poissons Ratio (y) = 0.18528 -0.20822
# Poissons Ratio (z) = 0.35079 -0.19548
#
# Static dielectric constant tensor:
#      x y z
#    x 1.672430 0.000000 0.000000 
#    y 0.000000 1.646190 0.000000 
#    z 0.000000 0.000000 1.691200 
# 
# From -- ./inp_files/23525.got.cif
#   From: 2010.05.17/outbox.cif.g08.bks.cpg/sg60_12_cif.got.tgz:23525.got - 2010.06.03 14:59:27.
