data_PCOD9456338
_publ_section_title
;
Structure prediction by ZEFSAII (Michael W. Deem and Ramdas Pophale) SiO2 
 PCOD9456338
Probable space group: P B C N
;
_chemical_formula_sum "Si O2"
_cell_formula_units_Z 60
_cell_length_a 9.843845
_cell_length_b 11.624865
_cell_length_c 22.281083
_cell_angle_alpha 90.000000
_cell_angle_beta 90.000000
_cell_angle_gamma 90.000000
_cell_volume 2549.699397
_symmetry_space_group_name_H-M "P B C N"
_symmetry_group_IT_number 60
_symmetry_cell_setting 'orthorhombic'
loop_
_space_group_symop_operation_xyz
x,y,z
1/2-x,1/2-y,1/2+z
1/2+x,1/2-y,-z
-x,y,1/2-z
-x,-y,-z
1/2+x,1/2+y,1/2-z
1/2-x,1/2+y,z
x,-y,1/2+z
loop_
_atom_site_type_symbol
_atom_site_label
_atom_site_fract_x
_atom_site_fract_y
_atom_site_fract_z
Si Si1 0.000000 0.293115 0.250000
Si Si2 0.353866 0.230072 0.122913
Si Si3 0.739334 0.644263 0.546010
Si Si4 0.523670 0.746850 0.003515
Si Si5 0.127095 0.067814 0.400789
Si Si6 0.716506 0.379696 0.265687
Si Si7 0.113748 0.088902 0.172189
Si Si8 0.654188 0.784048 0.659857
O O1 0.129404 0.373572 0.256648
O O2 0.039368 0.204058 0.196949
O O3 0.394844 0.279910 0.057994
O O4 0.301203 0.328845 0.167451
O O5 0.239235 0.131224 0.130915
O O6 0.500178 0.183612 0.144781
O O7 0.893789 0.639345 0.523243
O O8 0.635175 0.728336 0.509617
O O9 0.680413 0.518093 0.549054
O O10 0.715468 0.689444 0.613587
O O11 0.563084 0.669476 0.059998
O O12 0.245243 0.110698 0.355938
O O13 0.001836 0.019623 0.362991
O O14 0.662774 0.508953 0.272839
O O15 0.651529 0.282335 0.222903
#
# Coordination Sequence:
#
# PCOD9456338 Si02
#       8
#     4   8   8   8   8   8   8   8
#     4  10  24  44  62 106 138 178 236 284 342 432
#     4  10  23  40  61  96 134 177 226 290 349 416
#     4  10  22  38  64  93 125 178 220 283 348 408
#     4  10  21  41  62  94 137 168 232 294 340 412
#     4  11  22  41  69  97 128 186 238 280 350 436
#     4  11  23  43  68  97 139 182 232 292 352 423
#     4  11  23  41  69  98 134 186 232 284 361 422
#     4  10  22  42  63  94 135 165 227 288 336 411
#
# _framework density 23.532187
#
# number of rings (size 3 to 8) (size 9 to 14) (size 15 to 20)
#    0.000    1.600    1.333    3.200    3.733    1.067 
#    7.200    7.333    0.000    0.000    0.000    0.000 
#    0.000    0.000    0.000    0.000    0.000    0.000 
#
# Total GULP energy -334567.184107 kJ/mol
# GULP energy per Si atom -5576.119735 kJ/mol
# Density = 2.347863 g / cm^3
# Si number density = 23.532187 Si / 1000 Ang^3
#
#
#
# Elastic Constant Matrix: (Units=GPa)
#
#
# Indices 1 2 3 4 5 6 
#
# 1 142.5649 38.6821 30.1857 0.0000 0.0000 0.0000
# 2 38.6821 29.6654 3.4922 0.0000 0.0000 0.0000
# 3 30.1857 3.4922 70.8706 0.0000 0.0000 0.0000
# 4 0.0000 0.0000 0.0000 10.0666 0.0000 0.0000
# 5 0.0000 0.0000 0.0000 0.0000 16.2046 0.0000
# 6 0.0000 0.0000 0.0000 0.0000 0.0000 12.3444
#
#
#
# Elastic Compliance Matrix: (Units=1/GPa)
#
#
# Indices 1 2 3 4 5 6 
#
# 1 0.012077 -0.015231 -0.004393 0.000000 0.000000 0.000000
# 2 -0.015231 0.053114 0.003870 0.000000 0.000000 0.000000
# 3 -0.004393 0.003870 0.015791 0.000000 0.000000 0.000000
# 4 0.000000 0.000000 0.000000 0.099338 0.000000 0.000000
# 5 0.000000 0.000000 0.000000 0.000000 0.061711 0.000000
# 6 0.000000 0.000000 0.000000 0.000000 0.000000 0.081008
#
#
# Mechanical properties :
#
#
# Convention : Reuss Voigt Hill
#
# Bulk Modulus (GPa) = 20.21292 43.09122 31.65207
# Shear Modulus (GPa) = 13.47568 19.10586 16.29077
#
# Velocity S-wave (km/s) = 2.39560 2.85248 2.63397
# Velocity P-wave (km/s) = 4.03237 5.40372 4.76761
#
# Compressibility (1/GPa) = 0.04947330
#
# Stress axis : x y z
#
# Youngs Moduli (GPa) = 82.80090 18.82750 63.32787
#
# Poissons Ratio (x) = 0.28676 0.27823
# Poissons Ratio (y) = 1.26112 -0.24508
# Poissons Ratio (z) = 0.36379 -0.07286
#
# Static dielectric constant tensor:
#      x y z
#    x 1.958760 0.000000 0.000000 
#    y 0.000000 2.101560 0.000000 
#    z 0.000000 0.000000 1.957050 
# 
# From -- ./inp_files/25223.got.cif
#   From: 2010.05.17/outbox.cif.g08.bks.cpg/sg60_13_cif.got.tgz:25223.got - 2010.06.03 14:59:27.
