data_PCOD9456502
_publ_section_title
;
Structure prediction by ZEFSAII (Michael W. Deem and Ramdas Pophale) SiO2 
 PCOD9456502
Probable space group: P B C N
;
_chemical_formula_sum "Si O2"
_cell_formula_units_Z 56
_cell_length_a 15.784806
_cell_length_b 15.027090
_cell_length_c 10.954564
_cell_angle_alpha 90.000000
_cell_angle_beta 90.000000
_cell_angle_gamma 90.000000
_cell_volume 2598.419299
_symmetry_space_group_name_H-M "P B C N"
_symmetry_group_IT_number 60
_symmetry_cell_setting 'orthorhombic'
loop_
_space_group_symop_operation_xyz
x,y,z
1/2-x,1/2-y,1/2+z
1/2+x,1/2-y,-z
-x,y,1/2-z
-x,-y,-z
1/2+x,1/2+y,1/2-z
1/2-x,1/2+y,z
x,-y,1/2+z
loop_
_atom_site_type_symbol
_atom_site_label
_atom_site_fract_x
_atom_site_fract_y
_atom_site_fract_z
Si Si1 0.989405 0.666064 0.106759
Si Si2 0.281807 0.359241 0.132196
Si Si3 0.946721 0.859081 0.020629
Si Si4 0.827850 0.333235 0.879726
Si Si5 0.765912 0.893310 0.115211
Si Si6 0.310132 0.089983 0.387381
Si Si7 0.428912 0.509299 0.646035
O O1 0.966905 0.755285 0.031360
O O2 0.911528 0.598315 0.095773
O O3 0.000000 0.692879 0.250000
O O4 0.081656 0.626500 0.080142
O O5 0.340359 0.272606 0.129257
O O6 0.230932 0.350487 0.259553
O O7 0.335432 0.449211 0.154586
O O8 0.231118 0.363398 0.006038
O O9 0.867872 0.880402 0.110769
O O10 0.028312 0.919309 0.053084
O O11 0.919467 0.907317 0.896011
O O12 0.797907 0.367381 0.747375
O O13 0.764732 0.349862 0.990009
O O14 0.732226 0.993577 0.112736
O O15 0.500000 0.509589 0.750000
#
# Coordination Sequence:
#
# PCOD9456502 Si02
#       7
#     8   8   8   8   8   8   8
#     4  10  21  43  69  91 130 179 231 268 335 412
#     4  12  22  43  66  99 136 172 224 276 341 404
#     4  11  21  39  62  96 127 171 218 272 330 409
#     4  11  24  43  70  95 128 178 227 276 337 405
#     4  12  24  41  67  98 136 170 222 286 339 395
#     4  11  25  42  65  97 131 177 228 279 329 402
#     4  11  22  36  64  95 135 173 215 274 336 405
#
# _framework density 21.551563999999999
#
# number of rings (size 3 to 8) (size 9 to 14) (size 15 to 20)
#    0.000    0.857    4.286    4.714    0.000    0.571 
#    0.000    3.571    0.000    0.000    0.000    0.000 
#    0.000    0.000    0.000    0.000    0.000    0.000 
#
# Total GULP energy -312164.273961 kJ/mol
# GULP energy per Si atom -5574.362035 kJ/mol
# Density = 2.150251 g / cm^3
# Si number density = 21.551564 Si / 1000 Ang^3
#
#
#
# Elastic Constant Matrix: (Units=GPa)
#
#
# Indices 1 2 3 4 5 6 
#
# 1 74.8288 1.3825 38.6712 0.0000 0.0000 0.0000
# 2 1.3825 49.1209 12.5527 0.0000 0.0000 0.0000
# 3 38.6712 12.5527 111.5629 0.0000 0.0000 0.0000
# 4 0.0000 0.0000 0.0000 21.7899 0.0000 0.0000
# 5 0.0000 0.0000 0.0000 0.0000 21.9251 0.0000
# 6 0.0000 0.0000 0.0000 0.0000 0.0000 16.7754
#
#
#
# Elastic Compliance Matrix: (Units=1/GPa)
#
#
# Indices 1 2 3 4 5 6 
#
# 1 0.016329 0.001016 -0.005775 0.000000 0.000000 0.000000
# 2 0.001016 0.021024 -0.002718 0.000000 0.000000 0.000000
# 3 -0.005775 -0.002718 0.011271 0.000000 0.000000 0.000000
# 4 0.000000 0.000000 0.000000 0.045893 0.000000 0.000000
# 5 0.000000 0.000000 0.000000 0.000000 0.045610 0.000000
# 6 0.000000 0.000000 0.000000 0.000000 0.000000 0.059611
#
#
# Mechanical properties :
#
#
# Convention : Reuss Voigt Hill
#
# Bulk Modulus (GPa) = 29.69854 37.85840 33.77847
# Shear Modulus (GPa) = 22.13228 24.29182 23.21205
#
# Velocity S-wave (km/s) = 3.20808 3.36095 3.28540
# Velocity P-wave (km/s) = 5.24714 5.71540 5.48627
#
# Compressibility (1/GPa) = 0.03367169
#
# Stress axis : x y z
#
# Youngs Moduli (GPa) = 61.23944 47.56505 88.72330
#
# Poissons Ratio (x) = -0.04833 0.51234
# Poissons Ratio (y) = -0.06222 0.24113
# Poissons Ratio (z) = 0.35363 0.12927
#
# Static dielectric constant tensor:
#      x y z
#    x 1.826470 0.000000 0.000000 
#    y 0.000000 1.784720 0.000000 
#    z 0.000000 0.000000 1.853740 
# 
# From -- ./inp_files/11946.got.cif
#   From: 2010.05.17/outbox.cif.g08.bks.cpg/sg60_6_cif.got.tgz:11946.got - 2010.06.03 14:59:27.
