data_PCOD9456791
_publ_section_title
;
Structure prediction by ZEFSAII (Michael W. Deem and Ramdas Pophale) SiO2 
 PCOD9456791
Probable space group: P B C N
;
_chemical_formula_sum "Si O2"
_cell_formula_units_Z 52
_cell_length_a 9.250215
_cell_length_b 24.579145
_cell_length_c 11.974349
_cell_angle_alpha 90.000000
_cell_angle_beta 90.000000
_cell_angle_gamma 90.000000
_cell_volume 2722.516437
_symmetry_space_group_name_H-M "P B C N"
_symmetry_group_IT_number 60
_symmetry_cell_setting 'orthorhombic'
loop_
_space_group_symop_operation_xyz
x,y,z
1/2-x,1/2-y,1/2+z
1/2+x,1/2-y,-z
-x,y,1/2-z
-x,-y,-z
1/2+x,1/2+y,1/2-z
1/2-x,1/2+y,z
x,-y,1/2+z
loop_
_atom_site_type_symbol
_atom_site_label
_atom_site_fract_x
_atom_site_fract_y
_atom_site_fract_z
Si Si1 0.021110 0.064098 0.478606
Si Si2 0.578940 0.933778 0.131010
Si Si3 0.279561 0.815948 0.655491
Si Si4 0.337169 0.953088 0.945590
Si Si5 0.000000 0.227018 0.750000
Si Si6 0.317485 0.650855 0.913906
Si Si7 0.000000 0.601816 0.250000
Si Si8 0.000000 0.870584 0.750000
O O1 0.191402 0.072525 0.490455
O O2 0.991682 0.088616 0.355389
O O3 0.925445 0.101353 0.557673
O O4 0.000000 0.000000 0.500000
O O5 0.500000 0.943250 0.250000
O O6 0.672336 0.878543 0.131839
O O7 0.679329 0.983226 0.085142
O O8 0.455158 0.938209 0.037671
O O9 0.376855 0.764070 0.689302
O O10 0.222097 0.817809 0.528972
O O11 0.397335 0.863513 0.669969
O O12 0.142763 0.832121 0.735390
O O13 0.392540 0.930625 0.828287
O O14 0.905526 0.190355 0.666690
#
# Coordination Sequence:
#
# PCOD9456791 Si02
#       8
#     8   8   8   8   4   8   4   4
#     4  11  23  38  64  99 142 173 208 259 328 411
#     4  11  24  39  62  97 138 174 221 266 328 404
#     4  10  23  46  69  93 124 170 234 282 332 401
#     4  11  22  38  64  98 137 185 208 260 324 404
#     4  11  28  49  70  90 132 173 224 303 346 384
#     4  11  25  46  64 101 129 172 224 277 341 408
#     4  11  18  40  70  94 130 174 224 269 312 406
#     4  10  22  39  68  96 128 175 224 266 326 400
#
# _framework density 19.099976000000002
#
# number of rings (size 3 to 8) (size 9 to 14) (size 15 to 20)
#    0.000    1.231    5.385    0.000    2.154    4.308 
#    4.154    0.000    0.000    0.000    0.000    0.000 
#    0.000    0.000    0.000    0.000    0.000    0.000 
#
# Total GULP energy -289706.243550 kJ/mol
# GULP energy per Si atom -5571.273914 kJ/mol
# Density = 1.905650 g / cm^3
# Si number density = 19.099976 Si / 1000 Ang^3
#
#
#
# Elastic Constant Matrix: (Units=GPa)
#
#
# Indices 1 2 3 4 5 6 
#
# 1 116.5735 61.1441 40.8783 0.0000 0.0000 0.0000
# 2 61.1441 114.6440 58.1344 0.0000 0.0000 0.0000
# 3 40.8783 58.1344 96.1879 0.0000 0.0000 0.0000
# 4 0.0000 0.0000 0.0000 11.1377 0.0000 0.0000
# 5 0.0000 0.0000 0.0000 0.0000 29.7974 0.0000
# 6 0.0000 0.0000 0.0000 0.0000 0.0000 26.8010
#
#
#
# Elastic Compliance Matrix: (Units=1/GPa)
#
#
# Indices 1 2 3 4 5 6 
#
# 1 0.012121 -0.005555 -0.001794 0.000000 0.000000 0.000000
# 2 -0.005555 0.015123 -0.006779 0.000000 0.000000 0.000000
# 3 -0.001794 -0.006779 0.015256 0.000000 0.000000 0.000000
# 4 0.000000 0.000000 0.000000 0.089785 0.000000 0.000000
# 5 0.000000 0.000000 0.000000 0.000000 0.033560 0.000000
# 6 0.000000 0.000000 0.000000 0.000000 0.000000 0.037312
#
#
# Mechanical properties :
#
#
# Convention : Reuss Voigt Hill
#
# Bulk Modulus (GPa) = 70.20672 71.96876 71.08774
# Shear Modulus (GPa) = 21.17195 24.69713 22.93454
#
# Velocity S-wave (km/s) = 3.33300 3.59979 3.46896
# Velocity P-wave (km/s) = 7.18673 7.41889 7.30373
#
# Compressibility (1/GPa) = 0.01424365
#
# Stress axis : x y z
#
# Youngs Moduli (GPa) = 82.50178 66.12435 65.54787
#
# Poissons Ratio (x) = 0.36731 0.11759
# Poissons Ratio (y) = 0.45829 0.44437
# Poissons Ratio (z) = 0.14800 0.44828
#
# Static dielectric constant tensor:
#      x y z
#    x 1.666660 0.000000 0.000000 
#    y 0.000000 1.690590 0.000000 
#    z 0.000000 0.000000 1.676880 
# 
# From -- ./inp_files/10267.got.cif
#   From: 2010.05.17/outbox.cif.g08.bks.cpg/sg60_6_cif.got.tgz:10267.got - 2010.06.03 14:59:27.
