data_PCOD9456094
_publ_section_title
;
Structure prediction by ZEFSAII (Michael W. Deem and Ramdas Pophale) SiO2 
 PCOD9456094
Probable space group: P B C N
;
_chemical_formula_sum "Si O2"
_cell_formula_units_Z 24
_cell_length_a 8.045876
_cell_length_b 9.055175
_cell_length_c 13.026128
_cell_angle_alpha 90.000000
_cell_angle_beta 90.000000
_cell_angle_gamma 90.000000
_cell_volume 949.042201
_symmetry_space_group_name_H-M "P B C N"
_symmetry_group_IT_number 60
_symmetry_cell_setting 'orthorhombic'
loop_
_space_group_symop_operation_xyz
x,y,z
1/2-x,1/2-y,1/2+z
1/2+x,1/2-y,-z
-x,y,1/2-z
-x,-y,-z
1/2+x,1/2+y,1/2-z
1/2-x,1/2+y,z
x,-y,1/2+z
loop_
_atom_site_type_symbol
_atom_site_label
_atom_site_fract_x
_atom_site_fract_y
_atom_site_fract_z
Si Si1 0.909183 0.871101 0.110660
Si Si2 0.000000 0.134438 0.250000
Si Si3 0.000000 0.374028 0.750000
Si Si4 0.728477 0.192078 0.404113
O O1 0.875895 0.737621 0.189362
O O2 0.903063 0.020060 0.174733
O O3 0.793705 0.862168 0.012824
O O4 0.100514 0.828606 0.081396
O O5 0.885663 0.220676 0.330510
O O6 0.886071 0.429582 0.842608
#
# Coordination Sequence:
#
# PCOD9456094 Si02
#       4
#     8   4   4   8
#     4   9  21  41  61  89 125 162 207 249 312 362
#     4  11  22  40  63  92 124 161 206 260 307 368
#     4   7  20  38  57  88 116 159 208 238 311 350
#     4  10  21  38  67  84 126 166 203 254 310 364
#
# _framework density 25.288654999999999
#
# number of rings (size 3 to 8) (size 9 to 14) (size 15 to 20)
#    2.000    0.667    0.000    1.000    4.667    0.000 
#    0.000    8.333    0.000    0.000    0.000    0.000 
#    0.000    0.000    0.000    0.000    0.000    0.000 
#
# Total GULP energy -133604.585821 kJ/mol
# GULP energy per Si atom -5566.857743 kJ/mol
# Density = 2.523110 g / cm^3
# Si number density = 25.288655 Si / 1000 Ang^3
#
#
#
# Elastic Constant Matrix: (Units=GPa)
#
#
# Indices 1 2 3 4 5 6 
#
# 1 72.3709 37.2680 65.3307 0.0000 0.0000 0.0000
# 2 37.2680 88.0294 28.6844 0.0000 0.0000 0.0000
# 3 65.3307 28.6844 196.0605 0.0000 0.0000 0.0000
# 4 0.0000 0.0000 0.0000 4.5916 0.0000 0.0000
# 5 0.0000 0.0000 0.0000 0.0000 96.5453 0.0000
# 6 0.0000 0.0000 0.0000 0.0000 0.0000 18.0767
#
#
#
# Elastic Compliance Matrix: (Units=1/GPa)
#
#
# Indices 1 2 3 4 5 6 
#
# 1 0.024130 -0.007976 -0.006874 0.000000 0.000000 0.000000
# 2 -0.007976 0.014565 0.000527 0.000000 0.000000 0.000000
# 3 -0.006874 0.000527 0.007314 0.000000 0.000000 0.000000
# 4 0.000000 0.000000 0.000000 0.217790 0.000000 0.000000
# 5 0.000000 0.000000 0.000000 0.000000 0.010358 0.000000
# 6 0.000000 0.000000 0.000000 0.000000 0.000000 0.055320
#
#
# Mechanical properties :
#
#
# Convention : Reuss Voigt Hill
#
# Bulk Modulus (GPa) = 57.59298 68.78078 63.18688
# Shear Modulus (GPa) = 13.73971 38.85456 26.29713
#
# Velocity S-wave (km/s) = 2.33344 3.92400 3.22821
# Velocity P-wave (km/s) = 5.48485 6.91286 6.23984
#
# Compressibility (1/GPa) = 0.01736323
#
# Stress axis : x y z
#
# Youngs Moduli (GPa) = 41.44236 68.65855 136.72788
#
# Poissons Ratio (x) = 0.54761 0.93981
# Poissons Ratio (y) = 0.33054 -0.07203
# Poissons Ratio (z) = 0.28486 -0.03617
#
# Static dielectric constant tensor:
#      x y z
#    x 2.101760 0.000000 0.000000 
#    y 0.000000 1.978100 0.000000 
#    z 0.000000 0.000000 1.998150 
# 
# From -- ./inp_files/9364.got.cif
#   From: 2010.05.17/outbox.cif.g08.bks.cpg/sg60_5_cif.got.tgz:9364.got - 2010.06.03 14:59:27.
