data_PCOD9456117
_publ_section_title
;
Structure prediction by ZEFSAII (Michael W. Deem and Ramdas Pophale) SiO2 
 PCOD9456117
Probable space group: P B C N
;
_chemical_formula_sum "Si O2"
_cell_formula_units_Z 64
_cell_length_a 16.186975
_cell_length_b 12.536582
_cell_length_c 15.076142
_cell_angle_alpha 90.000000
_cell_angle_beta 90.000000
_cell_angle_gamma 90.000000
_cell_volume 3059.391537
_symmetry_space_group_name_H-M "P B C N"
_symmetry_group_IT_number 60
_symmetry_cell_setting 'orthorhombic'
loop_
_space_group_symop_operation_xyz
x,y,z
1/2-x,1/2-y,1/2+z
1/2+x,1/2-y,-z
-x,y,1/2-z
-x,-y,-z
1/2+x,1/2+y,1/2-z
1/2-x,1/2+y,z
x,-y,1/2+z
loop_
_atom_site_type_symbol
_atom_site_label
_atom_site_fract_x
_atom_site_fract_y
_atom_site_fract_z
Si Si1 0.634228 0.488345 0.679039
Si Si2 0.196030 0.397401 0.779219
Si Si3 0.655591 0.976738 0.908686
Si Si4 0.681747 0.385406 0.997745
Si Si5 0.405069 0.694313 0.718643
Si Si6 0.360667 0.841029 0.960516
Si Si7 0.994309 0.095403 0.426850
Si Si8 0.952699 0.721462 0.460071
O O1 0.705532 0.409045 0.711928
O O2 0.661939 0.545130 0.585860
O O3 0.624849 0.580723 0.750398
O O4 0.543599 0.443799 0.658027
O O5 0.160787 0.468714 0.698166
O O6 0.157980 0.281994 0.756362
O O7 0.164363 0.417322 0.879215
O O8 0.742905 0.936149 0.945812
O O9 0.590003 0.893013 0.950607
O O10 0.637721 0.091962 0.949296
O O11 0.602731 0.380580 0.931814
O O12 0.696693 0.263169 0.028805
O O13 0.500000 0.713039 0.750000
O O14 0.408359 0.707019 0.613778
O O15 0.451032 0.795873 0.938152
O O16 0.043069 0.203187 0.454841
O O17 0.000000 0.000000 0.500000
#
# Coordination Sequence:
#
# PCOD9456117 Si02
#       8
#     8   8   8   8   8   8   8   8
#     4  11  22  37  63  93 129 172 213 276 337 386
#     4  11  24  39  63  98 130 168 223 276 336 404
#     4  11  25  37  65  99 123 171 223 272 328 406
#     4  10  21  39  60  88 129 169 210 275 332 393
#     4  11  20  39  65  93 124 172 222 272 328 405
#     4  11  21  45  64  88 137 172 215 275 337 398
#     4   9  20  37  60  91 122 164 213 265 328 387
#     4  10  22  39  65  94 123 172 225 266 327 405
#
# _framework density 20.919191000000001
#
# number of rings (size 3 to 8) (size 9 to 14) (size 15 to 20)
#    0.000    1.500    3.750    1.875    1.750    5.000 
#    0.000    0.000    0.000    0.000    0.000    0.000 
#    0.000    0.000    0.000    0.000    0.000    0.000 
#
# Total GULP energy -357107.596709 kJ/mol
# GULP energy per Si atom -5579.806199 kJ/mol
# Density = 2.087158 g / cm^3
# Si number density = 20.919191 Si / 1000 Ang^3
#
#
#
# Elastic Constant Matrix: (Units=GPa)
#
#
# Indices 1 2 3 4 5 6 
#
# 1 67.9373 24.5701 9.0891 0.0000 0.0000 0.0000
# 2 24.5701 49.3541 24.1679 0.0000 0.0000 0.0000
# 3 9.0891 24.1679 50.4994 0.0000 0.0000 0.0000
# 4 0.0000 0.0000 0.0000 27.0864 0.0000 0.0000
# 5 0.0000 0.0000 0.0000 0.0000 25.9518 0.0000
# 6 0.0000 0.0000 0.0000 0.0000 0.0000 13.3501
#
#
#
# Elastic Compliance Matrix: (Units=1/GPa)
#
#
# Indices 1 2 3 4 5 6 
#
# 1 0.018024 -0.009645 0.001372 0.000000 0.000000 0.000000
# 2 -0.009645 0.031624 -0.013399 0.000000 0.000000 0.000000
# 3 0.001372 -0.013399 0.025968 0.000000 0.000000 0.000000
# 4 0.000000 0.000000 0.000000 0.036919 0.000000 0.000000
# 5 0.000000 0.000000 0.000000 0.000000 0.038533 0.000000
# 6 0.000000 0.000000 0.000000 0.000000 0.000000 0.074906
#
#
# Mechanical properties :
#
#
# Convention : Reuss Voigt Hill
#
# Bulk Modulus (GPa) = 30.98614 31.49388 31.24001
# Shear Modulus (GPa) = 17.85238 20.60857 19.23047
#
# Velocity S-wave (km/s) = 2.92447 3.14212 3.03524
# Velocity P-wave (km/s) = 5.12326 5.31522 5.22012
#
# Compressibility (1/GPa) = 0.03227249
#
# Stress axis : x y z
#
# Youngs Moduli (GPa) = 55.48153 31.62119 38.50936
#
# Poissons Ratio (x) = 0.30497 -0.05282
# Poissons Ratio (y) = 0.53510 0.51598
# Poissons Ratio (z) = -0.07610 0.42369
#
# Static dielectric constant tensor:
#      x y z
#    x 1.751020 0.000000 0.000000 
#    y 0.000000 1.766970 0.000000 
#    z 0.000000 0.000000 1.798260 
# 
# From -- ./inp_files/17487.got.cif
#   From: 2010.05.17/outbox.cif.g08.bks.cpg/sg60_9_cif.got.tgz:17487.got - 2010.06.03 14:59:27.
