data_PCOD9456560
_publ_section_title
;
Structure prediction by ZEFSAII (Michael W. Deem and Ramdas Pophale) SiO2 
 PCOD9456560
Probable space group: P B C N
;
_chemical_formula_sum "Si O2"
_cell_formula_units_Z 40
_cell_length_a 9.472494
_cell_length_b 11.017541
_cell_length_c 13.760001
_cell_angle_alpha 90.000000
_cell_angle_beta 90.000000
_cell_angle_gamma 90.000000
_cell_volume 1436.043117
_symmetry_space_group_name_H-M "P B C N"
_symmetry_group_IT_number 60
_symmetry_cell_setting 'orthorhombic'
loop_
_space_group_symop_operation_xyz
x,y,z
1/2-x,1/2-y,1/2+z
1/2+x,1/2-y,-z
-x,y,1/2-z
-x,-y,-z
1/2+x,1/2+y,1/2-z
1/2-x,1/2+y,z
x,-y,1/2+z
loop_
_atom_site_type_symbol
_atom_site_label
_atom_site_fract_x
_atom_site_fract_y
_atom_site_fract_z
Si Si1 0.785868 0.360248 0.614042
Si Si2 0.568051 0.828948 0.088453
Si Si3 0.589702 0.055069 0.387703
Si Si4 0.854261 0.019280 0.273617
Si Si5 0.422936 0.383657 0.042530
O O1 0.695689 0.239834 0.643559
O O2 0.950678 0.365453 0.637117
O O3 0.720670 0.477902 0.669246
O O4 0.733540 0.368773 0.502754
O O5 0.458388 0.918068 0.140604
O O6 0.617062 0.918986 0.001374
O O7 0.501945 0.722335 0.020376
O O8 0.734358 0.086461 0.335343
O O9 0.000000 0.087047 0.250000
O O10 0.903697 0.907128 0.342407
O O11 0.500000 0.500000 0.000000
#
# Coordination Sequence:
#
# PCOD9456560 Si02
#       5
#     8   8   8   8   8
#     4  10  24  46  77 112 158 212 282 346 415 507
#     4   9  23  45  77 115 155 222 272 351 421 504
#     4  11  23  48  81 116 166 216 279 342 440 508
#     4  12  24  47  73 117 163 216 273 342 416 511
#     4  10  21  45  75 106 161 210 270 354 414 495
#
# _framework density 27.854319
#
# number of rings (size 3 to 8) (size 9 to 14) (size 15 to 20)
#    1.200    0.400    2.000    3.000    0.000    4.800 
#    3.600    2.000    0.000    0.000    0.000    0.000 
#    0.000    0.000    0.000    0.000    0.000    0.000 
#
# Total GULP energy -222725.855472 kJ/mol
# GULP energy per Si atom -5568.146387 kJ/mol
# Density = 2.779092 g / cm^3
# Si number density = 27.854319 Si / 1000 Ang^3
#
#
#
# Elastic Constant Matrix: (Units=GPa)
#
#
# Indices 1 2 3 4 5 6 
#
# 1 207.2529 39.3435 45.4886 0.0000 0.0000 0.0000
# 2 39.3435 155.1362 1.4696 0.0000 0.0000 0.0000
# 3 45.4886 1.4696 131.3542 0.0000 0.0000 0.0000
# 4 0.0000 0.0000 0.0000 17.7196 0.0000 0.0000
# 5 0.0000 0.0000 0.0000 0.0000 51.3031 0.0000
# 6 0.0000 0.0000 0.0000 0.0000 0.0000 36.8872
#
#
#
# Elastic Compliance Matrix: (Units=1/GPa)
#
#
# Indices 1 2 3 4 5 6 
#
# 1 0.005501 -0.001377 -0.001890 0.000000 0.000000 0.000000
# 2 -0.001377 0.006791 0.000401 0.000000 0.000000 0.000000
# 3 -0.001890 0.000401 0.008263 0.000000 0.000000 0.000000
# 4 0.000000 0.000000 0.000000 0.056435 0.000000 0.000000
# 5 0.000000 0.000000 0.000000 0.000000 0.019492 0.000000
# 6 0.000000 0.000000 0.000000 0.000000 0.000000 0.027110
#
#
# Mechanical properties :
#
#
# Convention : Reuss Voigt Hill
#
# Bulk Modulus (GPa) = 67.45984 74.03852 70.74918
# Shear Modulus (GPa) = 37.23978 48.34476 42.79227
#
# Velocity S-wave (km/s) = 3.66040 4.17061 3.92380
# Velocity P-wave (km/s) = 6.49123 7.05906 6.78109
#
# Compressibility (1/GPa) = 0.01482364
#
# Stress axis : x y z
#
# Youngs Moduli (GPa) = 181.77768 147.24443 121.02244
#
# Poissons Ratio (x) = 0.20279 0.22870
# Poissons Ratio (y) = 0.25035 -0.04853
# Poissons Ratio (z) = 0.34350 -0.05904
#
# Static dielectric constant tensor:
#      x y z
#    x 2.227690 0.000000 0.000000 
#    y 0.000000 2.343870 0.000000 
#    z 0.000000 0.000000 2.313410 
# 
# From -- ./inp_files/15833.got.cif
#   From: 2010.05.17/outbox.cif.g08.bks.cpg/sg60_8_cif.got.tgz:15833.got - 2010.06.03 14:59:27.
