data_PCOD9456458
_publ_section_title
;
Structure prediction by ZEFSAII (Michael W. Deem and Ramdas Pophale) SiO2 
 PCOD9456458
Probable space group: P B C N
;
_chemical_formula_sum "Si O2"
_cell_formula_units_Z 56
_cell_length_a 7.483370
_cell_length_b 17.039026
_cell_length_c 21.217933
_cell_angle_alpha 90.000000
_cell_angle_beta 90.000000
_cell_angle_gamma 90.000000
_cell_volume 2705.484548
_symmetry_space_group_name_H-M "P B C N"
_symmetry_group_IT_number 60
_symmetry_cell_setting 'orthorhombic'
loop_
_space_group_symop_operation_xyz
x,y,z
1/2-x,1/2-y,1/2+z
1/2+x,1/2-y,-z
-x,y,1/2-z
-x,-y,-z
1/2+x,1/2+y,1/2-z
1/2-x,1/2+y,z
x,-y,1/2+z
loop_
_atom_site_type_symbol
_atom_site_label
_atom_site_fract_x
_atom_site_fract_y
_atom_site_fract_z
Si Si1 0.000668 0.102748 0.335440
Si Si2 0.185902 0.613524 0.680244
Si Si3 0.252419 0.823582 0.044401
Si Si4 0.420699 0.059470 0.182815
Si Si5 0.906422 0.154600 0.466149
Si Si6 0.972899 0.418479 0.963482
Si Si7 0.500000 0.531471 0.750000
Si Si8 0.000000 0.755302 0.750000
O O1 0.787751 0.088043 0.321014
O O2 0.010823 0.111248 0.409737
O O3 0.068831 0.182133 0.302100
O O4 0.085889 0.026942 0.302338
O O5 0.226225 0.626981 0.607451
O O6 0.063877 0.535684 0.684291
O O7 0.359789 0.585639 0.716401
O O8 0.121501 0.694114 0.711674
O O9 0.322603 0.736255 0.058071
O O10 0.384773 0.858396 0.992089
O O11 0.049483 0.827767 0.020166
O O12 0.500000 0.088643 0.250000
O O13 0.492039 0.081327 0.112859
O O14 0.730126 0.105485 0.481524
O O15 0.000000 0.500000 0.000000
#
# Coordination Sequence:
#
# PCOD9456458 Si02
#       8
#     8   8   8   8   8   8   4   4
#     4   9  21  42  65  92 133 171 224 270 340 410
#     4  11  22  42  63  97 136 166 225 280 338 409
#     4  12  24  44  69 101 139 180 230 285 341 414
#     4  10  21  42  67  96 135 174 220 281 335 408
#     4  11  24  45  70  98 138 182 225 288 340 410
#     4  11  24  45  70 102 136 181 233 282 346 411
#     4   9  22  44  62  91 132 172 210 281 328 404
#     4  11  20  38  68  89 128 170 208 285 332 388
#
# _framework density 20.698694
#
# number of rings (size 3 to 8) (size 9 to 14) (size 15 to 20)
#    0.000    1.429    5.000    0.000    0.000    4.000 
#   11.571    0.000    0.000    0.000    0.000    0.000 
#    0.000    0.000    0.000    0.000    0.000    0.000 
#
# Total GULP energy -312336.386452 kJ/mol
# GULP energy per Si atom -5577.435472 kJ/mol
# Density = 2.065158 g / cm^3
# Si number density = 20.698694 Si / 1000 Ang^3
#
#
#
# Elastic Constant Matrix: (Units=GPa)
#
#
# Indices 1 2 3 4 5 6 
#
# 1 48.8256 6.7848 63.0783 0.0000 0.0000 0.0000
# 2 6.7848 65.3532 34.5092 0.0000 0.0000 0.0000
# 3 63.0783 34.5092 121.6335 0.0000 0.0000 0.0000
# 4 0.0000 0.0000 0.0000 30.4205 0.0000 0.0000
# 5 0.0000 0.0000 0.0000 0.0000 33.8996 0.0000
# 6 0.0000 0.0000 0.0000 0.0000 0.0000 27.9380
#
#
#
# Elastic Compliance Matrix: (Units=1/GPa)
#
#
# Indices 1 2 3 4 5 6 
#
# 1 0.071986 0.014396 -0.041416 0.000000 0.000000 0.000000
# 2 0.014396 0.020877 -0.013389 0.000000 0.000000 0.000000
# 3 -0.041416 -0.013389 0.033498 0.000000 0.000000 0.000000
# 4 0.000000 0.000000 0.000000 0.032873 0.000000 0.000000
# 5 0.000000 0.000000 0.000000 0.000000 0.029499 0.000000
# 6 0.000000 0.000000 0.000000 0.000000 0.000000 0.035794
#
#
# Mechanical properties :
#
#
# Convention : Reuss Voigt Hill
#
# Bulk Modulus (GPa) = 21.95699 49.39524 35.67612
# Shear Modulus (GPa) = 15.59943 27.21430 21.40686
#
# Velocity S-wave (km/s) = 2.74823 3.62993 3.21941
# Velocity P-wave (km/s) = 4.54987 6.44083 5.57609
#
# Compressibility (1/GPa) = 0.04554359
#
# Stress axis : x y z
#
# Youngs Moduli (GPa) = 13.89153 47.90036 29.85252
#
# Poissons Ratio (x) = -0.68957 1.23637
# Poissons Ratio (y) = -0.19998 0.39968
# Poissons Ratio (z) = 0.57533 0.64132
#
# Static dielectric constant tensor:
#      x y z
#    x 1.749890 0.000000 0.000000 
#    y 0.000000 1.744940 0.000000 
#    z 0.000000 0.000000 1.749870 
# 
# From -- ./inp_files/22332.got.cif
#   From: 2010.05.17/outbox.cif.g08.bks.cpg/sg60_12_cif.got.tgz:22332.got - 2010.06.03 14:59:27.
