data_PCOD9456137
_publ_section_title
;
Structure prediction by ZEFSAII (Michael W. Deem and Ramdas Pophale) SiO2 
 PCOD9456137
Probable space group: P B C N
;
_chemical_formula_sum "Si O2"
_cell_formula_units_Z 40
_cell_length_a 5.060971
_cell_length_b 30.251656
_cell_length_c 11.054686
_cell_angle_alpha 90.000000
_cell_angle_beta 90.000000
_cell_angle_gamma 90.000000
_cell_volume 1692.502868
_symmetry_space_group_name_H-M "P B C N"
_symmetry_group_IT_number 60
_symmetry_cell_setting 'orthorhombic'
loop_
_space_group_symop_operation_xyz
x,y,z
1/2-x,1/2-y,1/2+z
1/2+x,1/2-y,-z
-x,y,1/2-z
-x,-y,-z
1/2+x,1/2+y,1/2-z
1/2-x,1/2+y,z
x,-y,1/2+z
loop_
_atom_site_type_symbol
_atom_site_label
_atom_site_fract_x
_atom_site_fract_y
_atom_site_fract_z
Si Si1 0.413717 0.578523 0.616218
Si Si2 0.077834 0.691855 0.465440
Si Si3 0.901216 0.400258 0.957612
Si Si4 0.920998 0.209763 0.617256
Si Si5 0.853072 0.493743 0.871790
O O1 0.500000 0.591964 0.750000
O O2 0.628389 0.599504 0.529355
O O3 0.405398 0.524517 0.617254
O O4 0.128494 0.590371 0.559744
O O5 0.988403 0.646517 0.403432
O O6 0.873385 0.697424 0.577437
O O7 0.052287 0.736884 0.390384
O O8 0.371236 0.691280 0.519568
O O9 0.848505 0.440731 0.866175
O O10 0.000000 0.194881 0.750000
O O11 0.000000 0.509971 0.750000
O O12 0.000000 0.500000 0.000000
#
# Coordination Sequence:
#
# PCOD9456137 Si02
#       5
#     8   8   8   8   8
#     4  11  22  39  60  87 122 162 204 253 308 367
#     4  10  22  38  58  90 119 152 204 249 299 369
#     4  11  23  38  60  90 122 156 204 258 306 360
#     4  10  21  39  62  84 120 162 196 246 310 367
#     4  10  22  42  64  89 123 166 208 254 309 365
#
# _framework density 23.63364
#
# number of rings (size 3 to 8) (size 9 to 14) (size 15 to 20)
#    0.000    1.600    0.000    5.400    0.000    7.200 
#    0.000    0.000    0.000   12.000    0.000    0.000 
#    0.000    0.000    0.000    0.000    0.000    0.000 
#
# Total GULP energy -223402.660577 kJ/mol
# GULP energy per Si atom -5585.066514 kJ/mol
# Density = 2.357985 g / cm^3
# Si number density = 23.633640 Si / 1000 Ang^3
#
#
#
# Elastic Constant Matrix: (Units=GPa)
#
#
# Indices 1 2 3 4 5 6 
#
# 1 102.2261 21.5717 7.4460 0.0000 0.0000 0.0000
# 2 21.5717 170.7686 -4.4905 0.0000 0.0000 0.0000
# 3 7.4460 -4.4905 73.4393 0.0000 0.0000 0.0000
# 4 0.0000 0.0000 0.0000 -33.2451 0.0000 0.0000
# 5 0.0000 0.0000 0.0000 0.0000 20.0306 0.0000
# 6 0.0000 0.0000 0.0000 0.0000 0.0000 45.6023
#
#
#
# Elastic Compliance Matrix: (Units=1/GPa)
#
#
# Indices 1 2 3 4 5 6 
#
# 1 0.010139 -0.001310 -0.001108 0.000000 0.000000 0.000000
# 2 -0.001310 0.006035 0.000502 0.000000 0.000000 0.000000
# 3 -0.001108 0.000502 0.013760 0.000000 0.000000 0.000000
# 4 0.000000 0.000000 0.000000 -0.030080 0.000000 0.000000
# 5 0.000000 0.000000 0.000000 0.000000 0.049923 0.000000
# 6 0.000000 0.000000 0.000000 0.000000 0.000000 0.021929
#
#
# Mechanical properties :
#
#
# Convention : Reuss Voigt Hill
#
# Bulk Modulus (GPa) = 38.31260 43.94318 41.12789
# Shear Modulus (GPa) = 59.35481 27.93802 43.64641
#
# Velocity S-wave (km/s) = 5.01688 3.44194 4.30209
# Velocity P-wave (km/s) = 7.05727 5.86769 6.48979
#
# Compressibility (1/GPa) = 0.02610107
#
# Stress axis : x y z
#
# Youngs Moduli (GPa) = 98.62537 165.71251 72.67584
#
# Poissons Ratio (x) = 0.21708 0.08053
# Poissons Ratio (y) = 0.12920 -0.03647
# Poissons Ratio (z) = 0.10929 -0.08315
#
# Static dielectric constant tensor:
#      x y z
#    x 1.913970 0.000000 0.000000 
#    y 0.000000 2.079730 0.000000 
#    z 0.000000 0.000000 1.894730 
# 
# From -- ./inp_files/9177.got.cif
#   From: 2010.05.17/outbox.cif.g08.bks.cpg/sg60_5_cif.got.tgz:9177.got - 2010.06.03 14:59:27.
