data_PCOD9456553
_publ_section_title
;
Structure prediction by ZEFSAII (Michael W. Deem and Ramdas Pophale) SiO2 
 PCOD9456553
Probable space group: P B C N
;
_chemical_formula_sum "Si O2"
_cell_formula_units_Z 40
_cell_length_a 5.702466
_cell_length_b 10.634287
_cell_length_c 27.939300
_cell_angle_alpha 90.000000
_cell_angle_beta 90.000000
_cell_angle_gamma 90.000000
_cell_volume 1694.285533
_symmetry_space_group_name_H-M "P B C N"
_symmetry_group_IT_number 60
_symmetry_cell_setting 'orthorhombic'
loop_
_space_group_symop_operation_xyz
x,y,z
1/2-x,1/2-y,1/2+z
1/2+x,1/2-y,-z
-x,y,1/2-z
-x,-y,-z
1/2+x,1/2+y,1/2-z
1/2-x,1/2+y,z
x,-y,1/2+z
loop_
_atom_site_type_symbol
_atom_site_label
_atom_site_fract_x
_atom_site_fract_y
_atom_site_fract_z
Si Si1 0.415840 0.962548 0.194589
Si Si2 0.253043 0.289699 0.721509
Si Si3 0.717397 0.225911 0.928542
Si Si4 0.853538 0.108033 0.026350
Si Si5 0.010936 0.532593 0.099685
O O1 0.500000 0.962294 0.250000
O O2 0.250084 0.082324 0.192343
O O3 0.283028 0.832621 0.189491
O O4 0.594703 0.994472 0.151784
O O5 0.500000 0.295698 0.750000
O O6 0.000000 0.278486 0.750000
O O7 0.479544 0.307428 0.933140
O O8 0.689264 0.084693 0.908356
O O9 0.891167 0.324903 0.903317
O O10 0.781791 0.202900 0.984212
O O11 0.655230 0.031088 0.054060
O O12 0.000000 0.000000 0.000000
#
# Coordination Sequence:
#
# PCOD9456553 Si02
#       5
#     8   8   8   8   8
#     4  10  23  47  67 104 143 191 245 302 365 442
#     4  10  21  44  73 100 141 195 247 308 371 431
#     4  12  24  44  70 101 141 178 238 298 362 447
#     4  12  24  45  70 104 143 185 234 304 372 438
#     4  12  26  44  72 106 141 191 243 296 377 443
#
# _framework density 23.608772999999999
#
# number of rings (size 3 to 8) (size 9 to 14) (size 15 to 20)
#    0.000    0.800    4.000    3.600    0.000    0.000 
#   28.800    0.000    0.000    0.000    0.000    0.000 
#    0.000    0.000    0.000    0.000    0.000    0.000 
#
# Total GULP energy -222781.964085 kJ/mol
# GULP energy per Si atom -5569.549102 kJ/mol
# Density = 2.355504 g / cm^3
# Si number density = 23.608773 Si / 1000 Ang^3
#
#
#
# Elastic Constant Matrix: (Units=GPa)
#
#
# Indices 1 2 3 4 5 6 
#
# 1 52.5277 14.9981 -2.5667 0.0000 0.0000 0.0000
# 2 14.9981 184.3070 0.0967 0.0000 0.0000 0.0000
# 3 -2.5667 0.0967 59.5380 0.0000 0.0000 0.0000
# 4 0.0000 0.0000 0.0000 84.5099 0.0000 0.0000
# 5 0.0000 0.0000 0.0000 0.0000 14.6179 0.0000
# 6 0.0000 0.0000 0.0000 0.0000 0.0000 39.5789
#
#
#
# Elastic Compliance Matrix: (Units=1/GPa)
#
#
# Indices 1 2 3 4 5 6 
#
# 1 0.019533 -0.001590 0.000845 0.000000 0.000000 0.000000
# 2 -0.001590 0.005555 -0.000078 0.000000 0.000000 0.000000
# 3 0.000845 -0.000078 0.016833 0.000000 0.000000 0.000000
# 4 0.000000 0.000000 0.000000 0.011833 0.000000 0.000000
# 5 0.000000 0.000000 0.000000 0.000000 0.068409 0.000000
# 6 0.000000 0.000000 0.000000 0.000000 0.000000 0.025266
#
#
# Mechanical properties :
#
#
# Convention : Reuss Voigt Hill
#
# Bulk Modulus (GPa) = 24.82945 35.71434 30.27190
# Shear Modulus (GPa) = 30.76937 46.66432 38.71685
#
# Velocity S-wave (km/s) = 3.61404 4.45068 4.05400
# Velocity P-wave (km/s) = 5.28725 6.44762 5.89605
#
# Compressibility (1/GPa) = 0.04027475
#
# Stress axis : x y z
#
# Youngs Moduli (GPa) = 51.19593 180.01305 59.40876
#
# Poissons Ratio (x) = 0.28621 -0.05018
# Poissons Ratio (y) = 0.08140 0.00461
# Poissons Ratio (z) = -0.04324 0.01396
#
# Static dielectric constant tensor:
#      x y z
#    x 1.978110 0.000000 0.000000 
#    y 0.000000 1.883560 0.000000 
#    z 0.000000 0.000000 2.135210 
# 
# From -- ./inp_files/24762.got.cif
#   From: 2010.05.17/outbox.cif.g08.bks.cpg/sg60_13_cif.got.tgz:24762.got - 2010.06.03 14:59:27.
