data_PCOD9456047
_publ_section_title
;
Structure prediction by ZEFSAII (Michael W. Deem and Ramdas Pophale) SiO2 
 PCOD9456047
Probable space group: P B C N
;
_chemical_formula_sum "Si O2"
_cell_formula_units_Z 40
_cell_length_a 13.747070
_cell_length_b 23.408976
_cell_length_c 4.987679
_cell_angle_alpha 90.000000
_cell_angle_beta 90.000000
_cell_angle_gamma 90.000000
_cell_volume 1605.059201
_symmetry_space_group_name_H-M "P B C N"
_symmetry_group_IT_number 60
_symmetry_cell_setting 'orthorhombic'
loop_
_space_group_symop_operation_xyz
x,y,z
1/2-x,1/2-y,1/2+z
1/2+x,1/2-y,-z
-x,y,1/2-z
-x,-y,-z
1/2+x,1/2+y,1/2-z
1/2-x,1/2+y,z
x,-y,1/2+z
loop_
_atom_site_type_symbol
_atom_site_label
_atom_site_fract_x
_atom_site_fract_y
_atom_site_fract_z
Si Si1 0.000000 0.727950 0.750000
Si Si2 0.500000 0.706079 0.750000
Si Si3 0.500000 0.957683 0.750000
Si Si4 0.286343 0.786076 0.093878
Si Si5 0.785465 0.457114 0.764156
Si Si6 0.000000 0.960193 0.250000
Si Si7 0.662696 0.377059 0.117013
O O1 0.952831 0.759253 0.490903
O O2 0.097485 0.702886 0.614235
O O3 0.420793 0.670631 0.922023
O O4 0.394111 0.929000 0.735393
O O5 0.500000 0.000000 0.500000
O O6 0.248699 0.737140 0.304980
O O7 0.239107 0.845067 0.196099
O O8 0.776869 0.491775 0.486453
O O9 0.710684 0.408792 0.864909
O O10 0.097049 0.923419 0.234244
O O11 0.000000 0.000000 0.500000
#
# Coordination Sequence:
#
# PCOD9456047 Si02
#       7
#     4   4   4   8   8   4   8
#     4  12  22  47  67  97 140 175 239 289 356 418
#     4  11  24  40  69  95 132 187 226 287 357 436
#     4   8  16  34  56  81 114 171 212 262 334 398
#     4  12  25  44  71 101 139 190 242 300 364 436
#     4  10  21  38  62  91 133 175 227 288 348 418
#     4  11  26  45  70 107 148 185 243 302 363 446
#     4  11  24  42  69 104 136 190 238 290 370 427
#
# _framework density 24.921199999999999
#
# number of rings (size 3 to 8) (size 9 to 14) (size 15 to 20)
#    0.000    1.200    4.000    1.200    0.000    8.000 
#    0.000    9.000    0.000    0.000    0.000    0.000 
#    0.000    0.000    0.000    0.000    0.000    0.000 
#
# Total GULP energy -223414.699809 kJ/mol
# GULP energy per Si atom -5585.367495 kJ/mol
# Density = 2.486448 g / cm^3
# Si number density = 24.921200 Si / 1000 Ang^3
#
#
#
# Elastic Constant Matrix: (Units=GPa)
#
#
# Indices 1 2 3 4 5 6 
#
# 1 184.2123 31.6047 8.3359 0.0000 0.0000 0.0000
# 2 31.6047 67.1728 17.7569 0.0000 0.0000 0.0000
# 3 8.3359 17.7569 127.6487 0.0000 0.0000 0.0000
# 4 0.0000 0.0000 0.0000 15.3683 0.0000 0.0000
# 5 0.0000 0.0000 0.0000 0.0000 38.9486 0.0000
# 6 0.0000 0.0000 0.0000 0.0000 0.0000 23.1103
#
#
#
# Elastic Compliance Matrix: (Units=1/GPa)
#
#
# Indices 1 2 3 4 5 6 
#
# 1 0.005905 -0.002779 0.000001 0.000000 0.000000 0.000000
# 2 -0.002779 0.016763 -0.002150 0.000000 0.000000 0.000000
# 3 0.000001 -0.002150 0.008133 0.000000 0.000000 0.000000
# 4 0.000000 0.000000 0.000000 0.065069 0.000000 0.000000
# 5 0.000000 0.000000 0.000000 0.000000 0.025675 0.000000
# 6 0.000000 0.000000 0.000000 0.000000 0.000000 0.043271
#
#
# Mechanical properties :
#
#
# Convention : Reuss Voigt Hill
#
# Bulk Modulus (GPa) = 47.74444 54.93651 51.34048
# Shear Modulus (GPa) = 27.52491 36.90785 32.21638
#
# Velocity S-wave (km/s) = 3.32697 3.85253 3.59936
# Velocity P-wave (km/s) = 5.82736 6.47157 6.15789
#
# Compressibility (1/GPa) = 0.02094485
#
# Stress axis : x y z
#
# Youngs Moduli (GPa) = 169.34235 59.65603 122.95469
#
# Poissons Ratio (x) = 0.16576 -0.00011
# Poissons Ratio (y) = 0.47054 0.26440
# Poissons Ratio (z) = -0.00015 0.12828
#
# Static dielectric constant tensor:
#      x y z
#    x 2.078210 0.000000 0.000000 
#    y 0.000000 2.019170 0.000000 
#    z 0.000000 0.000000 1.933790 
# 
# From -- ./inp_files/1229.got.cif
#   From: 2010.05.17/outbox.cif.g08.bks.cpg/sg60_1_cif.got.tgz:1229.got - 2010.06.03 14:59:27.
