data_PCOD9456321
_publ_section_title
;
Structure prediction by ZEFSAII (Michael W. Deem and Ramdas Pophale) SiO2 
 PCOD9456321
Probable space group: P B C N
;
_chemical_formula_sum "Si O2"
_cell_formula_units_Z 40
_cell_length_a 11.326858
_cell_length_b 26.016087
_cell_length_c 5.756628
_cell_angle_alpha 90.000000
_cell_angle_beta 90.000000
_cell_angle_gamma 90.000000
_cell_volume 1696.366151
_symmetry_space_group_name_H-M "P B C N"
_symmetry_group_IT_number 60
_symmetry_cell_setting 'orthorhombic'
loop_
_space_group_symop_operation_xyz
x,y,z
1/2-x,1/2-y,1/2+z
1/2+x,1/2-y,-z
-x,y,1/2-z
-x,-y,-z
1/2+x,1/2+y,1/2-z
1/2-x,1/2+y,z
x,-y,1/2+z
loop_
_atom_site_type_symbol
_atom_site_label
_atom_site_fract_x
_atom_site_fract_y
_atom_site_fract_z
Si Si1 0.634382 0.018347 0.996717
Si Si2 0.470452 0.407169 0.990840
Si Si3 0.129060 0.716504 0.350155
Si Si4 0.678708 0.328516 0.989703
Si Si5 0.707581 0.873669 0.382810
O O1 0.630711 0.079623 0.970376
O O2 0.688317 0.997806 0.749151
O O3 0.500000 0.000000 0.000000
O O4 0.500000 0.437284 0.750000
O O5 0.500000 0.429135 0.250000
O O6 0.556806 0.358165 0.963610
O O7 0.336008 0.386710 0.003036
O O8 0.145229 0.777358 0.367310
O O9 0.145617 0.681126 0.575980
O O10 0.000000 0.706036 0.250000
O O11 0.240163 0.694927 0.208023
O O12 0.760985 0.371008 0.112901
#
# Coordination Sequence:
#
# PCOD9456321 Si02
#       5
#     8   8   8   8   8
#     4  10  25  45  71  99 140 179 242 301 363 417
#     4  10  21  40  70  95 135 187 231 276 353 416
#     4  12  25  38  64 103 140 189 244 287 358 441
#     4  11  24  43  63  99 149 183 240 290 354 438
#     4  11  24  43  71  98 137 197 226 302 367 422
#
# _framework density 23.579815
#
# number of rings (size 3 to 8) (size 9 to 14) (size 15 to 20)
#    0.000    1.200    4.000    1.800    5.600    2.400 
#    0.000    0.000    0.000   15.600    0.000    0.000 
#    0.000    0.000    0.000    0.000    0.000    0.000 
#
# Total GULP energy -222847.643112 kJ/mol
# GULP energy per Si atom -5571.191078 kJ/mol
# Density = 2.352615 g / cm^3
# Si number density = 23.579815 Si / 1000 Ang^3
#
#
#
# Elastic Constant Matrix: (Units=GPa)
#
#
# Indices 1 2 3 4 5 6 
#
# 1 88.6167 20.5003 -8.9010 0.0000 0.0000 0.0000
# 2 20.5003 58.1650 13.8428 0.0000 0.0000 0.0000
# 3 -8.9010 13.8428 123.9893 0.0000 0.0000 0.0000
# 4 0.0000 0.0000 0.0000 -3.0823 0.0000 0.0000
# 5 0.0000 0.0000 0.0000 0.0000 19.3587 0.0000
# 6 0.0000 0.0000 0.0000 0.0000 0.0000 -66.4662
#
#
#
# Elastic Compliance Matrix: (Units=1/GPa)
#
#
# Indices 1 2 3 4 5 6 
#
# 1 0.012528 -0.004756 0.001430 0.000000 0.000000 0.000000
# 2 -0.004756 0.019467 -0.002515 0.000000 0.000000 0.000000
# 3 0.001430 -0.002515 0.008449 0.000000 0.000000 0.000000
# 4 0.000000 0.000000 0.000000 -0.324436 0.000000 0.000000
# 5 0.000000 0.000000 0.000000 0.000000 0.051656 0.000000
# 6 0.000000 0.000000 0.000000 0.000000 0.000000 -0.015045
#
#
# Mechanical properties :
#
#
# Convention : Reuss Voigt Hill
#
# Bulk Modulus (GPa) = 34.76651 35.73946 35.25298
# Shear Modulus (GPa) = -22.11299 6.31730 -7.89784
#
# Velocity S-wave (km/s) = -3.06566 1.63858 -1.83212
# Velocity P-wave (km/s) = 1.49838 4.33239 3.24151
#
# Compressibility (1/GPa) = 0.02876332
#
# Stress axis : x y z
#
# Youngs Moduli (GPa) = 79.81805 51.36820 118.36182
#
# Poissons Ratio (x) = 0.24431 -0.16930
# Poissons Ratio (y) = 0.37962 0.29766
# Poissons Ratio (z) = -0.11417 0.12918
#
# Static dielectric constant tensor:
#      x y z
#    x 1.261600 0.000000 0.000000 
#    y 0.000000 1.900800 0.000000 
#    z 0.000000 0.000000 2.146250 
# 
# From -- ./inp_files/807.got.cif
#   From: 2010.05.17/outbox.cif.g08.bks.cpg/sg60_1_cif.got.tgz:807.got - 2010.06.03 14:59:27.
