data_PCOD9456341
_publ_section_title
;
Structure prediction by ZEFSAII (Michael W. Deem and Ramdas Pophale) SiO2 
 PCOD9456341
Probable space group: P B C N
;
_chemical_formula_sum "Si O2"
_cell_formula_units_Z 56
_cell_length_a 10.091091
_cell_length_b 22.194179
_cell_length_c 13.468112
_cell_angle_alpha 90.000000
_cell_angle_beta 90.000000
_cell_angle_gamma 90.000000
_cell_volume 3016.365232
_symmetry_space_group_name_H-M "P B C N"
_symmetry_group_IT_number 60
_symmetry_cell_setting 'orthorhombic'
loop_
_space_group_symop_operation_xyz
x,y,z
1/2-x,1/2-y,1/2+z
1/2+x,1/2-y,-z
-x,y,1/2-z
-x,-y,-z
1/2+x,1/2+y,1/2-z
1/2-x,1/2+y,z
x,-y,1/2+z
loop_
_atom_site_type_symbol
_atom_site_label
_atom_site_fract_x
_atom_site_fract_y
_atom_site_fract_z
Si Si1 0.632299 0.458920 0.817272
Si Si2 0.637214 0.813278 0.280225
Si Si3 0.731565 0.723290 0.433298
Si Si4 0.345028 0.859433 0.742977
Si Si5 0.030139 0.127354 0.026833
Si Si6 0.670676 0.289910 0.616935
Si Si7 0.378054 0.401643 0.174076
O O1 0.500000 0.454760 0.750000
O O2 0.750183 0.416943 0.775661
O O3 0.592498 0.431926 0.924488
O O4 0.667939 0.529008 0.823443
O O5 0.500000 0.844846 0.250000
O O6 0.636434 0.771534 0.378669
O O7 0.655058 0.764268 0.193539
O O8 0.759437 0.857851 0.294442
O O9 0.810780 0.686801 0.347939
O O10 0.647342 0.674571 0.495282
O O11 0.819173 0.761396 0.508431
O O12 0.500000 0.873237 0.750000
O O13 0.702112 0.826481 0.656148
O O14 0.947434 0.161790 0.112885
O O15 0.936737 0.113604 0.934377
O O16 0.500000 0.394554 0.250000
#
# Coordination Sequence:
#
# PCOD9456341 Si02
#       7
#     8   8   8   8   8   8   8
#     4  10  21  41  63  85 116 161 209 246 287 354
#     4  11  22  36  56  89 121 154 189 241 308 362
#     4  10  22  35  58  86 120 154 193 242 302 363
#     4  10  23  37  60  89 118 155 200 247 300 356
#     4  11  20  38  63  86 114 160 201 243 294 360
#     4  11  21  35  60  85 120 152 193 240 301 363
#     4  11  24  40  61  88 120 158 205 251 292 351
#
# _framework density 18.565391000000002
#
# number of rings (size 3 to 8) (size 9 to 14) (size 15 to 20)
#    0.000    1.429    4.286    1.286    2.000    2.857 
#    0.000    0.000    0.000    0.857    0.000    0.000 
#    0.000    0.000    0.000    0.000    0.000    0.000 
#
# Total GULP energy -312434.293140 kJ/mol
# GULP energy per Si atom -5579.183806 kJ/mol
# Density = 1.852313 g / cm^3
# Si number density = 18.565391 Si / 1000 Ang^3
#
#
#
# Elastic Constant Matrix: (Units=GPa)
#
#
# Indices 1 2 3 4 5 6 
#
# 1 97.6895 42.5545 11.4157 0.0000 0.0000 0.0000
# 2 42.5545 108.9067 34.5050 0.0000 0.0000 0.0000
# 3 11.4157 34.5050 53.7919 0.0000 0.0000 0.0000
# 4 0.0000 0.0000 0.0000 14.4729 0.0000 0.0000
# 5 0.0000 0.0000 0.0000 0.0000 21.1013 0.0000
# 6 0.0000 0.0000 0.0000 0.0000 0.0000 28.4345
#
#
#
# Elastic Compliance Matrix: (Units=1/GPa)
#
#
# Indices 1 2 3 4 5 6 
#
# 1 0.012351 -0.005015 0.000596 0.000000 0.000000 0.000000
# 2 -0.005015 0.013560 -0.007634 0.000000 0.000000 0.000000
# 3 0.000596 -0.007634 0.023361 0.000000 0.000000 0.000000
# 4 0.000000 0.000000 0.000000 0.069095 0.000000 0.000000
# 5 0.000000 0.000000 0.000000 0.000000 0.047390 0.000000
# 6 0.000000 0.000000 0.000000 0.000000 0.000000 0.035169
#
#
# Mechanical properties :
#
#
# Convention : Reuss Voigt Hill
#
# Bulk Modulus (GPa) = 39.73662 48.59318 44.16490
# Shear Modulus (GPa) = 21.42044 24.26259 22.84152
#
# Velocity S-wave (km/s) = 3.40042 3.61899 3.51141
# Velocity P-wave (km/s) = 6.07184 6.61012 6.34669
#
# Compressibility (1/GPa) = 0.02516570
#
# Stress axis : x y z
#
# Youngs Moduli (GPa) = 80.96200 73.74379 42.80697
#
# Poissons Ratio (x) = 0.36982 -0.02550
# Poissons Ratio (y) = 0.40602 0.32679
# Poissons Ratio (z) = -0.04822 0.56297
#
# Static dielectric constant tensor:
#      x y z
#    x 1.662380 0.000000 0.000000 
#    y 0.000000 1.631840 0.000000 
#    z 0.000000 0.000000 1.656280 
# 
# From -- ./inp_files/15272.got.cif
#   From: 2010.05.17/outbox.cif.g08.bks.cpg/sg60_8_cif.got.tgz:15272.got - 2010.06.03 14:59:27.
