data_PCOD9456206
_publ_section_title
;
Structure prediction by ZEFSAII (Michael W. Deem and Ramdas Pophale) SiO2 
 PCOD9456206
Probable space group: P B C N
;
_chemical_formula_sum "Si O2"
_cell_formula_units_Z 20
_cell_length_a 12.297483
_cell_length_b 13.187802
_cell_length_c 5.268078
_cell_angle_alpha 90.000000
_cell_angle_beta 90.000000
_cell_angle_gamma 90.000000
_cell_volume 854.359879
_symmetry_space_group_name_H-M "P B C N"
_symmetry_group_IT_number 60
_symmetry_cell_setting 'orthorhombic'
loop_
_space_group_symop_operation_xyz
x,y,z
1/2-x,1/2-y,1/2+z
1/2+x,1/2-y,-z
-x,y,1/2-z
-x,-y,-z
1/2+x,1/2+y,1/2-z
1/2-x,1/2+y,z
x,-y,1/2+z
loop_
_atom_site_type_symbol
_atom_site_label
_atom_site_fract_x
_atom_site_fract_y
_atom_site_fract_z
Si Si1 0.500000 0.070043 0.750000
Si Si2 0.319405 0.758179 0.292640
Si Si3 0.121629 0.958214 0.961211
O O1 0.603028 0.145826 0.738123
O O2 0.500000 0.000000 0.500000
O O3 0.382883 0.658982 0.393252
O O4 0.268599 0.730104 0.018915
O O5 0.176653 0.982758 0.228853
O O6 0.000000 0.000000 0.000000
#
# Coordination Sequence:
#
# PCOD9456206 Si02
#       3
#     4   8   8
#     4  12  28  50  72 104 152 198 238 296 368 438
#     4  12  27  46  72 106 142 186 241 295 355 430
#     4  10  21  39  67  98 129 168 221 283 340 397
#
# _framework density 23.409338000000002
#
# number of rings (size 3 to 8) (size 9 to 14) (size 15 to 20)
#    0.000    0.800    0.000    7.200    0.000   16.000 
#    0.000    0.000    0.000    0.000    0.000    0.000 
#    0.000    0.000    0.000    0.000    0.000    0.000 
#
# Total GULP energy -111937.802050 kJ/mol
# GULP energy per Si atom -5596.890103 kJ/mol
# Density = 2.335606 g / cm^3
# Si number density = 23.409338 Si / 1000 Ang^3
#
#
#
# Elastic Constant Matrix: (Units=GPa)
#
#
# Indices 1 2 3 4 5 6 
#
# 1 88.6544 75.5786 44.2993 0.0000 0.0000 0.0000
# 2 75.5786 217.8458 93.5004 0.0000 0.0000 0.0000
# 3 44.2993 93.5004 246.8110 0.0000 0.0000 0.0000
# 4 0.0000 0.0000 0.0000 53.6756 0.0000 0.0000
# 5 0.0000 0.0000 0.0000 0.0000 29.1302 0.0000
# 6 0.0000 0.0000 0.0000 0.0000 0.0000 45.0686
#
#
#
# Elastic Compliance Matrix: (Units=1/GPa)
#
#
# Indices 1 2 3 4 5 6 
#
# 1 0.016194 -0.005219 -0.000929 0.000000 0.000000 0.000000
# 2 -0.005219 0.007164 -0.001777 0.000000 0.000000 0.000000
# 3 -0.000929 -0.001777 0.004892 0.000000 0.000000 0.000000
# 4 0.000000 0.000000 0.000000 0.018630 0.000000 0.000000
# 5 0.000000 0.000000 0.000000 0.000000 0.034329 0.000000
# 6 0.000000 0.000000 0.000000 0.000000 0.000000 0.022188
#
#
# Mechanical properties :
#
#
# Convention : Reuss Voigt Hill
#
# Bulk Modulus (GPa) = 80.65952 108.89641 94.77797
# Shear Modulus (GPa) = 40.52495 48.23707 44.38101
#
# Velocity S-wave (km/s) = 4.16522 4.54430 4.35888
# Velocity P-wave (km/s) = 7.59361 8.61125 8.11839
#
# Compressibility (1/GPa) = 0.01239779
#
# Stress axis : x y z
#
# Youngs Moduli (GPa) = 61.75279 139.58837 204.42707
#
# Poissons Ratio (x) = 0.72855 0.18997
# Poissons Ratio (y) = 0.32231 0.36330
# Poissons Ratio (z) = 0.05739 0.24807
#
# Static dielectric constant tensor:
#      x y z
#    x 1.871690 0.000000 0.000000 
#    y 0.000000 1.866970 0.000000 
#    z 0.000000 0.000000 1.939320 
# 
# From -- ./inp_files/527.got.cif
#   From: 2010.05.17/outbox.cif.g08.bks.cpg/sg60_1_cif.got.tgz:527.got - 2010.06.03 14:59:27.
