data_PCOD9456400
_publ_section_title
;
Structure prediction by ZEFSAII (Michael W. Deem and Ramdas Pophale) SiO2 
 PCOD9456400
Probable space group: P B C N
;
_chemical_formula_sum "Si O2"
_cell_formula_units_Z 60
_cell_length_a 18.351598
_cell_length_b 8.635782
_cell_length_c 17.006369
_cell_angle_alpha 90.000000
_cell_angle_beta 90.000000
_cell_angle_gamma 90.000000
_cell_volume 2695.176156
_symmetry_space_group_name_H-M "P B C N"
_symmetry_group_IT_number 60
_symmetry_cell_setting 'orthorhombic'
loop_
_space_group_symop_operation_xyz
x,y,z
1/2-x,1/2-y,1/2+z
1/2+x,1/2-y,-z
-x,y,1/2-z
-x,-y,-z
1/2+x,1/2+y,1/2-z
1/2-x,1/2+y,z
x,-y,1/2+z
loop_
_atom_site_type_symbol
_atom_site_label
_atom_site_fract_x
_atom_site_fract_y
_atom_site_fract_z
Si Si1 0.202156 0.771793 0.348778
Si Si2 0.500000 0.937659 0.750000
Si Si3 0.443983 0.856280 0.910991
Si Si4 0.785936 0.476463 0.417328
Si Si5 0.967971 0.722871 0.560926
Si Si6 0.313323 0.735868 0.479823
Si Si7 0.093003 0.698322 0.676523
Si Si8 0.797119 0.940813 0.757751
O O1 0.136847 0.705574 0.400297
O O2 0.269223 0.806200 0.406689
O O3 0.232371 0.646206 0.287653
O O4 0.179608 0.918441 0.297343
O O5 0.483099 0.839683 0.826907
O O6 0.566764 0.052902 0.771271
O O7 0.446177 0.041253 0.927259
O O8 0.486229 0.772677 0.980764
O O9 0.818545 0.634233 0.452328
O O10 0.734565 0.399817 0.482703
O O11 0.851997 0.366548 0.390159
O O12 0.736246 0.504586 0.340674
O O13 0.892769 0.812780 0.550018
O O14 0.021217 0.762717 0.632889
O O15 0.137532 0.822486 0.725855
#
# Coordination Sequence:
#
# PCOD9456400 Si02
#       8
#     8   4   8   8   8   8   8   8
#     4  12  25  43  71 105 142 174 243 293 349 411
#     4  10  22  38  72  96 138 180 228 272 360 414
#     4  10  21  41  68 102 131 175 225 290 331 418
#     4  12  23  44  71  95 137 177 238 275 347 411
#     4  10  22  41  68 101 135 176 232 278 348 415
#     4  12  24  42  70 103 129 183 224 294 335 414
#     4  11  23  43  66  98 134 181 226 284 340 418
#     4  12  25  43  68 104 138 184 230 290 349 417
#
# _framework density 22.261994999999999
#
# number of rings (size 3 to 8) (size 9 to 14) (size 15 to 20)
#    0.000    0.800    2.667    6.400    3.733    1.067 
#    0.000    2.667    0.000    0.000    0.000    0.000 
#    0.000    0.000    0.000    0.000    0.000    0.000 
#
# Total GULP energy -336051.733250 kJ/mol
# GULP energy per Si atom -5600.862221 kJ/mol
# Density = 2.221133 g / cm^3
# Si number density = 22.261995 Si / 1000 Ang^3
#
#
#
# Elastic Constant Matrix: (Units=GPa)
#
#
# Indices 1 2 3 4 5 6 
#
# 1 120.8603 16.2166 20.8862 0.0000 0.0000 0.0000
# 2 16.2166 29.5150 0.7036 0.0000 0.0000 0.0000
# 3 20.8862 0.7036 90.3551 0.0000 0.0000 0.0000
# 4 0.0000 0.0000 0.0000 16.8208 0.0000 0.0000
# 5 0.0000 0.0000 0.0000 0.0000 39.3289 0.0000
# 6 0.0000 0.0000 0.0000 0.0000 0.0000 13.0549
#
#
#
# Elastic Compliance Matrix: (Units=1/GPa)
#
#
# Indices 1 2 3 4 5 6 
#
# 1 0.009320 -0.005070 -0.002115 0.000000 0.000000 0.000000
# 2 -0.005070 0.036646 0.000887 0.000000 0.000000 0.000000
# 3 -0.002115 0.000887 0.011549 0.000000 0.000000 0.000000
# 4 0.000000 0.000000 0.000000 0.059450 0.000000 0.000000
# 5 0.000000 0.000000 0.000000 0.000000 0.025427 0.000000
# 6 0.000000 0.000000 0.000000 0.000000 0.000000 0.076600
#
#
# Mechanical properties :
#
#
# Convention : Reuss Voigt Hill
#
# Bulk Modulus (GPa) = 22.26275 35.14925 28.70600
# Shear Modulus (GPa) = 20.27895 27.36917 23.82406
#
# Velocity S-wave (km/s) = 3.02142 3.51010 3.27489
# Velocity P-wave (km/s) = 4.71106 5.67899 5.21752
#
# Compressibility (1/GPa) = 0.04491808
#
# Stress axis : x y z
#
# Youngs Moduli (GPa) = 107.29851 27.28832 86.58455
#
# Poissons Ratio (x) = 0.13836 0.18311
# Poissons Ratio (y) = 0.54403 -0.07677
# Poissons Ratio (z) = 0.22692 -0.02420
#
# Static dielectric constant tensor:
#      x y z
#    x 1.816350 0.000000 0.000000 
#    y 0.000000 1.813780 0.000000 
#    z 0.000000 0.000000 1.832980 
# 
# From -- ./inp_files/20897.got.cif
#   From: 2010.05.17/outbox.cif.g08.bks.cpg/sg60_11_cif.got.tgz:20897.got - 2010.06.03 14:59:27.
