data_PCOD9456415
_publ_section_title
;
Structure prediction by ZEFSAII (Michael W. Deem and Ramdas Pophale) SiO2 
 PCOD9456415
Probable space group: P B C N
;
_chemical_formula_sum "Si O2"
_cell_formula_units_Z 40
_cell_length_a 11.732358
_cell_length_b 15.078885
_cell_length_c 8.335436
_cell_angle_alpha 90.000000
_cell_angle_beta 90.000000
_cell_angle_gamma 90.000000
_cell_volume 1474.629293
_symmetry_space_group_name_H-M "P B C N"
_symmetry_group_IT_number 60
_symmetry_cell_setting 'orthorhombic'
loop_
_space_group_symop_operation_xyz
x,y,z
1/2-x,1/2-y,1/2+z
1/2+x,1/2-y,-z
-x,y,1/2-z
-x,-y,-z
1/2+x,1/2+y,1/2-z
1/2-x,1/2+y,z
x,-y,1/2+z
loop_
_atom_site_type_symbol
_atom_site_label
_atom_site_fract_x
_atom_site_fract_y
_atom_site_fract_z
Si Si1 0.289314 0.673429 0.636286
Si Si2 0.125953 0.554975 0.815112
Si Si3 0.680139 0.416532 0.679616
Si Si4 0.000000 0.772881 0.750000
Si Si5 0.500000 0.444461 0.250000
Si Si6 0.066072 0.668139 0.080283
O O1 0.190148 0.644202 0.753932
O O2 0.259505 0.635192 0.464263
O O3 0.407293 0.621044 0.673371
O O4 0.323577 0.774474 0.625148
O O5 0.217189 0.480592 0.769438
O O6 0.000000 0.543764 0.750000
O O7 0.103098 0.575842 0.000948
O O8 0.606912 0.340912 0.767816
O O9 0.580048 0.490082 0.643988
O O10 0.990409 0.721157 0.575522
O O11 0.000000 0.661879 0.250000
#
# Coordination Sequence:
#
# PCOD9456415 Si02
#       6
#     8   8   8   4   4   8
#     4  10  21  41  70 107 144 195 262 317 385 465
#     4  11  25  46  69 110 162 208 256 312 402 494
#     4   9  20  40  73 112 151 196 249 333 392 452
#     4   9  20  46  86 120 144 195 282 343 390 454
#     4   9  16  36  66 110 138 177 254 329 376 442
#     4  11  23  46  81 114 154 204 265 337 396 467
#
# _framework density 27.125461000000001
#
# number of rings (size 3 to 8) (size 9 to 14) (size 15 to 20)
#    0.000    2.000    2.000    0.600    0.000    4.000 
#    0.000    9.000    4.400    0.000    5.200    0.000 
#    0.000    0.000    0.000    0.000    0.000    0.000 
#
# Total GULP energy -223477.965960 kJ/mol
# GULP energy per Si atom -5586.949149 kJ/mol
# Density = 2.706372 g / cm^3
# Si number density = 27.125461 Si / 1000 Ang^3
#
#
#
# Elastic Constant Matrix: (Units=GPa)
#
#
# Indices 1 2 3 4 5 6 
#
# 1 207.3810 76.2486 97.4812 0.0000 0.0000 0.0000
# 2 76.2486 92.4646 60.3770 0.0000 0.0000 0.0000
# 3 97.4812 60.3770 159.7666 0.0000 0.0000 0.0000
# 4 0.0000 0.0000 0.0000 31.2980 0.0000 0.0000
# 5 0.0000 0.0000 0.0000 0.0000 48.4404 0.0000
# 6 0.0000 0.0000 0.0000 0.0000 0.0000 29.3013
#
#
#
# Elastic Compliance Matrix: (Units=1/GPa)
#
#
# Indices 1 2 3 4 5 6 
#
# 1 0.007962 -0.004505 -0.003155 0.000000 0.000000 0.000000
# 2 -0.004505 0.016907 -0.003641 0.000000 0.000000 0.000000
# 3 -0.003155 -0.003641 0.009560 0.000000 0.000000 0.000000
# 4 0.000000 0.000000 0.000000 0.031951 0.000000 0.000000
# 5 0.000000 0.000000 0.000000 0.000000 0.020644 0.000000
# 6 0.000000 0.000000 0.000000 0.000000 0.000000 0.034128
#
#
# Mechanical properties :
#
#
# Convention : Reuss Voigt Hill
#
# Bulk Modulus (GPa) = 84.55189 103.09177 93.82183
# Shear Modulus (GPa) = 33.85334 36.84163 35.34748
#
# Velocity S-wave (km/s) = 3.53658 3.68937 3.61378
# Velocity P-wave (km/s) = 6.92205 7.49911 7.21635
#
# Compressibility (1/GPa) = 0.01182706
#
# Stress axis : x y z
#
# Youngs Moduli (GPa) = 125.60328 59.14675 104.60127
#
# Poissons Ratio (x) = 0.26646 0.33004
# Poissons Ratio (y) = 0.56584 0.38081
# Poissons Ratio (z) = 0.39631 0.21533
#
# Static dielectric constant tensor:
#      x y z
#    x 2.118230 0.000000 0.000000 
#    y 0.000000 2.271710 0.000000 
#    z 0.000000 0.000000 2.185860 
# 
# From -- ./inp_files/4807.got.cif
#   From: 2010.05.17/outbox.cif.g08.bks.cpg/sg60_3_cif.got.tgz:4807.got - 2010.06.03 14:59:27.
