data_PCOD9456611
_publ_section_title
;
Structure prediction by ZEFSAII (Michael W. Deem and Ramdas Pophale) SiO2 
 PCOD9456611
Probable space group: P B C N
;
_chemical_formula_sum "Si O2"
_cell_formula_units_Z 52
_cell_length_a 15.978472
_cell_length_b 21.044611
_cell_length_c 8.554884
_cell_angle_alpha 90.000000
_cell_angle_beta 90.000000
_cell_angle_gamma 90.000000
_cell_volume 2876.671518
_symmetry_space_group_name_H-M "P B C N"
_symmetry_group_IT_number 60
_symmetry_cell_setting 'orthorhombic'
loop_
_space_group_symop_operation_xyz
x,y,z
1/2-x,1/2-y,1/2+z
1/2+x,1/2-y,-z
-x,y,1/2-z
-x,-y,-z
1/2+x,1/2+y,1/2-z
1/2-x,1/2+y,z
x,-y,1/2+z
loop_
_atom_site_type_symbol
_atom_site_label
_atom_site_fract_x
_atom_site_fract_y
_atom_site_fract_z
Si Si1 0.274270 0.412609 0.970940
Si Si2 0.420519 0.411282 0.442399
Si Si3 0.500000 0.232738 0.750000
Si Si4 0.149152 0.988186 0.714487
Si Si5 0.575036 0.679817 0.977274
Si Si6 0.674011 0.708193 0.683175
Si Si7 0.833705 0.309976 0.402802
O O1 0.307652 0.461051 0.101416
O O2 0.342741 0.356138 0.961103
O O3 0.190535 0.377989 0.024425
O O4 0.280042 0.451205 0.811509
O O5 0.409422 0.472229 0.331863
O O6 0.402670 0.437450 0.614726
O O7 0.507961 0.374666 0.434401
O O8 0.350378 0.360060 0.390908
O O9 0.535591 0.276618 0.610196
O O10 0.576671 0.193663 0.821570
O O11 0.605090 0.716658 0.821470
O O12 0.670260 0.759168 0.544802
O O13 0.762765 0.706173 0.772409
#
# Coordination Sequence:
#
# PCOD9456611 Si02
#       7
#     8   8   4   8   8   8   8
#     4  10  22  38  56  86 116 159 197 242 293 366
#     4  11  21  37  56  87 125 164 190 246 283 361
#     4  12  24  38  62  90 122 160 200 262 298 358
#     4  10  22  36  57  85 122 162 202 233 292 358
#     4  11  22  38  56  90 128 156 197 236 298 362
#     4  11  23  40  59  85 122 161 197 249 301 363
#     4  11  23  39  61  85 117 158 206 251 308 356
#
# _framework density 18.076447000000002
#
# number of rings (size 3 to 8) (size 9 to 14) (size 15 to 20)
#    0.000    1.231    4.615    3.231    2.154    3.692 
#    0.000    0.000    0.000    0.923    0.000    0.000 
#    0.000    0.000    0.000    0.000    0.000    0.000 
#
# Total GULP energy -290528.143499 kJ/mol
# GULP energy per Si atom -5587.079683 kJ/mol
# Density = 1.803530 g / cm^3
# Si number density = 18.076447 Si / 1000 Ang^3
#
#
#
# Elastic Constant Matrix: (Units=GPa)
#
#
# Indices 1 2 3 4 5 6 
#
# 1 113.1243 47.0379 46.8877 0.0000 0.0000 0.0000
# 2 47.0379 48.9108 22.4285 0.0000 0.0000 0.0000
# 3 46.8877 22.4285 69.8743 0.0000 0.0000 0.0000
# 4 0.0000 0.0000 0.0000 31.0079 0.0000 0.0000
# 5 0.0000 0.0000 0.0000 0.0000 27.8757 0.0000
# 6 0.0000 0.0000 0.0000 0.0000 0.0000 17.1934
#
#
#
# Elastic Compliance Matrix: (Units=1/GPa)
#
#
# Indices 1 2 3 4 5 6 
#
# 1 0.017504 -0.013423 -0.007437 0.000000 0.000000 0.000000
# 2 -0.013423 0.034268 -0.001992 0.000000 0.000000 0.000000
# 3 -0.007437 -0.001992 0.019941 0.000000 0.000000 0.000000
# 4 0.000000 0.000000 0.000000 0.032250 0.000000 0.000000
# 5 0.000000 0.000000 0.000000 0.000000 0.035873 0.000000
# 6 0.000000 0.000000 0.000000 0.000000 0.000000 0.058162
#
#
# Mechanical properties :
#
#
# Convention : Reuss Voigt Hill
#
# Bulk Modulus (GPa) = 38.44884 51.62419 45.03652
# Shear Modulus (GPa) = 19.81199 22.91909 21.36554
#
# Velocity S-wave (km/s) = 3.31420 3.56462 3.44169
# Velocity P-wave (km/s) = 5.99679 6.75002 6.38453
#
# Compressibility (1/GPa) = 0.02600858
#
# Stress axis : x y z
#
# Youngs Moduli (GPa) = 57.13061 29.18163 50.14742
#
# Poissons Ratio (x) = 0.39171 0.37294
# Poissons Ratio (y) = 0.76688 0.09990
# Poissons Ratio (z) = 0.42487 0.05813
#
# Static dielectric constant tensor:
#      x y z
#    x 1.623200 0.000000 0.000000 
#    y 0.000000 1.615260 0.000000 
#    z 0.000000 0.000000 1.665780 
# 
# From -- ./inp_files/6081.got.cif
#   From: 2010.05.17/outbox.cif.g08.bks.cpg/sg60_4_cif.got.tgz:6081.got - 2010.06.03 14:59:27.
