data_PCOD9456692
_publ_section_title
;
Structure prediction by ZEFSAII (Michael W. Deem and Ramdas Pophale) SiO2 
 PCOD9456692
Probable space group: P B C N
;
_chemical_formula_sum "Si O2"
_cell_formula_units_Z 52
_cell_length_a 11.956426
_cell_length_b 9.207913
_cell_length_c 20.659368
_cell_angle_alpha 90.000000
_cell_angle_beta 90.000000
_cell_angle_gamma 90.000000
_cell_volume 2274.466891
_symmetry_space_group_name_H-M "P B C N"
_symmetry_group_IT_number 60
_symmetry_cell_setting 'orthorhombic'
loop_
_space_group_symop_operation_xyz
x,y,z
1/2-x,1/2-y,1/2+z
1/2+x,1/2-y,-z
-x,y,1/2-z
-x,-y,-z
1/2+x,1/2+y,1/2-z
1/2-x,1/2+y,z
x,-y,1/2+z
loop_
_atom_site_type_symbol
_atom_site_label
_atom_site_fract_x
_atom_site_fract_y
_atom_site_fract_z
Si Si1 0.928479 0.992196 0.101326
Si Si2 0.500000 0.036803 0.250000
Si Si3 0.350070 0.070750 0.055455
Si Si4 0.655132 0.599313 0.963976
Si Si5 0.080304 0.293621 0.339014
Si Si6 0.098102 0.454543 0.923382
Si Si7 0.678396 0.242204 0.185361
O O1 0.874390 0.890289 0.156814
O O2 0.034680 0.915226 0.069413
O O3 0.964233 0.140365 0.137481
O O4 0.855389 0.031037 0.036666
O O5 0.603580 0.147060 0.235438
O O6 0.501635 0.914734 0.193331
O O7 0.315190 0.231418 0.034178
O O8 0.240557 0.991399 0.081308
O O9 0.469430 0.090119 0.089402
O O10 0.380862 0.953708 0.999077
O O11 0.117271 0.379764 0.403035
O O12 0.192704 0.269311 0.296680
O O13 0.176246 0.358620 0.878636
#
# Coordination Sequence:
#
# PCOD9456692 Si02
#       7
#     8   4   8   8   8   8   8
#     4  11  23  39  63  97 133 172 222 255 307 403
#     4  10  26  46  70  98 124 150 226 292 336 386
#     4  11  22  37  58  94 143 183 213 261 311 375
#     4  11  24  36  60  99 141 180 214 254 314 383
#     4  11  22  43  71  96 120 169 216 273 334 388
#     4  10  22  38  62  93 136 175 217 262 312 388
#     4  11  22  45  69  94 125 166 217 275 329 389
#
# _framework density 22.862500000000001
#
# number of rings (size 3 to 8) (size 9 to 14) (size 15 to 20)
#    0.000    1.231    3.077    3.692    4.308    0.615 
#    0.000    6.154    0.000    0.000    0.000    0.000 
#    0.000    0.000    0.000    0.000    0.000    0.000 
#
# Total GULP energy -289678.045839 kJ/mol
# GULP energy per Si atom -5570.731651 kJ/mol
# Density = 2.281046 g / cm^3
# Si number density = 22.862500 Si / 1000 Ang^3
#
#
#
# Elastic Constant Matrix: (Units=GPa)
#
#
# Indices 1 2 3 4 5 6 
#
# 1 71.4737 17.2608 6.4918 0.0000 0.0000 0.0000
# 2 17.2608 155.6709 21.1499 0.0000 0.0000 0.0000
# 3 6.4918 21.1499 33.1793 0.0000 0.0000 0.0000
# 4 0.0000 0.0000 0.0000 32.0562 0.0000 0.0000
# 5 0.0000 0.0000 0.0000 0.0000 24.4558 0.0000
# 6 0.0000 0.0000 0.0000 0.0000 0.0000 39.3872
#
#
#
# Elastic Compliance Matrix: (Units=1/GPa)
#
#
# Indices 1 2 3 4 5 6 
#
# 1 0.014494 -0.001338 -0.001983 0.000000 0.000000 0.000000
# 2 -0.001338 0.007156 -0.004300 0.000000 0.000000 0.000000
# 3 -0.001983 -0.004300 0.033268 0.000000 0.000000 0.000000
# 4 0.000000 0.000000 0.000000 0.031195 0.000000 0.000000
# 5 0.000000 0.000000 0.000000 0.000000 0.040890 0.000000
# 6 0.000000 0.000000 0.000000 0.000000 0.000000 0.025389
#
#
# Mechanical properties :
#
#
# Convention : Reuss Voigt Hill
#
# Bulk Modulus (GPa) = 25.20344 38.90323 32.05333
# Shear Modulus (GPa) = 27.64554 33.54126 30.59340
#
# Velocity S-wave (km/s) = 3.48114 3.83441 3.66204
# Velocity P-wave (km/s) = 5.21590 6.05448 5.65077
#
# Compressibility (1/GPa) = 0.03967713
#
# Stress axis : x y z
#
# Youngs Moduli (GPa) = 68.99239 139.73610 30.05858
#
# Poissons Ratio (x) = 0.18692 0.05961
# Poissons Ratio (y) = 0.09229 0.12925
# Poissons Ratio (z) = 0.13683 0.60087
#
# Static dielectric constant tensor:
#      x y z
#    x 2.073320 0.000000 0.000000 
#    y 0.000000 1.832310 0.000000 
#    z 0.000000 0.000000 1.961410 
# 
# From -- ./inp_files/25312.got.cif
#   From: 2010.05.17/outbox.cif.g08.bks.cpg/sg60_13_cif.got.tgz:25312.got - 2010.06.03 14:59:27.
