data_PCOD9456066
_publ_section_title
;
Structure prediction by ZEFSAII (Michael W. Deem and Ramdas Pophale) SiO2 
 PCOD9456066
Probable space group: P B C N
;
_chemical_formula_sum "Si O2"
_cell_formula_units_Z 52
_cell_length_a 19.656669
_cell_length_b 21.867659
_cell_length_c 4.979469
_cell_angle_alpha 90.000000
_cell_angle_beta 90.000000
_cell_angle_gamma 90.000000
_cell_volume 2140.401519
_symmetry_space_group_name_H-M "P B C N"
_symmetry_group_IT_number 60
_symmetry_cell_setting 'orthorhombic'
loop_
_space_group_symop_operation_xyz
x,y,z
1/2-x,1/2-y,1/2+z
1/2+x,1/2-y,-z
-x,y,1/2-z
-x,-y,-z
1/2+x,1/2+y,1/2-z
1/2-x,1/2+y,z
x,-y,1/2+z
loop_
_atom_site_type_symbol
_atom_site_label
_atom_site_fract_x
_atom_site_fract_y
_atom_site_fract_z
Si Si1 0.164397 0.542926 0.832470
Si Si2 0.819667 0.963654 0.227273
Si Si3 0.390339 0.708275 0.063806
Si Si4 0.744533 0.788361 0.843195
Si Si5 0.890822 0.669527 0.586261
Si Si6 0.000000 0.723680 0.250000
Si Si7 0.956935 0.090814 0.480449
O O1 0.152517 0.490118 0.614844
O O2 0.244287 0.561762 0.825593
O O3 0.120453 0.603514 0.786269
O O4 0.821247 0.973833 0.547382
O O5 0.886671 0.933631 0.105846
O O6 0.383879 0.771046 0.226935
O O7 0.432744 0.652047 0.177092
O O8 0.313731 0.684358 0.033047
O O9 0.436855 0.732042 0.820401
O O10 0.741014 0.727554 0.033196
O O11 0.673703 0.823296 0.881072
O O12 0.965138 0.679092 0.462991
O O13 0.000000 0.054834 0.250000
O O14 0.000000 0.101108 0.750000
#
# Coordination Sequence:
#
# PCOD9456066 Si02
#       7
#     8   8   8   8   8   4   8
#     4  10  24  45  71  97 126 169 229 288 342 402
#     4  10  22  44  68  95 131 179 227 283 339 392
#     4  11  24  42  64  98 141 182 222 275 343 407
#     4  10  21  38  63  96 127 168 223 265 318 397
#     4  11  24  42  69  99 135 181 222 283 342 415
#     4  12  22  42  66  96 138 176 220 266 358 406
#     4  12  25  39  62  96 138 180 224 273 328 407
#
# _framework density 24.294505999999998
#
# number of rings (size 3 to 8) (size 9 to 14) (size 15 to 20)
#    0.000    1.231    2.308    3.231    2.154    1.846 
#    0.000    5.385    0.000    0.000    0.000    0.000 
#    0.000    0.000    0.000    0.000    0.000    0.000 
#
# Total GULP energy -290023.447714 kJ/mol
# GULP energy per Si atom -5577.373995 kJ/mol
# Density = 2.423921 g / cm^3
# Si number density = 24.294506 Si / 1000 Ang^3
#
#
#
# Elastic Constant Matrix: (Units=GPa)
#
#
# Indices 1 2 3 4 5 6 
#
# 1 72.0251 4.4997 14.7497 0.0000 0.0000 0.0000
# 2 4.4997 58.7089 -2.5525 0.0000 0.0000 0.0000
# 3 14.7497 -2.5525 85.1790 0.0000 0.0000 0.0000
# 4 0.0000 0.0000 0.0000 13.5977 0.0000 0.0000
# 5 0.0000 0.0000 0.0000 0.0000 33.0323 0.0000
# 6 0.0000 0.0000 0.0000 0.0000 0.0000 10.9580
#
#
#
# Elastic Compliance Matrix: (Units=1/GPa)
#
#
# Indices 1 2 3 4 5 6 
#
# 1 0.014481 -0.001221 -0.002544 0.000000 0.000000 0.000000
# 2 -0.001221 0.017158 0.000726 0.000000 0.000000 0.000000
# 3 -0.002544 0.000726 0.012202 0.000000 0.000000 0.000000
# 4 0.000000 0.000000 0.000000 0.073542 0.000000 0.000000
# 5 0.000000 0.000000 0.000000 0.000000 0.030273 0.000000
# 6 0.000000 0.000000 0.000000 0.000000 0.000000 0.091258
#
#
# Mechanical properties :
#
#
# Convention : Reuss Voigt Hill
#
# Bulk Modulus (GPa) = 26.48057 27.70074 27.09066
# Shear Modulus (GPa) = 19.41136 24.79867 22.10501
#
# Velocity S-wave (km/s) = 2.82973 3.19839 3.01969
# Velocity P-wave (km/s) = 4.64758 5.00663 4.83044
#
# Compressibility (1/GPa) = 0.03776353
#
# Stress axis : x y z
#
# Youngs Moduli (GPa) = 69.05458 58.28087 81.95193
#
# Poissons Ratio (x) = 0.07113 0.20850
# Poissons Ratio (y) = 0.08428 -0.05946
# Poissons Ratio (z) = 0.17569 -0.04228
#
# Static dielectric constant tensor:
#      x y z
#    x 2.028070 0.000000 0.000000 
#    y 0.000000 1.999550 0.000000 
#    z 0.000000 0.000000 1.988990 
# 
# From -- ./inp_files/2082.got.cif
#   From: 2010.05.17/outbox.cif.g08.bks.cpg/sg60_2_cif.got.tgz:2082.got - 2010.06.03 14:59:27.
