data_PCOD9456239
_publ_section_title
;
Structure prediction by ZEFSAII (Michael W. Deem and Ramdas Pophale) SiO2 
 PCOD9456239
Probable space group: P B C N
;
_chemical_formula_sum "Si O2"
_cell_formula_units_Z 40
_cell_length_a 11.170282
_cell_length_b 16.585810
_cell_length_c 8.714728
_cell_angle_alpha 90.000000
_cell_angle_beta 90.000000
_cell_angle_gamma 90.000000
_cell_volume 1614.561751
_symmetry_space_group_name_H-M "P B C N"
_symmetry_group_IT_number 60
_symmetry_cell_setting 'orthorhombic'
loop_
_space_group_symop_operation_xyz
x,y,z
1/2-x,1/2-y,1/2+z
1/2+x,1/2-y,-z
-x,y,1/2-z
-x,-y,-z
1/2+x,1/2+y,1/2-z
1/2-x,1/2+y,z
x,-y,1/2+z
loop_
_atom_site_type_symbol
_atom_site_label
_atom_site_fract_x
_atom_site_fract_y
_atom_site_fract_z
Si Si1 0.823153 0.641827 0.041664
Si Si2 0.102535 0.080404 0.121514
Si Si3 0.788900 0.020989 0.651046
Si Si4 0.564884 0.861512 0.094214
Si Si5 0.715450 0.772998 0.851822
O O1 0.742325 0.569425 0.097450
O O2 0.831939 0.707400 0.181196
O O3 0.766185 0.686121 0.894606
O O4 0.953255 0.605941 0.004248
O O5 0.178241 0.001963 0.176391
O O6 0.177015 0.163015 0.128354
O O7 0.000000 0.086845 0.250000
O O8 0.099173 0.060815 0.939721
O O9 0.670785 0.075150 0.626838
O O10 0.500000 0.833495 0.250000
O O11 0.620601 0.793041 0.985717
#
# Coordination Sequence:
#
# PCOD9456239 Si02
#       5
#     8   8   8   8   8
#     4  11  22  40  61  89 129 165 210 267 317 380
#     4  10  21  40  61  86 122 161 204 262 320 380
#     4  10  22  38  62  93 120 159 216 260 317 391
#     4  11  22  40  66  93 127 168 208 266 329 379
#     4  10  24  40  61  95 126 169 218 257 315 392
#
# _framework density 24.774526000000002
#
# number of rings (size 3 to 8) (size 9 to 14) (size 15 to 20)
#    0.000    1.600    0.000    4.200    0.000    8.800 
#    0.000    2.000    0.000    0.000    0.000    0.000 
#    0.000    0.000    0.000    0.000    0.000    0.000 
#
# Total GULP energy -223309.403232 kJ/mol
# GULP energy per Si atom -5582.735081 kJ/mol
# Density = 2.471814 g / cm^3
# Si number density = 24.774526 Si / 1000 Ang^3
#
#
#
# Elastic Constant Matrix: (Units=GPa)
#
#
# Indices 1 2 3 4 5 6 
#
# 1 85.2079 19.3158 22.9538 0.0000 0.0000 0.0000
# 2 19.3158 38.8259 28.3169 0.0000 0.0000 0.0000
# 3 22.9538 28.3169 108.5578 0.0000 0.0000 0.0000
# 4 0.0000 0.0000 0.0000 42.7703 0.0000 0.0000
# 5 0.0000 0.0000 0.0000 0.0000 48.8299 0.0000
# 6 0.0000 0.0000 0.0000 0.0000 0.0000 29.2529
#
#
#
# Elastic Compliance Matrix: (Units=1/GPa)
#
#
# Indices 1 2 3 4 5 6 
#
# 1 0.013386 -0.005675 -0.001350 0.000000 0.000000 0.000000
# 2 -0.005675 0.034213 -0.007724 0.000000 0.000000 0.000000
# 3 -0.001350 -0.007724 0.011512 0.000000 0.000000 0.000000
# 4 0.000000 0.000000 0.000000 0.023381 0.000000 0.000000
# 5 0.000000 0.000000 0.000000 0.000000 0.020479 0.000000
# 6 0.000000 0.000000 0.000000 0.000000 0.000000 0.034185
#
#
# Mechanical properties :
#
#
# Convention : Reuss Voigt Hill
#
# Bulk Modulus (GPa) = 33.76983 41.52940 37.64962
# Shear Modulus (GPa) = 28.32457 34.97095 31.64776
#
# Velocity S-wave (km/s) = 3.38493 3.76116 3.57799
# Velocity P-wave (km/s) = 5.37936 5.97169 5.68325
#
# Compressibility (1/GPa) = 0.02961223
#
# Stress axis : x y z
#
# Youngs Moduli (GPa) = 74.70408 29.22880 86.86556
#
# Poissons Ratio (x) = 0.16587 0.11728
# Poissons Ratio (y) = 0.42394 0.67098
# Poissons Ratio (z) = 0.10086 0.22577
#
# Static dielectric constant tensor:
#      x y z
#    x 2.016540 0.000000 0.000000 
#    y 0.000000 1.911130 0.000000 
#    z 0.000000 0.000000 2.042710 
# 
# From -- ./inp_files/4722.got.cif
#   From: 2010.05.17/outbox.cif.g08.bks.cpg/sg60_3_cif.got.tgz:4722.got - 2010.06.03 14:59:27.
