data_PCOD9456522
_publ_section_title
;
Structure prediction by ZEFSAII (Michael W. Deem and Ramdas Pophale) SiO2 
 PCOD9456522
Probable space group: P B C N
;
_chemical_formula_sum "Si O2"
_cell_formula_units_Z 48
_cell_length_a 22.917222
_cell_length_b 9.485638
_cell_length_c 9.217026
_cell_angle_alpha 90.000000
_cell_angle_beta 90.000000
_cell_angle_gamma 90.000000
_cell_volume 2003.638329
_symmetry_space_group_name_H-M "P B C N"
_symmetry_group_IT_number 60
_symmetry_cell_setting 'orthorhombic'
loop_
_space_group_symop_operation_xyz
x,y,z
1/2-x,1/2-y,1/2+z
1/2+x,1/2-y,-z
-x,y,1/2-z
-x,-y,-z
1/2+x,1/2+y,1/2-z
1/2-x,1/2+y,z
x,-y,1/2+z
loop_
_atom_site_type_symbol
_atom_site_label
_atom_site_fract_x
_atom_site_fract_y
_atom_site_fract_z
Si Si1 0.753658 0.067347 0.500983
Si Si2 0.050502 0.564013 0.866984
Si Si3 0.608012 0.463989 0.949151
Si Si4 0.375695 0.321982 0.829047
Si Si5 0.734881 0.190679 0.809634
Si Si6 0.028934 0.272589 0.903599
O O1 0.824014 0.072520 0.478182
O O2 0.751611 0.093708 0.672855
O O3 0.727989 0.194678 0.401574
O O4 0.724750 0.925065 0.437806
O O5 0.096472 0.670593 0.801896
O O6 0.073477 0.406537 0.893496
O O7 0.000000 0.544841 0.750000
O O8 0.020384 0.648970 0.998754
O O9 0.607034 0.620007 0.014104
O O10 0.561899 0.357783 0.023055
O O11 0.599451 0.441017 0.778980
O O12 0.310516 0.291142 0.777969
O O13 0.000000 0.234066 0.750000
#
# Coordination Sequence:
#
# PCOD9456522 Si02
#       6
#     8   8   8   8   8   8
#     4  11  23  44  68  95 137 174 228 288 351 424
#     4  10  21  44  64  94 138 177 228 283 339 415
#     4  11  24  43  64  96 132 176 228 283 344 419
#     4  11  25  41  66  95 130 177 229 283 350 415
#     4  11  24  44  68 101 134 177 226 293 357 424
#     4  10  23  41  67  96 135 180 228 283 345 408
#
# _framework density 23.956420000000001
#
# number of rings (size 3 to 8) (size 9 to 14) (size 15 to 20)
#    0.000    1.333    1.667    4.000    2.333    5.333 
#    0.000    0.000    0.000    0.000    0.000    0.000 
#    0.000    0.000    0.000    0.000    0.000    0.000 
#
# Total GULP energy -267271.775034 kJ/mol
# GULP energy per Si atom -5568.161980 kJ/mol
# Density = 2.390189 g / cm^3
# Si number density = 23.956420 Si / 1000 Ang^3
#
#
#
# Elastic Constant Matrix: (Units=GPa)
#
#
# Indices 1 2 3 4 5 6 
#
# 1 10.4261 7.4100 3.8093 0.0000 0.0000 0.0000
# 2 7.4100 110.6504 0.2496 0.0000 0.0000 0.0000
# 3 3.8093 0.2496 65.8036 0.0000 0.0000 0.0000
# 4 0.0000 0.0000 0.0000 155.0638 0.0000 0.0000
# 5 0.0000 0.0000 0.0000 0.0000 13.3838 0.0000
# 6 0.0000 0.0000 0.0000 0.0000 0.0000 9.6790
#
#
#
# Elastic Compliance Matrix: (Units=1/GPa)
#
#
# Indices 1 2 3 4 5 6 
#
# 1 0.102973 -0.006882 -0.005935 0.000000 0.000000 0.000000
# 2 -0.006882 0.009498 0.000362 0.000000 0.000000 0.000000
# 3 -0.005935 0.000362 0.015539 0.000000 0.000000 0.000000
# 4 0.000000 0.000000 0.000000 0.006449 0.000000 0.000000
# 5 0.000000 0.000000 0.000000 0.000000 0.074717 0.000000
# 6 0.000000 0.000000 0.000000 0.000000 0.000000 0.103316
#
#
# Mechanical properties :
#
#
# Convention : Reuss Voigt Hill
#
# Bulk Modulus (GPa) = 9.69938 23.31311 16.50624
# Shear Modulus (GPa) = 13.44926 47.31941 30.38433
#
# Velocity S-wave (km/s) = 2.37197 4.44918 3.56521
# Velocity P-wave (km/s) = 3.39988 6.01217 4.88392
#
# Compressibility (1/GPa) = 0.10309936
#
# Stress axis : x y z
#
# Youngs Moduli (GPa) = 9.71131 105.29018 64.35451
#
# Poissons Ratio (x) = 0.72466 0.38193
# Poissons Ratio (y) = 0.06684 -0.02332
# Poissons Ratio (z) = 0.05764 -0.03816
#
# Static dielectric constant tensor:
#      x y z
#    x 1.882790 0.000000 0.000000 
#    y 0.000000 2.043070 0.000000 
#    z 0.000000 0.000000 1.889270 
# 
# From -- ./inp_files/13052.got.cif
#   From: 2010.05.17/outbox.cif.g08.bks.cpg/sg60_7_cif.got.tgz:13052.got - 2010.06.03 14:59:27.
