data_PCOD9456484
_publ_section_title
;
Structure prediction by ZEFSAII (Michael W. Deem and Ramdas Pophale) SiO2 
 PCOD9456484
Probable space group: P B C N
;
_chemical_formula_sum "Si O2"
_cell_formula_units_Z 52
_cell_length_a 14.639983
_cell_length_b 18.202395
_cell_length_c 9.674756
_cell_angle_alpha 90.000000
_cell_angle_beta 90.000000
_cell_angle_gamma 90.000000
_cell_volume 2578.155617
_symmetry_space_group_name_H-M "P B C N"
_symmetry_group_IT_number 60
_symmetry_cell_setting 'orthorhombic'
loop_
_space_group_symop_operation_xyz
x,y,z
1/2-x,1/2-y,1/2+z
1/2+x,1/2-y,-z
-x,y,1/2-z
-x,-y,-z
1/2+x,1/2+y,1/2-z
1/2-x,1/2+y,z
x,-y,1/2+z
loop_
_atom_site_type_symbol
_atom_site_label
_atom_site_fract_x
_atom_site_fract_y
_atom_site_fract_z
Si Si1 0.695416 0.159906 0.423442
Si Si2 0.579480 0.544828 0.077038
Si Si3 0.217750 0.627769 0.774126
Si Si4 0.635463 0.232918 0.921626
Si Si5 0.099541 0.768675 0.276113
Si Si6 0.000000 0.828867 0.750000
Si Si7 0.699836 0.489410 0.833541
O O1 0.668378 0.142554 0.580589
O O2 0.770707 0.223220 0.437542
O O3 0.622204 0.200572 0.326359
O O4 0.749577 0.087547 0.366975
O O5 0.539176 0.623907 0.120281
O O6 0.614705 0.520314 0.228445
O O7 0.500000 0.500000 0.000000
O O8 0.663366 0.531837 0.970532
O O9 0.159201 0.656409 0.646539
O O10 0.316543 0.671874 0.773379
O O11 0.235093 0.542931 0.750650
O O12 0.578313 0.279019 0.812073
O O13 0.593100 0.234259 0.071658
O O14 0.000000 0.803727 0.250000
#
# Coordination Sequence:
#
# PCOD9456484 Si02
#       7
#     8   8   8   8   8   4   8
#     4  10  21  43  61  88 128 166 215 259 317 380
#     4  12  23  37  59  97 132 165 201 259 321 390
#     4  10  24  40  64  91 125 167 215 252 319 388
#     4  10  23  40  60  91 122 175 207 256 320 385
#     4  10  24  41  64  92 124 163 214 269 312 378
#     4  12  24  38  64  90 144 162 210 264 326 388
#     4  12  23  39  64  92 127 169 211 260 323 384
#
# _framework density 20.169457999999999
#
# number of rings (size 3 to 8) (size 9 to 14) (size 15 to 20)
#    0.000    1.231    4.615    0.000    8.615    1.231 
#    0.000    0.000    1.692    1.846    0.000    0.000 
#    0.000    0.000    0.000    0.000    0.000    0.000 
#
# Total GULP energy -289890.114076 kJ/mol
# GULP energy per Si atom -5574.809886 kJ/mol
# Density = 2.012355 g / cm^3
# Si number density = 20.169458 Si / 1000 Ang^3
#
#
#
# Elastic Constant Matrix: (Units=GPa)
#
#
# Indices 1 2 3 4 5 6 
#
# 1 16.4238 -12.1166 5.5118 0.0000 0.0000 0.0000
# 2 -12.1166 43.8298 -5.6775 0.0000 0.0000 0.0000
# 3 5.5118 -5.6775 78.2946 0.0000 0.0000 0.0000
# 4 0.0000 0.0000 0.0000 15.0319 0.0000 0.0000
# 5 0.0000 0.0000 0.0000 0.0000 26.4060 0.0000
# 6 0.0000 0.0000 0.0000 0.0000 0.0000 19.0345
#
#
#
# Elastic Compliance Matrix: (Units=1/GPa)
#
#
# Indices 1 2 3 4 5 6 
#
# 1 0.077677 0.020962 -0.003948 0.000000 0.000000 0.000000
# 2 0.020962 0.028689 0.000605 0.000000 0.000000 0.000000
# 3 -0.003948 0.000605 0.013094 0.000000 0.000000 0.000000
# 4 0.000000 0.000000 0.000000 0.066525 0.000000 0.000000
# 5 0.000000 0.000000 0.000000 0.000000 0.037870 0.000000
# 6 0.000000 0.000000 0.000000 0.000000 0.000000 0.052536
#
#
# Mechanical properties :
#
#
# Convention : Reuss Voigt Hill
#
# Bulk Modulus (GPa) = 6.46428 12.66484 9.56456
# Shear Modulus (GPa) = 17.08121 22.14986 19.61554
#
# Velocity S-wave (km/s) = 2.91329 3.31749 3.12194
# Velocity P-wave (km/s) = 3.81160 4.57899 4.21280
#
# Compressibility (1/GPa) = 0.15469622
#
# Stress axis : x y z
#
# Youngs Moduli (GPa) = 12.87388 34.85697 76.37047
#
# Poissons Ratio (x) = -0.73067 0.30153
# Poissons Ratio (y) = -0.26986 -0.04618
# Poissons Ratio (z) = 0.05083 -0.02108
#
# Static dielectric constant tensor:
#      x y z
#    x 1.768430 0.000000 0.000000 
#    y 0.000000 1.668740 0.000000 
#    z 0.000000 0.000000 1.730940 
# 
# From -- ./inp_files/6880.got.cif
#   From: 2010.05.17/outbox.cif.g08.bks.cpg/sg60_4_cif.got.tgz:6880.got - 2010.06.03 14:59:27.
