data_PCOD9456973
_publ_section_title
;
Structure prediction by ZEFSAII (Michael W. Deem and Ramdas Pophale) SiO2 
 PCOD9456973
Probable space group: P B C N
;
_chemical_formula_sum "Si O2"
_cell_formula_units_Z 40
_cell_length_a 9.761728
_cell_length_b 14.327926
_cell_length_c 13.669688
_cell_angle_alpha 90.000000
_cell_angle_beta 90.000000
_cell_angle_gamma 90.000000
_cell_volume 1911.915237
_symmetry_space_group_name_H-M "P B C N"
_symmetry_group_IT_number 60
_symmetry_cell_setting 'orthorhombic'
loop_
_space_group_symop_operation_xyz
x,y,z
1/2-x,1/2-y,1/2+z
1/2+x,1/2-y,-z
-x,y,1/2-z
-x,-y,-z
1/2+x,1/2+y,1/2-z
1/2-x,1/2+y,z
x,-y,1/2+z
loop_
_atom_site_type_symbol
_atom_site_label
_atom_site_fract_x
_atom_site_fract_y
_atom_site_fract_z
Si Si1 0.533278 0.070952 0.365349
Si Si2 0.260382 0.287146 0.676176
Si Si3 0.636534 0.881603 0.447897
Si Si4 0.934406 0.034532 0.903268
Si Si5 0.000000 0.877928 0.750000
Si Si6 0.000000 0.823885 0.250000
O O1 0.500000 0.077593 0.250000
O O2 0.676053 0.128759 0.376698
O O3 0.423385 0.115798 0.441416
O O4 0.546337 0.961123 0.392368
O O5 0.347526 0.220480 0.602225
O O6 0.365166 0.316129 0.762258
O O7 0.136415 0.231432 0.725934
O O8 0.788193 0.923353 0.431858
O O9 0.944302 0.945429 0.833426
O O10 0.020286 0.111865 0.844803
O O11 0.000000 0.000000 0.000000
#
# Coordination Sequence:
#
# PCOD9456973 Si02
#       6
#     8   8   8   8   4   4
#     4  11  24  47  70  96 140 185 227 285 352 417
#     4  11  23  44  66 103 135 182 230 290 341 410
#     4  10  25  45  65 102 136 176 239 278 346 423
#     4  10  22  41  67  94 131 180 221 285 346 402
#     4  11  24  42  63 102 138 170 237 280 345 408
#     4   9  22  42  63  94 138 168 239 274 339 418
#
# _framework density 20.921429
#
# number of rings (size 3 to 8) (size 9 to 14) (size 15 to 20)
#    0.000    1.600    3.000    0.000    4.200    3.200 
#    3.600    0.000    0.000    0.000    0.000    0.000 
#    0.000    0.000    0.000    0.000    0.000    0.000 
#
# Total GULP energy -222760.121491 kJ/mol
# GULP energy per Si atom -5569.003037 kJ/mol
# Density = 2.087381 g / cm^3
# Si number density = 20.921429 Si / 1000 Ang^3
#
#
#
# Elastic Constant Matrix: (Units=GPa)
#
#
# Indices 1 2 3 4 5 6 
#
# 1 71.8755 26.0612 52.0892 0.0000 0.0000 0.0000
# 2 26.0612 75.1404 26.8947 0.0000 0.0000 0.0000
# 3 52.0892 26.8947 113.0810 0.0000 0.0000 0.0000
# 4 0.0000 0.0000 0.0000 -43.9797 0.0000 0.0000
# 5 0.0000 0.0000 0.0000 0.0000 42.5813 0.0000
# 6 0.0000 0.0000 0.0000 0.0000 0.0000 -12.6180
#
#
#
# Elastic Compliance Matrix: (Units=1/GPa)
#
#
# Indices 1 2 3 4 5 6 
#
# 1 0.022143 -0.004404 -0.009152 0.000000 0.000000 0.000000
# 2 -0.004404 0.015423 -0.001639 0.000000 0.000000 0.000000
# 3 -0.009152 -0.001639 0.013449 0.000000 0.000000 0.000000
# 4 0.000000 0.000000 0.000000 -0.022738 0.000000 0.000000
# 5 0.000000 0.000000 0.000000 0.000000 0.023485 0.000000
# 6 0.000000 0.000000 0.000000 0.000000 0.000000 -0.079252
#
#
# Mechanical properties :
#
#
# Convention : Reuss Voigt Hill
#
# Bulk Modulus (GPa) = 48.48974 52.24302 50.36638
# Shear Modulus (GPa) = 511.53434 7.53350 259.53392
#
# Velocity S-wave (km/s) = 15.65354 1.89965 11.14993
# Velocity P-wave (km/s) = 18.70664 5.46231 13.77997
#
# Compressibility (1/GPa) = 0.02062292
#
# Stress axis : x y z
#
# Youngs Moduli (GPa) = 45.16199 64.83966 74.35507
#
# Poissons Ratio (x) = 0.28555 0.68051
# Poissons Ratio (y) = 0.19889 0.12190
# Poissons Ratio (z) = 0.41333 0.10630
#
# Static dielectric constant tensor:
#      x y z
#    x 1.846470 0.000000 0.000000 
#    y 0.000000 2.314230 0.000000 
#    z 0.000000 0.000000 1.722790 
# 
# From -- ./inp_files/14718.got.cif
#   From: 2010.05.17/outbox.cif.g08.bks.cpg/sg60_8_cif.got.tgz:14718.got - 2010.06.03 14:59:27.
