data_PCOD9456280
_publ_section_title
;
Structure prediction by ZEFSAII (Michael W. Deem and Ramdas Pophale) SiO2 
 PCOD9456280
Probable space group: P B C N
;
_chemical_formula_sum "Si O2"
_cell_formula_units_Z 60
_cell_length_a 17.548736
_cell_length_b 8.187344
_cell_length_c 18.123895
_cell_angle_alpha 90.000000
_cell_angle_beta 90.000000
_cell_angle_gamma 90.000000
_cell_volume 2603.996620
_symmetry_space_group_name_H-M "P B C N"
_symmetry_group_IT_number 60
_symmetry_cell_setting 'orthorhombic'
loop_
_space_group_symop_operation_xyz
x,y,z
1/2-x,1/2-y,1/2+z
1/2+x,1/2-y,-z
-x,y,1/2-z
-x,-y,-z
1/2+x,1/2+y,1/2-z
1/2-x,1/2+y,z
x,-y,1/2+z
loop_
_atom_site_type_symbol
_atom_site_label
_atom_site_fract_x
_atom_site_fract_y
_atom_site_fract_z
Si Si1 0.514738 0.861457 0.895123
Si Si2 0.357401 0.198444 0.468625
Si Si3 0.500000 0.646321 0.750000
Si Si4 0.767947 0.015615 0.086529
Si Si5 0.466154 0.770609 0.366123
Si Si6 0.124234 0.866690 0.615313
Si Si7 0.855925 0.093406 0.229298
Si Si8 0.381209 0.318391 0.011530
O O1 0.445765 0.794020 0.945865
O O2 0.517489 0.758612 0.820522
O O3 0.592900 0.836189 0.940427
O O4 0.492196 0.045977 0.879211
O O5 0.320607 0.033987 0.433802
O O6 0.314402 0.351860 0.430816
O O7 0.351902 0.229907 0.556197
O O8 0.577353 0.545143 0.730621
O O9 0.789794 0.057230 0.170094
O O10 0.801389 0.149772 0.028398
O O11 0.543332 0.675966 0.348170
O O12 0.400906 0.748516 0.305248
O O13 0.435965 0.684821 0.440552
O O14 0.175259 0.887181 0.687861
O O15 0.112429 0.029281 0.567199
#
# Coordination Sequence:
#
# PCOD9456280 Si02
#       8
#     8   8   4   8   8   8   8   8
#     4  12  24  38  64 103 130 168 221 290 332 392
#     4  11  25  43  65  90 130 177 230 263 334 407
#     4  12  22  38  66  98 134 168 222 274 346 406
#     4  10  25  42  64  91 128 183 217 272 328 413
#     4  11  22  34  63 100 137 161 208 283 345 383
#     4  11  21  38  67  96 128 172 222 276 325 411
#     4  11  21  41  63  94 133 173 214 266 342 408
#     4  10  21  40  65  92 128 170 224 266 333 399
#
# _framework density 23.041506999999999
#
# number of rings (size 3 to 8) (size 9 to 14) (size 15 to 20)
#    0.000    1.067    5.333    0.800    7.467    0.000 
#    0.000    4.000    0.000    0.000    0.000    0.000 
#    0.000    0.000    0.000    0.000    0.000    0.000 
#
# Total GULP energy -335168.763660 kJ/mol
# GULP energy per Si atom -5586.146061 kJ/mol
# Density = 2.298906 g / cm^3
# Si number density = 23.041507 Si / 1000 Ang^3
#
#
#
# Elastic Constant Matrix: (Units=GPa)
#
#
# Indices 1 2 3 4 5 6 
#
# 1 35.7092 10.8455 12.0342 0.0000 0.0000 0.0000
# 2 10.8455 83.3206 32.5045 0.0000 0.0000 0.0000
# 3 12.0342 32.5045 166.2513 0.0000 0.0000 0.0000
# 4 0.0000 0.0000 0.0000 16.1730 0.0000 0.0000
# 5 0.0000 0.0000 0.0000 0.0000 22.6086 0.0000
# 6 0.0000 0.0000 0.0000 0.0000 0.0000 23.9103
#
#
#
# Elastic Compliance Matrix: (Units=1/GPa)
#
#
# Indices 1 2 3 4 5 6 
#
# 1 0.029498 -0.003255 -0.001499 0.000000 0.000000 0.000000
# 2 -0.003255 0.013352 -0.002375 0.000000 0.000000 0.000000
# 3 -0.001499 -0.002375 0.006588 0.000000 0.000000 0.000000
# 4 0.000000 0.000000 0.000000 0.061832 0.000000 0.000000
# 5 0.000000 0.000000 0.000000 0.000000 0.044231 0.000000
# 6 0.000000 0.000000 0.000000 0.000000 0.000000 0.041823
#
#
# Mechanical properties :
#
#
# Convention : Reuss Voigt Hill
#
# Bulk Modulus (GPa) = 28.42505 44.00549 36.21527
# Shear Modulus (GPa) = 22.39071 27.86484 25.12778
#
# Velocity S-wave (km/s) = 3.12068 3.48132 3.30592
# Velocity P-wave (km/s) = 5.03469 5.94132 5.50669
#
# Compressibility (1/GPa) = 0.03518024
#
# Stress axis : x y z
#
# Youngs Moduli (GPa) = 33.90101 74.89522 151.79552
#
# Poissons Ratio (x) = 0.24377 0.22752
# Poissons Ratio (y) = 0.11034 0.36050
# Poissons Ratio (z) = 0.05081 0.17787
#
# Static dielectric constant tensor:
#      x y z
#    x 1.877340 0.000000 0.000000 
#    y 0.000000 1.919340 0.000000 
#    z 0.000000 0.000000 1.850230 
# 
# From -- ./inp_files/20894.got.cif
#   From: 2010.05.17/outbox.cif.g08.bks.cpg/sg60_11_cif.got.tgz:20894.got - 2010.06.03 14:59:27.
