data_PCOD9456061
_publ_section_title
;
Structure prediction by ZEFSAII (Michael W. Deem and Ramdas Pophale) SiO2 
 PCOD9456061
Probable space group: P B C N
;
_chemical_formula_sum "Si O2"
_cell_formula_units_Z 56
_cell_length_a 18.867827
_cell_length_b 11.993635
_cell_length_c 10.888961
_cell_angle_alpha 90.000000
_cell_angle_beta 90.000000
_cell_angle_gamma 90.000000
_cell_volume 2464.104692
_symmetry_space_group_name_H-M "P B C N"
_symmetry_group_IT_number 60
_symmetry_cell_setting 'orthorhombic'
loop_
_space_group_symop_operation_xyz
x,y,z
1/2-x,1/2-y,1/2+z
1/2+x,1/2-y,-z
-x,y,1/2-z
-x,-y,-z
1/2+x,1/2+y,1/2-z
1/2-x,1/2+y,z
x,-y,1/2+z
loop_
_atom_site_type_symbol
_atom_site_label
_atom_site_fract_x
_atom_site_fract_y
_atom_site_fract_z
Si Si1 0.347463 0.423382 0.716230
Si Si2 0.792540 0.221876 0.059677
Si Si3 0.599649 0.966424 0.597423
Si Si4 0.500000 0.639502 0.250000
Si Si5 0.158596 0.697089 0.586157
Si Si6 0.273231 0.076390 0.789067
Si Si7 0.949533 0.292663 0.016384
Si Si8 0.500000 0.167866 0.250000
O O1 0.318080 0.363763 0.838331
O O2 0.431248 0.438899 0.732740
O O3 0.347113 0.328343 0.611299
O O4 0.290348 0.522037 0.711684
O O5 0.748995 0.320275 0.128556
O O6 0.865992 0.263293 0.003420
O O7 0.737768 0.179686 0.961835
O O8 0.602968 0.866840 0.497551
O O9 0.565467 0.912740 0.717637
O O10 0.681799 0.994213 0.624729
O O11 0.557067 0.075836 0.553087
O O12 0.482889 0.719633 0.369644
O O13 0.161508 0.631576 0.713715
O O14 0.982210 0.272997 0.880032
#
# Coordination Sequence:
#
# PCOD9456061 Si02
#       8
#     8   8   8   4   8   8   8   4
#     4  10  21  38  63  90 124 169 222 268 322 396
#     4   9  21  38  59  89 123 164 214 273 328 379
#     4  11  22  37  57  91 131 171 209 263 340 403
#     4  10  21  44  64  93 132 180 226 269 338 399
#     4  11  22  36  63  92 127 167 213 282 329 389
#     4  10  22  38  61  93 122 168 224 269 326 394
#     4  10  22  38  61  89 130 172 215 271 331 402
#     4  12  23  32  58  91 132 164 204 263 324 411
#
# _framework density 22.726308
#
# number of rings (size 3 to 8) (size 9 to 14) (size 15 to 20)
#    0.000    1.714    1.429    3.429    6.000    0.000 
#    0.000    0.000    0.000   11.143    0.000    0.000 
#    0.000    0.000    0.000    0.000    0.000    0.000 
#
# Total GULP energy -312015.821473 kJ/mol
# GULP energy per Si atom -5571.711098 kJ/mol
# Density = 2.267458 g / cm^3
# Si number density = 22.726308 Si / 1000 Ang^3
#
#
#
# Elastic Constant Matrix: (Units=GPa)
#
#
# Indices 1 2 3 4 5 6 
#
# 1 100.2562 26.4669 14.0575 0.0000 0.0000 0.0000
# 2 26.4669 42.6216 9.6108 0.0000 0.0000 0.0000
# 3 14.0575 9.6108 77.8434 0.0000 0.0000 0.0000
# 4 0.0000 0.0000 0.0000 22.8353 0.0000 0.0000
# 5 0.0000 0.0000 0.0000 0.0000 38.2144 0.0000
# 6 0.0000 0.0000 0.0000 0.0000 0.0000 12.6846
#
#
#
# Elastic Compliance Matrix: (Units=1/GPa)
#
#
# Indices 1 2 3 4 5 6 
#
# 1 0.012055 -0.007195 -0.001289 0.000000 0.000000 0.000000
# 2 -0.007195 0.028429 -0.002211 0.000000 0.000000 0.000000
# 3 -0.001289 -0.002211 0.013352 0.000000 0.000000 0.000000
# 4 0.000000 0.000000 0.000000 0.043792 0.000000 0.000000
# 5 0.000000 0.000000 0.000000 0.000000 0.026168 0.000000
# 6 0.000000 0.000000 0.000000 0.000000 0.000000 0.078836
#
#
# Mechanical properties :
#
#
# Convention : Reuss Voigt Hill
#
# Bulk Modulus (GPa) = 30.81964 35.66574 33.24269
# Shear Modulus (GPa) = 21.29159 26.11927 23.70543
#
# Velocity S-wave (km/s) = 3.06415 3.39381 3.23318
# Velocity P-wave (km/s) = 5.10973 5.57538 5.34763
#
# Compressibility (1/GPa) = 0.03244685
#
# Stress axis : x y z
#
# Youngs Moduli (GPa) = 82.95619 35.17577 74.89561
#
# Poissons Ratio (x) = 0.25309 0.09651
# Poissons Ratio (y) = 0.59687 0.16556
# Poissons Ratio (z) = 0.10690 0.07776
#
# Static dielectric constant tensor:
#      x y z
#    x 1.916100 0.000000 0.000000 
#    y 0.000000 1.895130 0.000000 
#    z 0.000000 0.000000 1.865260 
# 
# From -- ./inp_files/12849.got.cif
#   From: 2010.05.17/outbox.cif.g08.bks.cpg/sg60_7_cif.got.tgz:12849.got - 2010.06.03 14:59:27.
