data_PCOD9456733
_publ_section_title
;
Structure prediction by ZEFSAII (Michael W. Deem and Ramdas Pophale) SiO2 
 PCOD9456733
Probable space group: P B C N
;
_chemical_formula_sum "Si O2"
_cell_formula_units_Z 56
_cell_length_a 14.057597
_cell_length_b 33.497208
_cell_length_c 5.326795
_cell_angle_alpha 90.000000
_cell_angle_beta 90.000000
_cell_angle_gamma 90.000000
_cell_volume 2508.335833
_symmetry_space_group_name_H-M "P B C N"
_symmetry_group_IT_number 60
_symmetry_cell_setting 'orthorhombic'
loop_
_space_group_symop_operation_xyz
x,y,z
1/2-x,1/2-y,1/2+z
1/2+x,1/2-y,-z
-x,y,1/2-z
-x,-y,-z
1/2+x,1/2+y,1/2-z
1/2-x,1/2+y,z
x,-y,1/2+z
loop_
_atom_site_type_symbol
_atom_site_label
_atom_site_fract_x
_atom_site_fract_y
_atom_site_fract_z
Si Si1 0.893031 0.015785 0.493010
Si Si2 0.240546 0.807205 0.042598
Si Si3 0.339669 0.599445 0.149702
Si Si4 0.403296 0.746721 0.194613
Si Si5 0.114381 0.523385 0.724214
Si Si6 0.920806 0.828467 0.070110
Si Si7 0.273394 0.103035 0.633050
O O1 0.899372 0.062453 0.447683
O O2 0.845266 0.005166 0.755051
O O3 0.000000 0.000000 0.500000
O O4 0.327173 0.777031 0.080779
O O5 0.174379 0.816542 0.281840
O O6 0.287123 0.851961 0.014002
O O7 0.166443 0.782624 0.862039
O O8 0.303023 0.588716 0.424974
O O9 0.396423 0.640734 0.148405
O O10 0.264036 0.605360 0.921153
O O11 0.500000 0.771750 0.250000
O O12 0.455642 0.714160 0.019267
O O13 0.144289 0.493270 0.498810
O O14 0.148808 0.568010 0.650492
O O15 0.000000 0.524170 0.750000
O O16 0.000000 0.847132 0.250000
#
# Coordination Sequence:
#
# PCOD9456733 Si02
#       7
#     8   8   8   8   8   8   8
#     4  10  22  39  54  80 121 166 214 262 325 371
#     4  11  24  42  65  98 138 171 227 298 339 428
#     4  11  24  40  63  93 129 177 223 283 327 412
#     4  12  23  42  70  96 131 182 227 281 364 420
#     4  10  22  42  70  99 135 179 228 287 351 426
#     4  11  23  40  65  93 129 176 235 282 349 419
#     4  11  24  42  67  98 133 173 224 280 351 399
#
# _framework density 22.325558999999998
#
# number of rings (size 3 to 8) (size 9 to 14) (size 15 to 20)
#    0.000    1.143    4.286    1.714    2.000    4.000 
#    5.143    0.000    0.000    0.857    0.000    0.000 
#    0.000    0.000    0.000    0.000    0.000    0.000 
#
# Total GULP energy -311750.092638 kJ/mol
# GULP energy per Si atom -5566.965940 kJ/mol
# Density = 2.227474 g / cm^3
# Si number density = 22.325559 Si / 1000 Ang^3
#
#
#
# Elastic Constant Matrix: (Units=GPa)
#
#
# Indices 1 2 3 4 5 6 
#
# 1 105.9910 39.0571 29.5191 0.0000 0.0000 0.0000
# 2 39.0571 137.9564 14.5175 0.0000 0.0000 0.0000
# 3 29.5191 14.5175 103.1705 0.0000 0.0000 0.0000
# 4 0.0000 0.0000 0.0000 30.5716 0.0000 0.0000
# 5 0.0000 0.0000 0.0000 0.0000 30.9776 0.0000
# 6 0.0000 0.0000 0.0000 0.0000 0.0000 -4.5086
#
#
#
# Elastic Compliance Matrix: (Units=1/GPa)
#
#
# Indices 1 2 3 4 5 6 
#
# 1 0.011289 -0.002899 -0.002822 0.000000 0.000000 0.000000
# 2 -0.002899 0.008102 -0.000311 0.000000 0.000000 0.000000
# 3 -0.002822 -0.000311 0.010544 0.000000 0.000000 0.000000
# 4 0.000000 0.000000 0.000000 0.032710 0.000000 0.000000
# 5 0.000000 0.000000 0.000000 0.000000 0.032281 0.000000
# 6 0.000000 0.000000 0.000000 0.000000 0.000000 -0.221801
#
#
# Mechanical properties :
#
#
# Convention : Reuss Voigt Hill
#
# Bulk Modulus (GPa) = 55.95503 57.03392 56.49447
# Shear Modulus (GPa) = -45.93327 29.00973 -8.46177
#
# Velocity S-wave (km/s) = -4.54081 3.60862 -1.94895
# Velocity P-wave (km/s) = 1.54088 6.55475 4.50502
#
# Compressibility (1/GPa) = 0.01787149
#
# Stress axis : x y z
#
# Youngs Moduli (GPa) = 88.58167 123.42454 94.84208
#
# Poissons Ratio (x) = 0.35782 0.26765
# Poissons Ratio (y) = 0.25681 0.02946
# Poissons Ratio (z) = 0.24998 0.03834
#
# Static dielectric constant tensor:
#      x y z
#    x 1.874410 0.000000 0.000000 
#    y 0.000000 1.858860 0.000000 
#    z 0.000000 0.000000 2.376900 
# 
# From -- ./inp_files/1492.got.cif
#   From: 2010.05.17/outbox.cif.g08.bks.cpg/sg60_1_cif.got.tgz:1492.got - 2010.06.03 14:59:27.
