data_PCOD9456192
_publ_section_title
;
Structure prediction by ZEFSAII (Michael W. Deem and Ramdas Pophale) SiO2 
 PCOD9456192
Probable space group: P B C N
;
_chemical_formula_sum "Si O2"
_cell_formula_units_Z 36
_cell_length_a 6.855412
_cell_length_b 12.226689
_cell_length_c 20.787513
_cell_angle_alpha 90.000000
_cell_angle_beta 90.000000
_cell_angle_gamma 90.000000
_cell_volume 1742.388354
_symmetry_space_group_name_H-M "P B C N"
_symmetry_group_IT_number 60
_symmetry_cell_setting 'orthorhombic'
loop_
_space_group_symop_operation_xyz
x,y,z
1/2-x,1/2-y,1/2+z
1/2+x,1/2-y,-z
-x,y,1/2-z
-x,-y,-z
1/2+x,1/2+y,1/2-z
1/2-x,1/2+y,z
x,-y,1/2+z
loop_
_atom_site_type_symbol
_atom_site_label
_atom_site_fract_x
_atom_site_fract_y
_atom_site_fract_z
Si Si1 0.331459 0.390052 0.063752
Si Si2 0.000000 0.659742 0.750000
Si Si3 0.391493 0.401467 0.918380
Si Si4 0.000882 0.507229 0.137494
Si Si5 0.733683 0.705763 0.340169
O O1 0.493274 0.483212 0.075265
O O2 0.124407 0.448036 0.080745
O O3 0.346092 0.289356 0.112818
O O4 0.353343 0.355460 0.989859
O O5 0.947131 0.583273 0.689996
O O6 0.176781 0.734485 0.725403
O O7 0.531477 0.324674 0.876499
O O8 0.186254 0.429138 0.886944
O O9 0.147765 0.595008 0.168595
#
# Coordination Sequence:
#
# PCOD9456192 Si02
#       5
#     8   4   8   8   8
#     4   9  21  41  59  96 129 151 203 261 312 382
#     4  10  24  44  58  90 128 164 214 262 302 364
#     4  10  21  39  66  91 123 165 199 254 324 374
#     4  10  22  41  63  90 123 167 210 254 311 377
#     4  10  23  40  63  94 124 161 211 257 309 379
#
# _framework density 20.661294000000002
#
# number of rings (size 3 to 8) (size 9 to 14) (size 15 to 20)
#    0.000    2.222    0.000    0.667    6.222    3.556 
#    4.000    2.222    0.000    0.000    0.000    0.000 
#    0.000    0.000    0.000    0.000    0.000    0.000 
#
# Total GULP energy -201150.192909 kJ/mol
# GULP energy per Si atom -5587.505359 kJ/mol
# Density = 2.061427 g / cm^3
# Si number density = 20.661294 Si / 1000 Ang^3
#
#
#
# Elastic Constant Matrix: (Units=GPa)
#
#
# Indices 1 2 3 4 5 6 
#
# 1 70.7007 16.3875 44.7934 0.0000 0.0000 0.0000
# 2 16.3875 79.7714 32.4240 0.0000 0.0000 0.0000
# 3 44.7934 32.4240 86.2144 0.0000 0.0000 0.0000
# 4 0.0000 0.0000 0.0000 8.2359 0.0000 0.0000
# 5 0.0000 0.0000 0.0000 0.0000 17.6398 0.0000
# 6 0.0000 0.0000 0.0000 0.0000 0.0000 4.5108
#
#
#
# Elastic Compliance Matrix: (Units=1/GPa)
#
#
# Indices 1 2 3 4 5 6 
#
# 1 0.021086 0.000143 -0.011009 0.000000 0.000000 0.000000
# 2 0.000143 0.014799 -0.005640 0.000000 0.000000 0.000000
# 3 -0.011009 -0.005640 0.019440 0.000000 0.000000 0.000000
# 4 0.000000 0.000000 0.000000 0.121420 0.000000 0.000000
# 5 0.000000 0.000000 0.000000 0.000000 0.056690 0.000000
# 6 0.000000 0.000000 0.000000 0.000000 0.000000 0.221690
#
#
# Mechanical properties :
#
#
# Convention : Reuss Voigt Hill
#
# Bulk Modulus (GPa) = 44.81756 47.09960 45.95858
# Shear Modulus (GPa) = 10.08929 15.61607 12.85268
#
# Velocity S-wave (km/s) = 2.21219 2.75219 2.49683
# Velocity P-wave (km/s) = 5.31636 5.73977 5.53212
#
# Compressibility (1/GPa) = 0.02231268
#
# Stress axis : x y z
#
# Youngs Moduli (GPa) = 47.42482 67.57277 51.44021
#
# Poissons Ratio (x) = -0.00967 0.56632
# Poissons Ratio (y) = -0.00679 0.29012
# Poissons Ratio (z) = 0.52211 0.38111
#
# Static dielectric constant tensor:
#      x y z
#    x 1.715680 0.000000 0.000000 
#    y 0.000000 1.719780 0.000000 
#    z 0.000000 0.000000 1.722630 
# 
# From -- ./inp_files/23458.got.cif
#   From: 2010.05.17/outbox.cif.g08.bks.cpg/sg60_12_cif.got.tgz:23458.got - 2010.06.03 14:59:27.
