data_PCOD9456647
_publ_section_title
;
Structure prediction by ZEFSAII (Michael W. Deem and Ramdas Pophale) SiO2 
 PCOD9456647
Probable space group: P B C N
;
_chemical_formula_sum "Si O2"
_cell_formula_units_Z 52
_cell_length_a 14.008451
_cell_length_b 8.988892
_cell_length_c 15.671357
_cell_angle_alpha 90.000000
_cell_angle_beta 90.000000
_cell_angle_gamma 90.000000
_cell_volume 1973.344375
_symmetry_space_group_name_H-M "P B C N"
_symmetry_group_IT_number 60
_symmetry_cell_setting 'orthorhombic'
loop_
_space_group_symop_operation_xyz
x,y,z
1/2-x,1/2-y,1/2+z
1/2+x,1/2-y,-z
-x,y,1/2-z
-x,-y,-z
1/2+x,1/2+y,1/2-z
1/2-x,1/2+y,z
x,-y,1/2+z
loop_
_atom_site_type_symbol
_atom_site_label
_atom_site_fract_x
_atom_site_fract_y
_atom_site_fract_z
Si Si1 0.706835 0.130128 0.980493
Si Si2 0.868433 0.677970 0.504560
Si Si3 0.043712 0.153631 0.037421
Si Si4 0.000000 0.516817 0.750000
Si Si5 0.560187 0.500474 0.676952
Si Si6 0.633705 0.207688 0.157269
Si Si7 0.171546 0.725342 0.792495
O O1 0.815924 0.175396 0.966284
O O2 0.691052 0.127544 0.082650
O O3 0.666361 0.969700 0.956196
O O4 0.647800 0.276047 0.953241
O O5 0.842078 0.679255 0.606499
O O6 0.980230 0.708627 0.502164
O O7 0.007604 0.119340 0.133378
O O8 0.000000 0.000000 0.000000
O O9 0.047794 0.399061 0.815935
O O10 0.095124 0.623167 0.740600
O O11 0.500000 0.579711 0.750000
O O12 0.597624 0.634769 0.619434
O O13 0.642762 0.397951 0.713137
O O14 0.714139 0.266516 0.224529
#
# Coordination Sequence:
#
# PCOD9456647 Si02
#       7
#     8   8   8   4   8   8   8
#     4  11  21  39  62  94 125 160 221 273 324 387
#     4  10  22  37  64  95 124 167 216 274 322 392
#     4  11  22  38  65  92 125 164 212 264 321 388
#     4  12  20  38  64  94 130 172 224 286 328 396
#     4  11  22  40  62  89 127 166 208 266 328 388
#     4  11  22  36  65  93 123 170 228 270 327 395
#     4  10  22  37  62  94 126 167 229 270 325 392
#
# _framework density 26.351203999999999
#
# number of rings (size 3 to 8) (size 9 to 14) (size 15 to 20)
#    0.000    1.231    4.615    2.308    8.615    0.000 
#    0.000    0.000   13.538    0.000    0.000    0.000 
#    0.000    0.000    0.000    0.000    0.000    0.000 
#
# Total GULP energy -289606.747458 kJ/mol
# GULP energy per Si atom -5569.360528 kJ/mol
# Density = 2.629123 g / cm^3
# Si number density = 26.351204 Si / 1000 Ang^3
#
#
#
# Elastic Constant Matrix: (Units=GPa)
#
#
# Indices 1 2 3 4 5 6 
#
# 1 88.4447 7.0595 -1.9356 0.0000 0.0000 0.0000
# 2 7.0595 150.1038 -1.7615 0.0000 0.0000 0.0000
# 3 -1.9356 -1.7615 7.7212 0.0000 0.0000 0.0000
# 4 0.0000 0.0000 0.0000 20.0208 0.0000 0.0000
# 5 0.0000 0.0000 0.0000 0.0000 23.6262 0.0000
# 6 0.0000 0.0000 0.0000 0.0000 0.0000 39.5992
#
#
#
# Elastic Compliance Matrix: (Units=1/GPa)
#
#
# Indices 1 2 3 4 5 6 
#
# 1 0.011407 -0.000504 0.002745 0.000000 0.000000 0.000000
# 2 -0.000504 0.006702 0.001403 0.000000 0.000000 0.000000
# 3 0.002745 0.001403 0.130522 0.000000 0.000000 0.000000
# 4 0.000000 0.000000 0.000000 0.049948 0.000000 0.000000
# 5 0.000000 0.000000 0.000000 0.000000 0.042326 0.000000
# 6 0.000000 0.000000 0.000000 0.000000 0.000000 0.025253
#
#
# Mechanical properties :
#
#
# Convention : Reuss Voigt Hill
#
# Bulk Modulus (GPa) = 6.41368 28.11048 17.26208
# Shear Modulus (GPa) = 16.08522 32.84306 24.46414
#
# Velocity S-wave (km/s) = 2.47334 3.53421 3.05025
# Velocity P-wave (km/s) = 3.25511 5.22924 4.35550
#
# Compressibility (1/GPa) = 0.15591669
#
# Stress axis : x y z
#
# Youngs Moduli (GPa) = 87.66691 149.20400 7.66155
#
# Poissons Ratio (x) = 0.07524 -0.02103
# Poissons Ratio (y) = 0.04421 -0.01075
# Poissons Ratio (z) = -0.24060 -0.20928
#
# Static dielectric constant tensor:
#      x y z
#    x 2.164720 0.000000 0.000000 
#    y 0.000000 2.021170 0.000000 
#    z 0.000000 0.000000 2.421870 
# 
# From -- ./inp_files/22875.got.cif
#   From: 2010.05.17/outbox.cif.g08.bks.cpg/sg60_12_cif.got.tgz:22875.got - 2010.06.03 14:59:27.
