data_PCOD9456379
_publ_section_title
;
Structure prediction by ZEFSAII (Michael W. Deem and Ramdas Pophale) SiO2 
 PCOD9456379
Probable space group: P B C N
;
_chemical_formula_sum "Si O2"
_cell_formula_units_Z 60
_cell_length_a 29.487559
_cell_length_b 8.947960
_cell_length_c 11.583447
_cell_angle_alpha 90.000000
_cell_angle_beta 90.000000
_cell_angle_gamma 90.000000
_cell_volume 3056.333015
_symmetry_space_group_name_H-M "P B C N"
_symmetry_group_IT_number 60
_symmetry_cell_setting 'orthorhombic'
loop_
_space_group_symop_operation_xyz
x,y,z
1/2-x,1/2-y,1/2+z
1/2+x,1/2-y,-z
-x,y,1/2-z
-x,-y,-z
1/2+x,1/2+y,1/2-z
1/2-x,1/2+y,z
x,-y,1/2+z
loop_
_atom_site_type_symbol
_atom_site_label
_atom_site_fract_x
_atom_site_fract_y
_atom_site_fract_z
Si Si1 0.250599 0.036350 0.714841
Si Si2 0.596665 0.675627 0.407530
Si Si3 0.801524 0.202259 0.406704
Si Si4 0.042917 0.099396 0.527388
Si Si5 0.688692 0.221070 0.171914
Si Si6 0.048315 0.314995 0.307520
Si Si7 0.500000 0.736930 0.750000
Si Si8 0.087933 0.626761 0.368146
O O1 0.283532 0.164842 0.671674
O O2 0.208741 0.127077 0.771908
O O3 0.230775 0.939082 0.610034
O O4 0.279964 0.918074 0.788436
O O5 0.648134 0.663044 0.369427
O O6 0.583507 0.519989 0.468854
O O7 0.567577 0.710009 0.294113
O O8 0.590999 0.812195 0.499630
O O9 0.804121 0.256987 0.536639
O O10 0.044332 0.223530 0.427335
O O11 0.031703 0.157172 0.655066
O O12 0.000000 0.000000 0.500000
O O13 0.634795 0.187941 0.189683
O O14 0.082108 0.451333 0.339134
O O15 0.000000 0.365747 0.250000
O O16 0.460929 0.816158 0.824421
#
# Coordination Sequence:
#
# PCOD9456379 Si02
#       8
#     8   8   8   8   8   8   4   8
#     4  10  21  41  66  91 124 165 206 264 333 373
#     4  11  25  42  62  94 131 164 223 262 315 389
#     4  10  22  40  64  93 124 163 207 265 319 386
#     4  12  24  41  64  91 125 175 213 263 316 368
#     4  10  22  41  64  93 128 161 213 264 318 392
#     4  12  24  41  66  90 130 173 215 262 318 376
#     4  12  24  40  64  88 134 168 220 260 316 378
#     4  11  25  41  63  95 129 173 211 265 321 381
#
# _framework density 19.631368999999999
#
# number of rings (size 3 to 8) (size 9 to 14) (size 15 to 20)
#    0.000    1.067    3.333    2.400    3.733    2.133 
#    0.000    1.333    0.000    0.000    0.000    0.000 
#    0.000    0.000    0.000    0.000    0.000    0.000 
#
# Total GULP energy -334353.226116 kJ/mol
# GULP energy per Si atom -5572.553769 kJ/mol
# Density = 1.958669 g / cm^3
# Si number density = 19.631369 Si / 1000 Ang^3
#
#
#
# Elastic Constant Matrix: (Units=GPa)
#
#
# Indices 1 2 3 4 5 6 
#
# 1 119.8778 30.1618 11.0844 0.0000 0.0000 0.0000
# 2 30.1618 71.8866 16.0795 0.0000 0.0000 0.0000
# 3 11.0844 16.0795 62.8166 0.0000 0.0000 0.0000
# 4 0.0000 0.0000 0.0000 0.5124 0.0000 0.0000
# 5 0.0000 0.0000 0.0000 0.0000 22.2488 0.0000
# 6 0.0000 0.0000 0.0000 0.0000 0.0000 31.2313
#
#
#
# Elastic Compliance Matrix: (Units=1/GPa)
#
#
# Indices 1 2 3 4 5 6 
#
# 1 0.009354 -0.003771 -0.000685 0.000000 0.000000 0.000000
# 2 -0.003771 0.016276 -0.003501 0.000000 0.000000 0.000000
# 3 -0.000685 -0.003501 0.016936 0.000000 0.000000 0.000000
# 4 0.000000 0.000000 0.000000 1.951469 0.000000 0.000000
# 5 0.000000 0.000000 0.000000 0.000000 0.044946 0.000000
# 6 0.000000 0.000000 0.000000 0.000000 0.000000 0.032019
#
#
# Mechanical properties :
#
#
# Convention : Reuss Voigt Hill
#
# Bulk Modulus (GPa) = 37.52095 41.02583 39.27339
# Shear Modulus (GPa) = 2.38572 23.94886 13.16729
#
# Velocity S-wave (km/s) = 1.10358 3.49654 2.59265
# Velocity P-wave (km/s) = 4.55830 6.10283 5.38621
#
# Compressibility (1/GPa) = 0.02665178
#
# Stress axis : x y z
#
# Youngs Moduli (GPa) = 106.90489 61.43911 59.04451
#
# Poissons Ratio (x) = 0.23172 0.04046
# Poissons Ratio (y) = 0.40319 0.20670
# Poissons Ratio (z) = 0.07325 0.21509
#
# Static dielectric constant tensor:
#      x y z
#    x 1.613950 0.000000 0.000000 
#    y 0.000000 1.681050 0.000000 
#    z 0.000000 0.000000 1.652460 
# 
# From -- ./inp_files/13371.got.cif
#   From: 2010.05.17/outbox.cif.g08.bks.cpg/sg60_7_cif.got.tgz:13371.got - 2010.06.03 14:59:27.
