data_PCOD9456191
_publ_section_title
;
Structure prediction by ZEFSAII (Michael W. Deem and Ramdas Pophale) SiO2 
 PCOD9456191
Probable space group: P B C N
;
_chemical_formula_sum "Si O2"
_cell_formula_units_Z 28
_cell_length_a 7.436589
_cell_length_b 12.267583
_cell_length_c 14.995183
_cell_angle_alpha 90.000000
_cell_angle_beta 90.000000
_cell_angle_gamma 90.000000
_cell_volume 1367.995142
_symmetry_space_group_name_H-M "P B C N"
_symmetry_group_IT_number 60
_symmetry_cell_setting 'orthorhombic'
loop_
_space_group_symop_operation_xyz
x,y,z
1/2-x,1/2-y,1/2+z
1/2+x,1/2-y,-z
-x,y,1/2-z
-x,-y,-z
1/2+x,1/2+y,1/2-z
1/2-x,1/2+y,z
x,-y,1/2+z
loop_
_atom_site_type_symbol
_atom_site_label
_atom_site_fract_x
_atom_site_fract_y
_atom_site_fract_z
Si Si1 0.500000 0.886205 0.250000
Si Si2 0.803956 0.609044 0.464960
Si Si3 0.840951 0.550113 0.129388
Si Si4 0.543875 0.717885 0.101988
O O1 0.456945 0.806469 0.168266
O O2 0.345708 0.963917 0.290184
O O3 0.790589 0.511781 0.537202
O O4 0.610384 0.635579 0.426703
O O5 0.952841 0.583928 0.390168
O O6 0.877169 0.713932 0.519240
O O7 0.708631 0.650605 0.144218
#
# Coordination Sequence:
#
# PCOD9456191 Si02
#       4
#     4   8   8   8
#     4  10  26  40  58  98 132 158 212 252 320 380
#     4  10  21  39  66  89 118 160 219 255 306 373
#     4  10  22  42  61  90 127 160 210 269 301 376
#     4  11  21  42  64  92 122 169 204 260 316 368
#
# _framework density 20.467908999999999
#
# number of rings (size 3 to 8) (size 9 to 14) (size 15 to 20)
#    0.000    1.714    2.857    0.857    4.000    0.000 
#    0.000    2.857    0.000    0.000    0.000    0.000 
#    0.000    0.000    0.000    0.000    0.000    0.000 
#
# Total GULP energy -156327.983724 kJ/mol
# GULP energy per Si atom -5583.142276 kJ/mol
# Density = 2.042132 g / cm^3
# Si number density = 20.467909 Si / 1000 Ang^3
#
#
#
# Elastic Constant Matrix: (Units=GPa)
#
#
# Indices 1 2 3 4 5 6 
#
# 1 56.4977 16.8398 19.3299 0.0000 0.0000 0.0000
# 2 16.8398 71.3197 13.6006 0.0000 0.0000 0.0000
# 3 19.3299 13.6006 54.0646 0.0000 0.0000 0.0000
# 4 0.0000 0.0000 0.0000 18.6302 0.0000 0.0000
# 5 0.0000 0.0000 0.0000 0.0000 8.2189 0.0000
# 6 0.0000 0.0000 0.0000 0.0000 0.0000 22.9872
#
#
#
# Elastic Compliance Matrix: (Units=1/GPa)
#
#
# Indices 1 2 3 4 5 6 
#
# 1 0.021064 -0.003716 -0.006596 0.000000 0.000000 0.000000
# 2 -0.003716 0.015383 -0.002541 0.000000 0.000000 0.000000
# 3 -0.006596 -0.002541 0.021494 0.000000 0.000000 0.000000
# 4 0.000000 0.000000 0.000000 0.053676 0.000000 0.000000
# 5 0.000000 0.000000 0.000000 0.000000 0.121671 0.000000
# 6 0.000000 0.000000 0.000000 0.000000 0.000000 0.043503
#
#
# Mechanical properties :
#
#
# Convention : Reuss Voigt Hill
#
# Bulk Modulus (GPa) = 31.02247 31.26918 31.14582
# Shear Modulus (GPa) = 15.96202 18.77470 17.36836
#
# Velocity S-wave (km/s) = 2.79562 3.03194 2.91617
# Velocity P-wave (km/s) = 5.06065 5.25045 5.15642
#
# Compressibility (1/GPa) = 0.03223470
#
# Stress axis : x y z
#
# Youngs Moduli (GPa) = 47.47389 65.00537 46.52432
#
# Poissons Ratio (x) = 0.24154 0.30689
# Poissons Ratio (y) = 0.17640 0.11824
# Poissons Ratio (z) = 0.31316 0.16520
#
# Static dielectric constant tensor:
#      x y z
#    x 1.679150 0.000000 0.000000 
#    y 0.000000 1.738930 0.000000 
#    z 0.000000 0.000000 1.748250 
# 
# From -- ./inp_files/14233.got.cif
#   From: 2010.05.17/outbox.cif.g08.bks.cpg/sg60_8_cif.got.tgz:14233.got - 2010.06.03 14:59:27.
