data_PCOD9456048
_publ_section_title
;
Structure prediction by ZEFSAII (Michael W. Deem and Ramdas Pophale) SiO2 
 PCOD9456048
Probable space group: P B C N
;
_chemical_formula_sum "Si O2"
_cell_formula_units_Z 56
_cell_length_a 7.945717
_cell_length_b 14.254324
_cell_length_c 22.838899
_cell_angle_alpha 90.000000
_cell_angle_beta 90.000000
_cell_angle_gamma 90.000000
_cell_volume 2586.752532
_symmetry_space_group_name_H-M "P B C N"
_symmetry_group_IT_number 60
_symmetry_cell_setting 'orthorhombic'
loop_
_space_group_symop_operation_xyz
x,y,z
1/2-x,1/2-y,1/2+z
1/2+x,1/2-y,-z
-x,y,1/2-z
-x,-y,-z
1/2+x,1/2+y,1/2-z
1/2-x,1/2+y,z
x,-y,1/2+z
loop_
_atom_site_type_symbol
_atom_site_label
_atom_site_fract_x
_atom_site_fract_y
_atom_site_fract_z
Si Si1 0.691884 0.457868 0.773745
Si Si2 0.513574 0.102099 0.569719
Si Si3 0.293342 0.915964 0.545027
Si Si4 0.948607 0.972330 0.392515
Si Si5 0.783087 0.781860 0.398700
Si Si6 0.799400 0.259476 0.263359
Si Si7 0.235283 0.587369 0.821793
O O1 0.500000 0.469060 0.750000
O O2 0.677002 0.493446 0.839969
O O3 0.739052 0.350690 0.764168
O O4 0.805530 0.521847 0.732989
O O5 0.660248 0.107118 0.521770
O O6 0.382653 0.187417 0.565152
O O7 0.585908 0.107539 0.634578
O O8 0.413594 0.004424 0.560840
O O9 0.329700 0.822964 0.582843
O O10 0.104557 0.953956 0.557628
O O11 0.911947 0.865937 0.411433
O O12 0.129540 0.967110 0.362267
O O13 0.746462 0.789574 0.329188
O O14 0.706764 0.317932 0.211998
O O15 0.000000 0.269784 0.250000
#
# Coordination Sequence:
#
# PCOD9456048 Si02
#       7
#     8   8   8   8   8   8   8
#     4   9  19  34  55  88 124 161 199 251 315 382
#     4  10  24  43  65  92 126 170 222 265 317 395
#     4  10  23  45  64  87 126 176 219 264 325 381
#     4  10  21  38  62  92 127 166 210 266 320 379
#     4  11  21  39  66  90 126 171 211 266 328 381
#     4  11  20  35  61  92 126 169 206 259 327 384
#     4  11  22  37  61  96 129 161 213 266 318 389
#
# _framework density 21.648764
#
# number of rings (size 3 to 8) (size 9 to 14) (size 15 to 20)
#    0.000    1.714    4.286    0.000    0.000    2.857 
#    0.000    5.714    0.000    0.000    0.000    0.000 
#    0.000    0.000    0.000    0.000    0.000    0.000 
#
# Total GULP energy -312391.345822 kJ/mol
# GULP energy per Si atom -5578.416890 kJ/mol
# Density = 2.159949 g / cm^3
# Si number density = 21.648764 Si / 1000 Ang^3
#
#
#
# Elastic Constant Matrix: (Units=GPa)
#
#
# Indices 1 2 3 4 5 6 
#
# 1 29.9186 -3.6478 13.1507 0.0000 0.0000 0.0000
# 2 -3.6478 79.7457 10.8594 0.0000 0.0000 0.0000
# 3 13.1507 10.8594 77.6289 0.0000 0.0000 0.0000
# 4 0.0000 0.0000 0.0000 20.3635 0.0000 0.0000
# 5 0.0000 0.0000 0.0000 0.0000 22.1563 0.0000
# 6 0.0000 0.0000 0.0000 0.0000 0.0000 13.1775
#
#
#
# Elastic Compliance Matrix: (Units=1/GPa)
#
#
# Indices 1 2 3 4 5 6 
#
# 1 0.036622 0.002569 -0.006563 0.000000 0.000000 0.000000
# 2 0.002569 0.012964 -0.002249 0.000000 0.000000 0.000000
# 3 -0.006563 -0.002249 0.014308 0.000000 0.000000 0.000000
# 4 0.000000 0.000000 0.000000 0.049108 0.000000 0.000000
# 5 0.000000 0.000000 0.000000 0.000000 0.045134 0.000000
# 6 0.000000 0.000000 0.000000 0.000000 0.000000 0.075887
#
#
# Mechanical properties :
#
#
# Convention : Reuss Voigt Hill
#
# Bulk Modulus (GPa) = 19.45227 25.33532 22.39380
# Shear Modulus (GPa) = 18.96495 22.26818 20.61656
#
# Velocity S-wave (km/s) = 2.96299 3.21068 3.08932
# Velocity P-wave (km/s) = 4.55090 5.04707 4.80539
#
# Compressibility (1/GPa) = 0.05140788
#
# Stress axis : x y z
#
# Youngs Moduli (GPa) = 27.30590 77.13917 69.88984
#
# Poissons Ratio (x) = -0.19817 0.45871
# Poissons Ratio (y) = -0.07015 0.15716
# Poissons Ratio (z) = 0.17922 0.17346
#
# Static dielectric constant tensor:
#      x y z
#    x 1.833800 0.000000 0.000000 
#    y 0.000000 1.770800 0.000000 
#    z 0.000000 0.000000 1.797460 
# 
# From -- ./inp_files/22193.got.cif
#   From: 2010.05.17/outbox.cif.g08.bks.cpg/sg60_12_cif.got.tgz:22193.got - 2010.06.03 14:59:27.
