data_PCOD9456482
_publ_section_title
;
Structure prediction by ZEFSAII (Michael W. Deem and Ramdas Pophale) SiO2 
 PCOD9456482
Probable space group: P B C N
;
_chemical_formula_sum "Si O2"
_cell_formula_units_Z 60
_cell_length_a 27.128511
_cell_length_b 8.093904
_cell_length_c 10.897806
_cell_angle_alpha 90.000000
_cell_angle_beta 90.000000
_cell_angle_gamma 90.000000
_cell_volume 2392.891896
_symmetry_space_group_name_H-M "P B C N"
_symmetry_group_IT_number 60
_symmetry_cell_setting 'orthorhombic'
loop_
_space_group_symop_operation_xyz
x,y,z
1/2-x,1/2-y,1/2+z
1/2+x,1/2-y,-z
-x,y,1/2-z
-x,-y,-z
1/2+x,1/2+y,1/2-z
1/2-x,1/2+y,z
x,-y,1/2+z
loop_
_atom_site_type_symbol
_atom_site_label
_atom_site_fract_x
_atom_site_fract_y
_atom_site_fract_z
Si Si1 0.500000 0.021921 0.750000
Si Si2 0.145287 0.132926 0.024528
Si Si3 0.028425 0.018101 0.873074
Si Si4 0.275586 0.464352 0.708887
Si Si5 0.335833 0.717246 0.404019
Si Si6 0.580984 0.244046 0.765393
Si Si7 0.322465 0.176607 0.171496
Si Si8 0.407773 0.167107 0.353934
O O1 0.540931 0.934557 0.661983
O O2 0.540879 0.125573 0.827436
O O3 0.199270 0.119998 0.088786
O O4 0.106692 0.134948 0.138277
O O5 0.135256 0.309996 0.957790
O O6 0.142280 0.958280 0.953228
O O7 0.070246 0.152886 0.882436
O O8 0.000000 0.074110 0.750000
O O9 0.048922 0.842251 0.833094
O O10 0.000000 0.000000 0.000000
O O11 0.291733 0.348752 0.821276
O O12 0.216933 0.462594 0.705746
O O13 0.300257 0.645540 0.716035
O O14 0.374056 0.818645 0.318629
O O15 0.323854 0.815074 0.525302
O O16 0.376709 0.159798 0.228389
#
# Coordination Sequence:
#
# PCOD9456482 Si02
#       8
#     4   8   8   8   8   8   8   8
#     4  12  30  46  62 108 152 190 234 304 378 422
#     4  10  21  45  74  99 131 186 243 296 343 438
#     4  12  24  42  76 102 131 191 255 297 341 428
#     4  10  23  43  73 105 139 174 236 293 364 432
#     4  10  21  42  74 101 135 181 237 296 347 430
#     4  11  24  45  68 102 141 182 239 295 362 426
#     4  11  25  43  71 103 137 185 231 291 368 431
#     4  12  25  48  69 100 145 191 244 293 357 438
#
# _framework density 25.074261
#
# number of rings (size 3 to 8) (size 9 to 14) (size 15 to 20)
#    0.000    1.067    4.000    2.400    3.733    2.667 
#    4.800    0.000    0.000    0.000    0.000    0.000 
#    0.000    0.000    0.000    0.000    0.000    0.000 
#
# Total GULP energy -334669.547696 kJ/mol
# GULP energy per Si atom -5577.825795 kJ/mol
# Density = 2.501719 g / cm^3
# Si number density = 25.074261 Si / 1000 Ang^3
#
#
#
# Elastic Constant Matrix: (Units=GPa)
#
#
# Indices 1 2 3 4 5 6 
#
# 1 133.5593 35.6558 31.8820 0.0000 0.0000 0.0000
# 2 35.6558 56.3411 8.4920 0.0000 0.0000 0.0000
# 3 31.8820 8.4920 94.9672 0.0000 0.0000 0.0000
# 4 0.0000 0.0000 0.0000 18.1426 0.0000 0.0000
# 5 0.0000 0.0000 0.0000 0.0000 13.2421 0.0000
# 6 0.0000 0.0000 0.0000 0.0000 0.0000 45.4381
#
#
#
# Elastic Compliance Matrix: (Units=1/GPa)
#
#
# Indices 1 2 3 4 5 6 
#
# 1 0.009662 -0.005703 -0.002734 0.000000 0.000000 0.000000
# 2 -0.005703 0.021357 0.000005 0.000000 0.000000 0.000000
# 3 -0.002734 0.000005 0.011447 0.000000 0.000000 0.000000
# 4 0.000000 0.000000 0.000000 0.055119 0.000000 0.000000
# 5 0.000000 0.000000 0.000000 0.000000 0.075517 0.000000
# 6 0.000000 0.000000 0.000000 0.000000 0.000000 0.022008
#
#
# Mechanical properties :
#
#
# Convention : Reuss Voigt Hill
#
# Bulk Modulus (GPa) = 39.05765 48.54747 43.80256
# Shear Modulus (GPa) = 22.67484 29.28709 25.98096
#
# Velocity S-wave (km/s) = 3.01043 3.42133 3.22244
# Velocity P-wave (km/s) = 5.26253 5.91700 5.59933
#
# Compressibility (1/GPa) = 0.02560318
#
# Stress axis : x y z
#
# Youngs Moduli (GPa) = 103.49421 46.82223 87.35668
#
# Poissons Ratio (x) = 0.26702 0.23882
# Poissons Ratio (y) = 0.59021 -0.00041
# Poissons Ratio (z) = 0.28294 -0.00022
#
# Static dielectric constant tensor:
#      x y z
#    x 2.099790 0.000000 0.000000 
#    y 0.000000 2.097680 0.000000 
#    z 0.000000 0.000000 1.911150 
# 
# From -- ./inp_files/13307.got.cif
#   From: 2010.05.17/outbox.cif.g08.bks.cpg/sg60_7_cif.got.tgz:13307.got - 2010.06.03 14:59:27.
