data_PCOD9456999
_publ_section_title
;
Structure prediction by ZEFSAII (Michael W. Deem and Ramdas Pophale) SiO2 
 PCOD9456999
Probable space group: P B C N
;
_chemical_formula_sum "Si O2"
_cell_formula_units_Z 40
_cell_length_a 10.460883
_cell_length_b 17.571401
_cell_length_c 9.439994
_cell_angle_alpha 90.000000
_cell_angle_beta 90.000000
_cell_angle_gamma 90.000000
_cell_volume 1735.187670
_symmetry_space_group_name_H-M "P B C N"
_symmetry_group_IT_number 60
_symmetry_cell_setting 'orthorhombic'
loop_
_space_group_symop_operation_xyz
x,y,z
1/2-x,1/2-y,1/2+z
1/2+x,1/2-y,-z
-x,y,1/2-z
-x,-y,-z
1/2+x,1/2+y,1/2-z
1/2-x,1/2+y,z
x,-y,1/2+z
loop_
_atom_site_type_symbol
_atom_site_label
_atom_site_fract_x
_atom_site_fract_y
_atom_site_fract_z
Si Si1 0.000000 0.752149 0.750000
Si Si2 0.500000 0.130772 0.250000
Si Si3 0.425806 0.623504 0.477143
Si Si4 0.315117 0.990971 0.621962
Si Si5 0.128035 0.646973 0.536572
Si Si6 0.135347 0.040510 0.868401
O O1 0.035893 0.808168 0.876275
O O2 0.101262 0.696963 0.674540
O O3 0.449859 0.171297 0.394203
O O4 0.615688 0.074911 0.292524
O O5 0.279118 0.643001 0.510876
O O6 0.425392 0.542988 0.393599
O O7 0.530391 0.605091 0.598910
O O8 0.407504 0.058910 0.570617
O O9 0.209495 0.032026 0.721390
O O10 0.243203 0.953933 0.489523
#
# Coordination Sequence:
#
# PCOD9456999 Si02
#       6
#     4   4   8   8   8   8
#     4  12  27  46  70  99 150 190 234 280 352 441
#     4  12  23  44  64 103 150 184 230 298 346 419
#     4  10  23  46  67 105 132 180 238 298 352 409
#     4  11  21  41  69 107 139 179 235 301 355 405
#     4  11  27  42  68 104 139 196 236 275 363 426
#     4  10  22  41  78 100 134 175 240 306 358 394
#
# _framework density 23.052261000000001
#
# number of rings (size 3 to 8) (size 9 to 14) (size 15 to 20)
#    0.000    1.200    4.000    2.400    2.800    9.600 
#    0.000    2.000    0.000    0.000    0.000    0.000 
#    0.000    0.000    0.000    0.000    0.000    0.000 
#
# Total GULP energy -223456.679074 kJ/mol
# GULP energy per Si atom -5586.416977 kJ/mol
# Density = 2.299979 g / cm^3
# Si number density = 23.052261 Si / 1000 Ang^3
#
#
#
# Elastic Constant Matrix: (Units=GPa)
#
#
# Indices 1 2 3 4 5 6 
#
# 1 84.9147 34.6276 30.8946 0.0000 0.0000 0.0000
# 2 34.6276 68.5278 8.1431 0.0000 0.0000 0.0000
# 3 30.8946 8.1431 77.0293 0.0000 0.0000 0.0000
# 4 0.0000 0.0000 0.0000 31.8958 0.0000 0.0000
# 5 0.0000 0.0000 0.0000 0.0000 31.6180 0.0000
# 6 0.0000 0.0000 0.0000 0.0000 0.0000 -42.9593
#
#
#
# Elastic Compliance Matrix: (Units=1/GPa)
#
#
# Indices 1 2 3 4 5 6 
#
# 1 0.017245 -0.007992 -0.006072 0.000000 0.000000 0.000000
# 2 -0.007992 0.018483 0.001252 0.000000 0.000000 0.000000
# 3 -0.006072 0.001252 0.015285 0.000000 0.000000 0.000000
# 4 0.000000 0.000000 0.000000 0.031352 0.000000 0.000000
# 5 0.000000 0.000000 0.000000 0.000000 0.031628 0.000000
# 6 0.000000 0.000000 0.000000 0.000000 0.000000 -0.023278
#
#
# Mechanical properties :
#
#
# Convention : Reuss Voigt Hill
#
# Bulk Modulus (GPa) = 39.38926 41.97805 40.68365
# Shear Modulus (GPa) = 40.06373 14.56466 27.31420
#
# Velocity S-wave (km/s) = 4.17340 2.51631 3.44595
# Velocity P-wave (km/s) = 6.35193 5.16642 5.78960
#
# Compressibility (1/GPa) = 0.02538763
#
# Stress axis : x y z
#
# Youngs Moduli (GPa) = 57.98852 54.10518 65.42406
#
# Poissons Ratio (x) = 0.43243 0.39723
# Poissons Ratio (y) = 0.46347 -0.08189
# Poissons Ratio (z) = 0.35208 -0.06772
#
# Static dielectric constant tensor:
#      x y z
#    x 1.887850 0.000000 0.000000 
#    y 0.000000 1.878510 0.000000 
#    z 0.000000 0.000000 1.913130 
# 
# From -- ./inp_files/4820.got.cif
#   From: 2010.05.17/outbox.cif.g08.bks.cpg/sg60_3_cif.got.tgz:4820.got - 2010.06.03 14:59:27.
