data_PCOD9456146
_publ_section_title
;
Structure prediction by ZEFSAII (Michael W. Deem and Ramdas Pophale) SiO2 
 PCOD9456146
Probable space group: P B C N
;
_chemical_formula_sum "Si O2"
_cell_formula_units_Z 32
_cell_length_a 8.393841
_cell_length_b 15.305200
_cell_length_c 13.449304
_cell_angle_alpha 90.000000
_cell_angle_beta 90.000000
_cell_angle_gamma 90.000000
_cell_volume 1727.824221
_symmetry_space_group_name_H-M "P B C N"
_symmetry_group_IT_number 60
_symmetry_cell_setting 'orthorhombic'
loop_
_space_group_symop_operation_xyz
x,y,z
1/2-x,1/2-y,1/2+z
1/2+x,1/2-y,-z
-x,y,1/2-z
-x,-y,-z
1/2+x,1/2+y,1/2-z
1/2-x,1/2+y,z
x,-y,1/2+z
loop_
_atom_site_type_symbol
_atom_site_label
_atom_site_fract_x
_atom_site_fract_y
_atom_site_fract_z
Si Si1 0.682357 0.366250 0.219423
Si Si2 0.323339 0.134811 0.566277
Si Si3 0.323112 0.469919 0.471762
Si Si4 0.677143 0.205383 0.535090
O O1 0.500000 0.351483 0.250000
O O2 0.787301 0.376313 0.317302
O O3 0.688632 0.450479 0.146267
O O4 0.747770 0.290842 0.146073
O O5 0.496957 0.173614 0.546070
O O6 0.198623 0.205547 0.523257
O O7 0.294802 0.043787 0.510722
O O8 0.500000 0.500000 0.500000
O O9 0.275780 0.374671 0.514933
#
# Coordination Sequence:
#
# PCOD9456146 Si02
#       4
#     8   8   8   8
#     4  10  21  39  62  91 123 161 207 255 311 369
#     4  12  20  44  62  89 135 154 213 258 310 374
#     4  10  21  39  63  92 123 165 203 255 312 366
#     4  10  24  38  66  93 120 170 202 261 311 371
#
# _framework density 18.520403000000002
#
# number of rings (size 3 to 8) (size 9 to 14) (size 15 to 20)
#    1.500    0.000    2.500    4.500    0.000    0.000 
#    4.500    0.000    0.000    0.000    0.000    0.000 
#    0.000    0.000    0.000    0.000    0.000    0.000 
#
# Total GULP energy -178309.766490 kJ/mol
# GULP energy per Si atom -5572.180203 kJ/mol
# Density = 1.847825 g / cm^3
# Si number density = 18.520403 Si / 1000 Ang^3
#
#
#
# Elastic Constant Matrix: (Units=GPa)
#
#
# Indices 1 2 3 4 5 6 
#
# 1 35.1766 -7.0690 10.6288 0.0000 0.0000 0.0000
# 2 -7.0690 64.0817 35.8831 0.0000 0.0000 0.0000
# 3 10.6288 35.8831 117.1344 0.0000 0.0000 0.0000
# 4 0.0000 0.0000 0.0000 25.7392 0.0000 0.0000
# 5 0.0000 0.0000 0.0000 0.0000 36.0900 0.0000
# 6 0.0000 0.0000 0.0000 0.0000 0.0000 32.1666
#
#
#
# Elastic Compliance Matrix: (Units=1/GPa)
#
#
# Indices 1 2 3 4 5 6 
#
# 1 0.031052 0.006039 -0.004668 0.000000 0.000000 0.000000
# 2 0.006039 0.020011 -0.006678 0.000000 0.000000 0.000000
# 3 -0.004668 -0.006678 0.011007 0.000000 0.000000 0.000000
# 4 0.000000 0.000000 0.000000 0.038851 0.000000 0.000000
# 5 0.000000 0.000000 0.000000 0.000000 0.027709 0.000000
# 6 0.000000 0.000000 0.000000 0.000000 0.000000 0.031088
#
#
# Mechanical properties :
#
#
# Convention : Reuss Voigt Hill
#
# Bulk Modulus (GPa) = 19.43411 32.80872 26.12142
# Shear Modulus (GPa) = 26.66915 30.59580 28.63247
#
# Velocity S-wave (km/s) = 3.79883 4.06890 3.93618
# Velocity P-wave (km/s) = 5.45506 6.31094 5.89854
#
# Compressibility (1/GPa) = 0.05145592
#
# Stress axis : x y z
#
# Youngs Moduli (GPa) = 32.20404 49.97320 90.85515
#
# Poissons Ratio (x) = -0.30180 0.42409
# Poissons Ratio (y) = -0.19448 0.60674
# Poissons Ratio (z) = 0.15032 0.33373
#
# Static dielectric constant tensor:
#      x y z
#    x 1.668360 0.000000 0.000000 
#    y 0.000000 1.624070 0.000000 
#    z 0.000000 0.000000 1.630900 
# 
# From -- ./inp_files/9472.got.cif
#   From: 2010.05.17/outbox.cif.g08.bks.cpg/sg60_5_cif.got.tgz:9472.got - 2010.06.03 14:59:27.
