data_PCOD9456131
_publ_section_title
;
Structure prediction by ZEFSAII (Michael W. Deem and Ramdas Pophale) SiO2 
 PCOD9456131
Probable space group: P B C N
;
_chemical_formula_sum "Si O2"
_cell_formula_units_Z 52
_cell_length_a 25.778383
_cell_length_b 8.915052
_cell_length_c 11.725032
_cell_angle_alpha 90.000000
_cell_angle_beta 90.000000
_cell_angle_gamma 90.000000
_cell_volume 2694.595556
_symmetry_space_group_name_H-M "P B C N"
_symmetry_group_IT_number 60
_symmetry_cell_setting 'orthorhombic'
loop_
_space_group_symop_operation_xyz
x,y,z
1/2-x,1/2-y,1/2+z
1/2+x,1/2-y,-z
-x,y,1/2-z
-x,-y,-z
1/2+x,1/2+y,1/2-z
1/2-x,1/2+y,z
x,-y,1/2+z
loop_
_atom_site_type_symbol
_atom_site_label
_atom_site_fract_x
_atom_site_fract_y
_atom_site_fract_z
Si Si1 0.075681 0.676688 0.677758
Si Si2 0.688215 0.308584 0.553095
Si Si3 0.932236 0.871157 0.593459
Si Si4 0.000000 0.421581 0.750000
Si Si5 0.031064 0.796966 0.446333
Si Si6 0.251750 0.432195 0.571282
Si Si7 0.195039 0.678020 0.700613
O O1 0.062463 0.786817 0.784668
O O2 0.065488 0.752109 0.555657
O O3 0.135397 0.633334 0.691296
O O4 0.040207 0.531027 0.687801
O O5 0.627150 0.347384 0.554029
O O6 0.703900 0.167746 0.473748
O O7 0.721678 0.453082 0.516638
O O8 0.704020 0.251616 0.677498
O O9 0.973232 0.809801 0.500568
O O10 0.948221 0.045231 0.602022
O O11 0.971373 0.321428 0.655544
O O12 0.231667 0.538516 0.672628
O O13 0.293263 0.309755 0.610755
#
# Coordination Sequence:
#
# PCOD9456131 Si02
#       7
#     8   8   8   4   8   8   8
#     4  11  23  42  62  92 127 161 205 253 307 363
#     4  10  21  39  61  90 119 155 203 246 300 356
#     4  10  23  40  65  87 121 166 203 251 299 364
#     4  12  26  38  62  92 124 164 200 256 314 356
#     4  11  24  41  62  88 128 158 210 247 303 369
#     4  10  21  39  61  88 122 158 197 251 301 351
#     4  10  22  38  63  89 121 160 199 248 301 358
#
# _framework density 19.297886999999999
#
# number of rings (size 3 to 8) (size 9 to 14) (size 15 to 20)
#    0.000    1.538    1.538    2.308    6.462    1.231 
#    0.000    1.538    0.000    0.000    0.000    0.000 
#    0.000    0.000    0.000    0.000    0.000    0.000 
#
# Total GULP energy -290339.978470 kJ/mol
# GULP energy per Si atom -5583.461124 kJ/mol
# Density = 1.925396 g / cm^3
# Si number density = 19.297887 Si / 1000 Ang^3
#
#
#
# Elastic Constant Matrix: (Units=GPa)
#
#
# Indices 1 2 3 4 5 6 
#
# 1 54.8636 -0.0810 -3.6851 0.0000 0.0000 0.0000
# 2 -0.0810 61.4088 6.4203 0.0000 0.0000 0.0000
# 3 -3.6851 6.4203 45.4066 0.0000 0.0000 0.0000
# 4 0.0000 0.0000 0.0000 9.3801 0.0000 0.0000
# 5 0.0000 0.0000 0.0000 0.0000 12.4716 0.0000
# 6 0.0000 0.0000 0.0000 0.0000 0.0000 46.3960
#
#
#
# Elastic Compliance Matrix: (Units=1/GPa)
#
#
# Indices 1 2 3 4 5 6 
#
# 1 0.018328 -0.000133 0.001506 0.000000 0.000000 0.000000
# 2 -0.000133 0.016530 -0.002348 0.000000 0.000000 0.000000
# 3 0.001506 -0.002348 0.022477 0.000000 0.000000 0.000000
# 4 0.000000 0.000000 0.000000 0.106609 0.000000 0.000000
# 5 0.000000 0.000000 0.000000 0.000000 0.080182 0.000000
# 6 0.000000 0.000000 0.000000 0.000000 0.000000 0.021554
#
#
# Mechanical properties :
#
#
# Convention : Reuss Voigt Hill
#
# Bulk Modulus (GPa) = 18.05545 18.55418 18.30481
# Shear Modulus (GPa) = 17.47691 24.25117 20.86404
#
# Velocity S-wave (km/s) = 3.01265 3.54881 3.29166
# Velocity P-wave (km/s) = 4.63442 5.14077 4.89415
#
# Compressibility (1/GPa) = 0.05538495
#
# Stress axis : x y z
#
# Youngs Moduli (GPa) = 54.56134 60.49749 44.48901
#
# Poissons Ratio (x) = 0.00807 -0.06701
# Poissons Ratio (y) = 0.00727 0.10446
# Poissons Ratio (z) = -0.08219 0.14205
#
# Static dielectric constant tensor:
#      x y z
#    x 1.658230 0.000000 0.000000 
#    y 0.000000 1.651730 0.000000 
#    z 0.000000 0.000000 1.663760 
# 
# From -- ./inp_files/13254.got.cif
#   From: 2010.05.17/outbox.cif.g08.bks.cpg/sg60_7_cif.got.tgz:13254.got - 2010.06.03 14:59:27.
