data_PCOD9456912
_publ_section_title
;
Structure prediction by ZEFSAII (Michael W. Deem and Ramdas Pophale) SiO2 
 PCOD9456912
Probable space group: P B C N
;
_chemical_formula_sum "Si O2"
_cell_formula_units_Z 32
_cell_length_a 7.034417
_cell_length_b 18.214402
_cell_length_c 10.495500
_cell_angle_alpha 90.000000
_cell_angle_beta 90.000000
_cell_angle_gamma 90.000000
_cell_volume 1344.764266
_symmetry_space_group_name_H-M "P B C N"
_symmetry_group_IT_number 60
_symmetry_cell_setting 'orthorhombic'
loop_
_space_group_symop_operation_xyz
x,y,z
1/2-x,1/2-y,1/2+z
1/2+x,1/2-y,-z
-x,y,1/2-z
-x,-y,-z
1/2+x,1/2+y,1/2-z
1/2-x,1/2+y,z
x,-y,1/2+z
loop_
_atom_site_type_symbol
_atom_site_label
_atom_site_fract_x
_atom_site_fract_y
_atom_site_fract_z
Si Si1 0.639881 0.100525 0.090986
Si Si2 0.535040 0.671581 0.944150
Si Si3 0.213251 0.321628 0.643249
Si Si4 0.386638 0.526448 0.873846
O O1 0.419441 0.117314 0.074787
O O2 0.710892 0.149452 0.212466
O O3 0.770342 0.128942 0.976663
O O4 0.689070 0.016597 0.121503
O O5 0.414054 0.686482 0.073159
O O6 0.598521 0.746119 0.877947
O O7 0.398794 0.614346 0.871066
O O8 0.500000 0.498671 0.750000
O O9 0.500000 0.500000 0.000000
#
# Coordination Sequence:
#
# PCOD9456912 Si02
#       4
#     8   8   8   8
#     4  10  22  41  62  90 132 176 216 271 338 398
#     4  11  22  39  64  95 131 168 224 271 333 394
#     4  11  22  38  67  94 129 170 219 277 337 392
#     4  10  22  41  67  95 130 177 220 273 334 399
#
# _framework density 23.795991999999998
#
# number of rings (size 3 to 8) (size 9 to 14) (size 15 to 20)
#    0.000    1.500    2.500    3.750    3.500    1.000 
#    0.000    2.500    0.000    0.000    0.000    0.000 
#    0.000    0.000    0.000    0.000    0.000    0.000 
#
# Total GULP energy -178739.386151 kJ/mol
# GULP energy per Si atom -5585.605817 kJ/mol
# Density = 2.374183 g / cm^3
# Si number density = 23.795992 Si / 1000 Ang^3
#
#
#
# Elastic Constant Matrix: (Units=GPa)
#
#
# Indices 1 2 3 4 5 6 
#
# 1 76.6785 7.3401 -2.4164 0.0000 0.0000 0.0000
# 2 7.3401 120.6587 3.4262 0.0000 0.0000 0.0000
# 3 -2.4164 3.4262 74.4142 0.0000 0.0000 0.0000
# 4 0.0000 0.0000 0.0000 27.2352 0.0000 0.0000
# 5 0.0000 0.0000 0.0000 0.0000 30.9459 0.0000
# 6 0.0000 0.0000 0.0000 0.0000 0.0000 36.1423
#
#
#
# Elastic Compliance Matrix: (Units=1/GPa)
#
#
# Indices 1 2 3 4 5 6 
#
# 1 0.013134 -0.000812 0.000464 0.000000 0.000000 0.000000
# 2 -0.000812 0.008349 -0.000411 0.000000 0.000000 0.000000
# 3 0.000464 -0.000411 0.013472 0.000000 0.000000 0.000000
# 4 0.000000 0.000000 0.000000 0.036717 0.000000 0.000000
# 5 0.000000 0.000000 0.000000 0.000000 0.032314 0.000000
# 6 0.000000 0.000000 0.000000 0.000000 0.000000 0.027668
#
#
# Mechanical properties :
#
#
# Convention : Reuss Voigt Hill
#
# Bulk Modulus (GPa) = 29.90709 32.05014 30.97861
# Shear Modulus (GPa) = 34.64553 36.42478 35.53516
#
# Velocity S-wave (km/s) = 3.81982 3.91667 3.86855
# Velocity P-wave (km/s) = 5.66128 5.82681 5.74464
#
# Compressibility (1/GPa) = 0.03343689
#
# Stress axis : x y z
#
# Youngs Moduli (GPa) = 76.13931 119.77607 74.22656
#
# Poissons Ratio (x) = 0.09728 -0.03443
# Poissons Ratio (y) = 0.06184 0.03049
# Poissons Ratio (z) = -0.03532 0.04920
#
# Static dielectric constant tensor:
#      x y z
#    x 1.878060 0.000000 0.000000 
#    y 0.000000 1.965860 0.000000 
#    z 0.000000 0.000000 1.913770 
# 
# From -- ./inp_files/9695.got.cif
#   From: 2010.05.17/outbox.cif.g08.bks.cpg/sg60_5_cif.got.tgz:9695.got - 2010.06.03 14:59:27.
