data_PCOD9456317
_publ_section_title
;
Structure prediction by ZEFSAII (Michael W. Deem and Ramdas Pophale) SiO2 
 PCOD9456317
Probable space group: P B C N
;
_chemical_formula_sum "Si O2"
_cell_formula_units_Z 56
_cell_length_a 12.788781
_cell_length_b 15.987809
_cell_length_c 11.710779
_cell_angle_alpha 90.000000
_cell_angle_beta 90.000000
_cell_angle_gamma 90.000000
_cell_volume 2394.439603
_symmetry_space_group_name_H-M "P B C N"
_symmetry_group_IT_number 60
_symmetry_cell_setting 'orthorhombic'
loop_
_space_group_symop_operation_xyz
x,y,z
1/2-x,1/2-y,1/2+z
1/2+x,1/2-y,-z
-x,y,1/2-z
-x,-y,-z
1/2+x,1/2+y,1/2-z
1/2-x,1/2+y,z
x,-y,1/2+z
loop_
_atom_site_type_symbol
_atom_site_label
_atom_site_fract_x
_atom_site_fract_y
_atom_site_fract_z
Si Si1 0.524855 0.243479 0.935952
Si Si2 0.821890 0.255989 0.219761
Si Si3 0.653899 0.995100 0.503655
Si Si4 0.038807 0.092621 0.487766
Si Si5 0.807084 0.930308 0.691494
Si Si6 0.987432 0.393936 0.882588
Si Si7 0.280034 0.593185 0.667629
O O1 0.605369 0.240648 0.832277
O O2 0.405897 0.234247 0.883811
O O3 0.543439 0.333916 0.992693
O O4 0.531928 0.177703 0.037269
O O5 0.765322 0.164280 0.213926
O O6 0.744591 0.335061 0.239840
O O7 0.624939 0.078340 0.433723
O O8 0.751240 0.980443 0.587311
O O9 0.559372 0.974998 0.590261
O O10 0.675378 0.927010 0.404860
O O11 0.080856 0.092987 0.358364
O O12 0.128543 0.116937 0.579111
O O13 0.000000 0.000000 0.500000
O O14 0.809949 0.000726 0.786889
O O15 0.000000 0.375644 0.750000
#
# Coordination Sequence:
#
# PCOD9456317 Si02
#       7
#     8   8   8   8   8   8   8
#     4  10  21  41  64  93 132 172 226 276 345 401
#     4  10  21  40  69  95 128 175 222 282 337 409
#     4  10  22  39  59  95 131 168 216 268 333 408
#     4  10  23  42  60  90 130 174 223 273 326 403
#     4  10  22  41  65  92 129 170 223 276 336 395
#     4  11  22  38  63  96 138 174 212 270 343 412
#     4  11  21  39  65  93 125 169 225 274 334 399
#
# _framework density 23.387519000000001
#
# number of rings (size 3 to 8) (size 9 to 14) (size 15 to 20)
#    0.000    1.714    1.429    2.571    0.000    5.143 
#    5.143    2.857    0.000    0.000    0.000    0.000 
#    0.000    0.000    0.000    0.000    0.000    0.000 
#
# Total GULP energy -312028.184221 kJ/mol
# GULP energy per Si atom -5571.931861 kJ/mol
# Density = 2.333429 g / cm^3
# Si number density = 23.387519 Si / 1000 Ang^3
#
#
#
# Elastic Constant Matrix: (Units=GPa)
#
#
# Indices 1 2 3 4 5 6 
#
# 1 23.5410 11.2787 10.8035 0.0000 0.0000 0.0000
# 2 11.2787 121.5328 47.6731 0.0000 0.0000 0.0000
# 3 10.8035 47.6731 116.8545 0.0000 0.0000 0.0000
# 4 0.0000 0.0000 0.0000 28.1278 0.0000 0.0000
# 5 0.0000 0.0000 0.0000 0.0000 17.0396 0.0000
# 6 0.0000 0.0000 0.0000 0.0000 0.0000 23.7650
#
#
#
# Elastic Compliance Matrix: (Units=1/GPa)
#
#
# Indices 1 2 3 4 5 6 
#
# 1 0.045290 -0.003048 -0.002944 0.000000 0.000000 0.000000
# 2 -0.003048 0.010001 -0.003798 0.000000 0.000000 0.000000
# 3 -0.002944 -0.003798 0.010379 0.000000 0.000000 0.000000
# 4 0.000000 0.000000 0.000000 0.035552 0.000000 0.000000
# 5 0.000000 0.000000 0.000000 0.000000 0.058687 0.000000
# 6 0.000000 0.000000 0.000000 0.000000 0.000000 0.042079
#
#
# Mechanical properties :
#
#
# Convention : Reuss Voigt Hill
#
# Bulk Modulus (GPa) = 21.69657 44.60433 33.15045
# Shear Modulus (GPa) = 21.10305 26.59801 23.85053
#
# Velocity S-wave (km/s) = 3.00712 3.37601 3.19689
# Velocity P-wave (km/s) = 4.62106 5.85746 5.27560
#
# Compressibility (1/GPa) = 0.04609024
#
# Stress axis : x y z
#
# Youngs Moduli (GPa) = 22.07974 99.98920 96.34486
#
# Poissons Ratio (x) = 0.30481 0.28360
# Poissons Ratio (y) = 0.06731 0.36595
# Poissons Ratio (z) = 0.06499 0.37979
#
# Static dielectric constant tensor:
#      x y z
#    x 2.023970 0.000000 0.000000 
#    y 0.000000 1.993810 0.000000 
#    z 0.000000 0.000000 1.903660 
# 
# From -- ./inp_files/11974.got.cif
#   From: 2010.05.17/outbox.cif.g08.bks.cpg/sg60_6_cif.got.tgz:11974.got - 2010.06.03 14:59:27.
