data_PCOD9456745
_publ_section_title
;
Structure prediction by ZEFSAII (Michael W. Deem and Ramdas Pophale) SiO2 
 PCOD9456745
Probable space group: P B C N
;
_chemical_formula_sum "Si O2"
_cell_formula_units_Z 48
_cell_length_a 16.671528
_cell_length_b 16.503072
_cell_length_c 9.592372
_cell_angle_alpha 90.000000
_cell_angle_beta 90.000000
_cell_angle_gamma 90.000000
_cell_volume 2639.162996
_symmetry_space_group_name_H-M "P B C N"
_symmetry_group_IT_number 60
_symmetry_cell_setting 'orthorhombic'
loop_
_space_group_symop_operation_xyz
x,y,z
1/2-x,1/2-y,1/2+z
1/2+x,1/2-y,-z
-x,y,1/2-z
-x,-y,-z
1/2+x,1/2+y,1/2-z
1/2-x,1/2+y,z
x,-y,1/2+z
loop_
_atom_site_type_symbol
_atom_site_label
_atom_site_fract_x
_atom_site_fract_y
_atom_site_fract_z
Si Si1 0.665886 0.835628 0.531818
Si Si2 0.999516 0.581882 0.414442
Si Si3 0.816245 0.130859 0.841616
Si Si4 0.682104 0.646680 0.509327
Si Si5 0.938825 0.981772 0.878825
Si Si6 0.840998 0.679619 0.361004
O O1 0.577932 0.873214 0.527613
O O2 0.734547 0.876812 0.434772
O O3 0.661152 0.741355 0.491285
O O4 0.681355 0.837094 0.698810
O O5 0.922728 0.640638 0.416825
O O6 0.000000 0.561208 0.250000
O O7 0.000000 0.500000 0.500000
O O8 0.808478 0.128941 0.673755
O O9 0.880535 0.060075 0.867634
O O10 0.844944 0.222729 0.876972
O O11 0.618163 0.591891 0.427715
O O12 0.769696 0.638882 0.445263
O O13 0.000000 0.967336 0.750000
O O14 0.000000 0.000000 0.000000
#
# Coordination Sequence:
#
# PCOD9456745 Si02
#       6
#     8   8   8   8   8   8
#     4   9  21  41  65  88 119 164 203 252 304 363
#     4  10  22  39  60  88 118 155 204 248 300 353
#     4  10  22  41  63  89 124 161 202 249 310 363
#     4  10  22  42  62  91 124 159 206 249 308 364
#     4  12  26  41  62  94 125 164 204 253 312 371
#     4   9  21  40  66  87 118 164 203 253 302 363
#
# _framework density 18.187584000000001
#
# number of rings (size 3 to 8) (size 9 to 14) (size 15 to 20)
#    0.000    2.000    1.667    0.000    7.000    2.000 
#    0.000    0.833    0.000    0.000    0.000    0.000 
#    0.000    0.000    0.000    0.000    0.000    0.000 
#
# Total GULP energy -267301.180315 kJ/mol
# GULP energy per Si atom -5568.774590 kJ/mol
# Density = 1.814619 g / cm^3
# Si number density = 18.187584 Si / 1000 Ang^3
#
#
#
# Elastic Constant Matrix: (Units=GPa)
#
#
# Indices 1 2 3 4 5 6 
#
# 1 163.3779 89.6945 94.4927 0.0000 0.0000 0.0000
# 2 89.6945 78.1076 60.3404 0.0000 0.0000 0.0000
# 3 94.4927 60.3404 89.0864 0.0000 0.0000 0.0000
# 4 0.0000 0.0000 0.0000 30.6614 0.0000 0.0000
# 5 0.0000 0.0000 0.0000 0.0000 38.3364 0.0000
# 6 0.0000 0.0000 0.0000 0.0000 0.0000 29.3470
#
#
#
# Elastic Compliance Matrix: (Units=1/GPa)
#
#
# Indices 1 2 3 4 5 6 
#
# 1 0.022015 -0.015189 -0.013063 0.000000 0.000000 0.000000
# 2 -0.015189 0.037334 -0.009177 0.000000 0.000000 0.000000
# 3 -0.013063 -0.009177 0.031296 0.000000 0.000000 0.000000
# 4 0.000000 0.000000 0.000000 0.032614 0.000000 0.000000
# 5 0.000000 0.000000 0.000000 0.000000 0.026085 0.000000
# 6 0.000000 0.000000 0.000000 0.000000 0.000000 0.034075
#
#
# Mechanical properties :
#
#
# Convention : Reuss Voigt Hill
#
# Bulk Modulus (GPa) = 63.33825 91.06966 77.20396
# Shear Modulus (GPa) = 18.97254 25.40524 22.18889
#
# Velocity S-wave (km/s) = 3.23330 3.74149 3.49664
# Velocity P-wave (km/s) = 6.98853 8.29736 7.67091
#
# Compressibility (1/GPa) = 0.01578825
#
# Stress axis : x y z
#
# Youngs Moduli (GPa) = 45.42423 26.78494 31.95305
#
# Poissons Ratio (x) = 0.40684 0.41739
# Poissons Ratio (y) = 0.68996 0.29322
# Poissons Ratio (z) = 0.59336 0.24579
#
# Static dielectric constant tensor:
#      x y z
#    x 1.605140 0.000000 0.000000 
#    y 0.000000 1.640350 0.000000 
#    z 0.000000 0.000000 1.658950 
# 
# From -- ./inp_files/5914.got.cif
#   From: 2010.05.17/outbox.cif.g08.bks.cpg/sg60_3_cif.got.tgz:5914.got - 2010.06.03 14:59:27.
