data_PCOD9456653
_publ_section_title
;
Structure prediction by ZEFSAII (Michael W. Deem and Ramdas Pophale) SiO2 
 PCOD9456653
Probable space group: P B C N
;
_chemical_formula_sum "Si O2"
_cell_formula_units_Z 48
_cell_length_a 23.427824
_cell_length_b 8.475064
_cell_length_c 10.946714
_cell_angle_alpha 90.000000
_cell_angle_beta 90.000000
_cell_angle_gamma 90.000000
_cell_volume 2173.495327
_symmetry_space_group_name_H-M "P B C N"
_symmetry_group_IT_number 60
_symmetry_cell_setting 'orthorhombic'
loop_
_space_group_symop_operation_xyz
x,y,z
1/2-x,1/2-y,1/2+z
1/2+x,1/2-y,-z
-x,y,1/2-z
-x,-y,-z
1/2+x,1/2+y,1/2-z
1/2-x,1/2+y,z
x,-y,1/2+z
loop_
_atom_site_type_symbol
_atom_site_label
_atom_site_fract_x
_atom_site_fract_y
_atom_site_fract_z
Si Si1 0.298618 0.027074 0.847158
Si Si2 0.768217 0.813763 0.809240
Si Si3 0.704891 0.578922 0.968399
Si Si4 0.465478 0.044023 0.623667
Si Si5 0.000672 0.871116 0.889532
Si Si6 0.393188 0.824725 0.489408
O O1 0.296557 0.198633 0.786149
O O2 0.289005 0.891993 0.746958
O O3 0.356865 0.037110 0.921943
O O4 0.239814 0.007143 0.924454
O O5 0.751108 0.703311 0.920208
O O6 0.805501 0.955259 0.860101
O O7 0.649354 0.679962 0.989807
O O8 0.500000 0.022488 0.750000
O O9 0.452246 0.231636 0.609978
O O10 0.500000 0.000000 0.500000
O O11 0.415977 0.913559 0.610502
O O12 0.000000 0.937344 0.750000
O O13 0.056440 0.760207 0.912732
O O14 0.000000 0.000000 0.000000
#
# Coordination Sequence:
#
# PCOD9456653 Si02
#       6
#     8   8   8   8   8   8
#     4  11  21  42  59 100 143 178 236 279 340 440
#     4  10  22  37  64  89 148 187 220 294 326 407
#     4  11  21  41  61 102 141 178 238 281 341 444
#     4   9  21  44  70 100 135 175 241 303 347 430
#     4  10  24  48  68 101 140 176 243 316 350 426
#     4  11  23  42  73 100 135 195 227 291 386 418
#
# _framework density 22.084243000000001
#
# number of rings (size 3 to 8) (size 9 to 14) (size 15 to 20)
#    0.000    1.667    3.333    0.000    0.000    8.000 
#    6.000    0.000    0.000    0.000    0.000    0.000 
#    0.000    0.000    0.000    0.000    0.000    0.000 
#
# Total GULP energy -267286.947940 kJ/mol
# GULP energy per Si atom -5568.478082 kJ/mol
# Density = 2.203398 g / cm^3
# Si number density = 22.084243 Si / 1000 Ang^3
#
#
#
# Elastic Constant Matrix: (Units=GPa)
#
#
# Indices 1 2 3 4 5 6 
#
# 1 40.2690 -5.4455 15.3349 0.0000 0.0000 0.0000
# 2 -5.4455 72.9775 41.4768 0.0000 0.0000 0.0000
# 3 15.3349 41.4768 117.6272 0.0000 0.0000 0.0000
# 4 0.0000 0.0000 0.0000 31.4162 0.0000 0.0000
# 5 0.0000 0.0000 0.0000 0.0000 27.6975 0.0000
# 6 0.0000 0.0000 0.0000 0.0000 0.0000 28.8220
#
#
#
# Elastic Compliance Matrix: (Units=1/GPa)
#
#
# Indices 1 2 3 4 5 6 
#
# 1 0.027585 0.005130 -0.005405 0.000000 0.000000 0.000000
# 2 0.005130 0.018091 -0.007048 0.000000 0.000000 0.000000
# 3 -0.005405 -0.007048 0.011691 0.000000 0.000000 0.000000
# 4 0.000000 0.000000 0.000000 0.031831 0.000000 0.000000
# 5 0.000000 0.000000 0.000000 0.000000 0.036104 0.000000
# 6 0.000000 0.000000 0.000000 0.000000 0.000000 0.034696
#
#
# Mechanical properties :
#
#
# Convention : Reuss Voigt Hill
#
# Bulk Modulus (GPa) = 23.40709 37.06735 30.23722
# Shear Modulus (GPa) = 26.47107 29.55430 28.01269
#
# Velocity S-wave (km/s) = 3.46589 3.66218 3.56539
# Velocity P-wave (km/s) = 5.16126 5.89093 5.53812
#
# Compressibility (1/GPa) = 0.04272210
#
# Stress axis : x y z
#
# Youngs Moduli (GPa) = 36.25138 55.27461 85.53318
#
# Poissons Ratio (x) = -0.28358 0.46233
# Poissons Ratio (y) = -0.18599 0.60285
# Poissons Ratio (z) = 0.19595 0.38958
#
# Static dielectric constant tensor:
#      x y z
#    x 2.119270 0.000000 0.000000 
#    y 0.000000 1.849280 0.000000 
#    z 0.000000 0.000000 1.942960 
# 
# From -- ./inp_files/13051.got.cif
#   From: 2010.05.17/outbox.cif.g08.bks.cpg/sg60_7_cif.got.tgz:13051.got - 2010.06.03 14:59:27.
