data_PCOD9456678
_publ_section_title
;
Structure prediction by ZEFSAII (Michael W. Deem and Ramdas Pophale) SiO2 
 PCOD9456678
Probable space group: P B C N
;
_chemical_formula_sum "Si O2"
_cell_formula_units_Z 52
_cell_length_a 14.787734
_cell_length_b 7.351744
_cell_length_c 20.897012
_cell_angle_alpha 90.000000
_cell_angle_beta 90.000000
_cell_angle_gamma 90.000000
_cell_volume 2271.831923
_symmetry_space_group_name_H-M "P B C N"
_symmetry_group_IT_number 60
_symmetry_cell_setting 'orthorhombic'
loop_
_space_group_symop_operation_xyz
x,y,z
1/2-x,1/2-y,1/2+z
1/2+x,1/2-y,-z
-x,y,1/2-z
-x,-y,-z
1/2+x,1/2+y,1/2-z
1/2-x,1/2+y,z
x,-y,1/2+z
loop_
_atom_site_type_symbol
_atom_site_label
_atom_site_fract_x
_atom_site_fract_y
_atom_site_fract_z
Si Si1 0.864821 0.163154 0.348827
Si Si2 0.503272 0.145903 0.091917
Si Si3 0.498255 0.728406 0.454449
Si Si4 0.133763 0.858588 0.850117
Si Si5 0.500000 0.341903 0.750000
Si Si6 0.837117 0.562956 0.180509
Si Si7 0.337803 0.248276 0.180054
O O1 0.912079 0.161080 0.417664
O O2 0.933760 0.262451 0.299592
O O3 0.764039 0.237096 0.347373
O O4 0.859604 0.961425 0.319739
O O5 0.592187 0.168140 0.135310
O O6 0.413022 0.163957 0.133722
O O7 0.507514 0.941428 0.064629
O O8 0.500367 0.278886 0.030682
O O9 0.411530 0.640629 0.419595
O O10 0.063295 0.947770 0.800405
O O11 0.234638 0.928882 0.845155
O O12 0.136881 0.649300 0.824653
O O13 0.838314 0.649894 0.251149
#
# Coordination Sequence:
#
# PCOD9456678 Si02
#       7
#     8   8   8   8   4   8   8
#     4  11  24  39  64  90 129 161 211 256 315 370
#     4  10  23  41  66  90 129 163 218 252 310 374
#     4   9  22  45  63  91 122 176 205 258 311 367
#     4  10  22  38  64  86 126 159 205 250 314 363
#     4  10  22  38  60  88 122 162 190 262 308 370
#     4  11  23  37  62  95 123 162 201 261 308 376
#     4  12  24  38  63  95 125 165 204 264 312 378
#
# _framework density 22.889018
#
# number of rings (size 3 to 8) (size 9 to 14) (size 15 to 20)
#    0.000    1.538    1.538    2.308    8.615    3.077 
#    0.000    3.077    0.000    0.000    0.000    0.000 
#    0.000    0.000    0.000    0.000    0.000    0.000 
#
# Total GULP energy -290857.455975 kJ/mol
# GULP energy per Si atom -5593.412615 kJ/mol
# Density = 2.283692 g / cm^3
# Si number density = 22.889018 Si / 1000 Ang^3
#
#
#
# Elastic Constant Matrix: (Units=GPa)
#
#
# Indices 1 2 3 4 5 6 
#
# 1 215.1263 12.4601 93.1452 0.0000 0.0000 0.0000
# 2 12.4601 69.5711 21.8786 0.0000 0.0000 0.0000
# 3 93.1452 21.8786 121.3002 0.0000 0.0000 0.0000
# 4 0.0000 0.0000 0.0000 27.4352 0.0000 0.0000
# 5 0.0000 0.0000 0.0000 0.0000 25.3149 0.0000
# 6 0.0000 0.0000 0.0000 0.0000 0.0000 29.9316
#
#
#
# Elastic Compliance Matrix: (Units=1/GPa)
#
#
# Indices 1 2 3 4 5 6 
#
# 1 0.006978 0.000461 -0.005441 0.000000 0.000000 0.000000
# 2 0.000461 0.015269 -0.003108 0.000000 0.000000 0.000000
# 3 -0.005441 -0.003108 0.012983 0.000000 0.000000 0.000000
# 4 0.000000 0.000000 0.000000 0.036450 0.000000 0.000000
# 5 0.000000 0.000000 0.000000 0.000000 0.039502 0.000000
# 6 0.000000 0.000000 0.000000 0.000000 0.000000 0.033410
#
#
# Mechanical properties :
#
#
# Convention : Reuss Voigt Hill
#
# Bulk Modulus (GPa) = 52.48530 73.44060 62.96295
# Shear Modulus (GPa) = 29.91895 35.10391 32.51143
#
# Velocity S-wave (km/s) = 3.61935 3.92044 3.77290
# Velocity P-wave (km/s) = 6.35975 7.25592 6.82256
#
# Compressibility (1/GPa) = 0.01905295
#
# Stress axis : x y z
#
# Youngs Moduli (GPa) = 143.31401 65.49375 77.02387
#
# Poissons Ratio (x) = -0.03022 0.41911
# Poissons Ratio (y) = -0.06614 0.23942
# Poissons Ratio (z) = 0.77982 0.20358
#
# Static dielectric constant tensor:
#      x y z
#    x 1.875380 0.000000 0.000000 
#    y 0.000000 1.954260 0.000000 
#    z 0.000000 0.000000 1.843900 
# 
# From -- ./inp_files/22846.got.cif
#   From: 2010.05.17/outbox.cif.g08.bks.cpg/sg60_12_cif.got.tgz:22846.got - 2010.06.03 14:59:27.
