data_PCOD9456289
_publ_section_title
;
Structure prediction by ZEFSAII (Michael W. Deem and Ramdas Pophale) SiO2 
 PCOD9456289
Probable space group: P B C N
;
_chemical_formula_sum "Si O2"
_cell_formula_units_Z 40
_cell_length_a 10.951222
_cell_length_b 26.904766
_cell_length_c 5.710630
_cell_angle_alpha 90.000000
_cell_angle_beta 90.000000
_cell_angle_gamma 90.000000
_cell_volume 1682.580396
_symmetry_space_group_name_H-M "P B C N"
_symmetry_group_IT_number 60
_symmetry_cell_setting 'orthorhombic'
loop_
_space_group_symop_operation_xyz
x,y,z
1/2-x,1/2-y,1/2+z
1/2+x,1/2-y,-z
-x,y,1/2-z
-x,-y,-z
1/2+x,1/2+y,1/2-z
1/2-x,1/2+y,z
x,-y,1/2+z
loop_
_atom_site_type_symbol
_atom_site_label
_atom_site_fract_x
_atom_site_fract_y
_atom_site_fract_z
Si Si1 0.783415 0.627393 0.815238
Si Si2 0.853738 0.521523 0.716779
Si Si3 0.613127 0.798398 0.584891
Si Si4 0.528670 0.401436 0.509266
Si Si5 0.662789 0.690605 0.433215
O O1 0.817566 0.578579 0.674348
O O2 0.742051 0.673697 0.656941
O O3 0.897287 0.649610 0.950681
O O4 0.670032 0.612591 0.982002
O O5 0.809098 0.493448 0.480572
O O6 0.000000 0.515972 0.750000
O O7 0.500000 0.794800 0.750000
O O8 0.612172 0.745871 0.454336
O O9 0.741913 0.804972 0.720523
O O10 0.500000 0.430481 0.750000
O O11 0.442837 0.351852 0.542699
O O12 0.500000 0.422814 0.250000
#
# Coordination Sequence:
#
# PCOD9456289 Si02
#       5
#     8   8   8   8   8
#     4  11  24  42  68  96 133 184 229 288 343 427
#     4  10  25  46  71 101 137 178 228 297 366 415
#     4  12  25  38  63 100 138 185 238 283 334 416
#     4  10  21  40  66  90 130 182 222 267 337 397
#     4  11  24  42  61  95 143 184 229 280 345 404
#
# _framework density 23.773012000000001
#
# number of rings (size 3 to 8) (size 9 to 14) (size 15 to 20)
#    0.000    1.200    4.000    1.800    5.600    0.800 
#    0.000    0.000    0.000   15.600    0.000    0.000 
#    0.000    0.000    0.000    0.000    0.000    0.000 
#
# Total GULP energy -223028.452959 kJ/mol
# GULP energy per Si atom -5575.711324 kJ/mol
# Density = 2.371890 g / cm^3
# Si number density = 23.773012 Si / 1000 Ang^3
#
#
#
# Elastic Constant Matrix: (Units=GPa)
#
#
# Indices 1 2 3 4 5 6 
#
# 1 22.9971 14.3224 14.6308 0.0000 0.0000 0.0000
# 2 14.3224 55.5485 8.2597 0.0000 0.0000 0.0000
# 3 14.6308 8.2597 121.2663 0.0000 0.0000 0.0000
# 4 0.0000 0.0000 0.0000 -4.6301 0.0000 0.0000
# 5 0.0000 0.0000 0.0000 0.0000 26.8344 0.0000
# 6 0.0000 0.0000 0.0000 0.0000 0.0000 11.8820
#
#
#
# Elastic Compliance Matrix: (Units=1/GPa)
#
#
# Indices 1 2 3 4 5 6 
#
# 1 0.055548 -0.013462 -0.005785 0.000000 0.000000 0.000000
# 2 -0.013462 0.021449 0.000163 0.000000 0.000000 0.000000
# 3 -0.005785 0.000163 0.008933 0.000000 0.000000 0.000000
# 4 0.000000 0.000000 0.000000 -0.215980 0.000000 0.000000
# 5 0.000000 0.000000 0.000000 0.000000 0.037266 0.000000
# 6 0.000000 0.000000 0.000000 0.000000 0.000000 0.084161
#
#
# Mechanical properties :
#
#
# Convention : Reuss Voigt Hill
#
# Bulk Modulus (GPa) = 20.93682 30.47086 25.70384
# Shear Modulus (GPa) = 109.97241 17.65719 63.81480
#
# Velocity S-wave (km/s) = 6.80880 2.72828 5.18668
# Velocity P-wave (km/s) = 8.40471 4.77179 6.83407
#
# Compressibility (1/GPa) = 0.04776275
#
# Stress axis : x y z
#
# Youngs Moduli (GPa) = 18.00236 46.62212 111.94256
#
# Poissons Ratio (x) = 0.62763 0.64759
# Poissons Ratio (y) = 0.24235 -0.01828
# Poissons Ratio (z) = 0.10414 -0.00761
#
# Static dielectric constant tensor:
#      x y z
#    x 1.901580 0.000000 0.000000 
#    y 0.000000 1.830340 0.000000 
#    z 0.000000 0.000000 1.952130 
# 
# From -- ./inp_files/809.got.cif
#   From: 2010.05.17/outbox.cif.g08.bks.cpg/sg60_1_cif.got.tgz:809.got - 2010.06.03 14:59:27.
