data_PCOD9456755
_publ_section_title
;
Structure prediction by ZEFSAII (Michael W. Deem and Ramdas Pophale) SiO2 
 PCOD9456755
Probable space group: P B C N
;
_chemical_formula_sum "Si O2"
_cell_formula_units_Z 48
_cell_length_a 13.311939
_cell_length_b 14.037919
_cell_length_c 13.522985
_cell_angle_alpha 90.000000
_cell_angle_beta 90.000000
_cell_angle_gamma 90.000000
_cell_volume 2527.066190
_symmetry_space_group_name_H-M "P B C N"
_symmetry_group_IT_number 60
_symmetry_cell_setting 'orthorhombic'
loop_
_space_group_symop_operation_xyz
x,y,z
1/2-x,1/2-y,1/2+z
1/2+x,1/2-y,-z
-x,y,1/2-z
-x,-y,-z
1/2+x,1/2+y,1/2-z
1/2-x,1/2+y,z
x,-y,1/2+z
loop_
_atom_site_type_symbol
_atom_site_label
_atom_site_fract_x
_atom_site_fract_y
_atom_site_fract_z
Si Si1 0.207637 0.519858 0.114487
Si Si2 0.992626 0.188045 0.633606
Si Si3 0.730211 0.662369 0.548421
Si Si4 0.495825 0.087145 0.364588
Si Si5 0.779933 0.480947 0.652814
Si Si6 0.677558 0.366345 0.495937
O O1 0.224080 0.535452 0.230685
O O2 0.247597 0.417313 0.081688
O O3 0.089970 0.533570 0.088420
O O4 0.266699 0.599612 0.051615
O O5 0.880814 0.177200 0.591355
O O6 0.017440 0.300721 0.629957
O O7 0.000000 0.158830 0.750000
O O8 0.071717 0.137895 0.560628
O O9 0.783975 0.592626 0.627335
O O10 0.785312 0.761671 0.527448
O O11 0.500000 0.057534 0.250000
O O12 0.381063 0.066554 0.391061
O O13 0.687855 0.433089 0.593164
#
# Coordination Sequence:
#
# PCOD9456755 Si02
#       6
#     8   8   8   8   8   8
#     4  10  22  39  61  91 128 165 209 260 309 362
#     4  11  22  40  65  92 127 169 205 247 317 380
#     4  11  23  38  62  93 120 161 210 256 304 370
#     4   9  18  36  63  89 120 166 206 248 308 364
#     4  10  22  39  61  91 128 165 209 260 309 362
#     4  11  23  38  62  93 120 161 210 256 304 370
#
# _framework density 18.994357999999998
#
# number of rings (size 3 to 8) (size 9 to 14) (size 15 to 20)
#    0.000    1.667    3.333    1.000    0.000    8.000 
#    0.000    2.500    0.000    0.000    0.000    0.000 
#    0.000    0.000    0.000    0.000    0.000    0.000 
#
# Total GULP energy -267602.869396 kJ/mol
# GULP energy per Si atom -5575.059779 kJ/mol
# Density = 1.895113 g / cm^3
# Si number density = 18.994358 Si / 1000 Ang^3
#
#
#
# Elastic Constant Matrix: (Units=GPa)
#
#
# Indices 1 2 3 4 5 6 
#
# 1 49.3771 -19.9601 8.0508 0.0000 0.0000 0.0000
# 2 -19.9601 51.4359 -0.8937 0.0000 0.0000 0.0000
# 3 8.0508 -0.8937 108.7694 0.0000 0.0000 0.0000
# 4 0.0000 0.0000 0.0000 24.1216 0.0000 0.0000
# 5 0.0000 0.0000 0.0000 0.0000 27.2994 0.0000
# 6 0.0000 0.0000 0.0000 0.0000 0.0000 27.6613
#
#
#
# Elastic Compliance Matrix: (Units=1/GPa)
#
#
# Indices 1 2 3 4 5 6 
#
# 1 0.024339 0.009415 -0.001724 0.000000 0.000000 0.000000
# 2 0.009415 0.023086 -0.000507 0.000000 0.000000 0.000000
# 3 -0.001724 -0.000507 0.009317 0.000000 0.000000 0.000000
# 4 0.000000 0.000000 0.000000 0.041457 0.000000 0.000000
# 5 0.000000 0.000000 0.000000 0.000000 0.036631 0.000000
# 6 0.000000 0.000000 0.000000 0.000000 0.000000 0.036152
#
#
# Mechanical properties :
#
#
# Convention : Reuss Voigt Hill
#
# Bulk Modulus (GPa) = 14.06260 20.44181 17.25220
# Shear Modulus (GPa) = 27.72878 30.64216 29.18547
#
# Velocity S-wave (km/s) = 3.82493 4.02085 3.92412
# Velocity P-wave (km/s) = 5.18907 5.68698 5.44372
#
# Compressibility (1/GPa) = 0.07111062
#
# Stress axis : x y z
#
# Youngs Moduli (GPa) = 41.08570 43.31539 107.32825
#
# Poissons Ratio (x) = -0.40782 0.18505
# Poissons Ratio (y) = -0.38683 0.05444
# Poissons Ratio (z) = 0.07084 0.02197
#
# Static dielectric constant tensor:
#      x y z
#    x 1.690230 0.000000 0.000000 
#    y 0.000000 1.663650 0.000000 
#    z 0.000000 0.000000 1.683850 
# 
# From -- ./inp_files/16044.got.cif
#   From: 2010.05.17/outbox.cif.g08.bks.cpg/sg60_9_cif.got.tgz:16044.got - 2010.06.03 14:59:27.
