data_PCOD9456142
_publ_section_title
;
Structure prediction by ZEFSAII (Michael W. Deem and Ramdas Pophale) SiO2 
 PCOD9456142
Probable space group: P B C N
;
_chemical_formula_sum "Si O2"
_cell_formula_units_Z 60
_cell_length_a 18.228075
_cell_length_b 9.656026
_cell_length_c 17.652547
_cell_angle_alpha 90.000000
_cell_angle_beta 90.000000
_cell_angle_gamma 90.000000
_cell_volume 3107.038322
_symmetry_space_group_name_H-M "P B C N"
_symmetry_group_IT_number 60
_symmetry_cell_setting 'orthorhombic'
loop_
_space_group_symop_operation_xyz
x,y,z
1/2-x,1/2-y,1/2+z
1/2+x,1/2-y,-z
-x,y,1/2-z
-x,-y,-z
1/2+x,1/2+y,1/2-z
1/2-x,1/2+y,z
x,-y,1/2+z
loop_
_atom_site_type_symbol
_atom_site_label
_atom_site_fract_x
_atom_site_fract_y
_atom_site_fract_z
Si Si1 0.500000 0.027656 0.750000
Si Si2 0.994985 0.370784 0.596428
Si Si3 0.727015 0.811896 0.690516
Si Si4 0.206004 0.628340 0.548275
Si Si5 0.113702 0.591330 0.981303
Si Si6 0.832340 0.868796 0.555179
Si Si7 0.332080 0.911452 0.225645
Si Si8 0.622931 0.673122 0.566059
O O1 0.579715 0.104959 0.757763
O O2 0.497885 0.924847 0.820161
O O3 0.939578 0.481061 0.557826
O O4 0.958782 0.224762 0.580278
O O5 0.073765 0.374497 0.559146
O O6 0.775795 0.880876 0.624503
O O7 0.780230 0.705185 0.735035
O O8 0.667705 0.725430 0.640651
O O9 0.691905 0.936113 0.741191
O O10 0.187755 0.487407 0.501891
O O11 0.289288 0.657072 0.524055
O O12 0.185059 0.605470 0.635529
O O13 0.157802 0.746990 0.506616
O O14 0.122972 0.728020 0.932574
O O15 0.874541 0.011129 0.552931
#
# Coordination Sequence:
#
# PCOD9456142 Si02
#       8
#     4   8   8   8   8   8   8   8
#     4  12  22  40  66  92 124 168 210 260 320 376
#     4  10  21  39  64  87 121 163 214 251 307 385
#     4  11  23  41  63  93 128 166 213 260 321 380
#     4  10  22  37  61  91 121 157 213 254 308 362
#     4  10  21  39  62  90 118 163 211 253 305 377
#     4  11  22  38  63  90 125 164 206 262 312 371
#     4  12  25  40  67  97 128 166 210 270 318 377
#     4  10  21  40  60  90 123 169 206 257 310 383
#
# _framework density 19.310994999999998
#
# number of rings (size 3 to 8) (size 9 to 14) (size 15 to 20)
#    0.000    1.333    4.000    2.400    5.600    0.533 
#    0.000    0.000    0.000    1.600    0.000    0.000 
#    0.000    0.000    0.000    0.000    0.000    0.000 
#
# Total GULP energy -334500.022785 kJ/mol
# GULP energy per Si atom -5575.000380 kJ/mol
# Density = 1.926704 g / cm^3
# Si number density = 19.310995 Si / 1000 Ang^3
#
#
#
# Elastic Constant Matrix: (Units=GPa)
#
#
# Indices 1 2 3 4 5 6 
#
# 1 53.4868 25.7410 15.8706 0.0000 0.0000 0.0000
# 2 25.7410 91.4469 6.1280 0.0000 0.0000 0.0000
# 3 15.8706 6.1280 93.5242 0.0000 0.0000 0.0000
# 4 0.0000 0.0000 0.0000 16.0974 0.0000 0.0000
# 5 0.0000 0.0000 0.0000 0.0000 14.7390 0.0000
# 6 0.0000 0.0000 0.0000 0.0000 0.0000 -300.5232
#
#
#
# Elastic Compliance Matrix: (Units=1/GPa)
#
#
# Indices 1 2 3 4 5 6 
#
# 1 0.022680 -0.006153 -0.003445 0.000000 0.000000 0.000000
# 2 -0.006153 0.012653 0.000215 0.000000 0.000000 0.000000
# 3 -0.003445 0.000215 0.011263 0.000000 0.000000 0.000000
# 4 0.000000 0.000000 0.000000 0.062122 0.000000 0.000000
# 5 0.000000 0.000000 0.000000 0.000000 0.067847 0.000000
# 6 0.000000 0.000000 0.000000 0.000000 0.000000 -0.003328
#
#
# Mechanical properties :
#
#
# Convention : Reuss Voigt Hill
#
# Bulk Modulus (GPa) = 35.93418 37.10412 36.51915
# Shear Modulus (GPa) = 24.84093 -41.22281 -8.19094
#
# Velocity S-wave (km/s) = 3.59048 -4.62527 -2.06175
# Velocity P-wave (km/s) = 5.98642 3.04442 3.64477
#
# Compressibility (1/GPa) = 0.02782866
#
# Stress axis : x y z
#
# Youngs Moduli (GPa) = 44.09208 79.03310 88.78620
#
# Poissons Ratio (x) = 0.48630 0.30591
# Poissons Ratio (y) = 0.27131 -0.01910
# Poissons Ratio (z) = 0.15192 -0.01700
#
# Static dielectric constant tensor:
#      x y z
#    x 1.716720 0.000000 0.000000 
#    y 0.000000 1.669920 0.000000 
#    z 0.000000 0.000000 1.406540 
# 
# From -- ./inp_files/20896.got.cif
#   From: 2010.05.17/outbox.cif.g08.bks.cpg/sg60_11_cif.got.tgz:20896.got - 2010.06.03 14:59:27.
