data_PCOD9456477
_publ_section_title
;
Structure prediction by ZEFSAII (Michael W. Deem and Ramdas Pophale) SiO2 
 PCOD9456477
Probable space group: P B C N
;
_chemical_formula_sum "Si O2"
_cell_formula_units_Z 60
_cell_length_a 8.707494
_cell_length_b 14.920538
_cell_length_c 21.722578
_cell_angle_alpha 90.000000
_cell_angle_beta 90.000000
_cell_angle_gamma 90.000000
_cell_volume 2822.208089
_symmetry_space_group_name_H-M "P B C N"
_symmetry_group_IT_number 60
_symmetry_cell_setting 'orthorhombic'
loop_
_space_group_symop_operation_xyz
x,y,z
1/2-x,1/2-y,1/2+z
1/2+x,1/2-y,-z
-x,y,1/2-z
-x,-y,-z
1/2+x,1/2+y,1/2-z
1/2-x,1/2+y,z
x,-y,1/2+z
loop_
_atom_site_type_symbol
_atom_site_label
_atom_site_fract_x
_atom_site_fract_y
_atom_site_fract_z
Si Si1 0.808386 0.340457 0.822139
Si Si2 0.103783 0.605220 0.935829
Si Si3 0.066269 0.419905 0.566585
Si Si4 0.181577 0.476998 0.236734
Si Si5 0.000000 0.785445 0.250000
Si Si6 0.874973 0.917694 0.149038
Si Si7 0.698394 0.836094 0.373421
Si Si8 0.893136 0.977097 0.440011
O O1 0.944420 0.369370 0.869084
O O2 0.752701 0.433905 0.795167
O O3 0.862128 0.280797 0.765312
O O4 0.714616 0.269175 0.861914
O O5 0.270027 0.619511 0.906725
O O6 0.061050 0.498291 0.937134
O O7 0.974530 0.646500 0.893579
O O8 0.068634 0.637718 0.004813
O O9 0.238719 0.463466 0.563720
O O10 0.262877 0.461018 0.301242
O O11 0.211675 0.395449 0.189296
O O12 0.000000 0.486776 0.250000
O O13 0.036759 0.843712 0.310287
O O14 0.991661 0.986129 0.117347
O O15 0.816532 0.878356 0.424411
O O16 0.000000 0.000000 0.500000
#
# Coordination Sequence:
#
# PCOD9456477 Si02
#       8
#     8   8   8   8   4   8   8   8
#     4  12  23  43  67  93 138 177 220 270 338 395
#     4  10  21  42  71  92 125 176 222 269 332 397
#     4  10  22  43  68  97 126 170 226 273 328 403
#     4  12  22  40  70  94 129 178 223 268 335 401
#     4  12  26  40  66  96 136 180 216 278 332 400
#     4  12  22  41  68  97 130 171 222 272 339 389
#     4  11  23  44  65  95 134 176 216 278 325 393
#     4  11  21  40  67  95 129 166 216 273 335 385
#
# _framework density 21.259948000000001
#
# number of rings (size 3 to 8) (size 9 to 14) (size 15 to 20)
#    0.000    0.800    8.667    0.000    0.000    0.000 
#    4.800    4.000    0.000    0.000    0.000    0.000 
#    0.000    0.000    0.000    0.000    0.000    0.000 
#
# Total GULP energy -334436.144087 kJ/mol
# GULP energy per Si atom -5573.935735 kJ/mol
# Density = 2.121156 g / cm^3
# Si number density = 21.259948 Si / 1000 Ang^3
#
#
#
# Elastic Constant Matrix: (Units=GPa)
#
#
# Indices 1 2 3 4 5 6 
#
# 1 64.3653 -6.6378 -10.6298 0.0000 0.0000 0.0000
# 2 -6.6378 65.8858 3.5547 0.0000 0.0000 0.0000
# 3 -10.6298 3.5547 66.4538 0.0000 0.0000 0.0000
# 4 0.0000 0.0000 0.0000 14.2902 0.0000 0.0000
# 5 0.0000 0.0000 0.0000 0.0000 46.0969 0.0000
# 6 0.0000 0.0000 0.0000 0.0000 0.0000 11.6819
#
#
#
# Elastic Compliance Matrix: (Units=1/GPa)
#
#
# Indices 1 2 3 4 5 6 
#
# 1 0.016102 0.001488 0.002496 0.000000 0.000000 0.000000
# 2 0.001488 0.015359 -0.000584 0.000000 0.000000 0.000000
# 3 0.002496 -0.000584 0.015479 0.000000 0.000000 0.000000
# 4 0.000000 0.000000 0.000000 0.069978 0.000000 0.000000
# 5 0.000000 0.000000 0.000000 0.000000 0.021693 0.000000
# 6 0.000000 0.000000 0.000000 0.000000 0.000000 0.085603
#
#
# Mechanical properties :
#
#
# Convention : Reuss Voigt Hill
#
# Bulk Modulus (GPa) = 18.60826 18.80879 18.70852
# Shear Modulus (GPa) = 21.24704 28.44164 24.84434
#
# Velocity S-wave (km/s) = 3.16475 3.66157 3.42219
# Velocity P-wave (km/s) = 4.70382 5.17130 4.94309
#
# Compressibility (1/GPa) = 0.05373958
#
# Stress axis : x y z
#
# Youngs Moduli (GPa) = 62.10425 65.10782 64.60566
#
# Poissons Ratio (x) = -0.09685 -0.16126
# Poissons Ratio (y) = -0.09238 0.03771
# Poissons Ratio (z) = -0.15502 0.03800
#
# Static dielectric constant tensor:
#      x y z
#    x 1.810900 0.000000 0.000000 
#    y 0.000000 1.801820 0.000000 
#    z 0.000000 0.000000 1.841020 
# 
# From -- ./inp_files/24049.got.cif
#   From: 2010.05.17/outbox.cif.g08.bks.cpg/sg60_13_cif.got.tgz:24049.got - 2010.06.03 14:59:27.
