data_PCOD9456845
_publ_section_title
;
Structure prediction by ZEFSAII (Michael W. Deem and Ramdas Pophale) SiO2 
 PCOD9456845
Probable space group: P B C N
;
_chemical_formula_sum "Si O2"
_cell_formula_units_Z 56
_cell_length_a 20.661825
_cell_length_b 14.507330
_cell_length_c 8.884477
_cell_angle_alpha 90.000000
_cell_angle_beta 90.000000
_cell_angle_gamma 90.000000
_cell_volume 2663.103445
_symmetry_space_group_name_H-M "P B C N"
_symmetry_group_IT_number 60
_symmetry_cell_setting 'orthorhombic'
loop_
_space_group_symop_operation_xyz
x,y,z
1/2-x,1/2-y,1/2+z
1/2+x,1/2-y,-z
-x,y,1/2-z
-x,-y,-z
1/2+x,1/2+y,1/2-z
1/2-x,1/2+y,z
x,-y,1/2+z
loop_
_atom_site_type_symbol
_atom_site_label
_atom_site_fract_x
_atom_site_fract_y
_atom_site_fract_z
Si Si1 0.199867 0.189000 0.696594
Si Si2 0.315739 0.929838 0.313487
Si Si3 0.577319 0.202619 0.761689
Si Si4 0.270897 0.896282 0.636141
Si Si5 0.379505 0.377184 0.938589
Si Si6 0.868874 0.162898 0.496691
Si Si7 0.069001 0.989860 0.674344
O O1 0.267606 0.149369 0.752574
O O2 0.203096 0.298093 0.686770
O O3 0.185425 0.146513 0.531412
O O4 0.148153 0.167587 0.828263
O O5 0.386483 0.893789 0.268139
O O6 0.310198 0.929205 0.491458
O O7 0.284622 0.024480 0.255603
O O8 0.500000 0.195249 0.750000
O O9 0.597250 0.283044 0.640557
O O10 0.606049 0.243702 0.918315
O O11 0.197406 0.875203 0.581660
O O12 0.381968 0.455371 0.808064
O O13 0.420459 0.418560 0.077499
O O14 0.923453 0.090151 0.450184
O O15 0.000000 0.987176 0.750000
#
# Coordination Sequence:
#
# PCOD9456845 Si02
#       7
#     8   8   8   8   8   8   8
#     4  11  23  42  69 102 137 168 228 287 342 415
#     4  11  25  44  70 100 138 174 226 285 350 405
#     4  11  24  45  68  91 139 189 228 280 337 408
#     4  11  24  41  70 101 130 175 221 293 345 403
#     4  11  22  39  64  94 135 174 227 273 341 400
#     4  10  22  40  65 103 131 177 218 273 353 401
#     4  11  23  39  63  97 142 184 219 269 335 422
#
# _framework density 21.028098
#
# number of rings (size 3 to 8) (size 9 to 14) (size 15 to 20)
#    0.000    1.143    2.857    3.857    2.000    8.000 
#    0.000    0.714    0.000    0.000    0.000    0.000 
#    0.000    0.000    0.000    0.000    0.000    0.000 
#
# Total GULP energy -312601.938403 kJ/mol
# GULP energy per Si atom -5582.177471 kJ/mol
# Density = 2.098024 g / cm^3
# Si number density = 21.028098 Si / 1000 Ang^3
#
#
#
# Elastic Constant Matrix: (Units=GPa)
#
#
# Indices 1 2 3 4 5 6 
#
# 1 54.2451 2.0074 28.7151 0.0000 0.0000 0.0000
# 2 2.0074 82.3047 35.7814 0.0000 0.0000 0.0000
# 3 28.7151 35.7814 113.0802 0.0000 0.0000 0.0000
# 4 0.0000 0.0000 0.0000 16.7601 0.0000 0.0000
# 5 0.0000 0.0000 0.0000 0.0000 19.4456 0.0000
# 6 0.0000 0.0000 0.0000 0.0000 0.0000 48.9130
#
#
#
# Elastic Compliance Matrix: (Units=1/GPa)
#
#
# Indices 1 2 3 4 5 6 
#
# 1 0.021623 0.002156 -0.006173 0.000000 0.000000 0.000000
# 2 0.002156 0.014303 -0.005073 0.000000 0.000000 0.000000
# 3 -0.006173 -0.005073 0.012016 0.000000 0.000000 0.000000
# 4 0.000000 0.000000 0.000000 0.059665 0.000000 0.000000
# 5 0.000000 0.000000 0.000000 0.000000 0.051426 0.000000
# 6 0.000000 0.000000 0.000000 0.000000 0.000000 0.020444
#
#
# Mechanical properties :
#
#
# Convention : Reuss Voigt Hill
#
# Bulk Modulus (GPa) = 33.60023 42.51532 38.05778
# Shear Modulus (GPa) = 24.08726 29.23213 26.65970
#
# Velocity S-wave (km/s) = 3.38817 3.73251 3.56450
# Velocity P-wave (km/s) = 5.59640 6.23199 5.92273
#
# Compressibility (1/GPa) = 0.02976170
#
# Stress axis : x y z
#
# Youngs Moduli (GPa) = 46.24734 69.91536 83.22092
#
# Poissons Ratio (x) = -0.15076 0.51373
# Poissons Ratio (y) = -0.09973 0.42221
# Poissons Ratio (z) = 0.28549 0.35471
#
# Static dielectric constant tensor:
#      x y z
#    x 1.745000 0.000000 0.000000 
#    y 0.000000 1.792000 0.000000 
#    z 0.000000 0.000000 1.802130 
# 
# From -- ./inp_files/7401.got.cif
#   From: 2010.05.17/outbox.cif.g08.bks.cpg/sg60_4_cif.got.tgz:7401.got - 2010.06.03 14:59:27.
