data_PCOD9456395
_publ_section_title
;
Structure prediction by ZEFSAII (Michael W. Deem and Ramdas Pophale) SiO2 
 PCOD9456395
Probable space group: P B C N
;
_chemical_formula_sum "Si O2"
_cell_formula_units_Z 40
_cell_length_a 13.244635
_cell_length_b 9.477546
_cell_length_c 13.080406
_cell_angle_alpha 90.000000
_cell_angle_beta 90.000000
_cell_angle_gamma 90.000000
_cell_volume 1641.939382
_symmetry_space_group_name_H-M "P B C N"
_symmetry_group_IT_number 60
_symmetry_cell_setting 'orthorhombic'
loop_
_space_group_symop_operation_xyz
x,y,z
1/2-x,1/2-y,1/2+z
1/2+x,1/2-y,-z
-x,y,1/2-z
-x,-y,-z
1/2+x,1/2+y,1/2-z
1/2-x,1/2+y,z
x,-y,1/2+z
loop_
_atom_site_type_symbol
_atom_site_label
_atom_site_fract_x
_atom_site_fract_y
_atom_site_fract_z
Si Si1 0.938410 0.977938 0.655000
Si Si2 0.225813 0.589000 0.606817
Si Si3 0.867883 0.312354 0.966171
Si Si4 0.930747 0.210227 0.507382
Si Si5 0.385118 0.812617 0.294972
O O1 0.000000 0.040033 0.750000
O O2 0.888478 0.099141 0.588381
O O3 0.011840 0.884482 0.579635
O O4 0.869855 0.856963 0.704501
O O5 0.203436 0.426909 0.585086
O O6 0.328567 0.656686 0.565389
O O7 0.197964 0.617717 0.723732
O O8 0.145494 0.684026 0.544320
O O9 0.872173 0.349297 0.086417
O O10 0.984949 0.305826 0.936522
O O11 0.500000 0.839312 0.250000
#
# Coordination Sequence:
#
# PCOD9456395 Si02
#       5
#     8   8   8   8   8
#     4   9  17  36  70  95 123 176 225 270 340 400
#     4  12  25  45  71 100 144 180 233 292 344 415
#     4  11  27  43  70 105 136 186 237 286 353 414
#     4  10  21  41  67  97 137 179 227 283 342 410
#     4  10  21  45  74  94 141 188 223 281 355 410
#
# _framework density 24.361435
#
# number of rings (size 3 to 8) (size 9 to 14) (size 15 to 20)
#    0.000    1.600    6.000    0.600    8.400    1.600 
#    7.200    0.000    0.000    0.000    0.000    0.000 
#    0.000    0.000    0.000    0.000    0.000    0.000 
#
# Total GULP energy -223604.673350 kJ/mol
# GULP energy per Si atom -5590.116834 kJ/mol
# Density = 2.430599 g / cm^3
# Si number density = 24.361435 Si / 1000 Ang^3
#
#
#
# Elastic Constant Matrix: (Units=GPa)
#
#
# Indices 1 2 3 4 5 6 
#
# 1 54.9603 1.1231 3.2418 0.0000 0.0000 0.0000
# 2 1.1231 85.3541 25.6595 0.0000 0.0000 0.0000
# 3 3.2418 25.6595 97.2928 0.0000 0.0000 0.0000
# 4 0.0000 0.0000 0.0000 34.1007 0.0000 0.0000
# 5 0.0000 0.0000 0.0000 0.0000 25.6991 0.0000
# 6 0.0000 0.0000 0.0000 0.0000 0.0000 34.9576
#
#
#
# Elastic Compliance Matrix: (Units=1/GPa)
#
#
# Indices 1 2 3 4 5 6 
#
# 1 0.018231 -0.000062 -0.000591 0.000000 0.000000 0.000000
# 2 -0.000062 0.012725 -0.003354 0.000000 0.000000 0.000000
# 3 -0.000591 -0.003354 0.011182 0.000000 0.000000 0.000000
# 4 0.000000 0.000000 0.000000 0.029325 0.000000 0.000000
# 5 0.000000 0.000000 0.000000 0.000000 0.038912 0.000000
# 6 0.000000 0.000000 0.000000 0.000000 0.000000 0.028606
#
#
# Mechanical properties :
#
#
# Convention : Reuss Voigt Hill
#
# Bulk Modulus (GPa) = 29.30475 33.07289 31.18882
# Shear Modulus (GPa) = 31.57153 32.79034 32.18093
#
# Velocity S-wave (km/s) = 3.60385 3.67276 3.63847
# Velocity P-wave (km/s) = 5.41962 5.62058 5.52102
#
# Compressibility (1/GPa) = 0.03412416
#
# Stress axis : x y z
#
# Youngs Moduli (GPa) = 54.85135 78.58550 89.42545
#
# Poissons Ratio (x) = 0.00489 0.05286
# Poissons Ratio (y) = 0.00341 0.29993
# Poissons Ratio (z) = 0.03242 0.26357
#
# Static dielectric constant tensor:
#      x y z
#    x 2.018400 0.000000 0.000000 
#    y 0.000000 1.925110 0.000000 
#    z 0.000000 0.000000 1.959390 
# 
# From -- ./inp_files/17218.got.cif
#   From: 2010.05.17/outbox.cif.g08.bks.cpg/sg60_9_cif.got.tgz:17218.got - 2010.06.03 14:59:27.
