data_PCOD9456670
_publ_section_title
;
Structure prediction by ZEFSAII (Michael W. Deem and Ramdas Pophale) SiO2 
 PCOD9456670
Probable space group: P B C N
;
_chemical_formula_sum "Si O2"
_cell_formula_units_Z 44
_cell_length_a 8.572917
_cell_length_b 28.450100
_cell_length_c 9.227608
_cell_angle_alpha 90.000000
_cell_angle_beta 90.000000
_cell_angle_gamma 90.000000
_cell_volume 2250.616783
_symmetry_space_group_name_H-M "P B C N"
_symmetry_group_IT_number 60
_symmetry_cell_setting 'orthorhombic'
loop_
_space_group_symop_operation_xyz
x,y,z
1/2-x,1/2-y,1/2+z
1/2+x,1/2-y,-z
-x,y,1/2-z
-x,-y,-z
1/2+x,1/2+y,1/2-z
1/2-x,1/2+y,z
x,-y,1/2+z
loop_
_atom_site_type_symbol
_atom_site_label
_atom_site_fract_x
_atom_site_fract_y
_atom_site_fract_z
Si Si1 0.884926 0.865773 0.123172
Si Si2 0.631207 0.062004 0.513942
Si Si3 0.895322 0.184356 0.105509
Si Si4 0.620942 0.791752 0.119400
Si Si5 0.560467 0.142798 0.089021
Si Si6 0.000000 0.507059 0.250000
O O1 0.785944 0.907213 0.045177
O O2 0.757211 0.826816 0.170262
O O3 0.000000 0.882908 0.250000
O O4 0.992226 0.835874 0.015984
O O5 0.486899 0.098940 0.511338
O O6 0.612608 0.036692 0.357798
O O7 0.601721 0.024899 0.641315
O O8 0.837229 0.238014 0.084875
O O9 0.741507 0.152937 0.103018
O O10 0.000000 0.182491 0.250000
O O11 0.500000 0.790247 0.250000
O O12 0.536165 0.814218 0.980250
O O13 0.500000 0.133976 0.250000
#
# Coordination Sequence:
#
# PCOD9456670 Si02
#       6
#     8   8   8   8   8   4
#     4  11  24  39  62  96 133 166 212 270 323 370
#     4  10  23  42  69  95 118 164 212 257 332 394
#     4  11  23  37  58  91 131 167 212 265 312 360
#     4  10  22  38  58  88 124 178 221 245 304 376
#     4  11  22  38  63  87 122 165 211 255 306 387
#     4  10  22  44  74  90 120 158 218 262 318 434
#
# _framework density 19.550194000000001
#
# number of rings (size 3 to 8) (size 9 to 14) (size 15 to 20)
#    0.000    1.455    0.909    4.364    7.636    5.818 
#    0.000    0.909    0.000    0.000    0.000    0.000 
#    0.000    0.000    0.000    0.000    0.000    0.000 
#
# Total GULP energy -245583.499765 kJ/mol
# GULP energy per Si atom -5581.443176 kJ/mol
# Density = 1.950570 g / cm^3
# Si number density = 19.550194 Si / 1000 Ang^3
#
#
#
# Elastic Constant Matrix: (Units=GPa)
#
#
# Indices 1 2 3 4 5 6 
#
# 1 111.9515 50.8649 26.4442 0.0000 0.0000 0.0000
# 2 50.8649 105.3857 47.1005 0.0000 0.0000 0.0000
# 3 26.4442 47.1005 88.8305 0.0000 0.0000 0.0000
# 4 0.0000 0.0000 0.0000 51.7488 0.0000 0.0000
# 5 0.0000 0.0000 0.0000 0.0000 31.4107 0.0000
# 6 0.0000 0.0000 0.0000 0.0000 0.0000 26.1786
#
#
#
# Elastic Compliance Matrix: (Units=1/GPa)
#
#
# Indices 1 2 3 4 5 6 
#
# 1 0.011468 -0.005255 -0.000628 0.000000 0.000000 0.000000
# 2 -0.005255 0.014844 -0.006306 0.000000 0.000000 0.000000
# 3 -0.000628 -0.006306 0.014788 0.000000 0.000000 0.000000
# 4 0.000000 0.000000 0.000000 0.019324 0.000000 0.000000
# 5 0.000000 0.000000 0.000000 0.000000 0.031836 0.000000
# 6 0.000000 0.000000 0.000000 0.000000 0.000000 0.038199
#
#
# Mechanical properties :
#
#
# Convention : Reuss Voigt Hill
#
# Bulk Modulus (GPa) = 59.79988 61.66523 60.73255
# Shear Modulus (GPa) = 31.16996 33.98482 32.57739
#
# Velocity S-wave (km/s) = 3.99727 4.17386 4.08652
# Velocity P-wave (km/s) = 7.20822 7.40531 7.30743
#
# Compressibility (1/GPa) = 0.01672244
#
# Stress axis : x y z
#
# Youngs Moduli (GPa) = 87.19815 67.36931 67.62203
#
# Poissons Ratio (x) = 0.35399 0.04246
# Poissons Ratio (y) = 0.45818 0.42644
# Poissons Ratio (z) = 0.05475 0.42485
#
# Static dielectric constant tensor:
#      x y z
#    x 1.617050 0.000000 0.000000 
#    y 0.000000 1.725000 0.000000 
#    z 0.000000 0.000000 1.703000 
# 
# From -- ./inp_files/4130.got.cif
#   From: 2010.05.17/outbox.cif.g08.bks.cpg/sg60_3_cif.got.tgz:4130.got - 2010.06.03 14:59:27.
