data_PCOD9456220
_publ_section_title
;
Structure prediction by ZEFSAII (Michael W. Deem and Ramdas Pophale) SiO2 
 PCOD9456220
Probable space group: P B C N
;
_chemical_formula_sum "Si O2"
_cell_formula_units_Z 64
_cell_length_a 30.280497
_cell_length_b 5.730433
_cell_length_c 14.646288
_cell_angle_alpha 90.000000
_cell_angle_beta 90.000000
_cell_angle_gamma 90.000000
_cell_volume 2541.429156
_symmetry_space_group_name_H-M "P B C N"
_symmetry_group_IT_number 60
_symmetry_cell_setting 'orthorhombic'
loop_
_space_group_symop_operation_xyz
x,y,z
1/2-x,1/2-y,1/2+z
1/2+x,1/2-y,-z
-x,y,1/2-z
-x,-y,-z
1/2+x,1/2+y,1/2-z
1/2-x,1/2+y,z
x,-y,1/2+z
loop_
_atom_site_type_symbol
_atom_site_label
_atom_site_fract_x
_atom_site_fract_y
_atom_site_fract_z
Si Si1 0.462115 0.062324 0.075550
Si Si2 0.724696 0.864702 0.937631
Si Si3 0.029710 0.783120 0.310346
Si Si4 0.247516 0.115830 0.858561
Si Si5 0.571330 0.616971 0.060574
Si Si6 0.655044 0.667043 0.547040
Si Si7 0.362782 0.084744 0.625254
Si Si8 0.892345 0.493863 0.182126
O O1 0.491038 0.099583 0.164887
O O2 0.414855 0.933187 0.091745
O O3 0.443777 0.306202 0.037689
O O4 0.500000 0.000000 0.000000
O O5 0.751588 0.112102 0.915712
O O6 0.674956 0.887168 0.895795
O O7 0.721977 0.876461 0.049683
O O8 0.077428 0.701597 0.276372
O O9 0.000000 0.956709 0.250000
O O10 0.042029 0.908271 0.404092
O O11 0.251338 0.866662 0.808446
O O12 0.299926 0.611897 0.905483
O O13 0.621485 0.540185 0.061332
O O14 0.572494 0.825387 0.133722
O O15 0.656459 0.715142 0.439813
O O16 0.635165 0.889863 0.601055
O O17 0.365638 0.114819 0.734306
#
# Coordination Sequence:
#
# PCOD9456220 Si02
#       8
#     8   8   8   8   8   8   8   8
#     4  12  23  41  70  96 137 187 241 294 370 443
#     4  10  22  43  71 108 144 189 250 306 370 456
#     4  11  23  43  62  97 136 181 237 295 356 443
#     4  10  21  39  74 105 141 190 241 299 372 445
#     4  11  25  41  69  97 142 180 241 305 357 447
#     4  11  24  45  69 106 139 186 245 294 371 448
#     4  12  24  44  78 101 141 198 239 305 382 449
#     4  11  25  46  66 103 142 187 243 301 367 445
#
# _framework density 25.182683000000001
#
# number of rings (size 3 to 8) (size 9 to 14) (size 15 to 20)
#    0.000    1.000    6.250    1.125    5.250    2.500 
#    4.500    1.250    0.000    0.000    0.000    0.000 
#    0.000    0.000    0.000    0.000    0.000    0.000 
#
# Total GULP energy -356627.598260 kJ/mol
# GULP energy per Si atom -5572.306223 kJ/mol
# Density = 2.512537 g / cm^3
# Si number density = 25.182683 Si / 1000 Ang^3
#
#
#
# Elastic Constant Matrix: (Units=GPa)
#
#
# Indices 1 2 3 4 5 6 
#
# 1 120.7366 36.6040 5.4204 0.0000 0.0000 0.0000
# 2 36.6040 100.4217 -2.7051 0.0000 0.0000 0.0000
# 3 5.4204 -2.7051 53.7378 0.0000 0.0000 0.0000
# 4 0.0000 0.0000 0.0000 9.1471 0.0000 0.0000
# 5 0.0000 0.0000 0.0000 0.0000 9.5457 0.0000
# 6 0.0000 0.0000 0.0000 0.0000 0.0000 21.2306
#
#
#
# Elastic Compliance Matrix: (Units=1/GPa)
#
#
# Indices 1 2 3 4 5 6 
#
# 1 0.009378 -0.003449 -0.001120 0.000000 0.000000 0.000000
# 2 -0.003449 0.011240 0.000914 0.000000 0.000000 0.000000
# 3 -0.001120 0.000914 0.018768 0.000000 0.000000 0.000000
# 4 0.000000 0.000000 0.000000 0.109324 0.000000 0.000000
# 5 0.000000 0.000000 0.000000 0.000000 0.104759 0.000000
# 6 0.000000 0.000000 0.000000 0.000000 0.000000 0.047102
#
#
# Mechanical properties :
#
#
# Convention : Reuss Voigt Hill
#
# Bulk Modulus (GPa) = 31.17526 39.28163 35.22845
# Shear Modulus (GPa) = 15.69502 23.68979 19.69241
#
# Velocity S-wave (km/s) = 2.49920 3.07044 2.79943
# Velocity P-wave (km/s) = 4.55352 5.31062 4.94657
#
# Compressibility (1/GPa) = 0.03207671
#
# Stress axis : x y z
#
# Youngs Moduli (GPa) = 106.62955 88.97087 53.28281
#
# Poissons Ratio (x) = 0.30682 0.05965
# Poissons Ratio (y) = 0.36772 -0.04868
# Poissons Ratio (z) = 0.11938 -0.08129
#
# Static dielectric constant tensor:
#      x y z
#    x 2.074280 0.000000 0.000000 
#    y 0.000000 2.191710 0.000000 
#    z 0.000000 0.000000 2.292340 
# 
# From -- ./inp_files/21307.got.cif
#   From: 2010.05.17/outbox.cif.g08.bks.cpg/sg60_11_cif.got.tgz:21307.got - 2010.06.03 14:59:27.
