data_PCOD9456740
_publ_section_title
;
Structure prediction by ZEFSAII (Michael W. Deem and Ramdas Pophale) SiO2 
 PCOD9456740
Probable space group: P B C N
;
_chemical_formula_sum "Si O2"
_cell_formula_units_Z 48
_cell_length_a 8.559016
_cell_length_b 10.668442
_cell_length_c 28.541804
_cell_angle_alpha 90.000000
_cell_angle_beta 90.000000
_cell_angle_gamma 90.000000
_cell_volume 2606.191105
_symmetry_space_group_name_H-M "P B C N"
_symmetry_group_IT_number 60
_symmetry_cell_setting 'orthorhombic'
loop_
_space_group_symop_operation_xyz
x,y,z
1/2-x,1/2-y,1/2+z
1/2+x,1/2-y,-z
-x,y,1/2-z
-x,-y,-z
1/2+x,1/2+y,1/2-z
1/2-x,1/2+y,z
x,-y,1/2+z
loop_
_atom_site_type_symbol
_atom_site_label
_atom_site_fract_x
_atom_site_fract_y
_atom_site_fract_z
Si Si1 0.441329 0.876784 0.025462
Si Si2 0.854422 0.113681 0.124070
Si Si3 0.888753 0.904675 0.795256
Si Si4 0.106898 0.392959 0.373533
Si Si5 0.402201 0.377990 0.988351
Si Si6 0.870106 0.381207 0.290915
O O1 0.521697 0.884368 0.076248
O O2 0.503864 0.749317 0.002230
O O3 0.255336 0.875612 0.018906
O O4 0.500000 0.000000 0.000000
O O5 0.810738 0.258173 0.135717
O O6 0.876507 0.114163 0.067807
O O7 0.006152 0.087034 0.157050
O O8 0.725508 0.007448 0.132324
O O9 0.815336 0.764278 0.793254
O O10 0.000000 0.911021 0.750000
O O11 0.765896 0.016585 0.789406
O O12 0.967523 0.406434 0.337435
O O13 0.500000 0.500000 0.000000
O O14 0.000000 0.392210 0.250000
#
# Coordination Sequence:
#
# PCOD9456740 Si02
#       6
#     8   8   8   8   8   8
#     4  11  22  40  60  86 121 161 202 253 303 360
#     4  10  22  39  59  87 119 157 197 247 297 359
#     4  10  22  40  62  89 121 154 198 245 302 363
#     4  10  22  39  60  88 120 155 203 246 300 359
#     4  11  24  39  60  87 120 160 206 250 304 361
#     4  10  22  40  61  89 121 154 197 249 299 363
#
# _framework density 18.417683
#
# number of rings (size 3 to 8) (size 9 to 14) (size 15 to 20)
#    0.000    1.667    1.667    2.000    4.667    2.000 
#    3.000    0.000    0.000    0.000    0.000    0.000 
#    0.000    0.000    0.000    0.000    0.000    0.000 
#
# Total GULP energy -267637.320314 kJ/mol
# GULP energy per Si atom -5575.777507 kJ/mol
# Density = 1.837576 g / cm^3
# Si number density = 18.417683 Si / 1000 Ang^3
#
#
#
# Elastic Constant Matrix: (Units=GPa)
#
#
# Indices 1 2 3 4 5 6 
#
# 1 105.6708 106.6621 15.1502 0.0000 0.0000 0.0000
# 2 106.6621 202.7709 37.3586 0.0000 0.0000 0.0000
# 3 15.1502 37.3586 48.3406 0.0000 0.0000 0.0000
# 4 0.0000 0.0000 0.0000 24.8062 0.0000 0.0000
# 5 0.0000 0.0000 0.0000 0.0000 23.5032 0.0000
# 6 0.0000 0.0000 0.0000 0.0000 0.0000 49.8722
#
#
#
# Elastic Compliance Matrix: (Units=1/GPa)
#
#
# Indices 1 2 3 4 5 6 
#
# 1 0.020377 -0.011126 0.002212 0.000000 0.000000 0.000000
# 2 -0.011126 0.011826 -0.005652 0.000000 0.000000 0.000000
# 3 0.002212 -0.005652 0.024361 0.000000 0.000000 0.000000
# 4 0.000000 0.000000 0.000000 0.040312 0.000000 0.000000
# 5 0.000000 0.000000 0.000000 0.000000 0.042547 0.000000
# 6 0.000000 0.000000 0.000000 0.000000 0.000000 0.020051
#
#
# Mechanical properties :
#
#
# Convention : Reuss Voigt Hill
#
# Bulk Modulus (GPa) = 36.45407 75.01378 55.73393
# Shear Modulus (GPa) = 25.28438 32.81042 29.04740
#
# Velocity S-wave (km/s) = 3.70919 4.22532 3.97564
# Velocity P-wave (km/s) = 6.17900 8.03878 7.16945
#
# Compressibility (1/GPa) = 0.02743178
#
# Stress axis : x y z
#
# Youngs Moduli (GPa) = 49.07544 84.56170 41.04884
#
# Poissons Ratio (x) = 0.94086 -0.09082
# Poissons Ratio (y) = 0.54603 0.23201
# Poissons Ratio (z) = -0.10857 0.47795
#
# Static dielectric constant tensor:
#      x y z
#    x 1.651860 0.000000 0.000000 
#    y 0.000000 1.641370 0.000000 
#    z 0.000000 0.000000 1.793620 
# 
# From -- ./inp_files/25932.got.cif
#   From: 2010.05.17/outbox.cif.g08.bks.cpg/sg60_13_cif.got.tgz:25932.got - 2010.06.03 14:59:27.
