data_PCOD9456771
_publ_section_title
;
Structure prediction by ZEFSAII (Michael W. Deem and Ramdas Pophale) SiO2 
 PCOD9456771
Probable space group: P B C N
;
_chemical_formula_sum "Si O2"
_cell_formula_units_Z 40
_cell_length_a 7.673303
_cell_length_b 29.403786
_cell_length_c 7.536717
_cell_angle_alpha 90.000000
_cell_angle_beta 90.000000
_cell_angle_gamma 90.000000
_cell_volume 1700.465437
_symmetry_space_group_name_H-M "P B C N"
_symmetry_group_IT_number 60
_symmetry_cell_setting 'orthorhombic'
loop_
_space_group_symop_operation_xyz
x,y,z
1/2-x,1/2-y,1/2+z
1/2+x,1/2-y,-z
-x,y,1/2-z
-x,-y,-z
1/2+x,1/2+y,1/2-z
1/2-x,1/2+y,z
x,-y,1/2+z
loop_
_atom_site_type_symbol
_atom_site_label
_atom_site_fract_x
_atom_site_fract_y
_atom_site_fract_z
Si Si1 0.000000 0.360543 0.750000
Si Si2 0.315598 0.068164 0.036058
Si Si3 0.736085 0.304696 0.545939
Si Si4 0.542070 0.604392 0.960376
Si Si5 0.200458 0.975179 0.184531
Si Si6 0.500000 0.232948 0.750000
O O1 0.040984 0.395465 0.590412
O O2 0.154602 0.326592 0.794354
O O3 0.304719 0.052308 0.833408
O O4 0.131716 0.093719 0.067886
O O5 0.303151 0.020389 0.136858
O O6 0.613218 0.346351 0.494946
O O7 0.622150 0.263158 0.619808
O O8 0.867466 0.293352 0.382998
O O9 0.500000 0.604017 0.750000
O O10 0.668645 0.560456 0.976292
O O11 0.000000 0.986676 0.250000
#
# Coordination Sequence:
#
# PCOD9456771 Si02
#       6
#     4   8   8   8   8   4
#     4  12  28  42  65 104 148 188 239 288 366 428
#     4  10  22  39  63  98 143 190 238 289 338 422
#     4  12  28  49  76 106 140 185 235 308 369 455
#     4   9  21  41  73  96 133 178 238 288 350 428
#     4   9  19  37  63  95 136 185 241 283 345 408
#     4  12  30  50  83 104 146 180 243 310 392 446
#
# _framework density 23.522973
#
# number of rings (size 3 to 8) (size 9 to 14) (size 15 to 20)
#    0.000    2.000    0.000    4.800   14.000    0.800 
#    0.000    0.000    0.000    0.000    0.000    0.000 
#    0.000    0.000    0.000    0.000    0.000    0.000 
#
# Total GULP energy -223527.935365 kJ/mol
# GULP energy per Si atom -5588.198384 kJ/mol
# Density = 2.346943 g / cm^3
# Si number density = 23.522973 Si / 1000 Ang^3
#
#
#
# Elastic Constant Matrix: (Units=GPa)
#
#
# Indices 1 2 3 4 5 6 
#
# 1 67.6586 35.3891 11.0708 0.0000 0.0000 0.0000
# 2 35.3891 109.3603 7.9098 0.0000 0.0000 0.0000
# 3 11.0708 7.9098 36.7871 0.0000 0.0000 0.0000
# 4 0.0000 0.0000 0.0000 26.1213 0.0000 0.0000
# 5 0.0000 0.0000 0.0000 0.0000 36.2631 0.0000
# 6 0.0000 0.0000 0.0000 0.0000 0.0000 19.1621
#
#
#
# Elastic Compliance Matrix: (Units=1/GPa)
#
#
# Indices 1 2 3 4 5 6 
#
# 1 0.018448 -0.005656 -0.004336 0.000000 0.000000 0.000000
# 2 -0.005656 0.011023 -0.000668 0.000000 0.000000 0.000000
# 3 -0.004336 -0.000668 0.028632 0.000000 0.000000 0.000000
# 4 0.000000 0.000000 0.000000 0.038283 0.000000 0.000000
# 5 0.000000 0.000000 0.000000 0.000000 0.027576 0.000000
# 6 0.000000 0.000000 0.000000 0.000000 0.000000 0.052186
#
#
# Mechanical properties :
#
#
# Convention : Reuss Voigt Hill
#
# Bulk Modulus (GPa) = 27.18633 35.83837 31.51235
# Shear Modulus (GPa) = 23.84036 26.93841 25.38938
#
# Velocity S-wave (km/s) = 3.18699 3.38775 3.28890
# Velocity P-wave (km/s) = 5.01249 5.52910 5.27712
#
# Compressibility (1/GPa) = 0.03678319
#
# Stress axis : x y z
#
# Youngs Moduli (GPa) = 54.20641 90.72151 34.92618
#
# Poissons Ratio (x) = 0.51314 0.15143
# Poissons Ratio (y) = 0.30660 0.02333
# Poissons Ratio (z) = 0.23502 0.06059
#
# Static dielectric constant tensor:
#      x y z
#    x -44.714930 0.000000 0.000000 
#    y 0.000000 1.848600 0.000000 
#    z 0.000000 0.000000 1.918470 
# 
# From -- ./inp_files/3923.got.cif
#   From: 2010.05.17/outbox.cif.g08.bks.cpg/sg60_2_cif.got.tgz:3923.got - 2010.06.03 14:59:27.
