data_PCOD9456649
_publ_section_title
;
Structure prediction by ZEFSAII (Michael W. Deem and Ramdas Pophale) SiO2 
 PCOD9456649
Probable space group: P B C N
;
_chemical_formula_sum "Si O2"
_cell_formula_units_Z 28
_cell_length_a 11.164653
_cell_length_b 10.521106
_cell_length_c 9.633193
_cell_angle_alpha 90.000000
_cell_angle_beta 90.000000
_cell_angle_gamma 90.000000
_cell_volume 1131.558177
_symmetry_space_group_name_H-M "P B C N"
_symmetry_group_IT_number 60
_symmetry_cell_setting 'orthorhombic'
loop_
_space_group_symop_operation_xyz
x,y,z
1/2-x,1/2-y,1/2+z
1/2+x,1/2-y,-z
-x,y,1/2-z
-x,-y,-z
1/2+x,1/2+y,1/2-z
1/2-x,1/2+y,z
x,-y,1/2+z
loop_
_atom_site_type_symbol
_atom_site_label
_atom_site_fract_x
_atom_site_fract_y
_atom_site_fract_z
Si Si1 0.879638 0.414856 0.097920
Si Si2 0.761938 0.052997 0.878359
Si Si3 0.500000 0.601319 0.750000
Si Si4 0.411726 0.193222 0.460312
O O1 0.803279 0.407977 0.236591
O O2 0.982985 0.311190 0.075681
O O3 0.796935 0.435456 0.960776
O O4 0.937831 0.556370 0.111139
O O5 0.899257 0.030354 0.839544
O O6 0.721988 0.167681 0.981852
O O7 0.569233 0.692858 0.642937
#
# Coordination Sequence:
#
# PCOD9456649 Si02
#       4
#     8   8   4   8
#     4   9  19  40  66  83 110 167 214 237 282 377
#     4  10  22  37  63  89 120 158 203 253 300 363
#     4  12  24  36  58  98 132 150 192 266 334 326
#     4   9  21  38  63  86 114 166 202 251 280 380
#
# _framework density 24.744638999999999
#
# number of rings (size 3 to 8) (size 9 to 14) (size 15 to 20)
#    1.714    0.571    0.000    2.571    4.000    1.143 
#    0.000    0.000    0.000    0.000    0.000    0.000 
#    0.000    0.000    0.000    0.000    0.000    0.000 
#
# Total GULP energy -155999.780538 kJ/mol
# GULP energy per Si atom -5571.420734 kJ/mol
# Density = 2.468832 g / cm^3
# Si number density = 24.744639 Si / 1000 Ang^3
#
#
#
# Elastic Constant Matrix: (Units=GPa)
#
#
# Indices 1 2 3 4 5 6 
#
# 1 128.5039 11.2892 40.7789 0.0000 0.0000 0.0000
# 2 11.2892 28.0134 -6.5407 0.0000 0.0000 0.0000
# 3 40.7789 -6.5407 88.7081 0.0000 0.0000 0.0000
# 4 0.0000 0.0000 0.0000 12.7334 0.0000 0.0000
# 5 0.0000 0.0000 0.0000 0.0000 52.6767 0.0000
# 6 0.0000 0.0000 0.0000 0.0000 0.0000 22.3093
#
#
#
# Elastic Compliance Matrix: (Units=1/GPa)
#
#
# Indices 1 2 3 4 5 6 
#
# 1 0.009772 -0.005074 -0.004866 0.000000 0.000000 0.000000
# 2 -0.005074 0.038957 0.005205 0.000000 0.000000 0.000000
# 3 -0.004866 0.005205 0.013894 0.000000 0.000000 0.000000
# 4 0.000000 0.000000 0.000000 0.078534 0.000000 0.000000
# 5 0.000000 0.000000 0.000000 0.000000 0.018984 0.000000
# 6 0.000000 0.000000 0.000000 0.000000 0.000000 0.044824
#
#
# Mechanical properties :
#
#
# Convention : Reuss Voigt Hill
#
# Bulk Modulus (GPa) = 18.81392 37.36445 28.08919
# Shear Modulus (GPa) = 21.53752 30.85707 26.19730
#
# Velocity S-wave (km/s) = 2.95344 3.53515 3.25731
# Velocity P-wave (km/s) = 4.38750 5.63878 5.05203
#
# Compressibility (1/GPa) = 0.05315213
#
# Stress axis : x y z
#
# Youngs Moduli (GPa) = 102.33453 25.66911 71.97499
#
# Poissons Ratio (x) = 0.13025 0.35025
# Poissons Ratio (y) = 0.51926 -0.37463
# Poissons Ratio (z) = 0.49798 -0.13361
#
# Static dielectric constant tensor:
#      x y z
#    x 2.142760 0.000000 0.000000 
#    y 0.000000 1.958200 0.000000 
#    z 0.000000 0.000000 2.019940 
# 
# From -- ./inp_files/4450.got.cif
#   From: 2010.05.17/outbox.cif.g08.bks.cpg/sg60_3_cif.got.tgz:4450.got - 2010.06.03 14:59:27.
