data_PCOD9456331
_publ_section_title
;
Structure prediction by ZEFSAII (Michael W. Deem and Ramdas Pophale) SiO2 
 PCOD9456331
Probable space group: P B C N
;
_chemical_formula_sum "Si O2"
_cell_formula_units_Z 40
_cell_length_a 12.922180
_cell_length_b 14.995304
_cell_length_c 9.637136
_cell_angle_alpha 90.000000
_cell_angle_beta 90.000000
_cell_angle_gamma 90.000000
_cell_volume 1867.407285
_symmetry_space_group_name_H-M "P B C N"
_symmetry_group_IT_number 60
_symmetry_cell_setting 'orthorhombic'
loop_
_space_group_symop_operation_xyz
x,y,z
1/2-x,1/2-y,1/2+z
1/2+x,1/2-y,-z
-x,y,1/2-z
-x,-y,-z
1/2+x,1/2+y,1/2-z
1/2-x,1/2+y,z
x,-y,1/2+z
loop_
_atom_site_type_symbol
_atom_site_label
_atom_site_fract_x
_atom_site_fract_y
_atom_site_fract_z
Si Si1 0.172899 0.988170 0.228167
Si Si2 0.498389 0.909333 0.084630
Si Si3 0.898203 0.241268 0.491157
Si Si4 0.500000 0.348520 0.250000
Si Si5 0.723451 0.104779 0.507742
Si Si6 0.500000 0.369259 0.750000
O O1 0.087778 0.913527 0.182074
O O2 0.236640 0.942764 0.351519
O O3 0.097880 0.067455 0.281932
O O4 0.246759 0.033940 0.113567
O O5 0.500000 0.921566 0.250000
O O6 0.405055 0.845364 0.039547
O O7 0.606054 0.867371 0.032286
O O8 0.500000 0.000000 0.000000
O O9 0.943812 0.212813 0.638507
O O10 0.788013 0.194113 0.479428
O O11 0.968918 0.192540 0.377067
#
# Coordination Sequence:
#
# PCOD9456331 Si02
#       6
#     8   8   8   4   8   4
#     4   9  17  34  63  99 127 162 209 260 323 387
#     4  12  27  48  65  91 132 175 219 273 327 387
#     4  10  21  41  61  95 126 167 217 264 320 384
#     4   9  18  34  63  96 134 158 205 270 320 379
#     4  10  21  41  65  96 124 170 212 257 325 384
#     4   9  16  34  63  92 132 162 203 274 320 371
#
# _framework density 21.420072000000001
#
# number of rings (size 3 to 8) (size 9 to 14) (size 15 to 20)
#    0.000    2.000    1.000    2.400    1.400    4.800 
#   14.400    0.000    0.000    0.000    0.000    0.000 
#    0.000    0.000    0.000    0.000    0.000    0.000 
#
# Total GULP energy -223440.459343 kJ/mol
# GULP energy per Si atom -5586.011484 kJ/mol
# Density = 2.137132 g / cm^3
# Si number density = 21.420072 Si / 1000 Ang^3
#
#
#
# Elastic Constant Matrix: (Units=GPa)
#
#
# Indices 1 2 3 4 5 6 
#
# 1 60.8298 15.0306 23.4660 0.0000 0.0000 0.0000
# 2 15.0306 124.3424 37.7873 0.0000 0.0000 0.0000
# 3 23.4660 37.7873 77.4627 0.0000 0.0000 0.0000
# 4 0.0000 0.0000 0.0000 9.5948 0.0000 0.0000
# 5 0.0000 0.0000 0.0000 0.0000 23.9614 0.0000
# 6 0.0000 0.0000 0.0000 0.0000 0.0000 9.9849
#
#
#
# Elastic Compliance Matrix: (Units=1/GPa)
#
#
# Indices 1 2 3 4 5 6 
#
# 1 0.018657 -0.000631 -0.005344 0.000000 0.000000 0.000000
# 2 -0.000631 0.009463 -0.004425 0.000000 0.000000 0.000000
# 3 -0.005344 -0.004425 0.016687 0.000000 0.000000 0.000000
# 4 0.000000 0.000000 0.000000 0.104224 0.000000 0.000000
# 5 0.000000 0.000000 0.000000 0.000000 0.041734 0.000000
# 6 0.000000 0.000000 0.000000 0.000000 0.000000 0.100151
#
#
# Mechanical properties :
#
#
# Convention : Reuss Voigt Hill
#
# Bulk Modulus (GPa) = 41.65516 46.13362 43.89439
# Shear Modulus (GPa) = 15.63876 21.13161 18.38519
#
# Velocity S-wave (km/s) = 2.70496 3.14432 2.93288
# Velocity P-wave (km/s) = 5.40784 5.89633 5.65736
#
# Compressibility (1/GPa) = 0.02400663
#
# Stress axis : x y z
#
# Youngs Moduli (GPa) = 53.59995 105.67027 59.92738
#
# Poissons Ratio (x) = 0.06671 0.32024
# Poissons Ratio (y) = 0.03384 0.26519
# Poissons Ratio (z) = 0.28643 0.46760
#
# Static dielectric constant tensor:
#      x y z
#    x 1.804300 0.000000 0.000000 
#    y 0.000000 1.801710 0.000000 
#    z 0.000000 0.000000 1.666090 
# 
# From -- ./inp_files/5698.got.cif
#   From: 2010.05.17/outbox.cif.g08.bks.cpg/sg60_3_cif.got.tgz:5698.got - 2010.06.03 14:59:27.
