data_PCOD9456421
_publ_section_title
;
Structure prediction by ZEFSAII (Michael W. Deem and Ramdas Pophale) SiO2 
 PCOD9456421
Probable space group: P B C N
;
_chemical_formula_sum "Si O2"
_cell_formula_units_Z 48
_cell_length_a 7.471441
_cell_length_b 15.862717
_cell_length_c 16.495838
_cell_angle_alpha 90.000000
_cell_angle_beta 90.000000
_cell_angle_gamma 90.000000
_cell_volume 1955.043074
_symmetry_space_group_name_H-M "P B C N"
_symmetry_group_IT_number 60
_symmetry_cell_setting 'orthorhombic'
loop_
_space_group_symop_operation_xyz
x,y,z
1/2-x,1/2-y,1/2+z
1/2+x,1/2-y,-z
-x,y,1/2-z
-x,-y,-z
1/2+x,1/2+y,1/2-z
1/2-x,1/2+y,z
x,-y,1/2+z
loop_
_atom_site_type_symbol
_atom_site_label
_atom_site_fract_x
_atom_site_fract_y
_atom_site_fract_z
Si Si1 0.312728 0.430834 0.793232
Si Si2 0.547363 0.834860 0.009683
Si Si3 0.659055 0.245435 0.681593
Si Si4 0.794550 0.405387 0.271907
Si Si5 0.856801 0.947475 0.051042
Si Si6 0.666298 0.677555 0.936684
O O1 0.500000 0.416920 0.750000
O O2 0.247706 0.337232 0.815660
O O3 0.229384 0.494567 0.728184
O O4 0.328590 0.495293 0.869104
O O5 0.579639 0.779662 0.093392
O O6 0.661666 0.920035 0.019032
O O7 0.333314 0.844512 0.003771
O O8 0.634988 0.777516 0.939875
O O9 0.500000 0.251725 0.750000
O O10 0.779719 0.164548 0.707726
O O11 0.733341 0.366554 0.355444
O O12 0.000000 0.401764 0.250000
O O13 0.969355 0.860203 0.050560
O O14 0.000000 0.000000 0.000000
#
# Coordination Sequence:
#
# PCOD9456421 Si02
#       6
#     8   8   8   8   8   8
#     4  11  22  39  68  99 131 182 240 287 355 429
#     4  12  24  44  71 103 146 190 239 292 360 439
#     4  10  21  41  73  96 135 191 235 293 354 422
#     4  11  21  43  70  97 138 183 237 298 353 420
#     4  12  26  43  70 103 145 185 236 296 361 430
#     4  12  24  43  70 102 142 191 231 293 364 421
#
# _framework density 24.551888999999999
#
# number of rings (size 3 to 8) (size 9 to 14) (size 15 to 20)
#    0.000    0.667    8.333    1.000    0.000    0.667 
#    0.000    4.167    0.000    0.000    0.000    0.000 
#    0.000    0.000    0.000    0.000    0.000    0.000 
#
# Total GULP energy -267308.681679 kJ/mol
# GULP energy per Si atom -5568.930868 kJ/mol
# Density = 2.449601 g / cm^3
# Si number density = 24.551889 Si / 1000 Ang^3
#
#
#
# Elastic Constant Matrix: (Units=GPa)
#
#
# Indices 1 2 3 4 5 6 
#
# 1 90.1247 6.3375 -11.0997 0.0000 0.0000 0.0000
# 2 6.3375 155.6945 -2.8469 0.0000 0.0000 0.0000
# 3 -11.0997 -2.8469 31.9072 0.0000 0.0000 0.0000
# 4 0.0000 0.0000 0.0000 31.1675 0.0000 0.0000
# 5 0.0000 0.0000 0.0000 0.0000 24.3273 0.0000
# 6 0.0000 0.0000 0.0000 0.0000 0.0000 29.6155
#
#
#
# Elastic Compliance Matrix: (Units=1/GPa)
#
#
# Indices 1 2 3 4 5 6 
#
# 1 0.011617 -0.000400 0.004006 0.000000 0.000000 0.000000
# 2 -0.000400 0.006447 0.000436 0.000000 0.000000 0.000000
# 3 0.004006 0.000436 0.032773 0.000000 0.000000 0.000000
# 4 0.000000 0.000000 0.000000 0.032085 0.000000 0.000000
# 5 0.000000 0.000000 0.000000 0.000000 0.041106 0.000000
# 6 0.000000 0.000000 0.000000 0.000000 0.000000 0.033766
#
#
# Mechanical properties :
#
#
# Convention : Reuss Voigt Hill
#
# Bulk Modulus (GPa) = 16.97159 29.16756 23.06958
# Shear Modulus (GPa) = 29.52456 36.04443 32.78450
#
# Velocity S-wave (km/s) = 3.47152 3.83573 3.65816
# Velocity P-wave (km/s) = 4.79543 5.61452 5.22106
#
# Compressibility (1/GPa) = 0.05892199
#
# Stress axis : x y z
#
# Youngs Moduli (GPa) = 86.07948 155.10902 30.51269
#
# Poissons Ratio (x) = 0.06199 -0.12222
# Poissons Ratio (y) = 0.03440 -0.01331
# Poissons Ratio (z) = -0.34480 -0.06766
#
# Static dielectric constant tensor:
#      x y z
#    x 1.972550 0.000000 0.000000 
#    y 0.000000 2.616560 0.000000 
#    z 0.000000 0.000000 2.166340 
# 
# From -- ./inp_files/19308.got.cif
#   From: 2010.05.17/outbox.cif.g08.bks.cpg/sg60_10_cif.got.tgz:19308.got - 2010.06.03 14:59:27.
