data_PCOD9456324
_publ_section_title
;
Structure prediction by ZEFSAII (Michael W. Deem and Ramdas Pophale) SiO2 
 PCOD9456324
Probable space group: P B C N
;
_chemical_formula_sum "Si O2"
_cell_formula_units_Z 48
_cell_length_a 9.378068
_cell_length_b 14.567031
_cell_length_c 14.697118
_cell_angle_alpha 90.000000
_cell_angle_beta 90.000000
_cell_angle_gamma 90.000000
_cell_volume 2007.782215
_symmetry_space_group_name_H-M "P B C N"
_symmetry_group_IT_number 60
_symmetry_cell_setting 'orthorhombic'
loop_
_space_group_symop_operation_xyz
x,y,z
1/2-x,1/2-y,1/2+z
1/2+x,1/2-y,-z
-x,y,1/2-z
-x,-y,-z
1/2+x,1/2+y,1/2-z
1/2-x,1/2+y,z
x,-y,1/2+z
loop_
_atom_site_type_symbol
_atom_site_label
_atom_site_fract_x
_atom_site_fract_y
_atom_site_fract_z
Si Si1 0.310018 0.395173 0.615697
Si Si2 0.301582 0.125822 0.310780
Si Si3 0.938095 0.999326 0.647469
Si Si4 0.985191 0.599321 0.457092
Si Si5 0.080781 0.307891 0.124665
Si Si6 0.265216 0.161602 0.798977
O O1 0.231171 0.414118 0.711364
O O2 0.419595 0.476024 0.590175
O O3 0.397433 0.301286 0.632775
O O4 0.181461 0.376245 0.546815
O O5 0.176577 0.080335 0.370756
O O6 0.447718 0.099208 0.357420
O O7 0.292109 0.235132 0.306216
O O8 0.000000 0.987486 0.750000
O O9 0.846617 0.092590 0.654710
O O10 0.080548 0.665368 0.519601
O O11 0.000000 0.500000 0.500000
O O12 0.199051 0.353315 0.191119
O O13 0.923400 0.338556 0.157625
#
# Coordination Sequence:
#
# PCOD9456324 Si02
#       6
#     8   8   8   8   8   8
#     4  10  23  46  73  99 142 189 238 293 364 443
#     4  10  22  45  71  99 138 188 237 290 362 439
#     4  10  21  40  74 100 130 180 242 288 346 431
#     4  12  27  43  67 106 145 185 237 303 373 426
#     4  10  23  43  69 102 140 183 231 297 360 432
#     4  10  21  43  74 101 135 185 238 291 363 427
#
# _framework density 23.906974999999999
#
# number of rings (size 3 to 8) (size 9 to 14) (size 15 to 20)
#    0.000    1.667    1.667    1.500    7.000    2.667 
#    0.000    3.333    0.000    0.000    0.000    0.000 
#    0.000    0.000    0.000    0.000    0.000    0.000 
#
# Total GULP energy -268152.545169 kJ/mol
# GULP energy per Si atom -5586.511358 kJ/mol
# Density = 2.385256 g / cm^3
# Si number density = 23.906975 Si / 1000 Ang^3
#
#
#
# Elastic Constant Matrix: (Units=GPa)
#
#
# Indices 1 2 3 4 5 6 
#
# 1 133.5983 79.8607 30.7959 0.0000 0.0000 0.0000
# 2 79.8607 110.0774 26.3351 0.0000 0.0000 0.0000
# 3 30.7959 26.3351 72.9316 0.0000 0.0000 0.0000
# 4 0.0000 0.0000 0.0000 17.5527 0.0000 0.0000
# 5 0.0000 0.0000 0.0000 0.0000 30.5502 0.0000
# 6 0.0000 0.0000 0.0000 0.0000 0.0000 32.5969
#
#
#
# Elastic Compliance Matrix: (Units=1/GPa)
#
#
# Indices 1 2 3 4 5 6 
#
# 1 0.013585 -0.009286 -0.002383 0.000000 0.000000 0.000000
# 2 -0.009286 0.016291 -0.001961 0.000000 0.000000 0.000000
# 3 -0.002383 -0.001961 0.015426 0.000000 0.000000 0.000000
# 4 0.000000 0.000000 0.000000 0.056971 0.000000 0.000000
# 5 0.000000 0.000000 0.000000 0.000000 0.032733 0.000000
# 6 0.000000 0.000000 0.000000 0.000000 0.000000 0.030678
#
#
# Mechanical properties :
#
#
# Convention : Reuss Voigt Hill
#
# Bulk Modulus (GPa) = 55.43032 65.62118 60.52575
# Shear Modulus (GPa) = 25.13078 28.11433 26.62255
#
# Velocity S-wave (km/s) = 3.24572 3.43299 3.34067
# Velocity P-wave (km/s) = 6.10594 6.57435 6.34447
#
# Compressibility (1/GPa) = 0.01804067
#
# Stress axis : x y z
#
# Youngs Moduli (GPa) = 73.60885 61.38492 64.82500
#
# Poissons Ratio (x) = 0.57001 0.15451
# Poissons Ratio (y) = 0.68352 0.12715
# Poissons Ratio (z) = 0.17544 0.12040
#
# Static dielectric constant tensor:
#      x y z
#    x 1.888260 0.000000 0.000000 
#    y 0.000000 1.898830 0.000000 
#    z 0.000000 0.000000 1.997370 
# 
# From -- ./inp_files/19335.got.cif
#   From: 2010.05.17/outbox.cif.g08.bks.cpg/sg60_10_cif.got.tgz:19335.got - 2010.06.03 14:59:27.
