data_PCOD9456029
_publ_section_title
;
Structure prediction by ZEFSAII (Michael W. Deem and Ramdas Pophale) SiO2 
 PCOD9456029
Probable space group: P B C N
;
_chemical_formula_sum "Si O2"
_cell_formula_units_Z 60
_cell_length_a 17.584748
_cell_length_b 9.417079
_cell_length_c 17.436414
_cell_angle_alpha 90.000000
_cell_angle_beta 90.000000
_cell_angle_gamma 90.000000
_cell_volume 2887.417171
_symmetry_space_group_name_H-M "P B C N"
_symmetry_group_IT_number 60
_symmetry_cell_setting 'orthorhombic'
loop_
_space_group_symop_operation_xyz
x,y,z
1/2-x,1/2-y,1/2+z
1/2+x,1/2-y,-z
-x,y,1/2-z
-x,-y,-z
1/2+x,1/2+y,1/2-z
1/2-x,1/2+y,z
x,-y,1/2+z
loop_
_atom_site_type_symbol
_atom_site_label
_atom_site_fract_x
_atom_site_fract_y
_atom_site_fract_z
Si Si1 0.674742 0.864800 0.674118
Si Si2 0.000000 0.969807 0.250000
Si Si3 0.779588 0.795802 0.320298
Si Si4 0.973960 0.247259 0.609941
Si Si5 0.622856 0.767881 0.967647
Si Si6 0.120248 0.948047 0.504025
Si Si7 0.854418 0.901316 0.819025
Si Si8 0.268512 0.121854 0.909974
O O1 0.674125 0.796140 0.758038
O O2 0.589849 0.852452 0.641828
O O3 0.730430 0.762370 0.624656
O O4 0.709234 0.018558 0.659237
O O5 0.005012 0.865835 0.323400
O O6 0.075003 0.065489 0.236739
O O7 0.810351 0.755295 0.404775
O O8 0.693893 0.741380 0.307880
O O9 0.798595 0.961642 0.311043
O O10 0.932636 0.154071 0.544961
O O11 0.048773 0.322152 0.576822
O O12 0.598494 0.612696 0.997761
O O13 0.657989 0.852750 0.037703
O O14 0.119519 0.903443 0.592661
O O15 0.203855 0.940802 0.466047
#
# Coordination Sequence:
#
# PCOD9456029 Si02
#       8
#     8   4   8   8   8   8   8   8
#     4  11  23  38  60  89 124 157 207 257 312 372
#     4  12  22  38  62  98 124 168 210 258 320 384
#     4  11  22  40  63  93 121 166 209 261 309 379
#     4  11  22  38  62  91 125 164 206 256 314 377
#     4  11  21  38  64  88 122 161 210 255 311 372
#     4  10  21  38  61  90 121 162 203 259 301 372
#     4  11  23  39  67  91 124 164 212 258 317 374
#     4  11  22  38  60  90 119 161 207 256 307 367
#
# _framework density 20.779816
#
# number of rings (size 3 to 8) (size 9 to 14) (size 15 to 20)
#    0.000    1.067    6.667    1.200    1.867    0.533 
#    0.000    0.000    0.000    0.800    0.000    0.000 
#    0.000    0.000    0.000    0.000    0.000    0.000 
#
# Total GULP energy -335229.606471 kJ/mol
# GULP energy per Si atom -5587.160108 kJ/mol
# Density = 2.073252 g / cm^3
# Si number density = 20.779816 Si / 1000 Ang^3
#
#
#
# Elastic Constant Matrix: (Units=GPa)
#
#
# Indices 1 2 3 4 5 6 
#
# 1 75.2038 14.3121 -10.9880 0.0000 0.0000 0.0000
# 2 14.3121 20.2855 4.7236 0.0000 0.0000 0.0000
# 3 -10.9880 4.7236 62.7741 0.0000 0.0000 0.0000
# 4 0.0000 0.0000 0.0000 19.5403 0.0000 0.0000
# 5 0.0000 0.0000 0.0000 0.0000 24.1829 0.0000
# 6 0.0000 0.0000 0.0000 0.0000 0.0000 18.1585
#
#
#
# Elastic Compliance Matrix: (Units=1/GPa)
#
#
# Indices 1 2 3 4 5 6 
#
# 1 0.016186 -0.012295 0.003758 0.000000 0.000000 0.000000
# 2 -0.012295 0.059515 -0.006630 0.000000 0.000000 0.000000
# 3 0.003758 -0.006630 0.017087 0.000000 0.000000 0.000000
# 4 0.000000 0.000000 0.000000 0.051176 0.000000 0.000000
# 5 0.000000 0.000000 0.000000 0.000000 0.041351 0.000000
# 6 0.000000 0.000000 0.000000 0.000000 0.000000 0.055071
#
#
# Mechanical properties :
#
#
# Convention : Reuss Voigt Hill
#
# Bulk Modulus (GPa) = 16.01187 19.37318 17.69253
# Shear Modulus (GPa) = 17.15042 22.39074 19.77058
#
# Velocity S-wave (km/s) = 2.87599 3.28613 3.08788
# Velocity P-wave (km/s) = 4.33020 4.87252 4.60935
#
# Compressibility (1/GPa) = 0.06245365
#
# Stress axis : x y z
#
# Youngs Moduli (GPa) = 61.78100 16.80260 58.52420
#
# Poissons Ratio (x) = 0.20659 -0.21996
# Poissons Ratio (y) = 0.75960 0.38804
# Poissons Ratio (z) = -0.23220 0.11141
#
# Static dielectric constant tensor:
#      x y z
#    x 1.792380 0.000000 0.000000 
#    y 0.000000 1.704030 0.000000 
#    z 0.000000 0.000000 1.747490 
# 
# From -- ./inp_files/20893.got.cif
#   From: 2010.05.17/outbox.cif.g08.bks.cpg/sg60_11_cif.got.tgz:20893.got - 2010.06.03 14:59:27.
