data_PCOD9456930
_publ_section_title
;
Structure prediction by ZEFSAII (Michael W. Deem and Ramdas Pophale) SiO2 
 PCOD9456930
Probable space group: P B C N
;
_chemical_formula_sum "Si O2"
_cell_formula_units_Z 32
_cell_length_a 13.238909
_cell_length_b 13.374998
_cell_length_c 8.298984
_cell_angle_alpha 90.000000
_cell_angle_beta 90.000000
_cell_angle_gamma 90.000000
_cell_volume 1469.504262
_symmetry_space_group_name_H-M "P B C N"
_symmetry_group_IT_number 60
_symmetry_cell_setting 'orthorhombic'
loop_
_space_group_symop_operation_xyz
x,y,z
1/2-x,1/2-y,1/2+z
1/2+x,1/2-y,-z
-x,y,1/2-z
-x,-y,-z
1/2+x,1/2+y,1/2-z
1/2-x,1/2+y,z
x,-y,1/2+z
loop_
_atom_site_type_symbol
_atom_site_label
_atom_site_fract_x
_atom_site_fract_y
_atom_site_fract_z
Si Si1 0.699019 0.374875 0.358666
Si Si2 0.117097 0.524443 0.468097
Si Si3 0.612612 0.550733 0.189732
Si Si4 0.302636 0.139736 0.158221
O O1 0.813675 0.408358 0.408440
O O2 0.654385 0.438619 0.212267
O O3 0.631858 0.411325 0.510509
O O4 0.685411 0.257589 0.338708
O O5 0.165760 0.414445 0.493433
O O6 0.134655 0.582133 0.299819
O O7 0.000000 0.500000 0.500000
O O8 0.500000 0.558513 0.250000
O O9 0.687112 0.615368 0.301346
#
# Coordination Sequence:
#
# PCOD9456930 Si02
#       4
#     8   8   8   8
#     4  10  23  41  64  94 130 167 209 265 322 381
#     4  10  22  41  64  93 128 169 219 269 321 387
#     4  10  22  41  64  92 125 162 211 262 315 381
#     4  10  23  41  62  93 130 168 212 266 321 381
#
# _framework density 21.776050999999999
#
# number of rings (size 3 to 8) (size 9 to 14) (size 15 to 20)
#    0.000    2.000    0.000    1.500    0.000   20.000 
#    0.000    0.000    0.000    0.000    0.000    0.000 
#    0.000    0.000    0.000    0.000    0.000    0.000 
#
# Total GULP energy -178653.720303 kJ/mol
# GULP energy per Si atom -5582.928759 kJ/mol
# Density = 2.172649 g / cm^3
# Si number density = 21.776051 Si / 1000 Ang^3
#
#
#
# Elastic Constant Matrix: (Units=GPa)
#
#
# Indices 1 2 3 4 5 6 
#
# 1 198.9584 57.8351 62.8148 0.0000 0.0000 0.0000
# 2 57.8351 236.0335 62.3025 0.0000 0.0000 0.0000
# 3 62.8148 62.3025 79.5837 0.0000 0.0000 0.0000
# 4 0.0000 0.0000 0.0000 18.3195 0.0000 0.0000
# 5 0.0000 0.0000 0.0000 0.0000 16.0109 0.0000
# 6 0.0000 0.0000 0.0000 0.0000 0.0000 -0.9342
#
#
#
# Elastic Compliance Matrix: (Units=1/GPa)
#
#
# Indices 1 2 3 4 5 6 
#
# 1 0.006712 -0.000310 -0.005055 0.000000 0.000000 0.000000
# 2 -0.000310 0.005355 -0.003947 0.000000 0.000000 0.000000
# 3 -0.005055 -0.003947 0.019645 0.000000 0.000000 0.000000
# 4 0.000000 0.000000 0.000000 0.054587 0.000000 0.000000
# 5 0.000000 0.000000 0.000000 0.000000 0.062457 0.000000
# 6 0.000000 0.000000 0.000000 0.000000 0.000000 -1.070471
#
#
# Mechanical properties :
#
#
# Convention : Reuss Voigt Hill
#
# Bulk Modulus (GPa) = 76.40893 97.83115 87.12004
# Shear Modulus (GPa) = -5.56342 28.78746 11.61202
#
# Velocity S-wave (km/s) = -1.60012 3.63985 2.31172
# Velocity P-wave (km/s) = 5.63479 7.91759 6.87165
#
# Compressibility (1/GPa) = 0.01308748
#
# Stress axis : x y z
#
# Youngs Moduli (GPa) = 148.97867 186.75753 50.90340
#
# Poissons Ratio (x) = 0.05797 0.25732
# Poissons Ratio (y) = 0.04625 0.20091
# Poissons Ratio (z) = 0.75309 0.73710
#
# Static dielectric constant tensor:
#      x y z
#    x 1.807050 0.000000 0.000000 
#    y 0.000000 1.769450 0.000000 
#    z 0.000000 0.000000 1.911620 
# 
# From -- ./inp_files/5538.got.cif
#   From: 2010.05.17/outbox.cif.g08.bks.cpg/sg60_3_cif.got.tgz:5538.got - 2010.06.03 14:59:27.
