data_PCOD9456901
_publ_section_title
;
Structure prediction by ZEFSAII (Michael W. Deem and Ramdas Pophale) SiO2 
 PCOD9456901
Probable space group: P B C N
;
_chemical_formula_sum "Si O2"
_cell_formula_units_Z 28
_cell_length_a 5.052867
_cell_length_b 14.936836
_cell_length_c 16.041558
_cell_angle_alpha 90.000000
_cell_angle_beta 90.000000
_cell_angle_gamma 90.000000
_cell_volume 1210.718073
_symmetry_space_group_name_H-M "P B C N"
_symmetry_group_IT_number 60
_symmetry_cell_setting 'orthorhombic'
loop_
_space_group_symop_operation_xyz
x,y,z
1/2-x,1/2-y,1/2+z
1/2+x,1/2-y,-z
-x,y,1/2-z
-x,-y,-z
1/2+x,1/2+y,1/2-z
1/2-x,1/2+y,z
x,-y,1/2+z
loop_
_atom_site_type_symbol
_atom_site_label
_atom_site_fract_x
_atom_site_fract_y
_atom_site_fract_z
Si Si1 0.377065 0.193758 0.487433
Si Si2 0.000000 0.029201 0.750000
Si Si3 0.082789 0.392704 0.830298
Si Si4 0.302004 0.472321 0.077187
O O1 0.657974 0.240177 0.476184
O O2 0.265560 0.165496 0.397229
O O3 0.390546 0.102914 0.540405
O O4 0.234621 0.966801 0.786334
O O5 0.080646 0.073159 0.662013
O O6 0.000000 0.335873 0.750000
O O7 0.855761 0.443067 0.884276
O O8 0.500000 0.500000 0.000000
#
# Coordination Sequence:
#
# PCOD9456901 Si02
#       4
#     8   4   8   8
#     4  12  27  44  68 103 145 182 217 283 368 416
#     4  10  22  40  74 102 124 176 258 284 330 402
#     4  10  23  44  71  98 131 186 242 286 336 419
#     4  11  22  44  75  97 134 182 244 284 337 420
#
# _framework density 23.126774000000001
#
# number of rings (size 3 to 8) (size 9 to 14) (size 15 to 20)
#    0.000    1.143    2.857    2.571    8.000    0.000 
#    2.571    0.000    0.000    0.000    0.000    0.000 
#    0.000    0.000    0.000    0.000    0.000    0.000 
#
# Total GULP energy -155983.540750 kJ/mol
# GULP energy per Si atom -5570.840741 kJ/mol
# Density = 2.307414 g / cm^3
# Si number density = 23.126774 Si / 1000 Ang^3
#
#
#
# Elastic Constant Matrix: (Units=GPa)
#
#
# Indices 1 2 3 4 5 6 
#
# 1 76.5088 8.0232 20.1252 0.0000 0.0000 0.0000
# 2 8.0232 48.2499 28.1965 0.0000 0.0000 0.0000
# 3 20.1252 28.1965 201.9506 0.0000 0.0000 0.0000
# 4 0.0000 0.0000 0.0000 2.0691 0.0000 0.0000
# 5 0.0000 0.0000 0.0000 0.0000 54.0048 0.0000
# 6 0.0000 0.0000 0.0000 0.0000 0.0000 6.4294
#
#
#
# Elastic Compliance Matrix: (Units=1/GPa)
#
#
# Indices 1 2 3 4 5 6 
#
# 1 0.013534 -0.001592 -0.001126 0.000000 0.000000 0.000000
# 2 -0.001592 0.022754 -0.003018 0.000000 0.000000 0.000000
# 3 -0.001126 -0.003018 0.005485 0.000000 0.000000 0.000000
# 4 0.000000 0.000000 0.000000 0.483301 0.000000 0.000000
# 5 0.000000 0.000000 0.000000 0.000000 0.018517 0.000000
# 6 0.000000 0.000000 0.000000 0.000000 0.000000 0.155536
#
#
# Mechanical properties :
#
#
# Convention : Reuss Voigt Hill
#
# Bulk Modulus (GPa) = 33.00402 48.82213 40.91307
# Shear Modulus (GPa) = 6.93770 30.52495 18.73133
#
# Velocity S-wave (km/s) = 1.73389 3.63698 2.84903
# Velocity P-wave (km/s) = 4.27906 6.22843 5.34339
#
# Compressibility (1/GPa) = 0.03029934
#
# Stress axis : x y z
#
# Youngs Moduli (GPa) = 73.88990 43.94828 182.30322
#
# Poissons Ratio (x) = 0.06997 0.20534
# Poissons Ratio (y) = 0.11765 0.55024
# Poissons Ratio (z) = 0.08323 0.13265
#
# Static dielectric constant tensor:
#      x y z
#    x 2.135290 0.000000 0.000000 
#    y 0.000000 1.892640 0.000000 
#    z 0.000000 0.000000 2.493270 
# 
# From -- ./inp_files/13547.got.cif
#   From: 2010.05.17/outbox.cif.g08.bks.cpg/sg60_7_cif.got.tgz:13547.got - 2010.06.03 14:59:27.
