data_PCOD9456964
_publ_section_title
;
Structure prediction by ZEFSAII (Michael W. Deem and Ramdas Pophale) SiO2 
 PCOD9456964
Probable space group: P B C N
;
_chemical_formula_sum "Si O2"
_cell_formula_units_Z 32
_cell_length_a 5.104190
_cell_length_b 14.720687
_cell_length_c 16.628096
_cell_angle_alpha 90.000000
_cell_angle_beta 90.000000
_cell_angle_gamma 90.000000
_cell_volume 1249.388298
_symmetry_space_group_name_H-M "P B C N"
_symmetry_group_IT_number 60
_symmetry_cell_setting 'orthorhombic'
loop_
_space_group_symop_operation_xyz
x,y,z
1/2-x,1/2-y,1/2+z
1/2+x,1/2-y,-z
-x,y,1/2-z
-x,-y,-z
1/2+x,1/2+y,1/2-z
1/2-x,1/2+y,z
x,-y,1/2+z
loop_
_atom_site_type_symbol
_atom_site_label
_atom_site_fract_x
_atom_site_fract_y
_atom_site_fract_z
Si Si1 0.475615 0.801875 0.963444
Si Si2 0.563050 0.930838 0.091852
Si Si3 0.595442 0.727380 0.159297
Si Si4 0.064589 0.968656 0.654565
O O1 0.394695 0.793043 0.869938
O O2 0.218386 0.759331 0.008205
O O3 0.508942 0.902579 0.999218
O O4 0.552626 0.829870 0.130876
O O5 0.845753 0.973443 0.107728
O O6 0.342924 0.988159 0.136507
O O7 0.500000 0.727237 0.250000
O O8 0.454576 0.635976 0.126164
O O9 0.000000 0.972522 0.750000
#
# Coordination Sequence:
#
# PCOD9456964 Si02
#       4
#     8   8   8   8
#     4  10  22  41  66  97 131 175 228 270 329 409
#     4  11  23  42  66  92 133 175 215 278 334 388
#     4  10  23  43  67  95 132 173 218 279 335 389
#     4  11  24  40  64  98 128 170 227 267 327 408
#
# _framework density 25.612532999999999
#
# number of rings (size 3 to 8) (size 9 to 14) (size 15 to 20)
#    0.000    1.500    0.000    5.250    0.000    8.000 
#    0.000   11.250    0.000    0.000    0.000    0.000 
#    0.000    0.000    0.000    0.000    0.000    0.000 
#
# Total GULP energy -179107.993478 kJ/mol
# GULP energy per Si atom -5597.124796 kJ/mol
# Density = 2.555424 g / cm^3
# Si number density = 25.612533 Si / 1000 Ang^3
#
#
#
# Elastic Constant Matrix: (Units=GPa)
#
#
# Indices 1 2 3 4 5 6 
#
# 1 107.3676 29.9292 9.7570 0.0000 0.0000 0.0000
# 2 29.9292 177.4426 19.0106 0.0000 0.0000 0.0000
# 3 9.7570 19.0106 125.7934 0.0000 0.0000 0.0000
# 4 0.0000 0.0000 0.0000 39.5099 0.0000 0.0000
# 5 0.0000 0.0000 0.0000 0.0000 43.9637 0.0000
# 6 0.0000 0.0000 0.0000 0.0000 0.0000 45.7386
#
#
#
# Elastic Compliance Matrix: (Units=1/GPa)
#
#
# Indices 1 2 3 4 5 6 
#
# 1 0.009807 -0.001598 -0.000519 0.000000 0.000000 0.000000
# 2 -0.001598 0.005989 -0.000781 0.000000 0.000000 0.000000
# 3 -0.000519 -0.000781 0.008108 0.000000 0.000000 0.000000
# 4 0.000000 0.000000 0.000000 0.025310 0.000000 0.000000
# 5 0.000000 0.000000 0.000000 0.000000 0.022746 0.000000
# 6 0.000000 0.000000 0.000000 0.000000 0.000000 0.021863
#
#
# Mechanical properties :
#
#
# Convention : Reuss Voigt Hill
#
# Bulk Modulus (GPa) = 55.23010 58.66637 56.94824
# Shear Modulus (GPa) = 47.32364 49.30289 48.31326
#
# Velocity S-wave (km/s) = 4.30312 4.39219 4.34788
# Velocity P-wave (km/s) = 6.80439 6.97688 6.89117
#
# Compressibility (1/GPa) = 0.01810607
#
# Stress axis : x y z
#
# Youngs Moduli (GPa) = 101.97278 166.97506 123.33732
#
# Poissons Ratio (x) = 0.26690 0.06402
# Poissons Ratio (y) = 0.16300 0.09634
# Poissons Ratio (z) = 0.05293 0.13042
#
# Static dielectric constant tensor:
#      x y z
#    x 2.016050 0.000000 0.000000 
#    y 0.000000 1.979630 0.000000 
#    z 0.000000 0.000000 2.190020 
# 
# From -- ./inp_files/18405.got.cif
#   From: 2010.05.17/outbox.cif.g08.bks.cpg/sg60_10_cif.got.tgz:18405.got - 2010.06.03 14:59:27.
