data_PCOD9456351
_publ_section_title
;
Structure prediction by ZEFSAII (Michael W. Deem and Ramdas Pophale) SiO2 
 PCOD9456351
Probable space group: P B C N
;
_chemical_formula_sum "Si O2"
_cell_formula_units_Z 56
_cell_length_a 8.373738
_cell_length_b 13.636584
_cell_length_c 21.759981
_cell_angle_alpha 90.000000
_cell_angle_beta 90.000000
_cell_angle_gamma 90.000000
_cell_volume 2484.754423
_symmetry_space_group_name_H-M "P B C N"
_symmetry_group_IT_number 60
_symmetry_cell_setting 'orthorhombic'
loop_
_space_group_symop_operation_xyz
x,y,z
1/2-x,1/2-y,1/2+z
1/2+x,1/2-y,-z
-x,y,1/2-z
-x,-y,-z
1/2+x,1/2+y,1/2-z
1/2-x,1/2+y,z
x,-y,1/2+z
loop_
_atom_site_type_symbol
_atom_site_label
_atom_site_fract_x
_atom_site_fract_y
_atom_site_fract_z
Si Si1 0.767112 0.876428 0.331990
Si Si2 0.289082 0.066816 0.117878
Si Si3 0.230359 0.268987 0.928541
Si Si4 0.500000 0.189045 0.750000
Si Si5 0.546715 0.118390 0.500826
Si Si6 0.941764 0.135756 0.159874
Si Si7 0.500000 0.510830 0.750000
Si Si8 0.018901 0.288815 0.677008
O O1 0.638853 0.874002 0.278474
O O2 0.822223 0.767958 0.346146
O O3 0.713515 0.948405 0.385445
O O4 0.922575 0.921618 0.300630
O O5 0.325067 0.116866 0.054151
O O6 0.119913 0.099898 0.145044
O O7 0.436068 0.099484 0.161217
O O8 0.344315 0.355280 0.902455
O O9 0.106546 0.314861 0.979021
O O10 0.120727 0.250472 0.867577
O O11 0.349200 0.179010 0.947714
O O12 0.554527 0.260562 0.694870
O O13 0.500000 0.000000 0.500000
O O14 0.881071 0.060618 0.212311
O O15 0.000000 0.277486 0.750000
#
# Coordination Sequence:
#
# PCOD9456351 Si02
#       8
#     8   8   8   4   8   8   4   8
#     4  11  22  36  59  96 135 178 217 275 338 418
#     4  10  24  42  64  93 136 175 230 291 338 419
#     4  11  26  45  77  95 144 183 233 306 353 420
#     4  11  22  34  65  96 136 180 221 262 349 442
#     4  11  27  49  71 105 131 185 249 295 355 422
#     4  10  21  41  63  93 132 182 218 279 354 415
#     4   9  22  36  57  94 140 170 227 266 345 428
#     4  11  23  43  64 104 139 180 226 279 361 426
#
# _framework density 22.537438000000002
#
# number of rings (size 3 to 8) (size 9 to 14) (size 15 to 20)
#    0.000    1.429    2.143    1.714    7.000    5.714 
#    0.000    2.143    0.000    0.000    0.000    0.000 
#    0.000    0.000    0.000    0.000    0.000    0.000 
#
# Total GULP energy -311766.950025 kJ/mol
# GULP energy per Si atom -5567.266965 kJ/mol
# Density = 2.248614 g / cm^3
# Si number density = 22.537438 Si / 1000 Ang^3
#
#
#
# Elastic Constant Matrix: (Units=GPa)
#
#
# Indices 1 2 3 4 5 6 
#
# 1 74.1979 13.7743 25.7100 0.0000 0.0000 0.0000
# 2 13.7743 63.0599 12.2060 0.0000 0.0000 0.0000
# 3 25.7100 12.2060 77.3799 0.0000 0.0000 0.0000
# 4 0.0000 0.0000 0.0000 21.8666 0.0000 0.0000
# 5 0.0000 0.0000 0.0000 0.0000 44.5573 0.0000
# 6 0.0000 0.0000 0.0000 0.0000 0.0000 6.5608
#
#
#
# Elastic Compliance Matrix: (Units=1/GPa)
#
#
# Indices 1 2 3 4 5 6 
#
# 1 0.015598 -0.002480 -0.004791 0.000000 0.000000 0.000000
# 2 -0.002480 0.016752 -0.001819 0.000000 0.000000 0.000000
# 3 -0.004791 -0.001819 0.014802 0.000000 0.000000 0.000000
# 4 0.000000 0.000000 0.000000 0.045732 0.000000 0.000000
# 5 0.000000 0.000000 0.000000 0.000000 0.022443 0.000000
# 6 0.000000 0.000000 0.000000 0.000000 0.000000 0.152420
#
#
# Mechanical properties :
#
#
# Convention : Reuss Voigt Hill
#
# Bulk Modulus (GPa) = 34.51551 35.33538 34.92544
# Shear Modulus (GPa) = 16.91570 25.46010 21.18790
#
# Velocity S-wave (km/s) = 2.74261 3.36472 3.06946
# Velocity P-wave (km/s) = 5.03758 5.55047 5.30023
#
# Compressibility (1/GPa) = 0.02897248
#
# Stress axis : x y z
#
# Youngs Moduli (GPa) = 64.11059 59.69583 67.55803
#
# Poissons Ratio (x) = 0.14803 0.32370
# Poissons Ratio (y) = 0.15897 0.12286
# Poissons Ratio (z) = 0.30718 0.10856
#
# Static dielectric constant tensor:
#      x y z
#    x 1.898950 0.000000 0.000000 
#    y 0.000000 1.933720 0.000000 
#    z 0.000000 0.000000 1.808560 
# 
# From -- ./inp_files/22258.got.cif
#   From: 2010.05.17/outbox.cif.g08.bks.cpg/sg60_12_cif.got.tgz:22258.got - 2010.06.03 14:59:27.
