data_PCOD9456641
_publ_section_title
;
Structure prediction by ZEFSAII (Michael W. Deem and Ramdas Pophale) SiO2 
 PCOD9456641
Probable space group: P B C N
;
_chemical_formula_sum "Si O2"
_cell_formula_units_Z 52
_cell_length_a 7.222978
_cell_length_b 18.291038
_cell_length_c 16.018169
_cell_angle_alpha 90.000000
_cell_angle_beta 90.000000
_cell_angle_gamma 90.000000
_cell_volume 2116.252652
_symmetry_space_group_name_H-M "P B C N"
_symmetry_group_IT_number 60
_symmetry_cell_setting 'orthorhombic'
loop_
_space_group_symop_operation_xyz
x,y,z
1/2-x,1/2-y,1/2+z
1/2+x,1/2-y,-z
-x,y,1/2-z
-x,-y,-z
1/2+x,1/2+y,1/2-z
1/2-x,1/2+y,z
x,-y,1/2+z
loop_
_atom_site_type_symbol
_atom_site_label
_atom_site_fract_x
_atom_site_fract_y
_atom_site_fract_z
Si Si1 0.251348 0.051703 0.065429
Si Si2 0.000000 0.218195 0.750000
Si Si3 0.310555 0.006457 0.728038
Si Si4 0.670907 0.199739 0.112763
Si Si5 0.298777 0.964251 0.905123
Si Si6 0.147677 0.332328 0.178981
Si Si7 0.248406 0.715753 0.046310
O O1 0.186796 0.032488 0.159186
O O2 0.477995 0.044482 0.076175
O O3 0.182179 0.132744 0.043685
O O4 0.212621 0.998104 0.988608
O O5 0.152075 0.267817 0.795450
O O6 0.131854 0.167888 0.696274
O O7 0.500000 0.961437 0.750000
O O8 0.243652 0.012735 0.823560
O O9 0.380376 0.079862 0.679551
O O10 0.754319 0.119655 0.110420
O O11 0.454727 0.204345 0.085440
O O12 0.765118 0.252057 0.045924
O O13 0.143029 0.276186 0.101717
O O14 0.000000 0.308914 0.250000
#
# Coordination Sequence:
#
# PCOD9456641 Si02
#       7
#     8   4   8   8   8   8   8
#     4   9  18  33  53  89 121 150 207 256 306 374
#     4  10  24  38  62  92 126 158 208 266 310 382
#     4   9  18  32  59  85 118 157 206 253 306 375
#     4  10  22  37  60  87 123 160 210 258 323 375
#     4   9  18  31  57  85 116 161 205 253 310 373
#     4  10  22  39  64  91 124 166 208 255 316 375
#     4  10  22  37  61  91 123 161 205 263 315 383
#
# _framework density 24.571735
#
# number of rings (size 3 to 8) (size 9 to 14) (size 15 to 20)
#    0.000    2.462    0.000    0.923   11.846    2.462 
#    0.000    0.000    5.077    2.769    0.000    0.000 
#    0.000    0.000    0.000    0.000    0.000    0.000 
#
# Total GULP energy -289579.758466 kJ/mol
# GULP energy per Si atom -5568.841509 kJ/mol
# Density = 2.451581 g / cm^3
# Si number density = 24.571735 Si / 1000 Ang^3
#
#
#
# Elastic Constant Matrix: (Units=GPa)
#
#
# Indices 1 2 3 4 5 6 
#
# 1 66.3336 13.7121 0.4575 0.0000 0.0000 0.0000
# 2 13.7121 149.9429 55.3436 0.0000 0.0000 0.0000
# 3 0.4575 55.3436 127.5695 0.0000 0.0000 0.0000
# 4 0.0000 0.0000 0.0000 -636.2794 0.0000 0.0000
# 5 0.0000 0.0000 0.0000 0.0000 4.1622 0.0000
# 6 0.0000 0.0000 0.0000 0.0000 0.0000 20.8722
#
#
#
# Elastic Compliance Matrix: (Units=1/GPa)
#
#
# Indices 1 2 3 4 5 6 
#
# 1 0.015413 -0.001654 0.000662 0.000000 0.000000 0.000000
# 2 -0.001654 0.008118 -0.003516 0.000000 0.000000 0.000000
# 3 0.000662 -0.003516 0.009362 0.000000 0.000000 0.000000
# 4 0.000000 0.000000 0.000000 -0.001572 0.000000 0.000000
# 5 0.000000 0.000000 0.000000 0.000000 0.240260 0.000000
# 6 0.000000 0.000000 0.000000 0.000000 0.000000 0.047911
#
#
# Mechanical properties :
#
#
# Convention : Reuss Voigt Hill
#
# Bulk Modulus (GPa) = 41.88068 53.65249 47.76659
# Shear Modulus (GPa) = 14.86034 -103.96015 -44.54990
#
# Velocity S-wave (km/s) = 2.46188 -6.51158 -4.26262
# Velocity P-wave (km/s) = 5.01621 5.88658 2.17823
#
# Compressibility (1/GPa) = 0.02387736
#
# Stress axis : x y z
#
# Youngs Moduli (GPa) = 64.88182 123.18007 106.81667
#
# Poissons Ratio (x) = 0.20373 -0.07074
# Poissons Ratio (y) = 0.10731 0.37557
# Poissons Ratio (z) = -0.04297 0.43310
#
# Static dielectric constant tensor:
#      x y z
#    x 1.994560 0.000000 0.000000 
#    y 0.000000 1.975050 0.000000 
#    z 0.000000 0.000000 2.068300 
# 
# From -- ./inp_files/19496.got.cif
#   From: 2010.05.17/outbox.cif.g08.bks.cpg/sg60_10_cif.got.tgz:19496.got - 2010.06.03 14:59:27.
