data_PCOD9456892
_publ_section_title
;
Structure prediction by ZEFSAII (Michael W. Deem and Ramdas Pophale) SiO2 
 PCOD9456892
Probable space group: P B C N
;
_chemical_formula_sum "Si O2"
_cell_formula_units_Z 40
_cell_length_a 15.121632
_cell_length_b 5.092763
_cell_length_c 19.106757
_cell_angle_alpha 90.000000
_cell_angle_beta 90.000000
_cell_angle_gamma 90.000000
_cell_volume 1471.428322
_symmetry_space_group_name_H-M "P B C N"
_symmetry_group_IT_number 60
_symmetry_cell_setting 'orthorhombic'
loop_
_space_group_symop_operation_xyz
x,y,z
1/2-x,1/2-y,1/2+z
1/2+x,1/2-y,-z
-x,y,1/2-z
-x,-y,-z
1/2+x,1/2+y,1/2-z
1/2-x,1/2+y,z
x,-y,1/2+z
loop_
_atom_site_type_symbol
_atom_site_label
_atom_site_fract_x
_atom_site_fract_y
_atom_site_fract_z
Si Si1 0.201607 0.845072 0.197956
Si Si2 0.698566 0.036554 0.012221
Si Si3 0.544561 0.291876 0.550921
Si Si4 0.974408 0.488518 0.824701
Si Si5 0.652435 0.676148 0.644015
O O1 0.279325 0.642976 0.175779
O O2 0.112755 0.690794 0.177205
O O3 0.198471 0.871691 0.282485
O O4 0.763710 0.810939 0.984665
O O5 0.598062 0.930668 0.007006
O O6 0.699006 0.104560 0.095781
O O7 0.500000 0.500000 0.500000
O O8 0.479854 0.188052 0.611124
O O9 0.622194 0.439643 0.593867
O O10 0.000000 0.621417 0.750000
O O11 0.057332 0.298269 0.836209
#
# Coordination Sequence:
#
# PCOD9456892 Si02
#       5
#     8   8   8   8   8
#     4  11  25  40  69 104 138 180 236 296 360 423
#     4  11  21  39  65  99 134 176 235 299 354 420
#     4  11  25  44  74 105 148 196 249 306 386 467
#     4   9  23  42  67 103 139 192 237 307 368 450
#     4  10  22  40  70  99 139 179 241 291 364 440
#
# _framework density 27.184470000000001
#
# number of rings (size 3 to 8) (size 9 to 14) (size 15 to 20)
#    0.000    1.600    2.000    1.200   11.200    4.000 
#    0.000    2.000    0.000    0.000    0.000    0.000 
#    0.000    0.000    0.000    0.000    0.000    0.000 
#
# Total GULP energy -223958.737711 kJ/mol
# GULP energy per Si atom -5598.968443 kJ/mol
# Density = 2.712260 g / cm^3
# Si number density = 27.184470 Si / 1000 Ang^3
#
#
#
# Elastic Constant Matrix: (Units=GPa)
#
#
# Indices 1 2 3 4 5 6 
#
# 1 91.5499 2.3966 48.8579 0.0000 0.0000 0.0000
# 2 2.3966 124.7179 49.7574 0.0000 0.0000 0.0000
# 3 48.8579 49.7574 152.1202 0.0000 0.0000 0.0000
# 4 0.0000 0.0000 0.0000 41.3245 0.0000 0.0000
# 5 0.0000 0.0000 0.0000 0.0000 21.6959 0.0000
# 6 0.0000 0.0000 0.0000 0.0000 0.0000 33.4324
#
#
#
# Elastic Compliance Matrix: (Units=1/GPa)
#
#
# Indices 1 2 3 4 5 6 
#
# 1 0.013485 0.001689 -0.004884 0.000000 0.000000 0.000000
# 2 0.001689 0.009433 -0.003628 0.000000 0.000000 0.000000
# 3 -0.004884 -0.003628 0.009329 0.000000 0.000000 0.000000
# 4 0.000000 0.000000 0.000000 0.024199 0.000000 0.000000
# 5 0.000000 0.000000 0.000000 0.000000 0.046092 0.000000
# 6 0.000000 0.000000 0.000000 0.000000 0.000000 0.029911
#
#
# Mechanical properties :
#
#
# Convention : Reuss Voigt Hill
#
# Bulk Modulus (GPa) = 53.75703 63.37910 58.56806
# Shear Modulus (GPa) = 32.83113 37.11560 34.97337
#
# Velocity S-wave (km/s) = 3.47899 3.69904 3.59070
# Velocity P-wave (km/s) = 5.99631 6.45050 6.22754
#
# Compressibility (1/GPa) = 0.01860222
#
# Stress axis : x y z
#
# Youngs Moduli (GPa) = 74.15601 106.00994 107.19271
#
# Poissons Ratio (x) = -0.17908 0.52349
# Poissons Ratio (y) = -0.12527 0.38890
# Poissons Ratio (z) = 0.36215 0.38461
#
# Static dielectric constant tensor:
#      x y z
#    x 2.214480 0.000000 0.000000 
#    y 0.000000 2.140400 0.000000 
#    z 0.000000 0.000000 2.218260 
# 
# From -- ./inp_files/23007.got.cif
#   From: 2010.05.17/outbox.cif.g08.bks.cpg/sg60_12_cif.got.tgz:23007.got - 2010.06.03 14:59:27.
