data_PCOD9456244
_publ_section_title
;
Structure prediction by ZEFSAII (Michael W. Deem and Ramdas Pophale) SiO2 
 PCOD9456244
Probable space group: P B C N
;
_chemical_formula_sum "Si O2"
_cell_formula_units_Z 64
_cell_length_a 9.309015
_cell_length_b 11.073006
_cell_length_c 29.247357
_cell_angle_alpha 90.000000
_cell_angle_beta 90.000000
_cell_angle_gamma 90.000000
_cell_volume 3014.781847
_symmetry_space_group_name_H-M "P B C N"
_symmetry_group_IT_number 60
_symmetry_cell_setting 'orthorhombic'
loop_
_space_group_symop_operation_xyz
x,y,z
1/2-x,1/2-y,1/2+z
1/2+x,1/2-y,-z
-x,y,1/2-z
-x,-y,-z
1/2+x,1/2+y,1/2-z
1/2-x,1/2+y,z
x,-y,1/2+z
loop_
_atom_site_type_symbol
_atom_site_label
_atom_site_fract_x
_atom_site_fract_y
_atom_site_fract_z
Si Si1 0.280198 0.864099 0.901900
Si Si2 0.798459 0.506278 0.782769
Si Si3 0.524385 0.499463 0.055190
Si Si4 0.361392 0.268913 0.549311
Si Si5 0.100078 0.223661 0.204740
Si Si6 0.446086 0.183722 0.881997
Si Si7 0.886194 0.464997 0.681718
Si Si8 0.026156 0.264177 0.545952
O O1 0.181552 0.745880 0.910295
O O2 0.435492 0.858267 0.924849
O O3 0.181033 0.963860 0.926667
O O4 0.307997 0.862308 0.847279
O O5 0.681134 0.405262 0.796182
O O6 0.802963 0.650713 0.795274
O O7 0.805070 0.501021 0.727639
O O8 0.948637 0.453280 0.802832
O O9 0.418195 0.605377 0.070668
O O10 0.488284 0.365663 0.070515
O O11 0.500000 0.500000 0.000000
O O12 0.416754 0.168387 0.584864
O O13 0.194237 0.282531 0.540457
O O14 0.444735 0.244270 0.502324
O O15 0.000000 0.232330 0.250000
O O16 0.002393 0.234652 0.159905
O O17 0.388400 0.066798 0.857092
#
# Coordination Sequence:
#
# PCOD9456244 Si02
#       8
#     8   8   8   8   8   8   8   8
#     4  11  22  37  64  93 123 166 219 261 318 388
#     4  10  22  42  67  91 134 169 211 269 326 392
#     4   9  20  40  58  85 125 157 205 261 313 374
#     4  10  22  39  61  88 124 168 210 265 315 380
#     4  11  21  44  66  94 130 171 211 267 329 387
#     4  10  21  40  62  88 131 166 212 270 320 382
#     4  10  21  40  62  91 127 166 209 266 322 384
#     4  11  22  40  62  89 126 168 211 262 322 376
#
# _framework density 21.228732999999998
#
# number of rings (size 3 to 8) (size 9 to 14) (size 15 to 20)
#    0.000    1.750    2.500    3.750    1.750    2.000 
#    9.000    5.000    0.000    0.000    0.000    0.000 
#    0.000    0.000    0.000    0.000    0.000    0.000 
#
# Total GULP energy -356576.804127 kJ/mol
# GULP energy per Si atom -5571.512564 kJ/mol
# Density = 2.118042 g / cm^3
# Si number density = 21.228733 Si / 1000 Ang^3
#
#
#
# Elastic Constant Matrix: (Units=GPa)
#
#
# Indices 1 2 3 4 5 6 
#
# 1 113.7763 24.1702 25.3254 0.0000 0.0000 0.0000
# 2 24.1702 67.1981 -0.9995 0.0000 0.0000 0.0000
# 3 25.3254 -0.9995 75.7667 0.0000 0.0000 0.0000
# 4 0.0000 0.0000 0.0000 29.5750 0.0000 0.0000
# 5 0.0000 0.0000 0.0000 0.0000 28.8888 0.0000
# 6 0.0000 0.0000 0.0000 0.0000 0.0000 29.5246
#
#
#
# Elastic Compliance Matrix: (Units=1/GPa)
#
#
# Indices 1 2 3 4 5 6 
#
# 1 0.010376 -0.003785 -0.003518 0.000000 0.000000 0.000000
# 2 -0.003785 0.016265 0.001480 0.000000 0.000000 0.000000
# 3 -0.003518 0.001480 0.014394 0.000000 0.000000 0.000000
# 4 0.000000 0.000000 0.000000 0.033812 0.000000 0.000000
# 5 0.000000 0.000000 0.000000 0.000000 0.034615 0.000000
# 6 0.000000 0.000000 0.000000 0.000000 0.000000 0.033870
#
#
# Mechanical properties :
#
#
# Convention : Reuss Voigt Hill
#
# Bulk Modulus (GPa) = 34.02706 39.30371 36.66539
# Shear Modulus (GPa) = 30.34436 31.48068 30.91252
#
# Velocity S-wave (km/s) = 3.78484 3.85506 3.82011
# Velocity P-wave (km/s) = 5.92989 6.19434 6.06356
#
# Compressibility (1/GPa) = 0.02938837
#
# Stress axis : x y z
#
# Youngs Moduli (GPa) = 96.37380 61.48313 69.47379
#
# Poissons Ratio (x) = 0.23268 0.24443
# Poissons Ratio (y) = 0.36473 -0.10279
# Poissons Ratio (z) = 0.33907 -0.09097
#
# Static dielectric constant tensor:
#      x y z
#    x 1.846940 0.000000 0.000000 
#    y 0.000000 1.880360 0.000000 
#    z 0.000000 0.000000 1.773290 
# 
# From -- ./inp_files/26024.got.cif
#   From: 2010.05.17/outbox.cif.g08.bks.cpg/sg60_14_cif.got.tgz:26024.got - 2010.06.03 14:59:27.
