data_PCOD9456714
_publ_section_title
;
Structure prediction by ZEFSAII (Michael W. Deem and Ramdas Pophale) SiO2 
 PCOD9456714
Probable space group: P B C N
;
_chemical_formula_sum "Si O2"
_cell_formula_units_Z 44
_cell_length_a 5.213196
_cell_length_b 13.634966
_cell_length_c 23.723029
_cell_angle_alpha 90.000000
_cell_angle_beta 90.000000
_cell_angle_gamma 90.000000
_cell_volume 1686.274422
_symmetry_space_group_name_H-M "P B C N"
_symmetry_group_IT_number 60
_symmetry_cell_setting 'orthorhombic'
loop_
_space_group_symop_operation_xyz
x,y,z
1/2-x,1/2-y,1/2+z
1/2+x,1/2-y,-z
-x,y,1/2-z
-x,-y,-z
1/2+x,1/2+y,1/2-z
1/2-x,1/2+y,z
x,-y,1/2+z
loop_
_atom_site_type_symbol
_atom_site_label
_atom_site_fract_x
_atom_site_fract_y
_atom_site_fract_z
Si Si1 0.469630 0.083403 0.953461
Si Si2 0.465672 0.500617 0.092149
Si Si3 0.019156 0.787976 0.573347
Si Si4 0.199013 0.934918 0.790167
Si Si5 0.500000 0.381170 0.250000
Si Si6 0.483877 0.774999 0.848416
O O1 0.516026 0.196587 0.969685
O O2 0.693139 0.051614 0.910124
O O3 0.190802 0.070497 0.927193
O O4 0.500000 0.000000 0.000000
O O5 0.482352 0.599287 0.053226
O O6 0.541139 0.538425 0.153457
O O7 0.275342 0.781829 0.610738
O O8 0.774213 0.770915 0.613974
O O9 0.439367 0.873051 0.810871
O O10 0.000000 0.875506 0.750000
O O11 0.226790 0.039749 0.759919
O O12 0.484393 0.313380 0.195293
#
# Coordination Sequence:
#
# PCOD9456714 Si02
#       6
#     8   8   8   8   4   8
#     4  12  26  45  74 105 136 179 241 297 363 432
#     4  11  24  46  68 101 142 185 229 295 355 422
#     4  11  25  45  69  98 140 183 230 289 356 420
#     4   9  22  43  67 104 140 191 238 286 340 430
#     4  10  22  38  66  94 140 186 234 288 340 396
#     4  11  24  42  67  98 142 189 234 284 344 419
#
# _framework density 26.093022000000001
#
# number of rings (size 3 to 8) (size 9 to 14) (size 15 to 20)
#    0.545    0.727    0.000    6.000    5.091    1.455 
#    0.000    7.273    0.000    0.000    0.000    0.000 
#    0.000    0.000    0.000    0.000    0.000    0.000 
#
# Total GULP energy -246447.578247 kJ/mol
# GULP energy per Si atom -5601.081324 kJ/mol
# Density = 2.603363 g / cm^3
# Si number density = 26.093022 Si / 1000 Ang^3
#
#
#
# Elastic Constant Matrix: (Units=GPa)
#
#
# Indices 1 2 3 4 5 6 
#
# 1 154.1248 39.4490 45.5631 0.0000 0.0000 0.0000
# 2 39.4490 189.1286 5.0818 0.0000 0.0000 0.0000
# 3 45.5631 5.0818 60.4001 0.0000 0.0000 0.0000
# 4 0.0000 0.0000 0.0000 51.9855 0.0000 0.0000
# 5 0.0000 0.0000 0.0000 0.0000 18.8678 0.0000
# 6 0.0000 0.0000 0.0000 0.0000 0.0000 4.1880
#
#
#
# Elastic Compliance Matrix: (Units=1/GPa)
#
#
# Indices 1 2 3 4 5 6 
#
# 1 0.008847 -0.001670 -0.006533 0.000000 0.000000 0.000000
# 2 -0.001670 0.005615 0.000787 0.000000 0.000000 0.000000
# 3 -0.006533 0.000787 0.021418 0.000000 0.000000 0.000000
# 4 0.000000 0.000000 0.000000 0.019236 0.000000 0.000000
# 5 0.000000 0.000000 0.000000 0.000000 0.053000 0.000000
# 6 0.000000 0.000000 0.000000 0.000000 0.000000 0.238775
#
#
# Mechanical properties :
#
#
# Convention : Reuss Voigt Hill
#
# Bulk Modulus (GPa) = 47.50976 64.87125 56.19051
# Shear Modulus (GPa) = 13.55971 35.91224 24.73598
#
# Velocity S-wave (km/s) = 2.28210 3.71390 3.08229
# Velocity P-wave (km/s) = 5.01910 6.58075 5.85225
#
# Compressibility (1/GPa) = 0.02104831
#
# Stress axis : x y z
#
# Youngs Moduli (GPa) = 113.03200 178.10881 46.68862
#
# Poissons Ratio (x) = 0.29740 0.30503
# Poissons Ratio (y) = 0.18874 -0.03675
# Poissons Ratio (z) = 0.73848 -0.14021
#
# Static dielectric constant tensor:
#      x y z
#    x 2.022580 0.000000 0.000000 
#    y 0.000000 2.089510 0.000000 
#    z 0.000000 0.000000 2.106860 
# 
# From -- ./inp_files/24821.got.cif
#   From: 2010.05.17/outbox.cif.g08.bks.cpg/sg60_13_cif.got.tgz:24821.got - 2010.06.03 14:59:27.
