data_PCOD9456846
_publ_section_title
;
Structure prediction by ZEFSAII (Michael W. Deem and Ramdas Pophale) SiO2 
 PCOD9456846
Probable space group: P B C N
;
_chemical_formula_sum "Si O2"
_cell_formula_units_Z 48
_cell_length_a 12.514756
_cell_length_b 21.576276
_cell_length_c 8.609335
_cell_angle_alpha 90.000000
_cell_angle_beta 90.000000
_cell_angle_gamma 90.000000
_cell_volume 2324.708388
_symmetry_space_group_name_H-M "P B C N"
_symmetry_group_IT_number 60
_symmetry_cell_setting 'orthorhombic'
loop_
_space_group_symop_operation_xyz
x,y,z
1/2-x,1/2-y,1/2+z
1/2+x,1/2-y,-z
-x,y,1/2-z
-x,-y,-z
1/2+x,1/2+y,1/2-z
1/2-x,1/2+y,z
x,-y,1/2+z
loop_
_atom_site_type_symbol
_atom_site_label
_atom_site_fract_x
_atom_site_fract_y
_atom_site_fract_z
Si Si1 0.587035 0.393852 0.032111
Si Si2 0.344944 0.383605 0.133134
Si Si3 0.374398 0.075396 0.252034
Si Si4 0.888099 0.222288 0.334329
Si Si5 0.748837 0.996861 0.987904
Si Si6 0.790984 0.699335 0.099165
O O1 0.460622 0.396540 0.058126
O O2 0.635947 0.364608 0.189708
O O3 0.611189 0.350107 0.885588
O O4 0.641202 0.460914 0.021629
O O5 0.277583 0.446874 0.127437
O O6 0.285280 0.334732 0.025852
O O7 0.500000 0.063704 0.250000
O O8 0.325724 0.055577 0.087313
O O9 0.350952 0.145688 0.304068
O O10 0.312003 0.031302 0.373392
O O11 0.789493 0.233258 0.217493
O O12 0.869951 0.260030 0.493584
O O13 0.000000 0.236666 0.250000
#
# Coordination Sequence:
#
# PCOD9456846 Si02
#       6
#     8   8   8   8   8   8
#     4  11  21  40  68  99 135 173 214 275 340 405
#     4  10  22  40  65 103 132 170 216 273 344 403
#     4  11  24  43  65  96 132 183 226 274 335 404
#     4  12  25  46  71 100 135 182 230 284 340 403
#     4  11  21  41  66  98 137 171 219 277 333 404
#     4  11  25  45  67  96 139 172 229 283 336 396
#
# _framework density 20.647749999999998
#
# number of rings (size 3 to 8) (size 9 to 14) (size 15 to 20)
#    0.000    1.000    5.000    2.000    0.000    1.333 
#    9.000    1.667    0.000    0.000    0.000    0.000 
#    0.000    0.000    0.000    0.000    0.000    0.000 
#
# Total GULP energy -268104.540736 kJ/mol
# GULP energy per Si atom -5585.511265 kJ/mol
# Density = 2.060075 g / cm^3
# Si number density = 20.647750 Si / 1000 Ang^3
#
#
#
# Elastic Constant Matrix: (Units=GPa)
#
#
# Indices 1 2 3 4 5 6 
#
# 1 77.0141 17.6331 3.9468 0.0000 0.0000 0.0000
# 2 17.6331 64.9145 14.3182 0.0000 0.0000 0.0000
# 3 3.9468 14.3182 40.3739 0.0000 0.0000 0.0000
# 4 0.0000 0.0000 0.0000 30.5483 0.0000 0.0000
# 5 0.0000 0.0000 0.0000 0.0000 35.0741 0.0000
# 6 0.0000 0.0000 0.0000 0.0000 0.0000 20.4757
#
#
#
# Elastic Compliance Matrix: (Units=1/GPa)
#
#
# Indices 1 2 3 4 5 6 
#
# 1 0.013846 -0.003756 -0.000021 0.000000 0.000000 0.000000
# 2 -0.003756 0.017731 -0.005921 0.000000 0.000000 0.000000
# 3 -0.000021 -0.005921 0.026870 0.000000 0.000000 0.000000
# 4 0.000000 0.000000 0.000000 0.032735 0.000000 0.000000
# 5 0.000000 0.000000 0.000000 0.000000 0.028511 0.000000
# 6 0.000000 0.000000 0.000000 0.000000 0.000000 0.048838
#
#
# Mechanical properties :
#
#
# Convention : Reuss Voigt Hill
#
# Bulk Modulus (GPa) = 25.60819 28.23321 26.92070
# Shear Modulus (GPa) = 24.88232 26.97991 25.93112
#
# Velocity S-wave (km/s) = 3.47520 3.61872 3.54769
# Velocity P-wave (km/s) = 5.34154 5.58244 5.46332
#
# Compressibility (1/GPa) = 0.03905001
#
# Stress axis : x y z
#
# Youngs Moduli (GPa) = 72.22424 56.39772 37.21571
#
# Poissons Ratio (x) = 0.21185 0.00080
# Poissons Ratio (y) = 0.27130 0.22035
# Poissons Ratio (z) = 0.00154 0.33393
#
# Static dielectric constant tensor:
#      x y z
#    x 1.698620 0.000000 0.000000 
#    y 0.000000 1.728530 0.000000 
#    z 0.000000 0.000000 1.766390 
# 
# From -- ./inp_files/5095.got.cif
#   From: 2010.05.17/outbox.cif.g08.bks.cpg/sg60_3_cif.got.tgz:5095.got - 2010.06.03 14:59:27.
