data_PCOD9456407
_publ_section_title
;
Structure prediction by ZEFSAII (Michael W. Deem and Ramdas Pophale) SiO2 
 PCOD9456407
Probable space group: P B C N
;
_chemical_formula_sum "Si O2"
_cell_formula_units_Z 44
_cell_length_a 4.966813
_cell_length_b 12.975834
_cell_length_c 30.566361
_cell_angle_alpha 90.000000
_cell_angle_beta 90.000000
_cell_angle_gamma 90.000000
_cell_volume 1969.957370
_symmetry_space_group_name_H-M "P B C N"
_symmetry_group_IT_number 60
_symmetry_cell_setting 'orthorhombic'
loop_
_space_group_symop_operation_xyz
x,y,z
1/2-x,1/2-y,1/2+z
1/2+x,1/2-y,-z
-x,y,1/2-z
-x,-y,-z
1/2+x,1/2+y,1/2-z
1/2-x,1/2+y,z
x,-y,1/2+z
loop_
_atom_site_type_symbol
_atom_site_label
_atom_site_fract_x
_atom_site_fract_y
_atom_site_fract_z
Si Si1 0.000000 0.107217 0.250000
Si Si2 0.920165 0.980263 0.333397
Si Si3 0.915130 0.303769 0.947494
Si Si4 0.914662 0.116704 0.004696
Si Si5 0.075019 0.763438 0.204291
Si Si6 0.611820 0.898060 0.642226
O O1 0.940053 0.026584 0.210649
O O2 0.204239 0.183421 0.223917
O O3 0.629679 0.028693 0.341908
O O4 0.130264 0.030650 0.367599
O O5 0.875301 0.858407 0.328198
O O6 0.108586 0.367932 0.980189
O O7 0.005194 0.336578 0.899754
O O8 0.608989 0.332210 0.958815
O O9 0.956636 0.184809 0.960961
O O10 0.000000 0.000000 0.000000
O O11 0.000000 0.815426 0.250000
O O12 0.860499 0.690561 0.179598
#
# Coordination Sequence:
#
# PCOD9456407 Si02
#       6
#     4   8   8   8   8   8
#     4  10  22  40  60  86 118 160 216 264 298 364
#     4  11  24  39  63  87 122 167 211 256 309 362
#     4  10  22  40  63  95 129 157 204 253 308 371
#     4  10  21  41  69  93 121 166 202 246 308 381
#     4  11  23  40  65  87 122 168 216 252 316 359
#     4  11  25  41  59  95 129 160 204 265 308 364
#
# _framework density 22.335505999999999
#
# number of rings (size 3 to 8) (size 9 to 14) (size 15 to 20)
#    0.000    1.455    2.727    1.636    2.545    2.909 
#    0.000    0.000    0.000    0.000    0.000    0.000 
#    0.000    0.000    0.000    0.000    0.000    0.000 
#
# Total GULP energy -245098.585912 kJ/mol
# GULP energy per Si atom -5570.422407 kJ/mol
# Density = 2.228467 g / cm^3
# Si number density = 22.335506 Si / 1000 Ang^3
#
#
#
# Elastic Constant Matrix: (Units=GPa)
#
#
# Indices 1 2 3 4 5 6 
#
# 1 57.0455 1.6608 -14.7242 0.0000 0.0000 0.0000
# 2 1.6608 125.6192 -5.4060 0.0000 0.0000 0.0000
# 3 -14.7242 -5.4060 26.8534 0.0000 0.0000 0.0000
# 4 0.0000 0.0000 0.0000 2.2731 0.0000 0.0000
# 5 0.0000 0.0000 0.0000 0.0000 22.5420 0.0000
# 6 0.0000 0.0000 0.0000 0.0000 0.0000 15.9999
#
#
#
# Elastic Compliance Matrix: (Units=1/GPa)
#
#
# Indices 1 2 3 4 5 6 
#
# 1 0.020426 0.000214 0.011243 0.000000 0.000000 0.000000
# 2 0.000214 0.008032 0.001734 0.000000 0.000000 0.000000
# 3 0.011243 0.001734 0.043753 0.000000 0.000000 0.000000
# 4 0.000000 0.000000 0.000000 0.439935 0.000000 0.000000
# 5 0.000000 0.000000 0.000000 0.000000 0.044362 0.000000
# 6 0.000000 0.000000 0.000000 0.000000 0.000000 0.062500
#
#
# Mechanical properties :
#
#
# Convention : Reuss Voigt Hill
#
# Bulk Modulus (GPa) = 10.14277 19.17549 14.65913
# Shear Modulus (GPa) = 7.99373 23.36215 15.67794
#
# Velocity S-wave (km/s) = 1.89386 3.23765 2.65227
# Velocity P-wave (km/s) = 3.05503 4.75187 3.99459
#
# Compressibility (1/GPa) = 0.09859244
#
# Stress axis : x y z
#
# Youngs Moduli (GPa) = 48.95830 124.49622 22.85557
#
# Poissons Ratio (x) = -0.02661 -0.25696
# Poissons Ratio (y) = -0.01047 -0.03964
# Poissons Ratio (z) = -0.55042 -0.21591
#
# Static dielectric constant tensor:
#      x y z
#    x 1.864650 0.000000 0.000000 
#    y 0.000000 1.812730 0.000000 
#    z 0.000000 0.000000 1.920490 
# 
# From -- ./inp_files/25648.got.cif
#   From: 2010.05.17/outbox.cif.g08.bks.cpg/sg60_13_cif.got.tgz:25648.got - 2010.06.03 14:59:27.
