data_PCOD9456511
_publ_section_title
;
Structure prediction by ZEFSAII (Michael W. Deem and Ramdas Pophale) SiO2 
 PCOD9456511
Probable space group: P B C N
;
_chemical_formula_sum "Si O2"
_cell_formula_units_Z 32
_cell_length_a 14.387046
_cell_length_b 9.948936
_cell_length_c 9.643252
_cell_angle_alpha 90.000000
_cell_angle_beta 90.000000
_cell_angle_gamma 90.000000
_cell_volume 1380.294588
_symmetry_space_group_name_H-M "P B C N"
_symmetry_group_IT_number 60
_symmetry_cell_setting 'orthorhombic'
loop_
_space_group_symop_operation_xyz
x,y,z
1/2-x,1/2-y,1/2+z
1/2+x,1/2-y,-z
-x,y,1/2-z
-x,-y,-z
1/2+x,1/2+y,1/2-z
1/2-x,1/2+y,z
x,-y,1/2+z
loop_
_atom_site_type_symbol
_atom_site_label
_atom_site_fract_x
_atom_site_fract_y
_atom_site_fract_z
Si Si1 0.967966 0.349437 0.985307
Si Si2 0.208016 0.265436 0.664626
Si Si3 0.582559 0.387329 0.141019
Si Si4 0.161506 0.161834 0.387464
O O1 0.887255 0.346008 0.866964
O O2 0.045910 0.240013 0.945512
O O3 0.912155 0.284091 0.113992
O O4 0.000000 0.500000 0.000000
O O5 0.174070 0.154574 0.773827
O O6 0.229451 0.199725 0.515821
O O7 0.287298 0.346959 0.741610
O O8 0.500000 0.416690 0.250000
O O9 0.608456 0.526564 0.068264
#
# Coordination Sequence:
#
# PCOD9456511 Si02
#       4
#     8   8   8   8
#     4   9  21  44  73 101 140 183 242 296 361 421
#     4   9  23  42  73  97 144 182 232 297 359 429
#     4  10  21  43  71 104 136 186 248 291 355 435
#     4  10  22  44  72 104 139 189 234 298 358 440
#
# _framework density 23.183458000000002
#
# number of rings (size 3 to 8) (size 9 to 14) (size 15 to 20)
#    1.500    1.000    0.000    0.750    0.000    4.000 
#    4.500    3.750    0.000    0.000    0.000    0.000 
#    0.000    0.000    0.000    0.000    0.000    0.000 
#
# Total GULP energy -178449.125886 kJ/mol
# GULP energy per Si atom -5576.535184 kJ/mol
# Density = 2.313069 g / cm^3
# Si number density = 23.183458 Si / 1000 Ang^3
#
#
#
# Elastic Constant Matrix: (Units=GPa)
#
#
# Indices 1 2 3 4 5 6 
#
# 1 68.4372 62.7365 32.7508 0.0000 0.0000 0.0000
# 2 62.7365 187.4554 43.8619 0.0000 0.0000 0.0000
# 3 32.7508 43.8619 60.0776 0.0000 0.0000 0.0000
# 4 0.0000 0.0000 0.0000 28.3313 0.0000 0.0000
# 5 0.0000 0.0000 0.0000 0.0000 36.0897 0.0000
# 6 0.0000 0.0000 0.0000 0.0000 0.0000 6.7419
#
#
#
# Elastic Compliance Matrix: (Units=1/GPa)
#
#
# Indices 1 2 3 4 5 6 
#
# 1 0.024459 -0.006110 -0.008873 0.000000 0.000000 0.000000
# 2 -0.006110 0.007960 -0.002481 0.000000 0.000000 0.000000
# 3 -0.008873 -0.002481 0.023293 0.000000 0.000000 0.000000
# 4 0.000000 0.000000 0.000000 0.035297 0.000000 0.000000
# 5 0.000000 0.000000 0.000000 0.000000 0.027709 0.000000
# 6 0.000000 0.000000 0.000000 0.000000 0.000000 0.148327
#
#
# Mechanical properties :
#
#
# Convention : Reuss Voigt Hill
#
# Bulk Modulus (GPa) = 48.11096 66.07428 57.09262
# Shear Modulus (GPa) = 16.18652 26.00732 21.09692
#
# Velocity S-wave (km/s) = 2.64520 3.35297 3.01989
# Velocity P-wave (km/s) = 5.48879 6.59942 6.06956
#
# Compressibility (1/GPa) = 0.02078528
#
# Stress axis : x y z
#
# Youngs Moduli (GPa) = 40.88511 125.63157 42.93076
#
# Poissons Ratio (x) = 0.76756 0.38092
# Poissons Ratio (y) = 0.24979 0.10650
# Poissons Ratio (z) = 0.36277 0.31166
#
# Static dielectric constant tensor:
#      x y z
#    x 1.917240 0.000000 0.000000 
#    y 0.000000 1.831250 0.000000 
#    z 0.000000 0.000000 2.232270 
# 
# From -- ./inp_files/11561.got.cif
#   From: 2010.05.17/outbox.cif.g08.bks.cpg/sg60_6_cif.got.tgz:11561.got - 2010.06.03 14:59:27.
