data_PCOD9456541
_publ_section_title
;
Structure prediction by ZEFSAII (Michael W. Deem and Ramdas Pophale) SiO2 
 PCOD9456541
Probable space group: P B C N
;
_chemical_formula_sum "Si O2"
_cell_formula_units_Z 48
_cell_length_a 8.520390
_cell_length_b 14.707879
_cell_length_c 18.353619
_cell_angle_alpha 90.000000
_cell_angle_beta 90.000000
_cell_angle_gamma 90.000000
_cell_volume 2300.017997
_symmetry_space_group_name_H-M "P B C N"
_symmetry_group_IT_number 60
_symmetry_cell_setting 'orthorhombic'
loop_
_space_group_symop_operation_xyz
x,y,z
1/2-x,1/2-y,1/2+z
1/2+x,1/2-y,-z
-x,y,1/2-z
-x,-y,-z
1/2+x,1/2+y,1/2-z
1/2-x,1/2+y,z
x,-y,1/2+z
loop_
_atom_site_type_symbol
_atom_site_label
_atom_site_fract_x
_atom_site_fract_y
_atom_site_fract_z
Si Si1 0.669868 0.369671 0.452513
Si Si2 0.088342 0.112576 0.378201
Si Si3 0.347506 0.950141 0.529722
Si Si4 0.342680 0.596182 0.884965
Si Si5 0.751084 0.300362 0.876317
Si Si6 0.681507 0.769375 0.225727
O O1 0.635257 0.369978 0.538204
O O2 0.744167 0.468027 0.436740
O O3 0.508156 0.360294 0.408287
O O4 0.776219 0.285084 0.429726
O O5 0.177190 0.180433 0.324857
O O6 0.906532 0.139894 0.370533
O O7 0.123059 0.007751 0.362289
O O8 0.257828 0.908914 0.459718
O O9 0.374454 0.869167 0.587052
O O10 0.500000 0.000000 0.500000
O O11 0.254196 0.650379 0.822065
O O12 0.778369 0.256241 0.797817
O O13 0.500000 0.789137 0.250000
#
# Coordination Sequence:
#
# PCOD9456541 Si02
#       6
#     8   8   8   8   8   8
#     4  11  23  39  73  98 128 183 237 287 344 415
#     4  10  21  44  68  94 137 185 222 292 344 417
#     4  11  24  40  69 105 137 180 235 299 343 412
#     4  11  22  46  68  97 137 182 237 282 356 414
#     4  11  23  42  65 103 137 177 242 273 357 422
#     4  10  25  42  67 101 141 185 224 290 353 423
#
# _framework density 20.869402000000001
#
# number of rings (size 3 to 8) (size 9 to 14) (size 15 to 20)
#    0.000    1.333    3.333    2.000    7.000    3.333 
#    3.000    0.000    0.000    0.000    0.000    0.000 
#    0.000    0.000    0.000    0.000    0.000    0.000 
#
# Total GULP energy -268289.897363 kJ/mol
# GULP energy per Si atom -5589.372862 kJ/mol
# Density = 2.082190 g / cm^3
# Si number density = 20.869402 Si / 1000 Ang^3
#
#
#
# Elastic Constant Matrix: (Units=GPa)
#
#
# Indices 1 2 3 4 5 6 
#
# 1 55.5188 26.9664 37.7115 0.0000 0.0000 0.0000
# 2 26.9664 97.3789 67.3580 0.0000 0.0000 0.0000
# 3 37.7115 67.3580 76.9538 0.0000 0.0000 0.0000
# 4 0.0000 0.0000 0.0000 6.2888 0.0000 0.0000
# 5 0.0000 0.0000 0.0000 0.0000 24.8014 0.0000
# 6 0.0000 0.0000 0.0000 0.0000 0.0000 27.8478
#
#
#
# Elastic Compliance Matrix: (Units=1/GPa)
#
#
# Indices 1 2 3 4 5 6 
#
# 1 0.027710 0.004358 -0.017394 0.000000 0.000000 0.000000
# 2 0.004358 0.026713 -0.025518 0.000000 0.000000 0.000000
# 3 -0.017394 -0.025518 0.043855 0.000000 0.000000 0.000000
# 4 0.000000 0.000000 0.000000 0.159012 0.000000 0.000000
# 5 0.000000 0.000000 0.000000 0.000000 0.040320 0.000000
# 6 0.000000 0.000000 0.000000 0.000000 0.000000 0.035909
#
#
# Mechanical properties :
#
#
# Convention : Reuss Voigt Hill
#
# Bulk Modulus (GPa) = 47.23587 54.88037 51.05812
# Shear Modulus (GPa) = 11.97070 18.30866 15.13968
#
# Velocity S-wave (km/s) = 2.39759 2.96513 2.69634
# Velocity P-wave (km/s) = 5.50888 6.17064 5.84913
#
# Compressibility (1/GPa) = 0.02117035
#
# Stress axis : x y z
#
# Youngs Moduli (GPa) = 36.08772 37.43428 22.80232
#
# Poissons Ratio (x) = -0.16315 0.39663
# Poissons Ratio (y) = -0.15728 0.58187
# Poissons Ratio (z) = 0.62772 0.95526
#
# Static dielectric constant tensor:
#      x y z
#    x 1.798110 0.000000 0.000000 
#    y 0.000000 1.749030 0.000000 
#    z 0.000000 0.000000 1.742070 
# 
# From -- ./inp_files/19314.got.cif
#   From: 2010.05.17/outbox.cif.g08.bks.cpg/sg60_10_cif.got.tgz:19314.got - 2010.06.03 14:59:27.
