data_PCOD9456026
_publ_section_title
;
Structure prediction by ZEFSAII (Michael W. Deem and Ramdas Pophale) SiO2 
 PCOD9456026
Probable space group: P B C N
;
_chemical_formula_sum "Si O2"
_cell_formula_units_Z 60
_cell_length_a 7.852668
_cell_length_b 10.621778
_cell_length_c 26.445932
_cell_angle_alpha 90.000000
_cell_angle_beta 90.000000
_cell_angle_gamma 90.000000
_cell_volume 2205.836576
_symmetry_space_group_name_H-M "P B C N"
_symmetry_group_IT_number 60
_symmetry_cell_setting 'orthorhombic'
loop_
_space_group_symop_operation_xyz
x,y,z
1/2-x,1/2-y,1/2+z
1/2+x,1/2-y,-z
-x,y,1/2-z
-x,-y,-z
1/2+x,1/2+y,1/2-z
1/2-x,1/2+y,z
x,-y,1/2+z
loop_
_atom_site_type_symbol
_atom_site_label
_atom_site_fract_x
_atom_site_fract_y
_atom_site_fract_z
Si Si1 0.457158 0.051105 0.569475
Si Si2 0.056287 0.270905 0.568477
Si Si3 0.163280 0.793159 0.315868
Si Si4 0.500000 0.046508 0.750000
Si Si5 0.867282 0.043306 0.594702
Si Si6 0.489933 0.766416 0.155764
Si Si7 0.813984 0.679625 0.288730
Si Si8 0.272182 0.647869 0.478654
O O1 0.399129 0.911080 0.587207
O O2 0.665767 0.052933 0.575401
O O3 0.417026 0.168589 0.606084
O O4 0.356185 0.074662 0.517221
O O5 0.140574 0.250182 0.514123
O O6 0.039699 0.129146 0.589355
O O7 0.853347 0.282427 0.559226
O O8 0.157057 0.925712 0.345316
O O9 0.316810 0.718786 0.344046
O O10 0.200707 0.784021 0.255962
O O11 0.981925 0.721738 0.319507
O O12 0.653107 0.948561 0.759336
O O13 0.494079 0.125726 0.801152
O O14 0.906367 0.928134 0.555850
O O15 0.351932 0.672530 0.177650
#
# Coordination Sequence:
#
# PCOD9456026 Si02
#       8
#     8   8   8   4   8   8   8   8
#     4  10  24  38  63  90 124 165 208 257 325 378
#     4  11  22  38  65  83 129 159 209 260 313 380
#     4   9  20  39  63  91 127 165 209 265 319 377
#     4  10  22  38  70  92 126 172 216 250 340 370
#     4  10  21  38  61  88 122 165 212 264 318 374
#     4  11  21  43  65  92 131 167 207 272 317 384
#     4  10  22  40  66  92 131 161 216 267 316 391
#     4  11  22  41  59  92 122 167 210 262 319 377
#
# _framework density 27.200565999999998
#
# number of rings (size 3 to 8) (size 9 to 14) (size 15 to 20)
#    0.000    1.867    1.333    3.600    5.600    0.000 
#    0.000    5.333    5.867    0.000    0.000    0.000 
#    0.000    0.000    0.000    0.000    0.000    0.000 
#
# Total GULP energy -334284.133958 kJ/mol
# GULP energy per Si atom -5571.402233 kJ/mol
# Density = 2.713866 g / cm^3
# Si number density = 27.200566 Si / 1000 Ang^3
#
#
#
# Elastic Constant Matrix: (Units=GPa)
#
#
# Indices 1 2 3 4 5 6 
#
# 1 106.3422 31.4842 36.7589 0.0000 0.0000 0.0000
# 2 31.4842 46.3214 -8.4135 0.0000 0.0000 0.0000
# 3 36.7589 -8.4135 78.5479 0.0000 0.0000 0.0000
# 4 0.0000 0.0000 0.0000 -2.7132 0.0000 0.0000
# 5 0.0000 0.0000 0.0000 0.0000 39.9790 0.0000
# 6 0.0000 0.0000 0.0000 0.0000 0.0000 24.1099
#
#
#
# Elastic Compliance Matrix: (Units=1/GPa)
#
#
# Indices 1 2 3 4 5 6 
#
# 1 0.016256 -0.012677 -0.008965 0.000000 0.000000 0.000000
# 2 -0.012677 0.031903 0.009350 0.000000 0.000000 0.000000
# 3 -0.008965 0.009350 0.017928 0.000000 0.000000 0.000000
# 4 0.000000 0.000000 0.000000 -0.368573 0.000000 0.000000
# 5 0.000000 0.000000 0.000000 0.000000 0.025013 0.000000
# 6 0.000000 0.000000 0.000000 0.000000 0.000000 0.041477
#
#
# Mechanical properties :
#
#
# Convention : Reuss Voigt Hill
#
# Bulk Modulus (GPa) = 24.09526 38.98564 31.54045
# Shear Modulus (GPa) = -25.30669 23.70061 -0.80304
#
# Velocity S-wave (km/s) = -3.05351 2.95503 -0.54394
# Velocity P-wave (km/s) = 1.88529 5.09968 3.35055
#
# Compressibility (1/GPa) = 0.04150194
#
# Stress axis : x y z
#
# Youngs Moduli (GPa) = 61.51579 31.34473 55.77791
#
# Poissons Ratio (x) = 0.39737 0.50007
# Poissons Ratio (y) = 0.77986 -0.52153
# Poissons Ratio (z) = 0.55151 -0.29308
#
# Static dielectric constant tensor:
#      x y z
#    x 2.225350 0.000000 0.000000 
#    y 0.000000 2.393610 0.000000 
#    z 0.000000 0.000000 2.246300 
# 
# From -- ./inp_files/25988.got.cif
#   From: 2010.05.17/outbox.cif.g08.bks.cpg/sg60_13_cif.got.tgz:25988.got - 2010.06.03 14:59:27.
