data_PCOD9456367
_publ_section_title
;
Structure prediction by ZEFSAII (Michael W. Deem and Ramdas Pophale) SiO2 
 PCOD9456367
Probable space group: P B C N
;
_chemical_formula_sum "Si O2"
_cell_formula_units_Z 56
_cell_length_a 9.019919
_cell_length_b 13.017554
_cell_length_c 20.498118
_cell_angle_alpha 90.000000
_cell_angle_beta 90.000000
_cell_angle_gamma 90.000000
_cell_volume 2406.833315
_symmetry_space_group_name_H-M "P B C N"
_symmetry_group_IT_number 60
_symmetry_cell_setting 'orthorhombic'
loop_
_space_group_symop_operation_xyz
x,y,z
1/2-x,1/2-y,1/2+z
1/2+x,1/2-y,-z
-x,y,1/2-z
-x,-y,-z
1/2+x,1/2+y,1/2-z
1/2-x,1/2+y,z
x,-y,1/2+z
loop_
_atom_site_type_symbol
_atom_site_label
_atom_site_fract_x
_atom_site_fract_y
_atom_site_fract_z
Si Si1 0.689258 0.005031 0.422951
Si Si2 0.777552 0.244147 0.798047
Si Si3 0.075622 0.885949 0.007141
Si Si4 0.495090 0.811502 0.589750
Si Si5 0.534880 0.368586 0.869535
Si Si6 0.729978 0.113927 0.183569
Si Si7 0.630817 0.944144 0.286812
O O1 0.600057 0.103380 0.451313
O O2 0.835798 0.052297 0.388485
O O3 0.757428 0.915663 0.468530
O O4 0.590838 0.969978 0.361348
O O5 0.903473 0.291593 0.843236
O O6 0.624888 0.280461 0.832599
O O7 0.777905 0.281902 0.724647
O O8 0.777252 0.122784 0.795676
O O9 0.005047 0.800258 0.055408
O O10 0.044548 0.836290 0.936728
O O11 0.000000 0.000000 0.000000
O O12 0.644232 0.864270 0.616297
O O13 0.400543 0.414097 0.828234
O O14 0.660899 0.034959 0.235669
O O15 0.500000 0.884597 0.250000
#
# Coordination Sequence:
#
# PCOD9456367 Si02
#       7
#     8   8   8   8   8   8   8
#     4  10  21  41  65  93 130 180 222 267 347 403
#     4  11  23  40  65  94 133 179 216 276 355 398
#     4  10  23  44  69  97 130 184 236 273 335 414
#     4  11  22  42  68  94 133 177 225 282 338 406
#     4  10  23  41  63  93 134 172 225 281 331 403
#     4  12  23  40  63 102 131 169 223 283 344 411
#     4  12  21  38  66  98 135 171 220 279 344 418
#
# _framework density 23.267087
#
# number of rings (size 3 to 8) (size 9 to 14) (size 15 to 20)
#    0.000    1.143    5.714    1.714    0.000    5.714 
#    2.571    2.143    0.000    0.000    0.000    0.000 
#    0.000    0.000    0.000    0.000    0.000    0.000 
#
# Total GULP energy -312054.103254 kJ/mol
# GULP energy per Si atom -5572.394701 kJ/mol
# Density = 2.321413 g / cm^3
# Si number density = 23.267087 Si / 1000 Ang^3
#
#
#
# Elastic Constant Matrix: (Units=GPa)
#
#
# Indices 1 2 3 4 5 6 
#
# 1 94.7610 7.7275 25.2308 0.0000 0.0000 0.0000
# 2 7.7275 63.3340 6.6160 0.0000 0.0000 0.0000
# 3 25.2308 6.6160 90.6746 0.0000 0.0000 0.0000
# 4 0.0000 0.0000 0.0000 21.8108 0.0000 0.0000
# 5 0.0000 0.0000 0.0000 0.0000 30.7637 0.0000
# 6 0.0000 0.0000 0.0000 0.0000 0.0000 6.4577
#
#
#
# Elastic Compliance Matrix: (Units=1/GPa)
#
#
# Indices 1 2 3 4 5 6 
#
# 1 0.011469 -0.001074 -0.003113 0.000000 0.000000 0.000000
# 2 -0.001074 0.016011 -0.000869 0.000000 0.000000 0.000000
# 3 -0.003113 -0.000869 0.011958 0.000000 0.000000 0.000000
# 4 0.000000 0.000000 0.000000 0.045849 0.000000 0.000000
# 5 0.000000 0.000000 0.000000 0.000000 0.032506 0.000000
# 6 0.000000 0.000000 0.000000 0.000000 0.000000 0.154854
#
#
# Mechanical properties :
#
#
# Convention : Reuss Voigt Hill
#
# Bulk Modulus (GPa) = 34.10005 36.43534 35.26770
# Shear Modulus (GPa) = 17.09194 25.75281 21.42237
#
# Velocity S-wave (km/s) = 2.71329 3.33052 3.03762
# Velocity P-wave (km/s) = 4.95011 5.52118 5.24343
#
# Compressibility (1/GPa) = 0.02932547
#
# Stress axis : x y z
#
# Youngs Moduli (GPa) = 87.18907 62.45629 83.62534
#
# Poissons Ratio (x) = 0.06709 0.26033
# Poissons Ratio (y) = 0.09366 0.07270
# Poissons Ratio (z) = 0.27142 0.05430
#
# Static dielectric constant tensor:
#      x y z
#    x 1.996910 0.000000 0.000000 
#    y 0.000000 1.978090 0.000000 
#    z 0.000000 0.000000 1.907470 
# 
# From -- ./inp_files/22219.got.cif
#   From: 2010.05.17/outbox.cif.g08.bks.cpg/sg60_12_cif.got.tgz:22219.got - 2010.06.03 14:59:27.
