data_PCOD9456218
_publ_section_title
;
Structure prediction by ZEFSAII (Michael W. Deem and Ramdas Pophale) SiO2 
 PCOD9456218
Probable space group: P B C N
;
_chemical_formula_sum "Si O2"
_cell_formula_units_Z 48
_cell_length_a 7.994570
_cell_length_b 18.646220
_cell_length_c 15.116154
_cell_angle_alpha 90.000000
_cell_angle_beta 90.000000
_cell_angle_gamma 90.000000
_cell_volume 2253.342569
_symmetry_space_group_name_H-M "P B C N"
_symmetry_group_IT_number 60
_symmetry_cell_setting 'orthorhombic'
loop_
_space_group_symop_operation_xyz
x,y,z
1/2-x,1/2-y,1/2+z
1/2+x,1/2-y,-z
-x,y,1/2-z
-x,-y,-z
1/2+x,1/2+y,1/2-z
1/2-x,1/2+y,z
x,-y,1/2+z
loop_
_atom_site_type_symbol
_atom_site_label
_atom_site_fract_x
_atom_site_fract_y
_atom_site_fract_z
Si Si1 0.500000 0.432258 0.250000
Si Si2 0.238832 0.148076 0.858802
Si Si3 0.010301 0.120710 0.023147
Si Si4 0.000000 0.610348 0.250000
Si Si5 0.342854 0.506393 0.593172
Si Si6 0.014183 0.515475 0.894802
Si Si7 0.162045 0.192490 0.311237
O O1 0.350543 0.379756 0.270937
O O2 0.516679 0.482602 0.333879
O O3 0.361700 0.082071 0.882846
O O4 0.315788 0.223827 0.834284
O O5 0.099238 0.156805 0.937946
O O6 0.896499 0.160737 0.093602
O O7 0.892408 0.056762 0.987479
O O8 0.160957 0.076882 0.070097
O O9 0.033530 0.555201 0.333184
O O10 0.169151 0.659813 0.263627
O O11 0.173241 0.536609 0.631850
O O12 0.000000 0.500000 0.000000
O O13 0.000000 0.180678 0.250000
#
# Coordination Sequence:
#
# PCOD9456218 Si02
#       7
#     4   8   8   4   8   8   8
#     4  10  23  40  72  95 140 180 234 306 363 438
#     4  11  26  48  68 108 146 192 252 305 385 448
#     4  10  23  45  68 102 142 193 234 301 378 451
#     4  12  29  48  76 113 154 194 264 316 375 462
#     4  10  21  39  71 102 137 175 244 298 364 433
#     4  12  24  43  75 112 144 189 249 322 373 451
#     4  12  29  48  73 104 153 201 246 311 388 451
#
# _framework density 21.301689
#
# number of rings (size 3 to 8) (size 9 to 14) (size 15 to 20)
#    0.000    1.000    1.667    3.500   11.667    2.667 
#    3.000    0.000    0.000    0.000    0.000    0.000 
#    0.000    0.000    0.000    0.000    0.000    0.000 
#
# Total GULP energy -267228.755185 kJ/mol
# GULP energy per Si atom -5567.265733 kJ/mol
# Density = 2.125321 g / cm^3
# Si number density = 21.301689 Si / 1000 Ang^3
#
#
#
# Elastic Constant Matrix: (Units=GPa)
#
#
# Indices 1 2 3 4 5 6 
#
# 1 111.9826 52.6982 10.3922 0.0000 0.0000 0.0000
# 2 52.6982 108.4491 50.2591 0.0000 0.0000 0.0000
# 3 10.3922 50.2591 77.3095 0.0000 0.0000 0.0000
# 4 0.0000 0.0000 0.0000 21.3189 0.0000 0.0000
# 5 0.0000 0.0000 0.0000 0.0000 38.0059 0.0000
# 6 0.0000 0.0000 0.0000 0.0000 0.0000 29.5551
#
#
#
# Elastic Compliance Matrix: (Units=1/GPa)
#
#
# Indices 1 2 3 4 5 6 
#
# 1 0.012087 -0.007328 0.003139 0.000000 0.000000 0.000000
# 2 -0.007328 0.017640 -0.010483 0.000000 0.000000 0.000000
# 3 0.003139 -0.010483 0.019328 0.000000 0.000000 0.000000
# 4 0.000000 0.000000 0.000000 0.046907 0.000000 0.000000
# 5 0.000000 0.000000 0.000000 0.000000 0.026312 0.000000
# 6 0.000000 0.000000 0.000000 0.000000 0.000000 0.033835
#
#
# Mechanical properties :
#
#
# Convention : Reuss Voigt Hill
#
# Bulk Modulus (GPa) = 50.73121 58.27114 54.50117
# Shear Modulus (GPa) = 26.03855 30.06877 28.05366
#
# Velocity S-wave (km/s) = 3.50003 3.76116 3.63294
# Velocity P-wave (km/s) = 6.34042 6.80267 6.57561
#
# Compressibility (1/GPa) = 0.01971173
#
# Stress axis : x y z
#
# Youngs Moduli (GPa) = 82.73112 56.68900 51.73875
#
# Poissons Ratio (x) = 0.41545 -0.16243
# Poissons Ratio (y) = 0.60629 0.54237
# Poissons Ratio (z) = -0.25973 0.59426
#
# Static dielectric constant tensor:
#      x y z
#    x 1.891160 0.000000 0.000000 
#    y 0.000000 1.827420 0.000000 
#    z 0.000000 0.000000 1.919490 
# 
# From -- ./inp_files/15076.got.cif
#   From: 2010.05.17/outbox.cif.g08.bks.cpg/sg60_8_cif.got.tgz:15076.got - 2010.06.03 14:59:27.
