data_PCOD9456809
_publ_section_title
;
Structure prediction by ZEFSAII (Michael W. Deem and Ramdas Pophale) SiO2 
 PCOD9456809
Probable space group: P B C N
;
_chemical_formula_sum "Si O2"
_cell_formula_units_Z 32
_cell_length_a 5.217874
_cell_length_b 12.946621
_cell_length_c 20.606903
_cell_angle_alpha 90.000000
_cell_angle_beta 90.000000
_cell_angle_gamma 90.000000
_cell_volume 1392.075368
_symmetry_space_group_name_H-M "P B C N"
_symmetry_group_IT_number 60
_symmetry_cell_setting 'orthorhombic'
loop_
_space_group_symop_operation_xyz
x,y,z
1/2-x,1/2-y,1/2+z
1/2+x,1/2-y,-z
-x,y,1/2-z
-x,-y,-z
1/2+x,1/2+y,1/2-z
1/2-x,1/2+y,z
x,-y,1/2+z
loop_
_atom_site_type_symbol
_atom_site_label
_atom_site_fract_x
_atom_site_fract_y
_atom_site_fract_z
Si Si1 0.255778 0.963128 0.934874
Si Si2 0.252079 0.323948 0.207873
Si Si3 0.870009 0.370408 0.431399
Si Si4 0.774285 0.150261 0.389539
O O1 0.509770 0.902072 0.910105
O O2 0.016265 0.924216 0.894673
O O3 0.342533 0.082567 0.931653
O O4 0.230693 0.928121 0.009870
O O5 0.500000 0.345304 0.250000
O O6 0.235329 0.387986 0.141164
O O7 0.253707 0.206565 0.179865
O O8 0.000000 0.341016 0.250000
O O9 0.843702 0.247293 0.437027
#
# Coordination Sequence:
#
# PCOD9456809 Si02
#       4
#     8   8   8   8
#     4  11  21  41  61 103 123 165 217 260 338 377
#     4  10  22  40  61  87 124 171 214 260 318 377
#     4   9  24  37  68  92 134 164 210 275 317 391
#     4  10  23  37  66  88 131 167 207 269 319 379
#
# _framework density 22.987261
#
# number of rings (size 3 to 8) (size 9 to 14) (size 15 to 20)
#    1.500    0.500    0.000    3.000    0.000   10.000 
#    0.000    5.000    0.000    0.000    0.000    0.000 
#    0.000    0.000    0.000    0.000    0.000    0.000 
#
# Total GULP energy -178754.747138 kJ/mol
# GULP energy per Si atom -5586.085848 kJ/mol
# Density = 2.293494 g / cm^3
# Si number density = 22.987261 Si / 1000 Ang^3
#
#
#
# Elastic Constant Matrix: (Units=GPa)
#
#
# Indices 1 2 3 4 5 6 
#
# 1 174.4869 45.1795 68.0554 0.0000 0.0000 0.0000
# 2 45.1795 83.3622 5.1933 0.0000 0.0000 0.0000
# 3 68.0554 5.1933 113.3148 0.0000 0.0000 0.0000
# 4 0.0000 0.0000 0.0000 34.1732 0.0000 0.0000
# 5 0.0000 0.0000 0.0000 0.0000 35.7648 0.0000
# 6 0.0000 0.0000 0.0000 0.0000 0.0000 85.4357
#
#
#
# Elastic Compliance Matrix: (Units=1/GPa)
#
#
# Indices 1 2 3 4 5 6 
#
# 1 0.008902 -0.004505 -0.005140 0.000000 0.000000 0.000000
# 2 -0.004505 0.014309 0.002050 0.000000 0.000000 0.000000
# 3 -0.005140 0.002050 0.011818 0.000000 0.000000 0.000000
# 4 0.000000 0.000000 0.000000 0.029263 0.000000 0.000000
# 5 0.000000 0.000000 0.000000 0.000000 0.027960 0.000000
# 6 0.000000 0.000000 0.000000 0.000000 0.000000 0.011705
#
#
# Mechanical properties :
#
#
# Convention : Reuss Voigt Hill
#
# Bulk Modulus (GPa) = 50.40412 67.55780 58.98096
# Shear Modulus (GPa) = 39.75793 47.92379 43.84086
#
# Velocity S-wave (km/s) = 4.16331 4.57091 4.37187
# Velocity P-wave (km/s) = 6.71457 7.57038 7.15528
#
# Compressibility (1/GPa) = 0.01983965
#
# Stress axis : x y z
#
# Youngs Moduli (GPa) = 112.33123 69.88384 84.61572
#
# Poissons Ratio (x) = 0.31479 0.43494
# Poissons Ratio (y) = 0.50600 -0.17342
# Poissons Ratio (z) = 0.57740 -0.14323
#
# Static dielectric constant tensor:
#      x y z
#    x 1.831770 0.000000 0.000000 
#    y 0.000000 1.935400 0.000000 
#    z 0.000000 0.000000 1.844320 
# 
# From -- ./inp_files/18388.got.cif
#   From: 2010.05.17/outbox.cif.g08.bks.cpg/sg60_10_cif.got.tgz:18388.got - 2010.06.03 14:59:27.
