data_PCOD9456875
_publ_section_title
;
Structure prediction by ZEFSAII (Michael W. Deem and Ramdas Pophale) SiO2 
 PCOD9456875
Probable space group: P B C N
;
_chemical_formula_sum "Si O2"
_cell_formula_units_Z 56
_cell_length_a 12.497516
_cell_length_b 13.628191
_cell_length_c 14.238386
_cell_angle_alpha 90.000000
_cell_angle_beta 90.000000
_cell_angle_gamma 90.000000
_cell_volume 2425.061045
_symmetry_space_group_name_H-M "P B C N"
_symmetry_group_IT_number 60
_symmetry_cell_setting 'orthorhombic'
loop_
_space_group_symop_operation_xyz
x,y,z
1/2-x,1/2-y,1/2+z
1/2+x,1/2-y,-z
-x,y,1/2-z
-x,-y,-z
1/2+x,1/2+y,1/2-z
1/2-x,1/2+y,z
x,-y,1/2+z
loop_
_atom_site_type_symbol
_atom_site_label
_atom_site_fract_x
_atom_site_fract_y
_atom_site_fract_z
Si Si1 0.106244 0.498513 0.206316
Si Si2 0.407814 0.417648 0.999265
Si Si3 0.003588 0.607927 0.543616
Si Si4 0.795187 0.070922 0.387940
Si Si5 0.114318 0.153873 0.286835
Si Si6 0.093831 0.793793 0.461128
Si Si7 0.706213 0.849429 0.155829
O O1 0.172326 0.573510 0.142428
O O2 0.179737 0.446766 0.285030
O O3 0.000000 0.545051 0.250000
O O4 0.063041 0.409471 0.142545
O O5 0.312451 0.470586 0.053751
O O6 0.472176 0.331525 0.050126
O O7 0.500000 0.500000 0.000000
O O8 0.384250 0.386251 0.892999
O O9 0.885125 0.647503 0.572914
O O10 0.000000 0.500000 0.500000
O O11 0.075386 0.679439 0.479974
O O12 0.855224 0.071723 0.288493
O O13 0.850270 0.158523 0.445798
O O14 0.187333 0.249966 0.285955
O O15 0.000000 0.188700 0.250000
O O16 0.174849 0.835868 0.384075
#
# Coordination Sequence:
#
# PCOD9456875 Si02
#       7
#     8   8   8   8   8   8   8
#     4  10  24  42  63  99 142 193 242 282 364 445
#     4  10  22  40  68 106 136 176 235 302 366 426
#     4  11  23  44  68  94 136 189 235 295 357 441
#     4  11  24  41  73 104 145 182 239 307 368 430
#     4  12  21  42  68  97 140 186 237 294 365 440
#     4  11  23  42  66 106 139 177 241 300 366 432
#     4  11  24  40  66  98 138 188 241 289 362 446
#
# _framework density 23.092200999999999
#
# number of rings (size 3 to 8) (size 9 to 14) (size 15 to 20)
#    0.000    1.143    4.286    3.000    6.000    2.286 
#    0.000    0.000    0.000    0.000    0.000    0.000 
#    0.000    0.000    0.000    0.000    0.000    0.000 
#
# Total GULP energy -312575.248519 kJ/mol
# GULP energy per Si atom -5581.700866 kJ/mol
# Density = 2.303964 g / cm^3
# Si number density = 23.092201 Si / 1000 Ang^3
#
#
#
# Elastic Constant Matrix: (Units=GPa)
#
#
# Indices 1 2 3 4 5 6 
#
# 1 48.0607 28.3312 27.3751 0.0000 0.0000 0.0000
# 2 28.3312 87.0082 26.2867 0.0000 0.0000 0.0000
# 3 27.3751 26.2867 84.3671 0.0000 0.0000 0.0000
# 4 0.0000 0.0000 0.0000 20.9034 0.0000 0.0000
# 5 0.0000 0.0000 0.0000 0.0000 39.6354 0.0000
# 6 0.0000 0.0000 0.0000 0.0000 0.0000 24.8695
#
#
#
# Elastic Compliance Matrix: (Units=1/GPa)
#
#
# Indices 1 2 3 4 5 6 
#
# 1 0.029237 -0.007345 -0.007198 0.000000 0.000000 0.000000
# 2 -0.007345 0.014533 -0.002145 0.000000 0.000000 0.000000
# 3 -0.007198 -0.002145 0.014857 0.000000 0.000000 0.000000
# 4 0.000000 0.000000 0.000000 0.047839 0.000000 0.000000
# 5 0.000000 0.000000 0.000000 0.000000 0.025230 0.000000
# 6 0.000000 0.000000 0.000000 0.000000 0.000000 0.040210
#
#
# Mechanical properties :
#
#
# Convention : Reuss Voigt Hill
#
# Bulk Modulus (GPa) = 39.60325 42.60243 41.10284
# Shear Modulus (GPa) = 23.39744 26.24454 24.82099
#
# Velocity S-wave (km/s) = 3.18656 3.37488 3.28207
# Velocity P-wave (km/s) = 5.54312 5.80304 5.67457
#
# Compressibility (1/GPa) = 0.02525045
#
# Stress axis : x y z
#
# Youngs Moduli (GPa) = 34.20323 68.80954 67.30929
#
# Poissons Ratio (x) = 0.50543 0.48450
# Poissons Ratio (y) = 0.25123 0.14436
# Poissons Ratio (z) = 0.24620 0.14758
#
# Static dielectric constant tensor:
#      x y z
#    x 1.957830 0.000000 0.000000 
#    y 0.000000 1.901770 0.000000 
#    z 0.000000 0.000000 1.942790 
# 
# From -- ./inp_files/16172.got.cif
#   From: 2010.05.17/outbox.cif.g08.bks.cpg/sg60_9_cif.got.tgz:16172.got - 2010.06.03 14:59:27.
