data_PCOD9456193
_publ_section_title
;
Structure prediction by ZEFSAII (Michael W. Deem and Ramdas Pophale) SiO2 
 PCOD9456193
Probable space group: P B C N
;
_chemical_formula_sum "Si O2"
_cell_formula_units_Z 40
_cell_length_a 8.233955
_cell_length_b 26.020011
_cell_length_c 8.585415
_cell_angle_alpha 90.000000
_cell_angle_beta 90.000000
_cell_angle_gamma 90.000000
_cell_volume 1839.404556
_symmetry_space_group_name_H-M "P B C N"
_symmetry_group_IT_number 60
_symmetry_cell_setting 'orthorhombic'
loop_
_space_group_symop_operation_xyz
x,y,z
1/2-x,1/2-y,1/2+z
1/2+x,1/2-y,-z
-x,y,1/2-z
-x,-y,-z
1/2+x,1/2+y,1/2-z
1/2-x,1/2+y,z
x,-y,1/2+z
loop_
_atom_site_type_symbol
_atom_site_label
_atom_site_fract_x
_atom_site_fract_y
_atom_site_fract_z
Si Si1 0.629227 0.879499 0.999730
Si Si2 0.805837 0.955849 0.756796
Si Si3 0.129366 0.541518 0.561551
Si Si4 0.943127 0.717885 0.002573
Si Si5 0.755036 0.707343 0.697112
O O1 0.490516 0.911327 0.088624
O O2 0.523224 0.833312 0.924721
O O3 0.743591 0.849860 0.123131
O O4 0.728379 0.914765 0.878817
O O5 0.742027 0.944571 0.584310
O O6 0.000000 0.955885 0.750000
O O7 0.734054 0.011750 0.808917
O O8 0.000000 0.500000 0.500000
O O9 0.797242 0.706420 0.879239
O O10 0.090038 0.734007 0.888670
O O11 0.889702 0.759796 0.125897
#
# Coordination Sequence:
#
# PCOD9456193 Si02
#       5
#     8   8   8   8   8
#     4   9  20  39  59  88 122 167 211 246 323 396
#     4  11  23  40  63  97 129 162 214 273 323 373
#     4  10  21  39  66  91 123 170 209 255 319 390
#     4   9  20  38  60  86 122 159 210 260 318 375
#     4   9  20  38  59  88 119 162 207 264 312 377
#
# _framework density 21.746168000000001
#
# number of rings (size 3 to 8) (size 9 to 14) (size 15 to 20)
#    1.200    1.200    0.000    3.000    0.000   10.400 
#    7.200    0.000    0.000    0.000    0.000    0.000 
#    0.000    0.000    0.000    0.000    0.000    0.000 
#
# Total GULP energy -222685.186805 kJ/mol
# GULP energy per Si atom -5567.129670 kJ/mol
# Density = 2.169667 g / cm^3
# Si number density = 21.746168 Si / 1000 Ang^3
#
#
#
# Elastic Constant Matrix: (Units=GPa)
#
#
# Indices 1 2 3 4 5 6 
#
# 1 105.5727 39.6544 33.7785 0.0000 0.0000 0.0000
# 2 39.6544 97.5800 31.0680 0.0000 0.0000 0.0000
# 3 33.7785 31.0680 95.3285 0.0000 0.0000 0.0000
# 4 0.0000 0.0000 0.0000 220.4368 0.0000 0.0000
# 5 0.0000 0.0000 0.0000 0.0000 38.0180 0.0000
# 6 0.0000 0.0000 0.0000 0.0000 0.0000 32.5328
#
#
#
# Elastic Compliance Matrix: (Units=1/GPa)
#
#
# Indices 1 2 3 4 5 6 
#
# 1 0.011874 -0.003889 -0.002940 0.000000 0.000000 0.000000
# 2 -0.003889 0.012708 -0.002764 0.000000 0.000000 0.000000
# 3 -0.002940 -0.002764 0.012432 0.000000 0.000000 0.000000
# 4 0.000000 0.000000 0.000000 0.004536 0.000000 0.000000
# 5 0.000000 0.000000 0.000000 0.000000 0.026303 0.000000
# 6 0.000000 0.000000 0.000000 0.000000 0.000000 0.030738
#
#
# Mechanical properties :
#
#
# Convention : Reuss Voigt Hill
#
# Bulk Modulus (GPa) = 56.08777 56.38698 56.23738
# Shear Modulus (GPa) = 40.41367 71.12953 55.77160
#
# Velocity S-wave (km/s) = 4.31562 5.72538 5.06974
# Velocity P-wave (km/s) = 7.11905 8.34821 7.75801
#
# Compressibility (1/GPa) = 0.01782920
#
# Stress axis : x y z
#
# Youngs Moduli (GPa) = 84.22073 78.68828 80.43506
#
# Poissons Ratio (x) = 0.30603 0.23646
# Poissons Ratio (y) = 0.32755 0.22229
# Poissons Ratio (z) = 0.24759 0.21747
#
# Static dielectric constant tensor:
#      x y z
#    x 1.823190 0.000000 0.000000 
#    y 0.000000 1.864440 0.000000 
#    z 0.000000 0.000000 1.841220 
# 
# From -- ./inp_files/4074.got.cif
#   From: 2010.05.17/outbox.cif.g08.bks.cpg/sg60_3_cif.got.tgz:4074.got - 2010.06.03 14:59:27.
