data_PCOD9456584
_publ_section_title
;
Structure prediction by ZEFSAII (Michael W. Deem and Ramdas Pophale) SiO2 
 PCOD9456584
Probable space group: P B C N
;
_chemical_formula_sum "Si O2"
_cell_formula_units_Z 60
_cell_length_a 5.256018
_cell_length_b 23.549697
_cell_length_c 22.096050
_cell_angle_alpha 90.000000
_cell_angle_beta 90.000000
_cell_angle_gamma 90.000000
_cell_volume 2734.996731
_symmetry_space_group_name_H-M "P B C N"
_symmetry_group_IT_number 60
_symmetry_cell_setting 'orthorhombic'
loop_
_space_group_symop_operation_xyz
x,y,z
1/2-x,1/2-y,1/2+z
1/2+x,1/2-y,-z
-x,y,1/2-z
-x,-y,-z
1/2+x,1/2+y,1/2-z
1/2-x,1/2+y,z
x,-y,1/2+z
loop_
_atom_site_type_symbol
_atom_site_label
_atom_site_fract_x
_atom_site_fract_y
_atom_site_fract_z
Si Si1 0.059591 0.679139 0.482078
Si Si2 0.500046 0.020169 0.569209
Si Si3 0.622236 0.099675 0.381034
Si Si4 0.364705 0.525398 0.830174
Si Si5 0.000000 0.603624 0.750000
Si Si6 0.237199 0.116230 0.639194
Si Si7 0.615661 0.606699 0.187507
Si Si8 0.559998 0.303680 0.056089
O O1 0.978685 0.625867 0.442976
O O2 0.030341 0.735740 0.440734
O O3 0.848477 0.685441 0.535061
O O4 0.347939 0.678641 0.505863
O O5 0.779199 0.024188 0.599233
O O6 0.376811 0.081424 0.584866
O O7 0.500000 0.000000 0.500000
O O8 0.376873 0.968393 0.608326
O O9 0.406390 0.117797 0.332069
O O10 0.902954 0.120133 0.363222
O O11 0.609893 0.563618 0.826100
O O12 0.386370 0.461771 0.808521
O O13 0.163124 0.560710 0.791720
O O14 0.891127 0.642611 0.804794
O O15 0.031265 0.159561 0.612848
O O16 0.500000 0.629663 0.250000
#
# Coordination Sequence:
#
# PCOD9456584 Si02
#       8
#     8   8   8   8   4   8   8   8
#     4  10  22  44  61  93 117 157 204 246 298 373
#     4  10  22  34  51  87 126 156 187 240 308 365
#     4  11  22  37  59  86 120 157 191 248 296 347
#     4  10  22  36  55  84 118 162 202 243 297 361
#     4  10  22  36  58  82 122 156 212 248 300 358
#     4  11  21  37  58  89 117 162 197 256 300 366
#     4  11  22  37  58  84 116 161 202 239 287 357
#     4  10  23  39  69  87 118 159 201 248 303 359
#
# _framework density 21.937868000000002
#
# number of rings (size 3 to 8) (size 9 to 14) (size 15 to 20)
#    0.000    1.600    1.333    3.200    9.333    1.600 
#    0.000    0.000    1.467    1.600    0.000    0.000 
#    0.000    0.000    0.000    0.000    0.000    0.000 
#
# Total GULP energy -334521.918087 kJ/mol
# GULP energy per Si atom -5575.365301 kJ/mol
# Density = 2.188794 g / cm^3
# Si number density = 21.937868 Si / 1000 Ang^3
#
#
#
# Elastic Constant Matrix: (Units=GPa)
#
#
# Indices 1 2 3 4 5 6 
#
# 1 58.7338 -6.5662 6.7328 0.0000 0.0000 0.0000
# 2 -6.5662 46.2714 -6.1987 0.0000 0.0000 0.0000
# 3 6.7328 -6.1987 92.5720 0.0000 0.0000 0.0000
# 4 0.0000 0.0000 0.0000 4.0400 0.0000 0.0000
# 5 0.0000 0.0000 0.0000 0.0000 32.1852 0.0000
# 6 0.0000 0.0000 0.0000 0.0000 0.0000 19.9117
#
#
#
# Elastic Compliance Matrix: (Units=1/GPa)
#
#
# Indices 1 2 3 4 5 6 
#
# 1 0.017413 0.002322 -0.001111 0.000000 0.000000 0.000000
# 2 0.002322 0.022117 0.001312 0.000000 0.000000 0.000000
# 3 -0.001111 0.001312 0.010971 0.000000 0.000000 0.000000
# 4 0.000000 0.000000 0.000000 0.247526 0.000000 0.000000
# 5 0.000000 0.000000 0.000000 0.000000 0.031070 0.000000
# 6 0.000000 0.000000 0.000000 0.000000 0.000000 0.050222
#
#
# Mechanical properties :
#
#
# Convention : Reuss Voigt Hill
#
# Bulk Modulus (GPa) = 18.00260 20.61255 19.30757
# Shear Modulus (GPa) = 12.72949 24.80132 18.76541
#
# Velocity S-wave (km/s) = 2.41146 3.36598 2.92788
# Velocity P-wave (km/s) = 3.99718 4.95204 4.50001
#
# Compressibility (1/GPa) = 0.05554754
#
# Stress axis : x y z
#
# Youngs Moduli (GPa) = 57.42854 45.21420 91.14886
#
# Poissons Ratio (x) = -0.10500 0.10126
# Poissons Ratio (y) = -0.13336 -0.11959
# Poissons Ratio (z) = 0.06380 -0.05932
#
# Static dielectric constant tensor:
#      x y z
#    x 1.898410 0.000000 0.000000 
#    y 0.000000 1.760490 0.000000 
#    z 0.000000 0.000000 1.886020 
# 
# From -- ./inp_files/21776.got.cif
#   From: 2010.05.17/outbox.cif.g08.bks.cpg/sg60_11_cif.got.tgz:21776.got - 2010.06.03 14:59:27.
