data_PCOD9456376
_publ_section_title
;
Structure prediction by ZEFSAII (Michael W. Deem and Ramdas Pophale) SiO2 
 PCOD9456376
Probable space group: P B C N
;
_chemical_formula_sum "Si O2"
_cell_formula_units_Z 36
_cell_length_a 4.912841
_cell_length_b 9.884935
_cell_length_c 25.846270
_cell_angle_alpha 90.000000
_cell_angle_beta 90.000000
_cell_angle_gamma 90.000000
_cell_volume 1255.175355
_symmetry_space_group_name_H-M "P B C N"
_symmetry_group_IT_number 60
_symmetry_cell_setting 'orthorhombic'
loop_
_space_group_symop_operation_xyz
x,y,z
1/2-x,1/2-y,1/2+z
1/2+x,1/2-y,-z
-x,y,1/2-z
-x,-y,-z
1/2+x,1/2+y,1/2-z
1/2-x,1/2+y,z
x,-y,1/2+z
loop_
_atom_site_type_symbol
_atom_site_label
_atom_site_fract_x
_atom_site_fract_y
_atom_site_fract_z
Si Si1 0.707455 0.683452 0.666976
Si Si2 0.000000 0.485346 0.250000
Si Si3 0.794997 0.848713 0.839320
Si Si4 0.931863 0.335290 0.948673
Si Si5 0.185983 0.934051 0.442790
O O1 0.388558 0.713209 0.665509
O O2 0.790934 0.611317 0.613646
O O3 0.795813 0.604582 0.716869
O O4 0.887943 0.819951 0.667739
O O5 0.826525 0.566899 0.292323
O O6 0.731510 0.892033 0.898514
O O7 0.229961 0.406988 0.944465
O O8 0.929897 0.171793 0.945231
O O9 0.817262 0.382334 0.003322
#
# Coordination Sequence:
#
# PCOD9456376 Si02
#       5
#     8   4   8   8   8
#     4  11  25  44  67  99 135 177 228 281 340 406
#     4  12  24  46  66 100 128 190 220 296 322 418
#     4  11  25  44  67  99 135 177 228 281 340 406
#     4  10  21  41  66 100 138 180 227 283 345 411
#     4  10  21  41  66 100 138 180 227 283 345 411
#
# _framework density 28.681249999999999
#
# number of rings (size 3 to 8) (size 9 to 14) (size 15 to 20)
#    0.000    1.333    2.222    2.667    0.000    4.444 
#    4.000    0.000    0.000    0.000    0.000    0.000 
#    0.000    0.000    0.000    0.000    0.000    0.000 
#
# Total GULP energy -201430.629053 kJ/mol
# GULP energy per Si atom -5595.295251 kJ/mol
# Density = 2.861597 g / cm^3
# Si number density = 28.681250 Si / 1000 Ang^3
#
#
#
# Elastic Constant Matrix: (Units=GPa)
#
#
# Indices 1 2 3 4 5 6 
#
# 1 71.9634 13.7038 38.4879 0.0000 0.0000 0.0000
# 2 13.7038 81.7399 47.1886 0.0000 0.0000 0.0000
# 3 38.4879 47.1886 268.8177 0.0000 0.0000 0.0000
# 4 0.0000 0.0000 0.0000 60.5457 0.0000 0.0000
# 5 0.0000 0.0000 0.0000 0.0000 51.0137 0.0000
# 6 0.0000 0.0000 0.0000 0.0000 0.0000 30.4203
#
#
#
# Elastic Compliance Matrix: (Units=1/GPa)
#
#
# Indices 1 2 3 4 5 6 
#
# 1 0.015199 -0.001437 -0.001924 0.000000 0.000000 0.000000
# 2 -0.001437 0.013749 -0.002208 0.000000 0.000000 0.000000
# 3 -0.001924 -0.002208 0.004383 0.000000 0.000000 0.000000
# 4 0.000000 0.000000 0.000000 0.016516 0.000000 0.000000
# 5 0.000000 0.000000 0.000000 0.000000 0.019603 0.000000
# 6 0.000000 0.000000 0.000000 0.000000 0.000000 0.032873
#
#
# Mechanical properties :
#
#
# Convention : Reuss Voigt Hill
#
# Bulk Modulus (GPa) = 45.05923 69.03130 57.04527
# Shear Modulus (GPa) = 41.37070 49.93865 45.65468
#
# Velocity S-wave (km/s) = 3.80205 4.17725 3.99406
# Velocity P-wave (km/s) = 5.91765 6.88379 6.41892
#
# Compressibility (1/GPa) = 0.02219301
#
# Stress axis : x y z
#
# Youngs Moduli (GPa) = 65.79582 72.73001 228.15541
#
# Poissons Ratio (x) = 0.10455 0.43890
# Poissons Ratio (y) = 0.09458 0.50372
# Poissons Ratio (z) = 0.12657 0.16057
#
# Static dielectric constant tensor:
#      x y z
#    x 2.268270 0.000000 0.000000 
#    y 0.000000 2.284750 0.000000 
#    z 0.000000 0.000000 2.106400 
# 
# From -- ./inp_files/25589.got.cif
#   From: 2010.05.17/outbox.cif.g08.bks.cpg/sg60_13_cif.got.tgz:25589.got - 2010.06.03 14:59:27.
