data_PCOD9456978
_publ_section_title
;
Structure prediction by ZEFSAII (Michael W. Deem and Ramdas Pophale) SiO2 
 PCOD9456978
Probable space group: P B C N
;
_chemical_formula_sum "Si O2"
_cell_formula_units_Z 32
_cell_length_a 24.385040
_cell_length_b 5.703245
_cell_length_c 9.746839
_cell_angle_alpha 90.000000
_cell_angle_beta 90.000000
_cell_angle_gamma 90.000000
_cell_volume 1355.530498
_symmetry_space_group_name_H-M "P B C N"
_symmetry_group_IT_number 60
_symmetry_cell_setting 'orthorhombic'
loop_
_space_group_symop_operation_xyz
x,y,z
1/2-x,1/2-y,1/2+z
1/2+x,1/2-y,-z
-x,y,1/2-z
-x,-y,-z
1/2+x,1/2+y,1/2-z
1/2-x,1/2+y,z
x,-y,1/2+z
loop_
_atom_site_type_symbol
_atom_site_label
_atom_site_fract_x
_atom_site_fract_y
_atom_site_fract_z
Si Si1 0.259804 0.511942 0.181988
Si Si2 0.342696 0.794523 0.796286
Si Si3 0.510780 0.302199 0.606432
Si Si4 0.907698 0.496149 0.965291
O O1 0.254931 0.764182 0.108167
O O2 0.212020 0.543967 0.295590
O O3 0.317757 0.458903 0.254638
O O4 0.374417 0.822282 0.938741
O O5 0.375916 0.883804 0.662251
O O6 0.500000 0.420597 0.750000
O O7 0.500000 0.500000 0.500000
O O8 0.463046 0.108537 0.595552
O O9 0.569684 0.193361 0.574694
#
# Coordination Sequence:
#
# PCOD9456978 Si02
#       4
#     8   8   8   8
#     4   8  20  42  64  98 140 184 242 284 348 416
#     4  10  22  41  68 100 134 191 230 302 344 424
#     4  11  26  44  69 105 137 179 235 297 358 439
#     4  11  24  44  70  96 140 180 242 285 362 420
#
# _framework density 23.606995000000001
#
# number of rings (size 3 to 8) (size 9 to 14) (size 15 to 20)
#    1.500    0.500    2.500    0.000    3.500    6.000 
#    0.000    0.000    0.000    0.000    0.000    0.000 
#    0.000    0.000    0.000    0.000    0.000    0.000 
#
# Total GULP energy -178307.796529 kJ/mol
# GULP energy per Si atom -5572.118642 kJ/mol
# Density = 2.355326 g / cm^3
# Si number density = 23.606995 Si / 1000 Ang^3
#
#
#
# Elastic Constant Matrix: (Units=GPa)
#
#
# Indices 1 2 3 4 5 6 
#
# 1 69.2227 -14.5159 14.3759 0.0000 0.0000 0.0000
# 2 -14.5159 85.5697 -3.8074 0.0000 0.0000 0.0000
# 3 14.3759 -3.8074 107.2900 0.0000 0.0000 0.0000
# 4 0.0000 0.0000 0.0000 25.3058 0.0000 0.0000
# 5 0.0000 0.0000 0.0000 0.0000 18.8288 0.0000
# 6 0.0000 0.0000 0.0000 0.0000 0.0000 2.5106
#
#
#
# Elastic Compliance Matrix: (Units=1/GPa)
#
#
# Indices 1 2 3 4 5 6 
#
# 1 0.015385 0.002522 -0.001972 0.000000 0.000000 0.000000
# 2 0.002522 0.012118 0.000092 0.000000 0.000000 0.000000
# 3 -0.001972 0.000092 0.009588 0.000000 0.000000 0.000000
# 4 0.000000 0.000000 0.000000 0.039517 0.000000 0.000000
# 5 0.000000 0.000000 0.000000 0.000000 0.053110 0.000000
# 6 0.000000 0.000000 0.000000 0.000000 0.000000 0.398304
#
#
# Mechanical properties :
#
#
# Convention : Reuss Voigt Hill
#
# Bulk Modulus (GPa) = 26.05836 28.24307 27.15072
# Shear Modulus (GPa) = 9.26734 27.06437 18.16586
#
# Velocity S-wave (km/s) = 1.98348 3.38961 2.77702
# Velocity P-wave (km/s) = 4.03831 5.22581 4.66996
#
# Compressibility (1/GPa) = 0.03837540
#
# Stress axis : x y z
#
# Youngs Moduli (GPa) = 65.00041 82.51978 104.29684
#
# Poissons Ratio (x) = -0.20812 0.20566
# Poissons Ratio (y) = -0.16393 -0.00961
# Poissons Ratio (z) = 0.12817 -0.00760
#
# Static dielectric constant tensor:
#      x y z
#    x 1.975100 0.000000 0.000000 
#    y 0.000000 1.971350 0.000000 
#    z 0.000000 0.000000 1.883020 
# 
# From -- ./inp_files/8306.got.cif
#   From: 2010.05.17/outbox.cif.g08.bks.cpg/sg60_5_cif.got.tgz:8306.got - 2010.06.03 14:59:27.
