data_PCOD9456546
_publ_section_title
;
Structure prediction by ZEFSAII (Michael W. Deem and Ramdas Pophale) SiO2 
 PCOD9456546
Probable space group: P B C N
;
_chemical_formula_sum "Si O2"
_cell_formula_units_Z 56
_cell_length_a 8.710142
_cell_length_b 14.996852
_cell_length_c 19.256511
_cell_angle_alpha 90.000000
_cell_angle_beta 90.000000
_cell_angle_gamma 90.000000
_cell_volume 2515.376174
_symmetry_space_group_name_H-M "P B C N"
_symmetry_group_IT_number 60
_symmetry_cell_setting 'orthorhombic'
loop_
_space_group_symop_operation_xyz
x,y,z
1/2-x,1/2-y,1/2+z
1/2+x,1/2-y,-z
-x,y,1/2-z
-x,-y,-z
1/2+x,1/2+y,1/2-z
1/2-x,1/2+y,z
x,-y,1/2+z
loop_
_atom_site_type_symbol
_atom_site_label
_atom_site_fract_x
_atom_site_fract_y
_atom_site_fract_z
Si Si1 0.552093 0.991844 0.579816
Si Si2 0.564167 0.139115 0.824802
Si Si3 0.230717 0.628633 0.119625
Si Si4 0.000321 0.218847 0.666905
Si Si5 0.391147 0.537200 0.683050
Si Si6 0.945108 0.233460 0.451027
Si Si7 0.784134 0.674810 0.072424
O O1 0.413534 0.934654 0.610465
O O2 0.700972 0.929962 0.587287
O O3 0.500000 0.000000 0.500000
O O4 0.550010 0.078065 0.628329
O O5 0.500000 0.162992 0.750000
O O6 0.723277 0.085534 0.809997
O O7 0.577740 0.223400 0.875246
O O8 0.141895 0.715289 0.149753
O O9 0.353510 0.563005 0.157136
O O10 0.315775 0.657140 0.048733
O O11 0.024842 0.117402 0.639279
O O12 0.000000 0.213248 0.750000
O O13 0.847947 0.265001 0.635601
O O14 0.500000 0.526991 0.750000
O O15 0.116659 0.199068 0.453796
O O16 0.903608 0.302555 0.510654
#
# Coordination Sequence:
#
# PCOD9456546 Si02
#       7
#     8   8   8   8   8   8   8
#     4  10  21  44  69  95 138 180 225 283 349 418
#     4  11  25  42  70 100 138 183 229 282 352 418
#     4  10  23  41  67  99 137 177 226 284 338 410
#     4  10  22  43  68  94 135 179 222 281 350 399
#     4  10  23  42  67  98 142 176 225 284 345 407
#     4  12  25  43  66 101 136 180 232 282 347 409
#     4  11  25  42  69  97 136 183 229 281 344 418
#
# _framework density 22.263072999999999
#
# number of rings (size 3 to 8) (size 9 to 14) (size 15 to 20)
#    0.000    1.429    2.857    1.714    4.000    8.000 
#    0.000    1.429    0.000    0.000    0.000    0.000 
#    0.000    0.000    0.000    0.000    0.000    0.000 
#
# Total GULP energy -312007.553512 kJ/mol
# GULP energy per Si atom -5571.563456 kJ/mol
# Density = 2.221240 g / cm^3
# Si number density = 22.263073 Si / 1000 Ang^3
#
#
#
# Elastic Constant Matrix: (Units=GPa)
#
#
# Indices 1 2 3 4 5 6 
#
# 1 61.4355 -2.7335 -18.6612 0.0000 0.0000 0.0000
# 2 -2.7335 49.3538 -28.6904 0.0000 0.0000 0.0000
# 3 -18.6612 -28.6904 50.6765 0.0000 0.0000 0.0000
# 4 0.0000 0.0000 0.0000 12.9190 0.0000 0.0000
# 5 0.0000 0.0000 0.0000 0.0000 26.3140 0.0000
# 6 0.0000 0.0000 0.0000 0.0000 0.0000 7.9878
#
#
#
# Elastic Compliance Matrix: (Units=1/GPa)
#
#
# Indices 1 2 3 4 5 6 
#
# 1 0.020316 0.008160 0.012101 0.000000 0.000000 0.000000
# 2 0.008160 0.033479 0.021959 0.000000 0.000000 0.000000
# 3 0.012101 0.021959 0.036621 0.000000 0.000000 0.000000
# 4 0.000000 0.000000 0.000000 0.077405 0.000000 0.000000
# 5 0.000000 0.000000 0.000000 0.000000 0.038003 0.000000
# 6 0.000000 0.000000 0.000000 0.000000 0.000000 0.125191
#
#
# Mechanical properties :
#
#
# Convention : Reuss Voigt Hill
#
# Bulk Modulus (GPa) = 5.71906 6.81062 6.26484
# Shear Modulus (GPa) = 16.40092 23.54756 19.97424
#
# Velocity S-wave (km/s) = 2.71714 3.25575 2.99856
# Velocity P-wave (km/s) = 3.52395 4.14717 3.84820
#
# Compressibility (1/GPa) = 0.17485378
#
# Stress axis : x y z
#
# Youngs Moduli (GPa) = 49.22249 29.86956 27.30683
#
# Poissons Ratio (x) = -0.24372 -0.33043
# Poissons Ratio (y) = -0.40164 -0.59962
# Poissons Ratio (z) = -0.59563 -0.65590
#
# Static dielectric constant tensor:
#      x y z
#    x 1.899300 0.000000 0.000000 
#    y 0.000000 1.921560 0.000000 
#    z 0.000000 0.000000 1.797350 
# 
# From -- ./inp_files/22226.got.cif
#   From: 2010.05.17/outbox.cif.g08.bks.cpg/sg60_12_cif.got.tgz:22226.got - 2010.06.03 14:59:27.
