data_PCOD9456710
_publ_section_title
;
Structure prediction by ZEFSAII (Michael W. Deem and Ramdas Pophale) SiO2 
 PCOD9456710
Probable space group: P B C N
;
_chemical_formula_sum "Si O2"
_cell_formula_units_Z 36
_cell_length_a 5.025960
_cell_length_b 21.473832
_cell_length_c 15.496970
_cell_angle_alpha 90.000000
_cell_angle_beta 90.000000
_cell_angle_gamma 90.000000
_cell_volume 1672.535603
_symmetry_space_group_name_H-M "P B C N"
_symmetry_group_IT_number 60
_symmetry_cell_setting 'orthorhombic'
loop_
_space_group_symop_operation_xyz
x,y,z
1/2-x,1/2-y,1/2+z
1/2+x,1/2-y,-z
-x,y,1/2-z
-x,-y,-z
1/2+x,1/2+y,1/2-z
1/2-x,1/2+y,z
x,-y,1/2+z
loop_
_atom_site_type_symbol
_atom_site_label
_atom_site_fract_x
_atom_site_fract_y
_atom_site_fract_z
Si Si1 0.821731 0.385352 0.169227
Si Si2 0.417855 0.073000 0.496165
Si Si3 0.595575 0.403359 0.888394
Si Si4 0.500000 0.698837 0.250000
Si Si5 0.500000 0.495570 0.250000
Si Si6 0.000000 0.212619 0.750000
O O1 0.694557 0.451040 0.196765
O O2 0.588884 0.333520 0.171422
O O3 0.000000 0.366154 0.250000
O O4 0.005083 0.395889 0.086899
O O5 0.116511 0.079408 0.463072
O O6 0.616050 0.106279 0.428809
O O7 0.500000 0.000000 0.500000
O O8 0.482046 0.346310 0.832928
O O9 0.630371 0.460095 0.821029
O O10 0.245946 0.741861 0.234886
#
# Coordination Sequence:
#
# PCOD9456710 Si02
#       6
#     8   8   8   4   4   4
#     4  11  24  41  70  96 137 176 228 269 344 400
#     4  12  24  41  67 106 145 166 213 278 350 413
#     4  11  25  42  68 102 135 177 218 277 343 403
#     4  11  24  49  72  91 134 181 240 278 330 395
#     4  10  22  38  66 102 134 178 216 266 342 418
#     4  11  24  45  72  91 124 191 236 284 318 403
#
# _framework density 21.524204999999998
#
# number of rings (size 3 to 8) (size 9 to 14) (size 15 to 20)
#    0.000    0.889    3.333    3.333    6.222    1.778 
#    0.000    4.444    0.000    0.000    0.000    0.000 
#    0.000    0.000    0.000    0.000    0.000    0.000 
#
# Total GULP energy -201258.496112 kJ/mol
# GULP energy per Si atom -5590.513781 kJ/mol
# Density = 2.147522 g / cm^3
# Si number density = 21.524205 Si / 1000 Ang^3
#
#
#
# Elastic Constant Matrix: (Units=GPa)
#
#
# Indices 1 2 3 4 5 6 
#
# 1 83.7735 23.4285 10.5671 0.0000 0.0000 0.0000
# 2 23.4285 110.8940 29.0083 0.0000 0.0000 0.0000
# 3 10.5671 29.0083 89.0160 0.0000 0.0000 0.0000
# 4 0.0000 0.0000 0.0000 -3.6575 0.0000 0.0000
# 5 0.0000 0.0000 0.0000 0.0000 27.8357 0.0000
# 6 0.0000 0.0000 0.0000 0.0000 0.0000 38.3669
#
#
#
# Elastic Compliance Matrix: (Units=1/GPa)
#
#
# Indices 1 2 3 4 5 6 
#
# 1 0.012726 -0.002507 -0.000694 0.000000 0.000000 0.000000
# 2 -0.002507 0.010352 -0.003076 0.000000 0.000000 0.000000
# 3 -0.000694 -0.003076 0.012319 0.000000 0.000000 0.000000
# 4 0.000000 0.000000 0.000000 -0.273413 0.000000 0.000000
# 5 0.000000 0.000000 0.000000 0.000000 0.035925 0.000000
# 6 0.000000 0.000000 0.000000 0.000000 0.000000 0.026064
#
#
# Mechanical properties :
#
#
# Convention : Reuss Voigt Hill
#
# Bulk Modulus (GPa) = 43.77714 45.52125 44.64919
# Shear Modulus (GPa) = -32.08006 27.22100 -2.42953
#
# Velocity S-wave (km/s) = -3.86478 3.56008 -1.06358
# Velocity P-wave (km/s) = 0.68362 6.17200 4.39095
#
# Compressibility (1/GPa) = 0.02284297
#
# Stress axis : x y z
#
# Youngs Moduli (GPa) = 78.58181 96.60073 81.17795
#
# Poissons Ratio (x) = 0.24219 0.05631
# Poissons Ratio (y) = 0.19701 0.24969
# Poissons Ratio (z) = 0.05451 0.29713
#
# Static dielectric constant tensor:
#      x y z
#    x 1.742340 0.000000 0.000000 
#    y 0.000000 1.808670 0.000000 
#    z 0.000000 0.000000 1.799590 
# 
# From -- ./inp_files/13756.got.cif
#   From: 2010.05.17/outbox.cif.g08.bks.cpg/sg60_7_cif.got.tgz:13756.got - 2010.06.03 14:59:27.
