data_PCOD9456726
_publ_section_title
;
Structure prediction by ZEFSAII (Michael W. Deem and Ramdas Pophale) SiO2 
 PCOD9456726
Probable space group: P B C N
;
_chemical_formula_sum "Si O2"
_cell_formula_units_Z 24
_cell_length_a 5.143657
_cell_length_b 22.568597
_cell_length_c 8.747192
_cell_angle_alpha 90.000000
_cell_angle_beta 90.000000
_cell_angle_gamma 90.000000
_cell_volume 1015.418850
_symmetry_space_group_name_H-M "P B C N"
_symmetry_group_IT_number 60
_symmetry_cell_setting 'orthorhombic'
loop_
_space_group_symop_operation_xyz
x,y,z
1/2-x,1/2-y,1/2+z
1/2+x,1/2-y,-z
-x,y,1/2-z
-x,-y,-z
1/2+x,1/2+y,1/2-z
1/2-x,1/2+y,z
x,-y,1/2+z
loop_
_atom_site_type_symbol
_atom_site_label
_atom_site_fract_x
_atom_site_fract_y
_atom_site_fract_z
Si Si1 0.694408 0.445446 0.485953
Si Si2 0.622876 0.756014 0.103788
Si Si3 0.000000 0.478151 0.750000
Si Si4 0.000000 0.149233 0.750000
O O1 0.500000 0.500000 0.500000
O O2 0.806082 0.436571 0.654969
O O3 0.577390 0.390903 0.394736
O O4 0.900477 0.474791 0.372865
O O5 0.500000 0.720830 0.250000
O O6 0.761867 0.811472 0.187845
O O7 0.374333 0.768190 0.992189
#
# Coordination Sequence:
#
# PCOD9456726 Si02
#       4
#     8   8   4   4
#     4  11  22  43  70 113 154 198 248 309 376 474
#     4  12  26  52  84 115 154 201 270 347 402 476
#     4  10  22  38  71 102 172 189 246 312 358 454
#     4  12  26  44  87 104 158 217 256 324 420 464
#
# _framework density 23.635563000000001
#
# number of rings (size 3 to 8) (size 9 to 14) (size 15 to 20)
#    0.000    0.667    6.667    0.000    2.333    0.000 
#    0.000    8.333    0.000    0.000    0.000    0.000 
#    0.000    0.000    0.000    0.000    0.000    0.000 
#
# Total GULP energy -133792.380280 kJ/mol
# GULP energy per Si atom -5574.682512 kJ/mol
# Density = 2.358177 g / cm^3
# Si number density = 23.635563 Si / 1000 Ang^3
#
#
#
# Elastic Constant Matrix: (Units=GPa)
#
#
# Indices 1 2 3 4 5 6 
#
# 1 150.9888 36.8513 78.4303 0.0000 0.0000 0.0000
# 2 36.8513 72.3235 42.9525 0.0000 0.0000 0.0000
# 3 78.4303 42.9525 147.7441 0.0000 0.0000 0.0000
# 4 0.0000 0.0000 0.0000 48.4644 0.0000 0.0000
# 5 0.0000 0.0000 0.0000 0.0000 71.1928 0.0000
# 6 0.0000 0.0000 0.0000 0.0000 0.0000 26.3940
#
#
#
# Elastic Compliance Matrix: (Units=1/GPa)
#
#
# Indices 1 2 3 4 5 6 
#
# 1 0.009429 -0.002214 -0.004362 0.000000 0.000000 0.000000
# 2 -0.002214 0.017232 -0.003834 0.000000 0.000000 0.000000
# 3 -0.004362 -0.003834 0.010199 0.000000 0.000000 0.000000
# 4 0.000000 0.000000 0.000000 0.020634 0.000000 0.000000
# 5 0.000000 0.000000 0.000000 0.000000 0.014046 0.000000
# 6 0.000000 0.000000 0.000000 0.000000 0.000000 0.037887
#
#
# Mechanical properties :
#
#
# Convention : Reuss Voigt Hill
#
# Bulk Modulus (GPa) = 62.34642 76.39160 69.36901
# Shear Modulus (GPa) = 36.87471 43.39840 40.13656
#
# Velocity S-wave (km/s) = 3.95414 4.28968 4.12532
# Velocity P-wave (km/s) = 6.87623 7.54493 7.21832
#
# Compressibility (1/GPa) = 0.01603941
#
# Stress axis : x y z
#
# Youngs Moduli (GPa) = 106.05494 58.03112 98.05182
#
# Poissons Ratio (x) = 0.12848 0.42768
# Poissons Ratio (y) = 0.23481 0.37598
# Poissons Ratio (z) = 0.46259 0.22252
#
# Static dielectric constant tensor:
#      x y z
#    x 2.010940 0.000000 0.000000 
#    y 0.000000 2.095400 0.000000 
#    z 0.000000 0.000000 1.930640 
# 
# From -- ./inp_files/2898.got.cif
#   From: 2010.05.17/outbox.cif.g08.bks.cpg/sg60_2_cif.got.tgz:2898.got - 2010.06.03 14:59:27.
