data_PCOD9456666
_publ_section_title
;
Structure prediction by ZEFSAII (Michael W. Deem and Ramdas Pophale) SiO2 
 PCOD9456666
Probable space group: P B C N
;
_chemical_formula_sum "Si O2"
_cell_formula_units_Z 32
_cell_length_a 9.194836
_cell_length_b 8.192705
_cell_length_c 18.026598
_cell_angle_alpha 90.000000
_cell_angle_beta 90.000000
_cell_angle_gamma 90.000000
_cell_volume 1357.954062
_symmetry_space_group_name_H-M "P B C N"
_symmetry_group_IT_number 60
_symmetry_cell_setting 'orthorhombic'
loop_
_space_group_symop_operation_xyz
x,y,z
1/2-x,1/2-y,1/2+z
1/2+x,1/2-y,-z
-x,y,1/2-z
-x,-y,-z
1/2+x,1/2+y,1/2-z
1/2-x,1/2+y,z
x,-y,1/2+z
loop_
_atom_site_type_symbol
_atom_site_label
_atom_site_fract_x
_atom_site_fract_y
_atom_site_fract_z
Si Si1 0.964516 0.814246 0.335351
Si Si2 0.696377 0.532789 0.568882
Si Si3 0.594825 0.363068 0.911048
Si Si4 0.478617 0.005450 0.589197
O O1 0.112369 0.837474 0.381449
O O2 0.902918 0.650162 0.372408
O O3 0.000000 0.793052 0.250000
O O4 0.888989 0.988844 0.352671
O O5 0.578955 0.384181 0.566158
O O6 0.688903 0.598016 0.484440
O O7 0.849510 0.506980 0.608064
O O8 0.599779 0.174453 0.889424
O O9 0.500000 0.000000 0.500000
#
# Coordination Sequence:
#
# PCOD9456666 Si02
#       4
#     8   8   8   8
#     4  10  22  38  58  85 125 153 200 245 300 365
#     4   9  19  39  61  86 120 152 198 249 299 351
#     4   9  20  37  60  86 118 155 197 248 300 353
#     4  12  20  36  68  91 113 159 208 248 297 364
#
# _framework density 23.564862999999999
#
# number of rings (size 3 to 8) (size 9 to 14) (size 15 to 20)
#    1.500    0.500    2.500    1.500    0.000    1.000 
#    0.000    2.500    0.000    0.000    0.000    0.000 
#    0.000    0.000    0.000    0.000    0.000    0.000 
#
# Total GULP energy -178331.404573 kJ/mol
# GULP energy per Si atom -5572.856393 kJ/mol
# Density = 2.351123 g / cm^3
# Si number density = 23.564863 Si / 1000 Ang^3
#
#
#
# Elastic Constant Matrix: (Units=GPa)
#
#
# Indices 1 2 3 4 5 6 
#
# 1 57.1655 24.9816 -15.4305 0.0000 0.0000 0.0000
# 2 24.9816 228.3424 73.2143 0.0000 0.0000 0.0000
# 3 -15.4305 73.2143 141.8923 0.0000 0.0000 0.0000
# 4 0.0000 0.0000 0.0000 27.3096 0.0000 0.0000
# 5 0.0000 0.0000 0.0000 0.0000 4.2564 0.0000
# 6 0.0000 0.0000 0.0000 0.0000 0.0000 19.8493
#
#
#
# Elastic Compliance Matrix: (Units=1/GPa)
#
#
# Indices 1 2 3 4 5 6 
#
# 1 0.020083 -0.003472 0.003975 0.000000 0.000000 0.000000
# 2 -0.003472 0.005848 -0.003395 0.000000 0.000000 0.000000
# 3 0.003975 -0.003395 0.009232 0.000000 0.000000 0.000000
# 4 0.000000 0.000000 0.000000 0.036617 0.000000 0.000000
# 5 0.000000 0.000000 0.000000 0.000000 0.234939 0.000000
# 6 0.000000 0.000000 0.000000 0.000000 0.000000 0.050380
#
#
# Mechanical properties :
#
#
# Convention : Reuss Voigt Hill
#
# Bulk Modulus (GPa) = 34.03662 65.88122 49.95892
# Shear Modulus (GPa) = 13.41654 33.25871 23.33763
#
# Velocity S-wave (km/s) = 2.38868 3.76089 3.15041
# Velocity P-wave (km/s) = 4.69925 6.84669 5.87197
#
# Compressibility (1/GPa) = 0.02938012
#
# Stress axis : x y z
#
# Youngs Moduli (GPa) = 49.79241 171.00607 108.32314
#
# Poissons Ratio (x) = 0.59371 -0.43063
# Poissons Ratio (y) = 0.17287 0.36775
# Poissons Ratio (z) = -0.19795 0.58055
#
# Static dielectric constant tensor:
#      x y z
#    x 2.091920 0.000000 0.000000 
#    y 0.000000 1.989430 0.000000 
#    z 0.000000 0.000000 -8.056490 
# 
# From -- ./inp_files/19802.got.cif
#   From: 2010.05.17/outbox.cif.g08.bks.cpg/sg60_10_cif.got.tgz:19802.got - 2010.06.03 14:59:27.
