data_PCOD9456567
_publ_section_title
;
Structure prediction by ZEFSAII (Michael W. Deem and Ramdas Pophale) SiO2 
 PCOD9456567
Probable space group: P B C N
;
_chemical_formula_sum "Si O2"
_cell_formula_units_Z 56
_cell_length_a 10.485493
_cell_length_b 12.329734
_cell_length_c 17.928309
_cell_angle_alpha 90.000000
_cell_angle_beta 90.000000
_cell_angle_gamma 90.000000
_cell_volume 2317.831660
_symmetry_space_group_name_H-M "P B C N"
_symmetry_group_IT_number 60
_symmetry_cell_setting 'orthorhombic'
loop_
_space_group_symop_operation_xyz
x,y,z
1/2-x,1/2-y,1/2+z
1/2+x,1/2-y,-z
-x,y,1/2-z
-x,-y,-z
1/2+x,1/2+y,1/2-z
1/2-x,1/2+y,z
x,-y,1/2+z
loop_
_atom_site_type_symbol
_atom_site_label
_atom_site_fract_x
_atom_site_fract_y
_atom_site_fract_z
Si Si1 0.177911 0.043567 0.913968
Si Si2 0.374629 0.861358 0.117572
Si Si3 0.173555 0.260228 0.978789
Si Si4 0.045170 0.561510 0.402783
Si Si5 0.820697 0.878853 0.258946
Si Si6 0.091587 0.821551 0.881550
Si Si7 0.500000 0.560404 0.250000
Si Si8 0.500000 0.179573 0.250000
O O1 0.147221 0.133806 0.974869
O O2 0.322522 0.999751 0.920190
O O3 0.175067 0.093056 0.829309
O O4 0.085717 0.939928 0.919807
O O5 0.432203 0.975549 0.090503
O O6 0.312675 0.876852 0.198380
O O7 0.483080 0.768559 0.115479
O O8 0.278757 0.812101 0.055871
O O9 0.051167 0.331599 0.954152
O O10 0.279797 0.274327 0.915053
O O11 0.042069 0.605825 0.318690
O O12 0.906586 0.976787 0.292931
O O13 0.887417 0.763218 0.271201
O O14 0.091955 0.861329 0.796320
#
# Coordination Sequence:
#
# PCOD9456567 Si02
#       8
#     8   8   8   8   8   8   4   4
#     4  10  21  46  70  93 132 182 230 278 344 407
#     4  12  26  42  68 108 137 176 232 288 338 422
#     4  11  24  46  66  96 144 185 224 276 355 411
#     4  11  23  42  69  98 133 183 229 281 341 406
#     4  10  23  43  68 102 136 170 233 292 339 400
#     4  10  24  43  71  99 131 182 227 284 343 404
#     4   9  22  47  70 100 132 177 235 286 340 412
#     4  11  22  41  70 100 132 185 221 290 342 400
#
# _framework density 24.160511
#
# number of rings (size 3 to 8) (size 9 to 14) (size 15 to 20)
#    0.000    1.429    2.857    1.286    2.000    4.571 
#   10.286    0.000    0.000    0.000    0.000    0.000 
#    0.000    0.000    0.000    0.000    0.000    0.000 
#
# Total GULP energy -312799.160437 kJ/mol
# GULP energy per Si atom -5585.699294 kJ/mol
# Density = 2.410552 g / cm^3
# Si number density = 24.160511 Si / 1000 Ang^3
#
#
#
# Elastic Constant Matrix: (Units=GPa)
#
#
# Indices 1 2 3 4 5 6 
#
# 1 73.3518 39.9847 18.9102 0.0000 0.0000 0.0000
# 2 39.9847 120.3113 22.6172 0.0000 0.0000 0.0000
# 3 18.9102 22.6172 57.6988 0.0000 0.0000 0.0000
# 4 0.0000 0.0000 0.0000 19.4828 0.0000 0.0000
# 5 0.0000 0.0000 0.0000 0.0000 27.5987 0.0000
# 6 0.0000 0.0000 0.0000 0.0000 0.0000 30.5704
#
#
#
# Elastic Compliance Matrix: (Units=1/GPa)
#
#
# Indices 1 2 3 4 5 6 
#
# 1 0.017351 -0.005071 -0.003699 0.000000 0.000000 0.000000
# 2 -0.005071 0.010455 -0.002436 0.000000 0.000000 0.000000
# 3 -0.003699 -0.002436 0.019499 0.000000 0.000000 0.000000
# 4 0.000000 0.000000 0.000000 0.051327 0.000000 0.000000
# 5 0.000000 0.000000 0.000000 0.000000 0.036234 0.000000
# 6 0.000000 0.000000 0.000000 0.000000 0.000000 0.032711
#
#
# Mechanical properties :
#
#
# Convention : Reuss Voigt Hill
#
# Bulk Modulus (GPa) = 40.17312 46.04291 43.10801
# Shear Modulus (GPa) = 25.21606 26.85371 26.03488
#
# Velocity S-wave (km/s) = 3.23412 3.33749 3.28621
# Velocity P-wave (km/s) = 5.53261 5.82668 5.68155
#
# Compressibility (1/GPa) = 0.02489227
#
# Stress axis : x y z
#
# Youngs Moduli (GPa) = 57.63436 95.64700 51.28580
#
# Poissons Ratio (x) = 0.48504 0.18969
# Poissons Ratio (y) = 0.29227 0.12495
# Poissons Ratio (z) = 0.21317 0.23302
#
# Static dielectric constant tensor:
#      x y z
#    x 1.952880 0.000000 0.000000 
#    y 0.000000 1.929390 0.000000 
#    z 0.000000 0.000000 2.021620 
# 
# From -- ./inp_files/22663.got.cif
#   From: 2010.05.17/outbox.cif.g08.bks.cpg/sg60_12_cif.got.tgz:22663.got - 2010.06.03 14:59:27.
