data_PCOD9456129
_publ_section_title
;
Structure prediction by ZEFSAII (Michael W. Deem and Ramdas Pophale) SiO2 
 PCOD9456129
Probable space group: P B C N
;
_chemical_formula_sum "Si O2"
_cell_formula_units_Z 28
_cell_length_a 12.045596
_cell_length_b 4.858806
_cell_length_c 20.096696
_cell_angle_alpha 90.000000
_cell_angle_beta 90.000000
_cell_angle_gamma 90.000000
_cell_volume 1176.203630
_symmetry_space_group_name_H-M "P B C N"
_symmetry_group_IT_number 60
_symmetry_cell_setting 'orthorhombic'
loop_
_space_group_symop_operation_xyz
x,y,z
1/2-x,1/2-y,1/2+z
1/2+x,1/2-y,-z
-x,y,1/2-z
-x,-y,-z
1/2+x,1/2+y,1/2-z
1/2-x,1/2+y,z
x,-y,1/2+z
loop_
_atom_site_type_symbol
_atom_site_label
_atom_site_fract_x
_atom_site_fract_y
_atom_site_fract_z
Si Si1 0.516842 0.947666 0.105922
Si Si2 0.825520 0.080577 0.182710
Si Si3 0.500000 0.104998 0.750000
Si Si4 0.329778 0.793563 0.005271
O O1 0.594942 0.685879 0.123816
O O2 0.492625 0.058631 0.180684
O O3 0.405133 0.854612 0.069620
O O4 0.588262 0.132643 0.055761
O O5 0.716005 0.272084 0.180651
O O6 0.894258 0.191203 0.245627
O O7 0.223016 0.993245 0.003842
#
# Coordination Sequence:
#
# PCOD9456129 Si02
#       4
#     8   8   4   8
#     4   9  22  43  63  98 126 164 221 251 317 386
#     4  10  21  39  61  87 124 161 198 251 313 361
#     4   8  22  42  60 102 114 172 204 266 302 382
#     4  11  24  42  66  93 129 170 209 263 313 371
#
# _framework density 23.805402000000001
#
# number of rings (size 3 to 8) (size 9 to 14) (size 15 to 20)
#    1.714    0.571    0.000    1.714    0.000   10.286 
#    0.000    0.000    0.000    0.000    0.000    0.000 
#    0.000    0.000    0.000    0.000    0.000    0.000 
#
# Total GULP energy -156385.827627 kJ/mol
# GULP energy per Si atom -5585.208130 kJ/mol
# Density = 2.375122 g / cm^3
# Si number density = 23.805402 Si / 1000 Ang^3
#
#
#
# Elastic Constant Matrix: (Units=GPa)
#
#
# Indices 1 2 3 4 5 6 
#
# 1 97.5331 -1.7677 43.3434 0.0000 0.0000 0.0000
# 2 -1.7677 46.1856 -1.3721 0.0000 0.0000 0.0000
# 3 43.3434 -1.3721 164.2340 0.0000 0.0000 0.0000
# 4 0.0000 0.0000 0.0000 8.7110 0.0000 0.0000
# 5 0.0000 0.0000 0.0000 0.0000 54.4982 0.0000
# 6 0.0000 0.0000 0.0000 0.0000 0.0000 -31.4492
#
#
#
# Elastic Compliance Matrix: (Units=1/GPa)
#
#
# Indices 1 2 3 4 5 6 
#
# 1 0.011621 0.000354 -0.003064 0.000000 0.000000 0.000000
# 2 0.000354 0.021668 0.000088 0.000000 0.000000 0.000000
# 3 -0.003064 0.000088 0.006898 0.000000 0.000000 0.000000
# 4 0.000000 0.000000 0.000000 0.114797 0.000000 0.000000
# 5 0.000000 0.000000 0.000000 0.000000 0.018349 0.000000
# 6 0.000000 0.000000 0.000000 0.000000 0.000000 -0.031797
#
#
# Mechanical properties :
#
#
# Convention : Reuss Voigt Hill
#
# Bulk Modulus (GPa) = 28.61885 43.15111 35.88498
# Shear Modulus (GPa) = 31.55996 24.20195 27.88095
#
# Velocity S-wave (km/s) = 3.64503 3.19197 3.42600
# Velocity P-wave (km/s) = 5.45556 5.63479 5.54590
#
# Compressibility (1/GPa) = 0.03494200
#
# Stress axis : x y z
#
# Youngs Moduli (GPa) = 86.05149 46.15119 144.96495
#
# Poissons Ratio (x) = -0.01633 0.44417
# Poissons Ratio (y) = -0.03044 -0.01271
# Poissons Ratio (z) = 0.26366 -0.00405
#
# Static dielectric constant tensor:
#      x y z
#    x 1.917450 0.000000 0.000000 
#    y 0.000000 1.914600 0.000000 
#    z 0.000000 0.000000 1.977290 
# 
# From -- ./inp_files/20328.got.cif
#   From: 2010.05.17/outbox.cif.g08.bks.cpg/sg60_11_cif.got.tgz:20328.got - 2010.06.03 14:59:27.
