data_PCOD9456282
_publ_section_title
;
Structure prediction by ZEFSAII (Michael W. Deem and Ramdas Pophale) SiO2 
 PCOD9456282
Probable space group: P B C N
;
_chemical_formula_sum "Si O2"
_cell_formula_units_Z 48
_cell_length_a 8.296306
_cell_length_b 32.147608
_cell_length_c 8.214204
_cell_angle_alpha 90.000000
_cell_angle_beta 90.000000
_cell_angle_gamma 90.000000
_cell_volume 2190.780721
_symmetry_space_group_name_H-M "P B C N"
_symmetry_group_IT_number 60
_symmetry_cell_setting 'orthorhombic'
loop_
_space_group_symop_operation_xyz
x,y,z
1/2-x,1/2-y,1/2+z
1/2+x,1/2-y,-z
-x,y,1/2-z
-x,-y,-z
1/2+x,1/2+y,1/2-z
1/2-x,1/2+y,z
x,-y,1/2+z
loop_
_atom_site_type_symbol
_atom_site_label
_atom_site_fract_x
_atom_site_fract_y
_atom_site_fract_z
Si Si1 0.579832 0.796378 0.007087
Si Si2 0.646450 0.532620 0.004496
Si Si3 0.249111 0.775284 0.150769
Si Si4 0.253270 0.378765 0.498382
Si Si5 0.500000 0.599185 0.250000
Si Si6 0.000000 0.161134 0.750000
Si Si7 0.175472 0.462179 0.327275
O O1 0.394348 0.784200 0.026554
O O2 0.670716 0.782381 0.173319
O O3 0.609541 0.845537 0.993875
O O4 0.671813 0.769847 0.871528
O O5 0.584570 0.570508 0.112999
O O6 0.788406 0.506746 0.092187
O O7 0.500000 0.500000 0.000000
O O8 0.700734 0.543856 0.823058
O O9 0.105103 0.808587 0.134784
O O10 0.359486 0.376191 0.660392
O O11 0.373587 0.365200 0.353281
O O12 0.198570 0.425527 0.458626
O O13 0.000000 0.459948 0.250000
#
# Coordination Sequence:
#
# PCOD9456282 Si02
#       7
#     8   8   8   8   4   4   8
#     4  10  22  39  64  92 132 166 223 264 325 380
#     4  12  22  44  70  97 125 180 223 265 320 412
#     4  10  21  40  65  93 123 176 219 262 315 398
#     4  11  24  40  61 100 132 173 214 279 333 385
#     4  12  24  41  68  94 134 168 230 268 334 391
#     4  10  22  39  66  90 128 172 224 262 336 377
#     4  12  25  41  70  97 137 168 221 275 337 390
#
# _framework density 21.909997000000001
#
# number of rings (size 3 to 8) (size 9 to 14) (size 15 to 20)
#    0.000    1.000    3.333    3.500    4.667    2.667 
#    0.000    0.000    0.000    0.000    0.000    0.000 
#    0.000    0.000    0.000    0.000    0.000    0.000 
#
# Total GULP energy -268579.641377 kJ/mol
# GULP energy per Si atom -5595.409195 kJ/mol
# Density = 2.186013 g / cm^3
# Si number density = 21.909997 Si / 1000 Ang^3
#
#
#
# Elastic Constant Matrix: (Units=GPa)
#
#
# Indices 1 2 3 4 5 6 
#
# 1 97.0901 13.0230 -1.8592 0.0000 0.0000 0.0000
# 2 13.0230 52.7800 4.0172 0.0000 0.0000 0.0000
# 3 -1.8592 4.0172 61.0811 0.0000 0.0000 0.0000
# 4 0.0000 0.0000 0.0000 30.2755 0.0000 0.0000
# 5 0.0000 0.0000 0.0000 0.0000 29.8172 0.0000
# 6 0.0000 0.0000 0.0000 0.0000 0.0000 -12.8434
#
#
#
# Elastic Compliance Matrix: (Units=1/GPa)
#
#
# Indices 1 2 3 4 5 6 
#
# 1 0.010667 -0.002670 0.000500 0.000000 0.000000 0.000000
# 2 -0.002670 0.019710 -0.001378 0.000000 0.000000 0.000000
# 3 0.000500 -0.001378 0.016478 0.000000 0.000000 0.000000
# 4 0.000000 0.000000 0.000000 0.033030 0.000000 0.000000
# 5 0.000000 0.000000 0.000000 0.000000 0.033538 0.000000
# 6 0.000000 0.000000 0.000000 0.000000 0.000000 -0.077861
#
#
# Mechanical properties :
#
#
# Convention : Reuss Voigt Hill
#
# Bulk Modulus (GPa) = 25.15070 26.81256 25.98163
# Shear Modulus (GPa) = 89.42948 22.50122 55.96535
#
# Velocity S-wave (km/s) = 6.39573 3.20814 5.05952
# Velocity P-wave (km/s) = 8.12678 5.09775 6.78349
#
# Compressibility (1/GPa) = 0.03976033
#
# Stress axis : x y z
#
# Youngs Moduli (GPa) = 93.74308 50.73498 60.68882
#
# Poissons Ratio (x) = 0.13547 -0.03036
# Poissons Ratio (y) = 0.25031 0.08360
# Poissons Ratio (z) = -0.04690 0.06989
#
# Static dielectric constant tensor:
#      x y z
#    x 1.801270 0.000000 0.000000 
#    y 0.000000 1.783120 0.000000 
#    z 0.000000 0.000000 1.825790 
# 
# From -- ./inp_files/4286.got.cif
#   From: 2010.05.17/outbox.cif.g08.bks.cpg/sg60_3_cif.got.tgz:4286.got - 2010.06.03 14:59:27.
