data_PCOD9456874
_publ_section_title
;
Structure prediction by ZEFSAII (Michael W. Deem and Ramdas Pophale) SiO2 
 PCOD9456874
Probable space group: P B C N
;
_chemical_formula_sum "Si O2"
_cell_formula_units_Z 48
_cell_length_a 14.445001
_cell_length_b 18.695554
_cell_length_c 7.831269
_cell_angle_alpha 90.000000
_cell_angle_beta 90.000000
_cell_angle_gamma 90.000000
_cell_volume 2114.891332
_symmetry_space_group_name_H-M "P B C N"
_symmetry_group_IT_number 60
_symmetry_cell_setting 'orthorhombic'
loop_
_space_group_symop_operation_xyz
x,y,z
1/2-x,1/2-y,1/2+z
1/2+x,1/2-y,-z
-x,y,1/2-z
-x,-y,-z
1/2+x,1/2+y,1/2-z
1/2-x,1/2+y,z
x,-y,1/2+z
loop_
_atom_site_type_symbol
_atom_site_label
_atom_site_fract_x
_atom_site_fract_y
_atom_site_fract_z
Si Si1 0.178887 0.921236 0.509531
Si Si2 0.310437 0.922244 0.181687
Si Si3 0.982525 0.678798 0.930485
Si Si4 0.435319 0.945108 0.598187
Si Si5 0.146792 0.074072 0.408016
Si Si6 0.013329 0.830233 0.441396
O O1 0.263011 0.917967 0.370915
O O2 0.187059 0.924142 0.715738
O O3 0.116513 0.852030 0.488869
O O4 0.121576 0.991612 0.450063
O O5 0.390224 0.868145 0.109928
O O6 0.354816 0.002547 0.164206
O O7 0.227561 0.912525 0.046549
O O8 0.000000 0.715896 0.750000
O O9 0.064837 0.623490 0.976052
O O10 0.987171 0.744562 0.056862
O O11 0.500000 0.917174 0.750000
O O12 0.500000 0.000000 0.500000
O O13 0.936715 0.129329 0.057433
O O14 0.000000 0.857377 0.250000
#
# Coordination Sequence:
#
# PCOD9456874 Si02
#       6
#     8   8   8   8   8   8
#     4  12  25  44  76 109 143 187 241 310 353 428
#     4  11  25  46  71 115 141 187 247 301 362 416
#     4  11  26  46  70 101 149 198 234 294 366 449
#     4  10  22  40  68 100 142 187 235 293 359 429
#     4  12  25  44  77 109 143 186 245 306 358 426
#     4  12  25  53  70 101 145 199 242 290 375 438
#
# _framework density 22.696203000000001
#
# number of rings (size 3 to 8) (size 9 to 14) (size 15 to 20)
#    0.000    0.667    3.333    4.500    7.000    0.000 
#    9.000    0.000    0.000    0.000    0.000    0.000 
#    0.000    0.000    0.000    0.000    0.000    0.000 
#
# Total GULP energy -267507.495458 kJ/mol
# GULP energy per Si atom -5573.072822 kJ/mol
# Density = 2.264455 g / cm^3
# Si number density = 22.696203 Si / 1000 Ang^3
#
#
#
# Elastic Constant Matrix: (Units=GPa)
#
#
# Indices 1 2 3 4 5 6 
#
# 1 122.6717 68.6969 56.9122 0.0000 0.0000 0.0000
# 2 68.6969 132.8027 20.6882 0.0000 0.0000 0.0000
# 3 56.9122 20.6882 167.6421 0.0000 0.0000 0.0000
# 4 0.0000 0.0000 0.0000 31.9137 0.0000 0.0000
# 5 0.0000 0.0000 0.0000 0.0000 29.6000 0.0000
# 6 0.0000 0.0000 0.0000 0.0000 0.0000 5.7884
#
#
#
# Elastic Compliance Matrix: (Units=1/GPa)
#
#
# Indices 1 2 3 4 5 6 
#
# 1 0.013487 -0.006386 -0.003790 0.000000 0.000000 0.000000
# 2 -0.006386 0.010701 0.000847 0.000000 0.000000 0.000000
# 3 -0.003790 0.000847 0.007147 0.000000 0.000000 0.000000
# 4 0.000000 0.000000 0.000000 0.031334 0.000000 0.000000
# 5 0.000000 0.000000 0.000000 0.000000 0.033784 0.000000
# 6 0.000000 0.000000 0.000000 0.000000 0.000000 0.172761
#
#
# Mechanical properties :
#
#
# Convention : Reuss Voigt Hill
#
# Bulk Modulus (GPa) = 78.88231 79.52347 79.20289
# Shear Modulus (GPa) = 17.11755 31.91503 24.51629
#
# Velocity S-wave (km/s) = 2.74926 3.75398 3.29020
# Velocity P-wave (km/s) = 6.70142 7.34194 7.02898
#
# Compressibility (1/GPa) = 0.01267711
#
# Stress axis : x y z
#
# Youngs Moduli (GPa) = 74.14817 93.44651 139.91251
#
# Poissons Ratio (x) = 0.59674 0.53033
# Poissons Ratio (y) = 0.47350 -0.11855
# Poissons Ratio (z) = 0.28105 -0.07918
#
# Static dielectric constant tensor:
#      x y z
#    x 1.897010 0.000000 0.000000 
#    y 0.000000 1.794530 0.000000 
#    z 0.000000 0.000000 1.946420 
# 
# From -- ./inp_files/5940.got.cif
#   From: 2010.05.17/outbox.cif.g08.bks.cpg/sg60_3_cif.got.tgz:5940.got - 2010.06.03 14:59:27.
