data_PCOD9456961
_publ_section_title
;
Structure prediction by ZEFSAII (Michael W. Deem and Ramdas Pophale) SiO2 
 PCOD9456961
Probable space group: P B C N
;
_chemical_formula_sum "Si O2"
_cell_formula_units_Z 40
_cell_length_a 12.975713
_cell_length_b 13.706710
_cell_length_c 8.269121
_cell_angle_alpha 90.000000
_cell_angle_beta 90.000000
_cell_angle_gamma 90.000000
_cell_volume 1470.699018
_symmetry_space_group_name_H-M "P B C N"
_symmetry_group_IT_number 60
_symmetry_cell_setting 'orthorhombic'
loop_
_space_group_symop_operation_xyz
x,y,z
1/2-x,1/2-y,1/2+z
1/2+x,1/2-y,-z
-x,y,1/2-z
-x,-y,-z
1/2+x,1/2+y,1/2-z
1/2-x,1/2+y,z
x,-y,1/2+z
loop_
_atom_site_type_symbol
_atom_site_label
_atom_site_fract_x
_atom_site_fract_y
_atom_site_fract_z
Si Si1 0.740096 0.693783 0.707455
Si Si2 0.628683 0.340306 0.881244
Si Si3 0.933334 0.590339 0.061872
Si Si4 0.793784 0.499712 0.807991
Si Si5 0.454536 0.703265 0.579501
O O1 0.674377 0.710760 0.545484
O O2 0.773891 0.582854 0.675658
O O3 0.663815 0.703512 0.862989
O O4 0.836321 0.765027 0.740237
O O5 0.509434 0.355151 0.932948
O O6 0.691905 0.438527 0.844584
O O7 0.881307 0.572004 0.236446
O O8 0.001483 0.687210 0.048569
O O9 0.835855 0.572958 0.944726
O O10 0.000000 0.500000 0.000000
O O11 0.500000 0.663899 0.750000
#
# Coordination Sequence:
#
# PCOD9456961 Si02
#       5
#     8   8   8   8   8
#     4  11  24  43  68  99 136 186 232 295 363 421
#     4  11  23  44  69  95 141 185 236 292 354 429
#     4  12  23  43  69 103 136 179 235 292 351 421
#     4  12  24  41  70 101 137 182 232 291 357 422
#     4  10  22  41  66  95 134 180 229 284 351 419
#
# _framework density 27.197952000000001
#
# number of rings (size 3 to 8) (size 9 to 14) (size 15 to 20)
#    0.000    0.800    4.000    5.400    0.000    0.800 
#    0.000    1.000    0.000    0.000    0.000    0.000 
#    0.000    0.000    0.000    0.000    0.000    0.000 
#
# Total GULP energy -223420.561357 kJ/mol
# GULP energy per Si atom -5585.514034 kJ/mol
# Density = 2.713605 g / cm^3
# Si number density = 27.197952 Si / 1000 Ang^3
#
#
#
# Elastic Constant Matrix: (Units=GPa)
#
#
# Indices 1 2 3 4 5 6 
#
# 1 123.4860 14.6241 -11.0410 0.0000 0.0000 0.0000
# 2 14.6241 83.6635 -26.3821 0.0000 0.0000 0.0000
# 3 -11.0410 -26.3821 48.2134 0.0000 0.0000 0.0000
# 4 0.0000 0.0000 0.0000 28.1363 0.0000 0.0000
# 5 0.0000 0.0000 0.0000 0.0000 57.1702 0.0000
# 6 0.0000 0.0000 0.0000 0.0000 0.0000 59.0194
#
#
#
# Elastic Compliance Matrix: (Units=1/GPa)
#
#
# Indices 1 2 3 4 5 6 
#
# 1 0.008341 -0.001034 0.001344 0.000000 0.000000 0.000000
# 2 -0.001034 0.014573 0.007738 0.000000 0.000000 0.000000
# 3 0.001344 0.007738 0.025283 0.000000 0.000000 0.000000
# 4 0.000000 0.000000 0.000000 0.035541 0.000000 0.000000
# 5 0.000000 0.000000 0.000000 0.000000 0.017492 0.000000
# 6 0.000000 0.000000 0.000000 0.000000 0.000000 0.016944
#
#
# Mechanical properties :
#
#
# Convention : Reuss Voigt Hill
#
# Bulk Modulus (GPa) = 15.55386 23.30721 19.43054
# Shear Modulus (GPa) = 40.48294 47.40929 43.94612
#
# Velocity S-wave (km/s) = 3.86224 4.17960 4.02405
# Velocity P-wave (km/s) = 5.06165 5.64625 5.36192
#
# Compressibility (1/GPa) = 0.06429271
#
# Stress axis : x y z
#
# Youngs Moduli (GPa) = 119.89353 68.61843 39.55232
#
# Poissons Ratio (x) = 0.07096 -0.05317
# Poissons Ratio (y) = 0.12398 -0.30604
# Poissons Ratio (z) = -0.16116 -0.53095
#
# Static dielectric constant tensor:
#      x y z
#    x 2.290190 0.000000 0.000000 
#    y 0.000000 2.029130 0.000000 
#    z 0.000000 0.000000 2.313690 
# 
# From -- ./inp_files/5680.got.cif
#   From: 2010.05.17/outbox.cif.g08.bks.cpg/sg60_3_cif.got.tgz:5680.got - 2010.06.03 14:59:27.
