data_PCOD9456677
_publ_section_title
;
Structure prediction by ZEFSAII (Michael W. Deem and Ramdas Pophale) SiO2 
 PCOD9456677
Probable space group: P B C N
;
_chemical_formula_sum "Si O2"
_cell_formula_units_Z 48
_cell_length_a 11.695131
_cell_length_b 22.228888
_cell_length_c 9.435044
_cell_angle_alpha 90.000000
_cell_angle_beta 90.000000
_cell_angle_gamma 90.000000
_cell_volume 2452.826097
_symmetry_space_group_name_H-M "P B C N"
_symmetry_group_IT_number 60
_symmetry_cell_setting 'orthorhombic'
loop_
_space_group_symop_operation_xyz
x,y,z
1/2-x,1/2-y,1/2+z
1/2+x,1/2-y,-z
-x,y,1/2-z
-x,-y,-z
1/2+x,1/2+y,1/2-z
1/2-x,1/2+y,z
x,-y,1/2+z
loop_
_atom_site_type_symbol
_atom_site_label
_atom_site_fract_x
_atom_site_fract_y
_atom_site_fract_z
Si Si1 0.292167 0.337754 0.956296
Si Si2 0.602826 0.546681 0.554559
Si Si3 0.636589 0.557700 0.246431
Si Si4 0.150680 0.833806 0.285245
Si Si5 0.450537 0.794661 0.887923
Si Si6 0.892214 0.283664 0.146155
O O1 0.310178 0.397134 0.865309
O O2 0.157629 0.324035 0.964447
O O3 0.345624 0.284592 0.859727
O O4 0.346114 0.339867 0.113753
O O5 0.500000 0.500000 0.500000
O O6 0.671824 0.559061 0.410323
O O7 0.655761 0.507844 0.680926
O O8 0.589842 0.611681 0.629697
O O9 0.500000 0.571732 0.250000
O O10 0.094261 0.771303 0.338266
O O11 0.285050 0.826755 0.324698
O O12 0.500000 0.827188 0.750000
O O13 0.556530 0.792117 0.991639
O O14 0.000000 0.289582 0.250000
#
# Coordination Sequence:
#
# PCOD9456677 Si02
#       6
#     8   8   8   8   8   8
#     4  11  23  38  61  93 126 169 209 257 316 380
#     4  10  23  39  59  89 121 161 206 257 315 373
#     4  10  22  38  60  87 119 161 199 258 307 373
#     4  11  24  39  62  90 130 167 211 263 315 381
#     4  11  24  38  60  93 128 167 209 258 314 381
#     4  11  23  40  60  91 128 169 211 255 320 377
#
# _framework density 19.569261999999998
#
# number of rings (size 3 to 8) (size 9 to 14) (size 15 to 20)
#    0.000    1.333    3.333    1.500    9.333    3.333 
#    0.000    0.000    0.000    2.000    0.000    0.000 
#    0.000    0.000    0.000    0.000    0.000    0.000 
#
# Total GULP energy -267489.639622 kJ/mol
# GULP energy per Si atom -5572.700825 kJ/mol
# Density = 1.952472 g / cm^3
# Si number density = 19.569262 Si / 1000 Ang^3
#
#
#
# Elastic Constant Matrix: (Units=GPa)
#
#
# Indices 1 2 3 4 5 6 
#
# 1 94.4951 24.6170 16.9003 0.0000 0.0000 0.0000
# 2 24.6170 73.4259 35.7108 0.0000 0.0000 0.0000
# 3 16.9003 35.7108 128.2696 0.0000 0.0000 0.0000
# 4 0.0000 0.0000 0.0000 29.4037 0.0000 0.0000
# 5 0.0000 0.0000 0.0000 0.0000 36.5757 0.0000
# 6 0.0000 0.0000 0.0000 0.0000 0.0000 11.9359
#
#
#
# Elastic Compliance Matrix: (Units=1/GPa)
#
#
# Indices 1 2 3 4 5 6 
#
# 1 0.011625 -0.003646 -0.000517 0.000000 0.000000 0.000000
# 2 -0.003646 0.016896 -0.004223 0.000000 0.000000 0.000000
# 3 -0.000517 -0.004223 0.009040 0.000000 0.000000 0.000000
# 4 0.000000 0.000000 0.000000 0.034009 0.000000 0.000000
# 5 0.000000 0.000000 0.000000 0.000000 0.027341 0.000000
# 6 0.000000 0.000000 0.000000 0.000000 0.000000 0.083781
#
#
# Mechanical properties :
#
#
# Convention : Reuss Voigt Hill
#
# Bulk Modulus (GPa) = 48.10420 50.07186 49.08803
# Shear Modulus (GPa) = 24.22566 30.18057 27.20312
#
# Velocity S-wave (km/s) = 3.52226 3.93140 3.73244
# Velocity P-wave (km/s) = 6.41690 6.80077 6.61162
#
# Compressibility (1/GPa) = 0.02078821
#
# Stress axis : x y z
#
# Youngs Moduli (GPa) = 86.02292 59.18680 110.62005
#
# Poissons Ratio (x) = 0.21580 0.05714
# Poissons Ratio (y) = 0.31365 0.46719
# Poissons Ratio (z) = 0.04443 0.24997
#
# Static dielectric constant tensor:
#      x y z
#    x 1.720350 0.000000 0.000000 
#    y 0.000000 1.710050 0.000000 
#    z 0.000000 0.000000 1.737010 
# 
# From -- ./inp_files/5075.got.cif
#   From: 2010.05.17/outbox.cif.g08.bks.cpg/sg60_3_cif.got.tgz:5075.got - 2010.06.03 14:59:27.
