data_PCOD9456225
_publ_section_title
;
Structure prediction by ZEFSAII (Michael W. Deem and Ramdas Pophale) SiO2 
 PCOD9456225
Probable space group: P B C N
;
_chemical_formula_sum "Si O2"
_cell_formula_units_Z 40
_cell_length_a 12.204836
_cell_length_b 30.373628
_cell_length_c 5.164577
_cell_angle_alpha 90.000000
_cell_angle_beta 90.000000
_cell_angle_gamma 90.000000
_cell_volume 1914.535284
_symmetry_space_group_name_H-M "P B C N"
_symmetry_group_IT_number 60
_symmetry_cell_setting 'orthorhombic'
loop_
_space_group_symop_operation_xyz
x,y,z
1/2-x,1/2-y,1/2+z
1/2+x,1/2-y,-z
-x,y,1/2-z
-x,-y,-z
1/2+x,1/2+y,1/2-z
1/2-x,1/2+y,z
x,-y,1/2+z
loop_
_atom_site_type_symbol
_atom_site_label
_atom_site_fract_x
_atom_site_fract_y
_atom_site_fract_z
Si Si1 0.128427 0.971658 0.261237
Si Si2 0.000000 0.210092 0.250000
Si Si3 0.500000 0.133971 0.750000
Si Si4 0.233301 0.611450 0.575651
Si Si5 0.404705 0.215290 0.056914
Si Si6 0.299016 0.336181 0.572219
O O1 0.206398 0.932437 0.170598
O O2 0.000000 0.958333 0.250000
O O3 0.146223 0.989342 0.551554
O O4 0.924753 0.178395 0.420931
O O5 0.088429 0.244396 0.362420
O O6 0.601077 0.108674 0.884777
O O7 0.552714 0.168238 0.548316
O O8 0.270312 0.626766 0.289201
O O9 0.271708 0.648300 0.782361
O O10 0.500000 0.229034 0.250000
O O11 0.283862 0.203589 0.144313
#
# Coordination Sequence:
#
# PCOD9456225 Si02
#       6
#     8   4   4   8   8   8
#     4  10  22  41  66  93 125 164 197 245 317 382
#     4  11  28  36  62  88 124 162 218 266 312 352
#     4   9  20  40  60  92 114 174 202 248 304 370
#     4  11  23  42  66  91 129 157 211 256 308 374
#     4  10  21  40  59  79 122 168 204 251 306 368
#     4  11  26  40  62  93 123 165 211 263 312 361
#
# _framework density 20.892797999999999
#
# number of rings (size 3 to 8) (size 9 to 14) (size 15 to 20)
#    0.000    1.600    2.000    1.200    8.400    0.000 
#    0.000    1.000    0.000    0.000    0.000    0.000 
#    0.000    0.000    0.000    0.000    0.000    0.000 
#
# Total GULP energy -223017.833971 kJ/mol
# GULP energy per Si atom -5575.445849 kJ/mol
# Density = 2.084525 g / cm^3
# Si number density = 20.892798 Si / 1000 Ang^3
#
#
#
# Elastic Constant Matrix: (Units=GPa)
#
#
# Indices 1 2 3 4 5 6 
#
# 1 111.2866 38.3946 -3.7325 0.0000 0.0000 0.0000
# 2 38.3946 38.4739 -7.0222 0.0000 0.0000 0.0000
# 3 -3.7325 -7.0222 47.8673 0.0000 0.0000 0.0000
# 4 0.0000 0.0000 0.0000 24.4461 0.0000 0.0000
# 5 0.0000 0.0000 0.0000 0.0000 26.4316 0.0000
# 6 0.0000 0.0000 0.0000 0.0000 0.0000 -60.6682
#
#
#
# Elastic Compliance Matrix: (Units=1/GPa)
#
#
# Indices 1 2 3 4 5 6 
#
# 1 0.013747 -0.013896 -0.000967 0.000000 0.000000 0.000000
# 2 -0.013896 0.040752 0.004895 0.000000 0.000000 0.000000
# 3 -0.000967 0.004895 0.021534 0.000000 0.000000 0.000000
# 4 0.000000 0.000000 0.000000 0.040906 0.000000 0.000000
# 5 0.000000 0.000000 0.000000 0.000000 0.037834 0.000000
# 6 0.000000 0.000000 0.000000 0.000000 0.000000 -0.016483
#
#
# Mechanical properties :
#
#
# Convention : Reuss Voigt Hill
#
# Bulk Modulus (GPa) = 17.82567 28.10085 22.96326
# Shear Modulus (GPa) = 28.26073 9.37443 18.81758
#
# Velocity S-wave (km/s) = 3.68183 2.12053 3.00438
# Velocity P-wave (km/s) = 5.15995 4.41302 4.80103
#
# Compressibility (1/GPa) = 0.05609886
#
# Stress axis : x y z
#
# Youngs Moduli (GPa) = 72.74079 24.53869 46.43859
#
# Poissons Ratio (x) = 0.34098 0.04488
# Poissons Ratio (y) = 1.01077 -0.22731
# Poissons Ratio (z) = 0.07031 -0.12011
#
# Static dielectric constant tensor:
#      x y z
#    x 1.796410 0.000000 0.000000 
#    y 0.000000 1.716960 0.000000 
#    z 0.000000 0.000000 0.523880 
# 
# From -- ./inp_files/878.got.cif
#   From: 2010.05.17/outbox.cif.g08.bks.cpg/sg60_1_cif.got.tgz:878.got - 2010.06.03 14:59:27.
