data_PCOD9456339
_publ_section_title
;
Structure prediction by ZEFSAII (Michael W. Deem and Ramdas Pophale) SiO2 
 PCOD9456339
Probable space group: P B C N
;
_chemical_formula_sum "Si O2"
_cell_formula_units_Z 36
_cell_length_a 6.384903
_cell_length_b 12.118542
_cell_length_c 21.318681
_cell_angle_alpha 90.000000
_cell_angle_beta 90.000000
_cell_angle_gamma 90.000000
_cell_volume 1649.548189
_symmetry_space_group_name_H-M "P B C N"
_symmetry_group_IT_number 60
_symmetry_cell_setting 'orthorhombic'
loop_
_space_group_symop_operation_xyz
x,y,z
1/2-x,1/2-y,1/2+z
1/2+x,1/2-y,-z
-x,y,1/2-z
-x,-y,-z
1/2+x,1/2+y,1/2-z
1/2-x,1/2+y,z
x,-y,1/2+z
loop_
_atom_site_type_symbol
_atom_site_label
_atom_site_fract_x
_atom_site_fract_y
_atom_site_fract_z
Si Si1 0.069426 0.848891 0.064979
Si Si2 0.285490 0.857876 0.942179
Si Si3 0.056042 0.258289 0.146368
Si Si4 0.274899 0.034812 0.849330
Si Si5 0.000000 0.909418 0.750000
O O1 0.242061 0.803903 0.112368
O O2 0.941463 0.741651 0.040966
O O3 0.909322 0.922570 0.104337
O O4 0.188856 0.904036 0.006508
O O5 0.095533 0.805857 0.901977
O O6 0.388467 0.945460 0.894445
O O7 0.920495 0.363245 0.168683
O O8 0.109831 0.172358 0.200683
O O9 0.166555 0.980613 0.789011
#
# Coordination Sequence:
#
# PCOD9456339 Si02
#       5
#     8   8   8   8   4
#     4  11  21  40  67  94 131 175 211 269 335 393
#     4  10  21  41  62  96 135 161 213 269 327 394
#     4  10  23  42  64  94 127 173 220 266 328 395
#     4  10  24  41  64  98 126 171 222 269 326 392
#     4  10  24  46  64  90 134 170 224 276 316 386
#
# _framework density 21.824158000000001
#
# number of rings (size 3 to 8) (size 9 to 14) (size 15 to 20)
#    0.000    1.778    2.222    0.667    3.111    4.444 
#    0.000    2.222    0.000    0.000    0.000    0.000 
#    0.000    0.000    0.000    0.000    0.000    0.000 
#
# Total GULP energy -201272.251821 kJ/mol
# GULP energy per Si atom -5590.895884 kJ/mol
# Density = 2.177449 g / cm^3
# Si number density = 21.824158 Si / 1000 Ang^3
#
#
#
# Elastic Constant Matrix: (Units=GPa)
#
#
# Indices 1 2 3 4 5 6 
#
# 1 39.3218 12.3784 23.1306 0.0000 0.0000 0.0000
# 2 12.3784 79.2807 41.3311 0.0000 0.0000 0.0000
# 3 23.1306 41.3311 116.2512 0.0000 0.0000 0.0000
# 4 0.0000 0.0000 0.0000 41.0221 0.0000 0.0000
# 5 0.0000 0.0000 0.0000 0.0000 20.8266 0.0000
# 6 0.0000 0.0000 0.0000 0.0000 0.0000 13.4959
#
#
#
# Elastic Compliance Matrix: (Units=1/GPa)
#
#
# Indices 1 2 3 4 5 6 
#
# 1 0.029026 -0.001867 -0.005111 0.000000 0.000000 0.000000
# 2 -0.001867 0.015603 -0.005176 0.000000 0.000000 0.000000
# 3 -0.005111 -0.005176 0.011459 0.000000 0.000000 0.000000
# 4 0.000000 0.000000 0.000000 0.024377 0.000000 0.000000
# 5 0.000000 0.000000 0.000000 0.000000 0.048015 0.000000
# 6 0.000000 0.000000 0.000000 0.000000 0.000000 0.074097
#
#
# Mechanical properties :
#
#
# Convention : Reuss Voigt Hill
#
# Bulk Modulus (GPa) = 31.46714 43.17043 37.31879
# Shear Modulus (GPa) = 21.05441 25.60317 23.32879
#
# Velocity S-wave (km/s) = 3.10938 3.42885 3.27302
# Velocity P-wave (km/s) = 5.22884 5.95819 5.60539
#
# Compressibility (1/GPa) = 0.03177918
#
# Stress axis : x y z
#
# Youngs Moduli (GPa) = 34.45222 64.08898 87.26526
#
# Poissons Ratio (x) = 0.11967 0.44605
# Poissons Ratio (y) = 0.06433 0.45168
# Poissons Ratio (z) = 0.17610 0.33172
#
# Static dielectric constant tensor:
#      x y z
#    x 1.742940 0.000000 0.000000 
#    y 0.000000 1.829680 0.000000 
#    z 0.000000 0.000000 1.785250 
# 
# From -- ./inp_files/21471.got.cif
#   From: 2010.05.17/outbox.cif.g08.bks.cpg/sg60_11_cif.got.tgz:21471.got - 2010.06.03 14:59:27.
