data_PCOD9456878
_publ_section_title
;
Structure prediction by ZEFSAII (Michael W. Deem and Ramdas Pophale) SiO2 
 PCOD9456878
Probable space group: P B C N
;
_chemical_formula_sum "Si O2"
_cell_formula_units_Z 56
_cell_length_a 8.045979
_cell_length_b 21.907556
_cell_length_c 15.148043
_cell_angle_alpha 90.000000
_cell_angle_beta 90.000000
_cell_angle_gamma 90.000000
_cell_volume 2670.111237
_symmetry_space_group_name_H-M "P B C N"
_symmetry_group_IT_number 60
_symmetry_cell_setting 'orthorhombic'
loop_
_space_group_symop_operation_xyz
x,y,z
1/2-x,1/2-y,1/2+z
1/2+x,1/2-y,-z
-x,y,1/2-z
-x,-y,-z
1/2+x,1/2+y,1/2-z
1/2-x,1/2+y,z
x,-y,1/2+z
loop_
_atom_site_type_symbol
_atom_site_label
_atom_site_fract_x
_atom_site_fract_y
_atom_site_fract_z
Si Si1 0.429977 0.325578 0.531933
Si Si2 0.412287 0.096992 0.577317
Si Si3 0.625870 0.552834 0.031381
Si Si4 0.065493 0.281881 0.156029
Si Si5 0.555924 0.851683 0.904709
Si Si6 0.563698 0.020180 0.152562
Si Si7 0.462592 0.279257 0.153337
O O1 0.529336 0.385983 0.557617
O O2 0.498071 0.265272 0.581939
O O3 0.241264 0.337719 0.561656
O O4 0.449019 0.312919 0.427694
O O5 0.229126 0.071743 0.557206
O O6 0.470462 0.146287 0.648403
O O7 0.444895 0.136756 0.490089
O O8 0.515405 0.035754 0.589163
O O9 0.751204 0.535378 0.112841
O O10 0.500000 0.500000 0.000000
O O11 0.264284 0.281976 0.144369
O O12 0.000000 0.259302 0.250000
O O13 0.539652 0.916743 0.857427
O O14 0.492205 0.792642 0.852743
O O15 0.500000 0.999227 0.250000
O O16 0.500000 0.304271 0.250000
#
# Coordination Sequence:
#
# PCOD9456878 Si02
#       7
#     8   8   8   8   8   8   8
#     4  11  23  43  67  96 134 174 225 281 340 404
#     4  11  21  42  64  93 135 177 224 269 340 410
#     4  11  23  44  69  95 129 180 236 280 343 410
#     4  11  25  40  64  99 134 174 221 275 341 408
#     4  10  22  40  68  92 131 179 223 267 339 412
#     4  11  24  42  66  98 134 178 230 281 339 409
#     4  11  24  41  64  99 132 173 222 281 334 400
#
# _framework density 20.972908
#
# number of rings (size 3 to 8) (size 9 to 14) (size 15 to 20)
#    0.000    1.143    2.857    4.286    2.000    4.571 
#    2.571    2.143    0.000    0.000    0.000    0.000 
#    0.000    0.000    0.000    0.000    0.000    0.000 
#
# Total GULP energy -311954.741328 kJ/mol
# GULP energy per Si atom -5570.620381 kJ/mol
# Density = 2.092517 g / cm^3
# Si number density = 20.972908 Si / 1000 Ang^3
#
#
#
# Elastic Constant Matrix: (Units=GPa)
#
#
# Indices 1 2 3 4 5 6 
#
# 1 73.6544 36.2799 15.4819 0.0000 0.0000 0.0000
# 2 36.2799 126.2826 19.0583 0.0000 0.0000 0.0000
# 3 15.4819 19.0583 107.4914 0.0000 0.0000 0.0000
# 4 0.0000 0.0000 0.0000 6.5103 0.0000 0.0000
# 5 0.0000 0.0000 0.0000 0.0000 20.8388 0.0000
# 6 0.0000 0.0000 0.0000 0.0000 0.0000 -12.2342
#
#
#
# Elastic Compliance Matrix: (Units=1/GPa)
#
#
# Indices 1 2 3 4 5 6 
#
# 1 0.016058 -0.004382 -0.001536 0.000000 0.000000 0.000000
# 2 -0.004382 0.009332 -0.001024 0.000000 0.000000 0.000000
# 3 -0.001536 -0.001024 0.009706 0.000000 0.000000 0.000000
# 4 0.000000 0.000000 0.000000 0.153604 0.000000 0.000000
# 5 0.000000 0.000000 0.000000 0.000000 0.047987 0.000000
# 6 0.000000 0.000000 0.000000 0.000000 0.000000 -0.081738
#
#
# Mechanical properties :
#
#
# Convention : Reuss Voigt Hill
#
# Bulk Modulus (GPa) = 47.13924 49.89651 48.51788
# Shear Modulus (GPa) = 28.42496 18.79687 23.61091
#
# Velocity S-wave (km/s) = 3.68546 2.99698 3.35891
# Velocity P-wave (km/s) = 6.37457 5.98485 6.18278
#
# Compressibility (1/GPa) = 0.02121375
#
# Stress axis : x y z
#
# Youngs Moduli (GPa) = 62.27439 107.15842 103.03154
#
# Poissons Ratio (x) = 0.46952 0.15825
# Poissons Ratio (y) = 0.27286 0.10545
# Poissons Ratio (z) = 0.09565 0.10968
#
# Static dielectric constant tensor:
#      x y z
#    x 1.667500 0.000000 0.000000 
#    y 0.000000 1.798850 0.000000 
#    z 0.000000 0.000000 1.830350 
# 
# From -- ./inp_files/15287.got.cif
#   From: 2010.05.17/outbox.cif.g08.bks.cpg/sg60_8_cif.got.tgz:15287.got - 2010.06.03 14:59:27.
