data_PCOD9456976
_publ_section_title
;
Structure prediction by ZEFSAII (Michael W. Deem and Ramdas Pophale) SiO2 
 PCOD9456976
Probable space group: P B C N
;
_chemical_formula_sum "Si O2"
_cell_formula_units_Z 28
_cell_length_a 5.672220
_cell_length_b 28.818961
_cell_length_c 7.352559
_cell_angle_alpha 90.000000
_cell_angle_beta 90.000000
_cell_angle_gamma 90.000000
_cell_volume 1201.904342
_symmetry_space_group_name_H-M "P B C N"
_symmetry_group_IT_number 60
_symmetry_cell_setting 'orthorhombic'
loop_
_space_group_symop_operation_xyz
x,y,z
1/2-x,1/2-y,1/2+z
1/2+x,1/2-y,-z
-x,y,1/2-z
-x,-y,-z
1/2+x,1/2+y,1/2-z
1/2-x,1/2+y,z
x,-y,1/2+z
loop_
_atom_site_type_symbol
_atom_site_label
_atom_site_fract_x
_atom_site_fract_y
_atom_site_fract_z
Si Si1 0.099306 0.198627 0.554455
Si Si2 0.500000 0.774007 0.250000
Si Si3 0.993010 0.445115 0.532826
Si Si4 0.510177 0.595684 0.466599
O O1 0.366018 0.191551 0.614450
O O2 0.095263 0.237061 0.399357
O O3 0.000000 0.215898 0.750000
O O4 0.982608 0.150854 0.500350
O O5 0.741167 0.424748 0.464639
O O6 0.000000 0.435991 0.750000
O O7 0.000000 0.500000 0.500000
O O8 0.243580 0.425210 0.462117
O O9 0.500000 0.587532 0.250000
#
# Coordination Sequence:
#
# PCOD9456976 Si02
#       4
#     8   4   8   8
#     4  12  26  44  70 101 140 186 241 291 364 421
#     4  12  26  46  68 102 140 186 242 306 352 432
#     4  10  22  41  67  97 135 178 224 284 353 421
#     4  10  23  42  67  98 137 180 229 292 347 420
#
# _framework density 23.296361999999998
#
# number of rings (size 3 to 8) (size 9 to 14) (size 15 to 20)
#    0.000    1.143    4.286    0.857    4.000    2.286 
#    5.143    0.000    0.000    0.000    0.000    0.000 
#    0.000    0.000    0.000    0.000    0.000    0.000 
#
# Total GULP energy -156006.229909 kJ/mol
# GULP energy per Si atom -5571.651068 kJ/mol
# Density = 2.324334 g / cm^3
# Si number density = 23.296362 Si / 1000 Ang^3
#
#
#
# Elastic Constant Matrix: (Units=GPa)
#
#
# Indices 1 2 3 4 5 6 
#
# 1 170.7092 70.7432 30.7547 0.0000 0.0000 0.0000
# 2 70.7432 79.9014 -16.9580 0.0000 0.0000 0.0000
# 3 30.7547 -16.9580 80.0196 0.0000 0.0000 0.0000
# 4 0.0000 0.0000 0.0000 24.2216 0.0000 0.0000
# 5 0.0000 0.0000 0.0000 0.0000 -7.9289 0.0000
# 6 0.0000 0.0000 0.0000 0.0000 0.0000 40.7856
#
#
#
# Elastic Compliance Matrix: (Units=1/GPa)
#
#
# Indices 1 2 3 4 5 6 
#
# 1 0.012397 -0.012552 -0.007425 0.000000 0.000000 0.000000
# 2 -0.012552 0.025814 0.010295 0.000000 0.000000 0.000000
# 3 -0.007425 0.010295 0.017532 0.000000 0.000000 0.000000
# 4 0.000000 0.000000 0.000000 0.041286 0.000000 0.000000
# 5 0.000000 0.000000 0.000000 0.000000 -0.126120 0.000000
# 6 0.000000 0.000000 0.000000 0.000000 0.000000 0.024518
#
#
# Mechanical properties :
#
#
# Convention : Reuss Voigt Hill
#
# Bulk Modulus (GPa) = 27.48837 55.52334 41.50586
# Shear Modulus (GPa) = 185.75075 27.82166 106.78621
#
# Velocity S-wave (km/s) = 8.93907 3.45954 6.77773
# Velocity P-wave (km/s) = 10.87969 6.31214 8.89412
#
# Compressibility (1/GPa) = 0.03637901
#
# Stress axis : x y z
#
# Youngs Moduli (GPa) = 80.66300 38.73903 57.03756
#
# Poissons Ratio (x) = 0.48626 0.42349
# Poissons Ratio (y) = 1.01249 -0.58719
# Poissons Ratio (z) = 0.59891 -0.39881
#
# Static dielectric constant tensor:
#      x y z
#    x 2.659050 0.000000 0.000000 
#    y 0.000000 1.810110 0.000000 
#    z 0.000000 0.000000 1.890810 
# 
# From -- ./inp_files/2965.got.cif
#   From: 2010.05.17/outbox.cif.g08.bks.cpg/sg60_2_cif.got.tgz:2965.got - 2010.06.03 14:59:27.
