data_PCOD9456469
_publ_section_title
;
Structure prediction by ZEFSAII (Michael W. Deem and Ramdas Pophale) SiO2 
 PCOD9456469
Probable space group: P B C N
;
_chemical_formula_sum "Si O2"
_cell_formula_units_Z 40
_cell_length_a 5.509350
_cell_length_b 23.978217
_cell_length_c 11.446231
_cell_angle_alpha 90.000000
_cell_angle_beta 90.000000
_cell_angle_gamma 90.000000
_cell_volume 1512.097362
_symmetry_space_group_name_H-M "P B C N"
_symmetry_group_IT_number 60
_symmetry_cell_setting 'orthorhombic'
loop_
_space_group_symop_operation_xyz
x,y,z
1/2-x,1/2-y,1/2+z
1/2+x,1/2-y,-z
-x,y,1/2-z
-x,-y,-z
1/2+x,1/2+y,1/2-z
1/2-x,1/2+y,z
x,-y,1/2+z
loop_
_atom_site_type_symbol
_atom_site_label
_atom_site_fract_x
_atom_site_fract_y
_atom_site_fract_z
Si Si1 0.760699 0.844052 0.320106
Si Si2 0.674575 0.679382 0.417604
Si Si3 0.097830 0.568784 0.128020
Si Si4 0.323235 0.218579 0.430598
Si Si5 0.195329 0.039433 0.564982
O O1 0.500000 0.846917 0.250000
O O2 0.694313 0.811691 0.441067
O O3 0.851952 0.905044 0.362822
O O4 0.000000 0.822085 0.250000
O O5 0.706088 0.613034 0.421322
O O6 0.680184 0.716431 0.536655
O O7 0.416525 0.697220 0.366905
O O8 0.930336 0.700754 0.370220
O O9 0.197009 0.507188 0.151361
O O10 0.000000 0.590907 0.250000
O O11 0.890133 0.559780 0.031834
O O12 0.000000 0.000000 0.500000
#
# Coordination Sequence:
#
# PCOD9456469 Si02
#       5
#     8   8   8   8   8
#     4  12  26  42  71 101 137 180 236 284 344 415
#     4  10  21  42  69  98 137 181 223 285 340 409
#     4  11  25  43  68  99 135 179 234 282 348 409
#     4  10  21  42  69  98 136 181 227 275 349 403
#     4  11  26  44  69  95 141 181 225 291 347 413
#
# _framework density 26.453323000000001
#
# number of rings (size 3 to 8) (size 9 to 14) (size 15 to 20)
#    0.000    1.200    2.000    3.000    8.400    0.800 
#    0.000    0.000    0.000    0.000    0.000    0.000 
#    0.000    0.000    0.000    0.000    0.000    0.000 
#
# Total GULP energy -223427.111357 kJ/mol
# GULP energy per Si atom -5585.677784 kJ/mol
# Density = 2.639311 g / cm^3
# Si number density = 26.453323 Si / 1000 Ang^3
#
#
#
# Elastic Constant Matrix: (Units=GPa)
#
#
# Indices 1 2 3 4 5 6 
#
# 1 180.9038 -5.9305 24.8490 0.0000 0.0000 0.0000
# 2 -5.9305 132.7609 37.8066 0.0000 0.0000 0.0000
# 3 24.8490 37.8066 100.4664 0.0000 0.0000 0.0000
# 4 0.0000 0.0000 0.0000 58.6364 0.0000 0.0000
# 5 0.0000 0.0000 0.0000 0.0000 26.6580 0.0000
# 6 0.0000 0.0000 0.0000 0.0000 0.0000 36.6374
#
#
#
# Elastic Compliance Matrix: (Units=1/GPa)
#
#
# Indices 1 2 3 4 5 6 
#
# 1 0.005787 0.000746 -0.001712 0.000000 0.000000 0.000000
# 2 0.000746 0.008533 -0.003395 0.000000 0.000000 0.000000
# 3 -0.001712 -0.003395 0.011655 0.000000 0.000000 0.000000
# 4 0.000000 0.000000 0.000000 0.017054 0.000000 0.000000
# 5 0.000000 0.000000 0.000000 0.000000 0.037512 0.000000
# 6 0.000000 0.000000 0.000000 0.000000 0.000000 0.027295
#
#
# Mechanical properties :
#
#
# Convention : Reuss Voigt Hill
#
# Bulk Modulus (GPa) = 57.96508 58.62012 58.29260
# Shear Modulus (GPa) = 40.87989 48.21343 44.54666
#
# Velocity S-wave (km/s) = 3.93537 4.27381 4.10807
# Velocity P-wave (km/s) = 6.52758 6.82362 6.67724
#
# Compressibility (1/GPa) = 0.01725177
#
# Stress axis : x y z
#
# Youngs Moduli (GPa) = 172.78768 117.19761 85.80150
#
# Poissons Ratio (x) = -0.08744 0.14691
# Poissons Ratio (y) = -0.12892 0.29133
# Poissons Ratio (z) = 0.29585 0.39794
#
# Static dielectric constant tensor:
#      x y z
#    x 2.365360 0.000000 0.000000 
#    y 0.000000 2.074050 0.000000 
#    z 0.000000 0.000000 2.063710 
# 
# From -- ./inp_files/9100.got.cif
#   From: 2010.05.17/outbox.cif.g08.bks.cpg/sg60_5_cif.got.tgz:9100.got - 2010.06.03 14:59:27.
