data_PCOD9456880
_publ_section_title
;
Structure prediction by ZEFSAII (Michael W. Deem and Ramdas Pophale) SiO2 
 PCOD9456880
Probable space group: P B C N
;
_chemical_formula_sum "Si O2"
_cell_formula_units_Z 40
_cell_length_a 13.173346
_cell_length_b 9.138059
_cell_length_c 13.689486
_cell_angle_alpha 90.000000
_cell_angle_beta 90.000000
_cell_angle_gamma 90.000000
_cell_volume 1647.924075
_symmetry_space_group_name_H-M "P B C N"
_symmetry_group_IT_number 60
_symmetry_cell_setting 'orthorhombic'
loop_
_space_group_symop_operation_xyz
x,y,z
1/2-x,1/2-y,1/2+z
1/2+x,1/2-y,-z
-x,y,1/2-z
-x,-y,-z
1/2+x,1/2+y,1/2-z
1/2-x,1/2+y,z
x,-y,1/2+z
loop_
_atom_site_type_symbol
_atom_site_label
_atom_site_fract_x
_atom_site_fract_y
_atom_site_fract_z
Si Si1 0.000000 0.403314 0.750000
Si Si2 0.500000 0.386815 0.750000
Si Si3 0.332361 0.859385 0.214294
Si Si4 0.745078 0.556205 0.575949
Si Si5 0.962244 0.147631 0.602804
Si Si6 0.817120 0.205618 0.966015
O O1 0.912727 0.506459 0.795650
O O2 0.955156 0.291986 0.670052
O O3 0.595311 0.282884 0.775047
O O4 0.466976 0.499456 0.833840
O O5 0.273691 0.900166 0.314613
O O6 0.249810 0.829873 0.129774
O O7 0.639595 0.631732 0.542348
O O8 0.730661 0.386915 0.554844
O O9 0.822835 0.627271 0.500352
O O10 0.068054 0.156914 0.548927
#
# Coordination Sequence:
#
# PCOD9456880 Si02
#       6
#     4   4   8   8   8   8
#     4  10  22  40  68  94 128 174 210 266 328 380
#     4  10  22  42  72  96 128 174 214 264 324 382
#     4  11  24  45  66  96 134 169 214 267 324 384
#     4  12  26  43  68  97 130 173 217 266 324 385
#     4  11  23  41  65  98 130 166 220 268 317 384
#     4  12  26  43  68  97 130 173 217 266 324 385
#
# _framework density 24.272962
#
# number of rings (size 3 to 8) (size 9 to 14) (size 15 to 20)
#    0.000    0.800    0.000    7.800    0.000    8.000 
#    0.000    7.000    0.000    0.000    0.000    0.000 
#    0.000    0.000    0.000    0.000    0.000    0.000 
#
# Total GULP energy -223958.769958 kJ/mol
# GULP energy per Si atom -5598.969249 kJ/mol
# Density = 2.421772 g / cm^3
# Si number density = 24.272962 Si / 1000 Ang^3
#
#
#
# Elastic Constant Matrix: (Units=GPa)
#
#
# Indices 1 2 3 4 5 6 
#
# 1 97.3886 1.2404 0.6489 0.0000 0.0000 0.0000
# 2 1.2404 90.6302 -19.6716 0.0000 0.0000 0.0000
# 3 0.6489 -19.6716 60.3207 0.0000 0.0000 0.0000
# 4 0.0000 0.0000 0.0000 -0.5215 0.0000 0.0000
# 5 0.0000 0.0000 0.0000 0.0000 28.7281 0.0000
# 6 0.0000 0.0000 0.0000 0.0000 0.0000 20.2439
#
#
#
# Elastic Compliance Matrix: (Units=1/GPa)
#
#
# Indices 1 2 3 4 5 6 
#
# 1 0.010272 -0.000177 -0.000168 0.000000 0.000000 0.000000
# 2 -0.000177 0.011877 0.003875 0.000000 0.000000 0.000000
# 3 -0.000168 0.003875 0.017844 0.000000 0.000000 0.000000
# 4 0.000000 0.000000 0.000000 -1.917433 0.000000 0.000000
# 5 0.000000 0.000000 0.000000 0.000000 0.034809 0.000000
# 6 0.000000 0.000000 0.000000 0.000000 0.000000 0.049398
#
#
# Mechanical properties :
#
#
# Convention : Reuss Voigt Hill
#
# Bulk Modulus (GPa) = 21.25281 23.64165 22.44723
# Shear Modulus (GPa) = -2.80173 27.43156 12.31491
#
# Velocity S-wave (km/s) = -1.07553 3.36538 2.25489
# Velocity P-wave (km/s) = 2.68931 4.98620 4.00591
#
# Compressibility (1/GPa) = 0.04705260
#
# Stress axis : x y z
#
# Youngs Moduli (GPa) = 97.35659 84.19329 56.04228
#
# Poissons Ratio (x) = 0.01491 0.00943
# Poissons Ratio (y) = 0.01724 -0.21718
# Poissons Ratio (z) = 0.01638 -0.32628
#
# Static dielectric constant tensor:
#      x y z
#    x 1.928510 0.000000 0.000000 
#    y 0.000000 1.917540 0.000000 
#    z 0.000000 0.000000 1.922280 
# 
# From -- ./inp_files/16648.got.cif
#   From: 2010.05.17/outbox.cif.g08.bks.cpg/sg60_9_cif.got.tgz:16648.got - 2010.06.03 14:59:27.
