data_PCOD9456121
_publ_section_title
;
Structure prediction by ZEFSAII (Michael W. Deem and Ramdas Pophale) SiO2 
 PCOD9456121
Probable space group: P B C N
;
_chemical_formula_sum "Si O2"
_cell_formula_units_Z 56
_cell_length_a 29.622664
_cell_length_b 5.299278
_cell_length_c 15.473503
_cell_angle_alpha 90.000000
_cell_angle_beta 90.000000
_cell_angle_gamma 90.000000
_cell_volume 2429.010875
_symmetry_space_group_name_H-M "P B C N"
_symmetry_group_IT_number 60
_symmetry_cell_setting 'orthorhombic'
loop_
_space_group_symop_operation_xyz
x,y,z
1/2-x,1/2-y,1/2+z
1/2+x,1/2-y,-z
-x,y,1/2-z
-x,-y,-z
1/2+x,1/2+y,1/2-z
1/2-x,1/2+y,z
x,-y,1/2+z
loop_
_atom_site_type_symbol
_atom_site_label
_atom_site_fract_x
_atom_site_fract_y
_atom_site_fract_z
Si Si1 0.226135 0.606815 0.778032
Si Si2 0.118168 0.439258 0.542350
Si Si3 0.777428 0.601495 0.512757
Si Si4 0.873387 0.405330 0.270385
Si Si5 0.044526 0.900604 0.107135
Si Si6 0.080324 0.079848 0.787422
Si Si7 0.041745 0.733684 0.455398
O O1 0.261088 0.389710 0.751709
O O2 0.222902 0.601652 0.882393
O O3 0.178595 0.529721 0.739754
O O4 0.169945 0.407092 0.514381
O O5 0.116588 0.613875 0.627839
O O6 0.094197 0.187271 0.577226
O O7 0.083368 0.544375 0.470772
O O8 0.749430 0.353182 0.484212
O O9 0.901059 0.638247 0.230048
O O10 0.883639 0.142543 0.223491
O O11 0.046182 0.960548 0.207710
O O12 0.008064 0.679976 0.083927
O O13 0.032840 0.132758 0.046371
O O14 0.059735 0.073402 0.882238
#
# Coordination Sequence:
#
# PCOD9456121 Si02
#       7
#     8   8   8   8   8   8   8
#     4  10  21  39  60  90 126 167 219 280 333 398
#     4  11  24  42  68  96 142 175 231 286 345 410
#     4  10  24  40  65  97 131 172 228 277 339 412
#     4  11  24  42  64  96 132 173 230 276 336 415
#     4  10  24  44  64 104 136 177 234 281 336 417
#     4  11  24  43  66  98 134 180 224 277 337 407
#     4  11  23  42  71  95 138 186 224 282 348 401
#
# _framework density 23.054652999999998
#
# number of rings (size 3 to 8) (size 9 to 14) (size 15 to 20)
#    0.000    1.429    1.429    2.571    6.000    2.286 
#    0.000    1.429    0.000    0.000    0.000    0.000 
#    0.000    0.000    0.000    0.000    0.000    0.000 
#
# Total GULP energy -312838.954260 kJ/mol
# GULP energy per Si atom -5586.409897 kJ/mol
# Density = 2.300218 g / cm^3
# Si number density = 23.054653 Si / 1000 Ang^3
#
#
#
# Elastic Constant Matrix: (Units=GPa)
#
#
# Indices 1 2 3 4 5 6 
#
# 1 108.0666 8.7706 -12.5550 0.0000 0.0000 0.0000
# 2 8.7706 79.1302 2.5218 0.0000 0.0000 0.0000
# 3 -12.5550 2.5218 38.3814 0.0000 0.0000 0.0000
# 4 0.0000 0.0000 0.0000 16.4449 0.0000 0.0000
# 5 0.0000 0.0000 0.0000 0.0000 38.0847 0.0000
# 6 0.0000 0.0000 0.0000 0.0000 0.0000 20.7317
#
#
#
# Elastic Compliance Matrix: (Units=1/GPa)
#
#
# Indices 1 2 3 4 5 6 
#
# 1 0.009728 -0.001182 0.003260 0.000000 0.000000 0.000000
# 2 -0.001182 0.012808 -0.001228 0.000000 0.000000 0.000000
# 3 0.003260 -0.001228 0.027201 0.000000 0.000000 0.000000
# 4 0.000000 0.000000 0.000000 0.060809 0.000000 0.000000
# 5 0.000000 0.000000 0.000000 0.000000 0.026257 0.000000
# 6 0.000000 0.000000 0.000000 0.000000 0.000000 0.048235
#
#
# Mechanical properties :
#
#
# Convention : Reuss Voigt Hill
#
# Bulk Modulus (GPa) = 19.44159 24.78371 22.11265
# Shear Modulus (GPa) = 24.93952 30.17499 27.55726
#
# Velocity S-wave (km/s) = 3.29257 3.62172 3.46106
# Velocity P-wave (km/s) = 4.78601 5.31625 5.05808
#
# Compressibility (1/GPa) = 0.05143612
#
# Stress axis : x y z
#
# Youngs Moduli (GPa) = 102.79376 78.07887 36.76295
#
# Poissons Ratio (x) = 0.09230 -0.11984
# Poissons Ratio (y) = 0.12152 0.04515
# Poissons Ratio (z) = -0.33509 0.09590
#
# Static dielectric constant tensor:
#      x y z
#    x 1.847540 0.000000 0.000000 
#    y 0.000000 1.902690 0.000000 
#    z 0.000000 0.000000 1.883940 
# 
# From -- ./inp_files/18165.got.cif
#   From: 2010.05.17/outbox.cif.g08.bks.cpg/sg60_10_cif.got.tgz:18165.got - 2010.06.03 14:59:27.
