data_PCOD9456766
_publ_section_title
;
Structure prediction by ZEFSAII (Michael W. Deem and Ramdas Pophale) SiO2 
 PCOD9456766
Probable space group: P B C N
;
_chemical_formula_sum "Si O2"
_cell_formula_units_Z 32
_cell_length_a 6.514662
_cell_length_b 24.399381
_cell_length_c 7.149977
_cell_angle_alpha 90.000000
_cell_angle_beta 90.000000
_cell_angle_gamma 90.000000
_cell_volume 1136.515444
_symmetry_space_group_name_H-M "P B C N"
_symmetry_group_IT_number 60
_symmetry_cell_setting 'orthorhombic'
loop_
_space_group_symop_operation_xyz
x,y,z
1/2-x,1/2-y,1/2+z
1/2+x,1/2-y,-z
-x,y,1/2-z
-x,-y,-z
1/2+x,1/2+y,1/2-z
1/2-x,1/2+y,z
x,-y,1/2+z
loop_
_atom_site_type_symbol
_atom_site_label
_atom_site_fract_x
_atom_site_fract_y
_atom_site_fract_z
Si Si1 0.000000 0.278820 0.750000
Si Si2 0.759790 0.813712 0.078128
Si Si3 0.000000 0.850434 0.750000
Si Si4 0.000000 0.092495 0.750000
Si Si5 0.500000 0.033771 0.750000
Si Si6 0.748993 0.059647 0.080799
O O1 0.807114 0.239280 0.702444
O O2 0.064011 0.309301 0.557683
O O3 0.806960 0.867651 0.201360
O O4 0.951098 0.817111 0.933495
O O5 0.194876 0.889711 0.788101
O O6 0.059035 0.060342 0.562616
O O7 0.443022 0.064086 0.559913
O O8 0.309939 0.993253 0.799015
#
# Coordination Sequence:
#
# PCOD9456766 Si02
#       6
#     4   8   4   4   4   8
#     4  11  22  41  64  91 124 158 202 249 298 361
#     4  10  22  39  63  91 122 159 202 248 302 356
#     4  10  22  41  62  90 122 162 204 248 302 359
#     4   9  22  43  64  89 120 164 206 247 300 361
#     4  10  24  41  60  92 124 160 200 252 308 357
#     4  10  23  41  62  88 123 157 204 250 302 362
#
# _framework density 28.156237999999998
#
# number of rings (size 3 to 8) (size 9 to 14) (size 15 to 20)
#    0.000    2.000    0.000    1.500    0.000   14.000 
#    0.000    2.500    0.000    0.000    0.000    0.000 
#    0.000    0.000    0.000    0.000    0.000    0.000 
#
# Total GULP energy -179016.670287 kJ/mol
# GULP energy per Si atom -5594.270946 kJ/mol
# Density = 2.809215 g / cm^3
# Si number density = 28.156238 Si / 1000 Ang^3
#
#
#
# Elastic Constant Matrix: (Units=GPa)
#
#
# Indices 1 2 3 4 5 6 
#
# 1 82.1320 50.3150 23.7246 0.0000 0.0000 0.0000
# 2 50.3150 80.5156 44.0990 0.0000 0.0000 0.0000
# 3 23.7246 44.0990 118.6201 0.0000 0.0000 0.0000
# 4 0.0000 0.0000 0.0000 54.2773 0.0000 0.0000
# 5 0.0000 0.0000 0.0000 0.0000 87.3754 0.0000
# 6 0.0000 0.0000 0.0000 0.0000 0.0000 41.7067
#
#
#
# Elastic Compliance Matrix: (Units=1/GPa)
#
#
# Indices 1 2 3 4 5 6 
#
# 1 0.019789 -0.012806 0.000803 0.000000 0.000000 0.000000
# 2 -0.012806 0.023883 -0.006318 0.000000 0.000000 0.000000
# 3 0.000803 -0.006318 0.010618 0.000000 0.000000 0.000000
# 4 0.000000 0.000000 0.000000 0.018424 0.000000 0.000000
# 5 0.000000 0.000000 0.000000 0.000000 0.011445 0.000000
# 6 0.000000 0.000000 0.000000 0.000000 0.000000 0.023977
#
#
# Mechanical properties :
#
#
# Convention : Reuss Voigt Hill
#
# Bulk Modulus (GPa) = 56.66142 57.50500 57.08321
# Shear Modulus (GPa) = 33.18750 47.54716 40.36733
#
# Velocity S-wave (km/s) = 3.43693 4.11383 3.79052
# Velocity P-wave (km/s) = 5.99313 6.55993 6.28292
#
# Compressibility (1/GPa) = 0.01764869
#
# Stress axis : x y z
#
# Youngs Moduli (GPa) = 50.53405 41.87140 94.17685
#
# Poissons Ratio (x) = 0.53620 -0.07562
# Poissons Ratio (y) = 0.64714 0.59497
# Poissons Ratio (z) = -0.04058 0.26452
#
# Static dielectric constant tensor:
#      x y z
#    x 2.236530 0.000000 0.000000 
#    y 0.000000 2.223430 0.000000 
#    z 0.000000 0.000000 2.009450 
# 
# From -- ./inp_files/3155.got.cif
#   From: 2010.05.17/outbox.cif.g08.bks.cpg/sg60_2_cif.got.tgz:3155.got - 2010.06.03 14:59:27.
