data_PCOD9456805
_publ_section_title
;
Structure prediction by ZEFSAII (Michael W. Deem and Ramdas Pophale) SiO2 
 PCOD9456805
Probable space group: P B C N
;
_chemical_formula_sum "Si O2"
_cell_formula_units_Z 56
_cell_length_a 14.274345
_cell_length_b 20.893736
_cell_length_c 9.337609
_cell_angle_alpha 90.000000
_cell_angle_beta 90.000000
_cell_angle_gamma 90.000000
_cell_volume 2784.889556
_symmetry_space_group_name_H-M "P B C N"
_symmetry_group_IT_number 60
_symmetry_cell_setting 'orthorhombic'
loop_
_space_group_symop_operation_xyz
x,y,z
1/2-x,1/2-y,1/2+z
1/2+x,1/2-y,-z
-x,y,1/2-z
-x,-y,-z
1/2+x,1/2+y,1/2-z
1/2-x,1/2+y,z
x,-y,1/2+z
loop_
_atom_site_type_symbol
_atom_site_label
_atom_site_fract_x
_atom_site_fract_y
_atom_site_fract_z
Si Si1 0.097504 0.173283 0.306903
Si Si2 0.560566 0.802337 0.029396
Si Si3 0.706529 0.997101 0.803021
Si Si4 0.649450 0.199318 0.049918
Si Si5 0.237004 0.727124 0.166742
Si Si6 0.079857 0.550230 0.948772
Si Si7 0.729709 0.415782 0.553307
O O1 0.079915 0.246696 0.355188
O O2 0.179985 0.175553 0.189195
O O3 0.142656 0.132521 0.434844
O O4 0.000000 0.147356 0.250000
O O5 0.551083 0.876205 0.075141
O O6 0.459429 0.787153 0.961357
O O7 0.648406 0.796217 0.922903
O O8 0.627752 0.026809 0.698024
O O9 0.774377 0.962826 0.689454
O O10 0.758140 0.048636 0.903625
O O11 0.654943 0.952596 0.920530
O O12 0.697160 0.240353 0.175616
O O13 0.675175 0.125666 0.080433
O O14 0.708416 0.215465 0.908444
O O15 0.000000 0.500000 0.000000
#
# Coordination Sequence:
#
# PCOD9456805 Si02
#       7
#     8   8   8   8   8   8   8
#     4  11  23  40  66  95 128 169 219 276 342 387
#     4  12  23  38  66  95 132 174 214 265 330 402
#     4  10  22  40  60  88 125 175 217 267 329 382
#     4  11  23  38  62  93 133 166 211 261 330 395
#     4  11  22  40  59  93 134 167 209 263 332 388
#     4  11  23  36  60  94 133 173 219 258 322 406
#     4  10  22  43  65  91 130 168 220 279 325 401
#
# _framework density 20.108519000000001
#
# number of rings (size 3 to 8) (size 9 to 14) (size 15 to 20)
#    0.000    1.143    4.286    4.286    2.000    2.286 
#    0.000    0.714    0.000    0.000    0.000    0.000 
#    0.000    0.000    0.000    0.000    0.000    0.000 
#
# Total GULP energy -312394.862454 kJ/mol
# GULP energy per Si atom -5578.479687 kJ/mol
# Density = 2.006275 g / cm^3
# Si number density = 20.108519 Si / 1000 Ang^3
#
#
#
# Elastic Constant Matrix: (Units=GPa)
#
#
# Indices 1 2 3 4 5 6 
#
# 1 145.0669 33.1537 40.0022 0.0000 0.0000 0.0000
# 2 33.1537 88.9854 36.6096 0.0000 0.0000 0.0000
# 3 40.0022 36.6096 111.9054 0.0000 0.0000 0.0000
# 4 0.0000 0.0000 0.0000 28.0687 0.0000 0.0000
# 5 0.0000 0.0000 0.0000 0.0000 35.5495 0.0000
# 6 0.0000 0.0000 0.0000 0.0000 0.0000 17.6252
#
#
#
# Elastic Compliance Matrix: (Units=1/GPa)
#
#
# Indices 1 2 3 4 5 6 
#
# 1 0.007966 -0.002076 -0.002168 0.000000 0.000000 0.000000
# 2 -0.002076 0.013526 -0.003683 0.000000 0.000000 0.000000
# 3 -0.002168 -0.003683 0.010916 0.000000 0.000000 0.000000
# 4 0.000000 0.000000 0.000000 0.035627 0.000000 0.000000
# 5 0.000000 0.000000 0.000000 0.000000 0.028130 0.000000
# 6 0.000000 0.000000 0.000000 0.000000 0.000000 0.056737
#
#
# Mechanical properties :
#
#
# Convention : Reuss Voigt Hill
#
# Bulk Modulus (GPa) = 60.40908 62.83208 61.62058
# Shear Modulus (GPa) = 28.69040 31.99482 30.34261
#
# Velocity S-wave (km/s) = 3.78137 3.99320 3.88873
# Velocity P-wave (km/s) = 7.01226 7.25087 7.13256
#
# Compressibility (1/GPa) = 0.01655380
#
# Stress axis : x y z
#
# Youngs Moduli (GPa) = 125.53838 73.92923 91.60717
#
# Poissons Ratio (x) = 0.15346 0.19864
# Poissons Ratio (y) = 0.26058 0.33740
# Poissons Ratio (z) = 0.27222 0.27229
#
# Static dielectric constant tensor:
#      x y z
#    x 1.730190 0.000000 0.000000 
#    y 0.000000 1.764470 0.000000 
#    z 0.000000 0.000000 1.748540 
# 
# From -- ./inp_files/6167.got.cif
#   From: 2010.05.17/outbox.cif.g08.bks.cpg/sg60_4_cif.got.tgz:6167.got - 2010.06.03 14:59:27.
