data_PCOD9456426
_publ_section_title
;
Structure prediction by ZEFSAII (Michael W. Deem and Ramdas Pophale) SiO2 
 PCOD9456426
Probable space group: P B C N
;
_chemical_formula_sum "Si O2"
_cell_formula_units_Z 64
_cell_length_a 7.990926
_cell_length_b 19.882133
_cell_length_c 17.684508
_cell_angle_alpha 90.000000
_cell_angle_beta 90.000000
_cell_angle_gamma 90.000000
_cell_volume 2809.655450
_symmetry_space_group_name_H-M "P B C N"
_symmetry_group_IT_number 60
_symmetry_cell_setting 'orthorhombic'
loop_
_space_group_symop_operation_xyz
x,y,z
1/2-x,1/2-y,1/2+z
1/2+x,1/2-y,-z
-x,y,1/2-z
-x,-y,-z
1/2+x,1/2+y,1/2-z
1/2-x,1/2+y,z
x,-y,1/2+z
loop_
_atom_site_type_symbol
_atom_site_label
_atom_site_fract_x
_atom_site_fract_y
_atom_site_fract_z
Si Si1 0.931239 0.452596 0.833728
Si Si2 0.769254 0.537491 0.050978
Si Si3 0.112688 0.159810 0.512498
Si Si4 0.736016 0.598938 0.459462
Si Si5 0.969816 0.596614 0.670978
Si Si6 0.147975 0.704427 0.931825
Si Si7 0.907017 0.030589 0.676204
Si Si8 0.512213 0.681200 0.662245
O O1 0.774454 0.415056 0.871534
O O2 0.000000 0.434624 0.750000
O O3 0.080984 0.443028 0.893160
O O4 0.905891 0.533432 0.835221
O O5 0.610890 0.520023 0.106149
O O6 0.746092 0.601488 0.998500
O O7 0.795528 0.468771 0.003943
O O8 0.115430 0.218857 0.450720
O O9 0.944411 0.117522 0.493576
O O10 0.115330 0.195998 0.594140
O O11 0.830725 0.664808 0.489342
O O12 0.977540 0.654571 0.610415
O O13 0.785745 0.560066 0.678221
O O14 0.000000 0.631671 0.750000
O O15 0.311090 0.700636 0.876663
O O16 0.004162 0.099924 0.663575
O O17 0.000000 0.000822 0.750000
O O18 0.500000 0.703749 0.750000
#
# Coordination Sequence:
#
# PCOD9456426 Si02
#       8
#     8   8   8   8   8   8   8   8
#     4  10  22  41  65  95 125 176 220 269 328 381
#     4  11  21  40  64  99 129 165 220 272 328 386
#     4  11  24  40  66 100 130 171 211 275 333 392
#     4  11  22  44  63  91 131 165 219 278 320 386
#     4   9  18  37  60  91 122 165 224 267 314 385
#     4  10  21  42  61  92 133 168 217 264 327 392
#     4   9  17  34  61  90 127 163 208 273 318 373
#     4   9  19  42  66  92 126 172 219 265 319 388
#
# _framework density 22.778592
#
# number of rings (size 3 to 8) (size 9 to 14) (size 15 to 20)
#    0.000    2.000    5.000    0.750    0.000    5.000 
#   11.250    4.375    0.000    0.000    0.000    0.000 
#    0.000    0.000    0.000    0.000    0.000    0.000 
#
# Total GULP energy -356422.377195 kJ/mol
# GULP energy per Si atom -5569.099644 kJ/mol
# Density = 2.272675 g / cm^3
# Si number density = 22.778592 Si / 1000 Ang^3
#
#
#
# Elastic Constant Matrix: (Units=GPa)
#
#
# Indices 1 2 3 4 5 6 
#
# 1 39.0529 18.1575 37.2151 0.0000 0.0000 0.0000
# 2 18.1575 78.4743 44.9541 0.0000 0.0000 0.0000
# 3 37.2151 44.9541 159.5855 0.0000 0.0000 0.0000
# 4 0.0000 0.0000 0.0000 12.3265 0.0000 0.0000
# 5 0.0000 0.0000 0.0000 0.0000 44.1625 0.0000
# 6 0.0000 0.0000 0.0000 0.0000 0.0000 68.3494
#
#
#
# Elastic Compliance Matrix: (Units=1/GPa)
#
#
# Indices 1 2 3 4 5 6 
#
# 1 0.033922 -0.003956 -0.006796 0.000000 0.000000 0.000000
# 2 -0.003956 0.015656 -0.003488 0.000000 0.000000 0.000000
# 3 -0.006796 -0.003488 0.008834 0.000000 0.000000 0.000000
# 4 0.000000 0.000000 0.000000 0.081126 0.000000 0.000000
# 5 0.000000 0.000000 0.000000 0.000000 0.022644 0.000000
# 6 0.000000 0.000000 0.000000 0.000000 0.000000 0.014631
#
#
# Mechanical properties :
#
#
# Convention : Reuss Voigt Hill
#
# Bulk Modulus (GPa) = 33.40867 53.08513 43.24690
# Shear Modulus (GPa) = 23.22673 36.75341 29.99007
#
# Velocity S-wave (km/s) = 3.19670 4.02121 3.63242
# Velocity P-wave (km/s) = 5.32200 6.70191 6.05142
#
# Compressibility (1/GPa) = 0.02993235
#
# Stress axis : x y z
#
# Youngs Moduli (GPa) = 29.47945 63.87202 113.20407
#
# Poissons Ratio (x) = 0.25266 0.76936
# Poissons Ratio (y) = 0.11661 0.39484
# Poissons Ratio (z) = 0.20035 0.22277
#
# Static dielectric constant tensor:
#      x y z
#    x 2.044250 0.000000 0.000000 
#    y 0.000000 1.798760 0.000000 
#    z 0.000000 0.000000 1.908830 
# 
# From -- ./inp_files/19702.got.cif
#   From: 2010.05.17/outbox.cif.g08.bks.cpg/sg60_10_cif.got.tgz:19702.got - 2010.06.03 14:59:27.
