data_PCOD9456160
_publ_section_title
;
Structure prediction by ZEFSAII (Michael W. Deem and Ramdas Pophale) SiO2 
 PCOD9456160
Probable space group: P B C N
;
_chemical_formula_sum "Si O2"
_cell_formula_units_Z 48
_cell_length_a 9.417136
_cell_length_b 15.843575
_cell_length_c 14.729565
_cell_angle_alpha 90.000000
_cell_angle_beta 90.000000
_cell_angle_gamma 90.000000
_cell_volume 2197.667308
_symmetry_space_group_name_H-M "P B C N"
_symmetry_group_IT_number 60
_symmetry_cell_setting 'orthorhombic'
loop_
_space_group_symop_operation_xyz
x,y,z
1/2-x,1/2-y,1/2+z
1/2+x,1/2-y,-z
-x,y,1/2-z
-x,-y,-z
1/2+x,1/2+y,1/2-z
1/2-x,1/2+y,z
x,-y,1/2+z
loop_
_atom_site_type_symbol
_atom_site_label
_atom_site_fract_x
_atom_site_fract_y
_atom_site_fract_z
Si Si1 0.799618 0.352855 0.012971
Si Si2 0.414628 0.005711 0.407082
Si Si3 0.496726 0.702495 0.498414
Si Si4 0.794524 0.451416 0.829649
Si Si5 0.559640 0.575366 0.841375
Si Si6 0.856484 0.908910 0.646372
O O1 0.839782 0.413386 0.097207
O O2 0.662911 0.294390 0.020762
O O3 0.930475 0.293843 0.989405
O O4 0.758430 0.409792 0.926265
O O5 0.500000 0.000000 0.500000
O O6 0.536327 0.034027 0.337420
O O7 0.283290 0.069005 0.411537
O O8 0.443890 0.634247 0.571861
O O9 0.444307 0.666294 0.400401
O O10 0.717597 0.541553 0.825319
O O11 0.716607 0.401588 0.746797
O O12 0.500000 0.617950 0.750000
O O13 0.460077 0.491399 0.853974
#
# Coordination Sequence:
#
# PCOD9456160 Si02
#       6
#     8   8   8   8   8   8
#     4  11  25  40  61  93 136 170 209 263 330 400
#     4  10  21  39  63  94 121 161 214 268 312 380
#     4  12  24  41  62  93 133 174 212 260 334 396
#     4  10  22  41  67  97 122 161 223 271 321 379
#     4  10  21  41  69  92 120 164 219 269 315 377
#     4  11  21  41  71  90 121 171 217 272 319 380
#
# _framework density 21.841339999999999
#
# number of rings (size 3 to 8) (size 9 to 14) (size 15 to 20)
#    0.000    1.333    3.333    3.000    7.000    0.000 
#    3.000    0.000    3.667    0.000    0.000    0.000 
#    0.000    0.000    0.000    0.000    0.000    0.000 
#
# Total GULP energy -267555.941880 kJ/mol
# GULP energy per Si atom -5574.082123 kJ/mol
# Density = 2.179163 g / cm^3
# Si number density = 21.841340 Si / 1000 Ang^3
#
#
#
# Elastic Constant Matrix: (Units=GPa)
#
#
# Indices 1 2 3 4 5 6 
#
# 1 107.4272 2.2386 -18.6355 0.0000 0.0000 0.0000
# 2 2.2386 25.9117 -7.9045 0.0000 0.0000 0.0000
# 3 -18.6355 -7.9045 70.3930 0.0000 0.0000 0.0000
# 4 0.0000 0.0000 0.0000 7.3329 0.0000 0.0000
# 5 0.0000 0.0000 0.0000 0.0000 33.0101 0.0000
# 6 0.0000 0.0000 0.0000 0.0000 0.0000 -54.5773
#
#
#
# Elastic Compliance Matrix: (Units=1/GPa)
#
#
# Indices 1 2 3 4 5 6 
#
# 1 0.009757 -0.000057 0.002577 0.000000 0.000000 0.000000
# 2 -0.000057 0.039962 0.004472 0.000000 0.000000 0.000000
# 3 0.002577 0.004472 0.015390 0.000000 0.000000 0.000000
# 4 0.000000 0.000000 0.000000 0.136371 0.000000 0.000000
# 5 0.000000 0.000000 0.000000 0.000000 0.030294 0.000000
# 6 0.000000 0.000000 0.000000 0.000000 0.000000 -0.018323
#
#
# Mechanical properties :
#
#
# Convention : Reuss Voigt Hill
#
# Bulk Modulus (GPa) = 12.64337 17.23655 14.93996
# Shear Modulus (GPa) = 22.14037 12.35537 17.24787
#
# Velocity S-wave (km/s) = 3.18731 2.38100 2.81319
# Velocity P-wave (km/s) = 4.39847 3.93290 4.17218
#
# Compressibility (1/GPa) = 0.07909286
#
# Stress axis : x y z
#
# Youngs Moduli (GPa) = 102.49285 25.02385 64.97612
#
# Poissons Ratio (x) = 0.00142 -0.16742
# Poissons Ratio (y) = 0.00583 -0.29059
# Poissons Ratio (z) = -0.26408 -0.11191
#
# Static dielectric constant tensor:
#      x y z
#    x 1.841880 0.000000 0.000000 
#    y 0.000000 1.783380 0.000000 
#    z 0.000000 0.000000 1.868130 
# 
# From -- ./inp_files/14978.got.cif
#   From: 2010.05.17/outbox.cif.g08.bks.cpg/sg60_8_cif.got.tgz:14978.got - 2010.06.03 14:59:27.
