data_PCOD9456769
_publ_section_title
;
Structure prediction by ZEFSAII (Michael W. Deem and Ramdas Pophale) SiO2 
 PCOD9456769
Probable space group: P B C N
;
_chemical_formula_sum "Si O2"
_cell_formula_units_Z 64
_cell_length_a 13.933228
_cell_length_b 8.967459
_cell_length_c 23.105991
_cell_angle_alpha 90.000000
_cell_angle_beta 90.000000
_cell_angle_gamma 90.000000
_cell_volume 2886.993084
_symmetry_space_group_name_H-M "P B C N"
_symmetry_group_IT_number 60
_symmetry_cell_setting 'orthorhombic'
loop_
_space_group_symop_operation_xyz
x,y,z
1/2-x,1/2-y,1/2+z
1/2+x,1/2-y,-z
-x,y,1/2-z
-x,-y,-z
1/2+x,1/2+y,1/2-z
1/2-x,1/2+y,z
x,-y,1/2+z
loop_
_atom_site_type_symbol
_atom_site_label
_atom_site_fract_x
_atom_site_fract_y
_atom_site_fract_z
Si Si1 0.854176 0.689730 0.195373
Si Si2 0.902864 0.927480 0.287659
Si Si3 0.812371 0.776931 0.545102
Si Si4 0.000173 0.323388 0.507269
Si Si5 0.174730 0.759676 0.558440
Si Si6 0.763877 0.489908 0.867018
Si Si7 0.035450 0.690185 0.134970
Si Si8 0.233777 0.960195 0.373367
O O1 0.860976 0.780592 0.254944
O O2 0.829136 0.828329 0.153018
O O3 0.780718 0.558834 0.178191
O O4 0.959394 0.628078 0.181084
O O5 0.808622 0.017580 0.311343
O O6 0.944121 0.859310 0.346520
O O7 0.000000 0.978589 0.250000
O O8 0.897438 0.751252 0.501061
O O9 0.720591 0.784899 0.503262
O O10 0.807911 0.631434 0.586462
O O11 0.818256 0.922106 0.584989
O O12 0.979627 0.305696 0.574623
O O13 0.000000 0.500000 0.500000
O O14 0.935818 0.255708 0.456602
O O15 0.208094 0.655360 0.611645
O O16 0.208035 0.920785 0.578182
O O17 0.865841 0.402838 0.864648
#
# Coordination Sequence:
#
# PCOD9456769 Si02
#       8
#     8   8   8   8   8   8   8   8
#     4  10  23  42  68  95 128 180 233 289 349 400
#     4  10  24  44  70  94 133 177 230 291 348 403
#     4  11  21  39  58  95 137 178 221 273 346 409
#     4  12  21  36  63  94 134 175 217 275 336 411
#     4  12  24  39  66  99 138 184 226 278 340 427
#     4  12  23  43  67  99 136 180 230 283 349 413
#     4  11  22  41  65  96 133 177 227 278 349 413
#     4  10  22  39  63  93 137 174 226 282 339 415
#
# _framework density 22.168395
#
# number of rings (size 3 to 8) (size 9 to 14) (size 15 to 20)
#    0.000    1.000    3.750    3.750    1.750    2.000 
#    0.000    2.500    0.000    0.750    0.000    0.000 
#    0.000    0.000    0.000    0.000    0.000    0.000 
#
# Total GULP energy -356717.770834 kJ/mol
# GULP energy per Si atom -5573.715169 kJ/mol
# Density = 2.211794 g / cm^3
# Si number density = 22.168395 Si / 1000 Ang^3
#
#
#
# Elastic Constant Matrix: (Units=GPa)
#
#
# Indices 1 2 3 4 5 6 
#
# 1 70.7529 17.4200 15.6687 0.0000 0.0000 0.0000
# 2 17.4200 65.3580 18.6085 0.0000 0.0000 0.0000
# 3 15.6687 18.6085 89.3270 0.0000 0.0000 0.0000
# 4 0.0000 0.0000 0.0000 30.6478 0.0000 0.0000
# 5 0.0000 0.0000 0.0000 0.0000 37.9403 0.0000
# 6 0.0000 0.0000 0.0000 0.0000 0.0000 15.7326
#
#
#
# Elastic Compliance Matrix: (Units=1/GPa)
#
#
# Indices 1 2 3 4 5 6 
#
# 1 0.015445 -0.003556 -0.001968 0.000000 0.000000 0.000000
# 2 -0.003556 0.017084 -0.002935 0.000000 0.000000 0.000000
# 3 -0.001968 -0.002935 0.012152 0.000000 0.000000 0.000000
# 4 0.000000 0.000000 0.000000 0.032629 0.000000 0.000000
# 5 0.000000 0.000000 0.000000 0.000000 0.026357 0.000000
# 6 0.000000 0.000000 0.000000 0.000000 0.000000 0.063562
#
#
# Mechanical properties :
#
#
# Convention : Reuss Voigt Hill
#
# Bulk Modulus (GPa) = 36.02154 36.53695 36.27924
# Shear Modulus (GPa) = 25.85291 28.44686 27.14989
#
# Velocity S-wave (km/s) = 3.41868 3.58609 3.50338
# Velocity P-wave (km/s) = 5.64513 5.80207 5.72414
#
# Compressibility (1/GPa) = 0.02776116
#
# Stress axis : x y z
#
# Youngs Moduli (GPa) = 64.74517 58.53481 82.29419
#
# Poissons Ratio (x) = 0.20816 0.16199
# Poissons Ratio (y) = 0.23025 0.24154
# Poissons Ratio (z) = 0.12744 0.17181
#
# Static dielectric constant tensor:
#      x y z
#    x 1.902250 0.000000 0.000000 
#    y 0.000000 1.780440 0.000000 
#    z 0.000000 0.000000 1.921110 
# 
# From -- ./inp_files/24436.got.cif
#   From: 2010.05.17/outbox.cif.g08.bks.cpg/sg60_13_cif.got.tgz:24436.got - 2010.06.03 14:59:27.
