data_PCOD9456229
_publ_section_title
;
Structure prediction by ZEFSAII (Michael W. Deem and Ramdas Pophale) SiO2 
 PCOD9456229
Probable space group: P B C N
;
_chemical_formula_sum "Si O2"
_cell_formula_units_Z 64
_cell_length_a 14.658503
_cell_length_b 8.843630
_cell_length_c 21.040963
_cell_angle_alpha 90.000000
_cell_angle_beta 90.000000
_cell_angle_gamma 90.000000
_cell_volume 2727.632128
_symmetry_space_group_name_H-M "P B C N"
_symmetry_group_IT_number 60
_symmetry_cell_setting 'orthorhombic'
loop_
_space_group_symop_operation_xyz
x,y,z
1/2-x,1/2-y,1/2+z
1/2+x,1/2-y,-z
-x,y,1/2-z
-x,-y,-z
1/2+x,1/2+y,1/2-z
1/2-x,1/2+y,z
x,-y,1/2+z
loop_
_atom_site_type_symbol
_atom_site_label
_atom_site_fract_x
_atom_site_fract_y
_atom_site_fract_z
Si Si1 0.218299 0.146790 0.753856
Si Si2 0.546901 0.635926 0.578757
Si Si3 0.923963 0.354477 0.697470
Si Si4 0.211342 0.368253 0.558825
Si Si5 0.304512 0.431715 0.873922
Si Si6 0.408527 0.195469 0.786367
Si Si7 0.641735 0.417146 0.375940
Si Si8 0.161802 0.642093 0.479416
O O1 0.172102 0.306243 0.771412
O O2 0.324321 0.170112 0.736810
O O3 0.155534 0.072751 0.699769
O O4 0.216574 0.051382 0.818564
O O5 0.554622 0.736004 0.642617
O O6 0.629820 0.517629 0.576405
O O7 0.452815 0.548521 0.588348
O O8 0.568435 0.763393 0.526647
O O9 0.929000 0.531876 0.682853
O O10 0.000000 0.328568 0.750000
O O11 0.157480 0.259621 0.606587
O O12 0.280992 0.475305 0.595980
O O13 0.154016 0.482135 0.514663
O O14 0.268232 0.250472 0.516551
O O15 0.365300 0.303986 0.839578
O O16 0.213961 0.382321 0.911681
O O17 0.500000 0.248190 0.750000
#
# Coordination Sequence:
#
# PCOD9456229 Si02
#       8
#     8   8   8   8   8   8   8   8
#     4  11  23  41  67  94 141 177 218 270 349 414
#     4  11  23  40  75  97 130 173 230 282 337 407
#     4  10  21  40  60 100 134 172 211 268 341 411
#     4  10  26  46  67  91 136 178 229 280 337 397
#     4  11  24  41  69 104 132 181 215 286 339 396
#     4  11  25  36  60 101 140 172 221 266 331 411
#     4  11  26  45  69 100 131 183 221 278 351 408
#     4  11  22  48  68  96 131 176 232 285 330 391
#
# _framework density 23.463576
#
# number of rings (size 3 to 8) (size 9 to 14) (size 15 to 20)
#    0.000    1.250    2.500    3.000    7.000    1.000 
#    0.000    1.250    0.000    0.000    0.000    0.000 
#    0.000    0.000    0.000    0.000    0.000    0.000 
#
# Total GULP energy -357738.096024 kJ/mol
# GULP energy per Si atom -5589.657750 kJ/mol
# Density = 2.341017 g / cm^3
# Si number density = 23.463576 Si / 1000 Ang^3
#
#
#
# Elastic Constant Matrix: (Units=GPa)
#
#
# Indices 1 2 3 4 5 6 
#
# 1 83.4830 -2.5379 -8.9482 0.0000 0.0000 0.0000
# 2 -2.5379 78.5569 9.3428 0.0000 0.0000 0.0000
# 3 -8.9482 9.3428 44.3843 0.0000 0.0000 0.0000
# 4 0.0000 0.0000 0.0000 29.9322 0.0000 0.0000
# 5 0.0000 0.0000 0.0000 0.0000 8.0585 0.0000
# 6 0.0000 0.0000 0.0000 0.0000 0.0000 35.8751
#
#
#
# Elastic Compliance Matrix: (Units=1/GPa)
#
#
# Indices 1 2 3 4 5 6 
#
# 1 0.012244 0.000105 0.002446 0.000000 0.000000 0.000000
# 2 0.000105 0.013057 -0.002727 0.000000 0.000000 0.000000
# 3 0.002446 -0.002727 0.023598 0.000000 0.000000 0.000000
# 4 0.000000 0.000000 0.000000 0.033409 0.000000 0.000000
# 5 0.000000 0.000000 0.000000 0.000000 0.124092 0.000000
# 6 0.000000 0.000000 0.000000 0.000000 0.000000 0.027874
#
#
# Mechanical properties :
#
#
# Convention : Reuss Voigt Hill
#
# Bulk Modulus (GPa) = 20.59891 22.45973 21.52932
# Shear Modulus (GPa) = 19.93543 28.67765 24.30654
#
# Velocity S-wave (km/s) = 2.91801 3.49982 3.22207
# Velocity P-wave (km/s) = 4.48901 5.09162 4.79978
#
# Compressibility (1/GPa) = 0.04854625
#
# Stress axis : x y z
#
# Youngs Moduli (GPa) = 81.67336 76.58497 42.37675
#
# Poissons Ratio (x) = -0.00801 -0.10367
# Poissons Ratio (y) = -0.00854 0.11558
# Poissons Ratio (z) = -0.19981 0.20888
#
# Static dielectric constant tensor:
#      x y z
#    x 1.948070 0.000000 0.000000 
#    y 0.000000 1.876010 0.000000 
#    z 0.000000 0.000000 1.919360 
# 
# From -- ./inp_files/24456.got.cif
#   From: 2010.05.17/outbox.cif.g08.bks.cpg/sg60_13_cif.got.tgz:24456.got - 2010.06.03 14:59:27.
