data_PCOD9456796
_publ_section_title
;
Structure prediction by ZEFSAII (Michael W. Deem and Ramdas Pophale) SiO2 
 PCOD9456796
Probable space group: P B C N
;
_chemical_formula_sum "Si O2"
_cell_formula_units_Z 56
_cell_length_a 13.626202
_cell_length_b 8.963513
_cell_length_c 21.465812
_cell_angle_alpha 90.000000
_cell_angle_beta 90.000000
_cell_angle_gamma 90.000000
_cell_volume 2621.805058
_symmetry_space_group_name_H-M "P B C N"
_symmetry_group_IT_number 60
_symmetry_cell_setting 'orthorhombic'
loop_
_space_group_symop_operation_xyz
x,y,z
1/2-x,1/2-y,1/2+z
1/2+x,1/2-y,-z
-x,y,1/2-z
-x,-y,-z
1/2+x,1/2+y,1/2-z
1/2-x,1/2+y,z
x,-y,1/2+z
loop_
_atom_site_type_symbol
_atom_site_label
_atom_site_fract_x
_atom_site_fract_y
_atom_site_fract_z
Si Si1 0.262696 0.613117 0.018499
Si Si2 0.077342 0.911115 0.078990
Si Si3 0.863451 0.400965 0.431373
Si Si4 0.595830 0.873170 0.831335
Si Si5 0.865098 0.608739 0.189155
Si Si6 0.452384 0.313538 0.936899
Si Si7 0.760277 0.343192 0.117345
O O1 0.329385 0.514945 0.064015
O O2 0.154126 0.542377 0.023077
O O3 0.287036 0.777590 0.042657
O O4 0.288864 0.597763 0.946417
O O5 0.098419 0.780655 0.128614
O O6 0.051887 0.844767 0.010967
O O7 0.994189 0.034717 0.094999
O O8 0.854411 0.486602 0.366011
O O9 0.966533 0.316618 0.430146
O O10 0.641661 0.863241 0.762938
O O11 0.480153 0.908094 0.825395
O O12 0.806777 0.467432 0.161862
O O13 0.819620 0.748212 0.153358
O O14 0.349780 0.260093 0.908164
#
# Coordination Sequence:
#
# PCOD9456796 Si02
#       7
#     8   8   8   8   8   8   8
#     4  11  24  39  67 111 138 173 228 285 361 413
#     4  10  23  40  69 102 143 170 228 288 349 425
#     4  11  22  41  68  99 142 177 222 291 346 417
#     4  11  25  48  66  98 137 190 238 281 343 410
#     4  11  28  44  70  94 140 188 241 281 331 414
#     4  10  22  39  69 107 136 178 215 289 368 403
#     4  12  24  45  69 103 139 183 232 287 342 426
#
# _framework density 21.359328999999999
#
# number of rings (size 3 to 8) (size 9 to 14) (size 15 to 20)
#    0.000    1.143    1.429    4.286   10.000    3.429 
#    0.000    1.429    0.000    0.000    0.000    0.000 
#    0.000    0.000    0.000    0.000    0.000    0.000 
#
# Total GULP energy -312705.044944 kJ/mol
# GULP energy per Si atom -5584.018660 kJ/mol
# Density = 2.131071 g / cm^3
# Si number density = 21.359329 Si / 1000 Ang^3
#
#
#
# Elastic Constant Matrix: (Units=GPa)
#
#
# Indices 1 2 3 4 5 6 
#
# 1 59.6837 23.4290 22.9263 0.0000 0.0000 0.0000
# 2 23.4290 100.0550 51.9333 0.0000 0.0000 0.0000
# 3 22.9263 51.9333 140.3177 0.0000 0.0000 0.0000
# 4 0.0000 0.0000 0.0000 29.3735 0.0000 0.0000
# 5 0.0000 0.0000 0.0000 0.0000 32.7959 0.0000
# 6 0.0000 0.0000 0.0000 0.0000 0.0000 55.6607
#
#
#
# Elastic Compliance Matrix: (Units=1/GPa)
#
#
# Indices 1 2 3 4 5 6 
#
# 1 0.018806 -0.003477 -0.001786 0.000000 0.000000 0.000000
# 2 -0.003477 0.013014 -0.004249 0.000000 0.000000 0.000000
# 3 -0.001786 -0.004249 0.008991 0.000000 0.000000 0.000000
# 4 0.000000 0.000000 0.000000 0.034044 0.000000 0.000000
# 5 0.000000 0.000000 0.000000 0.000000 0.030492 0.000000
# 6 0.000000 0.000000 0.000000 0.000000 0.000000 0.017966
#
#
# Mechanical properties :
#
#
# Convention : Reuss Voigt Hill
#
# Bulk Modulus (GPa) = 45.89603 55.18151 50.53877
# Shear Modulus (GPa) = 33.42308 37.01721 35.22014
#
# Velocity S-wave (km/s) = 3.96005 4.16753 4.06511
# Velocity P-wave (km/s) = 6.51487 7.00348 6.76359
#
# Compressibility (1/GPa) = 0.02178838
#
# Stress axis : x y z
#
# Youngs Moduli (GPa) = 53.17517 76.84161 111.22341
#
# Poissons Ratio (x) = 0.26715 0.19863
# Poissons Ratio (y) = 0.18487 0.47254
# Poissons Ratio (z) = 0.09497 0.32646
#
# Static dielectric constant tensor:
#      x y z
#    x 1.866050 0.000000 0.000000 
#    y 0.000000 1.797210 0.000000 
#    z 0.000000 0.000000 1.774010 
# 
# From -- ./inp_files/22899.got.cif
#   From: 2010.05.17/outbox.cif.g08.bks.cpg/sg60_12_cif.got.tgz:22899.got - 2010.06.03 14:59:27.
