data_PCOD9456701
_publ_section_title
;
Structure prediction by ZEFSAII (Michael W. Deem and Ramdas Pophale) SiO2 
 PCOD9456701
Probable space group: P B C N
;
_chemical_formula_sum "Si O2"
_cell_formula_units_Z 56
_cell_length_a 13.900138
_cell_length_b 16.404092
_cell_length_c 12.324966
_cell_angle_alpha 90.000000
_cell_angle_beta 90.000000
_cell_angle_gamma 90.000000
_cell_volume 2810.328179
_symmetry_space_group_name_H-M "P B C N"
_symmetry_group_IT_number 60
_symmetry_cell_setting 'orthorhombic'
loop_
_space_group_symop_operation_xyz
x,y,z
1/2-x,1/2-y,1/2+z
1/2+x,1/2-y,-z
-x,y,1/2-z
-x,-y,-z
1/2+x,1/2+y,1/2-z
1/2-x,1/2+y,z
x,-y,1/2+z
loop_
_atom_site_type_symbol
_atom_site_label
_atom_site_fract_x
_atom_site_fract_y
_atom_site_fract_z
Si Si1 0.806744 0.055647 0.813865
Si Si2 0.908839 0.404893 0.385432
Si Si3 0.453226 0.413081 0.997616
Si Si4 0.000000 0.458372 0.750000
Si Si5 0.000000 0.735919 0.750000
Si Si6 0.651611 0.144785 0.126230
Si Si7 0.359396 0.381289 0.777844
Si Si8 0.082065 0.175794 0.840466
O O1 0.694000 0.078474 0.824213
O O2 0.860717 0.086275 0.922919
O O3 0.851690 0.105037 0.711776
O O4 0.835880 0.959829 0.797975
O O5 0.880096 0.389836 0.509640
O O6 0.970349 0.483856 0.350559
O O7 0.974330 0.328456 0.346015
O O8 0.528529 0.351673 0.050773
O O9 0.500000 0.500000 0.000000
O O10 0.434193 0.402109 0.871988
O O11 0.912574 0.401608 0.714834
O O12 0.906281 0.795563 0.758977
O O13 0.761042 0.130870 0.157169
O O14 0.635247 0.240946 0.135457
O O15 0.000000 0.190325 0.750000
#
# Coordination Sequence:
#
# PCOD9456701 Si02
#       8
#     8   8   8   4   4   8   8   8
#     4  11  22  40  64  96 131 171 215 269 331 394
#     4  11  24  45  65  91 136 171 217 273 333 402
#     4  11  21  38  64  96 126 169 215 264 326 391
#     4  11  24  44  69  90 126 174 221 268 336 391
#     4  11  26  44  65 100 136 178 215 278 336 389
#     4  12  23  43  67  97 125 169 223 271 324 398
#     4  12  23  41  68  95 132 170 219 268 326 391
#     4  10  22  38  64  90 128 167 210 271 327 381
#
# _framework density 19.926497999999999
#
# number of rings (size 3 to 8) (size 9 to 14) (size 15 to 20)
#    0.000    0.857    5.000    3.000    1.000    0.000 
#    0.000    0.000    3.143    0.000    0.000    0.000 
#    0.000    0.000    0.000    0.000    0.000    0.000 
#
# Total GULP energy -312202.978918 kJ/mol
# GULP energy per Si atom -5575.053195 kJ/mol
# Density = 1.988114 g / cm^3
# Si number density = 19.926498 Si / 1000 Ang^3
#
#
#
# Elastic Constant Matrix: (Units=GPa)
#
#
# Indices 1 2 3 4 5 6 
#
# 1 39.3906 5.2968 -11.5192 0.0000 0.0000 0.0000
# 2 5.2968 88.3243 6.1806 0.0000 0.0000 0.0000
# 3 -11.5192 6.1806 35.8007 0.0000 0.0000 0.0000
# 4 0.0000 0.0000 0.0000 18.0514 0.0000 0.0000
# 5 0.0000 0.0000 0.0000 0.0000 28.2892 0.0000
# 6 0.0000 0.0000 0.0000 0.0000 0.0000 -17.4649
#
#
#
# Elastic Compliance Matrix: (Units=1/GPa)
#
#
# Indices 1 2 3 4 5 6 
#
# 1 0.028510 -0.002380 0.009584 0.000000 0.000000 0.000000
# 2 -0.002380 0.011659 -0.002779 0.000000 0.000000 0.000000
# 3 0.009584 -0.002779 0.031496 0.000000 0.000000 0.000000
# 4 0.000000 0.000000 0.000000 0.055397 0.000000 0.000000
# 5 0.000000 0.000000 0.000000 0.000000 0.035349 0.000000
# 6 0.000000 0.000000 0.000000 0.000000 0.000000 -0.057258
#
#
# Mechanical properties :
#
#
# Convention : Reuss Voigt Hill
#
# Bulk Modulus (GPa) = 12.42009 18.15911 15.28960
# Shear Modulus (GPa) = 40.60363 16.67897 28.64130
#
# Velocity S-wave (km/s) = 4.51895 2.89628 3.79535
# Velocity P-wave (km/s) = 5.78571 4.50748 5.18613
#
# Compressibility (1/GPa) = 0.08051471
#
# Stress axis : x y z
#
# Youngs Moduli (GPa) = 35.07593 85.76984 31.75017
#
# Poissons Ratio (x) = 0.20416 -0.30430
# Poissons Ratio (y) = 0.08349 0.08822
# Poissons Ratio (z) = -0.33617 0.23833
#
# Static dielectric constant tensor:
#      x y z
#    x 1.740490 0.000000 0.000000 
#    y 0.000000 1.771710 0.000000 
#    z 0.000000 0.000000 1.684740 
# 
# From -- ./inp_files/11991.got.cif
#   From: 2010.05.17/outbox.cif.g08.bks.cpg/sg60_6_cif.got.tgz:11991.got - 2010.06.03 14:59:27.
