data_PCOD9456794
_publ_section_title
;
Structure prediction by ZEFSAII (Michael W. Deem and Ramdas Pophale) SiO2 
 PCOD9456794
Probable space group: P B C N
;
_chemical_formula_sum "Si O2"
_cell_formula_units_Z 60
_cell_length_a 9.473151
_cell_length_b 8.374812
_cell_length_c 30.958966
_cell_angle_alpha 90.000000
_cell_angle_beta 90.000000
_cell_angle_gamma 90.000000
_cell_volume 2456.156151
_symmetry_space_group_name_H-M "P B C N"
_symmetry_group_IT_number 60
_symmetry_cell_setting 'orthorhombic'
loop_
_space_group_symop_operation_xyz
x,y,z
1/2-x,1/2-y,1/2+z
1/2+x,1/2-y,-z
-x,y,1/2-z
-x,-y,-z
1/2+x,1/2+y,1/2-z
1/2-x,1/2+y,z
x,-y,1/2+z
loop_
_atom_site_type_symbol
_atom_site_label
_atom_site_fract_x
_atom_site_fract_y
_atom_site_fract_z
Si Si1 0.889542 0.135015 0.985549
Si Si2 0.048924 0.465204 0.201641
Si Si3 0.122844 0.730386 0.326453
Si Si4 0.500000 0.419302 0.250000
Si Si5 0.175957 0.869934 0.682128
Si Si6 0.041115 0.046222 0.606903
Si Si7 0.841874 0.440341 0.035422
Si Si8 0.236918 0.838266 0.904518
O O1 0.890812 0.132014 0.934002
O O2 0.924246 0.311550 0.005244
O O3 0.744567 0.056438 0.003570
O O4 0.000000 0.000000 0.000000
O O5 0.164292 0.606797 0.197619
O O6 0.122176 0.310130 0.182739
O O7 0.000000 0.430390 0.250000
O O8 0.916795 0.545395 0.178759
O O9 0.105413 0.814497 0.280190
O O10 0.262879 0.719555 0.355022
O O11 0.023735 0.827247 0.359525
O O12 0.414342 0.529594 0.216940
O O13 0.150321 0.942848 0.634917
O O14 0.912247 0.930748 0.591515
O O15 0.868273 0.555388 0.077099
O O16 0.755829 0.309430 0.063204
#
# Coordination Sequence:
#
# PCOD9456794 Si02
#       8
#     8   8   8   4   8   8   8   8
#     4  11  21  42  67  96 142 179 229 284 354 407
#     4  12  27  48  71 101 142 184 236 293 353 423
#     4  11  24  43  69 102 138 183 239 298 347 426
#     4  10  22  46  68 102 142 186 228 290 362 412
#     4  11  26  46  71 102 142 182 241 288 355 428
#     4  11  24  43  71  99 144 191 229 305 352 420
#     4  10  22  39  68  99 133 184 226 285 338 434
#     4  11  21  43  67 104 139 176 248 286 355 416
#
# _framework density 24.428412999999999
#
# number of rings (size 3 to 8) (size 9 to 14) (size 15 to 20)
#    0.000    1.067    5.333    1.600    1.867    5.333 
#    0.000    7.333    0.000    0.000    0.000    0.000 
#    0.000    0.000    0.000    0.000    0.000    0.000 
#
# Total GULP energy -334740.202669 kJ/mol
# GULP energy per Si atom -5579.003378 kJ/mol
# Density = 2.437281 g / cm^3
# Si number density = 24.428413 Si / 1000 Ang^3
#
#
#
# Elastic Constant Matrix: (Units=GPa)
#
#
# Indices 1 2 3 4 5 6 
#
# 1 29.3813 -4.5268 3.7503 0.0000 0.0000 0.0000
# 2 -4.5268 84.1159 21.1113 0.0000 0.0000 0.0000
# 3 3.7503 21.1113 126.4246 0.0000 0.0000 0.0000
# 4 0.0000 0.0000 0.0000 26.7659 0.0000 0.0000
# 5 0.0000 0.0000 0.0000 0.0000 37.4175 0.0000
# 6 0.0000 0.0000 0.0000 0.0000 0.0000 28.9527
#
#
#
# Elastic Compliance Matrix: (Units=1/GPa)
#
#
# Indices 1 2 3 4 5 6 
#
# 1 0.034554 0.002209 -0.001394 0.000000 0.000000 0.000000
# 2 0.002209 0.012550 -0.002161 0.000000 0.000000 0.000000
# 3 -0.001394 -0.002161 0.008312 0.000000 0.000000 0.000000
# 4 0.000000 0.000000 0.000000 0.037361 0.000000 0.000000
# 5 0.000000 0.000000 0.000000 0.000000 0.026725 0.000000
# 6 0.000000 0.000000 0.000000 0.000000 0.000000 0.034539
#
#
# Mechanical properties :
#
#
# Convention : Reuss Voigt Hill
#
# Bulk Modulus (GPa) = 18.96676 31.17684 25.07180
# Shear Modulus (GPa) = 28.68505 33.26636 30.97571
#
# Velocity S-wave (km/s) = 3.43045 3.69425 3.56479
# Velocity P-wave (km/s) = 4.84476 5.56658 5.21817
#
# Compressibility (1/GPa) = 0.05272381
#
# Stress axis : x y z
#
# Youngs Moduli (GPa) = 28.94059 79.68339 120.30668
#
# Poissons Ratio (x) = -0.17605 0.16770
# Poissons Ratio (y) = -0.06394 0.26000
# Poissons Ratio (z) = 0.04034 0.17221
#
# Static dielectric constant tensor:
#      x y z
#    x 2.090560 0.000000 0.000000 
#    y 0.000000 1.984360 0.000000 
#    z 0.000000 0.000000 1.978020 
# 
# From -- ./inp_files/26078.got.cif
#   From: 2010.05.17/outbox.cif.g08.bks.cpg/sg60_14_cif.got.tgz:26078.got - 2010.06.03 14:59:27.
