data_PCOD9456149
_publ_section_title
;
Structure prediction by ZEFSAII (Michael W. Deem and Ramdas Pophale) SiO2 
 PCOD9456149
Probable space group: P B C N
;
_chemical_formula_sum "Si O2"
_cell_formula_units_Z 48
_cell_length_a 17.715125
_cell_length_b 8.564513
_cell_length_c 13.980304
_cell_angle_alpha 90.000000
_cell_angle_beta 90.000000
_cell_angle_gamma 90.000000
_cell_volume 2121.111552
_symmetry_space_group_name_H-M "P B C N"
_symmetry_group_IT_number 60
_symmetry_cell_setting 'orthorhombic'
loop_
_space_group_symop_operation_xyz
x,y,z
1/2-x,1/2-y,1/2+z
1/2+x,1/2-y,-z
-x,y,1/2-z
-x,-y,-z
1/2+x,1/2+y,1/2-z
1/2-x,1/2+y,z
x,-y,1/2+z
loop_
_atom_site_type_symbol
_atom_site_label
_atom_site_fract_x
_atom_site_fract_y
_atom_site_fract_z
Si Si1 0.720187 0.735713 0.401249
Si Si2 0.000000 0.118105 0.750000
Si Si3 0.633620 0.625890 0.216402
Si Si4 0.413757 0.058142 0.568370
Si Si5 0.000000 0.364351 0.250000
Si Si6 0.022321 0.760989 0.040733
Si Si7 0.338200 0.568322 0.496737
O O1 0.695123 0.669548 0.297453
O O2 0.670798 0.893919 0.411795
O O3 0.801162 0.802058 0.432326
O O4 0.693222 0.599238 0.472588
O O5 0.996308 0.211234 0.848813
O O6 0.922014 0.016928 0.745914
O O7 0.569468 0.760774 0.209851
O O8 0.674482 0.598967 0.115566
O O9 0.461329 0.043760 0.665203
O O10 0.447725 0.209616 0.515004
O O11 0.427737 0.894817 0.518077
O O12 0.071802 0.907500 0.007335
#
# Coordination Sequence:
#
# PCOD9456149 Si02
#       7
#     8   4   8   8   4   8   8
#     4  11  25  43  64  92 136 174 223 275 336 406
#     4  11  21  40  68 104 130 174 222 288 336 406
#     4  10  22  39  67  95 127 172 221 274 338 397
#     4  10  21  39  63 100 129 168 210 279 330 396
#     4   9  17  36  64  92 126 160 210 268 328 380
#     4  11  22  38  66  97 133 164 222 271 336 395
#     4  12  24  44  65  94 130 182 224 276 335 412
#
# _framework density 22.629645
#
# number of rings (size 3 to 8) (size 9 to 14) (size 15 to 20)
#    0.000    1.333    3.333    2.500    0.000    2.667 
#    3.000    0.000    0.000    0.000    0.000    0.000 
#    0.000    0.000    0.000    0.000    0.000    0.000 
#
# Total GULP energy -267884.097249 kJ/mol
# GULP energy per Si atom -5580.918693 kJ/mol
# Density = 2.257814 g / cm^3
# Si number density = 22.629645 Si / 1000 Ang^3
#
#
#
# Elastic Constant Matrix: (Units=GPa)
#
#
# Indices 1 2 3 4 5 6 
#
# 1 86.8698 18.7533 25.4911 0.0000 0.0000 0.0000
# 2 18.7533 64.0365 -8.3355 0.0000 0.0000 0.0000
# 3 25.4911 -8.3355 97.5597 0.0000 0.0000 0.0000
# 4 0.0000 0.0000 0.0000 27.9787 0.0000 0.0000
# 5 0.0000 0.0000 0.0000 0.0000 25.4117 0.0000
# 6 0.0000 0.0000 0.0000 0.0000 0.0000 26.3437
#
#
#
# Elastic Compliance Matrix: (Units=1/GPa)
#
#
# Indices 1 2 3 4 5 6 
#
# 1 0.013644 -0.004510 -0.003950 0.000000 0.000000 0.000000
# 2 -0.004510 0.017282 0.002655 0.000000 0.000000 0.000000
# 3 -0.003950 0.002655 0.011509 0.000000 0.000000 0.000000
# 4 0.000000 0.000000 0.000000 0.035741 0.000000 0.000000
# 5 0.000000 0.000000 0.000000 0.000000 0.039352 0.000000
# 6 0.000000 0.000000 0.000000 0.000000 0.000000 0.037960
#
#
# Mechanical properties :
#
#
# Convention : Reuss Voigt Hill
#
# Bulk Modulus (GPa) = 32.44105 35.58709 34.01407
# Shear Modulus (GPa) = 28.18887 30.11729 29.15308
#
# Velocity S-wave (km/s) = 3.53322 3.65208 3.59314
# Velocity P-wave (km/s) = 5.56881 5.79168 5.68134
#
# Compressibility (1/GPa) = 0.03082514
#
# Stress axis : x y z
#
# Youngs Moduli (GPa) = 73.29066 57.86211 86.88725
#
# Poissons Ratio (x) = 0.26096 0.34324
# Poissons Ratio (y) = 0.33054 -0.23069
# Poissons Ratio (z) = 0.28953 -0.15363
#
# Static dielectric constant tensor:
#      x y z
#    x 1.862910 0.000000 0.000000 
#    y 0.000000 1.859160 0.000000 
#    z 0.000000 0.000000 1.831090 
# 
# From -- ./inp_files/17379.got.cif
#   From: 2010.05.17/outbox.cif.g08.bks.cpg/sg60_9_cif.got.tgz:17379.got - 2010.06.03 14:59:27.
