data_PCOD9456153
_publ_section_title
;
Structure prediction by ZEFSAII (Michael W. Deem and Ramdas Pophale) SiO2 
 PCOD9456153
Probable space group: P B C N
;
_chemical_formula_sum "Si O2"
_cell_formula_units_Z 64
_cell_length_a 24.218199
_cell_length_b 7.787722
_cell_length_c 14.158048
_cell_angle_alpha 90.000000
_cell_angle_beta 90.000000
_cell_angle_gamma 90.000000
_cell_volume 2670.272996
_symmetry_space_group_name_H-M "P B C N"
_symmetry_group_IT_number 60
_symmetry_cell_setting 'orthorhombic'
loop_
_space_group_symop_operation_xyz
x,y,z
1/2-x,1/2-y,1/2+z
1/2+x,1/2-y,-z
-x,y,1/2-z
-x,-y,-z
1/2+x,1/2+y,1/2-z
1/2-x,1/2+y,z
x,-y,1/2+z
loop_
_atom_site_type_symbol
_atom_site_label
_atom_site_fract_x
_atom_site_fract_y
_atom_site_fract_z
Si Si1 0.319255 0.447290 0.010218
Si Si2 0.513759 0.443858 0.353247
Si Si3 0.203077 0.659608 0.453425
Si Si4 0.963044 0.659938 0.029914
Si Si5 0.094964 0.149719 0.372337
Si Si6 0.367826 0.909580 0.116463
Si Si7 0.882102 0.460973 0.688090
Si Si8 0.138571 0.956941 0.690226
O O1 0.314869 0.647145 0.979599
O O2 0.268349 0.353401 0.961590
O O3 0.376940 0.375751 0.972293
O O4 0.320422 0.437050 0.124057
O O5 0.500000 0.363219 0.250000
O O6 0.501047 0.318573 0.440262
O O7 0.468306 0.595255 0.361461
O O8 0.576321 0.507065 0.346582
O O9 0.176452 0.540486 0.536759
O O10 0.176508 0.596248 0.355720
O O11 0.926472 0.640024 0.125056
O O12 0.919473 0.660087 0.944416
O O13 0.000000 0.500000 0.000000
O O14 0.103051 0.343729 0.339893
O O15 0.131284 0.027983 0.301928
O O16 0.383234 0.045329 0.198033
O O17 0.345958 0.741623 0.171073
#
# Coordination Sequence:
#
# PCOD9456153 Si02
#       8
#     8   8   8   8   8   8   8   8
#     4  11  22  40  65  86 126 153 204 257 306 367
#     4  10  22  40  60  89 129 165 210 247 301 367
#     4  10  22  42  61  93 117 161 200 255 312 367
#     4  11  25  37  56  93 123 165 204 244 302 357
#     4  10  21  39  63  91 118 165 206 250 307 361
#     4   9  21  41  62  85 124 157 204 251 304 359
#     4  10  22  41  62  88 125 158 203 254 305 364
#     4   9  21  39  64  90 119 163 205 252 301 367
#
# _framework density 23.967586000000001
#
# number of rings (size 3 to 8) (size 9 to 14) (size 15 to 20)
#    0.000    2.000    0.000    3.000    5.250    2.000 
#    0.000    2.500    0.000    0.000    0.000    0.000 
#    0.000    0.000    0.000    0.000    0.000    0.000 
#
# Total GULP energy -357512.133820 kJ/mol
# GULP energy per Si atom -5586.127091 kJ/mol
# Density = 2.391303 g / cm^3
# Si number density = 23.967586 Si / 1000 Ang^3
#
#
#
# Elastic Constant Matrix: (Units=GPa)
#
#
# Indices 1 2 3 4 5 6 
#
# 1 69.3821 6.5832 4.6887 0.0000 0.0000 0.0000
# 2 6.5832 43.6382 4.6673 0.0000 0.0000 0.0000
# 3 4.6887 4.6673 121.6100 0.0000 0.0000 0.0000
# 4 0.0000 0.0000 0.0000 28.5585 0.0000 0.0000
# 5 0.0000 0.0000 0.0000 0.0000 26.5647 0.0000
# 6 0.0000 0.0000 0.0000 0.0000 0.0000 24.7983
#
#
#
# Elastic Compliance Matrix: (Units=1/GPa)
#
#
# Indices 1 2 3 4 5 6 
#
# 1 0.014650 -0.002159 -0.000482 0.000000 0.000000 0.000000
# 2 -0.002159 0.023328 -0.000812 0.000000 0.000000 0.000000
# 3 -0.000482 -0.000812 0.008273 0.000000 0.000000 0.000000
# 4 0.000000 0.000000 0.000000 0.035016 0.000000 0.000000
# 5 0.000000 0.000000 0.000000 0.000000 0.037644 0.000000
# 6 0.000000 0.000000 0.000000 0.000000 0.000000 0.040325
#
#
# Mechanical properties :
#
#
# Convention : Reuss Voigt Hill
#
# Bulk Modulus (GPa) = 25.41559 29.61208 27.51384
# Shear Modulus (GPa) = 27.89290 30.56371 29.22831
#
# Velocity S-wave (km/s) = 3.41512 3.57488 3.49591
# Velocity P-wave (km/s) = 5.11643 5.42417 5.27254
#
# Compressibility (1/GPa) = 0.03934593
#
# Stress axis : x y z
#
# Youngs Moduli (GPa) = 68.25786 42.86658 120.87865
#
# Poissons Ratio (x) = 0.09253 0.05826
# Poissons Ratio (y) = 0.14734 0.09817
# Poissons Ratio (z) = 0.03290 0.03481
#
# Static dielectric constant tensor:
#      x y z
#    x 1.891800 0.000000 0.000000 
#    y 0.000000 1.947730 0.000000 
#    z 0.000000 0.000000 1.981790 
# 
# From -- ./inp_files/17932.got.cif
#   From: 2010.05.17/outbox.cif.g08.bks.cpg/sg60_9_cif.got.tgz:17932.got - 2010.06.03 14:59:27.
