data_PCOD9456548
_publ_section_title
;
Structure prediction by ZEFSAII (Michael W. Deem and Ramdas Pophale) SiO2 
 PCOD9456548
Probable space group: P B C N
;
_chemical_formula_sum "Si O2"
_cell_formula_units_Z 56
_cell_length_a 12.443564
_cell_length_b 15.040559
_cell_length_c 11.473094
_cell_angle_alpha 90.000000
_cell_angle_beta 90.000000
_cell_angle_gamma 90.000000
_cell_volume 2147.283145
_symmetry_space_group_name_H-M "P B C N"
_symmetry_group_IT_number 60
_symmetry_cell_setting 'orthorhombic'
loop_
_space_group_symop_operation_xyz
x,y,z
1/2-x,1/2-y,1/2+z
1/2+x,1/2-y,-z
-x,y,1/2-z
-x,-y,-z
1/2+x,1/2+y,1/2-z
1/2-x,1/2+y,z
x,-y,1/2+z
loop_
_atom_site_type_symbol
_atom_site_label
_atom_site_fract_x
_atom_site_fract_y
_atom_site_fract_z
Si Si1 0.435174 0.649306 0.980645
Si Si2 0.598140 0.852561 0.542902
Si Si3 0.927360 0.646902 0.655557
Si Si4 0.155013 0.464446 0.749704
Si Si5 0.885884 0.990277 0.222158
Si Si6 0.209523 0.337937 0.561382
Si Si7 0.332475 0.354160 0.069622
O O1 0.407161 0.572915 0.888491
O O2 0.560869 0.640528 0.011582
O O3 0.422693 0.748819 0.930622
O O4 0.337170 0.647216 0.070855
O O5 0.512399 0.877683 0.444607
O O6 0.587418 0.908178 0.658992
O O7 0.717237 0.865461 0.489770
O O8 0.881446 0.565009 0.730045
O O9 0.827348 0.676612 0.573691
O O10 0.000000 0.701387 0.750000
O O11 0.278328 0.454934 0.793182
O O12 0.155840 0.422600 0.621776
O O13 0.855256 0.925441 0.330377
O O14 0.174756 0.246039 0.621232
O O15 0.500000 0.534687 0.250000
#
# Coordination Sequence:
#
# PCOD9456548 Si02
#       7
#     8   8   8   8   8   8   8
#     4  10  21  44  69  97 135 180 236 285 335 416
#     4  11  25  43  68 104 135 184 229 282 349 413
#     4  12  27  43  69 100 139 176 227 282 347 417
#     4  12  27  43  69 102 144 180 227 287 349 425
#     4  10  22  40  69  97 136 185 228 282 343 408
#     4  11  25  45  68 101 135 181 233 281 353 408
#     4  10  22  44  68  98 136 179 232 287 339 409
#
# _framework density 26.079466
#
# number of rings (size 3 to 8) (size 9 to 14) (size 15 to 20)
#    0.000    1.143    2.857    2.143    6.000    1.143 
#    2.571    2.857    0.000    0.000    0.000    0.000 
#    0.000    0.000    0.000    0.000    0.000    0.000 
#
# Total GULP energy -313334.043569 kJ/mol
# GULP energy per Si atom -5595.250778 kJ/mol
# Density = 2.602011 g / cm^3
# Si number density = 26.079466 Si / 1000 Ang^3
#
#
#
# Elastic Constant Matrix: (Units=GPa)
#
#
# Indices 1 2 3 4 5 6 
#
# 1 219.5292 -8.5679 26.3731 0.0000 0.0000 0.0000
# 2 -8.5679 34.7645 15.2951 0.0000 0.0000 0.0000
# 3 26.3731 15.2951 47.4662 0.0000 0.0000 0.0000
# 4 0.0000 0.0000 0.0000 835.0845 0.0000 0.0000
# 5 0.0000 0.0000 0.0000 0.0000 31.0002 0.0000
# 6 0.0000 0.0000 0.0000 0.0000 0.0000 17.0275
#
#
#
# Elastic Compliance Matrix: (Units=1/GPa)
#
#
# Indices 1 2 3 4 5 6 
#
# 1 0.005125 0.002932 -0.003792 0.000000 0.000000 0.000000
# 2 0.002932 0.035194 -0.012969 0.000000 0.000000 0.000000
# 3 -0.003792 -0.012969 0.027354 0.000000 0.000000 0.000000
# 4 0.000000 0.000000 0.000000 0.001197 0.000000 0.000000
# 5 0.000000 0.000000 0.000000 0.000000 0.032258 0.000000
# 6 0.000000 0.000000 0.000000 0.000000 0.000000 0.058728
#
#
# Mechanical properties :
#
#
# Convention : Reuss Voigt Hill
#
# Bulk Modulus (GPa) = 24.99219 40.88449 32.93834
# Shear Modulus (GPa) = 24.89370 194.53308 109.71339
#
# Velocity S-wave (km/s) = 3.09290 8.64606 6.49309
# Velocity P-wave (km/s) = 4.72849 10.74167 8.29886
#
# Compressibility (1/GPa) = 0.04001251
#
# Stress axis : x y z
#
# Youngs Moduli (GPa) = 195.11396 28.41430 36.55789
#
# Poissons Ratio (x) = -0.08330 0.13864
# Poissons Ratio (y) = -0.57200 0.47413
# Poissons Ratio (z) = 0.73994 0.36852
#
# Static dielectric constant tensor:
#      x y z
#    x 2.106370 0.000000 0.000000 
#    y 0.000000 2.044550 0.000000 
#    z 0.000000 0.000000 2.027700 
# 
# From -- ./inp_files/11956.got.cif
#   From: 2010.05.17/outbox.cif.g08.bks.cpg/sg60_6_cif.got.tgz:11956.got - 2010.06.03 14:59:27.
