data_PCOD9456334
_publ_section_title
;
Structure prediction by ZEFSAII (Michael W. Deem and Ramdas Pophale) SiO2 
 PCOD9456334
Probable space group: P B C N
;
_chemical_formula_sum "Si O2"
_cell_formula_units_Z 44
_cell_length_a 14.060715
_cell_length_b 26.181964
_cell_length_c 5.037976
_cell_angle_alpha 90.000000
_cell_angle_beta 90.000000
_cell_angle_gamma 90.000000
_cell_volume 1854.666046
_symmetry_space_group_name_H-M "P B C N"
_symmetry_group_IT_number 60
_symmetry_cell_setting 'orthorhombic'
loop_
_space_group_symop_operation_xyz
x,y,z
1/2-x,1/2-y,1/2+z
1/2+x,1/2-y,-z
-x,y,1/2-z
-x,-y,-z
1/2+x,1/2+y,1/2-z
1/2-x,1/2+y,z
x,-y,1/2+z
loop_
_atom_site_type_symbol
_atom_site_label
_atom_site_fract_x
_atom_site_fract_y
_atom_site_fract_z
Si Si1 0.111760 0.037781 0.521896
Si Si2 0.000000 0.638749 0.750000
Si Si3 0.306538 0.970144 0.848450
Si Si4 0.685434 0.313850 0.936769
Si Si5 0.000000 0.123934 0.250000
Si Si6 0.190718 0.691075 0.561438
Si Si7 0.500000 0.922313 0.750000
O O1 0.217445 0.060374 0.463743
O O2 0.041968 0.084418 0.466890
O O3 0.102855 0.006787 0.795621
O O4 0.911409 0.668396 0.872931
O O5 0.958853 0.608404 0.498215
O O6 0.413087 0.951814 0.885272
O O7 0.296567 0.980019 0.536335
O O8 0.586971 0.342200 0.865392
O O9 0.767394 0.324897 0.721310
O O10 0.675253 0.252290 0.926278
O O11 0.729811 0.324826 0.223534
#
# Coordination Sequence:
#
# PCOD9456334 Si02
#       7
#     8   4   8   8   4   8   4
#     4  10  24  42  63  92 134 172 209 273 332 375
#     4  12  25  37  66  94 138 158 208 259 343 372
#     4  10  21  41  62  87 125 170 212 267 323 376
#     4  10  24  43  70  95 129 171 221 260 317 384
#     4  12  25  42  72 100 128 174 232 264 311 408
#     4  10  23  46  64  96 135 170 204 270 330 384
#     4  12  24  37  64 102 118 172 216 273 304 410
#
# _framework density 23.723949000000001
#
# number of rings (size 3 to 8) (size 9 to 14) (size 15 to 20)
#    0.000    1.455    0.000    3.818    5.091    3.636 
#    0.000    5.455    0.000    0.000    0.000    0.000 
#    0.000    0.000    0.000    0.000    0.000    0.000 
#
# Total GULP energy -245983.795889 kJ/mol
# GULP energy per Si atom -5590.540816 kJ/mol
# Density = 2.366995 g / cm^3
# Si number density = 23.723949 Si / 1000 Ang^3
#
#
#
# Elastic Constant Matrix: (Units=GPa)
#
#
# Indices 1 2 3 4 5 6 
#
# 1 141.4082 38.9755 -0.7230 0.0000 0.0000 0.0000
# 2 38.9755 70.9691 21.0260 0.0000 0.0000 0.0000
# 3 -0.7230 21.0260 110.0132 0.0000 0.0000 0.0000
# 4 0.0000 0.0000 0.0000 2.5310 0.0000 0.0000
# 5 0.0000 0.0000 0.0000 0.0000 28.1725 0.0000
# 6 0.0000 0.0000 0.0000 0.0000 0.0000 39.2806
#
#
#
# Elastic Compliance Matrix: (Units=1/GPa)
#
#
# Indices 1 2 3 4 5 6 
#
# 1 0.008435 -0.004928 0.000997 0.000000 0.000000 0.000000
# 2 -0.004928 0.017815 -0.003437 0.000000 0.000000 0.000000
# 3 0.000997 -0.003437 0.009753 0.000000 0.000000 0.000000
# 4 0.000000 0.000000 0.000000 0.395095 0.000000 0.000000
# 5 0.000000 0.000000 0.000000 0.000000 0.035496 0.000000
# 6 0.000000 0.000000 0.000000 0.000000 0.000000 0.025458
#
#
# Mechanical properties :
#
#
# Convention : Reuss Voigt Hill
#
# Bulk Modulus (GPa) = 47.01931 48.99417 48.00674
# Shear Modulus (GPa) = 9.72994 31.53762 20.63378
#
# Velocity S-wave (km/s) = 2.02737 3.64999 2.95234
# Velocity P-wave (km/s) = 5.03415 6.20160 5.64812
#
# Compressibility (1/GPa) = 0.02126786
#
# Stress axis : x y z
#
# Youngs Moduli (GPa) = 118.55250 56.13129 102.52916
#
# Poissons Ratio (x) = 0.27661 -0.10225
# Poissons Ratio (y) = 0.58422 0.35242
# Poissons Ratio (z) = -0.11823 0.19294
#
# Static dielectric constant tensor:
#      x y z
#    x 2.047610 0.000000 0.000000 
#    y 0.000000 1.935040 0.000000 
#    z 0.000000 0.000000 1.843670 
# 
# From -- ./inp_files/1307.got.cif
#   From: 2010.05.17/outbox.cif.g08.bks.cpg/sg60_1_cif.got.tgz:1307.got - 2010.06.03 14:59:27.
