data_PCOD9456615
_publ_section_title
;
Structure prediction by ZEFSAII (Michael W. Deem and Ramdas Pophale) SiO2 
 PCOD9456615
Probable space group: P B C N
;
_chemical_formula_sum "Si O2"
_cell_formula_units_Z 28
_cell_length_a 12.412842
_cell_length_b 14.243239
_cell_length_c 7.349723
_cell_angle_alpha 90.000000
_cell_angle_beta 90.000000
_cell_angle_gamma 90.000000
_cell_volume 1299.424230
_symmetry_space_group_name_H-M "P B C N"
_symmetry_group_IT_number 60
_symmetry_cell_setting 'orthorhombic'
loop_
_space_group_symop_operation_xyz
x,y,z
1/2-x,1/2-y,1/2+z
1/2+x,1/2-y,-z
-x,y,1/2-z
-x,-y,-z
1/2+x,1/2+y,1/2-z
1/2-x,1/2+y,z
x,-y,1/2+z
loop_
_atom_site_type_symbol
_atom_site_label
_atom_site_fract_x
_atom_site_fract_y
_atom_site_fract_z
Si Si1 0.215404 0.549218 0.258344
Si Si2 0.000000 0.574369 0.750000
Si Si3 0.781385 0.865719 0.362668
Si Si4 0.637936 0.191901 0.531403
O O1 0.226443 0.601080 0.448937
O O2 0.304056 0.466688 0.231040
O O3 0.103697 0.491508 0.245658
O O4 0.207244 0.623894 0.097985
O O5 0.025005 0.642395 0.920435
O O6 0.869652 0.791658 0.432442
O O7 0.703079 0.809745 0.223098
#
# Coordination Sequence:
#
# PCOD9456615 Si02
#       4
#     8   4   8   8
#     4  11  21  36  58  88 117 153 188 248 289 352
#     4  10  22  36  60  90 124 142 196 250 306 328
#     4  11  21  35  56  85 117 154 196 235 297 350
#     4  11  22  35  56  88 120 153 192 243 293 354
#
# _framework density 21.548005
#
# number of rings (size 3 to 8) (size 9 to 14) (size 15 to 20)
#    0.000    1.143    8.571    0.857    4.000    0.000 
#    0.000    0.000    0.000    1.714    0.000    0.000 
#    0.000    0.000    0.000    0.000    0.000    0.000 
#
# Total GULP energy -155971.663771 kJ/mol
# GULP energy per Si atom -5570.416563 kJ/mol
# Density = 2.149896 g / cm^3
# Si number density = 21.548005 Si / 1000 Ang^3
#
#
#
# Elastic Constant Matrix: (Units=GPa)
#
#
# Indices 1 2 3 4 5 6 
#
# 1 9.6044 19.2939 4.8817 0.0000 0.0000 0.0000
# 2 19.2939 117.1461 21.4534 0.0000 0.0000 0.0000
# 3 4.8817 21.4534 108.1815 0.0000 0.0000 0.0000
# 4 0.0000 0.0000 0.0000 20.7202 0.0000 0.0000
# 5 0.0000 0.0000 0.0000 0.0000 16.8391 0.0000
# 6 0.0000 0.0000 0.0000 0.0000 0.0000 25.1124
#
#
#
# Elastic Compliance Matrix: (Units=1/GPa)
#
#
# Indices 1 2 3 4 5 6 
#
# 1 0.156025 -0.025328 -0.002018 0.000000 0.000000 0.000000
# 2 -0.025328 0.012969 -0.001429 0.000000 0.000000 0.000000
# 3 -0.002018 -0.001429 0.009618 0.000000 0.000000 0.000000
# 4 0.000000 0.000000 0.000000 0.048262 0.000000 0.000000
# 5 0.000000 0.000000 0.000000 0.000000 0.059386 0.000000
# 6 0.000000 0.000000 0.000000 0.000000 0.000000 0.039821
#
#
# Mechanical properties :
#
#
# Convention : Reuss Voigt Hill
#
# Bulk Modulus (GPa) = 8.26015 36.24332 22.25173
# Shear Modulus (GPa) = 11.79289 25.15456 18.47373
#
# Velocity S-wave (km/s) = 2.34195 3.42039 2.93119
# Velocity P-wave (km/s) = 3.33986 5.69694 4.66957
#
# Compressibility (1/GPa) = 0.12106323
#
# Stress axis : x y z
#
# Youngs Moduli (GPa) = 6.40924 77.10402 103.96981
#
# Poissons Ratio (x) = 1.95286 0.20980
# Poissons Ratio (y) = 0.16233 0.14858
# Poissons Ratio (z) = 0.01293 0.11019
#
# Static dielectric constant tensor:
#      x y z
#    x 1.809640 0.000000 0.000000 
#    y 0.000000 1.869060 0.000000 
#    z 0.000000 0.000000 1.830850 
# 
# From -- ./inp_files/4482.got.cif
#   From: 2010.05.17/outbox.cif.g08.bks.cpg/sg60_3_cif.got.tgz:4482.got - 2010.06.03 14:59:27.
