data_PCOD9456556
_publ_section_title
;
Structure prediction by ZEFSAII (Michael W. Deem and Ramdas Pophale) SiO2 
 PCOD9456556
Probable space group: P B C N
;
_chemical_formula_sum "Si O2"
_cell_formula_units_Z 52
_cell_length_a 7.363691
_cell_length_b 19.568602
_cell_length_c 15.724148
_cell_angle_alpha 90.000000
_cell_angle_beta 90.000000
_cell_angle_gamma 90.000000
_cell_volume 2265.804731
_symmetry_space_group_name_H-M "P B C N"
_symmetry_group_IT_number 60
_symmetry_cell_setting 'orthorhombic'
loop_
_space_group_symop_operation_xyz
x,y,z
1/2-x,1/2-y,1/2+z
1/2+x,1/2-y,-z
-x,y,1/2-z
-x,-y,-z
1/2+x,1/2+y,1/2-z
1/2-x,1/2+y,z
x,-y,1/2+z
loop_
_atom_site_type_symbol
_atom_site_label
_atom_site_fract_x
_atom_site_fract_y
_atom_site_fract_z
Si Si1 0.000000 0.877922 0.250000
Si Si2 0.100168 0.996070 0.639080
Si Si3 0.615982 0.811053 0.459895
Si Si4 0.774684 0.837938 0.996740
Si Si5 0.686972 0.129803 0.300322
Si Si6 0.633925 0.424582 0.518115
Si Si7 0.203540 0.280582 0.228723
O O1 0.845367 0.825902 0.219477
O O2 0.077341 0.931702 0.183420
O O3 0.201515 0.940917 0.696833
O O4 0.914063 0.960816 0.606608
O O5 0.194900 0.018910 0.550487
O O6 0.627455 0.735692 0.499285
O O7 0.407924 0.834424 0.447783
O O8 0.720928 0.802191 0.370350
O O9 0.720963 0.864840 0.518397
O O10 0.692698 0.851638 0.901480
O O11 0.939409 0.890938 0.009239
O O12 0.500000 0.119258 0.250000
O O13 0.769425 0.199393 0.260209
O O14 0.000000 0.298015 0.250000
#
# Coordination Sequence:
#
# PCOD9456556 Si02
#       7
#     4   8   8   8   8   8   8
#     4  12  24  46  68  98 134 184 218 290 342 400
#     4  10  24  42  69  92 138 180 217 278 351 401
#     4  11  21  39  66 101 131 173 231 278 336 400
#     4  10  22  37  68  99 132 177 221 289 337 392
#     4  10  23  46  67 101 139 178 235 280 342 413
#     4  10  21  45  62  97 138 172 223 281 338 412
#     4  11  26  42  68 102 134 179 233 280 340 410
#
# _framework density 22.949902999999999
#
# number of rings (size 3 to 8) (size 9 to 14) (size 15 to 20)
#    0.000    1.538    3.846    0.000    3.231    3.077 
#    0.000    8.462    0.000    0.000    0.000    0.000 
#    0.000    0.000    0.000    0.000    0.000    0.000 
#
# Total GULP energy -290208.045159 kJ/mol
# GULP energy per Si atom -5580.923945 kJ/mol
# Density = 2.289767 g / cm^3
# Si number density = 22.949903 Si / 1000 Ang^3
#
#
#
# Elastic Constant Matrix: (Units=GPa)
#
#
# Indices 1 2 3 4 5 6 
#
# 1 116.5503 54.0902 9.3374 0.0000 0.0000 0.0000
# 2 54.0902 170.7576 17.7083 0.0000 0.0000 0.0000
# 3 9.3374 17.7083 30.8396 0.0000 0.0000 0.0000
# 4 0.0000 0.0000 0.0000 -130.5448 0.0000 0.0000
# 5 0.0000 0.0000 0.0000 0.0000 35.7019 0.0000
# 6 0.0000 0.0000 0.0000 0.0000 0.0000 28.6398
#
#
#
# Elastic Compliance Matrix: (Units=1/GPa)
#
#
# Indices 1 2 3 4 5 6 
#
# 1 0.010107 -0.003067 -0.001299 0.000000 0.000000 0.000000
# 2 -0.003067 0.007158 -0.003181 0.000000 0.000000 0.000000
# 3 -0.001299 -0.003181 0.034646 0.000000 0.000000 0.000000
# 4 0.000000 0.000000 0.000000 -0.007660 0.000000 0.000000
# 5 0.000000 0.000000 0.000000 0.000000 0.028010 0.000000
# 6 0.000000 0.000000 0.000000 0.000000 0.000000 0.034916
#
#
# Mechanical properties :
#
#
# Convention : Reuss Voigt Hill
#
# Bulk Modulus (GPa) = 27.16209 53.37992 40.27100
# Shear Modulus (GPa) = 37.16250 2.56015 19.86132
#
# Velocity S-wave (km/s) = 4.02840 1.05734 2.94500
# Velocity P-wave (km/s) = 5.78778 4.98000 5.39902
#
# Compressibility (1/GPa) = 0.03681602
#
# Stress axis : x y z
#
# Youngs Moduli (GPa) = 98.93716 139.70992 28.86333
#
# Poissons Ratio (x) = 0.42848 0.03750
# Poissons Ratio (y) = 0.30344 0.09183
# Poissons Ratio (z) = 0.12854 0.44447
#
# Static dielectric constant tensor:
#      x y z
#    x 1.844880 0.000000 0.000000 
#    y 0.000000 1.848680 0.000000 
#    z 0.000000 0.000000 2.156480 
# 
# From -- ./inp_files/21660.got.cif
#   From: 2010.05.17/outbox.cif.g08.bks.cpg/sg60_11_cif.got.tgz:21660.got - 2010.06.03 14:59:27.
