data_PCOD9456844
_publ_section_title
;
Structure prediction by ZEFSAII (Michael W. Deem and Ramdas Pophale) SiO2 
 PCOD9456844
Probable space group: P B C N
;
_chemical_formula_sum "Si O2"
_cell_formula_units_Z 32
_cell_length_a 16.057916
_cell_length_b 9.484972
_cell_length_c 8.668852
_cell_angle_alpha 90.000000
_cell_angle_beta 90.000000
_cell_angle_gamma 90.000000
_cell_volume 1320.343171
_symmetry_space_group_name_H-M "P B C N"
_symmetry_group_IT_number 60
_symmetry_cell_setting 'orthorhombic'
loop_
_space_group_symop_operation_xyz
x,y,z
1/2-x,1/2-y,1/2+z
1/2+x,1/2-y,-z
-x,y,1/2-z
-x,-y,-z
1/2+x,1/2+y,1/2-z
1/2-x,1/2+y,z
x,-y,1/2+z
loop_
_atom_site_type_symbol
_atom_site_label
_atom_site_fract_x
_atom_site_fract_y
_atom_site_fract_z
Si Si1 0.252831 0.179078 0.871613
Si Si2 0.425231 0.693248 0.478015
Si Si3 0.000000 0.035897 0.750000
Si Si4 0.500000 0.000000 0.500000
Si Si5 0.688393 0.085608 0.961771
O O1 0.332940 0.262137 0.935450
O O2 0.273330 0.143304 0.696084
O O3 0.179742 0.286667 0.914985
O O4 0.252639 0.034886 0.967004
O O5 0.451600 0.567639 0.364510
O O6 0.439493 0.633632 0.649261
O O7 0.481304 0.833058 0.459097
O O8 0.402551 0.017839 0.562427
#
# Coordination Sequence:
#
# PCOD9456844 Si02
#       5
#     8   8   4   4   8
#     4  11  25  45  70 102 141 190 249 314 384 466
#     4  10  23  41  66  97 136 185 241 306 377 455
#     4  10  22  40  64  98 138 182 238 304 378 454
#     4  10  24  46  72 102 144 198 254 312 384 470
#     4  11  25  45  72 105 146 195 254 317 388 466
#
# _framework density 24.236122999999999
#
# number of rings (size 3 to 8) (size 9 to 14) (size 15 to 20)
#    0.000    1.500    0.000    3.000    0.000   22.000 
#    0.000    0.000    0.000    0.000    0.000    0.000 
#    0.000    0.000    0.000    0.000    0.000    0.000 
#
# Total GULP energy -178184.440854 kJ/mol
# GULP energy per Si atom -5568.263777 kJ/mol
# Density = 2.418096 g / cm^3
# Si number density = 24.236123 Si / 1000 Ang^3
#
#
#
# Elastic Constant Matrix: (Units=GPa)
#
#
# Indices 1 2 3 4 5 6 
#
# 1 36.0227 -3.0103 8.3402 0.0000 0.0000 0.0000
# 2 -3.0103 100.9771 25.2658 0.0000 0.0000 0.0000
# 3 8.3402 25.2658 122.9652 0.0000 0.0000 0.0000
# 4 0.0000 0.0000 0.0000 20.8549 0.0000 0.0000
# 5 0.0000 0.0000 0.0000 0.0000 20.9544 0.0000
# 6 0.0000 0.0000 0.0000 0.0000 0.0000 38.5878
#
#
#
# Elastic Compliance Matrix: (Units=1/GPa)
#
#
# Indices 1 2 3 4 5 6 
#
# 1 0.028390 0.001400 -0.002213 0.000000 0.000000 0.000000
# 2 0.001400 0.010509 -0.002254 0.000000 0.000000 0.000000
# 3 -0.002213 -0.002254 0.008746 0.000000 0.000000 0.000000
# 4 0.000000 0.000000 0.000000 0.047950 0.000000 0.000000
# 5 0.000000 0.000000 0.000000 0.000000 0.047723 0.000000
# 6 0.000000 0.000000 0.000000 0.000000 0.000000 0.025915
#
#
# Mechanical properties :
#
#
# Convention : Reuss Voigt Hill
#
# Bulk Modulus (GPa) = 24.09079 35.68405 29.88742
# Shear Modulus (GPa) = 26.42656 31.37072 28.89864
#
# Velocity S-wave (km/s) = 3.30567 3.60165 3.45683
# Velocity P-wave (km/s) = 4.95293 5.66139 5.31897
#
# Compressibility (1/GPa) = 0.04150964
#
# Stress axis : x y z
#
# Youngs Moduli (GPa) = 35.22408 95.15631 114.34215
#
# Poissons Ratio (x) = -0.13323 0.25307
# Poissons Ratio (y) = -0.04932 0.25776
# Poissons Ratio (z) = 0.07796 0.21451
#
# Static dielectric constant tensor:
#      x y z
#    x 1.926350 0.000000 0.000000 
#    y 0.000000 1.932420 0.000000 
#    z 0.000000 0.000000 1.968870 
# 
# From -- ./inp_files/7148.got.cif
#   From: 2010.05.17/outbox.cif.g08.bks.cpg/sg60_4_cif.got.tgz:7148.got - 2010.06.03 14:59:27.
