data_PCOD9456602
_publ_section_title
;
Structure prediction by ZEFSAII (Michael W. Deem and Ramdas Pophale) SiO2 
 PCOD9456602
Probable space group: P B C N
;
_chemical_formula_sum "Si O2"
_cell_formula_units_Z 64
_cell_length_a 23.610535
_cell_length_b 5.435205
_cell_length_c 18.539855
_cell_angle_alpha 90.000000
_cell_angle_beta 90.000000
_cell_angle_gamma 90.000000
_cell_volume 2379.184327
_symmetry_space_group_name_H-M "P B C N"
_symmetry_group_IT_number 60
_symmetry_cell_setting 'orthorhombic'
loop_
_space_group_symop_operation_xyz
x,y,z
1/2-x,1/2-y,1/2+z
1/2+x,1/2-y,-z
-x,y,1/2-z
-x,-y,-z
1/2+x,1/2+y,1/2-z
1/2-x,1/2+y,z
x,-y,1/2+z
loop_
_atom_site_type_symbol
_atom_site_label
_atom_site_fract_x
_atom_site_fract_y
_atom_site_fract_z
Si Si1 0.396993 0.726935 0.528444
Si Si2 0.361802 0.719402 0.769238
Si Si3 0.780134 0.033698 0.119410
Si Si4 0.505066 0.368978 0.076501
Si Si5 0.552057 0.668502 0.297975
Si Si6 0.162802 0.535854 0.643835
Si Si7 0.613095 0.035808 0.096904
Si Si8 0.818336 0.817641 0.980793
O O1 0.453519 0.821053 0.566768
O O2 0.378503 0.447387 0.538402
O O3 0.351124 0.874625 0.573548
O O4 0.400547 0.784901 0.443809
O O5 0.331230 0.540315 0.826955
O O6 0.415126 0.567190 0.738373
O O7 0.376789 0.954202 0.819098
O O8 0.323158 0.836895 0.705946
O O9 0.737354 0.810566 0.136846
O O10 0.787371 0.020239 0.031403
O O11 0.484614 0.553659 0.137195
O O12 0.561701 0.224088 0.088181
O O13 0.500000 0.500000 0.000000
O O14 0.500000 0.780646 0.250000
O O15 0.605308 0.834554 0.324724
O O16 0.201825 0.732474 0.598828
O O17 0.664698 0.136948 0.047520
#
# Coordination Sequence:
#
# PCOD9456602 Si02
#       8
#     8   8   8   8   8   8   8   8
#     4  11  21  39  64  95 138 183 245 296 354 429
#     4  11  25  45  72 101 151 195 246 310 387 462
#     4  11  29  53  83 116 144 188 256 328 401 479
#     4  12  20  37  58  95 138 194 247 295 342 430
#     4  12  25  42  64 103 158 206 253 303 372 462
#     4  11  23  41  68 102 141 199 238 302 373 448
#     4  10  22  35  62  97 131 191 243 292 359 425
#     4  10  22  44  71 100 140 182 237 311 385 450
#
# _framework density 26.899972999999999
#
# number of rings (size 3 to 8) (size 9 to 14) (size 15 to 20)
#    0.000    1.000    5.000    1.125    7.000    3.500 
#    0.000    1.250    0.000    0.000    0.000    0.000 
#    0.000    0.000    0.000    0.000    0.000    0.000 
#
# Total GULP energy -357033.938636 kJ/mol
# GULP energy per Si atom -5578.655291 kJ/mol
# Density = 2.683875 g / cm^3
# Si number density = 26.899973 Si / 1000 Ang^3
#
#
#
# Elastic Constant Matrix: (Units=GPa)
#
#
# Indices 1 2 3 4 5 6 
#
# 1 62.9733 13.9912 21.3778 0.0000 0.0000 0.0000
# 2 13.9912 74.7098 34.6846 0.0000 0.0000 0.0000
# 3 21.3778 34.6846 166.1812 0.0000 0.0000 0.0000
# 4 0.0000 0.0000 0.0000 45.4367 0.0000 0.0000
# 5 0.0000 0.0000 0.0000 0.0000 39.2760 0.0000
# 6 0.0000 0.0000 0.0000 0.0000 0.0000 42.4914
#
#
#
# Elastic Compliance Matrix: (Units=1/GPa)
#
#
# Indices 1 2 3 4 5 6 
#
# 1 0.016984 -0.002399 -0.001684 0.000000 0.000000 0.000000
# 2 -0.002399 0.015160 -0.002856 0.000000 0.000000 0.000000
# 3 -0.001684 -0.002856 0.006830 0.000000 0.000000 0.000000
# 4 0.000000 0.000000 0.000000 0.022009 0.000000 0.000000
# 5 0.000000 0.000000 0.000000 0.000000 0.025461 0.000000
# 6 0.000000 0.000000 0.000000 0.000000 0.000000 0.023534
#
#
# Mechanical properties :
#
#
# Convention : Reuss Voigt Hill
#
# Bulk Modulus (GPa) = 39.84462 49.33016 44.58739
# Shear Modulus (GPa) = 37.81535 41.02821 39.42178
#
# Velocity S-wave (km/s) = 3.75344 3.90964 3.83233
# Velocity P-wave (km/s) = 5.79902 6.22563 6.01611
#
# Compressibility (1/GPa) = 0.02509749
#
# Stress axis : x y z
#
# Youngs Moduli (GPa) = 58.87734 65.96272 146.40887
#
# Poissons Ratio (x) = 0.15823 0.24659
# Poissons Ratio (y) = 0.14124 0.41808
# Poissons Ratio (z) = 0.09916 0.18836
#
# Static dielectric constant tensor:
#      x y z
#    x 2.429130 0.000000 0.000000 
#    y 0.000000 2.399690 0.000000 
#    z 0.000000 0.000000 2.093350 
# 
# From -- ./inp_files/21303.got.cif
#   From: 2010.05.17/outbox.cif.g08.bks.cpg/sg60_11_cif.got.tgz:21303.got - 2010.06.03 14:59:27.
