data_PCOD9456857
_publ_section_title
;
Structure prediction by ZEFSAII (Michael W. Deem and Ramdas Pophale) SiO2 
 PCOD9456857
Probable space group: P B C N
;
_chemical_formula_sum "Si O2"
_cell_formula_units_Z 64
_cell_length_a 15.928791
_cell_length_b 14.312238
_cell_length_c 12.923446
_cell_angle_alpha 90.000000
_cell_angle_beta 90.000000
_cell_angle_gamma 90.000000
_cell_volume 2946.243898
_symmetry_space_group_name_H-M "P B C N"
_symmetry_group_IT_number 60
_symmetry_cell_setting 'orthorhombic'
loop_
_space_group_symop_operation_xyz
x,y,z
1/2-x,1/2-y,1/2+z
1/2+x,1/2-y,-z
-x,y,1/2-z
-x,-y,-z
1/2+x,1/2+y,1/2-z
1/2-x,1/2+y,z
x,-y,1/2+z
loop_
_atom_site_type_symbol
_atom_site_label
_atom_site_fract_x
_atom_site_fract_y
_atom_site_fract_z
Si Si1 0.188017 0.929092 0.881114
Si Si2 0.179756 0.636938 0.098576
Si Si3 0.355660 0.392425 0.500969
Si Si4 0.412848 0.474463 0.693028
Si Si5 0.540359 0.085324 0.564277
Si Si6 0.378940 0.062588 0.311280
Si Si7 0.547223 0.774900 0.555482
Si Si8 0.874712 0.833786 0.411506
O O1 0.288580 0.932726 0.869250
O O2 0.145187 0.913713 0.770063
O O3 0.158058 0.862423 0.974173
O O4 0.153038 0.030931 0.912970
O O5 0.270324 0.603221 0.065514
O O6 0.140404 0.579101 0.192035
O O7 0.179456 0.746242 0.128029
O O8 0.119815 0.623431 0.999978
O O9 0.426349 0.421103 0.584139
O O10 0.373224 0.290913 0.457591
O O11 0.500000 0.490958 0.750000
O O12 0.373035 0.573834 0.658922
O O13 0.474931 0.169836 0.550917
O O14 0.500000 0.000000 0.500000
O O15 0.575460 0.035587 0.665998
O O16 0.434842 0.146777 0.358147
O O17 0.469335 0.707697 0.584179
#
# Coordination Sequence:
#
# PCOD9456857 Si02
#       8
#     8   8   8   8   8   8   8   8
#     4  11  22  41  65  92 131 166 207 267 331 378
#     4  11  22  40  67  93 125 163 220 263 311 392
#     4  11  22  40  64  93 128 170 206 266 322 383
#     4  11  23  39  64  90 129 164 211 256 323 391
#     4   9  21  41  65  89 128 164 209 269 317 372
#     4  11  22  40  69  93 125 168 217 267 323 385
#     4  10  22  40  66  90 130 170 211 268 319 379
#     4  10  24  40  62  96 122 164 215 263 312 388
#
# _framework density 21.722574999999999
#
# number of rings (size 3 to 8) (size 9 to 14) (size 15 to 20)
#    0.000    1.500    2.500    2.250    3.500    6.000 
#    0.000    0.000   24.750    0.000    0.000    0.000 
#    0.000    0.000    0.000    0.000    0.000    0.000 
#
# Total GULP energy -357509.694103 kJ/mol
# GULP energy per Si atom -5586.088970 kJ/mol
# Density = 2.167313 g / cm^3
# Si number density = 21.722575 Si / 1000 Ang^3
#
#
#
# Elastic Constant Matrix: (Units=GPa)
#
#
# Indices 1 2 3 4 5 6 
#
# 1 54.0847 -3.1270 5.4039 0.0000 0.0000 0.0000
# 2 -3.1270 52.6171 -5.7387 0.0000 0.0000 0.0000
# 3 5.4039 -5.7387 52.2176 0.0000 0.0000 0.0000
# 4 0.0000 0.0000 0.0000 22.9281 0.0000 0.0000
# 5 0.0000 0.0000 0.0000 0.0000 33.4022 0.0000
# 6 0.0000 0.0000 0.0000 0.0000 0.0000 29.5440
#
#
#
# Elastic Compliance Matrix: (Units=1/GPa)
#
#
# Indices 1 2 3 4 5 6 
#
# 1 0.018726 0.000912 -0.001838 0.000000 0.000000 0.000000
# 2 0.000912 0.019280 0.002024 0.000000 0.000000 0.000000
# 3 -0.001838 0.002024 0.019563 0.000000 0.000000 0.000000
# 4 0.000000 0.000000 0.000000 0.043615 0.000000 0.000000
# 5 0.000000 0.000000 0.000000 0.000000 0.029938 0.000000
# 6 0.000000 0.000000 0.000000 0.000000 0.000000 0.033848
#
#
# Mechanical properties :
#
#
# Convention : Reuss Voigt Hill
#
# Bulk Modulus (GPa) = 16.73136 16.88842 16.80989
# Shear Modulus (GPa) = 27.36815 28.00028 27.68422
#
# Velocity S-wave (km/s) = 3.55335 3.59415 3.57381
# Velocity P-wave (km/s) = 4.95521 5.00154 4.97843
#
# Compressibility (1/GPa) = 0.05976800
#
# Stress axis : x y z
#
# Youngs Moduli (GPa) = 53.40204 51.86653 51.11616
#
# Poissons Ratio (x) = -0.04732 0.09393
# Poissons Ratio (y) = -0.04873 -0.10348
# Poissons Ratio (z) = 0.09813 -0.10500
#
# Static dielectric constant tensor:
#      x y z
#    x 1.852160 0.000000 0.000000 
#    y 0.000000 1.783750 0.000000 
#    z 0.000000 0.000000 1.809400 
# 
# From -- ./inp_files/12551.got.cif
#   From: 2010.05.17/outbox.cif.g08.bks.cpg/sg60_7_cif.got.tgz:12551.got - 2010.06.03 14:59:27.
