data_PCOD9456383
_publ_section_title
;
Structure prediction by ZEFSAII (Michael W. Deem and Ramdas Pophale) SiO2 
 PCOD9456383
Probable space group: P B C N
;
_chemical_formula_sum "Si O2"
_cell_formula_units_Z 60
_cell_length_a 11.572680
_cell_length_b 17.169131
_cell_length_c 13.586267
_cell_angle_alpha 90.000000
_cell_angle_beta 90.000000
_cell_angle_gamma 90.000000
_cell_volume 2699.494233
_symmetry_space_group_name_H-M "P B C N"
_symmetry_group_IT_number 60
_symmetry_cell_setting 'orthorhombic'
loop_
_space_group_symop_operation_xyz
x,y,z
1/2-x,1/2-y,1/2+z
1/2+x,1/2-y,-z
-x,y,1/2-z
-x,-y,-z
1/2+x,1/2+y,1/2-z
1/2-x,1/2+y,z
x,-y,1/2+z
loop_
_atom_site_type_symbol
_atom_site_label
_atom_site_fract_x
_atom_site_fract_y
_atom_site_fract_z
Si Si1 0.895781 0.497499 0.922500
Si Si2 0.000000 0.605970 0.250000
Si Si3 0.815592 0.995680 0.046921
Si Si4 0.459392 0.156886 0.643493
Si Si5 0.335463 0.680325 0.135196
Si Si6 0.269589 0.140575 0.339277
Si Si7 0.358403 0.757858 0.490980
Si Si8 0.496453 0.384591 0.473004
O O1 0.879832 0.588840 0.898808
O O2 0.933013 0.448160 0.828243
O O3 0.780844 0.465872 0.972297
O O4 0.000000 0.500000 0.000000
O O5 0.903798 0.652864 0.188203
O O6 0.748902 0.053248 0.120186
O O7 0.894411 0.925694 0.089390
O O8 0.903327 0.052571 0.988905
O O9 0.500000 0.128689 0.750000
O O10 0.391524 0.236253 0.658385
O O11 0.564706 0.180886 0.571180
O O12 0.299692 0.644789 0.237966
O O13 0.227610 0.700831 0.065558
O O14 0.431615 0.631353 0.076896
O O15 0.216296 0.203250 0.415759
O O16 0.444545 0.698234 0.548438
#
# Coordination Sequence:
#
# PCOD9456383 Si02
#       8
#     8   4   8   8   8   8   8   8
#     4  12  25  43  66  96 133 180 223 286 339 402
#     4  12  26  38  64 100 132 178 230 282 342 408
#     4  10  21  41  66  94 135 171 224 278 340 403
#     4  11  22  42  64  93 129 175 227 269 335 413
#     4  11  23  39  69  96 137 179 226 275 343 412
#     4  11  23  41  63  97 134 178 232 280 336 409
#     4  10  23  40  66  97 135 178 221 282 339 413
#     4   9  21  40  67  97 129 176 218 279 342 400
#
# _framework density 22.226386000000002
#
# number of rings (size 3 to 8) (size 9 to 14) (size 15 to 20)
#    0.000    1.333    3.333    2.400    3.733    1.067 
#    0.000    0.000    0.000    4.800    0.000    0.000 
#    0.000    0.000    0.000    0.000    0.000    0.000 
#
# Total GULP energy -335475.325907 kJ/mol
# GULP energy per Si atom -5591.255432 kJ/mol
# Density = 2.217580 g / cm^3
# Si number density = 22.226386 Si / 1000 Ang^3
#
#
#
# Elastic Constant Matrix: (Units=GPa)
#
#
# Indices 1 2 3 4 5 6 
#
# 1 112.7510 28.8661 21.5618 0.0000 0.0000 0.0000
# 2 28.8661 73.9119 19.7604 0.0000 0.0000 0.0000
# 3 21.5618 19.7604 70.9398 0.0000 0.0000 0.0000
# 4 0.0000 0.0000 0.0000 -1.6979 0.0000 0.0000
# 5 0.0000 0.0000 0.0000 0.0000 22.0285 0.0000
# 6 0.0000 0.0000 0.0000 0.0000 0.0000 34.5195
#
#
#
# Elastic Compliance Matrix: (Units=1/GPa)
#
#
# Indices 1 2 3 4 5 6 
#
# 1 0.010146 -0.003391 -0.002139 0.000000 0.000000 0.000000
# 2 -0.003391 0.015751 -0.003357 0.000000 0.000000 0.000000
# 3 -0.002139 -0.003357 0.015682 0.000000 0.000000 0.000000
# 4 0.000000 0.000000 0.000000 -0.588958 0.000000 0.000000
# 5 0.000000 0.000000 0.000000 0.000000 0.045396 0.000000
# 6 0.000000 0.000000 0.000000 0.000000 0.000000 0.028969
#
#
# Mechanical properties :
#
#
# Convention : Reuss Voigt Hill
#
# Bulk Modulus (GPa) = 42.00745 44.21992 43.11369
# Shear Modulus (GPa) = -11.17806 23.46433 6.14314
#
# Velocity S-wave (km/s) = -2.24502 3.25267 1.66430
# Velocity P-wave (km/s) = 3.49581 5.83480 4.80966
#
# Compressibility (1/GPa) = 0.02380530
#
# Stress axis : x y z
#
# Youngs Moduli (GPa) = 98.55822 63.48676 63.76809
#
# Poissons Ratio (x) = 0.21526 0.13643
# Poissons Ratio (y) = 0.33417 0.21407
# Poissons Ratio (z) = 0.21086 0.21312
#
# Static dielectric constant tensor:
#      x y z
#    x 1.847620 0.000000 0.000000 
#    y 0.000000 1.843900 0.000000 
#    z 0.000000 0.000000 2.023970 
# 
# From -- ./inp_files/16343.got.cif
#   From: 2010.05.17/outbox.cif.g08.bks.cpg/sg60_9_cif.got.tgz:16343.got - 2010.06.03 14:59:27.
