data_PCOD9456463
_publ_section_title
;
Structure prediction by ZEFSAII (Michael W. Deem and Ramdas Pophale) SiO2 
 PCOD9456463
Probable space group: P B C N
;
_chemical_formula_sum "Si O2"
_cell_formula_units_Z 52
_cell_length_a 9.045032
_cell_length_b 26.803630
_cell_length_c 10.093158
_cell_angle_alpha 90.000000
_cell_angle_beta 90.000000
_cell_angle_gamma 90.000000
_cell_volume 2446.982107
_symmetry_space_group_name_H-M "P B C N"
_symmetry_group_IT_number 60
_symmetry_cell_setting 'orthorhombic'
loop_
_space_group_symop_operation_xyz
x,y,z
1/2-x,1/2-y,1/2+z
1/2+x,1/2-y,-z
-x,y,1/2-z
-x,-y,-z
1/2+x,1/2+y,1/2-z
1/2-x,1/2+y,z
x,-y,1/2+z
loop_
_atom_site_type_symbol
_atom_site_label
_atom_site_fract_x
_atom_site_fract_y
_atom_site_fract_z
Si Si1 0.000000 0.290166 0.250000
Si Si2 0.903359 0.866577 0.880170
Si Si3 0.106238 0.784113 0.979193
Si Si4 0.197773 0.458394 0.612268
Si Si5 0.889635 0.309987 0.863658
Si Si6 0.129060 0.344287 0.034551
Si Si7 0.842616 0.450344 0.575172
O O1 0.058942 0.252241 0.360945
O O2 0.122628 0.326934 0.186460
O O3 0.814592 0.915403 0.928454
O O4 0.773496 0.828546 0.838428
O O5 0.000000 0.878609 0.750000
O O6 0.004464 0.833344 0.977920
O O7 0.100575 0.748480 0.106815
O O8 0.274200 0.801819 0.963994
O O9 0.209323 0.460092 0.773525
O O10 0.219870 0.508295 0.525850
O O11 0.022617 0.449322 0.583997
O O12 0.000000 0.326269 0.750000
O O13 0.959368 0.339014 0.989009
O O14 0.193188 0.396560 0.987561
#
# Coordination Sequence:
#
# PCOD9456463 Si02
#       7
#     4   8   8   8   8   8   8
#     4  10  24  42  64 104 140 180 232 290 350 418
#     4  12  23  40  66  94 135 179 231 291 354 421
#     4  11  24  40  61  97 136 180 222 283 346 416
#     4  10  22  41  67  99 132 179 236 295 355 422
#     4  11  22  38  62  94 130 179 230 274 336 421
#     4  11  23  41  69  94 136 176 233 285 348 423
#     4  10  21  42  68 101 131 177 236 296 351 421
#
# _framework density 21.250665000000001
#
# number of rings (size 3 to 8) (size 9 to 14) (size 15 to 20)
#    0.000    1.231    2.308    4.615    2.154    2.462 
#    0.000    3.077    0.000    0.000    0.000    0.000 
#    0.000    0.000    0.000    0.000    0.000    0.000 
#
# Total GULP energy -289968.929124 kJ/mol
# GULP energy per Si atom -5576.325560 kJ/mol
# Density = 2.120230 g / cm^3
# Si number density = 21.250665 Si / 1000 Ang^3
#
#
#
# Elastic Constant Matrix: (Units=GPa)
#
#
# Indices 1 2 3 4 5 6 
#
# 1 82.5659 28.8927 18.1129 0.0000 0.0000 0.0000
# 2 28.8927 153.6108 60.0849 0.0000 0.0000 0.0000
# 3 18.1129 60.0849 62.6835 0.0000 0.0000 0.0000
# 4 0.0000 0.0000 0.0000 23.6204 0.0000 0.0000
# 5 0.0000 0.0000 0.0000 0.0000 21.9144 0.0000
# 6 0.0000 0.0000 0.0000 0.0000 0.0000 32.6622
#
#
#
# Elastic Compliance Matrix: (Units=1/GPa)
#
#
# Indices 1 2 3 4 5 6 
#
# 1 0.013167 -0.001581 -0.002289 0.000000 0.000000 0.000000
# 2 -0.001581 0.010605 -0.009708 0.000000 0.000000 0.000000
# 3 -0.002289 -0.009708 0.025920 0.000000 0.000000 0.000000
# 4 0.000000 0.000000 0.000000 0.042336 0.000000 0.000000
# 5 0.000000 0.000000 0.000000 0.000000 0.045632 0.000000
# 6 0.000000 0.000000 0.000000 0.000000 0.000000 0.030616
#
#
# Mechanical properties :
#
#
# Convention : Reuss Voigt Hill
#
# Bulk Modulus (GPa) = 44.37508 57.00457 50.68983
# Shear Modulus (GPa) = 24.63714 28.42404 26.53059
#
# Velocity S-wave (km/s) = 3.40863 3.66123 3.53719
# Velocity P-wave (km/s) = 6.03479 6.68999 6.37082
#
# Compressibility (1/GPa) = 0.02253517
#
# Stress axis : x y z
#
# Youngs Moduli (GPa) = 75.94728 94.29748 38.57974
#
# Poissons Ratio (x) = 0.14911 0.08831
# Poissons Ratio (y) = 0.12009 0.37454
# Poissons Ratio (z) = 0.17385 0.91546
#
# Static dielectric constant tensor:
#      x y z
#    x 1.798610 0.000000 0.000000 
#    y 0.000000 1.792030 0.000000 
#    z 0.000000 0.000000 1.885580 
# 
# From -- ./inp_files/10239.got.cif
#   From: 2010.05.17/outbox.cif.g08.bks.cpg/sg60_6_cif.got.tgz:10239.got - 2010.06.03 14:59:27.
