data_PCOD9456182
_publ_section_title
;
Structure prediction by ZEFSAII (Michael W. Deem and Ramdas Pophale) SiO2 
 PCOD9456182
Probable space group: P B C N
;
_chemical_formula_sum "Si O2"
_cell_formula_units_Z 52
_cell_length_a 7.835896
_cell_length_b 12.512848
_cell_length_c 20.773559
_cell_angle_alpha 90.000000
_cell_angle_beta 90.000000
_cell_angle_gamma 90.000000
_cell_volume 2036.834489
_symmetry_space_group_name_H-M "P B C N"
_symmetry_group_IT_number 60
_symmetry_cell_setting 'orthorhombic'
loop_
_space_group_symop_operation_xyz
x,y,z
1/2-x,1/2-y,1/2+z
1/2+x,1/2-y,-z
-x,y,1/2-z
-x,-y,-z
1/2+x,1/2+y,1/2-z
1/2-x,1/2+y,z
x,-y,1/2+z
loop_
_atom_site_type_symbol
_atom_site_label
_atom_site_fract_x
_atom_site_fract_y
_atom_site_fract_z
Si Si1 0.238566 0.508914 0.543259
Si Si2 0.931163 0.354046 0.664592
Si Si3 0.000000 0.904591 0.750000
Si Si4 0.571630 0.595771 0.573771
Si Si5 0.214145 0.560805 0.802456
Si Si6 0.752876 0.752480 0.787462
Si Si7 0.542667 0.169355 0.032778
O O1 0.390372 0.540456 0.591617
O O2 0.330984 0.479840 0.476290
O O3 0.118315 0.405828 0.552596
O O4 0.120579 0.612621 0.529572
O O5 0.942195 0.481250 0.679220
O O6 0.827783 0.305060 0.723188
O O7 0.100834 0.278445 0.663387
O O8 0.840632 0.345876 0.596212
O O9 0.916249 0.824215 0.801996
O O10 0.862767 0.980939 0.719049
O O11 0.701413 0.613356 0.633453
O O12 0.523817 0.703487 0.533190
O O13 0.195906 0.638554 0.741058
#
# Coordination Sequence:
#
# PCOD9456182 Si02
#       7
#     8   8   4   8   8   8   8
#     4  10  24  40  64  97 130 167 218 259 317 382
#     4  10  21  39  65  89 127 165 208 259 322 379
#     4  10  24  38  60  92 124 160 222 256 304 390
#     4  11  22  41  67  93 127 172 210 266 317 386
#     4  11  22  41  66  93 126 171 205 265 327 369
#     4  10  22  41  61  91 126 168 206 265 312 382
#     4  11  21  41  65  93 131 169 207 267 318 377
#
# _framework density 25.529810999999999
#
# number of rings (size 3 to 8) (size 9 to 14) (size 15 to 20)
#    0.000    1.538    3.077    1.846    2.154    2.462 
#    0.000    1.538    0.000    0.000    0.000    0.000 
#    0.000    0.000    0.000    0.000    0.000    0.000 
#
# Total GULP energy -289884.710399 kJ/mol
# GULP energy per Si atom -5574.705969 kJ/mol
# Density = 2.547170 g / cm^3
# Si number density = 25.529811 Si / 1000 Ang^3
#
#
#
# Elastic Constant Matrix: (Units=GPa)
#
#
# Indices 1 2 3 4 5 6 
#
# 1 60.3590 39.8820 -4.4382 0.0000 0.0000 0.0000
# 2 39.8820 145.5551 -1.9086 0.0000 0.0000 0.0000
# 3 -4.4382 -1.9086 40.3427 0.0000 0.0000 0.0000
# 4 0.0000 0.0000 0.0000 38.9260 0.0000 0.0000
# 5 0.0000 0.0000 0.0000 0.0000 16.7463 0.0000
# 6 0.0000 0.0000 0.0000 0.0000 0.0000 41.2169
#
#
#
# Elastic Compliance Matrix: (Units=1/GPa)
#
#
# Indices 1 2 3 4 5 6 
#
# 1 0.020387 -0.005560 0.001980 0.000000 0.000000 0.000000
# 2 -0.005560 0.008391 -0.000215 0.000000 0.000000 0.000000
# 3 0.001980 -0.000215 0.024995 0.000000 0.000000 0.000000
# 4 0.000000 0.000000 0.000000 0.025690 0.000000 0.000000
# 5 0.000000 0.000000 0.000000 0.000000 0.059715 0.000000
# 6 0.000000 0.000000 0.000000 0.000000 0.000000 0.024262
#
#
# Mechanical properties :
#
#
# Convention : Reuss Voigt Hill
#
# Bulk Modulus (GPa) = 21.65294 34.81413 28.23353
# Shear Modulus (GPa) = 26.82063 33.55928 30.18995
#
# Velocity S-wave (km/s) = 3.24475 3.62956 3.44253
# Velocity P-wave (km/s) = 4.74739 5.58848 5.18502
#
# Compressibility (1/GPa) = 0.04618310
#
# Stress axis : x y z
#
# Youngs Moduli (GPa) = 49.05117 119.17699 40.00757
#
# Poissons Ratio (x) = 0.66263 -0.07921
# Poissons Ratio (y) = 0.27273 0.00859
# Poissons Ratio (z) = -0.09711 0.02559
#
# Static dielectric constant tensor:
#      x y z
#    x 2.262000 0.000000 0.000000 
#    y 0.000000 2.066570 0.000000 
#    z 0.000000 0.000000 2.115160 
# 
# From -- ./inp_files/25186.got.cif
#   From: 2010.05.17/outbox.cif.g08.bks.cpg/sg60_13_cif.got.tgz:25186.got - 2010.06.03 14:59:27.
