data_PCOD9456115
_publ_section_title
;
Structure prediction by ZEFSAII (Michael W. Deem and Ramdas Pophale) SiO2 
 PCOD9456115
Probable space group: P B C N
;
_chemical_formula_sum "Si O2"
_cell_formula_units_Z 60
_cell_length_a 21.427826
_cell_length_b 15.485618
_cell_length_c 8.611442
_cell_angle_alpha 90.000000
_cell_angle_beta 90.000000
_cell_angle_gamma 90.000000
_cell_volume 2857.475621
_symmetry_space_group_name_H-M "P B C N"
_symmetry_group_IT_number 60
_symmetry_cell_setting 'orthorhombic'
loop_
_space_group_symop_operation_xyz
x,y,z
1/2-x,1/2-y,1/2+z
1/2+x,1/2-y,-z
-x,y,1/2-z
-x,-y,-z
1/2+x,1/2+y,1/2-z
1/2-x,1/2+y,z
x,-y,1/2+z
loop_
_atom_site_type_symbol
_atom_site_label
_atom_site_fract_x
_atom_site_fract_y
_atom_site_fract_z
Si Si1 0.667196 0.708683 0.862557
Si Si2 0.445952 0.390064 0.983207
Si Si3 0.183718 0.864332 0.482798
Si Si4 0.808186 0.316221 0.376550
Si Si5 0.568798 0.434126 0.868170
Si Si6 0.500000 0.993382 0.750000
Si Si7 0.677311 0.113775 0.527692
Si Si8 0.092809 0.443327 0.997211
O O1 0.670485 0.680530 0.682829
O O2 0.734915 0.672357 0.921268
O O3 0.605284 0.671838 0.942988
O O4 0.666606 0.810335 0.902720
O O5 0.517589 0.367228 0.938137
O O6 0.421532 0.417792 0.812751
O O7 0.454053 0.468943 0.102896
O O8 0.182127 0.785650 0.604851
O O9 0.130412 0.928287 0.531857
O O10 0.250137 0.911354 0.488527
O O11 0.823531 0.345732 0.201075
O O12 0.855908 0.369770 0.481890
O O13 0.548297 0.936996 0.651157
O O14 0.456246 0.050647 0.638859
O O15 0.630326 0.034362 0.511357
#
# Coordination Sequence:
#
# PCOD9456115 Si02
#       8
#     8   8   8   8   8   4   8   8
#     4  10  22  39  61  93 121 156 202 255 297 361
#     4  10  21  39  60  85 120 158 199 244 298 356
#     4  10  22  39  61  93 121 156 202 255 297 361
#     4  10  22  41  62  88 124 157 202 248 305 354
#     4  10  21  39  60  85 120 158 199 244 298 356
#     4  10  24  42  64  90 124 154 212 250 304 358
#     4  10  22  41  62  88 124 157 202 248 305 354
#     4  11  22  44  64  90 121 166 200 258 301 372
#
# _framework density 20.997554999999998
#
# number of rings (size 3 to 8) (size 9 to 14) (size 15 to 20)
#    0.000    1.867    1.333    1.600    3.733    2.667 
#    4.800    0.000    0.000    0.000    0.000    0.000 
#    0.000    0.000    0.000    0.000    0.000    0.000 
#
# Total GULP energy -334705.839316 kJ/mol
# GULP energy per Si atom -5578.430655 kJ/mol
# Density = 2.094976 g / cm^3
# Si number density = 20.997555 Si / 1000 Ang^3
#
#
#
# Elastic Constant Matrix: (Units=GPa)
#
#
# Indices 1 2 3 4 5 6 
#
# 1 102.0932 21.5112 46.5864 0.0000 0.0000 0.0000
# 2 21.5112 24.3468 7.4505 0.0000 0.0000 0.0000
# 3 46.5864 7.4505 48.0416 0.0000 0.0000 0.0000
# 4 0.0000 0.0000 0.0000 16.0184 0.0000 0.0000
# 5 0.0000 0.0000 0.0000 0.0000 40.6018 0.0000
# 6 0.0000 0.0000 0.0000 0.0000 0.0000 35.2842
#
#
#
# Elastic Compliance Matrix: (Units=1/GPa)
#
#
# Indices 1 2 3 4 5 6 
#
# 1 0.020783 -0.012802 -0.018168 0.000000 0.000000 0.000000
# 2 -0.012802 0.051006 0.004504 0.000000 0.000000 0.000000
# 3 -0.018168 0.004504 0.037734 0.000000 0.000000 0.000000
# 4 0.000000 0.000000 0.000000 0.062428 0.000000 0.000000
# 5 0.000000 0.000000 0.000000 0.000000 0.024629 0.000000
# 6 0.000000 0.000000 0.000000 0.000000 0.000000 0.028341
#
#
# Mechanical properties :
#
#
# Convention : Reuss Voigt Hill
#
# Bulk Modulus (GPa) = 17.67054 36.17532 26.92293
# Shear Modulus (GPa) = 16.85108 24.97644 20.91376
#
# Velocity S-wave (km/s) = 2.83596 3.45264 3.15939
# Velocity P-wave (km/s) = 4.37691 5.75848 5.11456
#
# Compressibility (1/GPa) = 0.05659138
#
# Stress axis : x y z
#
# Youngs Moduli (GPa) = 48.11719 19.60549 26.50127
#
# Poissons Ratio (x) = 0.25100 0.48146
# Poissons Ratio (y) = 0.61602 -0.11937
# Poissons Ratio (z) = 0.87417 -0.08831
#
# Static dielectric constant tensor:
#      x y z
#    x 1.789900 0.000000 0.000000 
#    y 0.000000 1.731980 0.000000 
#    z 0.000000 0.000000 1.781630 
# 
# From -- ./inp_files/7960.got.cif
#   From: 2010.05.17/outbox.cif.g08.bks.cpg/sg60_4_cif.got.tgz:7960.got - 2010.06.03 14:59:27.
