data_PCOD9456162
_publ_section_title
;
Structure prediction by ZEFSAII (Michael W. Deem and Ramdas Pophale) SiO2 
 PCOD9456162
Probable space group: P B C N
;
_chemical_formula_sum "Si O2"
_cell_formula_units_Z 40
_cell_length_a 11.999093
_cell_length_b 12.595183
_cell_length_c 13.920694
_cell_angle_alpha 90.000000
_cell_angle_beta 90.000000
_cell_angle_gamma 90.000000
_cell_volume 2103.845233
_symmetry_space_group_name_H-M "P B C N"
_symmetry_group_IT_number 60
_symmetry_cell_setting 'orthorhombic'
loop_
_space_group_symop_operation_xyz
x,y,z
1/2-x,1/2-y,1/2+z
1/2+x,1/2-y,-z
-x,y,1/2-z
-x,-y,-z
1/2+x,1/2+y,1/2-z
1/2-x,1/2+y,z
x,-y,1/2+z
loop_
_atom_site_type_symbol
_atom_site_label
_atom_site_fract_x
_atom_site_fract_y
_atom_site_fract_z
Si Si1 0.775032 0.381752 0.159040
Si Si2 0.163872 0.707603 0.456392
Si Si3 0.111667 0.933804 0.500752
Si Si4 0.275179 0.058600 0.618865
Si Si5 0.981055 0.475659 0.638504
O O1 0.744126 0.263767 0.122558
O O2 0.762702 0.400742 0.272450
O O3 0.897785 0.423628 0.132831
O O4 0.687859 0.451028 0.095101
O O5 0.095697 0.807309 0.499507
O O6 0.232721 0.653116 0.541637
O O7 0.081015 0.622433 0.410431
O O8 0.184708 0.971360 0.590605
O O9 0.000000 0.000000 0.500000
O O10 0.397251 0.007484 0.602315
O O11 0.000000 0.449163 0.750000
#
# Coordination Sequence:
#
# PCOD9456162 Si02
#       5
#     8   8   8   8   8
#     4   9  23  41  61  96 125 162 216 263 320 382
#     4  10  21  39  63  95 122 169 209 260 320 386
#     4  10  24  40  60  92 130 167 209 266 319 379
#     4  11  22  41  68  89 133 166 215 265 320 381
#     4  10  21  41  67  94 124 167 213 266 313 386
#
# _framework density 19.012803999999999
#
# number of rings (size 3 to 8) (size 9 to 14) (size 15 to 20)
#    1.200    0.800    2.000    0.600    0.000    8.800 
#    0.000    0.000    0.000    0.000    0.000    0.000 
#    0.000    0.000    0.000    0.000    0.000    0.000 
#
# Total GULP energy -222874.715182 kJ/mol
# GULP energy per Si atom -5571.867880 kJ/mol
# Density = 1.896953 g / cm^3
# Si number density = 19.012804 Si / 1000 Ang^3
#
#
#
# Elastic Constant Matrix: (Units=GPa)
#
#
# Indices 1 2 3 4 5 6 
#
# 1 83.9442 12.3629 25.6334 0.0000 0.0000 0.0000
# 2 12.3629 75.0226 30.6276 0.0000 0.0000 0.0000
# 3 25.6334 30.6276 89.2371 0.0000 0.0000 0.0000
# 4 0.0000 0.0000 0.0000 27.4656 0.0000 0.0000
# 5 0.0000 0.0000 0.0000 0.0000 26.8028 0.0000
# 6 0.0000 0.0000 0.0000 0.0000 0.0000 19.3097
#
#
#
# Elastic Compliance Matrix: (Units=1/GPa)
#
#
# Indices 1 2 3 4 5 6 
#
# 1 0.013092 -0.000724 -0.003512 0.000000 0.000000 0.000000
# 2 -0.000724 0.015541 -0.005126 0.000000 0.000000 0.000000
# 3 -0.003512 -0.005126 0.013974 0.000000 0.000000 0.000000
# 4 0.000000 0.000000 0.000000 0.036409 0.000000 0.000000
# 5 0.000000 0.000000 0.000000 0.000000 0.037310 0.000000
# 6 0.000000 0.000000 0.000000 0.000000 0.000000 0.051787
#
#
# Mechanical properties :
#
#
# Convention : Reuss Voigt Hill
#
# Bulk Modulus (GPa) = 41.86998 42.82796 42.34897
# Shear Modulus (GPa) = 25.66752 26.68762 26.17757
#
# Velocity S-wave (km/s) = 3.67824 3.75062 3.71460
# Velocity P-wave (km/s) = 6.33317 6.42891 6.38122
#
# Compressibility (1/GPa) = 0.02388346
#
# Stress axis : x y z
#
# Youngs Moduli (GPa) = 76.38399 64.34478 71.55942
#
# Poissons Ratio (x) = 0.04655 0.25134
# Poissons Ratio (y) = 0.05526 0.36683
# Poissons Ratio (z) = 0.26828 0.32984
#
# Static dielectric constant tensor:
#      x y z
#    x 1.647920 0.000000 0.000000 
#    y 0.000000 1.680830 0.000000 
#    z 0.000000 0.000000 1.686800 
# 
# From -- ./inp_files/15849.got.cif
#   From: 2010.05.17/outbox.cif.g08.bks.cpg/sg60_8_cif.got.tgz:15849.got - 2010.06.03 14:59:27.
