data_PCOD9456010
_publ_section_title
;
Structure prediction by ZEFSAII (Michael W. Deem and Ramdas Pophale) SiO2 
 PCOD9456010
Probable space group: P B C N
;
_chemical_formula_sum "Si O2"
_cell_formula_units_Z 44
_cell_length_a 29.016422
_cell_length_b 5.079158
_cell_length_c 13.480248
_cell_angle_alpha 90.000000
_cell_angle_beta 90.000000
_cell_angle_gamma 90.000000
_cell_volume 1986.705361
_symmetry_space_group_name_H-M "P B C N"
_symmetry_group_IT_number 60
_symmetry_cell_setting 'orthorhombic'
loop_
_space_group_symop_operation_xyz
x,y,z
1/2-x,1/2-y,1/2+z
1/2+x,1/2-y,-z
-x,y,1/2-z
-x,-y,-z
1/2+x,1/2+y,1/2-z
1/2-x,1/2+y,z
x,-y,1/2+z
loop_
_atom_site_type_symbol
_atom_site_label
_atom_site_fract_x
_atom_site_fract_y
_atom_site_fract_z
Si Si1 0.027478 0.251471 0.540502
Si Si2 0.585350 0.683656 0.138802
Si Si3 0.721425 0.870823 0.828700
Si Si4 0.142370 0.667396 0.318161
Si Si5 0.000000 0.916485 0.250000
Si Si6 0.277282 0.879398 0.434692
O O1 0.074660 0.239694 0.477574
O O2 0.024692 0.240700 0.659603
O O3 0.000000 0.500000 0.500000
O O4 0.000000 0.000000 0.500000
O O5 0.621786 0.445520 0.148248
O O6 0.539562 0.586622 0.196059
O O7 0.602029 0.952662 0.189104
O O8 0.740280 0.156351 0.798689
O O9 0.718111 0.872555 0.946850
O O10 0.672825 0.802910 0.780273
O O11 0.177799 0.518896 0.391773
O O12 0.235783 0.081227 0.407081
#
# Coordination Sequence:
#
# PCOD9456010 Si02
#       6
#     8   8   8   8   4   8
#     4  10  22  42  65  90 118 158 211 255 309 385
#     4  11  25  39  62  93 122 161 210 260 321 385
#     4  10  21  38  61  89 122 164 207 243 300 377
#     4  12  23  38  60  92 125 157 203 262 312 370
#     4  10  24  46  68  86 126 172 208 268 332 376
#     4  10  21  38  60  84 119 164 202 249 309 367
#
# _framework density 22.147220999999998
#
# number of rings (size 3 to 8) (size 9 to 14) (size 15 to 20)
#    0.000    1.455    0.000    5.455    0.000    9.455 
#    0.000    0.000    0.000    0.000    0.000    0.000 
#    0.000    0.000    0.000    0.000    0.000    0.000 
#
# Total GULP energy -245932.670237 kJ/mol
# GULP energy per Si atom -5589.378869 kJ/mol
# Density = 2.209681 g / cm^3
# Si number density = 22.147221 Si / 1000 Ang^3
#
#
#
# Elastic Constant Matrix: (Units=GPa)
#
#
# Indices 1 2 3 4 5 6 
#
# 1 59.6681 4.8253 21.7733 0.0000 0.0000 0.0000
# 2 4.8253 112.0290 17.1071 0.0000 0.0000 0.0000
# 3 21.7733 17.1071 122.2541 0.0000 0.0000 0.0000
# 4 0.0000 0.0000 0.0000 15.1775 0.0000 0.0000
# 5 0.0000 0.0000 0.0000 0.0000 -4.9934 0.0000
# 6 0.0000 0.0000 0.0000 0.0000 0.0000 46.2015
#
#
#
# Elastic Compliance Matrix: (Units=1/GPa)
#
#
# Indices 1 2 3 4 5 6 
#
# 1 0.017934 -0.000291 -0.003153 0.000000 0.000000 0.000000
# 2 -0.000291 0.009126 -0.001225 0.000000 0.000000 0.000000
# 3 -0.003153 -0.001225 0.008913 0.000000 0.000000 0.000000
# 4 0.000000 0.000000 0.000000 0.065887 0.000000 0.000000
# 5 0.000000 0.000000 0.000000 0.000000 -0.200263 0.000000
# 6 0.000000 0.000000 0.000000 0.000000 0.000000 0.021644
#
#
# Mechanical properties :
#
#
# Convention : Reuss Voigt Hill
#
# Bulk Modulus (GPa) = 37.54676 42.37363 39.96019
# Shear Modulus (GPa) = -85.40742 27.96015 -28.72363
#
# Velocity S-wave (km/s) = -6.21669 3.55698 -3.60521
# Velocity P-wave (km/s) = 5.87704 6.00364 0.86722
#
# Compressibility (1/GPa) = 0.02663346
#
# Stress axis : x y z
#
# Youngs Moduli (GPa) = 55.76139 109.57851 112.19929
#
# Poissons Ratio (x) = 0.03188 0.35379
# Poissons Ratio (y) = 0.01622 0.13746
# Poissons Ratio (z) = 0.17583 0.13425
#
# Static dielectric constant tensor:
#      x y z
#    x 1.800700 0.000000 0.000000 
#    y 0.000000 1.770190 0.000000 
#    z 0.000000 0.000000 1.848470 
# 
# From -- ./inp_files/18006.got.cif
#   From: 2010.05.17/outbox.cif.g08.bks.cpg/sg60_10_cif.got.tgz:18006.got - 2010.06.03 14:59:27.
