data_PCOD9456163
_publ_section_title
;
Structure prediction by ZEFSAII (Michael W. Deem and Ramdas Pophale) SiO2 
 PCOD9456163
Probable space group: P B C N
;
_chemical_formula_sum "Si O2"
_cell_formula_units_Z 40
_cell_length_a 10.271761
_cell_length_b 9.403040
_cell_length_c 15.371992
_cell_angle_alpha 90.000000
_cell_angle_beta 90.000000
_cell_angle_gamma 90.000000
_cell_volume 1484.715831
_symmetry_space_group_name_H-M "P B C N"
_symmetry_group_IT_number 60
_symmetry_cell_setting 'orthorhombic'
loop_
_space_group_symop_operation_xyz
x,y,z
1/2-x,1/2-y,1/2+z
1/2+x,1/2-y,-z
-x,y,1/2-z
-x,-y,-z
1/2+x,1/2+y,1/2-z
1/2-x,1/2+y,z
x,-y,1/2+z
loop_
_atom_site_type_symbol
_atom_site_label
_atom_site_fract_x
_atom_site_fract_y
_atom_site_fract_z
Si Si1 0.000000 0.856454 0.750000
Si Si2 0.753280 0.353983 0.465916
Si Si3 0.000000 0.699505 0.250000
Si Si4 0.907002 0.504890 0.618216
Si Si5 0.510339 0.317419 0.933938
Si Si6 0.238679 0.361420 0.232918
O O1 0.995647 0.916730 0.651851
O O2 0.871469 0.759276 0.758819
O O3 0.835414 0.444875 0.534807
O O4 0.603778 0.350905 0.497945
O O5 0.754772 0.405779 0.366957
O O6 0.840436 0.206173 0.465007
O O7 0.008156 0.603011 0.162976
O O8 0.874769 0.795978 0.241106
O O9 0.968660 0.656922 0.596639
O O10 0.805086 0.523376 0.697198
#
# Coordination Sequence:
#
# PCOD9456163 Si02
#       6
#     4   8   4   8   8   8
#     4   8  17  38  59  82 130 166 199 266 321 374
#     4  11  22  39  65  92 128 170 211 274 327 378
#     4  12  23  44  73  96 132 178 215 276 329 380
#     4  11  22  41  66  95 130 176 218 266 331 393
#     4  10  21  39  63  95 125 167 223 265 322 398
#     4  10  23  41  65 102 134 170 227 270 323 399
#
# _framework density 26.941182999999999
#
# number of rings (size 3 to 8) (size 9 to 14) (size 15 to 20)
#    0.000    1.600    0.000    7.800    0.000    1.600 
#    0.000   10.000    0.000    2.400    0.000    0.000 
#    0.000    0.000    0.000    0.000    0.000    0.000 
#
# Total GULP energy -224090.520921 kJ/mol
# GULP energy per Si atom -5602.263023 kJ/mol
# Density = 2.687986 g / cm^3
# Si number density = 26.941183 Si / 1000 Ang^3
#
#
#
# Elastic Constant Matrix: (Units=GPa)
#
#
# Indices 1 2 3 4 5 6 
#
# 1 149.3654 22.2287 32.0237 0.0000 0.0000 0.0000
# 2 22.2287 43.5767 28.1748 0.0000 0.0000 0.0000
# 3 32.0237 28.1748 169.5768 0.0000 0.0000 0.0000
# 4 0.0000 0.0000 0.0000 43.2769 0.0000 0.0000
# 5 0.0000 0.0000 0.0000 0.0000 48.6221 0.0000
# 6 0.0000 0.0000 0.0000 0.0000 0.0000 41.4294
#
#
#
# Elastic Compliance Matrix: (Units=1/GPa)
#
#
# Indices 1 2 3 4 5 6 
#
# 1 0.007355 -0.003197 -0.000858 0.000000 0.000000 0.000000
# 2 -0.003197 0.027100 -0.003899 0.000000 0.000000 0.000000
# 3 -0.000858 -0.003899 0.006707 0.000000 0.000000 0.000000
# 4 0.000000 0.000000 0.000000 0.023107 0.000000 0.000000
# 5 0.000000 0.000000 0.000000 0.000000 0.020567 0.000000
# 6 0.000000 0.000000 0.000000 0.000000 0.000000 0.024137
#
#
# Mechanical properties :
#
#
# Convention : Reuss Voigt Hill
#
# Bulk Modulus (GPa) = 39.59775 58.59702 49.09739
# Shear Modulus (GPa) = 37.51005 45.33845 41.42425
#
# Velocity S-wave (km/s) = 3.73539 4.10673 3.92545
# Velocity P-wave (km/s) = 5.77356 6.65463 6.22969
#
# Compressibility (1/GPa) = 0.02525396
#
# Stress axis : x y z
#
# Youngs Moduli (GPa) = 135.96790 36.90077 149.10280
#
# Poissons Ratio (x) = 0.11798 0.12789
# Poissons Ratio (y) = 0.43470 0.58132
# Poissons Ratio (z) = 0.11662 0.14387
#
# Static dielectric constant tensor:
#      x y z
#    x 2.088570 0.000000 0.000000 
#    y 0.000000 2.159740 0.000000 
#    z 0.000000 0.000000 2.099800 
# 
# From -- ./inp_files/15866.got.cif
#   From: 2010.05.17/outbox.cif.g08.bks.cpg/sg60_8_cif.got.tgz:15866.got - 2010.06.03 14:59:27.
