data_PCOD9456403
_publ_section_title
;
Structure prediction by ZEFSAII (Michael W. Deem and Ramdas Pophale) SiO2 
 PCOD9456403
Probable space group: P B C N
;
_chemical_formula_sum "Si O2"
_cell_formula_units_Z 32
_cell_length_a 8.452556
_cell_length_b 11.098647
_cell_length_c 13.616317
_cell_angle_alpha 90.000000
_cell_angle_beta 90.000000
_cell_angle_gamma 90.000000
_cell_volume 1277.373049
_symmetry_space_group_name_H-M "P B C N"
_symmetry_group_IT_number 60
_symmetry_cell_setting 'orthorhombic'
loop_
_space_group_symop_operation_xyz
x,y,z
1/2-x,1/2-y,1/2+z
1/2+x,1/2-y,-z
-x,y,1/2-z
-x,-y,-z
1/2+x,1/2+y,1/2-z
1/2-x,1/2+y,z
x,-y,1/2+z
loop_
_atom_site_type_symbol
_atom_site_label
_atom_site_fract_x
_atom_site_fract_y
_atom_site_fract_z
Si Si1 0.731894 0.873270 0.349552
Si Si2 0.556321 0.523637 0.609793
Si Si3 0.000000 0.429868 0.750000
Si Si4 0.360295 0.065108 0.442448
Si Si5 0.000000 0.808811 0.750000
O O1 0.709207 0.857540 0.467539
O O2 0.646562 0.766767 0.292063
O O3 0.635453 0.988131 0.304090
O O4 0.918796 0.897381 0.340579
O O5 0.500000 0.500000 0.500000
O O6 0.743666 0.542559 0.596113
O O7 0.555168 0.395622 0.663826
O O8 0.921734 0.367919 0.655065
O O9 0.500000 0.000000 0.500000
#
# Coordination Sequence:
#
# PCOD9456403 Si02
#       5
#     8   8   4   8   4
#     4   9  20  38  63  96 134 181 236 291 352 433
#     4  10  21  41  68  99 138 186 235 299 371 440
#     4   9  16  32  60  89 132 185 222 282 356 407
#     4   9  18  36  64  93 131 180 225 286 358 418
#     4  11  22  42  72 103 140 189 242 302 370 445
#
# _framework density 25.051414000000001
#
# number of rings (size 3 to 8) (size 9 to 14) (size 15 to 20)
#    0.000    2.500    0.000    1.500    0.000    0.000 
#    0.000   45.000    0.000   48.000    0.000    0.000 
#    0.000    0.000    0.000    0.000    0.000    0.000 
#
# Total GULP energy -178385.275794 kJ/mol
# GULP energy per Si atom -5574.539869 kJ/mol
# Density = 2.499440 g / cm^3
# Si number density = 25.051414 Si / 1000 Ang^3
#
#
#
# Elastic Constant Matrix: (Units=GPa)
#
#
# Indices 1 2 3 4 5 6 
#
# 1 194.2957 44.0343 71.9941 0.0000 0.0000 0.0000
# 2 44.0343 58.0655 43.3875 0.0000 0.0000 0.0000
# 3 71.9941 43.3875 241.5850 0.0000 0.0000 0.0000
# 4 0.0000 0.0000 0.0000 25.3591 0.0000 0.0000
# 5 0.0000 0.0000 0.0000 0.0000 65.7351 0.0000
# 6 0.0000 0.0000 0.0000 0.0000 0.0000 23.8586
#
#
#
# Elastic Compliance Matrix: (Units=1/GPa)
#
#
# Indices 1 2 3 4 5 6 
#
# 1 0.006511 -0.004028 -0.001217 0.000000 0.000000 0.000000
# 2 -0.004028 0.022384 -0.002820 0.000000 0.000000 0.000000
# 3 -0.001217 -0.002820 0.005008 0.000000 0.000000 0.000000
# 4 0.000000 0.000000 0.000000 0.039434 0.000000 0.000000
# 5 0.000000 0.000000 0.000000 0.000000 0.015213 0.000000
# 6 0.000000 0.000000 0.000000 0.000000 0.000000 0.041914
#
#
# Mechanical properties :
#
#
# Convention : Reuss Voigt Hill
#
# Bulk Modulus (GPa) = 56.26360 90.30868 73.28614
# Shear Modulus (GPa) = 32.78352 45.29257 39.03805
#
# Velocity S-wave (km/s) = 3.62145 4.25665 3.95184
# Velocity P-wave (km/s) = 6.32412 7.76443 7.08099
#
# Compressibility (1/GPa) = 0.01777348
#
# Stress axis : x y z
#
# Youngs Moduli (GPa) = 153.59627 44.67567 199.66799
#
# Poissons Ratio (x) = 0.17996 0.24295
# Poissons Ratio (y) = 0.61871 0.56298
# Poissons Ratio (z) = 0.18689 0.12597
#
# Static dielectric constant tensor:
#      x y z
#    x 2.167930 0.000000 0.000000 
#    y 0.000000 2.038630 0.000000 
#    z 0.000000 0.000000 2.023900 
# 
# From -- ./inp_files/14395.got.cif
#   From: 2010.05.17/outbox.cif.g08.bks.cpg/sg60_8_cif.got.tgz:14395.got - 2010.06.03 14:59:27.
