data_PCOD9456377
_publ_section_title
;
Structure prediction by ZEFSAII (Michael W. Deem and Ramdas Pophale) SiO2 
 PCOD9456377
Probable space group: P B C N
;
_chemical_formula_sum "Si O2"
_cell_formula_units_Z 56
_cell_length_a 5.458413
_cell_length_b 35.975627
_cell_length_c 13.828608
_cell_angle_alpha 90.000000
_cell_angle_beta 90.000000
_cell_angle_gamma 90.000000
_cell_volume 2715.521403
_symmetry_space_group_name_H-M "P B C N"
_symmetry_group_IT_number 60
_symmetry_cell_setting 'orthorhombic'
loop_
_space_group_symop_operation_xyz
x,y,z
1/2-x,1/2-y,1/2+z
1/2+x,1/2-y,-z
-x,y,1/2-z
-x,-y,-z
1/2+x,1/2+y,1/2-z
1/2-x,1/2+y,z
x,-y,1/2+z
loop_
_atom_site_type_symbol
_atom_site_label
_atom_site_fract_x
_atom_site_fract_y
_atom_site_fract_z
Si Si1 0.000000 0.731396 0.750000
Si Si2 0.954428 0.233142 0.456375
Si Si3 0.126117 0.153519 0.956867
Si Si4 0.500000 0.317266 0.250000
Si Si5 0.500379 0.113043 0.856577
Si Si6 0.109123 0.921324 0.004495
Si Si7 0.667794 0.539994 0.654831
Si Si8 0.760429 0.542473 0.190749
O O1 0.013074 0.756592 0.654960
O O2 0.252585 0.707519 0.753666
O O3 0.703029 0.252623 0.492108
O O4 0.921728 0.189940 0.482115
O O5 0.406362 0.145173 0.927827
O O6 0.000702 0.159254 0.850283
O O7 0.048849 0.115865 0.010959
O O8 0.500000 0.129772 0.750000
O O9 0.720405 0.092419 0.908071
O O10 0.315265 0.078401 0.842140
O O11 0.966726 0.955914 0.051870
O O12 0.235592 0.933969 0.906907
O O13 0.500000 0.540296 0.750000
O O14 0.803513 0.500768 0.661366
O O15 0.500000 0.544711 0.250000
O O16 0.000000 0.554474 0.250000
#
# Coordination Sequence:
#
# PCOD9456377 Si02
#       8
#     4   8   8   4   8   8   8   8
#     4  12  24  46  70 102 132 175 224 283 336 404
#     4  12  25  46  71 101 137 175 229 278 333 414
#     4  11  26  40  66 102 138 178 223 280 348 413
#     4  12  24  42  74 102 134 173 218 283 354 402
#     4  11  22  38  67 103 145 171 225 284 355 421
#     4  11  25  43  67  99 140 184 226 283 354 409
#     4  10  21  41  66 103 133 176 230 293 349 404
#     4  11  27  47  70  95 137 189 245 286 329 403
#
# _framework density 20.622188999999999
#
# number of rings (size 3 to 8) (size 9 to 14) (size 15 to 20)
#    0.000    0.857    4.286    1.714   13.000    0.571 
#    1.286    0.000    0.000    0.000    0.000    0.000 
#    0.000    0.000    0.000    0.000    0.000    0.000 
#
# Total GULP energy -312631.927564 kJ/mol
# GULP energy per Si atom -5582.712992 kJ/mol
# Density = 2.057525 g / cm^3
# Si number density = 20.622189 Si / 1000 Ang^3
#
#
#
# Elastic Constant Matrix: (Units=GPa)
#
#
# Indices 1 2 3 4 5 6 
#
# 1 82.9589 24.7874 33.9415 0.0000 0.0000 0.0000
# 2 24.7874 97.4886 58.9174 0.0000 0.0000 0.0000
# 3 33.9415 58.9174 122.6195 0.0000 0.0000 0.0000
# 4 0.0000 0.0000 0.0000 59.2015 0.0000 0.0000
# 5 0.0000 0.0000 0.0000 0.0000 31.3620 0.0000
# 6 0.0000 0.0000 0.0000 0.0000 0.0000 -27.4865
#
#
#
# Elastic Compliance Matrix: (Units=1/GPa)
#
#
# Indices 1 2 3 4 5 6 
#
# 1 0.013788 -0.001690 -0.003005 0.000000 0.000000 0.000000
# 2 -0.001690 0.014662 -0.006577 0.000000 0.000000 0.000000
# 3 -0.003005 -0.006577 0.012147 0.000000 0.000000 0.000000
# 4 0.000000 0.000000 0.000000 0.016891 0.000000 0.000000
# 5 0.000000 0.000000 0.000000 0.000000 0.031886 0.000000
# 6 0.000000 0.000000 0.000000 0.000000 0.000000 -0.036381
#
#
# Mechanical properties :
#
#
# Convention : Reuss Voigt Hill
#
# Bulk Modulus (GPa) = 55.38876 59.81774 57.60325
# Shear Modulus (GPa) = 61.30777 24.97677 43.14227
#
# Velocity S-wave (km/s) = 5.45835 3.48395 4.57884
# Velocity P-wave (km/s) = 8.16345 6.72706 7.47981
#
# Compressibility (1/GPa) = 0.01805421
#
# Stress axis : x y z
#
# Youngs Moduli (GPa) = 72.52456 68.20214 82.32251
#
# Poissons Ratio (x) = 0.11526 0.24735
# Poissons Ratio (y) = 0.12256 0.54146
# Poissons Ratio (z) = 0.21791 0.44859
#
# Static dielectric constant tensor:
#      x y z
#    x 1.877400 0.000000 0.000000 
#    y 0.000000 1.710630 0.000000 
#    z 0.000000 0.000000 1.799940 
# 
# From -- ./inp_files/14136.got.cif
#   From: 2010.05.17/outbox.cif.g08.bks.cpg/sg60_8_cif.got.tgz:14136.got - 2010.06.03 14:59:27.
