data_PCOD9456489
_publ_section_title
;
Structure prediction by ZEFSAII (Michael W. Deem and Ramdas Pophale) SiO2 
 PCOD9456489
Probable space group: P B C N
;
_chemical_formula_sum "Si O2"
_cell_formula_units_Z 64
_cell_length_a 8.830970
_cell_length_b 12.520768
_cell_length_c 26.560169
_cell_angle_alpha 90.000000
_cell_angle_beta 90.000000
_cell_angle_gamma 90.000000
_cell_volume 2936.771873
_symmetry_space_group_name_H-M "P B C N"
_symmetry_group_IT_number 60
_symmetry_cell_setting 'orthorhombic'
loop_
_space_group_symop_operation_xyz
x,y,z
1/2-x,1/2-y,1/2+z
1/2+x,1/2-y,-z
-x,y,1/2-z
-x,-y,-z
1/2+x,1/2+y,1/2-z
1/2-x,1/2+y,z
x,-y,1/2+z
loop_
_atom_site_type_symbol
_atom_site_label
_atom_site_fract_x
_atom_site_fract_y
_atom_site_fract_z
Si Si1 0.793857 0.142599 0.446526
Si Si2 0.429619 0.466021 0.803517
Si Si3 0.506871 0.702034 0.802454
Si Si4 0.219145 0.669048 0.945744
Si Si5 0.300617 0.157707 0.368053
Si Si6 0.491549 0.470363 0.085856
Si Si7 0.764098 0.331812 0.373445
Si Si8 0.519630 0.012023 0.915712
O O1 0.769052 0.203733 0.498701
O O2 0.939360 0.065336 0.450193
O O3 0.808634 0.221110 0.399212
O O4 0.649749 0.063928 0.438131
O O5 0.500000 0.428536 0.750000
O O6 0.408449 0.593638 0.794723
O O7 0.293774 0.391215 0.821736
O O8 0.515843 0.477601 0.857623
O O9 0.500000 0.762129 0.750000
O O10 0.431004 0.767963 0.846144
O O11 0.676943 0.679460 0.820827
O O12 0.209324 0.767473 0.906972
O O13 0.351401 0.587897 0.926072
O O14 0.063532 0.602014 0.949042
O O15 0.386274 0.062755 0.395974
O O16 0.361676 0.381226 0.088588
O O17 0.898915 0.417004 0.372654
#
# Coordination Sequence:
#
# PCOD9456489 Si02
#       8
#     8   8   8   8   8   8   8   8
#     4  11  24  40  66  96 134 184 232 279 340 405
#     4  10  22  43  70  95 128 177 220 277 347 405
#     4  10  21  45  70  91 132 177 214 278 342 400
#     4  12  24  41  66  96 135 182 228 282 347 403
#     4  12  22  44  67  99 137 173 224 285 342 406
#     4  10  21  43  64  90 134 175 223 283 336 404
#     4  10  22  42  62  97 133 174 222 280 333 399
#     4  11  24  42  66  96 140 174 229 276 341 404
#
# _framework density 21.792634
#
# number of rings (size 3 to 8) (size 9 to 14) (size 15 to 20)
#    0.000    1.250    5.000    0.750    1.750    5.000 
#    4.500    0.000    0.000    0.000    0.000    0.000 
#    0.000    0.000    0.000    0.000    0.000    0.000 
#
# Total GULP energy -356793.343884 kJ/mol
# GULP energy per Si atom -5574.895998 kJ/mol
# Density = 2.174303 g / cm^3
# Si number density = 21.792634 Si / 1000 Ang^3
#
#
#
# Elastic Constant Matrix: (Units=GPa)
#
#
# Indices 1 2 3 4 5 6 
#
# 1 44.3041 37.4205 -1.2302 0.0000 0.0000 0.0000
# 2 37.4205 72.2764 18.3647 0.0000 0.0000 0.0000
# 3 -1.2302 18.3647 89.4381 0.0000 0.0000 0.0000
# 4 0.0000 0.0000 0.0000 16.2051 0.0000 0.0000
# 5 0.0000 0.0000 0.0000 0.0000 21.3546 0.0000
# 6 0.0000 0.0000 0.0000 0.0000 0.0000 35.4600
#
#
#
# Elastic Compliance Matrix: (Units=1/GPa)
#
#
# Indices 1 2 3 4 5 6 
#
# 1 0.042427 -0.023332 0.005374 0.000000 0.000000 0.000000
# 2 -0.023332 0.027428 -0.005953 0.000000 0.000000 0.000000
# 3 0.005374 -0.005953 0.012477 0.000000 0.000000 0.000000
# 4 0.000000 0.000000 0.000000 0.061709 0.000000 0.000000
# 5 0.000000 0.000000 0.000000 0.000000 0.046828 0.000000
# 6 0.000000 0.000000 0.000000 0.000000 0.000000 0.028201
#
#
# Mechanical properties :
#
#
# Convention : Reuss Voigt Hill
#
# Bulk Modulus (GPa) = 28.97547 35.01428 31.99487
# Shear Modulus (GPa) = 17.96003 24.70151 21.33077
#
# Velocity S-wave (km/s) = 2.87389 3.37037 3.13198
# Velocity P-wave (km/s) = 4.93327 5.58997 5.27186
#
# Compressibility (1/GPa) = 0.03451195
#
# Stress axis : x y z
#
# Youngs Moduli (GPa) = 23.56969 36.45874 80.14629
#
# Poissons Ratio (x) = 0.85065 -0.43074
# Poissons Ratio (y) = 0.54993 0.47710
# Poissons Ratio (z) = -0.12667 0.21704
#
# Static dielectric constant tensor:
#      x y z
#    x 1.834290 0.000000 0.000000 
#    y 0.000000 1.842240 0.000000 
#    z 0.000000 0.000000 1.857560 
# 
# From -- ./inp_files/26028.got.cif
#   From: 2010.05.17/outbox.cif.g08.bks.cpg/sg60_14_cif.got.tgz:26028.got - 2010.06.03 14:59:27.
