data_PCOD9456167
_publ_section_title
;
Structure prediction by ZEFSAII (Michael W. Deem and Ramdas Pophale) SiO2 
 PCOD9456167
Probable space group: P B C N
;
_chemical_formula_sum "Si O2"
_cell_formula_units_Z 64
_cell_length_a 22.191360
_cell_length_b 8.857538
_cell_length_c 14.894172
_cell_angle_alpha 90.000000
_cell_angle_beta 90.000000
_cell_angle_gamma 90.000000
_cell_volume 2927.610579
_symmetry_space_group_name_H-M "P B C N"
_symmetry_group_IT_number 60
_symmetry_cell_setting 'orthorhombic'
loop_
_space_group_symop_operation_xyz
x,y,z
1/2-x,1/2-y,1/2+z
1/2+x,1/2-y,-z
-x,y,1/2-z
-x,-y,-z
1/2+x,1/2+y,1/2-z
1/2-x,1/2+y,z
x,-y,1/2+z
loop_
_atom_site_type_symbol
_atom_site_label
_atom_site_fract_x
_atom_site_fract_y
_atom_site_fract_z
Si Si1 0.775123 0.111676 0.421727
Si Si2 0.646258 0.943541 0.908514
Si Si3 0.894535 0.748962 0.844786
Si Si4 0.896236 0.685870 0.652739
Si Si5 0.344475 0.893001 0.896541
Si Si6 0.059948 0.794686 0.016325
Si Si7 0.430800 0.361384 0.465389
Si Si8 0.217429 0.151252 0.440431
O O1 0.714154 0.064171 0.370364
O O2 0.827638 0.179351 0.360700
O O3 0.748260 0.234584 0.489637
O O4 0.798685 0.985506 0.491922
O O5 0.611491 0.785385 0.923168
O O6 0.608241 0.069407 0.858661
O O7 0.654450 0.020694 0.006948
O O8 0.915360 0.769697 0.743203
O O9 0.929182 0.815972 0.929298
O O10 0.877711 0.511659 0.667001
O O11 0.943734 0.688612 0.571669
O O12 0.837031 0.771901 0.612593
O O13 0.273658 0.883186 0.874961
O O14 0.379862 0.735750 0.913328
O O15 0.073090 0.958192 0.971751
O O16 0.997007 0.811950 0.067306
#
# Coordination Sequence:
#
# PCOD9456167 Si02
#       8
#     8   8   8   8   8   8   8   8
#     4  11  18  35  59  81 113 155 194 233 277 339
#     4   9  19  35  57  81 112 148 191 230 275 344
#     4  11  23  36  55  88 121 150 186 237 294 338
#     4  11  23  36  55  88 121 150 186 237 294 338
#     4   9  19  35  57  81 112 148 191 230 275 344
#     4  10  21  39  64  85 106 149 202 240 281 343
#     4  10  21  39  64  85 106 149 202 240 281 343
#     4  11  18  35  59  81 113 155 194 233 277 339
#
# _framework density 21.860833
#
# number of rings (size 3 to 8) (size 9 to 14) (size 15 to 20)
#    0.000    1.750    7.500    0.750    0.000    6.000 
#    0.000    1.250    0.000    1.500    0.000    0.000 
#    0.000    0.000    0.000    0.000    0.000    0.000 
#
# Total GULP energy -356527.378147 kJ/mol
# GULP energy per Si atom -5570.740284 kJ/mol
# Density = 2.181108 g / cm^3
# Si number density = 21.860833 Si / 1000 Ang^3
#
#
#
# Elastic Constant Matrix: (Units=GPa)
#
#
# Indices 1 2 3 4 5 6 
#
# 1 75.0389 4.9701 -23.9330 0.0000 0.0000 0.0000
# 2 4.9701 92.7626 -8.4914 0.0000 0.0000 0.0000
# 3 -23.9330 -8.4914 37.6590 0.0000 0.0000 0.0000
# 4 0.0000 0.0000 0.0000 10.4702 0.0000 0.0000
# 5 0.0000 0.0000 0.0000 0.0000 7.5332 0.0000
# 6 0.0000 0.0000 0.0000 0.0000 0.0000 21.7902
#
#
#
# Elastic Compliance Matrix: (Units=1/GPa)
#
#
# Indices 1 2 3 4 5 6 
#
# 1 0.016715 0.000078 0.010640 0.000000 0.000000 0.000000
# 2 0.000078 0.011008 0.002532 0.000000 0.000000 0.000000
# 3 0.010640 0.002532 0.033887 0.000000 0.000000 0.000000
# 4 0.000000 0.000000 0.000000 0.095509 0.000000 0.000000
# 5 0.000000 0.000000 0.000000 0.000000 0.132745 0.000000
# 6 0.000000 0.000000 0.000000 0.000000 0.000000 0.045892
#
#
# Mechanical properties :
#
#
# Convention : Reuss Voigt Hill
#
# Bulk Modulus (GPa) = 11.34933 16.72799 14.03866
# Shear Modulus (GPa) = 14.76559 23.48639 19.12599
#
# Velocity S-wave (km/s) = 2.60173 3.28130 2.96108
# Velocity P-wave (km/s) = 3.77204 4.69303 4.25751
#
# Compressibility (1/GPa) = 0.08811096
#
# Stress axis : x y z
#
# Youngs Moduli (GPa) = 59.82706 90.84493 29.50976
#
# Poissons Ratio (x) = -0.00713 -0.31399
# Poissons Ratio (y) = -0.00469 -0.07472
# Poissons Ratio (z) = -0.63658 -0.23001
#
# Static dielectric constant tensor:
#      x y z
#    x 1.952310 0.000000 0.000000 
#    y 0.000000 1.879460 0.000000 
#    z 0.000000 0.000000 1.815230 
# 
# From -- ./inp_files/21174.got.cif
#   From: 2010.05.17/outbox.cif.g08.bks.cpg/sg60_11_cif.got.tgz:21174.got - 2010.06.03 14:59:27.
