data_PCOD9456320
_publ_section_title
;
Structure prediction by ZEFSAII (Michael W. Deem and Ramdas Pophale) SiO2 
 PCOD9456320
Probable space group: P B C N
;
_chemical_formula_sum "Si O2"
_cell_formula_units_Z 64
_cell_length_a 8.372398
_cell_length_b 31.027829
_cell_length_c 10.699387
_cell_angle_alpha 90.000000
_cell_angle_beta 90.000000
_cell_angle_gamma 90.000000
_cell_volume 2779.458225
_symmetry_space_group_name_H-M "P B C N"
_symmetry_group_IT_number 60
_symmetry_cell_setting 'orthorhombic'
loop_
_space_group_symop_operation_xyz
x,y,z
1/2-x,1/2-y,1/2+z
1/2+x,1/2-y,-z
-x,y,1/2-z
-x,-y,-z
1/2+x,1/2+y,1/2-z
1/2-x,1/2+y,z
x,-y,1/2+z
loop_
_atom_site_type_symbol
_atom_site_label
_atom_site_fract_x
_atom_site_fract_y
_atom_site_fract_z
Si Si1 0.830205 0.617823 0.454986
Si Si2 0.754008 0.620497 0.172571
Si Si3 0.168957 0.154972 0.711952
Si Si4 0.398879 0.299146 0.949059
Si Si5 0.252295 0.705318 0.960134
Si Si6 0.965499 0.067794 0.415645
Si Si7 0.861961 0.977621 0.353832
Si Si8 0.394472 0.088378 0.592122
O O1 0.842328 0.614604 0.304367
O O2 0.862192 0.667623 0.488047
O O3 0.642805 0.606045 0.469799
O O4 0.918957 0.588334 0.558389
O O5 0.604205 0.588460 0.166911
O O6 0.680991 0.668355 0.151207
O O7 0.845750 0.605641 0.047711
O O8 0.141509 0.179387 0.582357
O O9 0.202713 0.188179 0.822589
O O10 0.316347 0.123329 0.685080
O O11 0.000000 0.132727 0.750000
O O12 0.590830 0.294336 0.951443
O O13 0.323884 0.251884 0.947361
O O14 0.062078 0.044365 0.524926
O O15 0.853597 0.029181 0.366120
O O16 0.687582 0.955239 0.356818
O O17 0.000000 0.970337 0.250000
#
# Coordination Sequence:
#
# PCOD9456320 Si02
#       8
#     8   8   8   8   8   8   8   8
#     4  12  24  39  61  97 133 166 214 272 337 388
#     4  10  21  43  65  85 131 176 216 263 329 407
#     4   9  21  44  63  84 127 171 217 267 326 406
#     4  10  23  42  63  92 120 171 223 269 332 391
#     4  11  25  40  63  92 127 170 218 278 326 399
#     4  10  22  41  66 100 123 168 225 263 326 397
#     4  10  21  40  70  93 126 172 218 266 319 407
#     4  10  23  39  63  94 125 171 213 264 336 391
#
# _framework density 23.026071999999999
#
# number of rings (size 3 to 8) (size 9 to 14) (size 15 to 20)
#    0.000    1.750    1.250    1.875    8.750    1.000 
#    0.000    0.000    0.000    0.000    0.000    0.000 
#    0.000    0.000    0.000    0.000    0.000    0.000 
#
# Total GULP energy -356943.950927 kJ/mol
# GULP energy per Si atom -5577.249233 kJ/mol
# Density = 2.297366 g / cm^3
# Si number density = 23.026072 Si / 1000 Ang^3
#
#
#
# Elastic Constant Matrix: (Units=GPa)
#
#
# Indices 1 2 3 4 5 6 
#
# 1 67.6427 17.6662 36.3162 0.0000 0.0000 0.0000
# 2 17.6662 130.9501 25.1616 0.0000 0.0000 0.0000
# 3 36.3162 25.1616 97.6213 0.0000 0.0000 0.0000
# 4 0.0000 0.0000 0.0000 22.2528 0.0000 0.0000
# 5 0.0000 0.0000 0.0000 0.0000 43.2228 0.0000
# 6 0.0000 0.0000 0.0000 0.0000 0.0000 73.9059
#
#
#
# Elastic Compliance Matrix: (Units=1/GPa)
#
#
# Indices 1 2 3 4 5 6 
#
# 1 0.018664 -0.001246 -0.006622 0.000000 0.000000 0.000000
# 2 -0.001246 0.008118 -0.001629 0.000000 0.000000 0.000000
# 3 -0.006622 -0.001629 0.013127 0.000000 0.000000 0.000000
# 4 0.000000 0.000000 0.000000 0.044938 0.000000 0.000000
# 5 0.000000 0.000000 0.000000 0.000000 0.023136 0.000000
# 6 0.000000 0.000000 0.000000 0.000000 0.000000 0.013531
#
#
# Mechanical properties :
#
#
# Convention : Reuss Voigt Hill
#
# Bulk Modulus (GPa) = 47.81164 50.50025 49.15594
# Shear Modulus (GPa) = 33.90317 42.34763 38.12540
#
# Velocity S-wave (km/s) = 3.84133 4.29314 4.07350
# Velocity P-wave (km/s) = 6.36267 6.82306 6.59688
#
# Compressibility (1/GPa) = 0.02091541
#
# Stress axis : x y z
#
# Youngs Moduli (GPa) = 53.57838 123.19030 76.17835
#
# Poissons Ratio (x) = 0.15343 0.50447
# Poissons Ratio (y) = 0.06673 0.12409
# Poissons Ratio (z) = 0.35481 0.20067
#
# Static dielectric constant tensor:
#      x y z
#    x 2.000130 0.000000 0.000000 
#    y 0.000000 1.837250 0.000000 
#    z 0.000000 0.000000 1.925550 
# 
# From -- ./inp_files/10365.got.cif
#   From: 2010.05.17/outbox.cif.g08.bks.cpg/sg60_6_cif.got.tgz:10365.got - 2010.06.03 14:59:27.
