data_PCOD9456853
_publ_section_title
;
Structure prediction by ZEFSAII (Michael W. Deem and Ramdas Pophale) SiO2 
 PCOD9456853
Probable space group: P B C N
;
_chemical_formula_sum "Si O2"
_cell_formula_units_Z 56
_cell_length_a 24.391281
_cell_length_b 4.950954
_cell_length_c 19.669551
_cell_angle_alpha 90.000000
_cell_angle_beta 90.000000
_cell_angle_gamma 90.000000
_cell_volume 2375.297147
_symmetry_space_group_name_H-M "P B C N"
_symmetry_group_IT_number 60
_symmetry_cell_setting 'orthorhombic'
loop_
_space_group_symop_operation_xyz
x,y,z
1/2-x,1/2-y,1/2+z
1/2+x,1/2-y,-z
-x,y,1/2-z
-x,-y,-z
1/2+x,1/2+y,1/2-z
1/2-x,1/2+y,z
x,-y,1/2+z
loop_
_atom_site_type_symbol
_atom_site_label
_atom_site_fract_x
_atom_site_fract_y
_atom_site_fract_z
Si Si1 0.000000 0.500000 0.000000
Si Si2 0.971972 0.017342 0.391864
Si Si3 0.410270 0.343307 0.406768
Si Si4 0.000000 0.734539 0.750000
Si Si5 0.714692 0.032575 0.771154
Si Si6 0.886373 0.777655 0.476873
Si Si7 0.391882 0.863059 0.315294
Si Si8 0.784102 0.558680 0.933405
O O1 0.020439 0.280454 0.062182
O O2 0.062467 0.614673 0.993420
O O3 0.022404 0.818270 0.418472
O O4 0.980041 0.088154 0.313741
O O5 0.912878 0.890041 0.406877
O O6 0.381482 0.469701 0.472218
O O7 0.385066 0.077289 0.375338
O O8 0.402764 0.572053 0.348593
O O9 0.947956 0.565306 0.724402
O O10 0.735390 0.734081 0.753807
O O11 0.660196 0.121205 0.732855
O O12 0.706268 0.047440 0.852231
O O13 0.835155 0.586415 0.467713
O O14 0.767995 0.865007 0.949310
#
# Coordination Sequence:
#
# PCOD9456853 Si02
#       8
#     4   8   8   4   8   8   8   8
#     4  10  22  40  66 102 128 188 234 274 356 436
#     4  10  24  40  64 100 136 188 221 281 348 425
#     4  10  24  41  64  98 136 170 223 279 336 420
#     4  10  26  40  66 102 146 166 238 284 360 410
#     4  10  22  43  69  93 129 176 230 276 341 417
#     4  11  25  41  73  94 140 188 236 280 359 430
#     4  11  24  43  64  98 135 174 219 287 345 402
#     4  10  25  44  66 100 133 175 233 298 341 404
#
# _framework density 23.575998999999999
#
# number of rings (size 3 to 8) (size 9 to 14) (size 15 to 20)
#    0.000    1.714    0.000    2.571   16.000    6.857 
#    0.000    4.286    0.000    0.000    0.000    0.000 
#    0.000    0.000    0.000    0.000    0.000    0.000 
#
# Total GULP energy -312879.672703 kJ/mol
# GULP energy per Si atom -5587.137013 kJ/mol
# Density = 2.352234 g / cm^3
# Si number density = 23.575999 Si / 1000 Ang^3
#
#
#
# Elastic Constant Matrix: (Units=GPa)
#
#
# Indices 1 2 3 4 5 6 
#
# 1 101.7023 -1.4130 33.7782 0.0000 0.0000 0.0000
# 2 -1.4130 77.4293 5.5919 0.0000 0.0000 0.0000
# 3 33.7782 5.5919 90.7694 0.0000 0.0000 0.0000
# 4 0.0000 0.0000 0.0000 26.3102 0.0000 0.0000
# 5 0.0000 0.0000 0.0000 0.0000 33.4025 0.0000
# 6 0.0000 0.0000 0.0000 0.0000 0.0000 25.6644
#
#
#
# Elastic Compliance Matrix: (Units=1/GPa)
#
#
# Indices 1 2 3 4 5 6 
#
# 1 0.011239 0.000509 -0.004214 0.000000 0.000000 0.000000
# 2 0.000509 0.012996 -0.000990 0.000000 0.000000 0.000000
# 3 -0.004214 -0.000990 0.012646 0.000000 0.000000 0.000000
# 4 0.000000 0.000000 0.000000 0.038008 0.000000 0.000000
# 5 0.000000 0.000000 0.000000 0.000000 0.029938 0.000000
# 6 0.000000 0.000000 0.000000 0.000000 0.000000 0.038965
#
#
# Mechanical properties :
#
#
# Convention : Reuss Voigt Hill
#
# Bulk Modulus (GPa) = 36.37442 38.42391 37.39917
# Shear Modulus (GPa) = 30.79866 32.53835 31.66850
#
# Velocity S-wave (km/s) = 3.61828 3.71906 3.66902
# Velocity P-wave (km/s) = 5.73742 5.89705 5.81778
#
# Compressibility (1/GPa) = 0.02749185
#
# Stress axis : x y z
#
# Youngs Moduli (GPa) = 88.97396 76.94781 79.07610
#
# Poissons Ratio (x) = -0.03920 0.33322
# Poissons Ratio (y) = -0.04533 0.07830
# Poissons Ratio (z) = 0.37492 0.07619
#
# Static dielectric constant tensor:
#      x y z
#    x 1.865950 0.000000 0.000000 
#    y 0.000000 1.927000 0.000000 
#    z 0.000000 0.000000 1.883440 
# 
# From -- ./inp_files/23300.got.cif
#   From: 2010.05.17/outbox.cif.g08.bks.cpg/sg60_12_cif.got.tgz:23300.got - 2010.06.03 14:59:27.
