data_PCOD9456565
_publ_section_title
;
Structure prediction by ZEFSAII (Michael W. Deem and Ramdas Pophale) SiO2 
 PCOD9456565
Probable space group: P B C N
;
_chemical_formula_sum "Si O2"
_cell_formula_units_Z 60
_cell_length_a 27.263527
_cell_length_b 7.725588
_cell_length_c 11.020168
_cell_angle_alpha 90.000000
_cell_angle_beta 90.000000
_cell_angle_gamma 90.000000
_cell_volume 2321.142468
_symmetry_space_group_name_H-M "P B C N"
_symmetry_group_IT_number 60
_symmetry_cell_setting 'orthorhombic'
loop_
_space_group_symop_operation_xyz
x,y,z
1/2-x,1/2-y,1/2+z
1/2+x,1/2-y,-z
-x,y,1/2-z
-x,-y,-z
1/2+x,1/2+y,1/2-z
1/2-x,1/2+y,z
x,-y,1/2+z
loop_
_atom_site_type_symbol
_atom_site_label
_atom_site_fract_x
_atom_site_fract_y
_atom_site_fract_z
Si Si1 0.633257 0.624057 0.215325
Si Si2 0.676772 0.613174 0.861822
Si Si3 0.577648 0.278285 0.483671
Si Si4 0.554031 0.362408 0.923954
Si Si5 0.079292 0.576892 0.396957
Si Si6 0.500000 0.110939 0.750000
Si Si7 0.688413 0.966505 0.160793
Si Si8 0.258178 0.920045 0.590153
O O1 0.661279 0.442482 0.227336
O O2 0.591970 0.643971 0.114423
O O3 0.602828 0.649774 0.339547
O O4 0.672565 0.768290 0.182106
O O5 0.724100 0.722041 0.896459
O O6 0.699292 0.433900 0.913054
O O7 0.629641 0.705963 0.914545
O O8 0.543552 0.430516 0.429261
O O9 0.568126 0.075108 0.501848
O O10 0.514342 0.241833 0.858082
O O11 0.566010 0.261911 0.048210
O O12 0.135630 0.559178 0.356847
O O13 0.044565 0.513297 0.288144
O O14 0.717880 0.019422 0.280805
O O15 0.717843 0.982884 0.035676
#
# Coordination Sequence:
#
# PCOD9456565 Si02
#       8
#     8   8   8   8   8   4   8   8
#     4  10  21  46  68  98 138 178 243 299 352 433
#     4  11  25  42  67 101 140 185 242 296 355 434
#     4  10  23  47  73 100 140 190 246 293 358 444
#     4  11  24  45  73 104 143 190 231 309 367 429
#     4  11  24  47  74 103 146 189 243 297 377 436
#     4  12  24  46  72 112 150 174 246 314 354 458
#     4  11  24  45  70  98 138 190 239 299 356 436
#     4  12  26  43  68 103 140 190 241 299 363 426
#
# _framework density 25.849340000000002
#
# number of rings (size 3 to 8) (size 9 to 14) (size 15 to 20)
#    0.000    1.067    5.333    2.000    3.733    2.667 
#    2.400    1.333    0.000    0.000    0.000    0.000 
#    0.000    0.000    0.000    0.000    0.000    0.000 
#
# Total GULP energy -335208.519372 kJ/mol
# GULP energy per Si atom -5586.808656 kJ/mol
# Density = 2.579051 g / cm^3
# Si number density = 25.849340 Si / 1000 Ang^3
#
#
#
# Elastic Constant Matrix: (Units=GPa)
#
#
# Indices 1 2 3 4 5 6 
#
# 1 84.1655 -0.1100 25.2232 0.0000 0.0000 0.0000
# 2 -0.1100 85.1204 23.7101 0.0000 0.0000 0.0000
# 3 25.2232 23.7101 110.3166 0.0000 0.0000 0.0000
# 4 0.0000 0.0000 0.0000 37.9506 0.0000 0.0000
# 5 0.0000 0.0000 0.0000 0.0000 35.8238 0.0000
# 6 0.0000 0.0000 0.0000 0.0000 0.0000 23.9319
#
#
#
# Elastic Compliance Matrix: (Units=1/GPa)
#
#
# Indices 1 2 3 4 5 6 
#
# 1 0.012818 0.000886 -0.003121 0.000000 0.000000 0.000000
# 2 0.000886 0.012557 -0.002902 0.000000 0.000000 0.000000
# 3 -0.003121 -0.002902 0.010402 0.000000 0.000000 0.000000
# 4 0.000000 0.000000 0.000000 0.026350 0.000000 0.000000
# 5 0.000000 0.000000 0.000000 0.000000 0.027914 0.000000
# 6 0.000000 0.000000 0.000000 0.000000 0.000000 0.041785
#
#
# Mechanical properties :
#
#
# Convention : Reuss Voigt Hill
#
# Bulk Modulus (GPa) = 39.20958 41.91656 40.56307
# Shear Modulus (GPa) = 33.20016 34.92655 34.06335
#
# Velocity S-wave (km/s) = 3.58770 3.67980 3.63404
# Velocity P-wave (km/s) = 5.68890 5.85709 5.77361
#
# Compressibility (1/GPa) = 0.02550397
#
# Stress axis : x y z
#
# Youngs Moduli (GPa) = 78.01609 79.63418 96.13478
#
# Poissons Ratio (x) = -0.07055 0.30005
# Poissons Ratio (y) = -0.06912 0.27894
# Poissons Ratio (z) = 0.24350 0.23106
#
# Static dielectric constant tensor:
#      x y z
#    x 2.140940 0.000000 0.000000 
#    y 0.000000 2.269030 0.000000 
#    z 0.000000 0.000000 2.062270 
# 
# From -- ./inp_files/13386.got.cif
#   From: 2010.05.17/outbox.cif.g08.bks.cpg/sg60_7_cif.got.tgz:13386.got - 2010.06.03 14:59:27.
