data_PCOD9456897
_publ_section_title
;
Structure prediction by ZEFSAII (Michael W. Deem and Ramdas Pophale) SiO2 
 PCOD9456897
Probable space group: P B C N
;
_chemical_formula_sum "Si O2"
_cell_formula_units_Z 40
_cell_length_a 10.402078
_cell_length_b 16.737773
_cell_length_c 10.027416
_cell_angle_alpha 90.000000
_cell_angle_beta 90.000000
_cell_angle_gamma 90.000000
_cell_volume 1745.849537
_symmetry_space_group_name_H-M "P B C N"
_symmetry_group_IT_number 60
_symmetry_cell_setting 'orthorhombic'
loop_
_space_group_symop_operation_xyz
x,y,z
1/2-x,1/2-y,1/2+z
1/2+x,1/2-y,-z
-x,y,1/2-z
-x,-y,-z
1/2+x,1/2+y,1/2-z
1/2-x,1/2+y,z
x,-y,1/2+z
loop_
_atom_site_type_symbol
_atom_site_label
_atom_site_fract_x
_atom_site_fract_y
_atom_site_fract_z
Si Si1 0.274445 0.595838 0.023995
Si Si2 0.501977 0.919165 0.088355
Si Si3 0.854167 0.815312 0.717909
Si Si4 0.132903 0.185421 0.788474
Si Si5 0.216535 0.906219 0.041458
O O1 0.371035 0.645683 0.932650
O O2 0.288951 0.499431 0.511898
O O3 0.133803 0.619424 0.964406
O O4 0.301026 0.621157 0.174374
O O5 0.500000 0.932058 0.250000
O O6 0.366497 0.879456 0.051438
O O7 0.500000 0.000000 0.000000
O O8 0.752693 0.744013 0.723046
O O9 0.848508 0.856408 0.574597
O O10 0.000000 0.790491 0.750000
O O11 0.154744 0.114285 0.682946
O O12 0.000000 0.227384 0.750000
#
# Coordination Sequence:
#
# PCOD9456897 Si02
#       5
#     8   8   8   8   8
#     4  11  25  45  75 106 143 186 244 302 360 425
#     4  10  22  40  72 112 146 182 229 296 364 422
#     4  12  29  47  72 104 146 195 238 297 369 435
#     4  12  27  47  72 104 146 193 238 297 371 439
#     4  11  25  45  75 106 143 186 244 302 360 425
#
# _framework density 22.911483
#
# number of rings (size 3 to 8) (size 9 to 14) (size 15 to 20)
#    0.000    0.800    2.000    3.600   14.000    4.800 
#    0.000    0.000    0.000    0.000    0.000    0.000 
#    0.000    0.000    0.000    0.000    0.000    0.000 
#
# Total GULP energy -223822.809706 kJ/mol
# GULP energy per Si atom -5595.570243 kJ/mol
# Density = 2.285934 g / cm^3
# Si number density = 22.911483 Si / 1000 Ang^3
#
#
#
# Elastic Constant Matrix: (Units=GPa)
#
#
# Indices 1 2 3 4 5 6 
#
# 1 145.5797 40.0881 24.5465 0.0000 0.0000 0.0000
# 2 40.0881 73.5723 3.7793 0.0000 0.0000 0.0000
# 3 24.5465 3.7793 101.6769 0.0000 0.0000 0.0000
# 4 0.0000 0.0000 0.0000 49.4587 0.0000 0.0000
# 5 0.0000 0.0000 0.0000 0.0000 28.3342 0.0000
# 6 0.0000 0.0000 0.0000 0.0000 0.0000 9.1991
#
#
#
# Elastic Compliance Matrix: (Units=1/GPa)
#
#
# Indices 1 2 3 4 5 6 
#
# 1 0.008421 -0.004492 -0.001866 0.000000 0.000000 0.000000
# 2 -0.004492 0.016015 0.000489 0.000000 0.000000 0.000000
# 3 -0.001866 0.000489 0.010267 0.000000 0.000000 0.000000
# 4 0.000000 0.000000 0.000000 0.020219 0.000000 0.000000
# 5 0.000000 0.000000 0.000000 0.000000 0.035293 0.000000
# 6 0.000000 0.000000 0.000000 0.000000 0.000000 0.108707
#
#
# Mechanical properties :
#
#
# Convention : Reuss Voigt Hill
#
# Bulk Modulus (GPa) = 43.54509 50.85076 47.19792
# Shear Modulus (GPa) = 22.90271 34.22606 28.56439
#
# Velocity S-wave (km/s) = 3.16510 3.86921 3.53473
# Velocity P-wave (km/s) = 5.69247 6.49644 6.10770
#
# Compressibility (1/GPa) = 0.02296470
#
# Stress axis : x y z
#
# Youngs Moduli (GPa) = 118.75353 62.44220 97.39608
#
# Poissons Ratio (x) = 0.28052 0.18173
# Poissons Ratio (y) = 0.53350 -0.04765
# Poissons Ratio (z) = 0.22159 -0.03055
#
# Static dielectric constant tensor:
#      x y z
#    x 1.603860 0.000000 0.000000 
#    y 0.000000 1.840530 0.000000 
#    z 0.000000 0.000000 1.821270 
# 
# From -- ./inp_files/3833.got.cif
#   From: 2010.05.17/outbox.cif.g08.bks.cpg/sg60_2_cif.got.tgz:3833.got - 2010.06.03 14:59:27.
