data_PCOD9456279
_publ_section_title
;
Structure prediction by ZEFSAII (Michael W. Deem and Ramdas Pophale) SiO2 
 PCOD9456279
Probable space group: P B C N
;
_chemical_formula_sum "Si O2"
_cell_formula_units_Z 56
_cell_length_a 18.481502
_cell_length_b 9.450325
_cell_length_c 16.108876
_cell_angle_alpha 90.000000
_cell_angle_beta 90.000000
_cell_angle_gamma 90.000000
_cell_volume 2813.515075
_symmetry_space_group_name_H-M "P B C N"
_symmetry_group_IT_number 60
_symmetry_cell_setting 'orthorhombic'
loop_
_space_group_symop_operation_xyz
x,y,z
1/2-x,1/2-y,1/2+z
1/2+x,1/2-y,-z
-x,y,1/2-z
-x,-y,-z
1/2+x,1/2+y,1/2-z
1/2-x,1/2+y,z
x,-y,1/2+z
loop_
_atom_site_type_symbol
_atom_site_label
_atom_site_fract_x
_atom_site_fract_y
_atom_site_fract_z
Si Si1 0.795532 0.288795 0.159505
Si Si2 0.324385 0.027349 0.073830
Si Si3 0.699501 0.716389 0.496605
Si Si4 0.544471 0.846049 0.666349
Si Si5 0.194785 0.592695 0.262085
Si Si6 0.465090 0.349485 0.480546
Si Si7 0.566165 0.134720 0.567435
O O1 0.744389 0.255834 0.080999
O O2 0.787204 0.450416 0.187829
O O3 0.766010 0.189650 0.232750
O O4 0.878028 0.281663 0.127742
O O5 0.334176 0.051119 0.171398
O O6 0.313873 0.864482 0.049393
O O7 0.250901 0.110659 0.052839
O O8 0.386932 0.090826 0.014091
O O9 0.621348 0.648445 0.511807
O O10 0.500000 0.861546 0.750000
O O11 0.628192 0.830294 0.692385
O O12 0.519264 0.714787 0.610599
O O13 0.541847 0.990111 0.612071
O O14 0.500000 0.500000 0.500000
O O15 0.500105 0.233732 0.542245
#
# Coordination Sequence:
#
# PCOD9456279 Si02
#       7
#     8   8   8   8   8   8   8
#     4  10  21  40  65  90 128 166 221 264 332 376
#     4  11  23  41  70  97 129 172 231 268 325 397
#     4  11  23  42  65  94 131 174 220 270 325 403
#     4  11  23  44  70  94 128 173 221 274 337 399
#     4  11  22  39  65  96 124 168 214 277 319 388
#     4  12  26  42  65  99 137 175 220 275 344 403
#     4  10  23  42  69  94 129 182 220 271 330 410
#
# _framework density 19.903926999999999
#
# number of rings (size 3 to 8) (size 9 to 14) (size 15 to 20)
#    0.000    1.143    2.857    3.857    8.000    0.000 
#    2.571    0.714    0.000    0.000    0.000    0.000 
#    0.000    0.000    0.000    0.000    0.000    0.000 
#
# Total GULP energy -312936.434976 kJ/mol
# GULP energy per Si atom -5588.150625 kJ/mol
# Density = 1.985863 g / cm^3
# Si number density = 19.903927 Si / 1000 Ang^3
#
#
#
# Elastic Constant Matrix: (Units=GPa)
#
#
# Indices 1 2 3 4 5 6 
#
# 1 54.1900 12.1304 16.4733 0.0000 0.0000 0.0000
# 2 12.1304 53.3651 40.6816 0.0000 0.0000 0.0000
# 3 16.4733 40.6816 93.1529 0.0000 0.0000 0.0000
# 4 0.0000 0.0000 0.0000 25.7080 0.0000 0.0000
# 5 0.0000 0.0000 0.0000 0.0000 34.4448 0.0000
# 6 0.0000 0.0000 0.0000 0.0000 0.0000 27.7209
#
#
#
# Elastic Compliance Matrix: (Units=1/GPa)
#
#
# Indices 1 2 3 4 5 6 
#
# 1 0.019766 -0.002741 -0.002298 0.000000 0.000000 0.000000
# 2 -0.002741 0.028471 -0.011949 0.000000 0.000000 0.000000
# 3 -0.002298 -0.011949 0.016360 0.000000 0.000000 0.000000
# 4 0.000000 0.000000 0.000000 0.038898 0.000000 0.000000
# 5 0.000000 0.000000 0.000000 0.000000 0.029032 0.000000
# 6 0.000000 0.000000 0.000000 0.000000 0.000000 0.036074
#
#
# Mechanical properties :
#
#
# Convention : Reuss Voigt Hill
#
# Bulk Modulus (GPa) = 32.65843 37.69762 35.17803
# Shear Modulus (GPa) = 23.49797 26.33626 24.91712
#
# Velocity S-wave (km/s) = 3.43967 3.64149 3.54202
# Velocity P-wave (km/s) = 5.67616 6.05487 5.86857
#
# Compressibility (1/GPa) = 0.03061996
#
# Stress axis : x y z
#
# Youngs Moduli (GPa) = 50.59236 35.12348 61.12505
#
# Poissons Ratio (x) = 0.09627 0.14049
# Poissons Ratio (y) = 0.13866 0.73039
# Poissons Ratio (z) = 0.11628 0.41969
#
# Static dielectric constant tensor:
#      x y z
#    x 1.714540 0.000000 0.000000 
#    y 0.000000 1.671420 0.000000 
#    z 0.000000 0.000000 1.746310 
# 
# From -- ./inp_files/17699.got.cif
#   From: 2010.05.17/outbox.cif.g08.bks.cpg/sg60_9_cif.got.tgz:17699.got - 2010.06.03 14:59:27.
