data_PCOD9456096
_publ_section_title
;
Structure prediction by ZEFSAII (Michael W. Deem and Ramdas Pophale) SiO2 
 PCOD9456096
Probable space group: P B C N
;
_chemical_formula_sum "Si O2"
_cell_formula_units_Z 48
_cell_length_a 9.270899
_cell_length_b 23.516614
_cell_length_c 10.769952
_cell_angle_alpha 90.000000
_cell_angle_beta 90.000000
_cell_angle_gamma 90.000000
_cell_volume 2348.066585
_symmetry_space_group_name_H-M "P B C N"
_symmetry_group_IT_number 60
_symmetry_cell_setting 'orthorhombic'
loop_
_space_group_symop_operation_xyz
x,y,z
1/2-x,1/2-y,1/2+z
1/2+x,1/2-y,-z
-x,y,1/2-z
-x,-y,-z
1/2+x,1/2+y,1/2-z
1/2-x,1/2+y,z
x,-y,1/2+z
loop_
_atom_site_type_symbol
_atom_site_label
_atom_site_fract_x
_atom_site_fract_y
_atom_site_fract_z
Si Si1 0.281998 0.338790 0.681316
Si Si2 0.916497 0.140650 0.057307
Si Si3 0.341694 0.869213 0.282336
Si Si4 0.138860 0.222616 0.674353
Si Si5 0.704772 0.948620 0.453912
Si Si6 0.609976 0.924836 0.952166
O O1 0.419870 0.361725 0.604691
O O2 0.325566 0.337354 0.824964
O O3 0.236169 0.276189 0.638764
O O4 0.153230 0.382117 0.655529
O O5 0.902611 0.185107 0.944927
O O6 0.844309 0.081055 0.014646
O O7 0.500000 0.845263 0.250000
O O8 0.226174 0.820196 0.263243
O O9 0.314705 0.918137 0.179528
O O10 0.344308 0.895637 0.418140
O O11 0.000000 0.243263 0.750000
O O12 0.561123 0.935193 0.534934
O O13 0.696110 0.016128 0.438297
#
# Coordination Sequence:
#
# PCOD9456096 Si02
#       6
#     8   8   8   8   8   8
#     4  11  26  40  63  94 127 166 209 269 319 379
#     4  10  25  44  60  93 132 163 215 262 324 381
#     4   9  20  39  61  90 126 167 210 260 320 378
#     4  11  25  41  66  91 123 173 212 259 319 390
#     4   9  21  40  64  95 125 168 214 267 310 383
#     4  10  21  38  67  94 127 167 217 262 317 375
#
# _framework density 20.442350999999999
#
# number of rings (size 3 to 8) (size 9 to 14) (size 15 to 20)
#    0.000    2.000    0.000    1.000   11.667    2.000 
#    0.000    0.000    0.000    0.000    0.000    0.000 
#    0.000    0.000    0.000    0.000    0.000    0.000 
#
# Total GULP energy -268222.503721 kJ/mol
# GULP energy per Si atom -5587.968828 kJ/mol
# Density = 2.039582 g / cm^3
# Si number density = 20.442351 Si / 1000 Ang^3
#
#
#
# Elastic Constant Matrix: (Units=GPa)
#
#
# Indices 1 2 3 4 5 6 
#
# 1 60.4234 29.2213 25.7846 0.0000 0.0000 0.0000
# 2 29.2213 91.1029 3.4387 0.0000 0.0000 0.0000
# 3 25.7846 3.4387 43.4508 0.0000 0.0000 0.0000
# 4 0.0000 0.0000 0.0000 3.1215 0.0000 0.0000
# 5 0.0000 0.0000 0.0000 0.0000 21.8258 0.0000
# 6 0.0000 0.0000 0.0000 0.0000 0.0000 -9.9201
#
#
#
# Elastic Compliance Matrix: (Units=1/GPa)
#
#
# Indices 1 2 3 4 5 6 
#
# 1 0.027035 -0.008090 -0.015403 0.000000 0.000000 0.000000
# 2 -0.008090 0.013430 0.003738 0.000000 0.000000 0.000000
# 3 -0.015403 0.003738 0.031859 0.000000 0.000000 0.000000
# 4 0.000000 0.000000 0.000000 0.320363 0.000000 0.000000
# 5 0.000000 0.000000 0.000000 0.000000 0.045817 0.000000
# 6 0.000000 0.000000 0.000000 0.000000 0.000000 -0.100806
#
#
# Mechanical properties :
#
#
# Convention : Reuss Voigt Hill
#
# Bulk Modulus (GPa) = 30.47441 34.65185 32.56313
# Shear Modulus (GPa) = 12.88166 12.10760 12.49463
#
# Velocity S-wave (km/s) = 2.51299 2.43632 2.47495
# Velocity P-wave (km/s) = 4.83322 4.99019 4.91233
#
# Compressibility (1/GPa) = 0.03281442
#
# Stress axis : x y z
#
# Youngs Moduli (GPa) = 36.98854 74.45769 31.38809
#
# Poissons Ratio (x) = 0.60238 0.48347
# Poissons Ratio (y) = 0.29925 -0.11733
# Poissons Ratio (z) = 0.56974 -0.27832
#
# Static dielectric constant tensor:
#      x y z
#    x 1.735360 0.000000 0.000000 
#    y 0.000000 1.677120 0.000000 
#    z 0.000000 0.000000 1.709260 
# 
# From -- ./inp_files/10076.got.cif
#   From: 2010.05.17/outbox.cif.g08.bks.cpg/sg60_6_cif.got.tgz:10076.got - 2010.06.03 14:59:27.
