data_PCOD9456081
_publ_section_title
;
Structure prediction by ZEFSAII (Michael W. Deem and Ramdas Pophale) SiO2 
 PCOD9456081
Probable space group: P B C N
;
_chemical_formula_sum "Si O2"
_cell_formula_units_Z 32
_cell_length_a 8.810601
_cell_length_b 5.465937
_cell_length_c 25.577043
_cell_angle_alpha 90.000000
_cell_angle_beta 90.000000
_cell_angle_gamma 90.000000
_cell_volume 1231.744096
_symmetry_space_group_name_H-M "P B C N"
_symmetry_group_IT_number 60
_symmetry_cell_setting 'orthorhombic'
loop_
_space_group_symop_operation_xyz
x,y,z
1/2-x,1/2-y,1/2+z
1/2+x,1/2-y,-z
-x,y,1/2-z
-x,-y,-z
1/2+x,1/2+y,1/2-z
1/2-x,1/2+y,z
x,-y,1/2+z
loop_
_atom_site_type_symbol
_atom_site_label
_atom_site_fract_x
_atom_site_fract_y
_atom_site_fract_z
Si Si1 0.940480 0.960745 0.058061
Si Si2 0.818195 0.863547 0.312712
Si Si3 0.120327 0.340280 0.789924
Si Si4 0.398261 0.039624 0.901546
O O1 0.981920 0.205079 0.090082
O O2 0.757160 0.945307 0.064813
O O3 0.990962 0.695291 0.078678
O O4 0.000000 0.000000 0.000000
O O5 0.741988 0.105481 0.333926
O O6 0.780475 0.827542 0.249591
O O7 0.999432 0.863763 0.313247
O O8 0.154917 0.493491 0.841743
O O9 0.000000 0.469777 0.750000
#
# Coordination Sequence:
#
# PCOD9456081 Si02
#       4
#     8   8   8   8
#     4  10  22  38  65  90 120 153 215 263 301 353
#     4   9  20  34  56  80 134 159 198 240 292 338
#     4   8  22  35  61  97 125 161 204 242 295 383
#     4  10  21  38  65  91 117 164 196 245 326 360
#
# _framework density 25.979422
#
# number of rings (size 3 to 8) (size 9 to 14) (size 15 to 20)
#    1.500    1.000    0.000    0.750    7.000    6.000 
#    0.000    0.000   33.000    0.000    0.000    0.000 
#    0.000    0.000    0.000    0.000    0.000    0.000 
#
# Total GULP energy -178365.179433 kJ/mol
# GULP energy per Si atom -5573.911857 kJ/mol
# Density = 2.592029 g / cm^3
# Si number density = 25.979422 Si / 1000 Ang^3
#
#
#
# Elastic Constant Matrix: (Units=GPa)
#
#
# Indices 1 2 3 4 5 6 
#
# 1 73.3562 11.8041 36.1396 0.0000 0.0000 0.0000
# 2 11.8041 205.0999 28.8161 0.0000 0.0000 0.0000
# 3 36.1396 28.8161 152.1414 0.0000 0.0000 0.0000
# 4 0.0000 0.0000 0.0000 18.8626 0.0000 0.0000
# 5 0.0000 0.0000 0.0000 0.0000 44.3612 0.0000
# 6 0.0000 0.0000 0.0000 0.0000 0.0000 -1.9196
#
#
#
# Elastic Compliance Matrix: (Units=1/GPa)
#
#
# Indices 1 2 3 4 5 6 
#
# 1 0.015468 -0.000384 -0.003602 0.000000 0.000000 0.000000
# 2 -0.000384 0.005019 -0.000859 0.000000 0.000000 0.000000
# 3 -0.003602 -0.000859 0.007591 0.000000 0.000000 0.000000
# 4 0.000000 0.000000 0.000000 0.053015 0.000000 0.000000
# 5 0.000000 0.000000 0.000000 0.000000 0.022542 0.000000
# 6 0.000000 0.000000 0.000000 0.000000 0.000000 -0.520935
#
#
# Mechanical properties :
#
#
# Convention : Reuss Voigt Hill
#
# Bulk Modulus (GPa) = 54.38385 64.90188 59.64286
# Shear Modulus (GPa) = -12.45390 35.85001 11.69805
#
# Velocity S-wave (km/s) = -2.19184 3.71878 2.12429
# Velocity P-wave (km/s) = 3.81750 6.59359 5.38743
#
# Compressibility (1/GPa) = 0.01838781
#
# Stress axis : x y z
#
# Youngs Moduli (GPa) = 64.64839 199.26230 131.73338
#
# Poissons Ratio (x) = 0.07656 0.47444
# Poissons Ratio (y) = 0.02484 0.11319
# Poissons Ratio (z) = 0.23283 0.17122
#
# Static dielectric constant tensor:
#      x y z
#    x 2.190830 0.000000 0.000000 
#    y 0.000000 2.246240 0.000000 
#    z 0.000000 0.000000 3.738630 
# 
# From -- ./inp_files/22760.got.cif
#   From: 2010.05.17/outbox.cif.g08.bks.cpg/sg60_12_cif.got.tgz:22760.got - 2010.06.03 14:59:27.
