data_PCOD9456448
_publ_section_title
;
Structure prediction by ZEFSAII (Michael W. Deem and Ramdas Pophale) SiO2 
 PCOD9456448
Probable space group: P B C N
;
_chemical_formula_sum "Si O2"
_cell_formula_units_Z 44
_cell_length_a 8.580916
_cell_length_b 18.630291
_cell_length_c 14.170273
_cell_angle_alpha 90.000000
_cell_angle_beta 90.000000
_cell_angle_gamma 90.000000
_cell_volume 2265.330156
_symmetry_space_group_name_H-M "P B C N"
_symmetry_group_IT_number 60
_symmetry_cell_setting 'orthorhombic'
loop_
_space_group_symop_operation_xyz
x,y,z
1/2-x,1/2-y,1/2+z
1/2+x,1/2-y,-z
-x,y,1/2-z
-x,-y,-z
1/2+x,1/2+y,1/2-z
1/2-x,1/2+y,z
x,-y,1/2+z
loop_
_atom_site_type_symbol
_atom_site_label
_atom_site_fract_x
_atom_site_fract_y
_atom_site_fract_z
Si Si1 0.978859 0.456312 0.404972
Si Si2 0.679188 0.301573 0.234901
Si Si3 0.148845 0.203184 0.112700
Si Si4 0.611649 0.197460 0.551052
Si Si5 0.000000 0.086684 0.250000
Si Si6 0.749217 0.468679 0.245942
O O1 0.007508 0.372355 0.425550
O O2 0.112671 0.473225 0.329380
O O3 0.000000 0.500000 0.500000
O O4 0.819458 0.475338 0.351210
O O5 0.500000 0.277558 0.250000
O O6 0.787023 0.261623 0.311922
O O7 0.762682 0.287783 0.134358
O O8 0.683023 0.387951 0.243406
O O9 0.076359 0.137416 0.170970
O O10 0.009299 0.237206 0.051247
O O11 0.291778 0.184947 0.044038
O O12 0.132679 0.031435 0.281891
#
# Coordination Sequence:
#
# PCOD9456448 Si02
#       6
#     8   8   8   8   4   8
#     4  10  21  42  65  91 129 177 223 264 334 400
#     4  11  21  44  67  91 129 185 221 266 342 407
#     4  12  24  43  67  98 142 171 227 284 335 398
#     4  11  23  41  66  99 131 180 225 274 335 409
#     4  12  24  44  64 104 138 166 228 294 326 376
#     4  10  22  41  68  90 131 175 219 273 332 397
#
# _framework density 19.423217999999999
#
# number of rings (size 3 to 8) (size 9 to 14) (size 15 to 20)
#    0.000    1.091    4.545    2.182    0.000    1.455 
#    9.818    2.727    0.000    0.000    0.000    0.000 
#    0.000    0.000    0.000    0.000    0.000    0.000 
#
# Total GULP energy -245585.003140 kJ/mol
# GULP energy per Si atom -5581.477344 kJ/mol
# Density = 1.937901 g / cm^3
# Si number density = 19.423218 Si / 1000 Ang^3
#
#
#
# Elastic Constant Matrix: (Units=GPa)
#
#
# Indices 1 2 3 4 5 6 
#
# 1 72.5047 39.3845 12.2911 0.0000 0.0000 0.0000
# 2 39.3845 82.6749 16.9003 0.0000 0.0000 0.0000
# 3 12.2911 16.9003 88.1704 0.0000 0.0000 0.0000
# 4 0.0000 0.0000 0.0000 24.5792 0.0000 0.0000
# 5 0.0000 0.0000 0.0000 0.0000 35.4364 0.0000
# 6 0.0000 0.0000 0.0000 0.0000 0.0000 53.1690
#
#
#
# Elastic Compliance Matrix: (Units=1/GPa)
#
#
# Indices 1 2 3 4 5 6 
#
# 1 0.018681 -0.008708 -0.000935 0.000000 0.000000 0.000000
# 2 -0.008708 0.016648 -0.001977 0.000000 0.000000 0.000000
# 3 -0.000935 -0.001977 0.011851 0.000000 0.000000 0.000000
# 4 0.000000 0.000000 0.000000 0.040685 0.000000 0.000000
# 5 0.000000 0.000000 0.000000 0.000000 0.028220 0.000000
# 6 0.000000 0.000000 0.000000 0.000000 0.000000 0.018808
#
#
# Mechanical properties :
#
#
# Convention : Reuss Voigt Hill
#
# Bulk Modulus (GPa) = 41.77186 42.27798 42.02492
# Shear Modulus (GPa) = 30.10009 34.28853 32.19431
#
# Velocity S-wave (km/s) = 3.94089 4.20615 4.07568
# Velocity P-wave (km/s) = 6.50079 6.73817 6.62054
#
# Compressibility (1/GPa) = 0.02393956
#
# Stress axis : x y z
#
# Youngs Moduli (GPa) = 53.53066 60.06717 84.38108
#
# Poissons Ratio (x) = 0.52307 0.07890
# Poissons Ratio (y) = 0.46615 0.16683
# Poissons Ratio (z) = 0.05005 0.11876
#
# Static dielectric constant tensor:
#      x y z
#    x 2.079540 0.000000 0.000000 
#    y 0.000000 1.663790 0.000000 
#    z 0.000000 0.000000 1.663650 
# 
# From -- ./inp_files/14912.got.cif
#   From: 2010.05.17/outbox.cif.g08.bks.cpg/sg60_8_cif.got.tgz:14912.got - 2010.06.03 14:59:27.
