data_PCOD9456889
_publ_section_title
;
Structure prediction by ZEFSAII (Michael W. Deem and Ramdas Pophale) SiO2 
 PCOD9456889
Probable space group: P B C N
;
_chemical_formula_sum "Si O2"
_cell_formula_units_Z 48
_cell_length_a 8.774761
_cell_length_b 27.405261
_cell_length_c 9.450552
_cell_angle_alpha 90.000000
_cell_angle_beta 90.000000
_cell_angle_gamma 90.000000
_cell_volume 2272.617858
_symmetry_space_group_name_H-M "P B C N"
_symmetry_group_IT_number 60
_symmetry_cell_setting 'orthorhombic'
loop_
_space_group_symop_operation_xyz
x,y,z
1/2-x,1/2-y,1/2+z
1/2+x,1/2-y,-z
-x,y,1/2-z
-x,-y,-z
1/2+x,1/2+y,1/2-z
1/2-x,1/2+y,z
x,-y,1/2+z
loop_
_atom_site_type_symbol
_atom_site_label
_atom_site_fract_x
_atom_site_fract_y
_atom_site_fract_z
Si Si1 0.248567 0.894784 0.923552
Si Si2 0.000000 0.832110 0.750000
Si Si3 0.739786 0.228543 0.407692
Si Si4 0.882901 0.995323 0.630207
Si Si5 0.675628 0.804528 0.205984
Si Si6 0.319940 0.600288 0.753861
Si Si7 0.000000 0.338559 0.750000
O O1 0.107136 0.865702 0.850256
O O2 0.396559 0.870827 0.854095
O O3 0.235140 0.952064 0.888510
O O4 0.240251 0.894724 0.093641
O O5 0.107007 0.798039 0.650552
O O6 0.737596 0.282160 0.340590
O O7 0.717933 0.230155 0.575089
O O8 0.604967 0.195943 0.345307
O O9 0.809590 0.046767 0.676656
O O10 0.000000 0.979692 0.750000
O O11 0.000000 0.000000 0.500000
O O12 0.500000 0.806298 0.250000
O O13 0.733388 0.857736 0.161961
O O14 0.500000 0.610687 0.750000
#
# Coordination Sequence:
#
# PCOD9456889 Si02
#       7
#     8   4   8   8   8   8   4
#     4  11  21  42  66  96 136 176 229 284 352 416
#     4  10  22  40  70  96 128 180 234 282 340 414
#     4  11  26  44  69  99 135 182 235 284 353 417
#     4  11  21  39  67 100 130 174 231 283 343 420
#     4  12  28  45  70 101 142 182 236 290 355 422
#     4  11  24  41  69  98 133 179 231 290 346 413
#     4  10  26  42  66 100 140 180 222 292 354 422
#
# _framework density 21.121016000000001
#
# number of rings (size 3 to 8) (size 9 to 14) (size 15 to 20)
#    0.000    1.000    5.000    2.000    8.167    0.000 
#    1.500    0.833    0.000    0.000    0.000    0.000 
#    0.000    0.000    0.000    0.000    0.000    0.000 
#
# Total GULP energy -268384.015049 kJ/mol
# GULP energy per Si atom -5591.333647 kJ/mol
# Density = 2.107294 g / cm^3
# Si number density = 21.121016 Si / 1000 Ang^3
#
#
#
# Elastic Constant Matrix: (Units=GPa)
#
#
# Indices 1 2 3 4 5 6 
#
# 1 83.7718 41.1454 8.6494 0.0000 0.0000 0.0000
# 2 41.1454 122.6979 5.8569 0.0000 0.0000 0.0000
# 3 8.6494 5.8569 76.9121 0.0000 0.0000 0.0000
# 4 0.0000 0.0000 0.0000 17.8102 0.0000 0.0000
# 5 0.0000 0.0000 0.0000 0.0000 23.4169 0.0000
# 6 0.0000 0.0000 0.0000 0.0000 0.0000 4.4276
#
#
#
# Elastic Compliance Matrix: (Units=1/GPa)
#
#
# Indices 1 2 3 4 5 6 
#
# 1 0.014411 -0.004773 -0.001257 0.000000 0.000000 0.000000
# 2 -0.004773 0.009760 -0.000207 0.000000 0.000000 0.000000
# 3 -0.001257 -0.000207 0.013159 0.000000 0.000000 0.000000
# 4 0.000000 0.000000 0.000000 0.056148 0.000000 0.000000
# 5 0.000000 0.000000 0.000000 0.000000 0.042704 0.000000
# 6 0.000000 0.000000 0.000000 0.000000 0.000000 0.225858
#
#
# Mechanical properties :
#
#
# Convention : Reuss Voigt Hill
#
# Bulk Modulus (GPa) = 40.22885 43.85390 42.04138
# Shear Modulus (GPa) = 13.06169 24.31294 18.68732
#
# Velocity S-wave (km/s) = 2.48951 3.39651 2.97774
# Velocity P-wave (km/s) = 5.22989 6.01580 5.63656
#
# Compressibility (1/GPa) = 0.02485778
#
# Stress axis : x y z
#
# Youngs Moduli (GPa) = 69.39089 102.45480 75.99382
#
# Poissons Ratio (x) = 0.48898 0.09554
# Poissons Ratio (y) = 0.33118 0.01570
# Poissons Ratio (z) = 0.08724 0.02116
#
# Static dielectric constant tensor:
#      x y z
#    x 1.702750 0.000000 0.000000 
#    y 0.000000 1.789260 0.000000 
#    z 0.000000 0.000000 1.808220 
# 
# From -- ./inp_files/4256.got.cif
#   From: 2010.05.17/outbox.cif.g08.bks.cpg/sg60_3_cif.got.tgz:4256.got - 2010.06.03 14:59:27.
