data_PCOD9456046
_publ_section_title
;
Structure prediction by ZEFSAII (Michael W. Deem and Ramdas Pophale) SiO2 
 PCOD9456046
Probable space group: P B C N
;
_chemical_formula_sum "Si O2"
_cell_formula_units_Z 56
_cell_length_a 5.044778
_cell_length_b 35.036585
_cell_length_c 13.862633
_cell_angle_alpha 90.000000
_cell_angle_beta 90.000000
_cell_angle_gamma 90.000000
_cell_volume 2450.245241
_symmetry_space_group_name_H-M "P B C N"
_symmetry_group_IT_number 60
_symmetry_cell_setting 'orthorhombic'
loop_
_space_group_symop_operation_xyz
x,y,z
1/2-x,1/2-y,1/2+z
1/2+x,1/2-y,-z
-x,y,1/2-z
-x,-y,-z
1/2+x,1/2+y,1/2-z
1/2-x,1/2+y,z
x,-y,1/2+z
loop_
_atom_site_type_symbol
_atom_site_label
_atom_site_fract_x
_atom_site_fract_y
_atom_site_fract_z
Si Si1 0.452330 0.725859 0.507689
Si Si2 0.123320 0.855378 0.550620
Si Si3 0.763528 0.319769 0.314361
Si Si4 0.495755 0.975625 0.632939
Si Si5 0.408140 0.394225 0.138409
Si Si6 0.616197 0.889920 0.641218
Si Si7 0.499611 0.479446 0.366853
O O1 0.719718 0.748262 0.537152
O O2 0.547890 0.689100 0.447691
O O3 0.304363 0.707850 0.599293
O O4 0.080419 0.872561 0.443093
O O5 0.917673 0.877359 0.621651
O O6 0.423013 0.862555 0.581251
O O7 0.500000 0.322423 0.250000
O O8 0.826807 0.363059 0.350944
O O9 0.000000 0.305357 0.250000
O O10 0.500000 0.975162 0.750000
O O11 0.577335 0.933204 0.604340
O O12 0.705375 0.008155 0.604014
O O13 0.203018 0.987720 0.603002
O O14 0.500000 0.398489 0.250000
O O15 0.393000 0.437894 0.104046
O O16 0.500000 0.888474 0.750000
O O17 0.500000 0.479850 0.250000
#
# Coordination Sequence:
#
# PCOD9456046 Si02
#       7
#     8   8   8   8   8   8   8
#     4  11  23  43  66  91 126 159 192 250 317 373
#     4  11  24  42  66  95 121 159 211 251 307 382
#     4  10  21  38  62  91 121 161 204 243 303 384
#     4   9  18  33  55  80 115 163 208 251 304 351
#     4   9  21  38  62  91 127 162 201 256 312 372
#     4  11  23  43  65  88 124 169 215 263 302 348
#     4   9  17  31  53  84 118 157 201 250 308 362
#
# _framework density 22.854856999999999
#
# number of rings (size 3 to 8) (size 9 to 14) (size 15 to 20)
#    0.000    2.000    0.000    3.000    0.000   13.143 
#    0.000   11.429    0.000    0.000    0.000    0.000 
#    0.000    0.000    0.000    0.000    0.000    0.000 
#
# Total GULP energy -312673.358782 kJ/mol
# GULP energy per Si atom -5583.452835 kJ/mol
# Density = 2.280284 g / cm^3
# Si number density = 22.854857 Si / 1000 Ang^3
#
#
#
# Elastic Constant Matrix: (Units=GPa)
#
#
# Indices 1 2 3 4 5 6 
#
# 1 87.3959 16.7357 -5.1747 0.0000 0.0000 0.0000
# 2 16.7357 127.3844 1.8255 0.0000 0.0000 0.0000
# 3 -5.1747 1.8255 70.1784 0.0000 0.0000 0.0000
# 4 0.0000 0.0000 0.0000 17.7983 0.0000 0.0000
# 5 0.0000 0.0000 0.0000 0.0000 28.1659 0.0000
# 6 0.0000 0.0000 0.0000 0.0000 0.0000 26.3632
#
#
#
# Elastic Compliance Matrix: (Units=1/GPa)
#
#
# Indices 1 2 3 4 5 6 
#
# 1 0.011795 -0.001563 0.000910 0.000000 0.000000 0.000000
# 2 -0.001563 0.008060 -0.000325 0.000000 0.000000 0.000000
# 3 0.000910 -0.000325 0.014325 0.000000 0.000000 0.000000
# 4 0.000000 0.000000 0.000000 0.056185 0.000000 0.000000
# 5 0.000000 0.000000 0.000000 0.000000 0.035504 0.000000
# 6 0.000000 0.000000 0.000000 0.000000 0.000000 0.037932
#
#
# Mechanical properties :
#
#
# Convention : Reuss Voigt Hill
#
# Bulk Modulus (GPa) = 31.03075 34.63687 32.83381
# Shear Modulus (GPa) = 28.32899 32.57029 30.44964
#
# Velocity S-wave (km/s) = 3.52450 3.77914 3.65403
# Velocity P-wave (km/s) = 5.49268 5.85069 5.67451
#
# Compressibility (1/GPa) = 0.03222610
#
# Stress axis : x y z
#
# Youngs Moduli (GPa) = 84.77930 124.06607 69.80810
#
# Poissons Ratio (x) = 0.19388 -0.06355
# Poissons Ratio (y) = 0.13249 0.02268
# Poissons Ratio (z) = -0.07718 0.04031
#
# Static dielectric constant tensor:
#      x y z
#    x 1.810580 0.000000 0.000000 
#    y 0.000000 1.870130 0.000000 
#    z 0.000000 0.000000 1.904630 
# 
# From -- ./inp_files/14087.got.cif
#   From: 2010.05.17/outbox.cif.g08.bks.cpg/sg60_8_cif.got.tgz:14087.got - 2010.06.03 14:59:27.
