data_PCOD9456318
_publ_section_title
;
Structure prediction by ZEFSAII (Michael W. Deem and Ramdas Pophale) SiO2 
 PCOD9456318
Probable space group: P B C N
;
_chemical_formula_sum "Si O2"
_cell_formula_units_Z 56
_cell_length_a 13.819634
_cell_length_b 17.221949
_cell_length_c 10.903550
_cell_angle_alpha 90.000000
_cell_angle_beta 90.000000
_cell_angle_gamma 90.000000
_cell_volume 2595.056152
_symmetry_space_group_name_H-M "P B C N"
_symmetry_group_IT_number 60
_symmetry_cell_setting 'orthorhombic'
loop_
_space_group_symop_operation_xyz
x,y,z
1/2-x,1/2-y,1/2+z
1/2+x,1/2-y,-z
-x,y,1/2-z
-x,-y,-z
1/2+x,1/2+y,1/2-z
1/2-x,1/2+y,z
x,-y,1/2+z
loop_
_atom_site_type_symbol
_atom_site_label
_atom_site_fract_x
_atom_site_fract_y
_atom_site_fract_z
Si Si1 0.219806 0.392710 0.511604
Si Si2 0.500000 0.313094 0.250000
Si Si3 0.157045 0.353907 0.242180
Si Si4 0.076485 0.105401 0.426286
Si Si5 0.085946 0.058466 0.903118
Si Si6 0.000000 0.777597 0.750000
Si Si7 0.939274 0.498708 0.872861
Si Si8 0.326793 0.279740 0.089600
O O1 0.177950 0.394018 0.372567
O O2 0.327934 0.426083 0.498714
O O3 0.151385 0.442444 0.600296
O O4 0.215516 0.303019 0.551077
O O5 0.420555 0.370039 0.310611
O O6 0.434104 0.268037 0.150666
O O7 0.090210 0.278904 0.260320
O O8 0.101711 0.415643 0.157090
O O9 0.252775 0.321846 0.179386
O O10 0.001640 0.163461 0.363045
O O11 0.160146 0.160769 0.475775
O O12 0.022008 0.067791 0.541736
O O13 0.102017 0.028161 0.350109
O O14 0.000000 0.475918 0.750000
O O15 0.000000 0.500000 0.000000
#
# Coordination Sequence:
#
# PCOD9456318 Si02
#       8
#     8   4   8   8   8   4   8   8
#     4  12  24  46  70 105 144 193 252 303 378 447
#     4  10  21  40  69  96 144 182 234 308 365 444
#     4  12  24  47  71 101 150 188 246 307 367 451
#     4  10  22  39  67  96 132 179 230 287 365 428
#     4  10  21  42  64  98 134 180 234 297 360 440
#     4  12  21  42  67  98 136 184 230 300 365 434
#     4  12  26  50  75 106 144 202 250 308 378 450
#     4  11  24  43  67 104 138 185 237 303 371 438
#
# _framework density 21.579494
#
# number of rings (size 3 to 8) (size 9 to 14) (size 15 to 20)
#    0.000    0.857    5.000    2.143    1.000    0.000 
#    7.714    0.000    0.000    0.000    0.000    0.000 
#    0.000    0.000    0.000    0.000    0.000    0.000 
#
# Total GULP energy -312420.648425 kJ/mol
# GULP energy per Si atom -5578.940150 kJ/mol
# Density = 2.153038 g / cm^3
# Si number density = 21.579494 Si / 1000 Ang^3
#
#
#
# Elastic Constant Matrix: (Units=GPa)
#
#
# Indices 1 2 3 4 5 6 
#
# 1 92.8976 26.6189 21.4126 0.0000 0.0000 0.0000
# 2 26.6189 112.6294 11.2414 0.0000 0.0000 0.0000
# 3 21.4126 11.2414 68.9861 0.0000 0.0000 0.0000
# 4 0.0000 0.0000 0.0000 39.4239 0.0000 0.0000
# 5 0.0000 0.0000 0.0000 0.0000 32.6331 0.0000
# 6 0.0000 0.0000 0.0000 0.0000 0.0000 18.7334
#
#
#
# Elastic Compliance Matrix: (Units=1/GPa)
#
#
# Indices 1 2 3 4 5 6 
#
# 1 0.012282 -0.002564 -0.003394 0.000000 0.000000 0.000000
# 2 -0.002564 0.009561 -0.000762 0.000000 0.000000 0.000000
# 3 -0.003394 -0.000762 0.015673 0.000000 0.000000 0.000000
# 4 0.000000 0.000000 0.000000 0.025365 0.000000 0.000000
# 5 0.000000 0.000000 0.000000 0.000000 0.030644 0.000000
# 6 0.000000 0.000000 0.000000 0.000000 0.000000 0.053381
#
#
# Mechanical properties :
#
#
# Convention : Reuss Voigt Hill
#
# Bulk Modulus (GPa) = 41.53668 43.67321 42.60494
# Shear Modulus (GPa) = 29.69632 32.50741 31.10187
#
# Velocity S-wave (km/s) = 3.71366 3.88545 3.80052
# Velocity P-wave (km/s) = 6.13827 6.35698 6.24858
#
# Compressibility (1/GPa) = 0.02407511
#
# Stress axis : x y z
#
# Youngs Moduli (GPa) = 81.42289 104.59501 63.80228
#
# Poissons Ratio (x) = 0.26817 0.21656
# Poissons Ratio (y) = 0.20876 0.04863
# Poissons Ratio (z) = 0.27637 0.07972
#
# Static dielectric constant tensor:
#      x y z
#    x 1.815110 0.000000 0.000000 
#    y 0.000000 1.843120 0.000000 
#    z 0.000000 0.000000 1.888140 
# 
# From -- ./inp_files/12023.got.cif
#   From: 2010.05.17/outbox.cif.g08.bks.cpg/sg60_7_cif.got.tgz:12023.got - 2010.06.03 14:59:27.
