data_PCOD9456786
_publ_section_title
;
Structure prediction by ZEFSAII (Michael W. Deem and Ramdas Pophale) SiO2 
 PCOD9456786
Probable space group: P B C N
;
_chemical_formula_sum "Si O2"
_cell_formula_units_Z 40
_cell_length_a 16.678502
_cell_length_b 5.523685
_cell_length_c 18.498131
_cell_angle_alpha 90.000000
_cell_angle_beta 90.000000
_cell_angle_gamma 90.000000
_cell_volume 1704.173454
_symmetry_space_group_name_H-M "P B C N"
_symmetry_group_IT_number 60
_symmetry_cell_setting 'orthorhombic'
loop_
_space_group_symop_operation_xyz
x,y,z
1/2-x,1/2-y,1/2+z
1/2+x,1/2-y,-z
-x,y,1/2-z
-x,-y,-z
1/2+x,1/2+y,1/2-z
1/2-x,1/2+y,z
x,-y,1/2+z
loop_
_atom_site_type_symbol
_atom_site_label
_atom_site_fract_x
_atom_site_fract_y
_atom_site_fract_z
Si Si1 0.457365 0.418214 0.681264
Si Si2 0.555695 0.303908 0.458718
Si Si3 0.777332 0.717811 0.133216
Si Si4 0.214727 0.273997 0.202800
Si Si5 0.071796 0.427972 0.403498
O O1 0.500000 0.546690 0.750000
O O2 0.419166 0.573456 0.616033
O O3 0.381369 0.253691 0.703153
O O4 0.532013 0.269140 0.648159
O O5 0.500000 0.500000 0.500000
O O6 0.608258 0.192832 0.523510
O O7 0.502199 0.085324 0.430206
O O8 0.728633 0.487752 0.100569
O O9 0.745081 0.766302 0.213999
O O10 0.866307 0.611180 0.132401
O O11 0.244220 0.530038 0.170787
#
# Coordination Sequence:
#
# PCOD9456786 Si02
#       5
#     8   8   8   8   8
#     4  11  23  38  68 100 131 177 229 287 355 414
#     4   9  22  41  67  93 131 171 237 285 336 409
#     4  10  22  39  66  96 135 177 228 283 342 412
#     4  10  23  40  58  93 140 173 212 279 346 411
#     4  10  22  42  68  94 133 184 240 285 343 413
#
# _framework density 23.471788
#
# number of rings (size 3 to 8) (size 9 to 14) (size 15 to 20)
#    0.000    2.000    0.000    2.400   14.000    0.800 
#    0.000    2.000    0.000    0.000    0.000    0.000 
#    0.000    0.000    0.000    0.000    0.000    0.000 
#
# Total GULP energy -222856.938853 kJ/mol
# GULP energy per Si atom -5571.423471 kJ/mol
# Density = 2.341836 g / cm^3
# Si number density = 23.471788 Si / 1000 Ang^3
#
#
#
# Elastic Constant Matrix: (Units=GPa)
#
#
# Indices 1 2 3 4 5 6 
#
# 1 137.3389 52.6113 37.9242 0.0000 0.0000 0.0000
# 2 52.6113 167.1697 29.9450 0.0000 0.0000 0.0000
# 3 37.9242 29.9450 88.6088 0.0000 0.0000 0.0000
# 4 0.0000 0.0000 0.0000 16.8116 0.0000 0.0000
# 5 0.0000 0.0000 0.0000 0.0000 17.3998 0.0000
# 6 0.0000 0.0000 0.0000 0.0000 0.0000 33.3883
#
#
#
# Elastic Compliance Matrix: (Units=1/GPa)
#
#
# Indices 1 2 3 4 5 6 
#
# 1 0.009007 -0.002282 -0.003084 0.000000 0.000000 0.000000
# 2 -0.002282 0.006946 -0.001370 0.000000 0.000000 0.000000
# 3 -0.003084 -0.001370 0.013069 0.000000 0.000000 0.000000
# 4 0.000000 0.000000 0.000000 0.059483 0.000000 0.000000
# 5 0.000000 0.000000 0.000000 0.000000 0.057472 0.000000
# 6 0.000000 0.000000 0.000000 0.000000 0.000000 0.029951
#
#
# Mechanical properties :
#
#
# Convention : Reuss Voigt Hill
#
# Bulk Modulus (GPa) = 64.31535 70.45314 67.38425
# Shear Modulus (GPa) = 25.69608 31.69575 28.69591
#
# Velocity S-wave (km/s) = 3.31231 3.67873 3.50032
# Velocity P-wave (km/s) = 6.48762 6.93724 6.71619
#
# Compressibility (1/GPa) = 0.01554839
#
# Stress axis : x y z
#
# Youngs Moduli (GPa) = 111.02383 143.97366 76.51978
#
# Poissons Ratio (x) = 0.32859 0.23596
# Poissons Ratio (y) = 0.25339 0.10487
# Poissons Ratio (z) = 0.34236 0.19731
#
# Static dielectric constant tensor:
#      x y z
#    x 1.887340 0.000000 0.000000 
#    y 0.000000 2.001860 0.000000 
#    z 0.000000 0.000000 2.000650 
# 
# From -- ./inp_files/20735.got.cif
#   From: 2010.05.17/outbox.cif.g08.bks.cpg/sg60_11_cif.got.tgz:20735.got - 2010.06.03 14:59:27.
