data_PCOD9456329
_publ_section_title
;
Structure prediction by ZEFSAII (Michael W. Deem and Ramdas Pophale) SiO2 
 PCOD9456329
Probable space group: P B C N
;
_chemical_formula_sum "Si O2"
_cell_formula_units_Z 48
_cell_length_a 15.909364
_cell_length_b 9.849561
_cell_length_c 15.747458
_cell_angle_alpha 90.000000
_cell_angle_beta 90.000000
_cell_angle_gamma 90.000000
_cell_volume 2467.630624
_symmetry_space_group_name_H-M "P B C N"
_symmetry_group_IT_number 60
_symmetry_cell_setting 'orthorhombic'
loop_
_space_group_symop_operation_xyz
x,y,z
1/2-x,1/2-y,1/2+z
1/2+x,1/2-y,-z
-x,y,1/2-z
-x,-y,-z
1/2+x,1/2+y,1/2-z
1/2-x,1/2+y,z
x,-y,1/2+z
loop_
_atom_site_type_symbol
_atom_site_label
_atom_site_fract_x
_atom_site_fract_y
_atom_site_fract_z
Si Si1 0.663515 0.216017 0.145835
Si Si2 0.309815 0.346309 0.172736
Si Si3 0.077680 0.903162 0.019336
Si Si4 0.313820 0.940417 0.613434
Si Si5 0.988112 0.377580 0.935512
Si Si6 0.239181 0.016444 0.931802
O O1 0.660260 0.287606 0.237606
O O2 0.571475 0.178554 0.109934
O O3 0.713329 0.330302 0.091465
O O4 0.715206 0.075362 0.138663
O O5 0.383981 0.410827 0.115073
O O6 0.235167 0.454973 0.172743
O O7 0.278200 0.211404 0.123933
O O8 0.049064 0.748622 0.011731
O O9 0.153005 0.942580 0.957632
O O10 0.000000 0.000000 0.000000
O O11 0.413404 0.924850 0.627611
O O12 0.296405 0.984745 0.516501
O O13 0.000000 0.500000 0.000000
#
# Coordination Sequence:
#
# PCOD9456329 Si02
#       6
#     8   8   8   8   8   8
#     4  12  23  39  63  96 128 165 216 276 332 388
#     4  10  23  38  63  90 128 162 213 263 330 386
#     4  10  21  41  61  89 122 171 216 262 324 397
#     4  10  21  41  61  90 123 172 211 262 330 400
#     4  11  22  37  64  95 124 163 220 269 322 395
#     4  11  22  39  65  89 126 167 220 265 328 412
#
# _framework density 19.451858000000001
#
# number of rings (size 3 to 8) (size 9 to 14) (size 15 to 20)
#    0.000    1.333    3.333    4.000    0.000    2.667 
#    0.000    0.000    0.000    0.000    0.000    0.000 
#    0.000    0.000    0.000    0.000    0.000    0.000 
#
# Total GULP energy -267763.481274 kJ/mol
# GULP energy per Si atom -5578.405860 kJ/mol
# Density = 1.940758 g / cm^3
# Si number density = 19.451858 Si / 1000 Ang^3
#
#
#
# Elastic Constant Matrix: (Units=GPa)
#
#
# Indices 1 2 3 4 5 6 
#
# 1 111.9867 63.6635 15.5492 0.0000 0.0000 0.0000
# 2 63.6635 115.3478 26.2241 0.0000 0.0000 0.0000
# 3 15.5492 26.2241 68.9625 0.0000 0.0000 0.0000
# 4 0.0000 0.0000 0.0000 37.7171 0.0000 0.0000
# 5 0.0000 0.0000 0.0000 0.0000 17.4871 0.0000
# 6 0.0000 0.0000 0.0000 0.0000 0.0000 46.3815
#
#
#
# Elastic Compliance Matrix: (Units=1/GPa)
#
#
# Indices 1 2 3 4 5 6 
#
# 1 0.013016 -0.007133 -0.000222 0.000000 0.000000 0.000000
# 2 -0.007133 0.013399 -0.003487 0.000000 0.000000 0.000000
# 3 -0.000222 -0.003487 0.015877 0.000000 0.000000 0.000000
# 4 0.000000 0.000000 0.000000 0.026513 0.000000 0.000000
# 5 0.000000 0.000000 0.000000 0.000000 0.057185 0.000000
# 6 0.000000 0.000000 0.000000 0.000000 0.000000 0.021560
#
#
# Mechanical properties :
#
#
# Convention : Reuss Voigt Hill
#
# Bulk Modulus (GPa) = 48.52728 56.35230 52.43979
# Shear Modulus (GPa) = 28.39242 33.04117 30.71679
#
# Velocity S-wave (km/s) = 3.82465 4.12589 3.97812
# Velocity P-wave (km/s) = 6.67124 7.19238 6.93671
#
# Compressibility (1/GPa) = 0.02060696
#
# Stress axis : x y z
#
# Youngs Moduli (GPa) = 76.83081 74.63167 62.98551
#
# Poissons Ratio (x) = 0.53236 0.01399
# Poissons Ratio (y) = 0.54805 0.21962
# Poissons Ratio (z) = 0.01707 0.26023
#
# Static dielectric constant tensor:
#      x y z
#    x 1.707340 0.000000 0.000000 
#    y 0.000000 1.684030 0.000000 
#    z 0.000000 0.000000 1.738340 
# 
# From -- ./inp_files/20518.got.cif
#   From: 2010.05.17/outbox.cif.g08.bks.cpg/sg60_11_cif.got.tgz:20518.got - 2010.06.03 14:59:27.
