data_PCOD9456968
_publ_section_title
;
Structure prediction by ZEFSAII (Michael W. Deem and Ramdas Pophale) SiO2 
 PCOD9456968
Probable space group: P B C N
;
_chemical_formula_sum "Si O2"
_cell_formula_units_Z 40
_cell_length_a 8.101934
_cell_length_b 9.464542
_cell_length_c 21.863282
_cell_angle_alpha 90.000000
_cell_angle_beta 90.000000
_cell_angle_gamma 90.000000
_cell_volume 1676.500396
_symmetry_space_group_name_H-M "P B C N"
_symmetry_group_IT_number 60
_symmetry_cell_setting 'orthorhombic'
loop_
_space_group_symop_operation_xyz
x,y,z
1/2-x,1/2-y,1/2+z
1/2+x,1/2-y,-z
-x,y,1/2-z
-x,-y,-z
1/2+x,1/2+y,1/2-z
1/2-x,1/2+y,z
x,-y,1/2+z
loop_
_atom_site_type_symbol
_atom_site_label
_atom_site_fract_x
_atom_site_fract_y
_atom_site_fract_z
Si Si1 0.981376 0.658137 0.023729
Si Si2 0.181336 0.343900 0.218524
Si Si3 0.641803 0.730145 0.088220
Si Si4 0.891818 0.385754 0.848016
Si Si5 0.744509 0.995688 0.666032
O O1 0.102261 0.669390 0.082482
O O2 0.803390 0.683859 0.051370
O O3 0.008577 0.754164 0.964587
O O4 0.000000 0.500000 0.000000
O O5 0.277294 0.210115 0.193889
O O6 0.161410 0.452193 0.162061
O O7 0.281335 0.427013 0.271002
O O8 0.000000 0.318897 0.250000
O O9 0.616716 0.605760 0.137581
O O10 0.687078 0.878988 0.120191
O O11 0.083607 0.394522 0.825858
#
# Coordination Sequence:
#
# PCOD9456968 Si02
#       5
#     8   8   8   8   8
#     4  11  24  44  69 106 145 190 237 299 354 418
#     4  10  22  42  70  98 133 180 232 289 353 425
#     4  11  22  42  71  98 146 186 237 296 352 421
#     4  10  22  41  66  98 142 175 228 295 351 422
#     4  10  22  42  67 103 138 183 231 295 354 421
#
# _framework density 23.859226
#
# number of rings (size 3 to 8) (size 9 to 14) (size 15 to 20)
#    0.000    1.600    4.000    1.200    2.800    2.400 
#    0.000   15.000    0.000    0.000    0.000    0.000 
#    0.000    0.000    0.000    0.000    0.000    0.000 
#
# Total GULP energy -223677.995854 kJ/mol
# GULP energy per Si atom -5591.949896 kJ/mol
# Density = 2.380492 g / cm^3
# Si number density = 23.859226 Si / 1000 Ang^3
#
#
#
# Elastic Constant Matrix: (Units=GPa)
#
#
# Indices 1 2 3 4 5 6 
#
# 1 44.1233 23.5435 17.1210 0.0000 0.0000 0.0000
# 2 23.5435 71.6949 14.4843 0.0000 0.0000 0.0000
# 3 17.1210 14.4843 80.6135 0.0000 0.0000 0.0000
# 4 0.0000 0.0000 0.0000 615.4278 0.0000 0.0000
# 5 0.0000 0.0000 0.0000 0.0000 42.6451 0.0000
# 6 0.0000 0.0000 0.0000 0.0000 0.0000 32.7663
#
#
#
# Elastic Compliance Matrix: (Units=1/GPa)
#
#
# Indices 1 2 3 4 5 6 
#
# 1 0.029049 -0.008605 -0.004623 0.000000 0.000000 0.000000
# 2 -0.008605 0.017023 -0.001231 0.000000 0.000000 0.000000
# 3 -0.004623 -0.001231 0.013608 0.000000 0.000000 0.000000
# 4 0.000000 0.000000 0.000000 0.001625 0.000000 0.000000
# 5 0.000000 0.000000 0.000000 0.000000 0.023449 0.000000
# 6 0.000000 0.000000 0.000000 0.000000 0.000000 0.030519
#
#
# Mechanical properties :
#
#
# Convention : Reuss Voigt Hill
#
# Bulk Modulus (GPa) = 32.50917 34.08105 33.29511
# Shear Modulus (GPa) = 32.37372 147.58671 89.98021
#
# Velocity S-wave (km/s) = 3.68756 7.87347 6.14775
# Velocity P-wave (km/s) = 5.63789 9.84737 8.02360
#
# Compressibility (1/GPa) = 0.03076055
#
# Stress axis : x y z
#
# Youngs Moduli (GPa) = 34.42407 58.74560 73.48631
#
# Poissons Ratio (x) = 0.50553 0.33976
# Poissons Ratio (y) = 0.29623 0.09046
# Poissons Ratio (z) = 0.15916 0.07231
#
# Static dielectric constant tensor:
#      x y z
#    x 1.947550 0.000000 0.000000 
#    y 0.000000 1.917990 0.000000 
#    z 0.000000 0.000000 1.994410 
# 
# From -- ./inp_files/23836.got.cif
#   From: 2010.05.17/outbox.cif.g08.bks.cpg/sg60_12_cif.got.tgz:23836.got - 2010.06.03 14:59:27.
