data_PCOD9456962
_publ_section_title
;
Structure prediction by ZEFSAII (Michael W. Deem and Ramdas Pophale) SiO2 
 PCOD9456962
Probable space group: P B C N
;
_chemical_formula_sum "Si O2"
_cell_formula_units_Z 60
_cell_length_a 21.361407
_cell_length_b 20.674721
_cell_length_c 5.696323
_cell_angle_alpha 90.000000
_cell_angle_beta 90.000000
_cell_angle_gamma 90.000000
_cell_volume 2515.730526
_symmetry_space_group_name_H-M "P B C N"
_symmetry_group_IT_number 60
_symmetry_cell_setting 'orthorhombic'
loop_
_space_group_symop_operation_xyz
x,y,z
1/2-x,1/2-y,1/2+z
1/2+x,1/2-y,-z
-x,y,1/2-z
-x,-y,-z
1/2+x,1/2+y,1/2-z
1/2-x,1/2+y,z
x,-y,1/2+z
loop_
_atom_site_type_symbol
_atom_site_label
_atom_site_fract_x
_atom_site_fract_y
_atom_site_fract_z
Si Si1 0.000000 0.150735 0.750000
Si Si2 0.739214 0.135187 0.594898
Si Si3 0.824413 0.973341 0.607016
Si Si4 0.802227 0.575048 0.096556
Si Si5 0.571826 0.118464 0.260817
Si Si6 0.448778 0.239087 0.572683
Si Si7 0.134789 0.861129 0.164560
Si Si8 0.641168 0.774359 0.046183
O O1 0.982020 0.199247 0.539706
O O2 0.935555 0.114543 0.795248
O O3 0.720974 0.110634 0.335331
O O4 0.812409 0.125510 0.642438
O O5 0.713088 0.208049 0.582130
O O6 0.706905 0.108418 0.839777
O O7 0.748571 0.982710 0.592540
O O8 0.839481 0.897897 0.564158
O O9 0.847890 0.003455 0.359253
O O10 0.876204 0.569402 0.154463
O O11 0.500000 0.092382 0.250000
O O12 0.604012 0.157804 0.482721
O O13 0.566259 0.181206 0.097670
O O14 0.500000 0.212277 0.750000
O O15 0.387621 0.254439 0.718142
O O16 0.131577 0.783659 0.136339
#
# Coordination Sequence:
#
# PCOD9456962 Si02
#       8
#     4   8   8   8   8   8   8   8
#     4  12  24  38  56  94 130 170 208 246 312 396
#     4  10  23  39  60  95 134 164 206 254 300 378
#     4  11  25  49  71  87 115 158 220 288 339 369
#     4  10  22  41  66  96 123 166 211 256 320 376
#     4  11  19  34  57  95 141 171 204 235 289 384
#     4  12  18  33  55  87 137 186 200 228 288 376
#     4  11  24  42  63  93 121 166 214 260 325 380
#     4  11  22  35  58  92 136 175 206 243 295 376
#
# _framework density 23.849928999999999
#
# number of rings (size 3 to 8) (size 9 to 14) (size 15 to 20)
#    0.000    1.067    6.000    1.600    0.000    8.533 
#    0.000    0.667    0.000    0.800    0.000    0.000 
#    0.000    0.000    0.000    0.000    0.000    0.000 
#
# Total GULP energy -334164.054588 kJ/mol
# GULP energy per Si atom -5569.400910 kJ/mol
# Density = 2.379565 g / cm^3
# Si number density = 23.849929 Si / 1000 Ang^3
#
#
#
# Elastic Constant Matrix: (Units=GPa)
#
#
# Indices 1 2 3 4 5 6 
#
# 1 158.8867 14.3939 47.7398 0.0000 0.0000 0.0000
# 2 14.3939 21.7424 18.8024 0.0000 0.0000 0.0000
# 3 47.7398 18.8024 131.4830 0.0000 0.0000 0.0000
# 4 0.0000 0.0000 0.0000 152.5467 0.0000 0.0000
# 5 0.0000 0.0000 0.0000 0.0000 22.5236 0.0000
# 6 0.0000 0.0000 0.0000 0.0000 0.0000 37.2267
#
#
#
# Elastic Compliance Matrix: (Units=1/GPa)
#
#
# Indices 1 2 3 4 5 6 
#
# 1 0.007218 -0.002866 -0.002211 0.000000 0.000000 0.000000
# 2 -0.002866 0.053622 -0.006627 0.000000 0.000000 0.000000
# 3 -0.002211 -0.006627 0.009356 0.000000 0.000000 0.000000
# 4 0.000000 0.000000 0.000000 0.006555 0.000000 0.000000
# 5 0.000000 0.000000 0.000000 0.000000 0.044398 0.000000
# 6 0.000000 0.000000 0.000000 0.000000 0.000000 0.026862
#
#
# Mechanical properties :
#
#
# Convention : Reuss Voigt Hill
#
# Bulk Modulus (GPa) = 21.37367 52.66493 37.01930
# Shear Modulus (GPa) = 26.73571 57.87113 42.30342
#
# Velocity S-wave (km/s) = 3.35176 4.93126 4.21614
# Velocity P-wave (km/s) = 4.89492 7.38599 6.26551
#
# Compressibility (1/GPa) = 0.04678654
#
# Stress axis : x y z
#
# Youngs Moduli (GPa) = 138.54782 18.64911 106.88373
#
# Poissons Ratio (x) = 0.05346 0.23629
# Poissons Ratio (y) = 0.39714 0.70835
# Poissons Ratio (z) = 0.30630 0.12359
#
# Static dielectric constant tensor:
#      x y z
#    x 2.018620 0.000000 0.000000 
#    y 0.000000 1.966710 0.000000 
#    z 0.000000 0.000000 1.964290 
# 
# From -- ./inp_files/2183.got.cif
#   From: 2010.05.17/outbox.cif.g08.bks.cpg/sg60_2_cif.got.tgz:2183.got - 2010.06.03 14:59:27.
