data_PCOD9456449
_publ_section_title
;
Structure prediction by ZEFSAII (Michael W. Deem and Ramdas Pophale) SiO2 
 PCOD9456449
Probable space group: P B C N
;
_chemical_formula_sum "Si O2"
_cell_formula_units_Z 56
_cell_length_a 11.378188
_cell_length_b 10.079790
_cell_length_c 22.517016
_cell_angle_alpha 90.000000
_cell_angle_beta 90.000000
_cell_angle_gamma 90.000000
_cell_volume 2582.470837
_symmetry_space_group_name_H-M "P B C N"
_symmetry_group_IT_number 60
_symmetry_cell_setting 'orthorhombic'
loop_
_space_group_symop_operation_xyz
x,y,z
1/2-x,1/2-y,1/2+z
1/2+x,1/2-y,-z
-x,y,1/2-z
-x,-y,-z
1/2+x,1/2+y,1/2-z
1/2-x,1/2+y,z
x,-y,1/2+z
loop_
_atom_site_type_symbol
_atom_site_label
_atom_site_fract_x
_atom_site_fract_y
_atom_site_fract_z
Si Si1 0.500000 0.649815 0.750000
Si Si2 0.678326 0.271374 0.676710
Si Si3 0.184824 0.620089 0.220442
Si Si4 0.375597 0.731956 0.561664
Si Si5 0.500000 0.090595 0.750000
Si Si6 0.211118 0.951371 0.596418
Si Si7 0.051790 0.884817 0.935921
Si Si8 0.910635 0.863295 0.127605
O O1 0.389857 0.744114 0.730525
O O2 0.533547 0.577110 0.688851
O O3 0.735400 0.382769 0.720155
O O4 0.593260 0.179662 0.715422
O O5 0.601517 0.313533 0.621374
O O6 0.789849 0.198720 0.647685
O O7 0.267335 0.600117 0.163614
O O8 0.084845 0.508324 0.213750
O O9 0.311754 0.872612 0.561327
O O10 0.296203 0.611263 0.589491
O O11 0.409710 0.682911 0.496310
O O12 0.492172 0.738368 0.602528
O O13 0.087076 0.901448 0.571198
O O14 0.102881 0.032426 0.925411
#
# Coordination Sequence:
#
# PCOD9456449 Si02
#       8
#     4   8   8   8   4   8   8   8
#     4   9  18  37  66  94 126 171 222 263 348 413
#     4  11  24  40  69  97 143 176 227 288 358 408
#     4  10  22  40  65  99 137 174 222 292 345 417
#     4  11  26  45  71  98 135 183 239 286 351 423
#     4  11  24  41  64 106 142 175 234 281 350 437
#     4  11  24  45  72  96 133 181 231 290 351 411
#     4  11  26  41  64  98 133 179 234 284 344 420
#     4  10  21  42  65  93 132 181 219 281 347 413
#
# _framework density 21.684660000000001
#
# number of rings (size 3 to 8) (size 9 to 14) (size 15 to 20)
#    0.000    1.429    1.429    3.429    8.000    4.000 
#    0.000    0.714    0.000    0.000    0.000    0.000 
#    0.000    0.000    0.000    0.000    0.000    0.000 
#
# Total GULP energy -312648.909139 kJ/mol
# GULP energy per Si atom -5583.016235 kJ/mol
# Density = 2.163530 g / cm^3
# Si number density = 21.684660 Si / 1000 Ang^3
#
#
#
# Elastic Constant Matrix: (Units=GPa)
#
#
# Indices 1 2 3 4 5 6 
#
# 1 -279.0631 90.6303 -232.6701 0.0000 0.0000 0.0000
# 2 90.6303 31.9269 32.6942 0.0000 0.0000 0.0000
# 3 -232.6701 32.6942 -77.1016 0.0000 0.0000 0.0000
# 4 0.0000 0.0000 0.0000 -9.9365 0.0000 0.0000
# 5 0.0000 0.0000 0.0000 0.0000 29.9571 0.0000
# 6 0.0000 0.0000 0.0000 0.0000 0.0000 105.0936
#
#
#
# Elastic Compliance Matrix: (Units=1/GPa)
#
#
# Indices 1 2 3 4 5 6 
#
# 1 0.002372 0.000416 -0.006980 0.000000 0.000000 0.000000
# 2 0.000416 0.021912 0.008036 0.000000 0.000000 0.000000
# 3 -0.006980 0.008036 0.011502 0.000000 0.000000 0.000000
# 4 0.000000 0.000000 0.000000 -0.100639 0.000000 0.000000
# 5 0.000000 0.000000 0.000000 0.000000 0.033381 0.000000
# 6 0.000000 0.000000 0.000000 0.000000 0.000000 0.009515
#
#
# Mechanical properties :
#
#
# Convention : Reuss Voigt Hill
#
# Bulk Modulus (GPa) = 25.82043 -60.32543 -17.25250
# Shear Modulus (GPa) = -417.00002 10.69669 -203.15166
#
# Velocity S-wave (km/s) = -13.88234 2.22341 -9.68958
# Velocity P-wave (km/s) = 15.65331 4.61394 11.53938
#
# Compressibility (1/GPa) = 0.03872903
#
# Stress axis : x y z
#
# Youngs Moduli (GPa) = 421.65886 45.63811 86.93777
#
# Poissons Ratio (x) = -0.01898 0.60686
# Poissons Ratio (y) = -0.17539 -0.69864
# Poissons Ratio (z) = 2.94334 -0.36675
#
# Static dielectric constant tensor:
#      x y z
#    x 1.820880 0.000000 0.000000 
#    y 0.000000 1.858530 0.000000 
#    z 0.000000 0.000000 1.806690 
# 
# From -- ./inp_files/22640.got.cif
#   From: 2010.05.17/outbox.cif.g08.bks.cpg/sg60_12_cif.got.tgz:22640.got - 2010.06.03 14:59:27.
