data_PCOD9456614
_publ_section_title
;
Structure prediction by ZEFSAII (Michael W. Deem and Ramdas Pophale) SiO2 
 PCOD9456614
Probable space group: P B C N
;
_chemical_formula_sum "Si O2"
_cell_formula_units_Z 28
_cell_length_a 10.271864
_cell_length_b 9.045040
_cell_length_c 13.861106
_cell_angle_alpha 90.000000
_cell_angle_beta 90.000000
_cell_angle_gamma 90.000000
_cell_volume 1287.827329
_symmetry_space_group_name_H-M "P B C N"
_symmetry_group_IT_number 60
_symmetry_cell_setting 'orthorhombic'
loop_
_space_group_symop_operation_xyz
x,y,z
1/2-x,1/2-y,1/2+z
1/2+x,1/2-y,-z
-x,y,1/2-z
-x,-y,-z
1/2+x,1/2+y,1/2-z
1/2-x,1/2+y,z
x,-y,1/2+z
loop_
_atom_site_type_symbol
_atom_site_label
_atom_site_fract_x
_atom_site_fract_y
_atom_site_fract_z
Si Si1 0.000000 0.082486 0.250000
Si Si2 0.945649 0.347026 0.612655
Si Si3 0.681175 0.686874 0.783604
Si Si4 0.456706 0.826845 0.112504
O O1 0.973946 0.184584 0.157395
O O2 0.120344 0.975227 0.229311
O O3 0.839887 0.273010 0.682762
O O4 0.924948 0.315878 0.500314
O O5 0.083330 0.274323 0.644626
O O6 0.961870 0.522835 0.627183
O O7 0.822934 0.671426 0.827218
#
# Coordination Sequence:
#
# PCOD9456614 Si02
#       4
#     4   8   8   8
#     4  10  22  36  60  90 118 154 204 242 300 376
#     4   9  22  41  63  93 124 159 213 252 305 383
#     4  10  22  41  61  92 129 157 201 264 308 359
#     4  11  21  40  66  89 124 168 200 254 315 362
#
# _framework density 21.742045000000001
#
# number of rings (size 3 to 8) (size 9 to 14) (size 15 to 20)
#    0.000    2.286    0.000    3.429    0.000    6.857 
#    0.000   17.143    0.000    0.000    0.000    0.000 
#    0.000    0.000    0.000    0.000    0.000    0.000 
#
# Total GULP energy -156630.933837 kJ/mol
# GULP energy per Si atom -5593.961923 kJ/mol
# Density = 2.169256 g / cm^3
# Si number density = 21.742045 Si / 1000 Ang^3
#
#
#
# Elastic Constant Matrix: (Units=GPa)
#
#
# Indices 1 2 3 4 5 6 
#
# 1 58.4045 13.5475 37.4303 0.0000 0.0000 0.0000
# 2 13.5475 146.8133 76.9491 0.0000 0.0000 0.0000
# 3 37.4303 76.9491 192.2075 0.0000 0.0000 0.0000
# 4 0.0000 0.0000 0.0000 28.9573 0.0000 0.0000
# 5 0.0000 0.0000 0.0000 0.0000 20.4893 0.0000
# 6 0.0000 0.0000 0.0000 0.0000 0.0000 9.4251
#
#
#
# Elastic Compliance Matrix: (Units=1/GPa)
#
#
# Indices 1 2 3 4 5 6 
#
# 1 0.019570 0.000242 -0.003908 0.000000 0.000000 0.000000
# 2 0.000242 0.008623 -0.003499 0.000000 0.000000 0.000000
# 3 -0.003908 -0.003499 0.007365 0.000000 0.000000 0.000000
# 4 0.000000 0.000000 0.000000 0.034534 0.000000 0.000000
# 5 0.000000 0.000000 0.000000 0.000000 0.048806 0.000000
# 6 0.000000 0.000000 0.000000 0.000000 0.000000 0.106100
#
#
# Mechanical properties :
#
#
# Convention : Reuss Voigt Hill
#
# Bulk Modulus (GPa) = 47.10755 72.58657 59.84706
# Shear Modulus (GPa) = 20.29187 29.74092 25.01640
#
# Velocity S-wave (km/s) = 3.05831 3.70252 3.39573
# Velocity P-wave (km/s) = 5.84676 7.19278 6.55441
#
# Compressibility (1/GPa) = 0.02122802
#
# Stress axis : x y z
#
# Youngs Moduli (GPa) = 51.09759 115.96683 135.78159
#
# Poissons Ratio (x) = -0.02812 0.53066
# Poissons Ratio (y) = -0.01239 0.47516
# Poissons Ratio (z) = 0.19970 0.40582
#
# Static dielectric constant tensor:
#      x y z
#    x 1.823390 0.000000 0.000000 
#    y 0.000000 1.807420 0.000000 
#    z 0.000000 0.000000 1.771280 
# 
# From -- ./inp_files/15550.got.cif
#   From: 2010.05.17/outbox.cif.g08.bks.cpg/sg60_8_cif.got.tgz:15550.got - 2010.06.03 14:59:27.
