data_PCOD9456520
_publ_section_title
;
Structure prediction by ZEFSAII (Michael W. Deem and Ramdas Pophale) SiO2 
 PCOD9456520
Probable space group: P B C N
;
_chemical_formula_sum "Si O2"
_cell_formula_units_Z 60
_cell_length_a 8.475105
_cell_length_b 12.489977
_cell_length_c 26.415638
_cell_angle_alpha 90.000000
_cell_angle_beta 90.000000
_cell_angle_gamma 90.000000
_cell_volume 2796.197419
_symmetry_space_group_name_H-M "P B C N"
_symmetry_group_IT_number 60
_symmetry_cell_setting 'orthorhombic'
loop_
_space_group_symop_operation_xyz
x,y,z
1/2-x,1/2-y,1/2+z
1/2+x,1/2-y,-z
-x,y,1/2-z
-x,-y,-z
1/2+x,1/2+y,1/2-z
1/2-x,1/2+y,z
x,-y,1/2+z
loop_
_atom_site_type_symbol
_atom_site_label
_atom_site_fract_x
_atom_site_fract_y
_atom_site_fract_z
Si Si1 0.232650 0.300437 0.044822
Si Si2 0.000000 0.172743 0.750000
Si Si3 0.176265 0.195417 0.241502
Si Si4 0.567291 0.782519 0.563940
Si Si5 0.188951 0.655513 0.875281
Si Si6 0.074224 0.829299 0.631444
Si Si7 0.386751 0.501161 0.319004
Si Si8 0.515479 0.016111 0.940745
O O1 0.418029 0.287340 0.048045
O O2 0.157751 0.205486 0.079547
O O3 0.170984 0.412875 0.068079
O O4 0.173701 0.294507 0.986789
O O5 0.163171 0.239843 0.753314
O O6 0.997302 0.089303 0.796717
O O7 0.182269 0.167027 0.181641
O O8 0.160411 0.090253 0.277289
O O9 0.000000 0.247506 0.250000
O O10 0.664066 0.726646 0.608116
O O11 0.505063 0.898687 0.581762
O O12 0.235284 0.564958 0.835961
O O13 0.051309 0.734288 0.859149
O O14 0.126206 0.592077 0.923832
O O15 0.970695 0.937166 0.634645
O O16 0.500000 0.000000 0.000000
#
# Coordination Sequence:
#
# PCOD9456520 Si02
#       8
#     8   4   8   8   8   8   8   8
#     4  10  22  39  64  94 137 179 219 278 334 391
#     4  12  24  44  76  94 138 180 226 280 364 406
#     4  10  23  47  67  98 139 169 227 296 336 409
#     4  11  22  41  64  97 135 178 224 272 330 408
#     4  11  23  39  70  95 132 180 220 274 349 398
#     4  10  21  44  62  94 137 168 219 287 330 399
#     4  11  22  44  67 100 132 173 227 288 338 417
#     4   9  20  40  60  92 134 171 222 273 326 402
#
# _framework density 21.457713999999999
#
# number of rings (size 3 to 8) (size 9 to 14) (size 15 to 20)
#    0.000    1.600    2.000    4.800    1.867    2.133 
#    6.000    4.000    0.000    0.000    0.000    0.000 
#    0.000    0.000    0.000    0.000    0.000    0.000 
#
# Total GULP energy -334716.432601 kJ/mol
# GULP energy per Si atom -5578.607210 kJ/mol
# Density = 2.140888 g / cm^3
# Si number density = 21.457714 Si / 1000 Ang^3
#
#
#
# Elastic Constant Matrix: (Units=GPa)
#
#
# Indices 1 2 3 4 5 6 
#
# 1 74.5723 42.3073 6.8431 0.0000 0.0000 0.0000
# 2 42.3073 111.0940 19.6231 0.0000 0.0000 0.0000
# 3 6.8431 19.6231 46.9061 0.0000 0.0000 0.0000
# 4 0.0000 0.0000 0.0000 29.6962 0.0000 0.0000
# 5 0.0000 0.0000 0.0000 0.0000 18.3018 0.0000
# 6 0.0000 0.0000 0.0000 0.0000 0.0000 -0.8946
#
#
#
# Elastic Compliance Matrix: (Units=1/GPa)
#
#
# Indices 1 2 3 4 5 6 
#
# 1 0.017108 -0.006559 0.000248 0.000000 0.000000 0.000000
# 2 -0.006559 0.012234 -0.004161 0.000000 0.000000 0.000000
# 3 0.000248 -0.004161 0.023024 0.000000 0.000000 0.000000
# 4 0.000000 0.000000 0.000000 0.033674 0.000000 0.000000
# 5 0.000000 0.000000 0.000000 0.000000 0.054639 0.000000
# 6 0.000000 0.000000 0.000000 0.000000 0.000000 -1.117794
#
#
# Mechanical properties :
#
#
# Convention : Reuss Voigt Hill
#
# Bulk Modulus (GPa) = 31.82503 41.12437 36.47470
# Shear Modulus (GPa) = -5.28711 20.34062 7.52675
#
# Velocity S-wave (km/s) = -1.57141 3.08220 1.87492
# Velocity P-wave (km/s) = 3.40166 5.64567 4.66073
#
# Compressibility (1/GPa) = 0.03142181
#
# Stress axis : x y z
#
# Youngs Moduli (GPa) = 58.45146 81.73769 43.43317
#
# Poissons Ratio (x) = 0.53612 -0.01077
# Poissons Ratio (y) = 0.38339 0.18074
# Poissons Ratio (z) = -0.01450 0.34013
#
# Static dielectric constant tensor:
#      x y z
#    x 1.767610 0.000000 0.000000 
#    y 0.000000 1.800630 0.000000 
#    z 0.000000 0.000000 1.842260 
# 
# From -- ./inp_files/25199.got.cif
#   From: 2010.05.17/outbox.cif.g08.bks.cpg/sg60_13_cif.got.tgz:25199.got - 2010.06.03 14:59:27.
