data_PCOD9456909
_publ_section_title
;
Structure prediction by ZEFSAII (Michael W. Deem and Ramdas Pophale) SiO2 
 PCOD9456909
Probable space group: P B C N
;
_chemical_formula_sum "Si O2"
_cell_formula_units_Z 24
_cell_length_a 7.337711
_cell_length_b 28.186938
_cell_length_c 5.254900
_cell_angle_alpha 90.000000
_cell_angle_beta 90.000000
_cell_angle_gamma 90.000000
_cell_volume 1086.858382
_symmetry_space_group_name_H-M "P B C N"
_symmetry_group_IT_number 60
_symmetry_cell_setting 'orthorhombic'
loop_
_space_group_symop_operation_xyz
x,y,z
1/2-x,1/2-y,1/2+z
1/2+x,1/2-y,-z
-x,y,1/2-z
-x,-y,-z
1/2+x,1/2+y,1/2-z
1/2-x,1/2+y,z
x,-y,1/2+z
loop_
_atom_site_type_symbol
_atom_site_label
_atom_site_fract_x
_atom_site_fract_y
_atom_site_fract_z
Si Si1 0.802393 0.275552 0.622495
Si Si2 0.293541 0.521207 0.507527
Si Si3 0.128779 0.378975 0.998784
O O1 0.808393 0.245179 0.362653
O O2 0.764212 0.329564 0.540578
O O3 0.000000 0.276394 0.750000
O O4 0.500000 0.500000 0.500000
O O5 0.206099 0.502256 0.251948
O O6 0.268182 0.577302 0.522446
O O7 0.000000 0.376119 0.250000
O O8 0.000000 0.385914 0.750000
#
# Coordination Sequence:
#
# PCOD9456909 Si02
#       3
#     8   8   8
#     4  11  23  44  67 100 137 176 226 281 334 405
#     4  10  22  41  61  91 134 165 219 274 323 392
#     4  11  23  41  68  94 133 179 222 267 337 397
#
# _framework density 22.081992
#
# number of rings (size 3 to 8) (size 9 to 14) (size 15 to 20)
#    0.000    1.333    0.000    7.000    0.000    4.000 
#   18.000    0.000    0.000    0.000    0.000    0.000 
#    0.000    0.000    0.000    0.000    0.000    0.000 
#
# Total GULP energy -133932.001864 kJ/mol
# GULP energy per Si atom -5580.500078 kJ/mol
# Density = 2.203173 g / cm^3
# Si number density = 22.081992 Si / 1000 Ang^3
#
#
#
# Elastic Constant Matrix: (Units=GPa)
#
#
# Indices 1 2 3 4 5 6 
#
# 1 55.7181 47.4032 16.8119 0.0000 0.0000 0.0000
# 2 47.4032 244.8697 85.8971 0.0000 0.0000 0.0000
# 3 16.8119 85.8971 218.4582 0.0000 0.0000 0.0000
# 4 0.0000 0.0000 0.0000 38.9782 0.0000 0.0000
# 5 0.0000 0.0000 0.0000 0.0000 -4.4976 0.0000
# 6 0.0000 0.0000 0.0000 0.0000 0.0000 31.1335
#
#
#
# Elastic Compliance Matrix: (Units=1/GPa)
#
#
# Indices 1 2 3 4 5 6 
#
# 1 0.021486 -0.004152 -0.000021 0.000000 0.000000 0.000000
# 2 -0.004152 0.005540 -0.001859 0.000000 0.000000 0.000000
# 3 -0.000021 -0.001859 0.005310 0.000000 0.000000 0.000000
# 4 0.000000 0.000000 0.000000 0.025655 0.000000 0.000000
# 5 0.000000 0.000000 0.000000 0.000000 -0.222343 0.000000
# 6 0.000000 0.000000 0.000000 0.000000 0.000000 0.032120
#
#
# Mechanical properties :
#
#
# Convention : Reuss Voigt Hill
#
# Bulk Modulus (GPa) = 49.32788 91.03007 70.17897
# Shear Modulus (GPa) = -44.08738 37.71842 -3.18448
#
# Velocity S-wave (km/s) = -4.47310 4.13741 -1.20218
# Velocity P-wave (km/s) = 2.07152 8.00858 5.47020
#
# Compressibility (1/GPa) = 0.02027251
#
# Stress axis : x y z
#
# Youngs Moduli (GPa) = 46.54139 180.51967 188.32593
#
# Poissons Ratio (x) = 0.74953 0.00394
# Poissons Ratio (y) = 0.19324 0.35002
# Poissons Ratio (z) = 0.00097 0.33552
#
# Static dielectric constant tensor:
#      x y z
#    x 1.835540 0.000000 0.000000 
#    y 0.000000 1.822290 0.000000 
#    z 0.000000 0.000000 1.885830 
# 
# From -- ./inp_files/214.got.cif
#   From: 2010.05.17/outbox.cif.g08.bks.cpg/sg60_1_cif.got.tgz:214.got - 2010.06.03 14:59:27.
