data_PCOD9456434
_publ_section_title
;
Structure prediction by ZEFSAII (Michael W. Deem and Ramdas Pophale) SiO2 
 PCOD9456434
Probable space group: P B C N
;
_chemical_formula_sum "Si O2"
_cell_formula_units_Z 64
_cell_length_a 29.688514
_cell_length_b 11.665083
_cell_length_c 8.572491
_cell_angle_alpha 90.000000
_cell_angle_beta 90.000000
_cell_angle_gamma 90.000000
_cell_volume 2968.816339
_symmetry_space_group_name_H-M "P B C N"
_symmetry_group_IT_number 60
_symmetry_cell_setting 'orthorhombic'
loop_
_space_group_symop_operation_xyz
x,y,z
1/2-x,1/2-y,1/2+z
1/2+x,1/2-y,-z
-x,y,1/2-z
-x,-y,-z
1/2+x,1/2+y,1/2-z
1/2-x,1/2+y,z
x,-y,1/2+z
loop_
_atom_site_type_symbol
_atom_site_label
_atom_site_fract_x
_atom_site_fract_y
_atom_site_fract_z
Si Si1 0.758013 0.184482 0.037176
Si Si2 0.091062 0.223778 0.417579
Si Si3 0.196521 0.845319 0.623550
Si Si4 0.362930 0.129535 0.697064
Si Si5 0.528683 0.411360 0.400754
Si Si6 0.376451 0.500779 0.732721
Si Si7 0.160355 0.767369 0.192993
Si Si8 0.824938 0.548914 0.086277
O O1 0.777676 0.162579 0.209322
O O2 0.723229 0.078926 0.009161
O O3 0.730194 0.304271 0.013100
O O4 0.796076 0.195305 0.906205
O O5 0.094247 0.322400 0.288268
O O6 0.043001 0.192065 0.487039
O O7 0.112379 0.105166 0.346948
O O8 0.122711 0.256596 0.562112
O O9 0.161168 0.741911 0.632634
O O10 0.165051 0.956815 0.624744
O O11 0.363724 0.050680 0.545325
O O12 0.330100 0.067576 0.820160
O O13 0.500000 0.377524 0.250000
O O14 0.500000 0.500000 0.500000
O O15 0.575729 0.470681 0.347802
O O16 0.358624 0.624262 0.791489
O O17 0.168449 0.654252 0.293597
#
# Coordination Sequence:
#
# PCOD9456434 Si02
#       8
#     8   8   8   8   8   8   8   8
#     4  11  21  38  55  84 124 170 230 270 312 374
#     4  10  21  42  63  91 134 163 209 267 326 412
#     4  10  22  39  54  85 126 174 217 278 324 372
#     4  10  22  40  59  86 119 165 221 273 324 382
#     4  11  22  41  66 103 138 169 207 261 345 429
#     4  10  22  38  64  89 137 165 210 265 341 394
#     4  11  22  39  57  89 122 174 218 270 331 376
#     4  11  24  39  62  87 123 174 235 280 316 380
#
# _framework density 21.557414000000001
#
# number of rings (size 3 to 8) (size 9 to 14) (size 15 to 20)
#    0.000    1.500    5.000    0.750    0.000    9.000 
#    0.000    0.000    0.000    0.000    0.000    7.875 
#   15.000    0.625    0.000    0.000    0.000    0.000 
#
# Total GULP energy -357105.607757 kJ/mol
# GULP energy per Si atom -5579.775121 kJ/mol
# Density = 2.150835 g / cm^3
# Si number density = 21.557414 Si / 1000 Ang^3
#
#
#
# Elastic Constant Matrix: (Units=GPa)
#
#
# Indices 1 2 3 4 5 6 
#
# 1 89.9253 14.6072 16.7663 0.0000 0.0000 0.0000
# 2 14.6072 48.6300 -1.9257 0.0000 0.0000 0.0000
# 3 16.7663 -1.9257 64.2433 0.0000 0.0000 0.0000
# 4 0.0000 0.0000 0.0000 26.2823 0.0000 0.0000
# 5 0.0000 0.0000 0.0000 0.0000 33.5897 0.0000
# 6 0.0000 0.0000 0.0000 0.0000 0.0000 26.0275
#
#
#
# Elastic Compliance Matrix: (Units=1/GPa)
#
#
# Indices 1 2 3 4 5 6 
#
# 1 0.012369 -0.003848 -0.003343 0.000000 0.000000 0.000000
# 2 -0.003848 0.021785 0.001657 0.000000 0.000000 0.000000
# 3 -0.003343 0.001657 0.016488 0.000000 0.000000 0.000000
# 4 0.000000 0.000000 0.000000 0.038048 0.000000 0.000000
# 5 0.000000 0.000000 0.000000 0.000000 0.029771 0.000000
# 6 0.000000 0.000000 0.000000 0.000000 0.000000 0.038421
#
#
# Mechanical properties :
#
#
# Convention : Reuss Voigt Hill
#
# Bulk Modulus (GPa) = 25.26916 29.07714 27.17315
# Shear Modulus (GPa) = 27.60284 28.73662 28.16973
#
# Velocity S-wave (km/s) = 3.58220 3.65503 3.61879
# Velocity P-wave (km/s) = 5.37185 5.59730 5.48573
#
# Compressibility (1/GPa) = 0.03957393
#
# Stress axis : x y z
#
# Youngs Moduli (GPa) = 80.84931 45.90361 60.64998
#
# Poissons Ratio (x) = 0.17662 0.20277
# Poissons Ratio (y) = 0.31108 -0.10051
# Poissons Ratio (z) = 0.27031 -0.07607
#
# Static dielectric constant tensor:
#      x y z
#    x 1.788080 0.000000 0.000000 
#    y 0.000000 1.810570 0.000000 
#    z 0.000000 0.000000 1.874250 
# 
# From -- ./inp_files/8518.got.cif
#   From: 2010.05.17/outbox.cif.g08.bks.cpg/sg60_5_cif.got.tgz:8518.got - 2010.06.03 14:59:27.
