data_PCOD9456754
_publ_section_title
;
Structure prediction by ZEFSAII (Michael W. Deem and Ramdas Pophale) SiO2 
 PCOD9456754
Probable space group: P B C N
;
_chemical_formula_sum "Si O2"
_cell_formula_units_Z 44
_cell_length_a 25.660300
_cell_length_b 5.325754
_cell_length_c 13.848631
_cell_angle_alpha 90.000000
_cell_angle_beta 90.000000
_cell_angle_gamma 90.000000
_cell_volume 1892.560080
_symmetry_space_group_name_H-M "P B C N"
_symmetry_group_IT_number 60
_symmetry_cell_setting 'orthorhombic'
loop_
_space_group_symop_operation_xyz
x,y,z
1/2-x,1/2-y,1/2+z
1/2+x,1/2-y,-z
-x,y,1/2-z
-x,-y,-z
1/2+x,1/2+y,1/2-z
1/2-x,1/2+y,z
x,-y,1/2+z
loop_
_atom_site_type_symbol
_atom_site_label
_atom_site_fract_x
_atom_site_fract_y
_atom_site_fract_z
Si Si1 0.264444 0.932202 0.552137
Si Si2 0.723528 0.641018 0.667171
Si Si3 0.976839 0.251867 0.455521
Si Si4 0.128069 0.354253 0.114545
Si Si5 0.614140 0.644379 0.759100
Si Si6 0.000000 0.056500 0.250000
O O1 0.228994 0.154088 0.595825
O O2 0.242415 0.879118 0.444733
O O3 0.319700 0.067456 0.560889
O O4 0.752923 0.883706 0.709194
O O5 0.661522 0.667988 0.682149
O O6 0.915146 0.279874 0.463571
O O7 0.988598 0.227303 0.342246
O O8 0.000000 0.500000 0.500000
O O9 0.000000 0.000000 0.500000
O O10 0.113651 0.602581 0.176557
O O11 0.129717 0.109716 0.182670
O O12 0.553504 0.598024 0.729351
#
# Coordination Sequence:
#
# PCOD9456754 Si02
#       6
#     8   8   8   8   8   4
#     4  10  22  39  61  90 129 173 220 279 345 418
#     4  10  22  39  61  95 128 171 227 277 343 422
#     4  11  25  44  72 104 138 186 239 293 361 433
#     4  11  24  42  64  98 136 175 227 294 360 422
#     4  11  24  42  68  98 137 184 231 292 366 432
#     4  10  26  48  72 106 148 188 244 306 358 434
#
# _framework density 23.248933999999998
#
# number of rings (size 3 to 8) (size 9 to 14) (size 15 to 20)
#    0.000    1.455    0.000    4.364    0.000   16.727 
#    0.000    0.000    0.000    0.000    0.000    0.000 
#    0.000    0.000    0.000    0.000    0.000    0.000 
#
# Total GULP energy -245712.239017 kJ/mol
# GULP energy per Si atom -5584.369069 kJ/mol
# Density = 2.319602 g / cm^3
# Si number density = 23.248934 Si / 1000 Ang^3
#
#
#
# Elastic Constant Matrix: (Units=GPa)
#
#
# Indices 1 2 3 4 5 6 
#
# 1 171.5737 30.1223 18.7774 0.0000 0.0000 0.0000
# 2 30.1223 201.7065 24.8512 0.0000 0.0000 0.0000
# 3 18.7774 24.8512 59.3500 0.0000 0.0000 0.0000
# 4 0.0000 0.0000 0.0000 29.1610 0.0000 0.0000
# 5 0.0000 0.0000 0.0000 0.0000 45.1974 0.0000
# 6 0.0000 0.0000 0.0000 0.0000 0.0000 37.6069
#
#
#
# Elastic Compliance Matrix: (Units=1/GPa)
#
#
# Indices 1 2 3 4 5 6 
#
# 1 0.006133 -0.000714 -0.001642 0.000000 0.000000 0.000000
# 2 -0.000714 0.005310 -0.001998 0.000000 0.000000 0.000000
# 3 -0.001642 -0.001998 0.018205 0.000000 0.000000 0.000000
# 4 0.000000 0.000000 0.000000 0.034292 0.000000 0.000000
# 5 0.000000 0.000000 0.000000 0.000000 0.022125 0.000000
# 6 0.000000 0.000000 0.000000 0.000000 0.000000 0.026591
#
#
# Mechanical properties :
#
#
# Convention : Reuss Voigt Hill
#
# Bulk Modulus (GPa) = 47.74950 64.45910 56.10430
# Shear Modulus (GPa) = 38.95766 46.31836 42.63801
#
# Velocity S-wave (km/s) = 4.09794 4.46834 4.28714
# Velocity P-wave (km/s) = 6.55544 7.37612 6.97786
#
# Compressibility (1/GPa) = 0.02094263
#
# Stress axis : x y z
#
# Youngs Moduli (GPa) = 163.04268 188.30924 54.92957
#
# Poissons Ratio (x) = 0.13439 0.09018
# Poissons Ratio (y) = 0.11636 0.10974
# Poissons Ratio (z) = 0.26766 0.37620
#
# Static dielectric constant tensor:
#      x y z
#    x 1.270940 0.000000 0.000000 
#    y 0.000000 2.000280 0.000000 
#    z 0.000000 0.000000 2.059050 
# 
# From -- ./inp_files/18003.got.cif
#   From: 2010.05.17/outbox.cif.g08.bks.cpg/sg60_10_cif.got.tgz:18003.got - 2010.06.03 14:59:27.
