data_PCOD9456595
_publ_section_title
;
Structure prediction by ZEFSAII (Michael W. Deem and Ramdas Pophale) SiO2 
 PCOD9456595
Probable space group: P B C N
;
_chemical_formula_sum "Si O2"
_cell_formula_units_Z 48
_cell_length_a 21.957337
_cell_length_b 7.182856
_cell_length_c 11.931131
_cell_angle_alpha 90.000000
_cell_angle_beta 90.000000
_cell_angle_gamma 90.000000
_cell_volume 1881.734908
_symmetry_space_group_name_H-M "P B C N"
_symmetry_group_IT_number 60
_symmetry_cell_setting 'orthorhombic'
loop_
_space_group_symop_operation_xyz
x,y,z
1/2-x,1/2-y,1/2+z
1/2+x,1/2-y,-z
-x,y,1/2-z
-x,-y,-z
1/2+x,1/2+y,1/2-z
1/2-x,1/2+y,z
x,-y,1/2+z
loop_
_atom_site_type_symbol
_atom_site_label
_atom_site_fract_x
_atom_site_fract_y
_atom_site_fract_z
Si Si1 0.987585 0.783583 0.507657
Si Si2 0.814467 0.138991 0.644246
Si Si3 0.884845 0.751872 0.943059
Si Si4 0.369718 0.311571 0.120647
Si Si5 0.678645 0.795604 0.099863
Si Si6 0.563737 0.087009 0.717026
O O1 0.934109 0.733418 0.423259
O O2 0.969387 0.740757 0.635733
O O3 0.054239 0.704419 0.484420
O O4 0.000000 0.000000 0.500000
O O5 0.829653 0.251173 0.530295
O O6 0.849881 0.214032 0.752456
O O7 0.741837 0.145135 0.654652
O O8 0.833746 0.921565 0.632442
O O9 0.899765 0.640448 0.830678
O O10 0.878160 0.966904 0.900759
O O11 0.321312 0.219516 0.035425
O O12 0.623900 0.926881 0.138520
O O13 0.500000 0.979599 0.750000
#
# Coordination Sequence:
#
# PCOD9456595 Si02
#       6
#     8   8   8   8   8   8
#     4   8  15  26  46  75 106 136 165 217 275 310
#     4  11  22  34  52  76 109 144 176 218 267 330
#     4   9  17  29  47  75 106 134 173 212 276 315
#     4   9  18  31  48  73 107 135 175 216 265 315
#     4  10  22  35  51  79 104 142 180 217 271 321
#     4   9  16  31  52  76 105 136 176 226 264 317
#
# _framework density 25.508375999999998
#
# number of rings (size 3 to 8) (size 9 to 14) (size 15 to 20)
#    0.000    2.667    1.667    1.000    2.333    0.667 
#    0.000    0.000    0.000    0.000    4.333    3.500 
#    0.000    0.000    0.000    0.000    0.000    0.000 
#
# Total GULP energy -267451.707811 kJ/mol
# GULP energy per Si atom -5571.910579 kJ/mol
# Density = 2.545032 g / cm^3
# Si number density = 25.508376 Si / 1000 Ang^3
#
#
#
# Elastic Constant Matrix: (Units=GPa)
#
#
# Indices 1 2 3 4 5 6 
#
# 1 122.4189 3.7275 50.1427 0.0000 0.0000 0.0000
# 2 3.7275 90.8076 37.7965 0.0000 0.0000 0.0000
# 3 50.1427 37.7965 146.1623 0.0000 0.0000 0.0000
# 4 0.0000 0.0000 0.0000 19.8064 0.0000 0.0000
# 5 0.0000 0.0000 0.0000 0.0000 43.6412 0.0000
# 6 0.0000 0.0000 0.0000 0.0000 0.0000 29.5625
#
#
#
# Elastic Compliance Matrix: (Units=1/GPa)
#
#
# Indices 1 2 3 4 5 6 
#
# 1 0.009600 0.001095 -0.003577 0.000000 0.000000 0.000000
# 2 0.001095 0.012465 -0.003599 0.000000 0.000000 0.000000
# 3 -0.003577 -0.003599 0.008999 0.000000 0.000000 0.000000
# 4 0.000000 0.000000 0.000000 0.050489 0.000000 0.000000
# 5 0.000000 0.000000 0.000000 0.000000 0.022914 0.000000
# 6 0.000000 0.000000 0.000000 0.000000 0.000000 0.033827
#
#
# Mechanical properties :
#
#
# Convention : Reuss Voigt Hill
#
# Bulk Modulus (GPa) = 52.90124 60.30244 56.60184
# Shear Modulus (GPa) = 31.89641 36.45015 34.17328
#
# Velocity S-wave (km/s) = 3.53998 3.78424 3.66415
# Velocity P-wave (km/s) = 6.12310 6.54107 6.33553
#
# Compressibility (1/GPa) = 0.01890315
#
# Stress axis : x y z
#
# Youngs Moduli (GPa) = 104.16347 80.22242 111.11925
#
# Poissons Ratio (x) = -0.08781 0.39742
# Poissons Ratio (y) = -0.11401 0.39991
# Poissons Ratio (z) = 0.37254 0.28872
#
# Static dielectric constant tensor:
#      x y z
#    x 2.072870 0.000000 0.000000 
#    y 0.000000 2.192420 0.000000 
#    z 0.000000 0.000000 2.050490 
# 
# From -- ./inp_files/12472.got.cif
#   From: 2010.05.17/outbox.cif.g08.bks.cpg/sg60_7_cif.got.tgz:12472.got - 2010.06.03 14:59:27.
