data_PCOD9456966
_publ_section_title
;
Structure prediction by ZEFSAII (Michael W. Deem and Ramdas Pophale) SiO2 
 PCOD9456966
Probable space group: P B C N
;
_chemical_formula_sum "Si O2"
_cell_formula_units_Z 60
_cell_length_a 26.011566
_cell_length_b 8.783230
_cell_length_c 11.412658
_cell_angle_alpha 90.000000
_cell_angle_beta 90.000000
_cell_angle_gamma 90.000000
_cell_volume 2607.399379
_symmetry_space_group_name_H-M "P B C N"
_symmetry_group_IT_number 60
_symmetry_cell_setting 'orthorhombic'
loop_
_space_group_symop_operation_xyz
x,y,z
1/2-x,1/2-y,1/2+z
1/2+x,1/2-y,-z
-x,y,1/2-z
-x,-y,-z
1/2+x,1/2+y,1/2-z
1/2-x,1/2+y,z
x,-y,1/2+z
loop_
_atom_site_type_symbol
_atom_site_label
_atom_site_fract_x
_atom_site_fract_y
_atom_site_fract_z
Si Si1 0.437588 0.036307 0.869754
Si Si2 0.181268 0.788341 0.742745
Si Si3 0.168911 0.450940 0.817062
Si Si4 0.429591 0.284353 0.674140
Si Si5 0.771040 0.942744 0.561445
Si Si6 0.494505 0.775544 0.542129
Si Si7 0.000000 0.037938 0.750000
Si Si8 0.719473 0.191629 0.399394
O O1 0.437281 0.130730 0.749648
O O2 0.387192 0.929306 0.869807
O O3 0.484149 0.921609 0.888718
O O4 0.444334 0.162583 0.972674
O O5 0.172241 0.635448 0.818387
O O6 0.131473 0.806737 0.662017
O O7 0.194000 0.936408 0.822204
O O8 0.233818 0.747639 0.678782
O O9 0.215600 0.381402 0.891246
O O10 0.179112 0.393748 0.684274
O O11 0.463930 0.270429 0.558075
O O12 0.451802 0.422745 0.752020
O O13 0.800508 0.834068 0.471401
O O14 0.750557 0.084367 0.489032
O O15 0.491068 0.641110 0.635721
#
# Coordination Sequence:
#
# PCOD9456966 Si02
#       8
#     8   8   8   8   8   8   4   8
#     4  10  24  44  73  97 134 187 243 284 351 424
#     4  10  23  41  64  97 131 181 230 268 345 421
#     4  10  22  41  66  98 130 175 235 276 334 420
#     4  11  24  47  69  98 145 181 232 296 354 427
#     4  11  22  41  65  94 134 178 217 283 340 402
#     4  11  25  45  74 101 140 185 235 302 359 423
#     4  12  26  46  70 106 140 182 230 296 374 430
#     4  11  22  40  65  91 135 175 220 281 342 400
#
# _framework density 23.011433
#
# number of rings (size 3 to 8) (size 9 to 14) (size 15 to 20)
#    0.000    1.333    4.000    0.400    5.600    1.067 
#    4.800    0.000    0.000    0.000    0.000    0.000 
#    0.000    0.000    0.000    0.000    0.000    0.000 
#
# Total GULP energy -334693.735024 kJ/mol
# GULP energy per Si atom -5578.228917 kJ/mol
# Density = 2.295906 g / cm^3
# Si number density = 23.011433 Si / 1000 Ang^3
#
#
#
# Elastic Constant Matrix: (Units=GPa)
#
#
# Indices 1 2 3 4 5 6 
#
# 1 94.3674 6.7889 28.4867 0.0000 0.0000 0.0000
# 2 6.7889 53.3673 15.6928 0.0000 0.0000 0.0000
# 3 28.4867 15.6928 55.9283 0.0000 0.0000 0.0000
# 4 0.0000 0.0000 0.0000 42.9227 0.0000 0.0000
# 5 0.0000 0.0000 0.0000 0.0000 21.3271 0.0000
# 6 0.0000 0.0000 0.0000 0.0000 0.0000 16.3854
#
#
#
# Elastic Compliance Matrix: (Units=1/GPa)
#
#
# Indices 1 2 3 4 5 6 
#
# 1 0.012527 0.000308 -0.006467 0.000000 0.000000 0.000000
# 2 0.000308 0.020431 -0.005889 0.000000 0.000000 0.000000
# 3 -0.006467 -0.005889 0.022826 0.000000 0.000000 0.000000
# 4 0.000000 0.000000 0.000000 0.023298 0.000000 0.000000
# 5 0.000000 0.000000 0.000000 0.000000 0.046889 0.000000
# 6 0.000000 0.000000 0.000000 0.000000 0.000000 0.061030
#
#
# Mechanical properties :
#
#
# Convention : Reuss Voigt Hill
#
# Bulk Modulus (GPa) = 31.55840 33.95552 32.75696
# Shear Modulus (GPa) = 22.55712 26.30668 24.43190
#
# Velocity S-wave (km/s) = 3.13430 3.38479 3.26195
# Velocity P-wave (km/s) = 5.18097 5.48304 5.33414
#
# Compressibility (1/GPa) = 0.03168729
#
# Stress axis : x y z
#
# Youngs Moduli (GPa) = 79.82833 48.94597 43.80891
#
# Poissons Ratio (x) = -0.01508 0.28331
# Poissons Ratio (y) = -0.02459 0.25801
# Poissons Ratio (z) = 0.51624 0.28827
#
# Static dielectric constant tensor:
#      x y z
#    x 1.948940 0.000000 0.000000 
#    y 0.000000 1.898850 0.000000 
#    z 0.000000 0.000000 1.959070 
# 
# From -- ./inp_files/13301.got.cif
#   From: 2010.05.17/outbox.cif.g08.bks.cpg/sg60_7_cif.got.tgz:13301.got - 2010.06.03 14:59:27.
