data_PCOD9456251
_publ_section_title
;
Structure prediction by ZEFSAII (Michael W. Deem and Ramdas Pophale) SiO2 
 PCOD9456251
Probable space group: P B C N
;
_chemical_formula_sum "Si O2"
_cell_formula_units_Z 48
_cell_length_a 14.982265
_cell_length_b 8.669777
_cell_length_c 15.749498
_cell_angle_alpha 90.000000
_cell_angle_beta 90.000000
_cell_angle_gamma 90.000000
_cell_volume 2045.747914
_symmetry_space_group_name_H-M "P B C N"
_symmetry_group_IT_number 60
_symmetry_cell_setting 'orthorhombic'
loop_
_space_group_symop_operation_xyz
x,y,z
1/2-x,1/2-y,1/2+z
1/2+x,1/2-y,-z
-x,y,1/2-z
-x,-y,-z
1/2+x,1/2+y,1/2-z
1/2-x,1/2+y,z
x,-y,1/2+z
loop_
_atom_site_type_symbol
_atom_site_label
_atom_site_fract_x
_atom_site_fract_y
_atom_site_fract_z
Si Si1 0.808303 0.582817 0.411485
Si Si2 0.145350 0.707918 0.904052
Si Si3 0.302398 0.467721 0.332424
Si Si4 0.520415 0.060623 0.850015
Si Si5 0.650054 0.410645 0.356711
Si Si6 0.471464 0.278534 0.350590
O O1 0.835629 0.649378 0.501929
O O2 0.711805 0.508074 0.418155
O O3 0.816007 0.732690 0.350815
O O4 0.876382 0.453462 0.375428
O O5 0.180979 0.876311 0.882927
O O6 0.202132 0.593452 0.842731
O O7 0.039817 0.693564 0.889116
O O8 0.332359 0.487665 0.234665
O O9 0.372762 0.339197 0.364095
O O10 0.500000 0.067884 0.750000
O O11 0.483168 0.894922 0.882686
O O12 0.547781 0.393242 0.384564
O O13 0.500000 0.273599 0.250000
#
# Coordination Sequence:
#
# PCOD9456251 Si02
#       6
#     8   8   8   8   8   8
#     4  11  23  40  60  90 125 158 196 250 304 349
#     4  12  24  38  59  92 124 156 198 251 302 350
#     4  11  22  39  62  88 118 159 205 245 291 358
#     4  10  21  40  63  88 120 160 199 241 294 358
#     4  10  21  40  63  86 118 162 203 243 294 359
#     4   8  18  37  61  86 114 149 197 248 289 338
#
# _framework density 23.463301999999999
#
# number of rings (size 3 to 8) (size 9 to 14) (size 15 to 20)
#    0.000    1.667    0.000    5.500    0.000    3.333 
#    0.000    9.167    0.000    0.000    0.000    0.000 
#    0.000    0.000    0.000    0.000    0.000    0.000 
#
# Total GULP energy -268393.732501 kJ/mol
# GULP energy per Si atom -5591.536094 kJ/mol
# Density = 2.340990 g / cm^3
# Si number density = 23.463302 Si / 1000 Ang^3
#
#
#
# Elastic Constant Matrix: (Units=GPa)
#
#
# Indices 1 2 3 4 5 6 
#
# 1 50.5245 3.4117 5.1860 0.0000 0.0000 0.0000
# 2 3.4117 24.4281 -5.7100 0.0000 0.0000 0.0000
# 3 5.1860 -5.7100 45.3658 0.0000 0.0000 0.0000
# 4 0.0000 0.0000 0.0000 5.5774 0.0000 0.0000
# 5 0.0000 0.0000 0.0000 0.0000 19.7272 0.0000
# 6 0.0000 0.0000 0.0000 0.0000 0.0000 37.4694
#
#
#
# Elastic Compliance Matrix: (Units=1/GPa)
#
#
# Indices 1 2 3 4 5 6 
#
# 1 0.020311 -0.003482 -0.002760 0.000000 0.000000 0.000000
# 2 -0.003482 0.042774 0.005782 0.000000 0.000000 0.000000
# 3 -0.002760 0.005782 0.023086 0.000000 0.000000 0.000000
# 4 0.000000 0.000000 0.000000 0.179297 0.000000 0.000000
# 5 0.000000 0.000000 0.000000 0.000000 0.050691 0.000000
# 6 0.000000 0.000000 0.000000 0.000000 0.000000 0.026688
#
#
# Mechanical properties :
#
#
# Convention : Reuss Voigt Hill
#
# Bulk Modulus (GPa) = 11.73003 14.01041 12.87022
# Shear Modulus (GPa) = 13.43419 20.38351 16.90885
#
# Velocity S-wave (km/s) = 2.39542 2.95064 2.68741
# Velocity P-wave (km/s) = 3.55821 4.19434 3.88931
#
# Compressibility (1/GPa) = 0.08525125
#
# Stress axis : x y z
#
# Youngs Moduli (GPa) = 49.23490 23.37858 43.31579
#
# Poissons Ratio (x) = 0.08140 0.11955
# Poissons Ratio (y) = 0.17143 -0.25045
# Poissons Ratio (z) = 0.13589 -0.13517
#
# Static dielectric constant tensor:
#      x y z
#    x 1.901890 0.000000 0.000000 
#    y 0.000000 1.858180 0.000000 
#    z 0.000000 0.000000 1.944470 
# 
# From -- ./inp_files/20474.got.cif
#   From: 2010.05.17/outbox.cif.g08.bks.cpg/sg60_11_cif.got.tgz:20474.got - 2010.06.03 14:59:27.
