data_PCOD9456782
_publ_section_title
;
Structure prediction by ZEFSAII (Michael W. Deem and Ramdas Pophale) SiO2 
 PCOD9456782
Probable space group: P B C N
;
_chemical_formula_sum "Si O2"
_cell_formula_units_Z 40
_cell_length_a 9.799580
_cell_length_b 12.815877
_cell_length_c 15.866489
_cell_angle_alpha 90.000000
_cell_angle_beta 90.000000
_cell_angle_gamma 90.000000
_cell_volume 1992.675716
_symmetry_space_group_name_H-M "P B C N"
_symmetry_group_IT_number 60
_symmetry_cell_setting 'orthorhombic'
loop_
_space_group_symop_operation_xyz
x,y,z
1/2-x,1/2-y,1/2+z
1/2+x,1/2-y,-z
-x,y,1/2-z
-x,-y,-z
1/2+x,1/2+y,1/2-z
1/2-x,1/2+y,z
x,-y,1/2+z
loop_
_atom_site_type_symbol
_atom_site_label
_atom_site_fract_x
_atom_site_fract_y
_atom_site_fract_z
Si Si1 0.059565 0.226891 0.155939
Si Si2 0.286709 0.465596 0.447738
Si Si3 0.661227 0.839929 0.909891
Si Si4 0.944001 0.135277 0.982051
Si Si5 0.483637 0.967736 0.348361
O O1 0.217011 0.189528 0.153727
O O2 0.000000 0.208519 0.250000
O O3 0.988336 0.167007 0.077502
O O4 0.038116 0.350110 0.135711
O O5 0.234229 0.368954 0.502651
O O6 0.444209 0.434957 0.433051
O O7 0.305523 0.569049 0.504845
O O8 0.174313 0.478280 0.376376
O O9 0.570949 0.940871 0.890761
O O10 0.573875 0.738098 0.927512
O O11 0.500000 0.984681 0.250000
#
# Coordination Sequence:
#
# PCOD9456782 Si02
#       5
#     8   8   8   8   8
#     4  10  23  41  61  90 131 167 207 268 325 373
#     4  10  22  39  65  93 125 162 220 258 316 379
#     4  11  22  39  66  92 121 170 215 262 313 384
#     4  10  22  39  66  95 123 169 212 268 310 385
#     4  11  24  40  63  93 127 170 209 271 318 385
#
# _framework density 20.073512999999998
#
# number of rings (size 3 to 8) (size 9 to 14) (size 15 to 20)
#    0.000    1.600    2.000    1.800    8.400    0.000 
#    3.600    0.000    0.000    0.000    0.000    0.000 
#    0.000    0.000    0.000    0.000    0.000    0.000 
#
# Total GULP energy -222943.348286 kJ/mol
# GULP energy per Si atom -5573.583707 kJ/mol
# Density = 2.002783 g / cm^3
# Si number density = 20.073513 Si / 1000 Ang^3
#
#
#
# Elastic Constant Matrix: (Units=GPa)
#
#
# Indices 1 2 3 4 5 6 
#
# 1 110.6053 41.2009 64.7302 0.0000 0.0000 0.0000
# 2 41.2009 93.2607 20.8971 0.0000 0.0000 0.0000
# 3 64.7302 20.8971 68.4255 0.0000 0.0000 0.0000
# 4 0.0000 0.0000 0.0000 -29.4731 0.0000 0.0000
# 5 0.0000 0.0000 0.0000 0.0000 39.4666 0.0000
# 6 0.0000 0.0000 0.0000 0.0000 0.0000 34.2339
#
#
#
# Elastic Compliance Matrix: (Units=1/GPa)
#
#
# Indices 1 2 3 4 5 6 
#
# 1 0.022684 -0.005596 -0.019750 0.000000 0.000000 0.000000
# 2 -0.005596 0.012891 0.001357 0.000000 0.000000 0.000000
# 3 -0.019750 0.001357 0.032884 0.000000 0.000000 0.000000
# 4 0.000000 0.000000 0.000000 -0.033929 0.000000 0.000000
# 5 0.000000 0.000000 0.000000 0.000000 0.025338 0.000000
# 6 0.000000 0.000000 0.000000 0.000000 0.000000 0.029211
#
#
# Mechanical properties :
#
#
# Convention : Reuss Voigt Hill
#
# Bulk Modulus (GPa) = 48.82770 58.43868 53.63319
# Shear Modulus (GPa) = 34.75046 18.54302 26.64674
#
# Velocity S-wave (km/s) = 4.16523 3.04263 3.64738
# Velocity P-wave (km/s) = 6.89271 6.44352 6.67190
#
# Compressibility (1/GPa) = 0.02048018
#
# Stress axis : x y z
#
# Youngs Moduli (GPa) = 44.08363 77.57472 30.41038
#
# Poissons Ratio (x) = 0.43411 0.60061
# Poissons Ratio (y) = 0.24669 -0.04127
# Poissons Ratio (z) = 0.87066 -0.10527
#
# Static dielectric constant tensor:
#      x y z
#    x 1.979550 0.000000 0.000000 
#    y 0.000000 1.729520 0.000000 
#    z 0.000000 0.000000 1.862410 
# 
# From -- ./inp_files/19005.got.cif
#   From: 2010.05.17/outbox.cif.g08.bks.cpg/sg60_10_cif.got.tgz:19005.got - 2010.06.03 14:59:27.
