data_PCOD9456578
_publ_section_title
;
Structure prediction by ZEFSAII (Michael W. Deem and Ramdas Pophale) SiO2 
 PCOD9456578
Probable space group: P B C N
;
_chemical_formula_sum "Si O2"
_cell_formula_units_Z 64
_cell_length_a 16.686968
_cell_length_b 26.140475
_cell_length_c 5.755941
_cell_angle_alpha 90.000000
_cell_angle_beta 90.000000
_cell_angle_gamma 90.000000
_cell_volume 2510.771797
_symmetry_space_group_name_H-M "P B C N"
_symmetry_group_IT_number 60
_symmetry_cell_setting 'orthorhombic'
loop_
_space_group_symop_operation_xyz
x,y,z
1/2-x,1/2-y,1/2+z
1/2+x,1/2-y,-z
-x,y,1/2-z
-x,-y,-z
1/2+x,1/2+y,1/2-z
1/2-x,1/2+y,z
x,-y,1/2+z
loop_
_atom_site_type_symbol
_atom_site_label
_atom_site_fract_x
_atom_site_fract_y
_atom_site_fract_z
Si Si1 0.887315 0.976047 0.090548
Si Si2 0.844918 0.809580 0.641401
Si Si3 0.817465 0.368297 0.233978
Si Si4 0.622962 0.363736 0.249690
Si Si5 0.966827 0.353968 0.502553
Si Si6 0.427618 0.256523 0.479870
Si Si7 0.306947 0.212297 0.125607
Si Si8 0.807119 0.522148 0.565756
O O1 0.903728 0.915379 0.127137
O O2 0.790194 0.982300 0.076382
O O3 0.914108 0.002407 0.337038
O O4 0.888729 0.857187 0.526729
O O5 0.799027 0.769396 0.474753
O O6 0.910780 0.775617 0.764341
O O7 0.774803 0.818491 0.824072
O O8 0.721227 0.364654 0.267048
O O9 0.872293 0.368581 0.464114
O O10 0.845155 0.321157 0.076488
O O11 0.830159 0.419053 0.087450
O O12 0.579895 0.312017 0.152567
O O13 0.985646 0.292270 0.514532
O O14 0.000000 0.371810 0.250000
O O15 0.000000 0.374093 0.750000
O O16 0.356607 0.225595 0.351836
O O17 0.834362 0.501654 0.314218
#
# Coordination Sequence:
#
# PCOD9456578 Si02
#       8
#     8   8   8   8   8   8   8   8
#     4   9  19  34  51  80 127 162 185 228 294 379
#     4  11  18  28  50  81 122 142 183 244 293 353
#     4  11  21  39  62  85 115 158 206 258 297 368
#     4  10  22  32  58  93 114 158 202 247 311 348
#     4  12  28  46  59  83 122 171 209 243 304 367
#     4  11  22  36  56  82 123 152 196 252 292 369
#     4  11  18  31  50  88 114 151 189 239 314 347
#     4   9  20  36  56  85 115 149 194 248 314 364
#
# _framework density 25.490172000000001
#
# number of rings (size 3 to 8) (size 9 to 14) (size 15 to 20)
#    0.000    1.500    3.750    2.250    3.500    5.000 
#    0.000    0.000    0.000    2.250    0.000    0.000 
#    0.000    3.000    0.000    0.000    0.000    0.000 
#
# Total GULP energy -356363.771530 kJ/mol
# GULP energy per Si atom -5568.183930 kJ/mol
# Density = 2.543215 g / cm^3
# Si number density = 25.490172 Si / 1000 Ang^3
#
#
#
# Elastic Constant Matrix: (Units=GPa)
#
#
# Indices 1 2 3 4 5 6 
#
# 1 82.0129 9.7036 27.1861 0.0000 0.0000 0.0000
# 2 9.7036 74.2346 10.0170 0.0000 0.0000 0.0000
# 3 27.1861 10.0170 94.3039 0.0000 0.0000 0.0000
# 4 0.0000 0.0000 0.0000 39.2796 0.0000 0.0000
# 5 0.0000 0.0000 0.0000 0.0000 30.0119 0.0000
# 6 0.0000 0.0000 0.0000 0.0000 0.0000 7.3752
#
#
#
# Elastic Compliance Matrix: (Units=1/GPa)
#
#
# Indices 1 2 3 4 5 6 
#
# 1 0.013598 -0.001267 -0.003785 0.000000 0.000000 0.000000
# 2 -0.001267 0.013785 -0.001099 0.000000 0.000000 0.000000
# 3 -0.003785 -0.001099 0.011812 0.000000 0.000000 0.000000
# 4 0.000000 0.000000 0.000000 0.025458 0.000000 0.000000
# 5 0.000000 0.000000 0.000000 0.000000 0.033320 0.000000
# 6 0.000000 0.000000 0.000000 0.000000 0.000000 0.135589
#
#
# Mechanical properties :
#
#
# Convention : Reuss Voigt Hill
#
# Bulk Modulus (GPa) = 37.18544 38.26274 37.72409
# Shear Modulus (GPa) = 19.62102 28.90967 24.26535
#
# Velocity S-wave (km/s) = 2.77744 3.37137 3.08871
# Velocity P-wave (km/s) = 4.99053 5.49529 5.24898
#
# Compressibility (1/GPa) = 0.02689225
#
# Stress axis : x y z
#
# Youngs Moduli (GPa) = 73.54074 72.54427 84.65934
#
# Poissons Ratio (x) = 0.09189 0.32048
# Poissons Ratio (y) = 0.09315 0.09305
# Poissons Ratio (z) = 0.27839 0.07973
#
# Static dielectric constant tensor:
#      x y z
#    x 2.221460 0.000000 0.000000 
#    y 0.000000 1.980720 0.000000 
#    z 0.000000 0.000000 2.210170 
# 
# From -- ./inp_files/2227.got.cif
#   From: 2010.05.17/outbox.cif.g08.bks.cpg/sg60_2_cif.got.tgz:2227.got - 2010.06.03 14:59:27.
