data_PCOD9456236
_publ_section_title
;
Structure prediction by ZEFSAII (Michael W. Deem and Ramdas Pophale) SiO2 
 PCOD9456236
Probable space group: P B C N
;
_chemical_formula_sum "Si O2"
_cell_formula_units_Z 56
_cell_length_a 14.098024
_cell_length_b 15.458701
_cell_length_c 11.939448
_cell_angle_alpha 90.000000
_cell_angle_beta 90.000000
_cell_angle_gamma 90.000000
_cell_volume 2602.049123
_symmetry_space_group_name_H-M "P B C N"
_symmetry_group_IT_number 60
_symmetry_cell_setting 'orthorhombic'
loop_
_space_group_symop_operation_xyz
x,y,z
1/2-x,1/2-y,1/2+z
1/2+x,1/2-y,-z
-x,y,1/2-z
-x,-y,-z
1/2+x,1/2+y,1/2-z
1/2-x,1/2+y,z
x,-y,1/2+z
loop_
_atom_site_type_symbol
_atom_site_label
_atom_site_fract_x
_atom_site_fract_y
_atom_site_fract_z
Si Si1 0.510180 0.786572 0.566384
Si Si2 0.330520 0.680839 0.475231
Si Si3 0.153344 0.627151 0.616568
Si Si4 0.085208 0.552395 0.055557
Si Si5 0.987562 0.928782 0.625990
Si Si6 0.294536 0.851740 0.363317
Si Si7 0.413444 0.388643 0.404580
O O1 0.419485 0.734502 0.521106
O O2 0.576841 0.824530 0.465057
O O3 0.464546 0.870580 0.624231
O O4 0.561775 0.709297 0.630891
O O5 0.255915 0.650796 0.566836
O O6 0.383850 0.601491 0.416306
O O7 0.279112 0.751732 0.398082
O O8 0.142633 0.523127 0.614935
O O9 0.150233 0.651575 0.746355
O O10 0.145850 0.597984 0.958074
O O11 0.000000 0.500000 0.000000
O O12 0.000000 0.893242 0.750000
O O13 0.068641 0.895250 0.540172
O O14 0.982745 0.033182 0.630212
O O15 0.193226 0.899833 0.362131
#
# Coordination Sequence:
#
# PCOD9456236 Si02
#       7
#     8   8   8   8   8   8   8
#     4   9  20  40  64  89 134 168 215 282 338 389
#     4  10  22  38  63 100 125 169 228 281 326 411
#     4  11  22  42  67  94 136 177 226 281 350 412
#     4   9  21  40  65  95 133 170 223 287 329 410
#     4  10  23  39  66  90 129 178 222 277 350 402
#     4  11  23  38  70  96 132 182 221 279 357 407
#     4  10  21  40  60  95 135 166 222 288 331 412
#
# _framework density 21.5215
#
# number of rings (size 3 to 8) (size 9 to 14) (size 15 to 20)
#    0.000    2.000    1.429    0.857    4.000    9.143 
#    0.000    4.286   15.714    0.000    0.000    0.000 
#    0.000    0.000    0.000    0.000    0.000    0.000 
#
# Total GULP energy -311931.993745 kJ/mol
# GULP energy per Si atom -5570.214174 kJ/mol
# Density = 2.147252 g / cm^3
# Si number density = 21.521500 Si / 1000 Ang^3
#
#
#
# Elastic Constant Matrix: (Units=GPa)
#
#
# Indices 1 2 3 4 5 6 
#
# 1 80.5594 12.1116 -1.2562 0.0000 0.0000 0.0000
# 2 12.1116 129.5052 1.7249 0.0000 0.0000 0.0000
# 3 -1.2562 1.7249 55.2842 0.0000 0.0000 0.0000
# 4 0.0000 0.0000 0.0000 -19.1520 0.0000 0.0000
# 5 0.0000 0.0000 0.0000 0.0000 11.6211 0.0000
# 6 0.0000 0.0000 0.0000 0.0000 0.0000 30.0622
#
#
#
# Elastic Compliance Matrix: (Units=1/GPa)
#
#
# Indices 1 2 3 4 5 6 
#
# 1 0.012596 -0.001182 0.000323 0.000000 0.000000 0.000000
# 2 -0.001182 0.007836 -0.000271 0.000000 0.000000 0.000000
# 3 0.000323 -0.000271 0.018104 0.000000 0.000000 0.000000
# 4 0.000000 0.000000 0.000000 -0.052214 0.000000 0.000000
# 5 0.000000 0.000000 0.000000 0.000000 0.086050 0.000000
# 6 0.000000 0.000000 0.000000 0.000000 0.000000 0.033264
#
#
# Mechanical properties :
#
#
# Convention : Reuss Voigt Hill
#
# Bulk Modulus (GPa) = 27.56723 32.27881 29.92302
# Shear Modulus (GPa) = 41.67032 21.35751 31.51391
#
# Velocity S-wave (km/s) = 4.40502 3.15362 3.83077
# Velocity P-wave (km/s) = 6.22168 5.31897 5.78795
#
# Compressibility (1/GPa) = 0.03627495
#
# Stress axis : x y z
#
# Youngs Moduli (GPa) = 79.39036 127.61808 55.23589
#
# Poissons Ratio (x) = 0.15088 -0.01785
# Poissons Ratio (y) = 0.09386 0.01499
# Poissons Ratio (z) = -0.02565 0.03463
#
# Static dielectric constant tensor:
#      x y z
#    x 1.769860 0.000000 0.000000 
#    y 0.000000 1.868140 0.000000 
#    z 0.000000 0.000000 1.847730 
# 
# From -- ./inp_files/11975.got.cif
#   From: 2010.05.17/outbox.cif.g08.bks.cpg/sg60_6_cif.got.tgz:11975.got - 2010.06.03 14:59:27.
