data_PCOD9456470
_publ_section_title
;
Structure prediction by ZEFSAII (Michael W. Deem and Ramdas Pophale) SiO2 
 PCOD9456470
Probable space group: P B C N
;
_chemical_formula_sum "Si O2"
_cell_formula_units_Z 40
_cell_length_a 10.929272
_cell_length_b 8.706710
_cell_length_c 18.617849
_cell_angle_alpha 90.000000
_cell_angle_beta 90.000000
_cell_angle_gamma 90.000000
_cell_volume 1771.637309
_symmetry_space_group_name_H-M "P B C N"
_symmetry_group_IT_number 60
_symmetry_cell_setting 'orthorhombic'
loop_
_space_group_symop_operation_xyz
x,y,z
1/2-x,1/2-y,1/2+z
1/2+x,1/2-y,-z
-x,y,1/2-z
-x,-y,-z
1/2+x,1/2+y,1/2-z
1/2-x,1/2+y,z
x,-y,1/2+z
loop_
_atom_site_type_symbol
_atom_site_label
_atom_site_fract_x
_atom_site_fract_y
_atom_site_fract_z
Si Si1 0.892525 0.466857 0.699289
Si Si2 0.283525 0.341290 0.046983
Si Si3 0.347228 0.695089 0.291323
Si Si4 0.900029 0.110142 0.364149
Si Si5 0.115655 0.436928 0.461617
O O1 0.856377 0.629254 0.735798
O O2 0.788437 0.342523 0.683031
O O3 0.915839 0.537309 0.620950
O O4 0.000000 0.403398 0.750000
O O5 0.180811 0.241509 0.092686
O O6 0.368840 0.448908 0.097117
O O7 0.358397 0.226351 0.996810
O O8 0.224026 0.456743 0.990058
O O9 0.354366 0.599052 0.217803
O O10 0.456129 0.648212 0.346662
O O11 0.000000 0.500000 0.500000
#
# Coordination Sequence:
#
# PCOD9456470 Si02
#       5
#     8   8   8   8   8
#     4  12  26  47  69  99 138 178 228 289 337 410
#     4  10  23  42  71 100 145 173 232 282 351 404
#     4  11  24  43  71  97 141 177 236 274 348 406
#     4  10  21  42  70 106 135 184 220 285 339 416
#     4  11  25  43  67 101 135 180 226 278 345 413
#
# _framework density 22.577984000000001
#
# number of rings (size 3 to 8) (size 9 to 14) (size 15 to 20)
#    0.000    1.200    2.000    3.600    5.600    3.200 
#    3.600    5.000    0.000    0.000    0.000    0.000 
#    0.000    0.000    0.000    0.000    0.000    0.000 
#
# Total GULP energy -222851.202409 kJ/mol
# GULP energy per Si atom -5571.280060 kJ/mol
# Density = 2.252660 g / cm^3
# Si number density = 22.577984 Si / 1000 Ang^3
#
#
#
# Elastic Constant Matrix: (Units=GPa)
#
#
# Indices 1 2 3 4 5 6 
#
# 1 57.1128 8.7786 7.0969 0.0000 0.0000 0.0000
# 2 8.7786 59.7211 -1.5634 0.0000 0.0000 0.0000
# 3 7.0969 -1.5634 118.1829 0.0000 0.0000 0.0000
# 4 0.0000 0.0000 0.0000 -3.5121 0.0000 0.0000
# 5 0.0000 0.0000 0.0000 0.0000 31.1587 0.0000
# 6 0.0000 0.0000 0.0000 0.0000 0.0000 8.7105
#
#
#
# Elastic Compliance Matrix: (Units=1/GPa)
#
#
# Indices 1 2 3 4 5 6 
#
# 1 0.018061 -0.002684 -0.001120 0.000000 0.000000 0.000000
# 2 -0.002684 0.017149 0.000388 0.000000 0.000000 0.000000
# 3 -0.001120 0.000388 0.008534 0.000000 0.000000 0.000000
# 4 0.000000 0.000000 0.000000 -0.284732 0.000000 0.000000
# 5 0.000000 0.000000 0.000000 0.000000 0.032094 0.000000
# 6 0.000000 0.000000 0.000000 0.000000 0.000000 0.114804
#
#
# Mechanical properties :
#
#
# Convention : Reuss Voigt Hill
#
# Bulk Modulus (GPa) = 27.09173 29.29347 28.19260
# Shear Modulus (GPa) = -66.70781 21.98505 -22.36138
#
# Velocity S-wave (km/s) = -5.44148 3.12386 -3.15049
# Velocity P-wave (km/s) = 5.23969 5.10038 0.84865
#
# Compressibility (1/GPa) = 0.03691163
#
# Stress axis : x y z
#
# Youngs Moduli (GPa) = 55.36803 58.31167 117.18038
#
# Poissons Ratio (x) = 0.15652 0.13125
# Poissons Ratio (y) = 0.14862 -0.04547
# Poissons Ratio (z) = 0.06202 -0.02263
#
# Static dielectric constant tensor:
#      x y z
#    x 1.843050 0.000000 0.000000 
#    y 0.000000 1.804310 0.000000 
#    z 0.000000 0.000000 1.756790 
# 
# From -- ./inp_files/19840.got.cif
#   From: 2010.05.17/outbox.cif.g08.bks.cpg/sg60_10_cif.got.tgz:19840.got - 2010.06.03 14:59:27.
