data_PCOD9456452
_publ_section_title
;
Structure prediction by ZEFSAII (Michael W. Deem and Ramdas Pophale) SiO2 
 PCOD9456452
Probable space group: P B C N
;
_chemical_formula_sum "Si O2"
_cell_formula_units_Z 40
_cell_length_a 5.013605
_cell_length_b 13.343193
_cell_length_c 25.985025
_cell_angle_alpha 90.000000
_cell_angle_beta 90.000000
_cell_angle_gamma 90.000000
_cell_volume 1738.333188
_symmetry_space_group_name_H-M "P B C N"
_symmetry_group_IT_number 60
_symmetry_cell_setting 'orthorhombic'
loop_
_space_group_symop_operation_xyz
x,y,z
1/2-x,1/2-y,1/2+z
1/2+x,1/2-y,-z
-x,y,1/2-z
-x,-y,-z
1/2+x,1/2+y,1/2-z
1/2-x,1/2+y,z
x,-y,1/2+z
loop_
_atom_site_type_symbol
_atom_site_label
_atom_site_fract_x
_atom_site_fract_y
_atom_site_fract_z
Si Si1 0.661336 0.662543 0.639802
Si Si2 0.194945 0.434592 0.094386
Si Si3 0.589318 0.681092 0.003584
Si Si4 0.637705 0.126560 0.103715
Si Si5 0.751429 0.328350 0.714745
O O1 0.430805 0.581321 0.635566
O O2 0.536903 0.758931 0.609405
O O3 0.725192 0.712967 0.694496
O O4 0.933712 0.628353 0.612528
O O5 0.317035 0.394949 0.040881
O O6 0.085386 0.546437 0.091436
O O7 0.290691 0.723168 0.999819
O O8 0.648828 0.629449 0.058297
O O9 0.750094 0.110613 0.161282
O O10 0.500000 0.342344 0.750000
O O11 0.000000 0.354180 0.750000
#
# Coordination Sequence:
#
# PCOD9456452 Si02
#       5
#     8   8   8   8   8
#     4  10  24  41  66  94 131 169 221 270 326 396
#     4  12  22  43  64  98 135 175 218 271 331 398
#     4  12  21  40  63  93 136 177 218 268 328 395
#     4  10  25  40  69  96 133 176 221 275 332 392
#     4  10  21  42  66  91 125 167 212 277 335 381
#
# _framework density 23.010546999999999
#
# number of rings (size 3 to 8) (size 9 to 14) (size 15 to 20)
#    1.200    0.000    4.000    1.800    0.000    6.400 
#    0.000    8.000    0.000    0.000    0.000    0.000 
#    0.000    0.000    0.000    0.000    0.000    0.000 
#
# Total GULP energy -223540.869349 kJ/mol
# GULP energy per Si atom -5588.521734 kJ/mol
# Density = 2.295817 g / cm^3
# Si number density = 23.010547 Si / 1000 Ang^3
#
#
#
# Elastic Constant Matrix: (Units=GPa)
#
#
# Indices 1 2 3 4 5 6 
#
# 1 121.5528 35.2131 45.5098 0.0000 0.0000 0.0000
# 2 35.2131 70.8184 28.0518 0.0000 0.0000 0.0000
# 3 45.5098 28.0518 126.0557 0.0000 0.0000 0.0000
# 4 0.0000 0.0000 0.0000 13.6700 0.0000 0.0000
# 5 0.0000 0.0000 0.0000 0.0000 -0.1315 0.0000
# 6 0.0000 0.0000 0.0000 0.0000 0.0000 28.2962
#
#
#
# Elastic Compliance Matrix: (Units=1/GPa)
#
#
# Indices 1 2 3 4 5 6 
#
# 1 0.010485 -0.004073 -0.002879 0.000000 0.000000 0.000000
# 2 -0.004073 0.017068 -0.002328 0.000000 0.000000 0.000000
# 3 -0.002879 -0.002328 0.009490 0.000000 0.000000 0.000000
# 4 0.000000 0.000000 0.000000 0.073153 0.000000 0.000000
# 5 0.000000 0.000000 0.000000 0.000000 -7.606785 0.000000
# 6 0.000000 0.000000 0.000000 0.000000 0.000000 0.035340
#
#
# Mechanical properties :
#
#
# Convention : Reuss Voigt Hill
#
# Bulk Modulus (GPa) = 54.10167 59.55293 56.82730
# Shear Modulus (GPa) = -0.67236 22.34376 10.83570
#
# Velocity S-wave (km/s) = -0.54114 3.11950 2.17238
# Velocity P-wave (km/s) = 4.81376 6.23795 5.57155
#
# Compressibility (1/GPa) = 0.01848372
#
# Stress axis : x y z
#
# Youngs Moduli (GPa) = 95.37755 58.58970 105.36998
#
# Poissons Ratio (x) = 0.23863 0.30335
# Poissons Ratio (y) = 0.38847 0.24527
# Poissons Ratio (z) = 0.27458 0.13638
#
# Static dielectric constant tensor:
#      x y z
#    x 1.799750 0.000000 0.000000 
#    y 0.000000 1.927610 0.000000 
#    z 0.000000 0.000000 1.883230 
# 
# From -- ./inp_files/24799.got.cif
#   From: 2010.05.17/outbox.cif.g08.bks.cpg/sg60_13_cif.got.tgz:24799.got - 2010.06.03 14:59:27.
