data_PCOD9456214
_publ_section_title
;
Structure prediction by ZEFSAII (Michael W. Deem and Ramdas Pophale) SiO2 
 PCOD9456214
Probable space group: P B C N
;
_chemical_formula_sum "Si O2"
_cell_formula_units_Z 32
_cell_length_a 5.921428
_cell_length_b 22.919858
_cell_length_c 10.016812
_cell_angle_alpha 90.000000
_cell_angle_beta 90.000000
_cell_angle_gamma 90.000000
_cell_volume 1359.464585
_symmetry_space_group_name_H-M "P B C N"
_symmetry_group_IT_number 60
_symmetry_cell_setting 'orthorhombic'
loop_
_space_group_symop_operation_xyz
x,y,z
1/2-x,1/2-y,1/2+z
1/2+x,1/2-y,-z
-x,y,1/2-z
-x,-y,-z
1/2+x,1/2+y,1/2-z
1/2-x,1/2+y,z
x,-y,1/2+z
loop_
_atom_site_type_symbol
_atom_site_label
_atom_site_fract_x
_atom_site_fract_y
_atom_site_fract_z
Si Si1 0.080547 0.575590 0.382517
Si Si2 0.500000 0.697398 0.250000
Si Si3 0.307218 0.534201 0.923544
Si Si4 0.545410 0.354531 0.468952
Si Si5 0.500000 0.742471 0.750000
O O1 0.214054 0.517387 0.330247
O O2 0.222321 0.614961 0.484711
O O3 0.000000 0.608049 0.250000
O O4 0.880048 0.551098 0.469825
O O5 0.551381 0.660793 0.384453
O O6 0.746473 0.729007 0.224032
O O7 0.500000 0.500000 0.000000
O O8 0.405541 0.596847 0.886330
O O9 0.551421 0.297313 0.379881
#
# Coordination Sequence:
#
# PCOD9456214 Si02
#       5
#     8   4   8   8   4
#     4  10  21  39  69 104 145 188 239 294 366 458
#     4  12  28  50  73 104 141 192 258 316 374 442
#     4   9  21  38  61 101 139 181 230 286 358 448
#     4  11  25  44  74 101 143 193 246 305 383 439
#     4  12  30  48  73 106 145 188 254 324 374 434
#
# _framework density 23.538678999999998
#
# number of rings (size 3 to 8) (size 9 to 14) (size 15 to 20)
#    0.000    1.500    0.000    3.000    8.750    9.000 
#    0.000    1.250    0.000    0.000    0.000    0.000 
#    0.000    0.000    0.000    0.000    0.000    0.000 
#
# Total GULP energy -178222.489983 kJ/mol
# GULP energy per Si atom -5569.452812 kJ/mol
# Density = 2.348510 g / cm^3
# Si number density = 23.538679 Si / 1000 Ang^3
#
#
#
# Elastic Constant Matrix: (Units=GPa)
#
#
# Indices 1 2 3 4 5 6 
#
# 1 151.7203 61.5364 33.4720 0.0000 0.0000 0.0000
# 2 61.5364 87.8027 24.5965 0.0000 0.0000 0.0000
# 3 33.4720 24.5965 105.4715 0.0000 0.0000 0.0000
# 4 0.0000 0.0000 0.0000 14.1387 0.0000 0.0000
# 5 0.0000 0.0000 0.0000 0.0000 34.3150 0.0000
# 6 0.0000 0.0000 0.0000 0.0000 0.0000 33.1021
#
#
#
# Elastic Compliance Matrix: (Units=1/GPa)
#
#
# Indices 1 2 3 4 5 6 
#
# 1 0.009441 -0.006181 -0.001555 0.000000 0.000000 0.000000
# 2 -0.006181 0.016232 -0.001824 0.000000 0.000000 0.000000
# 3 -0.001555 -0.001824 0.010400 0.000000 0.000000 0.000000
# 4 0.000000 0.000000 0.000000 0.070728 0.000000 0.000000
# 5 0.000000 0.000000 0.000000 0.000000 0.029142 0.000000
# 6 0.000000 0.000000 0.000000 0.000000 0.000000 0.030210
#
#
# Mechanical properties :
#
#
# Convention : Reuss Voigt Hill
#
# Bulk Modulus (GPa) = 58.98385 64.91161 61.94773
# Shear Modulus (GPa) = 26.18852 31.33712 28.76282
#
# Velocity S-wave (km/s) = 3.33915 3.65266 3.49942
# Velocity P-wave (km/s) = 6.32291 6.73986 6.53471
#
# Compressibility (1/GPa) = 0.01695379
#
# Stress axis : x y z
#
# Youngs Moduli (GPa) = 105.91933 61.60580 96.15442
#
# Poissons Ratio (x) = 0.38080 0.14949
# Poissons Ratio (y) = 0.65472 0.17536
# Poissons Ratio (z) = 0.16467 0.11235
#
# Static dielectric constant tensor:
#      x y z
#    x 2.013200 0.000000 0.000000 
#    y 0.000000 1.987230 0.000000 
#    z 0.000000 0.000000 1.926890 
# 
# From -- ./inp_files/8870.got.cif
#   From: 2010.05.17/outbox.cif.g08.bks.cpg/sg60_5_cif.got.tgz:8870.got - 2010.06.03 14:59:27.
