data_PCOD9456023
_publ_section_title
;
Structure prediction by ZEFSAII (Michael W. Deem and Ramdas Pophale) SiO2 
 PCOD9456023
Probable space group: P B C N
;
_chemical_formula_sum "Si O2"
_cell_formula_units_Z 48
_cell_length_a 28.820286
_cell_length_b 8.133564
_cell_length_c 7.964048
_cell_angle_alpha 90.000000
_cell_angle_beta 90.000000
_cell_angle_gamma 90.000000
_cell_volume 1866.865558
_symmetry_space_group_name_H-M "P B C N"
_symmetry_group_IT_number 60
_symmetry_cell_setting 'orthorhombic'
loop_
_space_group_symop_operation_xyz
x,y,z
1/2-x,1/2-y,1/2+z
1/2+x,1/2-y,-z
-x,y,1/2-z
-x,-y,-z
1/2+x,1/2+y,1/2-z
1/2-x,1/2+y,z
x,-y,1/2+z
loop_
_atom_site_type_symbol
_atom_site_label
_atom_site_fract_x
_atom_site_fract_y
_atom_site_fract_z
Si Si1 0.776905 0.101369 0.672350
Si Si2 0.611767 0.894967 0.863379
Si Si3 0.194479 0.233826 0.465553
Si Si4 0.529986 0.273010 0.489723
Si Si5 0.858248 0.728588 0.001111
Si Si6 0.441257 0.383765 0.641487
O O1 0.724189 0.115871 0.609990
O O2 0.784175 0.174318 0.856630
O O3 0.807189 0.212391 0.545105
O O4 0.797440 0.919070 0.657786
O O5 0.642465 0.785279 0.991220
O O6 0.619938 0.825922 0.678791
O O7 0.558049 0.879932 0.915699
O O8 0.633636 0.074912 0.879731
O O9 0.475084 0.275392 0.521545
O O10 0.550868 0.317248 0.672590
O O11 0.541927 0.429542 0.374074
O O12 0.889132 0.872549 0.922669
#
# Coordination Sequence:
#
# PCOD9456023 Si02
#       6
#     8   8   8   8   8   8
#     4  11  24  41  63  90 120 155 195 240 291 347
#     4  11  24  40  60  87 119 156 197 242 292 347
#     4  11  24  41  63  90 120 155 195 240 291 347
#     4  10  21  38  61  88 118 154 196 242 293 349
#     4  11  24  40  60  87 119 156 197 242 292 347
#     4  10  21  38  61  88 118 154 196 242 293 349
#
# _framework density 25.711545000000001
#
# number of rings (size 3 to 8) (size 9 to 14) (size 15 to 20)
#    0.000    1.333    0.000    5.000    0.000   13.333 
#    0.000    0.000    0.000    0.000    0.000    0.000 
#    0.000    0.000    0.000    0.000    0.000    0.000 
#
# Total GULP energy -269194.685115 kJ/mol
# GULP energy per Si atom -5608.222607 kJ/mol
# Density = 2.565302 g / cm^3
# Si number density = 25.711545 Si / 1000 Ang^3
#
#
#
# Elastic Constant Matrix: (Units=GPa)
#
#
# Indices 1 2 3 4 5 6 
#
# 1 88.0009 0.5665 23.7089 0.0000 0.0000 0.0000
# 2 0.5665 68.6068 -7.5149 0.0000 0.0000 0.0000
# 3 23.7089 -7.5149 97.5195 0.0000 0.0000 0.0000
# 4 0.0000 0.0000 0.0000 25.0217 0.0000 0.0000
# 5 0.0000 0.0000 0.0000 0.0000 39.3477 0.0000
# 6 0.0000 0.0000 0.0000 0.0000 0.0000 36.3245
#
#
#
# Elastic Compliance Matrix: (Units=1/GPa)
#
#
# Indices 1 2 3 4 5 6 
#
# 1 0.012172 -0.000428 -0.002992 0.000000 0.000000 0.000000
# 2 -0.000428 0.014715 0.001238 0.000000 0.000000 0.000000
# 3 -0.002992 0.001238 0.011077 0.000000 0.000000 0.000000
# 4 0.000000 0.000000 0.000000 0.039965 0.000000 0.000000
# 5 0.000000 0.000000 0.000000 0.000000 0.025414 0.000000
# 6 0.000000 0.000000 0.000000 0.000000 0.000000 0.027530
#
#
# Mechanical properties :
#
#
# Convention : Reuss Voigt Hill
#
# Bulk Modulus (GPa) = 29.76233 31.96092 30.86162
# Shear Modulus (GPa) = 34.14388 35.96322 35.05355
#
# Velocity S-wave (km/s) = 3.64807 3.74400 3.69635
# Velocity P-wave (km/s) = 5.41712 5.58101 5.49967
#
# Compressibility (1/GPa) = 0.03359952
#
# Stress axis : x y z
#
# Youngs Moduli (GPa) = 82.15253 67.95805 90.27491
#
# Poissons Ratio (x) = 0.02911 0.27014
# Poissons Ratio (y) = 0.03518 -0.11177
# Poissons Ratio (z) = 0.24583 -0.08414
#
# Static dielectric constant tensor:
#      x y z
#    x 1.942060 0.000000 0.000000 
#    y 0.000000 2.010880 0.000000 
#    z 0.000000 0.000000 1.971670 
# 
# From -- ./inp_files/8395.got.cif
#   From: 2010.05.17/outbox.cif.g08.bks.cpg/sg60_5_cif.got.tgz:8395.got - 2010.06.03 14:59:27.
