data_PCOD9456178
_publ_section_title
;
Structure prediction by ZEFSAII (Michael W. Deem and Ramdas Pophale) SiO2 
 PCOD9456178
Probable space group: P B C N
;
_chemical_formula_sum "Si O2"
_cell_formula_units_Z 48
_cell_length_a 12.134055
_cell_length_b 13.749731
_cell_length_c 14.264712
_cell_angle_alpha 90.000000
_cell_angle_beta 90.000000
_cell_angle_gamma 90.000000
_cell_volume 2379.924439
_symmetry_space_group_name_H-M "P B C N"
_symmetry_group_IT_number 60
_symmetry_cell_setting 'orthorhombic'
loop_
_space_group_symop_operation_xyz
x,y,z
1/2-x,1/2-y,1/2+z
1/2+x,1/2-y,-z
-x,y,1/2-z
-x,-y,-z
1/2+x,1/2+y,1/2-z
1/2-x,1/2+y,z
x,-y,1/2+z
loop_
_atom_site_type_symbol
_atom_site_label
_atom_site_fract_x
_atom_site_fract_y
_atom_site_fract_z
Si Si1 0.130564 0.286700 0.077772
Si Si2 0.701216 0.440134 0.328474
Si Si3 0.500000 0.800327 0.250000
Si Si4 0.499547 0.854990 0.899960
Si Si5 0.000000 0.187176 0.750000
Si Si6 0.851501 0.533513 0.659623
Si Si7 0.243759 0.400912 0.536576
O O1 0.216295 0.364922 0.119157
O O2 0.065612 0.245881 0.168588
O O3 0.194416 0.200718 0.026861
O O4 0.049054 0.336804 0.003734
O O5 0.599451 0.380505 0.286032
O O6 0.765426 0.488116 0.241533
O O7 0.682169 0.524055 0.404491
O O8 0.583264 0.871278 0.194507
O O9 0.476052 0.760870 0.836079
O O10 0.628778 0.879015 0.909219
O O11 0.437077 0.946895 0.856306
O O12 0.789691 0.554777 0.562902
#
# Coordination Sequence:
#
# PCOD9456178 Si02
#       7
#     8   8   4   8   4   8   8
#     4  11  23  42  68 100 135 176 226 282 331 401
#     4  11  25  44  64  98 139 172 225 278 336 405
#     4  10  21  39  64  96 136 172 224 278 336 388
#     4  12  22  43  72  99 129 179 230 277 335 397
#     4  12  25  45  66 100 138 180 216 278 354 404
#     4  11  22  40  68  99 125 174 230 283 322 392
#     4  12  23  43  68 102 135 176 224 279 335 397
#
# _framework density 20.168707999999999
#
# number of rings (size 3 to 8) (size 9 to 14) (size 15 to 20)
#    0.000    0.667    5.000    5.000    0.000    0.667 
#    0.000    6.667    0.000    0.000    0.000    0.000 
#    0.000    0.000    0.000    0.000    0.000    0.000 
#
# Total GULP energy -268354.304075 kJ/mol
# GULP energy per Si atom -5590.714668 kJ/mol
# Density = 2.012280 g / cm^3
# Si number density = 20.168708 Si / 1000 Ang^3
#
#
#
# Elastic Constant Matrix: (Units=GPa)
#
#
# Indices 1 2 3 4 5 6 
#
# 1 46.6029 6.5870 22.0848 0.0000 0.0000 0.0000
# 2 6.5870 38.3157 11.1926 0.0000 0.0000 0.0000
# 3 22.0848 11.1926 103.2889 0.0000 0.0000 0.0000
# 4 0.0000 0.0000 0.0000 -3.1428 0.0000 0.0000
# 5 0.0000 0.0000 0.0000 0.0000 16.7165 0.0000
# 6 0.0000 0.0000 0.0000 0.0000 0.0000 33.0798
#
#
#
# Elastic Compliance Matrix: (Units=1/GPa)
#
#
# Indices 1 2 3 4 5 6 
#
# 1 0.024151 -0.002730 -0.004868 0.000000 0.000000 0.000000
# 2 -0.002730 0.027261 -0.002370 0.000000 0.000000 0.000000
# 3 -0.004868 -0.002370 0.010979 0.000000 0.000000 0.000000
# 4 0.000000 0.000000 0.000000 -0.318183 0.000000 0.000000
# 5 0.000000 0.000000 0.000000 0.000000 0.059821 0.000000
# 6 0.000000 0.000000 0.000000 0.000000 0.000000 0.030230
#
#
# Mechanical properties :
#
#
# Convention : Reuss Voigt Hill
#
# Bulk Modulus (GPa) = 23.55475 29.77072 26.66274
# Shear Modulus (GPa) = -37.97838 19.22022 -9.37908
#
# Velocity S-wave (km/s) = -4.34410 3.09037 -2.15880
# Velocity P-wave (km/s) = 3.66844 5.24660 2.65230
#
# Compressibility (1/GPa) = 0.04245428
#
# Stress axis : x y z
#
# Youngs Moduli (GPa) = 41.40679 36.68289 91.08058
#
# Poissons Ratio (x) = 0.10014 0.44338
# Poissons Ratio (y) = 0.11303 0.21589
# Poissons Ratio (z) = 0.20157 0.08695
#
# Static dielectric constant tensor:
#      x y z
#    x 1.711890 0.000000 0.000000 
#    y 0.000000 1.674700 0.000000 
#    z 0.000000 0.000000 1.722440 
# 
# From -- ./inp_files/16123.got.cif
#   From: 2010.05.17/outbox.cif.g08.bks.cpg/sg60_9_cif.got.tgz:16123.got - 2010.06.03 14:59:27.
