data_PCOD9456925
_publ_section_title
;
Structure prediction by ZEFSAII (Michael W. Deem and Ramdas Pophale) SiO2 
 PCOD9456925
Probable space group: P B C N
;
_chemical_formula_sum "Si O2"
_cell_formula_units_Z 40
_cell_length_a 12.374414
_cell_length_b 28.159775
_cell_length_c 5.076049
_cell_angle_alpha 90.000000
_cell_angle_beta 90.000000
_cell_angle_gamma 90.000000
_cell_volume 1768.803659
_symmetry_space_group_name_H-M "P B C N"
_symmetry_group_IT_number 60
_symmetry_cell_setting 'orthorhombic'
loop_
_space_group_symop_operation_xyz
x,y,z
1/2-x,1/2-y,1/2+z
1/2+x,1/2-y,-z
-x,y,1/2-z
-x,-y,-z
1/2+x,1/2+y,1/2-z
1/2-x,1/2+y,z
x,-y,1/2+z
loop_
_atom_site_type_symbol
_atom_site_label
_atom_site_fract_x
_atom_site_fract_y
_atom_site_fract_z
Si Si1 0.130168 0.171733 0.785920
Si Si2 0.926195 0.627855 0.992834
Si Si3 0.301900 0.618508 0.297814
Si Si4 0.878977 0.979581 0.536494
Si Si5 0.926591 0.735695 0.991360
O O1 0.168564 0.161720 0.491439
O O2 0.000000 0.166934 0.750000
O O3 0.180107 0.134532 0.996849
O O4 0.154522 0.223358 0.913066
O O5 0.816992 0.603766 0.099670
O O6 0.000000 0.629456 0.250000
O O7 0.892938 0.682389 0.915526
O O8 0.000000 0.609737 0.750000
O O9 0.377294 0.574024 0.367857
O O10 0.825049 0.987354 0.255616
O O11 0.000000 0.000000 0.500000
O O12 0.000000 0.753977 0.750000
O O13 0.000000 0.729617 0.250000
#
# Coordination Sequence:
#
# PCOD9456925 Si02
#       5
#     8   8   8   8   8
#     4  11  23  35  57  92 134 160 201 260 300 389
#     4  10  22  41  64  85 122 164 217 267 294 357
#     4  12  24  38  64  93 116 169 215 245 319 377
#     4  10  23  40  60  86 123 160 186 249 317 392
#     4   9  18  36  54  83 123 169 200 249 318 339
#
# _framework density 22.614156000000001
#
# number of rings (size 3 to 8) (size 9 to 14) (size 15 to 20)
#    0.000    1.600    0.000    5.400    8.400    1.600 
#    0.000    0.000    0.000    3.600    0.000    0.000 
#    0.000    0.000    0.000    0.000    0.000    0.000 
#
# Total GULP energy -222992.281480 kJ/mol
# GULP energy per Si atom -5574.807037 kJ/mol
# Density = 2.256269 g / cm^3
# Si number density = 22.614156 Si / 1000 Ang^3
#
#
#
# Elastic Constant Matrix: (Units=GPa)
#
#
# Indices 1 2 3 4 5 6 
#
# 1 86.8466 6.9045 0.1132 0.0000 0.0000 0.0000
# 2 6.9045 56.2358 0.4482 0.0000 0.0000 0.0000
# 3 0.1132 0.4482 130.1559 0.0000 0.0000 0.0000
# 4 0.0000 0.0000 0.0000 5.8472 0.0000 0.0000
# 5 0.0000 0.0000 0.0000 0.0000 30.9289 0.0000
# 6 0.0000 0.0000 0.0000 0.0000 0.0000 7.6915
#
#
#
# Elastic Compliance Matrix: (Units=1/GPa)
#
#
# Indices 1 2 3 4 5 6 
#
# 1 0.011628 -0.001428 -0.000005 0.000000 0.000000 0.000000
# 2 -0.001428 0.017958 -0.000061 0.000000 0.000000 0.000000
# 3 -0.000005 -0.000061 0.007683 0.000000 0.000000 0.000000
# 4 0.000000 0.000000 0.000000 0.171022 0.000000 0.000000
# 5 0.000000 0.000000 0.000000 0.000000 0.032332 0.000000
# 6 0.000000 0.000000 0.000000 0.000000 0.000000 0.130013
#
#
# Mechanical properties :
#
#
# Convention : Reuss Voigt Hill
#
# Bulk Modulus (GPa) = 29.16936 32.01891 30.59414
# Shear Modulus (GPa) = 12.98529 26.61169 19.79849
#
# Velocity S-wave (km/s) = 2.39887 3.43413 2.96208
# Velocity P-wave (km/s) = 4.53867 5.46936 5.02560
#
# Compressibility (1/GPa) = 0.03428255
#
# Stress axis : x y z
#
# Youngs Moduli (GPa) = 85.99889 55.68534 130.15225
#
# Poissons Ratio (x) = 0.07950 0.00068
# Poissons Ratio (y) = 0.12277 0.00789
# Poissons Ratio (z) = 0.00045 0.00337
#
# Static dielectric constant tensor:
#      x y z
#    x 1.868250 0.000000 0.000000 
#    y 0.000000 1.902660 0.000000 
#    z 0.000000 0.000000 1.855690 
# 
# From -- ./inp_files/935.got.cif
#   From: 2010.05.17/outbox.cif.g08.bks.cpg/sg60_1_cif.got.tgz:935.got - 2010.06.03 14:59:27.
