data_PCOD9456084
_publ_section_title
;
Structure prediction by ZEFSAII (Michael W. Deem and Ramdas Pophale) SiO2 
 PCOD9456084
Probable space group: P B C N
;
_chemical_formula_sum "Si O2"
_cell_formula_units_Z 40
_cell_length_a 7.870259
_cell_length_b 24.267869
_cell_length_c 8.633620
_cell_angle_alpha 90.000000
_cell_angle_beta 90.000000
_cell_angle_gamma 90.000000
_cell_volume 1648.973196
_symmetry_space_group_name_H-M "P B C N"
_symmetry_group_IT_number 60
_symmetry_cell_setting 'orthorhombic'
loop_
_space_group_symop_operation_xyz
x,y,z
1/2-x,1/2-y,1/2+z
1/2+x,1/2-y,-z
-x,y,1/2-z
-x,-y,-z
1/2+x,1/2+y,1/2-z
1/2-x,1/2+y,z
x,-y,1/2+z
loop_
_atom_site_type_symbol
_atom_site_label
_atom_site_fract_x
_atom_site_fract_y
_atom_site_fract_z
Si Si1 0.210306 0.424274 0.482127
Si Si2 0.056120 0.134438 0.428307
Si Si3 0.239689 0.776684 0.144385
Si Si4 0.107758 0.309989 0.454012
Si Si5 0.700000 0.470288 0.702682
O O1 0.389664 0.391468 0.492270
O O2 0.081320 0.375251 0.450242
O O3 0.194227 0.451323 0.649756
O O4 0.225731 0.474254 0.365458
O O5 0.134027 0.181932 0.534387
O O6 0.184586 0.082586 0.409577
O O7 0.000000 0.149766 0.250000
O O8 0.432141 0.781398 0.086839
O O9 0.254353 0.793381 0.322946
O O10 0.171473 0.715362 0.114995
O O11 0.500000 0.480201 0.750000
#
# Coordination Sequence:
#
# PCOD9456084 Si02
#       5
#     8   8   8   8   8
#     4  10  21  38  65  98 129 176 224 272 332 397
#     4   9  20  39  68  96 131 169 219 279 327 397
#     4  11  26  46  69  97 137 172 229 285 337 413
#     4  11  27  44  68  99 134 178 227 275 348 401
#     4   9  19  35  62  95 132 165 226 270 321 399
#
# _framework density 24.257522000000002
#
# number of rings (size 3 to 8) (size 9 to 14) (size 15 to 20)
#    0.000    2.400    0.000    3.600   14.000    2.400 
#    0.000    1.000    0.000    0.000    0.000    0.000 
#    0.000    0.000    0.000    0.000    0.000    0.000 
#
# Total GULP energy -223842.973780 kJ/mol
# GULP energy per Si atom -5596.074345 kJ/mol
# Density = 2.420231 g / cm^3
# Si number density = 24.257522 Si / 1000 Ang^3
#
#
#
# Elastic Constant Matrix: (Units=GPa)
#
#
# Indices 1 2 3 4 5 6 
#
# 1 40.8845 29.4426 28.5742 0.0000 0.0000 0.0000
# 2 29.4426 123.8933 29.5218 0.0000 0.0000 0.0000
# 3 28.5742 29.5218 52.5223 0.0000 0.0000 0.0000
# 4 0.0000 0.0000 0.0000 45.3076 0.0000 0.0000
# 5 0.0000 0.0000 0.0000 0.0000 23.6299 0.0000
# 6 0.0000 0.0000 0.0000 0.0000 0.0000 22.3526
#
#
#
# Elastic Compliance Matrix: (Units=1/GPa)
#
#
# Indices 1 2 3 4 5 6 
#
# 1 0.042247 -0.005269 -0.020023 0.000000 0.000000 0.000000
# 2 -0.005269 0.009977 -0.002741 0.000000 0.000000 0.000000
# 3 -0.020023 -0.002741 0.031474 0.000000 0.000000 0.000000
# 4 0.000000 0.000000 0.000000 0.022071 0.000000 0.000000
# 5 0.000000 0.000000 0.000000 0.000000 0.042319 0.000000
# 6 0.000000 0.000000 0.000000 0.000000 0.000000 0.044738
#
#
# Mechanical properties :
#
#
# Convention : Reuss Voigt Hill
#
# Bulk Modulus (GPa) = 36.18999 43.59748 39.89374
# Shear Modulus (GPa) = 19.37217 26.90880 23.14048
#
# Velocity S-wave (km/s) = 2.82903 3.33422 3.09196
# Velocity P-wave (km/s) = 5.06188 5.73014 5.40635
#
# Compressibility (1/GPa) = 0.02763195
#
# Stress axis : x y z
#
# Youngs Moduli (GPa) = 23.67011 100.23286 31.77267
#
# Poissons Ratio (x) = 0.52810 0.63618
# Poissons Ratio (y) = 0.12471 0.08710
# Poissons Ratio (z) = 0.47394 0.27477
#
# Static dielectric constant tensor:
#      x y z
#    x 1.942070 0.000000 0.000000 
#    y 0.000000 1.945150 0.000000 
#    z 0.000000 0.000000 1.948850 
# 
# From -- ./inp_files/3829.got.cif
#   From: 2010.05.17/outbox.cif.g08.bks.cpg/sg60_2_cif.got.tgz:3829.got - 2010.06.03 14:59:27.
