data_PCOD9456411
_publ_section_title
;
Structure prediction by ZEFSAII (Michael W. Deem and Ramdas Pophale) SiO2 
 PCOD9456411
Probable space group: P B C N
;
_chemical_formula_sum "Si O2"
_cell_formula_units_Z 56
_cell_length_a 11.465409
_cell_length_b 11.362813
_cell_length_c 18.719853
_cell_angle_alpha 90.000000
_cell_angle_beta 90.000000
_cell_angle_gamma 90.000000
_cell_volume 2438.809316
_symmetry_space_group_name_H-M "P B C N"
_symmetry_group_IT_number 60
_symmetry_cell_setting 'orthorhombic'
loop_
_space_group_symop_operation_xyz
x,y,z
1/2-x,1/2-y,1/2+z
1/2+x,1/2-y,-z
-x,y,1/2-z
-x,-y,-z
1/2+x,1/2+y,1/2-z
1/2-x,1/2+y,z
x,-y,1/2+z
loop_
_atom_site_type_symbol
_atom_site_label
_atom_site_fract_x
_atom_site_fract_y
_atom_site_fract_z
Si Si1 0.526885 0.698685 0.498169
Si Si2 0.180638 0.162217 0.608573
Si Si3 0.627011 0.539440 0.746262
Si Si4 0.381819 0.959169 0.788972
Si Si5 0.338171 0.269462 0.363052
Si Si6 0.379664 0.135737 0.916468
Si Si7 0.760659 0.915666 0.939122
O O1 0.412960 0.663006 0.543347
O O2 0.608982 0.750832 0.559631
O O3 0.493934 0.798558 0.441960
O O4 0.602605 0.599743 0.459138
O O5 0.129891 0.130460 0.686746
O O6 0.230339 0.296111 0.605626
O O7 0.258540 0.045523 0.592662
O O8 0.500000 0.476415 0.750000
O O9 0.755079 0.479313 0.747342
O O10 0.630673 0.604345 0.669594
O O11 0.500000 0.995868 0.750000
O O12 0.385803 0.823429 0.808240
O O13 0.388310 0.027950 0.863695
O O14 0.199710 0.268852 0.374251
O O15 0.311931 0.096002 0.987723
#
# Coordination Sequence:
#
# PCOD9456411 Si02
#       7
#     8   8   8   8   8   8   8
#     4  10  21  41  69  97 135 181 234 291 353 431
#     4  11  24  42  68 100 135 182 238 290 348 433
#     4  11  24  45  66  95 137 189 241 284 352 433
#     4  11  26  41  68  99 142 189 235 298 361 428
#     4  10  22  44  66  97 139 182 234 289 363 420
#     4   9  23  41  63 101 135 181 228 299 356 420
#     4  10  24  41  67 100 136 177 232 297 357 414
#
# _framework density 22.962025000000001
#
# number of rings (size 3 to 8) (size 9 to 14) (size 15 to 20)
#    0.000    1.714    1.429    0.857   10.000    2.857 
#    0.000    2.857    0.000    0.000    0.000    0.000 
#    0.000    0.000    0.000    0.000    0.000    0.000 
#
# Total GULP energy -312312.014818 kJ/mol
# GULP energy per Si atom -5577.000265 kJ/mol
# Density = 2.290976 g / cm^3
# Si number density = 22.962025 Si / 1000 Ang^3
#
#
#
# Elastic Constant Matrix: (Units=GPa)
#
#
# Indices 1 2 3 4 5 6 
#
# 1 97.8482 28.6302 6.5211 0.0000 0.0000 0.0000
# 2 28.6302 80.9232 8.0785 0.0000 0.0000 0.0000
# 3 6.5211 8.0785 52.4582 0.0000 0.0000 0.0000
# 4 0.0000 0.0000 0.0000 18.7758 0.0000 0.0000
# 5 0.0000 0.0000 0.0000 0.0000 32.6913 0.0000
# 6 0.0000 0.0000 0.0000 0.0000 0.0000 9.2686
#
#
#
# Elastic Compliance Matrix: (Units=1/GPa)
#
#
# Indices 1 2 3 4 5 6 
#
# 1 0.011434 -0.003964 -0.000811 0.000000 0.000000 0.000000
# 2 -0.003964 0.013925 -0.001652 0.000000 0.000000 0.000000
# 3 -0.000811 -0.001652 0.019418 0.000000 0.000000 0.000000
# 4 0.000000 0.000000 0.000000 0.053260 0.000000 0.000000
# 5 0.000000 0.000000 0.000000 0.000000 0.030589 0.000000
# 6 0.000000 0.000000 0.000000 0.000000 0.000000 0.107891
#
#
# Mechanical properties :
#
#
# Convention : Reuss Voigt Hill
#
# Bulk Modulus (GPa) = 31.32524 35.29880 33.31202
# Shear Modulus (GPa) = 19.22994 24.68046 21.95520
#
# Velocity S-wave (km/s) = 2.89704 3.28203 3.09553
# Velocity P-wave (km/s) = 4.98621 5.45604 5.22641
#
# Compressibility (1/GPa) = 0.03192314
#
# Stress axis : x y z
#
# Youngs Moduli (GPa) = 87.45928 71.81423 51.49876
#
# Poissons Ratio (x) = 0.28469 0.04176
# Poissons Ratio (y) = 0.34671 0.08506
# Poissons Ratio (z) = 0.07092 0.11861
#
# Static dielectric constant tensor:
#      x y z
#    x 1.932340 0.000000 0.000000 
#    y 0.000000 1.843750 0.000000 
#    z 0.000000 0.000000 1.833200 
# 
# From -- ./inp_files/22635.got.cif
#   From: 2010.05.17/outbox.cif.g08.bks.cpg/sg60_12_cif.got.tgz:22635.got - 2010.06.03 14:59:27.
