data_PCOD9456833
_publ_section_title
;
Structure prediction by ZEFSAII (Michael W. Deem and Ramdas Pophale) SiO2 
 PCOD9456833
Probable space group: P B C N
;
_chemical_formula_sum "Si O2"
_cell_formula_units_Z 20
_cell_length_a 7.789580
_cell_length_b 22.833903
_cell_length_c 4.965568
_cell_angle_alpha 90.000000
_cell_angle_beta 90.000000
_cell_angle_gamma 90.000000
_cell_volume 883.208271
_symmetry_space_group_name_H-M "P B C N"
_symmetry_group_IT_number 60
_symmetry_cell_setting 'orthorhombic'
loop_
_space_group_symop_operation_xyz
x,y,z
1/2-x,1/2-y,1/2+z
1/2+x,1/2-y,-z
-x,y,1/2-z
-x,-y,-z
1/2+x,1/2+y,1/2-z
1/2-x,1/2+y,z
x,-y,1/2+z
loop_
_atom_site_type_symbol
_atom_site_label
_atom_site_fract_x
_atom_site_fract_y
_atom_site_fract_z
Si Si1 0.356990 0.239654 0.566790
Si Si2 0.500000 0.127678 0.750000
Si Si3 0.802831 0.960176 0.268655
O O1 0.297716 0.264782 0.284271
O O2 0.500000 0.272767 0.750000
O O3 0.433437 0.174632 0.531067
O O4 0.338492 0.087096 0.811808
O O5 0.000000 0.939259 0.250000
O O6 0.779666 0.984525 0.569582
#
# Coordination Sequence:
#
# PCOD9456833 Si02
#       3
#     8   4   8
#     4  10  23  40  61  89 125 165 218 261 311 377
#     4  10  24  40  70  86 130 170 214 250 344 360
#     4  10  22  40  63  96 127 159 209 263 317 388
#
# _framework density 22.644712999999999
#
# number of rings (size 3 to 8) (size 9 to 14) (size 15 to 20)
#    1.200    0.800    0.000    2.400    0.000    9.600 
#    0.000    4.000    0.000    0.000    0.000    0.000 
#    0.000    0.000    0.000    0.000    0.000    0.000 
#
# Total GULP energy -111460.286400 kJ/mol
# GULP energy per Si atom -5573.014320 kJ/mol
# Density = 2.259317 g / cm^3
# Si number density = 22.644713 Si / 1000 Ang^3
#
#
#
# Elastic Constant Matrix: (Units=GPa)
#
#
# Indices 1 2 3 4 5 6 
#
# 1 134.5357 68.6420 33.3953 0.0000 0.0000 0.0000
# 2 68.6420 73.9819 11.3638 0.0000 0.0000 0.0000
# 3 33.3953 11.3638 114.4382 0.0000 0.0000 0.0000
# 4 0.0000 0.0000 0.0000 -3.0963 0.0000 0.0000
# 5 0.0000 0.0000 0.0000 0.0000 22.1907 0.0000
# 6 0.0000 0.0000 0.0000 0.0000 0.0000 -59.0364
#
#
#
# Elastic Compliance Matrix: (Units=1/GPa)
#
#
# Indices 1 2 3 4 5 6 
#
# 1 0.015102 -0.013542 -0.003062 0.000000 0.000000 0.000000
# 2 -0.013542 0.025869 0.001383 0.000000 0.000000 0.000000
# 3 -0.003062 0.001383 0.009495 0.000000 0.000000 0.000000
# 4 0.000000 0.000000 0.000000 -0.322971 0.000000 0.000000
# 5 0.000000 0.000000 0.000000 0.000000 0.045064 0.000000
# 6 0.000000 0.000000 0.000000 0.000000 0.000000 -0.016939
#
#
# Mechanical properties :
#
#
# Convention : Reuss Voigt Hill
#
# Bulk Modulus (GPa) = 49.94202 61.08422 55.51312
# Shear Modulus (GPa) = -24.12401 5.98193 -9.07104
#
# Velocity S-wave (km/s) = -3.26748 1.62708 -2.00362
# Velocity P-wave (km/s) = 2.80487 5.52842 4.38353
#
# Compressibility (1/GPa) = 0.02002322
#
# Stress axis : x y z
#
# Youngs Moduli (GPa) = 66.21434 38.65637 105.32199
#
# Poissons Ratio (x) = 0.52348 0.32255
# Poissons Ratio (y) = 0.89667 -0.14566
# Poissons Ratio (z) = 0.20278 -0.05346
#
# Static dielectric constant tensor:
#      x y z
#    x 1.987370 0.000000 0.000000 
#    y 0.000000 1.804460 0.000000 
#    z 0.000000 0.000000 1.838020 
# 
# From -- ./inp_files/202.got.cif
#   From: 2010.05.17/outbox.cif.g08.bks.cpg/sg60_1_cif.got.tgz:202.got - 2010.06.03 14:59:27.
