data_PCOD9456725
_publ_section_title
;
Structure prediction by ZEFSAII (Michael W. Deem and Ramdas Pophale) SiO2 
 PCOD9456725
Probable space group: P B C N
;
_chemical_formula_sum "Si O2"
_cell_formula_units_Z 60
_cell_length_a 22.032783
_cell_length_b 8.825428
_cell_length_c 13.731738
_cell_angle_alpha 90.000000
_cell_angle_beta 90.000000
_cell_angle_gamma 90.000000
_cell_volume 2670.119152
_symmetry_space_group_name_H-M "P B C N"
_symmetry_group_IT_number 60
_symmetry_cell_setting 'orthorhombic'
loop_
_space_group_symop_operation_xyz
x,y,z
1/2-x,1/2-y,1/2+z
1/2+x,1/2-y,-z
-x,y,1/2-z
-x,-y,-z
1/2+x,1/2+y,1/2-z
1/2-x,1/2+y,z
x,-y,1/2+z
loop_
_atom_site_type_symbol
_atom_site_label
_atom_site_fract_x
_atom_site_fract_y
_atom_site_fract_z
Si Si1 0.125770 0.462313 0.158503
Si Si2 0.232363 0.417257 0.523148
Si Si3 0.392501 0.610660 0.872021
Si Si4 0.500000 0.501871 0.250000
Si Si5 0.449195 0.700045 0.071676
Si Si6 0.934427 0.651677 0.481194
Si Si7 0.331600 0.389906 0.986477
Si Si8 0.146876 0.546239 0.374690
O O1 0.103827 0.301811 0.118097
O O2 0.136301 0.467774 0.272081
O O3 0.186658 0.523064 0.106101
O O4 0.071976 0.577446 0.124846
O O5 0.218447 0.242353 0.502394
O O6 0.300754 0.468886 0.542537
O O7 0.209924 0.499299 0.424005
O O8 0.442739 0.592086 0.789296
O O9 0.348703 0.464494 0.882103
O O10 0.360520 0.773587 0.864723
O O11 0.425083 0.610475 0.977992
O O12 0.478351 0.602264 0.158125
O O13 0.501495 0.805524 0.024821
O O14 0.891659 0.800200 0.480414
O O15 0.902276 0.528850 0.552198
#
# Coordination Sequence:
#
# PCOD9456725 Si02
#       8
#     8   8   8   4   8   8   8   8
#     4  10  22  38  70  97 127 170 224 271 330 400
#     4  10  22  44  69  95 124 175 217 279 334 394
#     4  12  25  42  65  99 135 180 215 277 329 402
#     4  12  28  36  64 100 138 180 220 264 332 396
#     4  12  23  44  64  96 141 176 218 272 339 396
#     4  10  22  42  64  97 127 179 213 275 331 399
#     4  10  22  43  69  89 133 168 221 270 342 388
#     4  10  22  41  65  99 131 167 229 269 330 394
#
# _framework density 22.470908000000001
#
# number of rings (size 3 to 8) (size 9 to 14) (size 15 to 20)
#    0.000    1.600    4.000    2.400    3.733    1.067 
#    0.000    9.333    0.000    0.000    0.000    0.000 
#    0.000    0.000    0.000    0.000    0.000    0.000 
#
# Total GULP energy -334987.567537 kJ/mol
# GULP energy per Si atom -5583.126126 kJ/mol
# Density = 2.241976 g / cm^3
# Si number density = 22.470908 Si / 1000 Ang^3
#
#
#
# Elastic Constant Matrix: (Units=GPa)
#
#
# Indices 1 2 3 4 5 6 
#
# 1 62.6667 18.6638 5.6328 0.0000 0.0000 0.0000
# 2 18.6638 77.5265 -8.9619 0.0000 0.0000 0.0000
# 3 5.6328 -8.9619 87.1750 0.0000 0.0000 0.0000
# 4 0.0000 0.0000 0.0000 23.4923 0.0000 0.0000
# 5 0.0000 0.0000 0.0000 0.0000 23.4214 0.0000
# 6 0.0000 0.0000 0.0000 0.0000 0.0000 50.7725
#
#
#
# Elastic Compliance Matrix: (Units=1/GPa)
#
#
# Indices 1 2 3 4 5 6 
#
# 1 0.017401 -0.004371 -0.001574 0.000000 0.000000 0.000000
# 2 -0.004371 0.014152 0.001737 0.000000 0.000000 0.000000
# 3 -0.001574 0.001737 0.011751 0.000000 0.000000 0.000000
# 4 0.000000 0.000000 0.000000 0.042567 0.000000 0.000000
# 5 0.000000 0.000000 0.000000 0.000000 0.042696 0.000000
# 6 0.000000 0.000000 0.000000 0.000000 0.000000 0.019696
#
#
# Mechanical properties :
#
#
# Convention : Reuss Voigt Hill
#
# Bulk Modulus (GPa) = 28.66206 28.67084 28.66645
# Shear Modulus (GPa) = 29.70754 33.67280 31.69017
#
# Velocity S-wave (km/s) = 3.63994 3.87525 3.75944
# Velocity P-wave (km/s) = 5.51801 5.72802 5.62400
#
# Compressibility (1/GPa) = 0.03488933
#
# Stress axis : x y z
#
# Youngs Moduli (GPa) = 57.46906 70.66186 85.09582
#
# Poissons Ratio (x) = 0.30886 0.13391
# Poissons Ratio (y) = 0.25119 -0.14784
# Poissons Ratio (z) = 0.09044 -0.12276
#
# Static dielectric constant tensor:
#      x y z
#    x 1.891310 0.000000 0.000000 
#    y 0.000000 1.910240 0.000000 
#    z 0.000000 0.000000 1.790190 
# 
# From -- ./inp_files/17920.got.cif
#   From: 2010.05.17/outbox.cif.g08.bks.cpg/sg60_9_cif.got.tgz:17920.got - 2010.06.03 14:59:27.
