data_PCOD9456827
_publ_section_title
;
Structure prediction by ZEFSAII (Michael W. Deem and Ramdas Pophale) SiO2 
 PCOD9456827
Probable space group: P B C N
;
_chemical_formula_sum "Si O2"
_cell_formula_units_Z 40
_cell_length_a 9.145071
_cell_length_b 25.825818
_cell_length_c 8.424809
_cell_angle_alpha 90.000000
_cell_angle_beta 90.000000
_cell_angle_gamma 90.000000
_cell_volume 1989.762453
_symmetry_space_group_name_H-M "P B C N"
_symmetry_group_IT_number 60
_symmetry_cell_setting 'orthorhombic'
loop_
_space_group_symop_operation_xyz
x,y,z
1/2-x,1/2-y,1/2+z
1/2+x,1/2-y,-z
-x,y,1/2-z
-x,-y,-z
1/2+x,1/2+y,1/2-z
1/2-x,1/2+y,z
x,-y,1/2+z
loop_
_atom_site_type_symbol
_atom_site_label
_atom_site_fract_x
_atom_site_fract_y
_atom_site_fract_z
Si Si1 0.785458 0.364265 0.117481
Si Si2 0.052161 0.771698 0.424275
Si Si3 0.604077 0.839577 0.469722
Si Si4 0.037019 0.056472 0.933943
Si Si5 0.116101 0.148115 0.390374
O O1 0.681924 0.314244 0.085678
O O2 0.823919 0.361238 0.306101
O O3 0.695830 0.415225 0.062536
O O4 0.939067 0.360023 0.027654
O O5 0.090395 0.722691 0.531115
O O6 0.000000 0.754446 0.250000
O O7 0.917695 0.803360 0.497102
O O8 0.709070 0.852895 0.618655
O O9 0.000000 0.056660 0.750000
O O10 0.932677 0.095575 0.026773
O O11 0.000000 0.000000 0.000000
O O12 0.000000 0.155085 0.250000
#
# Coordination Sequence:
#
# PCOD9456827 Si02
#       5
#     8   8   8   8   8
#     4  10  22  40  62  94 135 175 226 281 337 402
#     4  11  22  37  56  91 134 185 223 258 323 413
#     4  11  22  37  64  92 137 178 217 282 337 398
#     4  11  22  45  70  93 123 172 225 283 346 418
#     4  11  23  39  62  95 130 172 228 270 333 412
#
# _framework density 20.102903000000001
#
# number of rings (size 3 to 8) (size 9 to 14) (size 15 to 20)
#    0.000    1.200    4.000    3.000    5.600    1.600 
#    0.000    1.000    0.000    0.000    0.000    0.000 
#    0.000    0.000    0.000    0.000    0.000    0.000 
#
# Total GULP energy -223143.653655 kJ/mol
# GULP energy per Si atom -5578.591341 kJ/mol
# Density = 2.005715 g / cm^3
# Si number density = 20.102903 Si / 1000 Ang^3
#
#
#
# Elastic Constant Matrix: (Units=GPa)
#
#
# Indices 1 2 3 4 5 6 
#
# 1 179.5793 51.5754 25.4687 0.0000 0.0000 0.0000
# 2 51.5754 122.7900 11.7237 0.0000 0.0000 0.0000
# 3 25.4687 11.7237 33.8530 0.0000 0.0000 0.0000
# 4 0.0000 0.0000 0.0000 14.2994 0.0000 0.0000
# 5 0.0000 0.0000 0.0000 0.0000 35.8811 0.0000
# 6 0.0000 0.0000 0.0000 0.0000 0.0000 7.6181
#
#
#
# Elastic Compliance Matrix: (Units=1/GPa)
#
#
# Indices 1 2 3 4 5 6 
#
# 1 0.006896 -0.002483 -0.004328 0.000000 0.000000 0.000000
# 2 -0.002483 0.009317 -0.001358 0.000000 0.000000 0.000000
# 3 -0.004328 -0.001358 0.033266 0.000000 0.000000 0.000000
# 4 0.000000 0.000000 0.000000 0.069933 0.000000 0.000000
# 5 0.000000 0.000000 0.000000 0.000000 0.027870 0.000000
# 6 0.000000 0.000000 0.000000 0.000000 0.000000 0.131266
#
#
# Mechanical properties :
#
#
# Convention : Reuss Voigt Hill
#
# Bulk Modulus (GPa) = 30.17546 57.08421 43.62983
# Shear Modulus (GPa) = 16.34352 28.05669 22.20010
#
# Velocity S-wave (km/s) = 2.85440 3.73990 3.32674
# Velocity P-wave (km/s) = 5.08985 6.86344 6.04207
#
# Compressibility (1/GPa) = 0.03313951
#
# Stress axis : x y z
#
# Youngs Moduli (GPa) = 145.02198 107.33464 30.06091
#
# Poissons Ratio (x) = 0.26652 0.13010
# Poissons Ratio (y) = 0.36011 0.04083
# Poissons Ratio (z) = 0.62762 0.14580
#
# Static dielectric constant tensor:
#      x y z
#    x 1.765460 0.000000 0.000000 
#    y 0.000000 1.673590 0.000000 
#    z 0.000000 0.000000 1.780900 
# 
# From -- ./inp_files/3983.got.cif
#   From: 2010.05.17/outbox.cif.g08.bks.cpg/sg60_2_cif.got.tgz:3983.got - 2010.06.03 14:59:27.
