data_PCOD9456991
_publ_section_title
;
Structure prediction by ZEFSAII (Michael W. Deem and Ramdas Pophale) SiO2 
 PCOD9456991
Probable space group: P B C N
;
_chemical_formula_sum "Si O2"
_cell_formula_units_Z 40
_cell_length_a 5.313518
_cell_length_b 14.679113
_cell_length_c 22.339611
_cell_angle_alpha 90.000000
_cell_angle_beta 90.000000
_cell_angle_gamma 90.000000
_cell_volume 1742.438973
_symmetry_space_group_name_H-M "P B C N"
_symmetry_group_IT_number 60
_symmetry_cell_setting 'orthorhombic'
loop_
_space_group_symop_operation_xyz
x,y,z
1/2-x,1/2-y,1/2+z
1/2+x,1/2-y,-z
-x,y,1/2-z
-x,-y,-z
1/2+x,1/2+y,1/2-z
1/2-x,1/2+y,z
x,-y,1/2+z
loop_
_atom_site_type_symbol
_atom_site_label
_atom_site_fract_x
_atom_site_fract_y
_atom_site_fract_z
Si Si1 0.255947 0.603304 0.691807
Si Si2 0.500000 0.051782 0.250000
Si Si3 0.500000 0.265158 0.750000
Si Si4 0.231573 0.638769 0.355550
Si Si5 0.245673 0.933205 0.384299
Si Si6 0.169373 0.225909 0.964555
O O1 0.508959 0.600844 0.654609
O O2 0.226352 0.518427 0.737482
O O3 0.216329 0.695170 0.729023
O O4 0.011970 0.591249 0.647733
O O5 0.514442 0.112221 0.191318
O O6 0.565533 0.324349 0.691987
O O7 0.285936 0.542278 0.387384
O O8 0.173624 0.714578 0.403939
O O9 0.227694 0.877960 0.445925
O O10 0.399001 0.261983 0.004978
#
# Coordination Sequence:
#
# PCOD9456991 Si02
#       6
#     8   4   4   8   8   8
#     4  10  22  41  70 105 151 178 221 286 360 429
#     4   9  22  40  67 112 142 186 229 286 371 446
#     4  11  22  38  71 116 144 194 217 290 371 452
#     4  11  25  43  74 110 145 191 235 295 366 439
#     4  11  24  48  70 103 141 184 236 297 347 417
#     4  12  29  50  74 101 139 197 254 299 346 413
#
# _framework density 22.956327999999999
#
# number of rings (size 3 to 8) (size 9 to 14) (size 15 to 20)
#    0.000    1.200    2.000    2.400    2.800   11.200 
#    0.000    0.000    0.000    0.000    0.000    0.000 
#    0.000    0.000    0.000    0.000    0.000    0.000 
#
# Total GULP energy -223739.005913 kJ/mol
# GULP energy per Si atom -5593.475148 kJ/mol
# Density = 2.290408 g / cm^3
# Si number density = 22.956328 Si / 1000 Ang^3
#
#
#
# Elastic Constant Matrix: (Units=GPa)
#
#
# Indices 1 2 3 4 5 6 
#
# 1 107.3908 5.8815 -0.4004 0.0000 0.0000 0.0000
# 2 5.8815 140.3528 30.8901 0.0000 0.0000 0.0000
# 3 -0.4004 30.8901 67.0112 0.0000 0.0000 0.0000
# 4 0.0000 0.0000 0.0000 33.5338 0.0000 0.0000
# 5 0.0000 0.0000 0.0000 0.0000 43.0571 0.0000
# 6 0.0000 0.0000 0.0000 0.0000 0.0000 17.9355
#
#
#
# Elastic Compliance Matrix: (Units=1/GPa)
#
#
# Indices 1 2 3 4 5 6 
#
# 1 0.009337 -0.000449 0.000263 0.000000 0.000000 0.000000
# 2 -0.000449 0.007951 -0.003668 0.000000 0.000000 0.000000
# 3 0.000263 -0.003668 0.016615 0.000000 0.000000 0.000000
# 4 0.000000 0.000000 0.000000 0.029821 0.000000 0.000000
# 5 0.000000 0.000000 0.000000 0.000000 0.023225 0.000000
# 6 0.000000 0.000000 0.000000 0.000000 0.000000 0.055755
#
#
# Mechanical properties :
#
#
# Convention : Reuss Voigt Hill
#
# Bulk Modulus (GPa) = 38.17484 43.05525 40.61505
# Shear Modulus (GPa) = 31.41799 37.46418 34.44109
#
# Velocity S-wave (km/s) = 3.70347 4.04416 3.87756
# Velocity P-wave (km/s) = 5.91211 6.37204 6.14638
#
# Compressibility (1/GPa) = 0.02619526
#
# Stress axis : x y z
#
# Youngs Moduli (GPa) = 107.09663 125.77070 60.18580
#
# Poissons Ratio (x) = 0.05649 -0.01582
# Poissons Ratio (y) = 0.04810 0.22075
# Poissons Ratio (z) = -0.02815 0.46131
#
# Static dielectric constant tensor:
#      x y z
#    x 1.974030 0.000000 0.000000 
#    y 0.000000 1.901430 0.000000 
#    z 0.000000 0.000000 1.858700 
# 
# From -- ./inp_files/23563.got.cif
#   From: 2010.05.17/outbox.cif.g08.bks.cpg/sg60_12_cif.got.tgz:23563.got - 2010.06.03 14:59:27.
