data_PCOD9456589
_publ_section_title
;
Structure prediction by ZEFSAII (Michael W. Deem and Ramdas Pophale) SiO2 
 PCOD9456589
Probable space group: P B C N
;
_chemical_formula_sum "Si O2"
_cell_formula_units_Z 52
_cell_length_a 24.676572
_cell_length_b 12.127088
_cell_length_c 9.209100
_cell_angle_alpha 90.000000
_cell_angle_beta 90.000000
_cell_angle_gamma 90.000000
_cell_volume 2755.868854
_symmetry_space_group_name_H-M "P B C N"
_symmetry_group_IT_number 60
_symmetry_cell_setting 'orthorhombic'
loop_
_space_group_symop_operation_xyz
x,y,z
1/2-x,1/2-y,1/2+z
1/2+x,1/2-y,-z
-x,y,1/2-z
-x,-y,-z
1/2+x,1/2+y,1/2-z
1/2-x,1/2+y,z
x,-y,1/2+z
loop_
_atom_site_type_symbol
_atom_site_label
_atom_site_fract_x
_atom_site_fract_y
_atom_site_fract_z
Si Si1 0.500000 0.521609 0.250000
Si Si2 0.154678 0.059362 0.873688
Si Si3 0.330121 0.718284 0.616995
Si Si4 0.072121 0.075246 0.504037
Si Si5 0.190061 0.879359 0.658842
Si Si6 0.205224 0.356551 0.079361
Si Si7 0.806040 0.426708 0.740049
O O1 0.538871 0.444664 0.348864
O O2 0.532906 0.593870 0.132450
O O3 0.163504 0.165266 0.777069
O O4 0.100026 0.042615 0.963726
O O5 0.155444 0.958939 0.760363
O O6 0.198590 0.061600 0.002485
O O7 0.378391 0.660694 0.526377
O O8 0.269185 0.682216 0.566848
O O9 0.337572 0.848200 0.645568
O O10 0.173730 0.755188 0.624039
O O11 0.246141 0.876510 0.742027
O O12 0.198601 0.448457 0.204252
O O13 0.182593 0.406919 0.929173
#
# Coordination Sequence:
#
# PCOD9456589 Si02
#       7
#     4   8   8   8   8   8   8
#     4  10  22  34  56  82 118 134 178 236 300 360
#     4  12  19  36  55  80 114 152 185 223 277 334
#     4  11  22  33  55  75 113 153 188 226 279 330
#     4  11  20  36  55  84 110 150 175 231 293 356
#     4  11  22  34  52  78 112 154 196 229 263 320
#     4  11  24  35  52  78 117 157 202 230 261 306
#     4  11  22  36  49  74 110 157 198 234 263 311
#
# _framework density 18.868822000000002
#
# number of rings (size 3 to 8) (size 9 to 14) (size 15 to 20)
#    0.000    0.923    6.154    1.846    0.000    2.462 
#    0.000    0.000    0.000    0.000    0.000    0.000 
#    0.000   41.846    0.000    0.000    0.000    0.000 
#
# Total GULP energy -289677.711623 kJ/mol
# GULP energy per Si atom -5570.725224 kJ/mol
# Density = 1.882588 g / cm^3
# Si number density = 18.868822 Si / 1000 Ang^3
#
#
#
# Elastic Constant Matrix: (Units=GPa)
#
#
# Indices 1 2 3 4 5 6 
#
# 1 44.5255 6.8403 5.7057 0.0000 0.0000 0.0000
# 2 6.8403 107.8719 38.7183 0.0000 0.0000 0.0000
# 3 5.7057 38.7183 108.5510 0.0000 0.0000 0.0000
# 4 0.0000 0.0000 0.0000 15.1212 0.0000 0.0000
# 5 0.0000 0.0000 0.0000 0.0000 33.0384 0.0000
# 6 0.0000 0.0000 0.0000 0.0000 0.0000 9.0128
#
#
#
# Elastic Compliance Matrix: (Units=1/GPa)
#
#
# Indices 1 2 3 4 5 6 
#
# 1 0.022738 -0.001162 -0.000781 0.000000 0.000000 0.000000
# 2 -0.001162 0.010691 -0.003752 0.000000 0.000000 0.000000
# 3 -0.000781 -0.003752 0.010592 0.000000 0.000000 0.000000
# 4 0.000000 0.000000 0.000000 0.066132 0.000000 0.000000
# 5 0.000000 0.000000 0.000000 0.000000 0.030268 0.000000
# 6 0.000000 0.000000 0.000000 0.000000 0.000000 0.110953
#
#
# Mechanical properties :
#
#
# Convention : Reuss Voigt Hill
#
# Bulk Modulus (GPa) = 30.64588 40.38633 35.51611
# Shear Modulus (GPa) = 18.27226 25.41342 21.84284
#
# Velocity S-wave (km/s) = 3.11526 3.67392 3.40607
# Velocity P-wave (km/s) = 5.40524 6.28070 5.85934
#
# Compressibility (1/GPa) = 0.03263081
#
# Stress axis : x y z
#
# Youngs Moduli (GPa) = 43.98011 93.53961 94.41419
#
# Poissons Ratio (x) = 0.10865 0.07372
# Poissons Ratio (y) = 0.05108 0.35425
# Poissons Ratio (z) = 0.03434 0.35097
#
# Static dielectric constant tensor:
#      x y z
#    x 1.744870 0.000000 0.000000 
#    y 0.000000 1.722390 0.000000 
#    z 0.000000 0.000000 1.719540 
# 
# From -- ./inp_files/8133.got.cif
#   From: 2010.05.17/outbox.cif.g08.bks.cpg/sg60_5_cif.got.tgz:8133.got - 2010.06.03 14:59:27.
