data_PCOD9456696
_publ_section_title
;
Structure prediction by ZEFSAII (Michael W. Deem and Ramdas Pophale) SiO2 
 PCOD9456696
Probable space group: P B C N
;
_chemical_formula_sum "Si O2"
_cell_formula_units_Z 64
_cell_length_a 27.104378
_cell_length_b 8.567723
_cell_length_c 13.160323
_cell_angle_alpha 90.000000
_cell_angle_beta 90.000000
_cell_angle_gamma 90.000000
_cell_volume 3056.127093
_symmetry_space_group_name_H-M "P B C N"
_symmetry_group_IT_number 60
_symmetry_cell_setting 'orthorhombic'
loop_
_space_group_symop_operation_xyz
x,y,z
1/2-x,1/2-y,1/2+z
1/2+x,1/2-y,-z
-x,y,1/2-z
-x,-y,-z
1/2+x,1/2+y,1/2-z
1/2-x,1/2+y,z
x,-y,1/2+z
loop_
_atom_site_type_symbol
_atom_site_label
_atom_site_fract_x
_atom_site_fract_y
_atom_site_fract_z
Si Si1 0.790918 0.439390 0.872188
Si Si2 0.436833 0.302003 0.529256
Si Si3 0.810136 0.656180 0.148480
Si Si4 0.875100 0.497686 0.497511
Si Si5 0.868278 0.028549 0.614208
Si Si6 0.031851 0.654407 0.966612
Si Si7 0.053701 0.170530 0.264501
Si Si8 0.219728 0.859628 0.998425
O O1 0.788864 0.398565 0.755276
O O2 0.840001 0.535223 0.901522
O O3 0.743177 0.521348 0.919442
O O4 0.799814 0.284433 0.937619
O O5 0.410458 0.149153 0.485361
O O6 0.405304 0.438143 0.479962
O O7 0.494824 0.293707 0.502141
O O8 0.432895 0.283274 0.650203
O O9 0.844742 0.809354 0.156393
O O10 0.839623 0.512652 0.095558
O O11 0.765330 0.693375 0.072230
O O12 0.913704 0.638146 0.486497
O O13 0.902603 0.936065 0.692604
O O14 0.822246 0.932397 0.571219
O O15 0.042873 0.689887 0.846455
O O16 0.000000 0.500000 0.000000
O O17 0.000000 0.088808 0.250000
#
# Coordination Sequence:
#
# PCOD9456696 Si02
#       8
#     8   8   8   8   8   8   8   8
#     4  11  24  39  65  91 122 166 217 264 331 398
#     4   9  21  39  63  88 127 165 211 267 318 391
#     4  10  24  42  61  94 128 165 219 275 324 396
#     4   9  20  40  61  92 124 160 210 267 322 388
#     4  11  23  43  63  91 135 168 217 280 331 392
#     4   9  18  38  63  88 126 163 208 265 318 381
#     4  10  22  38  63  95 123 176 219 257 339 400
#     4  11  24  44  62  93 126 169 220 272 334 394
#
# _framework density 20.941537
#
# number of rings (size 3 to 8) (size 9 to 14) (size 15 to 20)
#    0.000    2.000    1.250    0.750    5.250    2.000 
#    2.250    0.000    0.000    0.000    0.000    0.000 
#    0.000    0.000    0.000    0.000    0.000    0.000 
#
# Total GULP energy -356547.316815 kJ/mol
# GULP energy per Si atom -5571.051825 kJ/mol
# Density = 2.089387 g / cm^3
# Si number density = 20.941537 Si / 1000 Ang^3
#
#
#
# Elastic Constant Matrix: (Units=GPa)
#
#
# Indices 1 2 3 4 5 6 
#
# 1 117.2052 20.3967 23.4384 0.0000 0.0000 0.0000
# 2 20.3967 43.2785 4.4783 0.0000 0.0000 0.0000
# 3 23.4384 4.4783 75.5296 0.0000 0.0000 0.0000
# 4 0.0000 0.0000 0.0000 14.3241 0.0000 0.0000
# 5 0.0000 0.0000 0.0000 0.0000 28.3089 0.0000
# 6 0.0000 0.0000 0.0000 0.0000 0.0000 34.4927
#
#
#
# Elastic Compliance Matrix: (Units=1/GPa)
#
#
# Indices 1 2 3 4 5 6 
#
# 1 0.009849 -0.004352 -0.002798 0.000000 0.000000 0.000000
# 2 -0.004352 0.025172 -0.000142 0.000000 0.000000 0.000000
# 3 -0.002798 -0.000142 0.014117 0.000000 0.000000 0.000000
# 4 0.000000 0.000000 0.000000 0.069812 0.000000 0.000000
# 5 0.000000 0.000000 0.000000 0.000000 0.035325 0.000000
# 6 0.000000 0.000000 0.000000 0.000000 0.000000 0.028992
#
#
# Mechanical properties :
#
#
# Convention : Reuss Voigt Hill
#
# Bulk Modulus (GPa) = 28.94121 36.96003 32.95062
# Shear Modulus (GPa) = 23.88133 27.93847 25.90990
#
# Velocity S-wave (km/s) = 3.38062 3.65652 3.52127
# Velocity P-wave (km/s) = 5.39334 5.95939 5.68341
#
# Compressibility (1/GPa) = 0.03455281
#
# Stress axis : x y z
#
# Youngs Moduli (GPa) = 101.53278 39.72665 70.83838
#
# Poissons Ratio (x) = 0.17290 0.19823
# Poissons Ratio (y) = 0.44189 0.01005
# Poissons Ratio (z) = 0.28412 0.00564
#
# Static dielectric constant tensor:
#      x y z
#    x 1.832040 0.000000 0.000000 
#    y 0.000000 1.837360 0.000000 
#    z 0.000000 0.000000 1.728790 
# 
# From -- ./inp_files/13390.got.cif
#   From: 2010.05.17/outbox.cif.g08.bks.cpg/sg60_7_cif.got.tgz:13390.got - 2010.06.03 14:59:27.
