data_PCOD9456217
_publ_section_title
;
Structure prediction by ZEFSAII (Michael W. Deem and Ramdas Pophale) SiO2 
 PCOD9456217
Probable space group: P B C N
;
_chemical_formula_sum "Si O2"
_cell_formula_units_Z 64
_cell_length_a 21.747762
_cell_length_b 8.978146
_cell_length_c 14.080278
_cell_angle_alpha 90.000000
_cell_angle_beta 90.000000
_cell_angle_gamma 90.000000
_cell_volume 2749.238801
_symmetry_space_group_name_H-M "P B C N"
_symmetry_group_IT_number 60
_symmetry_cell_setting 'orthorhombic'
loop_
_space_group_symop_operation_xyz
x,y,z
1/2-x,1/2-y,1/2+z
1/2+x,1/2-y,-z
-x,y,1/2-z
-x,-y,-z
1/2+x,1/2+y,1/2-z
1/2-x,1/2+y,z
x,-y,1/2+z
loop_
_atom_site_type_symbol
_atom_site_label
_atom_site_fract_x
_atom_site_fract_y
_atom_site_fract_z
Si Si1 0.153199 0.490297 0.055393
Si Si2 0.336002 0.472178 0.120915
Si Si3 0.584570 0.395486 0.730382
Si Si4 0.895556 0.374217 0.116375
Si Si5 0.233402 0.680691 0.181524
Si Si6 0.087052 0.076596 0.945235
Si Si7 0.675596 0.166100 0.123479
Si Si8 0.465452 0.213018 0.593612
O O1 0.187482 0.551385 0.145429
O O2 0.091838 0.398739 0.078966
O O3 0.132518 0.628476 0.989012
O O4 0.194894 0.395587 0.980704
O O5 0.382059 0.477030 0.209886
O O6 0.297803 0.625790 0.138636
O O7 0.291923 0.332982 0.137699
O O8 0.374485 0.485426 0.024420
O O9 0.624111 0.263573 0.681115
O O10 0.557820 0.476904 0.637273
O O11 0.548677 0.306391 0.811799
O O12 0.871558 0.533270 0.153792
O O13 0.969227 0.365876 0.106259
O O14 0.226333 0.686396 0.295619
O O15 0.038828 0.178452 0.002482
O O16 0.136959 0.186154 0.896893
#
# Coordination Sequence:
#
# PCOD9456217 Si02
#       8
#     8   8   8   8   8   8   8   8
#     4   9  22  39  66  95 133 166 222 274 333 391
#     4  11  28  41  69  92 135 177 226 285 337 402
#     4  11  22  42  63  96 138 177 218 278 336 399
#     4  10  21  39  70  98 129 178 219 269 337 395
#     4  12  24  45  64  98 128 176 228 275 345 397
#     4  10  22  45  62  97 141 171 225 279 336 397
#     4   9  22  41  68  94 133 169 221 276 327 401
#     4  10  21  40  72  97 137 177 223 277 330 405
#
# _framework density 23.279171999999999
#
# number of rings (size 3 to 8) (size 9 to 14) (size 15 to 20)
#    0.750    1.000    1.250    2.250    7.000    1.500 
#    2.250    1.250    0.000    0.000    0.000    0.000 
#    0.000    0.000    0.000    0.000    0.000    0.000 
#
# Total GULP energy -357199.226857 kJ/mol
# GULP energy per Si atom -5581.237920 kJ/mol
# Density = 2.322619 g / cm^3
# Si number density = 23.279172 Si / 1000 Ang^3
#
#
#
# Elastic Constant Matrix: (Units=GPa)
#
#
# Indices 1 2 3 4 5 6 
#
# 1 48.2557 -3.6480 26.7164 0.0000 0.0000 0.0000
# 2 -3.6480 73.5117 25.9367 0.0000 0.0000 0.0000
# 3 26.7164 25.9367 134.7710 0.0000 0.0000 0.0000
# 4 0.0000 0.0000 0.0000 28.1473 0.0000 0.0000
# 5 0.0000 0.0000 0.0000 0.0000 26.1595 0.0000
# 6 0.0000 0.0000 0.0000 0.0000 0.0000 30.0208
#
#
#
# Elastic Compliance Matrix: (Units=1/GPa)
#
#
# Indices 1 2 3 4 5 6 
#
# 1 0.023905 0.003066 -0.005329 0.000000 0.000000 0.000000
# 2 0.003066 0.014988 -0.003492 0.000000 0.000000 0.000000
# 3 -0.005329 -0.003492 0.009148 0.000000 0.000000 0.000000
# 4 0.000000 0.000000 0.000000 0.035527 0.000000 0.000000
# 5 0.000000 0.000000 0.000000 0.000000 0.038227 0.000000
# 6 0.000000 0.000000 0.000000 0.000000 0.000000 0.033310
#
#
# Mechanical properties :
#
#
# Convention : Reuss Voigt Hill
#
# Bulk Modulus (GPa) = 27.37352 39.39429 33.38390
# Shear Modulus (GPa) = 27.96537 30.70108 29.33323
#
# Velocity S-wave (km/s) = 3.46974 3.63550 3.55359
# Velocity P-wave (km/s) = 5.27603 5.88063 5.58651
#
# Compressibility (1/GPa) = 0.03653166
#
# Stress axis : x y z
#
# Youngs Moduli (GPa) = 41.83208 66.72185 109.30786
#
# Poissons Ratio (x) = -0.20460 0.58250
# Poissons Ratio (y) = -0.12828 0.38173
# Poissons Ratio (z) = 0.22292 0.23301
#
# Static dielectric constant tensor:
#      x y z
#    x 1.931150 0.000000 0.000000 
#    y 0.000000 1.896100 0.000000 
#    z 0.000000 0.000000 1.864000 
# 
# From -- ./inp_files/17957.got.cif
#   From: 2010.05.17/outbox.cif.g08.bks.cpg/sg60_9_cif.got.tgz:17957.got - 2010.06.03 14:59:27.
