data_PCOD9456404
_publ_section_title
;
Structure prediction by ZEFSAII (Michael W. Deem and Ramdas Pophale) SiO2 
 PCOD9456404
Probable space group: P B C N
;
_chemical_formula_sum "Si O2"
_cell_formula_units_Z 36
_cell_length_a 21.654063
_cell_length_b 5.017305
_cell_length_c 13.070064
_cell_angle_alpha 90.000000
_cell_angle_beta 90.000000
_cell_angle_gamma 90.000000
_cell_volume 1419.997607
_symmetry_space_group_name_H-M "P B C N"
_symmetry_group_IT_number 60
_symmetry_cell_setting 'orthorhombic'
loop_
_space_group_symop_operation_xyz
x,y,z
1/2-x,1/2-y,1/2+z
1/2+x,1/2-y,-z
-x,y,1/2-z
-x,-y,-z
1/2+x,1/2+y,1/2-z
1/2-x,1/2+y,z
x,-y,1/2+z
loop_
_atom_site_type_symbol
_atom_site_label
_atom_site_fract_x
_atom_site_fract_y
_atom_site_fract_z
Si Si1 0.500000 0.279158 0.750000
Si Si2 0.785428 0.313267 0.383403
Si Si3 0.920971 0.530925 0.568813
Si Si4 0.917260 0.949140 0.931046
Si Si5 0.785507 0.635184 0.638516
O O1 0.460586 0.108821 0.831689
O O2 0.453763 0.442893 0.676282
O O3 0.770018 0.614692 0.415668
O O4 0.849269 0.173216 0.412208
O O5 0.786899 0.342487 0.261180
O O6 0.918496 0.766404 0.484826
O O7 0.943910 0.263546 0.513494
O O8 0.850194 0.512027 0.605529
O O9 0.769310 0.935071 0.607887
#
# Coordination Sequence:
#
# PCOD9456404 Si02
#       5
#     4   8   8   8   8
#     4  12  28  54  68 100 144 186 228 308 320 416
#     4  10  21  41  69 102 140 179 219 279 351 409
#     4  12  27  46  74 105 135 185 235 281 349 410
#     4  12  27  46  74 105 135 185 235 281 349 410
#     4  10  21  41  69 102 140 179 219 279 351 409
#
# _framework density 25.352153999999999
#
# number of rings (size 3 to 8) (size 9 to 14) (size 15 to 20)
#    0.000    0.889    2.222    4.000    0.000    8.889 
#    0.000    0.000    0.000    0.000    0.000    0.000 
#    0.000    0.000    0.000    0.000    0.000    0.000 
#
# Total GULP energy -201811.569226 kJ/mol
# GULP energy per Si atom -5605.876923 kJ/mol
# Density = 2.529445 g / cm^3
# Si number density = 25.352154 Si / 1000 Ang^3
#
#
#
# Elastic Constant Matrix: (Units=GPa)
#
#
# Indices 1 2 3 4 5 6 
#
# 1 117.6329 -6.2792 6.5186 0.0000 0.0000 0.0000
# 2 -6.2792 61.6107 -16.4932 0.0000 0.0000 0.0000
# 3 6.5186 -16.4932 114.3375 0.0000 0.0000 0.0000
# 4 0.0000 0.0000 0.0000 18.6453 0.0000 0.0000
# 5 0.0000 0.0000 0.0000 0.0000 51.5156 0.0000
# 6 0.0000 0.0000 0.0000 0.0000 0.0000 10.3120
#
#
#
# Elastic Compliance Matrix: (Units=1/GPa)
#
#
# Indices 1 2 3 4 5 6 
#
# 1 0.008563 0.000772 -0.000377 0.000000 0.000000 0.000000
# 2 0.000772 0.016952 0.002401 0.000000 0.000000 0.000000
# 3 -0.000377 0.002401 0.009114 0.000000 0.000000 0.000000
# 4 0.000000 0.000000 0.000000 0.053633 0.000000 0.000000
# 5 0.000000 0.000000 0.000000 0.000000 0.019412 0.000000
# 6 0.000000 0.000000 0.000000 0.000000 0.000000 0.096975
#
#
# Mechanical properties :
#
#
# Convention : Reuss Voigt Hill
#
# Bulk Modulus (GPa) = 24.86188 29.00817 26.93502
# Shear Modulus (GPa) = 23.53350 36.75025 30.14187
#
# Velocity S-wave (km/s) = 3.05005 3.81148 3.45182
# Velocity P-wave (km/s) = 4.71504 5.55309 5.15114
#
# Compressibility (1/GPa) = 0.04022222
#
# Stress axis : x y z
#
# Youngs Moduli (GPa) = 116.78004 58.98849 109.72225
#
# Poissons Ratio (x) = -0.04553 0.04135
# Poissons Ratio (y) = -0.09014 -0.26349
# Poissons Ratio (z) = 0.04401 -0.14165
#
# Static dielectric constant tensor:
#      x y z
#    x 2.034470 0.000000 0.000000 
#    y 0.000000 1.918360 0.000000 
#    z 0.000000 0.000000 2.002430 
# 
# From -- ./inp_files/17978.got.cif
#   From: 2010.05.17/outbox.cif.g08.bks.cpg/sg60_9_cif.got.tgz:17978.got - 2010.06.03 14:59:27.
