data_PCOD9456806
_publ_section_title
;
Structure prediction by ZEFSAII (Michael W. Deem and Ramdas Pophale) SiO2 
 PCOD9456806
Probable space group: P B C N
;
_chemical_formula_sum "Si O2"
_cell_formula_units_Z 40
_cell_length_a 14.234682
_cell_length_b 13.347080
_cell_length_c 11.151710
_cell_angle_alpha 90.000000
_cell_angle_beta 90.000000
_cell_angle_gamma 90.000000
_cell_volume 2118.729435
_symmetry_space_group_name_H-M "P B C N"
_symmetry_group_IT_number 60
_symmetry_cell_setting 'orthorhombic'
loop_
_space_group_symop_operation_xyz
x,y,z
1/2-x,1/2-y,1/2+z
1/2+x,1/2-y,-z
-x,y,1/2-z
-x,-y,-z
1/2+x,1/2+y,1/2-z
1/2-x,1/2+y,z
x,-y,1/2+z
loop_
_atom_site_type_symbol
_atom_site_label
_atom_site_fract_x
_atom_site_fract_y
_atom_site_fract_z
Si Si1 0.521500 0.816621 0.568870
Si Si2 0.008943 0.889063 0.946873
Si Si3 0.636396 0.905950 0.787407
Si Si4 0.096841 0.635532 0.688519
Si Si5 0.653655 0.341284 0.754676
O O1 0.502265 0.699514 0.544458
O O2 0.587671 0.843016 0.680816
O O3 0.421707 0.870435 0.595259
O O4 0.574745 0.858952 0.452273
O O5 0.923053 0.872495 0.854231
O O6 0.105264 0.870934 0.871636
O O7 0.000000 0.000000 0.000000
O O8 0.746855 0.889505 0.783241
O O9 0.618561 0.023820 0.771844
O O10 0.167427 0.721382 0.731164
O O11 0.000000 0.668260 0.750000
#
# Coordination Sequence:
#
# PCOD9456806 Si02
#       5
#     8   8   8   8   8
#     4  10  22  40  60  91 122 159 208 251 306 363
#     4  10  22  41  62  80 126 171 199 254 310 364
#     4  11  24  35  65  99 119 155 212 262 295 366
#     4  11  20  43  65  82 127 171 192 255 317 362
#     4  10  23  41  58  92 122 162 211 246 312 373
#
# _framework density 18.879239999999999
#
# number of rings (size 3 to 8) (size 9 to 14) (size 15 to 20)
#    0.000    1.600    6.000    0.600    0.000   11.200 
#    0.000    0.000    0.000    0.000    0.000    0.000 
#    0.000    0.000    0.000    0.000    0.000    0.000 
#
# Total GULP energy -223116.364543 kJ/mol
# GULP energy per Si atom -5577.909114 kJ/mol
# Density = 1.883627 g / cm^3
# Si number density = 18.879240 Si / 1000 Ang^3
#
#
#
# Elastic Constant Matrix: (Units=GPa)
#
#
# Indices 1 2 3 4 5 6 
#
# 1 94.8770 20.2565 1.7832 0.0000 0.0000 0.0000
# 2 20.2565 144.3719 34.9521 0.0000 0.0000 0.0000
# 3 1.7832 34.9521 51.9262 0.0000 0.0000 0.0000
# 4 0.0000 0.0000 0.0000 26.9713 0.0000 0.0000
# 5 0.0000 0.0000 0.0000 0.0000 7.2618 0.0000
# 6 0.0000 0.0000 0.0000 0.0000 0.0000 15.4955
#
#
#
# Elastic Compliance Matrix: (Units=1/GPa)
#
#
# Indices 1 2 3 4 5 6 
#
# 1 0.010892 -0.001718 0.000782 0.000000 0.000000 0.000000
# 2 -0.001718 0.008546 -0.005693 0.000000 0.000000 0.000000
# 3 0.000782 -0.005693 0.023064 0.000000 0.000000 0.000000
# 4 0.000000 0.000000 0.000000 0.037077 0.000000 0.000000
# 5 0.000000 0.000000 0.000000 0.000000 0.137708 0.000000
# 6 0.000000 0.000000 0.000000 0.000000 0.000000 0.064535
#
#
# Mechanical properties :
#
#
# Convention : Reuss Voigt Hill
#
# Bulk Modulus (GPa) = 34.19541 45.01763 39.60652
# Shear Modulus (GPa) = 16.40280 25.55792 20.98036
#
# Velocity S-wave (km/s) = 2.95079 3.68334 3.33722
# Velocity P-wave (km/s) = 5.45541 6.47967 5.98948
#
# Compressibility (1/GPa) = 0.02924369
#
# Stress axis : x y z
#
# Youngs Moduli (GPa) = 91.81078 117.01520 43.35851
#
# Poissons Ratio (x) = 0.20098 -0.03391
# Poissons Ratio (y) = 0.15769 0.24686
# Poissons Ratio (z) = -0.07180 0.66621
#
# Static dielectric constant tensor:
#      x y z
#    x 1.613660 0.000000 0.000000 
#    y 0.000000 1.655760 0.000000 
#    z 0.000000 0.000000 1.727260 
# 
# From -- ./inp_files/11662.got.cif
#   From: 2010.05.17/outbox.cif.g08.bks.cpg/sg60_6_cif.got.tgz:11662.got - 2010.06.03 14:59:27.
