data_PCOD9456736
_publ_section_title
;
Structure prediction by ZEFSAII (Michael W. Deem and Ramdas Pophale) SiO2 
 PCOD9456736
Probable space group: P B C N
;
_chemical_formula_sum "Si O2"
_cell_formula_units_Z 20
_cell_length_a 9.462590
_cell_length_b 15.569555
_cell_length_c 5.293683
_cell_angle_alpha 90.000000
_cell_angle_beta 90.000000
_cell_angle_gamma 90.000000
_cell_volume 779.909399
_symmetry_space_group_name_H-M "P B C N"
_symmetry_group_IT_number 60
_symmetry_cell_setting 'orthorhombic'
loop_
_space_group_symop_operation_xyz
x,y,z
1/2-x,1/2-y,1/2+z
1/2+x,1/2-y,-z
-x,y,1/2-z
-x,-y,-z
1/2+x,1/2+y,1/2-z
1/2-x,1/2+y,z
x,-y,1/2+z
loop_
_atom_site_type_symbol
_atom_site_label
_atom_site_fract_x
_atom_site_fract_y
_atom_site_fract_z
Si Si1 0.339768 0.261294 0.524124
Si Si2 0.807668 0.949003 0.850463
Si Si3 0.500000 0.122647 0.250000
O O1 0.243453 0.234278 0.758938
O O2 0.379801 0.358564 0.584594
O O3 0.453794 0.187994 0.472061
O O4 0.637557 0.929930 0.835742
O O5 0.840756 0.985832 0.575503
#
# Coordination Sequence:
#
# PCOD9456736 Si02
#       3
#     8   8   4
#     4  10  22  39  58  86 121 156 194 240 294 355
#     4  11  22  38  60  91 119 148 195 253 292 334
#     4  10  22  40  64  86 116 164 200 232 292 362
#
# _framework density 25.644005
#
# number of rings (size 3 to 8) (size 9 to 14) (size 15 to 20)
#    0.000    1.600    0.000    6.000    0.000   12.800 
#    0.000    2.000    0.000    0.000    0.000    0.000 
#    0.000    0.000    0.000    0.000    0.000    0.000 
#
# Total GULP energy -112125.871539 kJ/mol
# GULP energy per Si atom -5606.293577 kJ/mol
# Density = 2.558564 g / cm^3
# Si number density = 25.644005 Si / 1000 Ang^3
#
#
#
# Elastic Constant Matrix: (Units=GPa)
#
#
# Indices 1 2 3 4 5 6 
#
# 1 68.3859 16.8899 70.3960 0.0000 0.0000 0.0000
# 2 16.8899 118.5105 47.8728 0.0000 0.0000 0.0000
# 3 70.3960 47.8728 180.1966 0.0000 0.0000 0.0000
# 4 0.0000 0.0000 0.0000 -67.1477 0.0000 0.0000
# 5 0.0000 0.0000 0.0000 0.0000 31.7440 0.0000
# 6 0.0000 0.0000 0.0000 0.0000 0.0000 -1.9202
#
#
#
# Elastic Compliance Matrix: (Units=1/GPa)
#
#
# Indices 1 2 3 4 5 6 
#
# 1 0.024478 0.000419 -0.009674 0.000000 0.000000 0.000000
# 2 0.000419 0.009460 -0.002677 0.000000 0.000000 0.000000
# 3 -0.009674 -0.002677 0.010040 0.000000 0.000000 0.000000
# 4 0.000000 0.000000 0.000000 -0.014893 0.000000 0.000000
# 5 0.000000 0.000000 0.000000 0.000000 0.031502 0.000000
# 6 0.000000 0.000000 0.000000 0.000000 0.000000 -0.520767
#
#
# Mechanical properties :
#
#
# Convention : Reuss Voigt Hill
#
# Bulk Modulus (GPa) = 49.71634 70.82337 60.26986
# Shear Modulus (GPa) = -11.63838 7.99749 -1.82044
#
# Velocity S-wave (km/s) = -2.13267 1.76789 -0.84346
# Velocity P-wave (km/s) = 3.65579 5.64315 4.75447
#
# Compressibility (1/GPa) = 0.02011411
#
# Stress axis : x y z
#
# Youngs Moduli (GPa) = 40.85373 105.71181 99.60265
#
# Poissons Ratio (x) = -0.04432 0.96354
# Poissons Ratio (y) = -0.01713 0.26663
# Poissons Ratio (z) = 0.39521 0.28299
#
# Static dielectric constant tensor:
#      x y z
#    x 2.226940 0.000000 0.000000 
#    y 0.000000 1.969510 0.000000 
#    z 0.000000 0.000000 2.055210 
# 
# From -- ./inp_files/135.got.cif
#   From: 2010.05.17/outbox.cif.g08.bks.cpg/sg60_1_cif.got.tgz:135.got - 2010.06.03 14:59:27.
