data_PCOD9456934
_publ_section_title
;
Structure prediction by ZEFSAII (Michael W. Deem and Ramdas Pophale) SiO2 
 PCOD9456934
Probable space group: P B C N
;
_chemical_formula_sum "Si O2"
_cell_formula_units_Z 56
_cell_length_a 33.158047
_cell_length_b 5.359869
_cell_length_c 12.107753
_cell_angle_alpha 90.000000
_cell_angle_beta 90.000000
_cell_angle_gamma 90.000000
_cell_volume 2151.823622
_symmetry_space_group_name_H-M "P B C N"
_symmetry_group_IT_number 60
_symmetry_cell_setting 'orthorhombic'
loop_
_space_group_symop_operation_xyz
x,y,z
1/2-x,1/2-y,1/2+z
1/2+x,1/2-y,-z
-x,y,1/2-z
-x,-y,-z
1/2+x,1/2+y,1/2-z
1/2-x,1/2+y,z
x,-y,1/2+z
loop_
_atom_site_type_symbol
_atom_site_label
_atom_site_fract_x
_atom_site_fract_y
_atom_site_fract_z
Si Si1 0.500000 0.000000 0.500000
Si Si2 0.500000 0.734251 0.750000
Si Si3 0.769274 0.640680 0.408066
Si Si4 0.644455 0.996224 0.825909
Si Si5 0.263994 0.416532 0.350806
Si Si6 0.059634 0.580149 0.626615
Si Si7 0.645100 0.501371 0.180626
Si Si8 0.560415 0.352223 0.637876
O O1 0.535172 0.772530 0.464368
O O2 0.537903 0.174628 0.552480
O O3 0.520168 0.894323 0.850553
O O4 0.533757 0.572224 0.691626
O O5 0.736398 0.428994 0.377050
O O6 0.814199 0.545750 0.389519
O O7 0.761385 0.643611 0.540145
O O8 0.604642 0.006211 0.902032
O O9 0.637685 0.755035 0.747787
O O10 0.649133 0.256698 0.760185
O O11 0.240134 0.644543 0.294528
O O12 0.310937 0.465647 0.371855
O O13 0.064810 0.686222 0.749230
O O14 0.605384 0.555484 0.108027
#
# Coordination Sequence:
#
# PCOD9456934 Si02
#       8
#     4   4   8   8   8   8   8   8
#     4  12  22  42  68 102 134 190 240 290 376 440
#     4  12  18  46  70  90 140 192 222 312 364 426
#     4  10  22  41  64  92 131 174 216 284 344 414
#     4  11  24  42  68  98 135 182 231 285 365 432
#     4  10  22  41  66  95 136 179 226 290 354 420
#     4  11  24  43  66  98 142 179 234 305 355 434
#     4  11  24  42  68 101 135 185 233 290 363 435
#     4  11  24  43  67 100 146 182 239 306 366 439
#
# _framework density 26.024438
#
# number of rings (size 3 to 8) (size 9 to 14) (size 15 to 20)
#    0.000    1.143    4.286    1.714    0.000    6.286 
#    0.000    4.286    0.000    0.000    0.000    0.000 
#    0.000    0.000    0.000    0.000    0.000    0.000 
#
# Total GULP energy -312342.110589 kJ/mol
# GULP energy per Si atom -5577.537689 kJ/mol
# Density = 2.596521 g / cm^3
# Si number density = 26.024438 Si / 1000 Ang^3
#
#
#
# Elastic Constant Matrix: (Units=GPa)
#
#
# Indices 1 2 3 4 5 6 
#
# 1 244.3274 22.7151 23.7547 0.0000 0.0000 0.0000
# 2 22.7151 104.8598 -0.7932 0.0000 0.0000 0.0000
# 3 23.7547 -0.7932 41.8328 0.0000 0.0000 0.0000
# 4 0.0000 0.0000 0.0000 31.3496 0.0000 0.0000
# 5 0.0000 0.0000 0.0000 0.0000 37.2645 0.0000
# 6 0.0000 0.0000 0.0000 0.0000 0.0000 39.3790
#
#
#
# Elastic Compliance Matrix: (Units=1/GPa)
#
#
# Indices 1 2 3 4 5 6 
#
# 1 0.004430 -0.000979 -0.002534 0.000000 0.000000 0.000000
# 2 -0.000979 0.009754 0.000741 0.000000 0.000000 0.000000
# 3 -0.002534 0.000741 0.025358 0.000000 0.000000 0.000000
# 4 0.000000 0.000000 0.000000 0.031898 0.000000 0.000000
# 5 0.000000 0.000000 0.000000 0.000000 0.026835 0.000000
# 6 0.000000 0.000000 0.000000 0.000000 0.000000 0.025394
#
#
# Mechanical properties :
#
#
# Convention : Reuss Voigt Hill
#
# Bulk Modulus (GPa) = 29.41384 53.59701 41.50543
# Shear Modulus (GPa) = 35.57522 44.62152 40.09837
#
# Velocity S-wave (km/s) = 3.70130 4.14527 3.92956
# Velocity P-wave (km/s) = 5.43995 6.59929 6.04746
#
# Compressibility (1/GPa) = 0.03399760
#
# Stress axis : x y z
#
# Youngs Moduli (GPa) = 225.71984 102.51997 39.43552
#
# Poissons Ratio (x) = 0.10035 0.09994
# Poissons Ratio (y) = 0.22095 -0.02921
# Poissons Ratio (z) = 0.57204 -0.07595
#
# Static dielectric constant tensor:
#      x y z
#    x 2.462860 0.000000 0.000000 
#    y 0.000000 2.269860 0.000000 
#    z 0.000000 0.000000 4.702710 
# 
# From -- ./inp_files/18208.got.cif
#   From: 2010.05.17/outbox.cif.g08.bks.cpg/sg60_10_cif.got.tgz:18208.got - 2010.06.03 14:59:27.
