data_PCOD9456957
_publ_section_title
;
Structure prediction by ZEFSAII (Michael W. Deem and Ramdas Pophale) SiO2 
 PCOD9456957
Probable space group: P B C N
;
_chemical_formula_sum "Si O2"
_cell_formula_units_Z 36
_cell_length_a 7.066331
_cell_length_b 14.335769
_cell_length_c 14.113545
_cell_angle_alpha 90.000000
_cell_angle_beta 90.000000
_cell_angle_gamma 90.000000
_cell_volume 1429.720299
_symmetry_space_group_name_H-M "P B C N"
_symmetry_group_IT_number 60
_symmetry_cell_setting 'orthorhombic'
loop_
_space_group_symop_operation_xyz
x,y,z
1/2-x,1/2-y,1/2+z
1/2+x,1/2-y,-z
-x,y,1/2-z
-x,-y,-z
1/2+x,1/2+y,1/2-z
1/2-x,1/2+y,z
x,-y,1/2+z
loop_
_atom_site_type_symbol
_atom_site_label
_atom_site_fract_x
_atom_site_fract_y
_atom_site_fract_z
Si Si1 0.661055 0.495890 0.387133
Si Si2 0.500000 0.813178 0.750000
Si Si3 0.832188 0.630931 0.542238
Si Si4 0.269549 0.978212 0.827786
Si Si5 0.434443 0.296551 0.080240
O O1 0.759312 0.574413 0.450096
O O2 0.437577 0.523222 0.376442
O O3 0.734509 0.490679 0.280044
O O4 0.675234 0.393307 0.433857
O O5 0.624419 0.752035 0.821782
O O6 0.370599 0.879186 0.815763
O O7 0.899596 0.550299 0.613293
O O8 0.937811 0.721897 0.504289
O O9 0.649569 0.671878 0.595640
#
# Coordination Sequence:
#
# PCOD9456957 Si02
#       5
#     8   4   8   8   8
#     4  10  22  47  64  91 135 181 217 262 346 393
#     4  12  24  40  66 100 134 170 224 276 328 392
#     4  11  24  43  69  97 131 177 223 274 330 401
#     4  10  22  41  66  92 137 176 210 279 331 389
#     4  11  24  40  67  98 128 173 225 273 322 407
#
# _framework density 25.179749999999999
#
# number of rings (size 3 to 8) (size 9 to 14) (size 15 to 20)
#    0.000    1.333    2.222    5.333    6.222    2.667 
#    0.000    0.000    0.000    0.000    0.000    0.000 
#    0.000    0.000    0.000    0.000    0.000    0.000 
#
# Total GULP energy -201475.924590 kJ/mol
# GULP energy per Si atom -5596.553461 kJ/mol
# Density = 2.512244 g / cm^3
# Si number density = 25.179750 Si / 1000 Ang^3
#
#
#
# Elastic Constant Matrix: (Units=GPa)
#
#
# Indices 1 2 3 4 5 6 
#
# 1 47.5619 21.7968 3.3108 0.0000 0.0000 0.0000
# 2 21.7968 149.5170 44.5796 0.0000 0.0000 0.0000
# 3 3.3108 44.5796 111.6531 0.0000 0.0000 0.0000
# 4 0.0000 0.0000 0.0000 49.0051 0.0000 0.0000
# 5 0.0000 0.0000 0.0000 0.0000 35.2837 0.0000
# 6 0.0000 0.0000 0.0000 0.0000 0.0000 35.5556
#
#
#
# Elastic Compliance Matrix: (Units=1/GPa)
#
#
# Indices 1 2 3 4 5 6 
#
# 1 0.022583 -0.003510 0.000732 0.000000 0.000000 0.000000
# 2 -0.003510 0.008138 -0.003145 0.000000 0.000000 0.000000
# 3 0.000732 -0.003145 0.010190 0.000000 0.000000 0.000000
# 4 0.000000 0.000000 0.000000 0.020406 0.000000 0.000000
# 5 0.000000 0.000000 0.000000 0.000000 0.028342 0.000000
# 6 0.000000 0.000000 0.000000 0.000000 0.000000 0.028125
#
#
# Mechanical properties :
#
#
# Convention : Reuss Voigt Hill
#
# Bulk Modulus (GPa) = 34.40678 49.78961 42.09820
# Shear Modulus (GPa) = 35.88894 39.90521 37.89707
#
# Velocity S-wave (km/s) = 3.77942 3.98529 3.88372
# Velocity P-wave (km/s) = 5.72185 6.40260 6.07177
#
# Compressibility (1/GPa) = 0.02906404
#
# Stress axis : x y z
#
# Youngs Moduli (GPa) = 44.28103 122.88533 98.13241
#
# Poissons Ratio (x) = 0.43138 -0.07183
# Poissons Ratio (y) = 0.15545 0.30863
# Poissons Ratio (z) = -0.03241 0.38648
#
# Static dielectric constant tensor:
#      x y z
#    x 2.073350 0.000000 0.000000 
#    y 0.000000 1.979610 0.000000 
#    z 0.000000 0.000000 1.985210 
# 
# From -- ./inp_files/14560.got.cif
#   From: 2010.05.17/outbox.cif.g08.bks.cpg/sg60_8_cif.got.tgz:14560.got - 2010.06.03 14:59:27.
