data_PCOD9456045
_publ_section_title
;
Structure prediction by ZEFSAII (Michael W. Deem and Ramdas Pophale) SiO2 
 PCOD9456045
Probable space group: P B C N
;
_chemical_formula_sum "Si O2"
_cell_formula_units_Z 60
_cell_length_a 14.978718
_cell_length_b 14.058371
_cell_length_c 11.986123
_cell_angle_alpha 90.000000
_cell_angle_beta 90.000000
_cell_angle_gamma 90.000000
_cell_volume 2523.994329
_symmetry_space_group_name_H-M "P B C N"
_symmetry_group_IT_number 60
_symmetry_cell_setting 'orthorhombic'
loop_
_space_group_symop_operation_xyz
x,y,z
1/2-x,1/2-y,1/2+z
1/2+x,1/2-y,-z
-x,y,1/2-z
-x,-y,-z
1/2+x,1/2+y,1/2-z
1/2-x,1/2+y,z
x,-y,1/2+z
loop_
_atom_site_type_symbol
_atom_site_label
_atom_site_fract_x
_atom_site_fract_y
_atom_site_fract_z
Si Si1 0.574840 0.969052 0.165074
Si Si2 0.321508 0.450917 0.737505
Si Si3 0.728732 0.127087 0.810742
Si Si4 0.687428 0.819459 0.861732
Si Si5 0.203113 0.627860 0.428801
Si Si6 0.500000 0.342803 0.750000
Si Si7 0.570717 0.750158 0.671375
Si Si8 0.448778 0.788097 0.459469
O O1 0.500000 0.001636 0.250000
O O2 0.646411 0.907185 0.236484
O O3 0.533026 0.895830 0.077744
O O4 0.625049 0.054261 0.105991
O O5 0.312355 0.564928 0.734376
O O6 0.244941 0.414310 0.650861
O O7 0.286664 0.407694 0.854884
O O8 0.417462 0.408498 0.712066
O O9 0.748452 0.238354 0.812341
O O10 0.717020 0.111952 0.941840
O O11 0.603218 0.817676 0.776765
O O12 0.649103 0.791982 0.982364
O O13 0.167148 0.732991 0.394689
O O14 0.534063 0.277512 0.647665
O O15 0.500000 0.688814 0.750000
O O16 0.513324 0.758331 0.558757
#
# Coordination Sequence:
#
# PCOD9456045 Si02
#       8
#     8   8   8   8   8   4   8   8
#     4  11  22  36  59  97 131 160 210 269 334 407
#     4  10  24  44  63  92 130 169 216 269 322 388
#     4  11  23  41  63  94 124 172 224 259 329 391
#     4  10  22  43  67  89 130 175 215 268 321 393
#     4  10  21  38  62  90 129 168 205 269 329 390
#     4  12  24  44  60  94 130 170 218 276 318 370
#     4   9  20  38  60  92 125 169 209 258 328 389
#     4  11  22  39  64  96 126 164 218 266 326 387
#
# _framework density 23.771844000000002
#
# number of rings (size 3 to 8) (size 9 to 14) (size 15 to 20)
#    0.000    1.600    0.667    3.600    1.867    5.333 
#    8.400    1.333    0.000    0.000    0.000    0.000 
#    0.000    0.000    0.000    0.000    0.000    0.000 
#
# Total GULP energy -334156.610640 kJ/mol
# GULP energy per Si atom -5569.276844 kJ/mol
# Density = 2.371774 g / cm^3
# Si number density = 23.771844 Si / 1000 Ang^3
#
#
#
# Elastic Constant Matrix: (Units=GPa)
#
#
# Indices 1 2 3 4 5 6 
#
# 1 60.5347 -9.9268 17.7721 0.0000 0.0000 0.0000
# 2 -9.9268 29.7280 -9.1807 0.0000 0.0000 0.0000
# 3 17.7721 -9.1807 128.9936 0.0000 0.0000 0.0000
# 4 0.0000 0.0000 0.0000 12.5668 0.0000 0.0000
# 5 0.0000 0.0000 0.0000 0.0000 30.2736 0.0000
# 6 0.0000 0.0000 0.0000 0.0000 0.0000 30.9579
#
#
#
# Elastic Compliance Matrix: (Units=1/GPa)
#
#
# Indices 1 2 3 4 5 6 
#
# 1 0.018016 0.005367 -0.002100 0.000000 0.000000 0.000000
# 2 0.005367 0.035993 0.001822 0.000000 0.000000 0.000000
# 3 -0.002100 0.001822 0.008171 0.000000 0.000000 0.000000
# 4 0.000000 0.000000 0.000000 0.079575 0.000000 0.000000
# 5 0.000000 0.000000 0.000000 0.000000 0.033032 0.000000
# 6 0.000000 0.000000 0.000000 0.000000 0.000000 0.032302
#
#
# Mechanical properties :
#
#
# Convention : Reuss Voigt Hill
#
# Bulk Modulus (GPa) = 13.81983 24.06506 18.94244
# Shear Modulus (GPa) = 22.62129 29.46577 26.04353
#
# Velocity S-wave (km/s) = 3.08815 3.52451 3.31352
# Velocity P-wave (km/s) = 4.30601 5.16800 4.75657
#
# Compressibility (1/GPa) = 0.07235981
#
# Stress axis : x y z
#
# Youngs Moduli (GPa) = 55.50556 27.78291 122.37853
#
# Poissons Ratio (x) = -0.14912 0.25702
# Poissons Ratio (y) = -0.29792 -0.22300
# Poissons Ratio (z) = 0.11657 -0.05063
#
# Static dielectric constant tensor:
#      x y z
#    x 2.027130 0.000000 0.000000 
#    y 0.000000 1.969280 0.000000 
#    z 0.000000 0.000000 1.907310 
# 
# From -- ./inp_files/12114.got.cif
#   From: 2010.05.17/outbox.cif.g08.bks.cpg/sg60_7_cif.got.tgz:12114.got - 2010.06.03 14:59:27.
