data_PCOD9456413
_publ_section_title
;
Structure prediction by ZEFSAII (Michael W. Deem and Ramdas Pophale) SiO2 
 PCOD9456413
Probable space group: P B C N
;
_chemical_formula_sum "Si O2"
_cell_formula_units_Z 48
_cell_length_a 17.545196
_cell_length_b 11.379832
_cell_length_c 11.318430
_cell_angle_alpha 90.000000
_cell_angle_beta 90.000000
_cell_angle_gamma 90.000000
_cell_volume 2259.853386
_symmetry_space_group_name_H-M "P B C N"
_symmetry_group_IT_number 60
_symmetry_cell_setting 'orthorhombic'
loop_
_space_group_symop_operation_xyz
x,y,z
1/2-x,1/2-y,1/2+z
1/2+x,1/2-y,-z
-x,y,1/2-z
-x,-y,-z
1/2+x,1/2+y,1/2-z
1/2-x,1/2+y,z
x,-y,1/2+z
loop_
_atom_site_type_symbol
_atom_site_label
_atom_site_fract_x
_atom_site_fract_y
_atom_site_fract_z
Si Si1 0.167335 0.931228 0.227214
Si Si2 0.585840 0.669846 0.205467
Si Si3 0.444003 0.603823 0.537224
Si Si4 0.348149 0.916859 0.237321
Si Si5 0.911612 0.530140 0.016685
Si Si6 0.059377 0.736887 0.329325
O O1 0.133616 0.940977 0.094967
O O2 0.257033 0.924588 0.238293
O O3 0.129083 0.810890 0.275457
O O4 0.133234 0.048991 0.286217
O O5 0.500000 0.648274 0.250000
O O6 0.622801 0.781819 0.267565
O O7 0.576449 0.692254 0.066714
O O8 0.500000 0.500000 0.500000
O O9 0.496440 0.670867 0.628794
O O10 0.378117 0.965658 0.365010
O O11 0.374206 0.980150 0.114223
O O12 0.909152 0.664793 0.060648
O O13 0.000000 0.500000 0.000000
O O14 0.000000 0.658012 0.250000
#
# Coordination Sequence:
#
# PCOD9456413 Si02
#       6
#     8   8   8   8   8   8
#     4  11  26  42  65 110 148 182 238 310 375 422
#     4  12  23  46  74 102 140 196 253 294 362 457
#     4  11  20  39  71 105 137 187 245 298 350 436
#     4  12  30  45  73 108 145 193 239 313 372 436
#     4  12  26  51  73 103 143 195 249 289 369 457
#     4  10  21  41  70 101 138 187 236 293 355 426
#
# _framework density 21.240316
#
# number of rings (size 3 to 8) (size 9 to 14) (size 15 to 20)
#    0.000    0.667    3.333    5.000    4.667    1.333 
#    0.000    0.000    0.000    0.000    0.000    0.000 
#    0.000    0.000    0.000    0.000    0.000    0.000 
#
# Total GULP energy -267608.083493 kJ/mol
# GULP energy per Si atom -5575.168406 kJ/mol
# Density = 2.119197 g / cm^3
# Si number density = 21.240316 Si / 1000 Ang^3
#
#
#
# Elastic Constant Matrix: (Units=GPa)
#
#
# Indices 1 2 3 4 5 6 
#
# 1 194.2576 41.5937 67.2656 0.0000 0.0000 0.0000
# 2 41.5937 64.2524 25.5845 0.0000 0.0000 0.0000
# 3 67.2656 25.5845 142.1531 0.0000 0.0000 0.0000
# 4 0.0000 0.0000 0.0000 34.7653 0.0000 0.0000
# 5 0.0000 0.0000 0.0000 0.0000 34.0478 0.0000
# 6 0.0000 0.0000 0.0000 0.0000 0.0000 9.8517
#
#
#
# Elastic Compliance Matrix: (Units=1/GPa)
#
#
# Indices 1 2 3 4 5 6 
#
# 1 0.006764 -0.003344 -0.002599 0.000000 0.000000 0.000000
# 2 -0.003344 0.018418 -0.001733 0.000000 0.000000 0.000000
# 3 -0.002599 -0.001733 0.008576 0.000000 0.000000 0.000000
# 4 0.000000 0.000000 0.000000 0.028764 0.000000 0.000000
# 5 0.000000 0.000000 0.000000 0.000000 0.029370 0.000000
# 6 0.000000 0.000000 0.000000 0.000000 0.000000 0.101506
#
#
# Mechanical properties :
#
#
# Convention : Reuss Voigt Hill
#
# Bulk Modulus (GPa) = 54.32469 74.39453 64.35961
# Shear Modulus (GPa) = 23.26835 33.48091 28.37463
#
# Velocity S-wave (km/s) = 3.31340 3.97456 3.65894
# Velocity P-wave (km/s) = 6.34585 7.49427 6.94384
#
# Compressibility (1/GPa) = 0.01840784
#
# Stress axis : x y z
#
# Youngs Moduli (GPa) = 147.85073 54.29457 116.60191
#
# Poissons Ratio (x) = 0.18154 0.30301
# Poissons Ratio (y) = 0.49436 0.20203
# Poissons Ratio (z) = 0.38422 0.09407
#
# Static dielectric constant tensor:
#      x y z
#    x 1.755810 0.000000 0.000000 
#    y 0.000000 1.865150 0.000000 
#    z 0.000000 0.000000 2.184020 
# 
# From -- ./inp_files/12416.got.cif
#   From: 2010.05.17/outbox.cif.g08.bks.cpg/sg60_7_cif.got.tgz:12416.got - 2010.06.03 14:59:27.
