data_PCOD9456588
_publ_section_title
;
Structure prediction by ZEFSAII (Michael W. Deem and Ramdas Pophale) SiO2 
 PCOD9456588
Probable space group: P B C N
;
_chemical_formula_sum "Si O2"
_cell_formula_units_Z 64
_cell_length_a 12.878249
_cell_length_b 21.840670
_cell_length_c 11.459109
_cell_angle_alpha 90.000000
_cell_angle_beta 90.000000
_cell_angle_gamma 90.000000
_cell_volume 3223.098851
_symmetry_space_group_name_H-M "P B C N"
_symmetry_group_IT_number 60
_symmetry_cell_setting 'orthorhombic'
loop_
_space_group_symop_operation_xyz
x,y,z
1/2-x,1/2-y,1/2+z
1/2+x,1/2-y,-z
-x,y,1/2-z
-x,-y,-z
1/2+x,1/2+y,1/2-z
1/2-x,1/2+y,z
x,-y,1/2+z
loop_
_atom_site_type_symbol
_atom_site_label
_atom_site_fract_x
_atom_site_fract_y
_atom_site_fract_z
Si Si1 0.766334 0.108992 0.572718
Si Si2 0.354530 0.123231 0.345168
Si Si3 0.079336 0.379248 0.579359
Si Si4 0.444908 0.551059 0.084650
Si Si5 0.858514 0.120158 0.044966
Si Si6 0.115612 0.061609 0.709222
Si Si7 0.145911 0.770237 0.343608
Si Si8 0.587714 0.732957 0.917025
O O1 0.654391 0.093769 0.519059
O O2 0.800284 0.078040 0.693974
O O3 0.778521 0.182013 0.594107
O O4 0.854051 0.086050 0.482651
O O5 0.374846 0.109238 0.209144
O O6 0.457987 0.103266 0.415109
O O7 0.245842 0.099390 0.392208
O O8 0.345794 0.197309 0.358783
O O9 0.084117 0.305498 0.564802
O O10 0.604061 0.510670 0.313249
O O11 0.500000 0.500000 0.000000
O O12 0.538260 0.597281 0.109429
O O13 0.859584 0.092281 0.914336
O O14 0.867655 0.192675 0.021339
O O15 0.000000 0.082397 0.750000
O O16 0.148437 0.779623 0.203870
O O17 0.030830 0.786687 0.390433
#
# Coordination Sequence:
#
# PCOD9456588 Si02
#       8
#     8   8   8   8   8   8   8   8
#     4  12  19  36  61  85 112 160 196 232 301 348
#     4   9  20  38  54  85 123 152 198 230 285 342
#     4   9  21  36  55  84 114 162 197 236 275 356
#     4  10  22  34  54  92 113 141 193 246 304 342
#     4  11  18  33  59  85 112 159 183 244 291 350
#     4  11  21  37  56  86 117 144 193 243 304 359
#     4   9  16  29  57  85 119 156 185 233 275 369
#     4   9  15  29  54  86 118 151 197 223 286 350
#
# _framework density 19.856666000000001
#
# number of rings (size 3 to 8) (size 9 to 14) (size 15 to 20)
#    0.000    2.000    5.000    2.250    0.000    1.000 
#    0.000    0.625    0.000    3.000    3.250    0.000 
#    0.000    0.000    0.000    0.000    0.000    0.000 
#
# Total GULP energy -357051.957450 kJ/mol
# GULP energy per Si atom -5578.936835 kJ/mol
# Density = 1.981147 g / cm^3
# Si number density = 19.856666 Si / 1000 Ang^3
#
#
#
# Elastic Constant Matrix: (Units=GPa)
#
#
# Indices 1 2 3 4 5 6 
#
# 1 79.7120 12.3642 33.6771 0.0000 0.0000 0.0000
# 2 12.3642 24.4335 20.4009 0.0000 0.0000 0.0000
# 3 33.6771 20.4009 50.0839 0.0000 0.0000 0.0000
# 4 0.0000 0.0000 0.0000 20.6485 0.0000 0.0000
# 5 0.0000 0.0000 0.0000 0.0000 38.2834 0.0000
# 6 0.0000 0.0000 0.0000 0.0000 0.0000 12.7110
#
#
#
# Elastic Compliance Matrix: (Units=1/GPa)
#
#
# Indices 1 2 3 4 5 6 
#
# 1 0.017558 0.001474 -0.012407 0.000000 0.000000 0.000000
# 2 0.001474 0.062145 -0.026305 0.000000 0.000000 0.000000
# 3 -0.012407 -0.026305 0.039024 0.000000 0.000000 0.000000
# 4 0.000000 0.000000 0.000000 0.048430 0.000000 0.000000
# 5 0.000000 0.000000 0.000000 0.000000 0.026121 0.000000
# 6 0.000000 0.000000 0.000000 0.000000 0.000000 0.078672
#
#
# Mechanical properties :
#
#
# Convention : Reuss Voigt Hill
#
# Bulk Modulus (GPa) = 22.59800 31.90154 27.24977
# Shear Modulus (GPa) = 13.84364 20.18104 17.01234
#
# Velocity S-wave (km/s) = 2.64328 3.19146 2.93022
# Velocity P-wave (km/s) = 4.55205 5.44806 5.02009
#
# Compressibility (1/GPa) = 0.04425171
#
# Stress axis : x y z
#
# Youngs Moduli (GPa) = 56.95342 16.09135 25.62522
#
# Poissons Ratio (x) = -0.02372 0.31793
# Poissons Ratio (y) = -0.08395 0.67407
# Poissons Ratio (z) = 0.70661 0.42329
#
# Static dielectric constant tensor:
#      x y z
#    x 1.702800 0.000000 0.000000 
#    y 0.000000 1.775130 0.000000 
#    z 0.000000 0.000000 1.713000 
# 
# From -- ./inp_files/11370.got.cif
#   From: 2010.05.17/outbox.cif.g08.bks.cpg/sg60_6_cif.got.tgz:11370.got - 2010.06.03 14:59:27.
