data_PCOD9456681
_publ_section_title
;
Structure prediction by ZEFSAII (Michael W. Deem and Ramdas Pophale) SiO2 
 PCOD9456681
Probable space group: P B C N
;
_chemical_formula_sum "Si O2"
_cell_formula_units_Z 48
_cell_length_a 27.226875
_cell_length_b 14.730268
_cell_length_c 4.930389
_cell_angle_alpha 90.000000
_cell_angle_beta 90.000000
_cell_angle_gamma 90.000000
_cell_volume 1977.377698
_symmetry_space_group_name_H-M "P B C N"
_symmetry_group_IT_number 60
_symmetry_cell_setting 'orthorhombic'
loop_
_space_group_symop_operation_xyz
x,y,z
1/2-x,1/2-y,1/2+z
1/2+x,1/2-y,-z
-x,y,1/2-z
-x,-y,-z
1/2+x,1/2+y,1/2-z
1/2-x,1/2+y,z
x,-y,1/2+z
loop_
_atom_site_type_symbol
_atom_site_label
_atom_site_fract_x
_atom_site_fract_y
_atom_site_fract_z
Si Si1 0.247558 0.456182 0.152720
Si Si2 0.031880 0.842234 0.507649
Si Si3 0.619843 0.440902 0.754061
Si Si4 0.631298 0.054108 0.726505
Si Si5 0.128170 0.748797 0.517572
Si Si6 0.270713 0.788239 0.764318
O O1 0.270993 0.469308 0.446799
O O2 0.190350 0.460477 0.249329
O O3 0.245941 0.374055 0.940256
O O4 0.062859 0.919639 0.665529
O O5 0.075266 0.776133 0.400214
O O6 0.000000 0.870352 0.250000
O O7 0.000000 0.798943 0.750000
O O8 0.629857 0.526652 0.950601
O O9 0.642704 0.341489 0.820042
O O10 0.612369 0.020200 0.440400
O O11 0.622427 0.158114 0.803973
O O12 0.171459 0.726723 0.306925
O O13 0.256919 0.786887 0.450467
#
# Coordination Sequence:
#
# PCOD9456681 Si02
#       6
#     8   8   8   8   8   8
#     4   9  17  33  54  79 105 137 193 246 278 331
#     4  10  22  38  63  91 122 161 207 254 306 361
#     4  10  22  38  60  90 124 165 204 246 308 364
#     4   9  18  33  59  85 107 147 194 240 294 346
#     4   9  24  41  61  89 127 154 200 262 301 358
#     4  11  23  39  60  85 116 160 200 239 305 367
#
# _framework density 24.274571000000002
#
# number of rings (size 3 to 8) (size 9 to 14) (size 15 to 20)
#    1.000    1.333    0.000    2.000    0.000   11.333 
#    0.000    5.000    0.000    3.000    0.000    0.000 
#    0.000    0.000    0.000    0.000    0.000    0.000 
#
# Total GULP energy -267619.103928 kJ/mol
# GULP energy per Si atom -5575.397998 kJ/mol
# Density = 2.421932 g / cm^3
# Si number density = 24.274571 Si / 1000 Ang^3
#
#
#
# Elastic Constant Matrix: (Units=GPa)
#
#
# Indices 1 2 3 4 5 6 
#
# 1 81.6281 14.0841 7.4608 0.0000 0.0000 0.0000
# 2 14.0841 103.0978 -14.7502 0.0000 0.0000 0.0000
# 3 7.4608 -14.7502 80.2386 0.0000 0.0000 0.0000
# 4 0.0000 0.0000 0.0000 0.1163 0.0000 0.0000
# 5 0.0000 0.0000 0.0000 0.0000 13.9267 0.0000
# 6 0.0000 0.0000 0.0000 0.0000 0.0000 20.1127
#
#
#
# Elastic Compliance Matrix: (Units=1/GPa)
#
#
# Indices 1 2 3 4 5 6 
#
# 1 0.012730 -0.001960 -0.001544 0.000000 0.000000 0.000000
# 2 -0.001960 0.010263 0.002069 0.000000 0.000000 0.000000
# 3 -0.001544 0.002069 0.012987 0.000000 0.000000 0.000000
# 4 0.000000 0.000000 0.000000 8.598535 0.000000 0.000000
# 5 0.000000 0.000000 0.000000 0.000000 0.071804 0.000000
# 6 0.000000 0.000000 0.000000 0.000000 0.000000 0.049720
#
#
# Mechanical properties :
#
#
# Convention : Reuss Voigt Hill
#
# Bulk Modulus (GPa) = 30.20231 30.95044 30.57638
# Shear Modulus (GPa) = 0.57013 24.04246 12.30630
#
# Velocity S-wave (km/s) = 0.48516 3.15054 2.25403
# Velocity P-wave (km/s) = 3.57530 5.10023 4.40427
#
# Compressibility (1/GPa) = 0.03311005
#
# Stress axis : x y z
#
# Youngs Moduli (GPa) = 78.55477 97.43484 77.00174
#
# Poissons Ratio (x) = 0.19096 0.11889
# Poissons Ratio (y) = 0.15396 -0.15931
# Poissons Ratio (z) = 0.12129 -0.20159
#
# Static dielectric constant tensor:
#      x y z
#    x 2.037820 0.000000 0.000000 
#    y 0.000000 2.289530 0.000000 
#    z 0.000000 0.000000 1.946700 
# 
# From -- ./inp_files/2683.got.cif
#   From: 2010.05.17/outbox.cif.g08.bks.cpg/sg60_2_cif.got.tgz:2683.got - 2010.06.03 14:59:27.
