data_PCOD9456711
_publ_section_title
;
Structure prediction by ZEFSAII (Michael W. Deem and Ramdas Pophale) SiO2 
 PCOD9456711
Probable space group: P B C N
;
_chemical_formula_sum "Si O2"
_cell_formula_units_Z 40
_cell_length_a 9.174274
_cell_length_b 22.378014
_cell_length_c 8.939579
_cell_angle_alpha 90.000000
_cell_angle_beta 90.000000
_cell_angle_gamma 90.000000
_cell_volume 1835.313734
_symmetry_space_group_name_H-M "P B C N"
_symmetry_group_IT_number 60
_symmetry_cell_setting 'orthorhombic'
loop_
_space_group_symop_operation_xyz
x,y,z
1/2-x,1/2-y,1/2+z
1/2+x,1/2-y,-z
-x,y,1/2-z
-x,-y,-z
1/2+x,1/2+y,1/2-z
1/2-x,1/2+y,z
x,-y,1/2+z
loop_
_atom_site_type_symbol
_atom_site_label
_atom_site_fract_x
_atom_site_fract_y
_atom_site_fract_z
Si Si1 0.337177 0.572482 0.475573
Si Si2 0.500000 0.515441 0.750000
Si Si3 0.373718 0.298447 0.858736
Si Si4 0.000000 0.486792 0.250000
Si Si5 0.516371 0.082566 0.476494
Si Si6 0.613830 0.788483 0.866753
O O1 0.401716 0.553480 0.635605
O O2 0.395524 0.525487 0.353296
O O3 0.401869 0.636650 0.428149
O O4 0.160526 0.576724 0.478285
O O5 0.500000 0.275102 0.750000
O O6 0.243146 0.305321 0.743126
O O7 0.345530 0.254105 0.996383
O O8 0.920835 0.534893 0.357050
O O9 0.075299 0.441688 0.365720
O O10 0.553036 0.149665 0.434016
O O11 0.500000 0.759495 0.750000
#
# Coordination Sequence:
#
# PCOD9456711 Si02
#       6
#     8   4   8   4   8   8
#     4  11  22  44  67 100 139 183 235 280 354 420
#     4  10  24  42  68 104 146 188 226 288 352 434
#     4  12  27  47  70 103 140 187 238 299 362 428
#     4  10  22  38  66 104 130 172 218 292 348 418
#     4  11  22  43  69 101 137 177 235 287 355 416
#     4  12  26  48  72 101 142 185 242 303 358 433
#
# _framework density 21.794639
#
# number of rings (size 3 to 8) (size 9 to 14) (size 15 to 20)
#    0.000    0.800    4.000    2.400    2.800    1.600 
#    3.600    0.000    0.000    0.000    0.000    0.000 
#    0.000    0.000    0.000    0.000    0.000    0.000 
#
# Total GULP energy -223494.962950 kJ/mol
# GULP energy per Si atom -5587.374074 kJ/mol
# Density = 2.174503 g / cm^3
# Si number density = 21.794639 Si / 1000 Ang^3
#
#
#
# Elastic Constant Matrix: (Units=GPa)
#
#
# Indices 1 2 3 4 5 6 
#
# 1 72.5637 21.7744 33.5464 0.0000 0.0000 0.0000
# 2 21.7744 117.3746 88.1894 0.0000 0.0000 0.0000
# 3 33.5464 88.1894 197.2711 0.0000 0.0000 0.0000
# 4 0.0000 0.0000 0.0000 -4.9024 0.0000 0.0000
# 5 0.0000 0.0000 0.0000 0.0000 32.5333 0.0000
# 6 0.0000 0.0000 0.0000 0.0000 0.0000 25.4893
#
#
#
# Elastic Compliance Matrix: (Units=1/GPa)
#
#
# Indices 1 2 3 4 5 6 
#
# 1 0.015090 -0.001312 -0.001980 0.000000 0.000000 0.000000
# 2 -0.001312 0.012943 -0.005563 0.000000 0.000000 0.000000
# 3 -0.001980 -0.005563 0.007893 0.000000 0.000000 0.000000
# 4 0.000000 0.000000 0.000000 -0.203982 0.000000 0.000000
# 5 0.000000 0.000000 0.000000 0.000000 0.030738 0.000000
# 6 0.000000 0.000000 0.000000 0.000000 0.000000 0.039232
#
#
# Mechanical properties :
#
#
# Convention : Reuss Voigt Hill
#
# Bulk Modulus (GPa) = 54.89567 74.91443 64.90505
# Shear Modulus (GPa) = -67.28973 26.87064 -20.20955
#
# Velocity S-wave (km/s) = -5.56251 3.51508 -3.04842
# Velocity P-wave (km/s) = 4.00161 7.13596 4.17786
#
# Compressibility (1/GPa) = 0.01821637
#
# Stress axis : x y z
#
# Youngs Moduli (GPa) = 66.26972 77.26274 126.69962
#
# Poissons Ratio (x) = 0.10137 0.25081
# Poissons Ratio (y) = 0.08695 0.70482
# Poissons Ratio (z) = 0.13118 0.42981
#
# Static dielectric constant tensor:
#      x y z
#    x -0.856390 0.000000 0.000000 
#    y 0.000000 1.750550 0.000000 
#    z 0.000000 0.000000 1.843390 
# 
# From -- ./inp_files/3911.got.cif
#   From: 2010.05.17/outbox.cif.g08.bks.cpg/sg60_2_cif.got.tgz:3911.got - 2010.06.03 14:59:27.
