data_PCOD9456062
_publ_section_title
;
Structure prediction by ZEFSAII (Michael W. Deem and Ramdas Pophale) SiO2 
 PCOD9456062
Probable space group: P B C N
;
_chemical_formula_sum "Si O2"
_cell_formula_units_Z 48
_cell_length_a 7.187751
_cell_length_b 23.580634
_cell_length_c 12.293532
_cell_angle_alpha 90.000000
_cell_angle_beta 90.000000
_cell_angle_gamma 90.000000
_cell_volume 2083.651953
_symmetry_space_group_name_H-M "P B C N"
_symmetry_group_IT_number 60
_symmetry_cell_setting 'orthorhombic'
loop_
_space_group_symop_operation_xyz
x,y,z
1/2-x,1/2-y,1/2+z
1/2+x,1/2-y,-z
-x,y,1/2-z
-x,-y,-z
1/2+x,1/2+y,1/2-z
1/2-x,1/2+y,z
x,-y,1/2+z
loop_
_atom_site_type_symbol
_atom_site_label
_atom_site_fract_x
_atom_site_fract_y
_atom_site_fract_z
Si Si1 0.173989 0.969811 0.437137
Si Si2 0.777853 0.369097 0.224043
Si Si3 0.868550 0.293412 0.032089
Si Si4 0.192020 0.611804 0.119466
Si Si5 0.737425 0.089528 0.145661
Si Si6 0.202852 0.169092 0.541103
O O1 0.183210 0.920481 0.343919
O O2 0.278447 0.939030 0.535468
O O3 0.267739 0.023380 0.379599
O O4 0.000000 0.000000 0.500000
O O5 0.779700 0.313007 0.146643
O O6 0.676910 0.354317 0.337303
O O7 0.000000 0.382776 0.250000
O O8 0.076790 0.317445 0.039182
O O9 0.763612 0.329300 0.939325
O O10 0.880934 0.228703 0.996425
O O11 0.297508 0.601337 0.231421
O O12 0.972238 0.612333 0.140760
O O13 0.844067 0.121902 0.049154
#
# Coordination Sequence:
#
# PCOD9456062 Si02
#       6
#     8   8   8   8   8   8
#     4  11  24  40  63  95 131 159 211 278 329 374
#     4   9  21  41  65  90 125 178 220 254 321 414
#     4   9  20  39  61  90 125 162 211 266 315 382
#     4   9  21  41  62  88 121 170 217 252 314 399
#     4  10  22  38  64  88 121 172 214 252 318 401
#     4  10  21  38  63  92 120 162 218 259 320 381
#
# _framework density 23.036479
#
# number of rings (size 3 to 8) (size 9 to 14) (size 15 to 20)
#    0.000    2.333    0.000    1.500    7.000    3.333 
#    0.000    1.667    0.000    0.000    0.000    0.000 
#    0.000    0.000    0.000    0.000    0.000    0.000 
#
# Total GULP energy -267888.054421 kJ/mol
# GULP energy per Si atom -5581.001134 kJ/mol
# Density = 2.298405 g / cm^3
# Si number density = 23.036479 Si / 1000 Ang^3
#
#
#
# Elastic Constant Matrix: (Units=GPa)
#
#
# Indices 1 2 3 4 5 6 
#
# 1 60.0052 15.0551 24.9325 0.0000 0.0000 0.0000
# 2 15.0551 140.5133 95.5687 0.0000 0.0000 0.0000
# 3 24.9325 95.5687 229.0340 0.0000 0.0000 0.0000
# 4 0.0000 0.0000 0.0000 18.3990 0.0000 0.0000
# 5 0.0000 0.0000 0.0000 0.0000 10.7230 0.0000
# 6 0.0000 0.0000 0.0000 0.0000 0.0000 -160.3343
#
#
#
# Elastic Compliance Matrix: (Units=1/GPa)
#
#
# Indices 1 2 3 4 5 6 
#
# 1 0.017520 -0.000810 -0.001569 0.000000 0.000000 0.000000
# 2 -0.000810 0.009974 -0.004074 0.000000 0.000000 0.000000
# 3 -0.001569 -0.004074 0.006237 0.000000 0.000000 0.000000
# 4 0.000000 0.000000 0.000000 0.054351 0.000000 0.000000
# 5 0.000000 0.000000 0.000000 0.000000 0.093257 0.000000
# 6 0.000000 0.000000 0.000000 0.000000 0.000000 -0.006237
#
#
# Mechanical properties :
#
#
# Convention : Reuss Voigt Hill
#
# Bulk Modulus (GPa) = 48.01765 77.85169 62.93467
# Shear Modulus (GPa) = 25.64753 -6.64271 9.50241
#
# Velocity S-wave (km/s) = 3.34030 -1.69995 2.03320
# Velocity P-wave (km/s) = 5.98049 5.47862 5.73504
#
# Compressibility (1/GPa) = 0.02082568
#
# Stress axis : x y z
#
# Youngs Moduli (GPa) = 57.07608 100.25785 160.33676
#
# Poissons Ratio (x) = 0.08119 0.25163
# Poissons Ratio (y) = 0.04622 0.65318
# Poissons Ratio (z) = 0.08957 0.40843
#
# Static dielectric constant tensor:
#      x y z
#    x 1.638130 0.000000 0.000000 
#    y 0.000000 1.832030 0.000000 
#    z 0.000000 0.000000 1.885500 
# 
# From -- ./inp_files/10125.got.cif
#   From: 2010.05.17/outbox.cif.g08.bks.cpg/sg60_6_cif.got.tgz:10125.got - 2010.06.03 14:59:27.
