data_PCOD9456223
_publ_section_title
;
Structure prediction by ZEFSAII (Michael W. Deem and Ramdas Pophale) SiO2 
 PCOD9456223
Probable space group: P B C N
;
_chemical_formula_sum "Si O2"
_cell_formula_units_Z 56
_cell_length_a 5.008458
_cell_length_b 23.718049
_cell_length_c 25.263699
_cell_angle_alpha 90.000000
_cell_angle_beta 90.000000
_cell_angle_gamma 90.000000
_cell_volume 3001.096335
_symmetry_space_group_name_H-M "P B C N"
_symmetry_group_IT_number 60
_symmetry_cell_setting 'orthorhombic'
loop_
_space_group_symop_operation_xyz
x,y,z
1/2-x,1/2-y,1/2+z
1/2+x,1/2-y,-z
-x,y,1/2-z
-x,-y,-z
1/2+x,1/2+y,1/2-z
1/2-x,1/2+y,z
x,-y,1/2+z
loop_
_atom_site_type_symbol
_atom_site_label
_atom_site_fract_x
_atom_site_fract_y
_atom_site_fract_z
Si Si1 0.649030 0.810472 0.541724
Si Si2 0.924020 0.582334 0.807107
Si Si3 0.022391 0.021665 0.440323
Si Si4 0.049973 0.586120 0.099646
Si Si5 0.736631 0.047437 0.286042
Si Si6 0.348823 0.318890 0.468781
Si Si7 0.952972 0.908958 0.122526
O O1 0.564892 0.851944 0.588737
O O2 0.624385 0.744417 0.554543
O O3 0.937913 0.821870 0.516581
O O4 0.442949 0.823390 0.494128
O O5 0.810099 0.519499 0.795190
O O6 0.688767 0.612182 0.839336
O O7 0.000000 0.607120 0.750000
O O8 0.187371 0.580021 0.843195
O O9 0.305055 0.045231 0.418455
O O10 0.798839 0.069590 0.436822
O O11 0.955586 0.968116 0.403372
O O12 0.000000 0.000000 0.500000
O O13 0.180488 0.575687 0.157214
O O14 0.500000 0.069447 0.250000
O O15 0.000000 0.054704 0.250000
O O16 0.397607 0.365607 0.424652
#
# Coordination Sequence:
#
# PCOD9456223 Si02
#       7
#     8   8   8   8   8   8   8
#     4  10  21  40  58  84 112 152 197 228 277 344
#     4  11  22  36  56  80 115 148 191 233 280 344
#     4  12  23  34  52  85 121 147 176 228 294 351
#     4  12  22  37  56  83 114 151 186 235 285 341
#     4  11  21  36  55  79 112 152 192 233 279 341
#     4  10  22  38  61  82 113 153 193 234 274 344
#     4  12  20  37  55  85 114 148 187 232 288 340
#
# _framework density 18.659849000000001
#
# number of rings (size 3 to 8) (size 9 to 14) (size 15 to 20)
#    0.000    0.857    2.857    6.857    0.000    0.000 
#    0.000    0.000    0.000    2.571    0.000    0.000 
#    0.000    0.000    0.000    0.000    0.000    0.000 
#
# Total GULP energy -312566.497902 kJ/mol
# GULP energy per Si atom -5581.544605 kJ/mol
# Density = 1.861738 g / cm^3
# Si number density = 18.659849 Si / 1000 Ang^3
#
#
#
# Elastic Constant Matrix: (Units=GPa)
#
#
# Indices 1 2 3 4 5 6 
#
# 1 79.7390 1.7157 12.6697 0.0000 0.0000 0.0000
# 2 1.7157 62.2527 17.5005 0.0000 0.0000 0.0000
# 3 12.6697 17.5005 72.8198 0.0000 0.0000 0.0000
# 4 0.0000 0.0000 0.0000 18.0722 0.0000 0.0000
# 5 0.0000 0.0000 0.0000 0.0000 34.7076 0.0000
# 6 0.0000 0.0000 0.0000 0.0000 0.0000 20.0808
#
#
#
# Elastic Compliance Matrix: (Units=1/GPa)
#
#
# Indices 1 2 3 4 5 6 
#
# 1 0.012903 0.000295 -0.002316 0.000000 0.000000 0.000000
# 2 0.000295 0.017234 -0.004193 0.000000 0.000000 0.000000
# 3 -0.002316 -0.004193 0.015143 0.000000 0.000000 0.000000
# 4 0.000000 0.000000 0.000000 0.055334 0.000000 0.000000
# 5 0.000000 0.000000 0.000000 0.000000 0.028812 0.000000
# 6 0.000000 0.000000 0.000000 0.000000 0.000000 0.049799
#
#
# Mechanical properties :
#
#
# Convention : Reuss Voigt Hill
#
# Bulk Modulus (GPa) = 30.43898 30.95371 30.69634
# Shear Modulus (GPa) = 24.67883 26.76716 25.72300
#
# Velocity S-wave (km/s) = 3.64065 3.79156 3.71687
# Velocity P-wave (km/s) = 5.83270 5.98267 5.90816
#
# Compressibility (1/GPa) = 0.03285261
#
# Stress axis : x y z
#
# Youngs Moduli (GPa) = 77.50425 58.02408 66.03627
#
# Poissons Ratio (x) = -0.01714 0.15293
# Poissons Ratio (y) = -0.02290 0.27691
# Poissons Ratio (z) = 0.17949 0.24331
#
# Static dielectric constant tensor:
#      x y z
#    x 1.653840 0.000000 0.000000 
#    y 0.000000 1.647130 0.000000 
#    z 0.000000 0.000000 1.588540 
# 
# From -- ./inp_files/21722.got.cif
#   From: 2010.05.17/outbox.cif.g08.bks.cpg/sg60_11_cif.got.tgz:21722.got - 2010.06.03 14:59:27.
