data_PCOD9456265
_publ_section_title
;
Structure prediction by ZEFSAII (Michael W. Deem and Ramdas Pophale) SiO2 
 PCOD9456265
Probable space group: P B C N
;
_chemical_formula_sum "Si O2"
_cell_formula_units_Z 52
_cell_length_a 13.310723
_cell_length_b 9.306896
_cell_length_c 17.236312
_cell_angle_alpha 90.000000
_cell_angle_beta 90.000000
_cell_angle_gamma 90.000000
_cell_volume 2135.260437
_symmetry_space_group_name_H-M "P B C N"
_symmetry_group_IT_number 60
_symmetry_cell_setting 'orthorhombic'
loop_
_space_group_symop_operation_xyz
x,y,z
1/2-x,1/2-y,1/2+z
1/2+x,1/2-y,-z
-x,y,1/2-z
-x,-y,-z
1/2+x,1/2+y,1/2-z
1/2-x,1/2+y,z
x,-y,1/2+z
loop_
_atom_site_type_symbol
_atom_site_label
_atom_site_fract_x
_atom_site_fract_y
_atom_site_fract_z
Si Si1 0.500000 0.384922 0.250000
Si Si2 0.054303 0.560172 0.881429
Si Si3 0.968495 0.872350 0.623402
Si Si4 0.217332 0.155354 0.739612
Si Si5 0.257512 0.599609 0.342255
Si Si6 0.868595 0.545058 0.453983
Si Si7 0.820778 0.761921 0.915930
O O1 0.512835 0.492864 0.178309
O O2 0.398848 0.300473 0.229957
O O3 0.040478 0.711970 0.838478
O O4 0.149751 0.465077 0.861766
O O5 0.951335 0.470848 0.885843
O O6 0.074878 0.606447 0.970964
O O7 0.852367 0.907471 0.599180
O O8 0.074255 0.849235 0.579235
O O9 0.247130 0.235787 0.818394
O O10 0.288814 0.197589 0.668884
O O11 0.216243 0.987197 0.762097
O O12 0.772025 0.638987 0.437721
O O13 0.834332 0.380334 0.467560
#
# Coordination Sequence:
#
# PCOD9456265 Si02
#       7
#     4   8   8   8   8   8   8
#     4  10  22  38  60  96 130 158 204 266 314 396
#     4  10  23  43  65  93 124 174 217 264 321 383
#     4  10  21  40  64  87 129 161 207 258 325 365
#     4  11  23  38  63  96 128 164 212 255 329 380
#     4  11  22  40  63  94 127 169 207 269 314 390
#     4  10  24  42  67  90 129 166 225 259 318 388
#     4  11  22  42  63  93 125 172 202 271 313 385
#
# _framework density 24.353002
#
# number of rings (size 3 to 8) (size 9 to 14) (size 15 to 20)
#    0.000    1.538    1.538    3.692    4.308    0.000 
#    0.000    0.769    0.000    0.000    0.000    0.000 
#    0.000    0.000    0.000    0.000    0.000    0.000 
#
# Total GULP energy -289920.001124 kJ/mol
# GULP energy per Si atom -5575.384637 kJ/mol
# Density = 2.429757 g / cm^3
# Si number density = 24.353002 Si / 1000 Ang^3
#
#
#
# Elastic Constant Matrix: (Units=GPa)
#
#
# Indices 1 2 3 4 5 6 
#
# 1 197.6686 30.7584 9.6766 0.0000 0.0000 0.0000
# 2 30.7584 52.1094 -2.1493 0.0000 0.0000 0.0000
# 3 9.6766 -2.1493 6.9861 0.0000 0.0000 0.0000
# 4 0.0000 0.0000 0.0000 20.3743 0.0000 0.0000
# 5 0.0000 0.0000 0.0000 0.0000 32.0878 0.0000
# 6 0.0000 0.0000 0.0000 0.0000 0.0000 54.9369
#
#
#
# Elastic Compliance Matrix: (Units=1/GPa)
#
#
# Indices 1 2 3 4 5 6 
#
# 1 0.006167 -0.004044 -0.009787 0.000000 0.000000 0.000000
# 2 -0.004044 0.022089 0.012397 0.000000 0.000000 0.000000
# 3 -0.009787 0.012397 0.160511 0.000000 0.000000 0.000000
# 4 0.000000 0.000000 0.000000 0.049081 0.000000 0.000000
# 5 0.000000 0.000000 0.000000 0.000000 0.031165 0.000000
# 6 0.000000 0.000000 0.000000 0.000000 0.000000 0.018203
#
#
# Mechanical properties :
#
#
# Convention : Reuss Voigt Hill
#
# Bulk Modulus (GPa) = 5.37922 37.03729 21.20825
# Shear Modulus (GPa) = 14.20252 36.04502 25.12377
#
# Velocity S-wave (km/s) = 2.41756 3.85139 3.21541
# Velocity P-wave (km/s) = 3.16330 5.91769 4.74476
#
# Compressibility (1/GPa) = 0.18590060
#
# Stress axis : x y z
#
# Youngs Moduli (GPa) = 162.14423 45.27179 6.23008
#
# Poissons Ratio (x) = 0.18308 0.06097
# Poissons Ratio (y) = 0.65572 -0.07724
# Poissons Ratio (z) = 1.58686 -0.56125
#
# Static dielectric constant tensor:
#      x y z
#    x 2.005850 0.000000 0.000000 
#    y 0.000000 1.889890 0.000000 
#    z 0.000000 0.000000 0.596520 
# 
# From -- ./inp_files/22854.got.cif
#   From: 2010.05.17/outbox.cif.g08.bks.cpg/sg60_12_cif.got.tgz:22854.got - 2010.06.03 14:59:27.
