data_PCOD9456813
_publ_section_title
;
Structure prediction by ZEFSAII (Michael W. Deem and Ramdas Pophale) SiO2 
 PCOD9456813
Probable space group: P B C N
;
_chemical_formula_sum "Si O2"
_cell_formula_units_Z 40
_cell_length_a 23.608323
_cell_length_b 8.208414
_cell_length_c 9.662867
_cell_angle_alpha 90.000000
_cell_angle_beta 90.000000
_cell_angle_gamma 90.000000
_cell_volume 1872.536935
_symmetry_space_group_name_H-M "P B C N"
_symmetry_group_IT_number 60
_symmetry_cell_setting 'orthorhombic'
loop_
_space_group_symop_operation_xyz
x,y,z
1/2-x,1/2-y,1/2+z
1/2+x,1/2-y,-z
-x,y,1/2-z
-x,-y,-z
1/2+x,1/2+y,1/2-z
1/2-x,1/2+y,z
x,-y,1/2+z
loop_
_atom_site_type_symbol
_atom_site_label
_atom_site_fract_x
_atom_site_fract_y
_atom_site_fract_z
Si Si1 0.295959 0.525952 0.044526
Si Si2 0.458572 0.466746 0.374896
Si Si3 0.832280 0.492934 0.355050
Si Si4 0.351747 0.339666 0.807685
Si Si5 0.362422 0.201036 0.397097
O O1 0.231925 0.517724 0.094993
O O2 0.333796 0.538867 0.182651
O O3 0.315216 0.381263 0.943437
O O4 0.310714 0.687972 0.955242
O O5 0.500000 0.428757 0.250000
O O6 0.500000 0.500000 0.500000
O O7 0.416726 0.618536 0.341917
O O8 0.416265 0.318060 0.405237
O O9 0.838120 0.335509 0.255125
O O10 0.866909 0.447060 0.493237
O O11 0.851823 0.639468 0.257456
#
# Coordination Sequence:
#
# PCOD9456813 Si02
#       5
#     8   8   8   8   8
#     4  10  22  40  61  91 132 172 202 245 316 391
#     4  11  23  46  70  89 122 171 221 273 324 378
#     4  11  23  41  63  95 135 166 205 266 318 381
#     4  10  23  41  64  96 125 167 219 256 308 386
#     4  10  25  42  63  97 127 168 216 258 318 390
#
# _framework density 21.361394000000001
#
# number of rings (size 3 to 8) (size 9 to 14) (size 15 to 20)
#    0.000    1.600    0.000    4.800    0.000   22.400 
#    0.000    5.000    0.000    0.000    0.000    0.000 
#    0.000    0.000    0.000    0.000    0.000    0.000 
#
# Total GULP energy -223743.849272 kJ/mol
# GULP energy per Si atom -5593.596232 kJ/mol
# Density = 2.131277 g / cm^3
# Si number density = 21.361394 Si / 1000 Ang^3
#
#
#
# Elastic Constant Matrix: (Units=GPa)
#
#
# Indices 1 2 3 4 5 6 
#
# 1 140.6658 53.8772 61.4954 0.0000 0.0000 0.0000
# 2 53.8772 68.1724 37.8955 0.0000 0.0000 0.0000
# 3 61.4954 37.8955 125.3534 0.0000 0.0000 0.0000
# 4 0.0000 0.0000 0.0000 50.8421 0.0000 0.0000
# 5 0.0000 0.0000 0.0000 0.0000 52.2061 0.0000
# 6 0.0000 0.0000 0.0000 0.0000 0.0000 12.2563
#
#
#
# Elastic Compliance Matrix: (Units=1/GPa)
#
#
# Indices 1 2 3 4 5 6 
#
# 1 0.011294 -0.007027 -0.003416 0.000000 0.000000 0.000000
# 2 -0.007027 0.022003 -0.003205 0.000000 0.000000 0.000000
# 3 -0.003416 -0.003205 0.010622 0.000000 0.000000 0.000000
# 4 0.000000 0.000000 0.000000 0.019669 0.000000 0.000000
# 5 0.000000 0.000000 0.000000 0.000000 0.019155 0.000000
# 6 0.000000 0.000000 0.000000 0.000000 0.000000 0.081591
#
#
# Mechanical properties :
#
#
# Convention : Reuss Voigt Hill
#
# Bulk Modulus (GPa) = 60.15345 71.19200 65.67273
# Shear Modulus (GPa) = 25.35882 35.12248 30.24065
#
# Velocity S-wave (km/s) = 3.44922 4.05928 3.76662
# Velocity P-wave (km/s) = 6.63957 7.44111 7.05173
#
# Compressibility (1/GPa) = 0.01662415
#
# Stress axis : x y z
#
# Youngs Moduli (GPa) = 88.54368 45.44776 94.14223
#
# Poissons Ratio (x) = 0.31934 0.32162
# Poissons Ratio (y) = 0.62216 0.30170
# Poissons Ratio (z) = 0.30249 0.14565
#
# Static dielectric constant tensor:
#      x y z
#    x 1.724360 0.000000 0.000000 
#    y 0.000000 1.872350 0.000000 
#    z 0.000000 0.000000 1.800980 
# 
# From -- ./inp_files/7720.got.cif
#   From: 2010.05.17/outbox.cif.g08.bks.cpg/sg60_4_cif.got.tgz:7720.got - 2010.06.03 14:59:27.
