data_PCOD9456697
_publ_section_title
;
Structure prediction by ZEFSAII (Michael W. Deem and Ramdas Pophale) SiO2 
 PCOD9456697
Probable space group: P B C N
;
_chemical_formula_sum "Si O2"
_cell_formula_units_Z 48
_cell_length_a 27.691705
_cell_length_b 5.154876
_cell_length_c 15.942156
_cell_angle_alpha 90.000000
_cell_angle_beta 90.000000
_cell_angle_gamma 90.000000
_cell_volume 2275.699813
_symmetry_space_group_name_H-M "P B C N"
_symmetry_group_IT_number 60
_symmetry_cell_setting 'orthorhombic'
loop_
_space_group_symop_operation_xyz
x,y,z
1/2-x,1/2-y,1/2+z
1/2+x,1/2-y,-z
-x,y,1/2-z
-x,-y,-z
1/2+x,1/2+y,1/2-z
1/2-x,1/2+y,z
x,-y,1/2+z
loop_
_atom_site_type_symbol
_atom_site_label
_atom_site_fract_x
_atom_site_fract_y
_atom_site_fract_z
Si Si1 0.863824 0.347451 0.916300
Si Si2 0.357831 0.755240 0.936146
Si Si3 0.945403 0.982996 0.967964
Si Si4 0.053213 0.877389 0.721968
Si Si5 0.109976 0.601039 0.262027
Si Si6 0.216129 0.969422 0.021863
O O1 0.862876 0.467551 0.824259
O O2 0.828060 0.098842 0.915212
O O3 0.917287 0.248533 0.942871
O O4 0.847484 0.540680 0.989424
O O5 0.360024 0.888671 0.846665
O O6 0.410289 0.641252 0.962074
O O7 0.316729 0.534003 0.939984
O O8 0.945554 0.835993 0.878518
O O9 0.000000 0.000000 0.000000
O O10 0.068702 0.615554 0.768553
O O11 0.000000 0.954463 0.750000
O O12 0.088393 0.112975 0.746103
O O13 0.250270 0.720262 0.029107
#
# Coordination Sequence:
#
# PCOD9456697 Si02
#       6
#     8   8   8   8   8   8
#     4  10  23  44  65  98 130 180 218 274 341 395
#     4  11  23  42  69  96 133 180 223 276 340 397
#     4  10  22  38  63  95 134 180 232 274 328 400
#     4  11  23  40  58  93 132 179 230 283 328 390
#     4  11  25  41  63  92 137 173 223 279 332 399
#     4  11  23  43  74  97 128 165 213 275 337 402
#
# _framework density 21.092413000000001
#
# number of rings (size 3 to 8) (size 9 to 14) (size 15 to 20)
#    0.000    1.333    3.333    1.500    7.000    2.000 
#    0.000    1.667    0.000    0.000    0.000    0.000 
#    0.000    0.000    0.000    0.000    0.000    0.000 
#
# Total GULP energy -267714.287371 kJ/mol
# GULP energy per Si atom -5577.380987 kJ/mol
# Density = 2.104441 g / cm^3
# Si number density = 21.092413 Si / 1000 Ang^3
#
#
#
# Elastic Constant Matrix: (Units=GPa)
#
#
# Indices 1 2 3 4 5 6 
#
# 1 87.2234 27.7100 9.2842 0.0000 0.0000 0.0000
# 2 27.7100 89.5169 22.5593 0.0000 0.0000 0.0000
# 3 9.2842 22.5593 111.3732 0.0000 0.0000 0.0000
# 4 0.0000 0.0000 0.0000 11.0952 0.0000 0.0000
# 5 0.0000 0.0000 0.0000 0.0000 8.9753 0.0000
# 6 0.0000 0.0000 0.0000 0.0000 0.0000 28.3905
#
#
#
# Elastic Compliance Matrix: (Units=1/GPa)
#
#
# Indices 1 2 3 4 5 6 
#
# 1 0.012723 -0.003869 -0.000277 0.000000 0.000000 0.000000
# 2 -0.003869 0.012948 -0.002300 0.000000 0.000000 0.000000
# 3 -0.000277 -0.002300 0.009468 0.000000 0.000000 0.000000
# 4 0.000000 0.000000 0.000000 0.090129 0.000000 0.000000
# 5 0.000000 0.000000 0.000000 0.000000 0.111417 0.000000
# 6 0.000000 0.000000 0.000000 0.000000 0.000000 0.035223
#
#
# Mechanical properties :
#
#
# Convention : Reuss Voigt Hill
#
# Bulk Modulus (GPa) = 44.94873 45.24672 45.09772
# Shear Modulus (GPa) = 17.11058 24.92953 21.02005
#
# Velocity S-wave (km/s) = 2.85128 3.44163 3.16027
# Velocity P-wave (km/s) = 5.67419 6.10667 5.89439
#
# Compressibility (1/GPa) = 0.02224757
#
# Stress axis : x y z
#
# Youngs Moduli (GPa) = 78.59565 77.23000 105.62062
#
# Poissons Ratio (x) = 0.29878 0.02926
# Poissons Ratio (y) = 0.30406 0.24296
# Poissons Ratio (z) = 0.02177 0.17765
#
# Static dielectric constant tensor:
#      x y z
#    x 1.768730 0.000000 0.000000 
#    y 0.000000 1.864760 0.000000 
#    z 0.000000 0.000000 1.775240 
# 
# From -- ./inp_files/18065.got.cif
#   From: 2010.05.17/outbox.cif.g08.bks.cpg/sg60_10_cif.got.tgz:18065.got - 2010.06.03 14:59:27.
