data_PCOD9456749
_publ_section_title
;
Structure prediction by ZEFSAII (Michael W. Deem and Ramdas Pophale) SiO2 
 PCOD9456749
Probable space group: P B C N
;
_chemical_formula_sum "Si O2"
_cell_formula_units_Z 56
_cell_length_a 5.186625
_cell_length_b 14.088410
_cell_length_c 32.258227
_cell_angle_alpha 90.000000
_cell_angle_beta 90.000000
_cell_angle_gamma 90.000000
_cell_volume 2357.150567
_symmetry_space_group_name_H-M "P B C N"
_symmetry_group_IT_number 60
_symmetry_cell_setting 'orthorhombic'
loop_
_space_group_symop_operation_xyz
x,y,z
1/2-x,1/2-y,1/2+z
1/2+x,1/2-y,-z
-x,y,1/2-z
-x,-y,-z
1/2+x,1/2+y,1/2-z
1/2-x,1/2+y,z
x,-y,1/2+z
loop_
_atom_site_type_symbol
_atom_site_label
_atom_site_fract_x
_atom_site_fract_y
_atom_site_fract_z
Si Si1 0.728908 0.061638 0.347455
Si Si2 0.117287 0.856939 0.155049
Si Si3 0.753376 0.705287 0.276827
Si Si4 0.764322 0.988504 0.620820
Si Si5 0.631463 0.149358 0.012070
Si Si6 0.298499 0.538732 0.965392
Si Si7 0.877339 0.789804 0.433875
O O1 0.704969 0.948959 0.338979
O O2 0.436139 0.083932 0.358701
O O3 0.956326 0.063965 0.381719
O O4 0.819539 0.120938 0.308362
O O5 0.142612 0.791420 0.194726
O O6 0.849466 0.913946 0.144820
O O7 0.192427 0.795797 0.114078
O O8 0.500000 0.729392 0.250000
O O9 0.000000 0.674385 0.250000
O O10 0.637000 0.014948 0.576966
O O11 0.583074 0.210433 0.052933
O O12 0.849614 0.068330 0.018812
O O13 0.380874 0.091006 0.998173
O O14 0.676182 0.216556 0.972004
O O15 0.503842 0.606820 0.943730
#
# Coordination Sequence:
#
# PCOD9456749 Si02
#       7
#     8   8   8   8   8   8   8
#     4  10  22  45  70  99 136 176 222 278 351 408
#     4   9  25  44  72  99 140 182 233 281 353 413
#     4  12  28  47  74 110 140 170 229 288 359 442
#     4   9  21  43  69  99 133 185 230 277 336 414
#     4  11  22  37  63  93 139 180 233 288 334 385
#     4  10  22  39  60  92 135 182 235 280 339 387
#     4  11  21  43  59 101 130 186 231 282 334 413
#
# _framework density 23.757497999999998
#
# number of rings (size 3 to 8) (size 9 to 14) (size 15 to 20)
#    0.857    0.857    1.429    2.143    4.000    1.143 
#    2.571    0.000    0.000    0.000    0.000    0.000 
#    0.000    0.000    0.000    0.000    0.000    0.000 
#
# Total GULP energy -311952.632931 kJ/mol
# GULP energy per Si atom -5570.582731 kJ/mol
# Density = 2.370342 g / cm^3
# Si number density = 23.757498 Si / 1000 Ang^3
#
#
#
# Elastic Constant Matrix: (Units=GPa)
#
#
# Indices 1 2 3 4 5 6 
#
# 1 78.6253 9.2561 7.8499 0.0000 0.0000 0.0000
# 2 9.2561 56.7164 16.1705 0.0000 0.0000 0.0000
# 3 7.8499 16.1705 83.5092 0.0000 0.0000 0.0000
# 4 0.0000 0.0000 0.0000 36.5619 0.0000 0.0000
# 5 0.0000 0.0000 0.0000 0.0000 18.9254 0.0000
# 6 0.0000 0.0000 0.0000 0.0000 0.0000 6.4817
#
#
#
# Elastic Compliance Matrix: (Units=1/GPa)
#
#
# Indices 1 2 3 4 5 6 
#
# 1 0.013026 -0.001881 -0.000860 0.000000 0.000000 0.000000
# 2 -0.001881 0.018933 -0.003489 0.000000 0.000000 0.000000
# 3 -0.000860 -0.003489 0.012731 0.000000 0.000000 0.000000
# 4 0.000000 0.000000 0.000000 0.027351 0.000000 0.000000
# 5 0.000000 0.000000 0.000000 0.000000 0.052839 0.000000
# 6 0.000000 0.000000 0.000000 0.000000 0.000000 0.154280
#
#
# Mechanical properties :
#
#
# Convention : Reuss Voigt Hill
#
# Bulk Modulus (GPa) = 31.02704 31.71154 31.36929
# Shear Modulus (GPa) = 16.53634 24.76543 20.65088
#
# Velocity S-wave (km/s) = 2.64113 3.23216 2.95148
# Velocity P-wave (km/s) = 4.73170 5.22553 4.98474
#
# Compressibility (1/GPa) = 0.03222996
#
# Stress axis : x y z
#
# Youngs Moduli (GPa) = 76.77050 52.81686 78.54667
#
# Poissons Ratio (x) = 0.09932 0.06757
# Poissons Ratio (y) = 0.14437 0.27408
# Poissons Ratio (z) = 0.06605 0.18430
#
# Static dielectric constant tensor:
#      x y z
#    x 2.144170 0.000000 0.000000 
#    y 0.000000 1.946920 0.000000 
#    z 0.000000 0.000000 2.000760 
# 
# From -- ./inp_files/25698.got.cif
#   From: 2010.05.17/outbox.cif.g08.bks.cpg/sg60_13_cif.got.tgz:25698.got - 2010.06.03 14:59:27.
