data_PCOD9456608
_publ_section_title
;
Structure prediction by ZEFSAII (Michael W. Deem and Ramdas Pophale) SiO2 
 PCOD9456608
Probable space group: P B C N
;
_chemical_formula_sum "Si O2"
_cell_formula_units_Z 60
_cell_length_a 16.008851
_cell_length_b 8.976861
_cell_length_c 20.839805
_cell_angle_alpha 90.000000
_cell_angle_beta 90.000000
_cell_angle_gamma 90.000000
_cell_volume 2994.872334
_symmetry_space_group_name_H-M "P B C N"
_symmetry_group_IT_number 60
_symmetry_cell_setting 'orthorhombic'
loop_
_space_group_symop_operation_xyz
x,y,z
1/2-x,1/2-y,1/2+z
1/2+x,1/2-y,-z
-x,y,1/2-z
-x,-y,-z
1/2+x,1/2+y,1/2-z
1/2-x,1/2+y,z
x,-y,1/2+z
loop_
_atom_site_type_symbol
_atom_site_label
_atom_site_fract_x
_atom_site_fract_y
_atom_site_fract_z
Si Si1 0.518087 0.901840 0.678703
Si Si2 0.049939 0.569530 0.559307
Si Si3 0.500000 0.609497 0.750000
Si Si4 0.283493 0.793034 0.006724
Si Si5 0.852864 0.983534 0.692946
Si Si6 0.199367 0.311768 0.853881
Si Si7 0.018984 0.103440 0.412676
Si Si8 0.134322 0.023288 0.532771
O O1 0.500000 0.968071 0.750000
O O2 0.503023 0.725828 0.690618
O O3 0.615397 0.907847 0.658685
O O4 0.462279 0.969762 0.622591
O O5 0.143638 0.603640 0.536251
O O6 0.000000 0.500000 0.500000
O O7 0.008187 0.728474 0.574363
O O8 0.412062 0.523357 0.746996
O O9 0.278506 0.818325 0.929614
O O10 0.310565 0.624222 0.020658
O O11 0.196096 0.838549 0.038229
O O12 0.773838 0.875184 0.690173
O O13 0.923998 0.911635 0.648610
O O14 0.819968 0.140761 0.664425
O O15 0.933661 0.009115 0.412903
O O16 0.077900 0.046594 0.469871
#
# Coordination Sequence:
#
# PCOD9456608 Si02
#       8
#     8   8   4   8   8   8   8   8
#     4   9  21  42  63  88 133 176 221 272 347 405
#     4  11  23  36  64 100 129 177 225 285 344 404
#     4   8  22  44  66  88 126 188 214 282 342 418
#     4  11  20  36  56  95 129 164 224 270 336 381
#     4  11  22  41  67  97 127 173 232 271 345 394
#     4  11  20  35  66  95 120 163 223 285 318 407
#     4  10  22  37  60  92 137 172 209 276 349 395
#     4  10  22  36  56  90 134 174 203 268 338 404
#
# _framework density 20.034243
#
# number of rings (size 3 to 8) (size 9 to 14) (size 15 to 20)
#    0.400    1.333    4.000    0.000    3.733    0.000 
#    1.200    1.333    2.933    0.000    0.000    0.000 
#    0.000    0.000    0.000    0.000    0.000    0.000 
#
# Total GULP energy -334579.335955 kJ/mol
# GULP energy per Si atom -5576.322266 kJ/mol
# Density = 1.998864 g / cm^3
# Si number density = 20.034243 Si / 1000 Ang^3
#
#
#
# Elastic Constant Matrix: (Units=GPa)
#
#
# Indices 1 2 3 4 5 6 
#
# 1 115.9896 43.2339 12.9937 0.0000 0.0000 0.0000
# 2 43.2339 53.1343 15.3185 0.0000 0.0000 0.0000
# 3 12.9937 15.3185 60.8475 0.0000 0.0000 0.0000
# 4 0.0000 0.0000 0.0000 16.9685 0.0000 0.0000
# 5 0.0000 0.0000 0.0000 0.0000 21.5785 0.0000
# 6 0.0000 0.0000 0.0000 0.0000 0.0000 40.4673
#
#
#
# Elastic Compliance Matrix: (Units=1/GPa)
#
#
# Indices 1 2 3 4 5 6 
#
# 1 0.012375 -0.010036 -0.000116 0.000000 0.000000 0.000000
# 2 -0.010036 0.028432 -0.005015 0.000000 0.000000 0.000000
# 3 -0.000116 -0.005015 0.017722 0.000000 0.000000 0.000000
# 4 0.000000 0.000000 0.000000 0.058933 0.000000 0.000000
# 5 0.000000 0.000000 0.000000 0.000000 0.046342 0.000000
# 6 0.000000 0.000000 0.000000 0.000000 0.000000 0.024711
#
#
# Mechanical properties :
#
#
# Convention : Reuss Voigt Hill
#
# Bulk Modulus (GPa) = 35.46661 41.45150 38.45905
# Shear Modulus (GPa) = 21.90606 26.36454 24.13530
#
# Velocity S-wave (km/s) = 3.31029 3.63157 3.47465
# Velocity P-wave (km/s) = 5.68790 6.19029 5.94440
#
# Compressibility (1/GPa) = 0.02819554
#
# Stress axis : x y z
#
# Youngs Moduli (GPa) = 80.80631 35.17170 56.42774
#
# Poissons Ratio (x) = 0.35298 0.00655
# Poissons Ratio (y) = 0.81097 0.28297
# Poissons Ratio (z) = 0.00938 0.17637
#
# Static dielectric constant tensor:
#      x y z
#    x 1.704080 0.000000 0.000000 
#    y 0.000000 1.723480 0.000000 
#    z 0.000000 0.000000 1.708950 
# 
# From -- ./inp_files/24402.got.cif
#   From: 2010.05.17/outbox.cif.g08.bks.cpg/sg60_13_cif.got.tgz:24402.got - 2010.06.03 14:59:27.
