data_PCOD9456828
_publ_section_title
;
Structure prediction by ZEFSAII (Michael W. Deem and Ramdas Pophale) SiO2 
 PCOD9456828
Probable space group: P B C N
;
_chemical_formula_sum "Si O2"
_cell_formula_units_Z 48
_cell_length_a 13.754922
_cell_length_b 16.574622
_cell_length_c 8.534563
_cell_angle_alpha 90.000000
_cell_angle_beta 90.000000
_cell_angle_gamma 90.000000
_cell_volume 1945.732142
_symmetry_space_group_name_H-M "P B C N"
_symmetry_group_IT_number 60
_symmetry_cell_setting 'orthorhombic'
loop_
_space_group_symop_operation_xyz
x,y,z
1/2-x,1/2-y,1/2+z
1/2+x,1/2-y,-z
-x,y,1/2-z
-x,-y,-z
1/2+x,1/2+y,1/2-z
1/2-x,1/2+y,z
x,-y,1/2+z
loop_
_atom_site_type_symbol
_atom_site_label
_atom_site_fract_x
_atom_site_fract_y
_atom_site_fract_z
Si Si1 0.584619 0.372307 0.850083
Si Si2 0.961447 0.767403 0.418018
Si Si3 0.580406 0.118322 0.050928
Si Si4 0.276699 0.281293 0.898514
Si Si5 0.739776 0.592376 0.584696
Si Si6 0.851332 0.497380 0.817363
O O1 0.500000 0.416251 0.750000
O O2 0.666589 0.328805 0.741194
O O3 0.522752 0.304474 0.940207
O O4 0.639364 0.417493 0.990353
O O5 0.986673 0.673113 0.428085
O O6 0.000000 0.796331 0.250000
O O7 0.849883 0.785623 0.453468
O O8 0.674710 0.176055 0.068549
O O9 0.595449 0.052868 0.185245
O O10 0.587048 0.070485 0.889152
O O11 0.258292 0.186050 0.874793
O O12 0.756259 0.537150 0.735768
O O13 0.817268 0.559474 0.458185
#
# Coordination Sequence:
#
# PCOD9456828 Si02
#       6
#     8   8   8   8   8   8
#     4  10  22  40  62  95 130 164 224 289 335 392
#     4  11  24  38  66 104 128 169 232 284 335 397
#     4  11  22  45  66 103 139 177 233 279 347 413
#     4  11  23  40  73  94 133 177 234 287 333 398
#     4  11  21  41  64  93 128 178 221 273 342 400
#     4  10  24  38  67  96 138 183 212 279 355 416
#
# _framework density 24.669377999999998
#
# number of rings (size 3 to 8) (size 9 to 14) (size 15 to 20)
#    0.000    1.333    3.333    2.000    2.333    0.000 
#    0.000   10.000    0.000    0.000    0.000    0.000 
#    0.000    0.000    0.000    0.000    0.000    0.000 
#
# Total GULP energy -268813.493543 kJ/mol
# GULP energy per Si atom -5600.281115 kJ/mol
# Density = 2.461323 g / cm^3
# Si number density = 24.669378 Si / 1000 Ang^3
#
#
#
# Elastic Constant Matrix: (Units=GPa)
#
#
# Indices 1 2 3 4 5 6 
#
# 1 104.5455 29.9694 24.7234 0.0000 0.0000 0.0000
# 2 29.9694 71.6920 36.3770 0.0000 0.0000 0.0000
# 3 24.7234 36.3770 90.8107 0.0000 0.0000 0.0000
# 4 0.0000 0.0000 0.0000 30.0258 0.0000 0.0000
# 5 0.0000 0.0000 0.0000 0.0000 36.1966 0.0000
# 6 0.0000 0.0000 0.0000 0.0000 0.0000 18.9361
#
#
#
# Elastic Compliance Matrix: (Units=1/GPa)
#
#
# Indices 1 2 3 4 5 6 
#
# 1 0.011017 -0.003870 -0.001449 0.000000 0.000000 0.000000
# 2 -0.003870 0.018867 -0.006504 0.000000 0.000000 0.000000
# 3 -0.001449 -0.006504 0.014012 0.000000 0.000000 0.000000
# 4 0.000000 0.000000 0.000000 0.033305 0.000000 0.000000
# 5 0.000000 0.000000 0.000000 0.000000 0.027627 0.000000
# 6 0.000000 0.000000 0.000000 0.000000 0.000000 0.052809
#
#
# Mechanical properties :
#
#
# Convention : Reuss Voigt Hill
#
# Bulk Modulus (GPa) = 49.38489 49.90973 49.64731
# Shear Modulus (GPa) = 26.59110 28.76359 27.67735
#
# Velocity S-wave (km/s) = 3.28670 3.41833 3.35316
# Velocity P-wave (km/s) = 5.87072 5.98793 5.92961
#
# Compressibility (1/GPa) = 0.02024911
#
# Stress axis : x y z
#
# Youngs Moduli (GPa) = 90.76561 53.00381 71.36851
#
# Poissons Ratio (x) = 0.20514 0.10342
# Poissons Ratio (y) = 0.35129 0.46417
# Poissons Ratio (z) = 0.13153 0.34473
#
# Static dielectric constant tensor:
#      x y z
#    x 1.977270 0.000000 0.000000 
#    y 0.000000 1.930190 0.000000 
#    z 0.000000 0.000000 1.984120 
# 
# From -- ./inp_files/5877.got.cif
#   From: 2010.05.17/outbox.cif.g08.bks.cpg/sg60_3_cif.got.tgz:5877.got - 2010.06.03 14:59:27.
