data_PCOD9456890
_publ_section_title
;
Structure prediction by ZEFSAII (Michael W. Deem and Ramdas Pophale) SiO2 
 PCOD9456890
Probable space group: P B C N
;
_chemical_formula_sum "Si O2"
_cell_formula_units_Z 44
_cell_length_a 15.889118
_cell_length_b 13.626835
_cell_length_c 8.435427
_cell_angle_alpha 90.000000
_cell_angle_beta 90.000000
_cell_angle_gamma 90.000000
_cell_volume 1826.425067
_symmetry_space_group_name_H-M "P B C N"
_symmetry_group_IT_number 60
_symmetry_cell_setting 'orthorhombic'
loop_
_space_group_symop_operation_xyz
x,y,z
1/2-x,1/2-y,1/2+z
1/2+x,1/2-y,-z
-x,y,1/2-z
-x,-y,-z
1/2+x,1/2+y,1/2-z
1/2-x,1/2+y,z
x,-y,1/2+z
loop_
_atom_site_type_symbol
_atom_site_label
_atom_site_fract_x
_atom_site_fract_y
_atom_site_fract_z
Si Si1 0.369987 0.080776 0.237402
Si Si2 0.000000 0.500000 0.500000
Si Si3 0.243385 0.719961 0.411644
Si Si4 0.000000 0.288651 0.250000
Si Si5 0.500000 0.543796 0.750000
Si Si6 0.181047 0.623619 0.728362
Si Si7 0.424189 0.628353 0.454921
O O1 0.423674 0.048226 0.391942
O O2 0.321321 0.178970 0.280786
O O3 0.304593 0.991110 0.210122
O O4 0.432308 0.075141 0.089226
O O5 0.206242 0.691151 0.580604
O O6 0.269209 0.831337 0.376471
O O7 0.332172 0.663035 0.405685
O O8 0.920450 0.360078 0.264118
O O9 0.986406 0.215024 0.104399
O O10 0.439990 0.607975 0.638694
O O11 0.553106 0.471027 0.638112
#
# Coordination Sequence:
#
# PCOD9456890 Si02
#       7
#     8   4   8   4   4   8   8
#     4  11  23  44  69  99 133 179 224 282 336 410
#     4  10  22  40  70  98 132 180 230 268 338 408
#     4  11  26  42  65 101 131 173 224 276 348 390
#     4   9  20  44  62  84 131 168 210 259 332 390
#     4   9  18  36  62  90 119 172 218 251 328 390
#     4  11  25  44  66  97 135 175 216 282 332 403
#     4   9  20  37  61  91 125 166 213 267 317 401
#
# _framework density 24.090776000000002
#
# number of rings (size 3 to 8) (size 9 to 14) (size 15 to 20)
#    0.000    1.818    1.818    1.091    5.091    1.455 
#    6.545    0.000    0.000    0.000    0.000    0.000 
#    0.000    0.000    0.000    0.000    0.000    0.000 
#
# Total GULP energy -245214.574071 kJ/mol
# GULP energy per Si atom -5573.058502 kJ/mol
# Density = 2.403594 g / cm^3
# Si number density = 24.090776 Si / 1000 Ang^3
#
#
#
# Elastic Constant Matrix: (Units=GPa)
#
#
# Indices 1 2 3 4 5 6 
#
# 1 62.0944 17.6021 7.1203 0.0000 0.0000 0.0000
# 2 17.6021 68.3168 7.8014 0.0000 0.0000 0.0000
# 3 7.1203 7.8014 73.3329 0.0000 0.0000 0.0000
# 4 0.0000 0.0000 0.0000 26.7924 0.0000 0.0000
# 5 0.0000 0.0000 0.0000 0.0000 34.8035 0.0000
# 6 0.0000 0.0000 0.0000 0.0000 0.0000 -15.9301
#
#
#
# Elastic Compliance Matrix: (Units=1/GPa)
#
#
# Indices 1 2 3 4 5 6 
#
# 1 0.017483 -0.004364 -0.001233 0.000000 0.000000 0.000000
# 2 -0.004364 0.015907 -0.001269 0.000000 0.000000 0.000000
# 3 -0.001233 -0.001269 0.013891 0.000000 0.000000 0.000000
# 4 0.000000 0.000000 0.000000 0.037324 0.000000 0.000000
# 5 0.000000 0.000000 0.000000 0.000000 0.028733 0.000000
# 6 0.000000 0.000000 0.000000 0.000000 0.000000 -0.062774
#
#
# Mechanical properties :
#
#
# Convention : Reuss Voigt Hill
#
# Bulk Modulus (GPa) = 29.80636 29.86574 29.83605
# Shear Modulus (GPa) = 66.24478 20.54785 43.39632
#
# Velocity S-wave (km/s) = 5.24954 2.92367 4.24886
# Velocity P-wave (km/s) = 7.01020 4.88070 6.04004
#
# Compressibility (1/GPa) = 0.03354988
#
# Stress axis : x y z
#
# Youngs Moduli (GPa) = 57.19870 62.86587 71.98831
#
# Poissons Ratio (x) = 0.27433 0.08878
# Poissons Ratio (y) = 0.24960 0.09132
# Poissons Ratio (z) = 0.07054 0.07975
#
# Static dielectric constant tensor:
#      x y z
#    x 1.906830 0.000000 0.000000 
#    y 0.000000 1.667480 0.000000 
#    z 0.000000 0.000000 2.069520 
# 
# From -- ./inp_files/6676.got.cif
#   From: 2010.05.17/outbox.cif.g08.bks.cpg/sg60_4_cif.got.tgz:6676.got - 2010.06.03 14:59:27.
