data_PCOD9456542
_publ_section_title
;
Structure prediction by ZEFSAII (Michael W. Deem and Ramdas Pophale) SiO2 
 PCOD9456542
Probable space group: P B C N
;
_chemical_formula_sum "Si O2"
_cell_formula_units_Z 40
_cell_length_a 5.378889
_cell_length_b 12.897471
_cell_length_c 26.572346
_cell_angle_alpha 90.000000
_cell_angle_beta 90.000000
_cell_angle_gamma 90.000000
_cell_volume 1843.431656
_symmetry_space_group_name_H-M "P B C N"
_symmetry_group_IT_number 60
_symmetry_cell_setting 'orthorhombic'
loop_
_space_group_symop_operation_xyz
x,y,z
1/2-x,1/2-y,1/2+z
1/2+x,1/2-y,-z
-x,y,1/2-z
-x,-y,-z
1/2+x,1/2+y,1/2-z
1/2-x,1/2+y,z
x,-y,1/2+z
loop_
_atom_site_type_symbol
_atom_site_label
_atom_site_fract_x
_atom_site_fract_y
_atom_site_fract_z
Si Si1 0.315711 0.596638 0.492361
Si Si2 0.730106 0.480037 0.100246
Si Si3 0.565456 0.641288 0.346048
Si Si4 0.434325 0.932606 0.804856
Si Si5 0.469742 0.795016 0.433722
O O1 0.500000 0.500000 0.500000
O O2 0.436766 0.703528 0.473923
O O3 0.156075 0.624161 0.540722
O O4 0.164787 0.557874 0.442764
O O5 0.896655 0.483835 0.150616
O O6 0.727688 0.364451 0.078975
O O7 0.480948 0.538390 0.118873
O O8 0.828620 0.635721 0.319681
O O9 0.549880 0.738602 0.382875
O O10 0.325052 0.631348 0.309307
O O11 0.500000 0.975333 0.750000
#
# Coordination Sequence:
#
# PCOD9456542 Si02
#       5
#     8   8   8   8   8
#     4  11  24  38  64  97 143 184 228 278 344 414
#     4   9  23  39  64  94 133 173 227 275 338 403
#     4   9  23  40  68  97 132 175 226 277 349 397
#     4  10  21  44  68  95 132 175 222 293 345 403
#     4  11  23  40  65 100 136 183 229 274 343 414
#
# _framework density 21.69866
#
# number of rings (size 3 to 8) (size 9 to 14) (size 15 to 20)
#    1.200    0.800    0.000    2.400    8.400    1.600 
#    0.000    2.000    0.000    0.000    0.000    0.000 
#    0.000    0.000    0.000    0.000    0.000    0.000 
#
# Total GULP energy -222773.885903 kJ/mol
# GULP energy per Si atom -5569.347148 kJ/mol
# Density = 2.164927 g / cm^3
# Si number density = 21.698660 Si / 1000 Ang^3
#
#
#
# Elastic Constant Matrix: (Units=GPa)
#
#
# Indices 1 2 3 4 5 6 
#
# 1 67.6161 10.4253 25.8951 0.0000 0.0000 0.0000
# 2 10.4253 80.4497 40.4697 0.0000 0.0000 0.0000
# 3 25.8951 40.4697 106.7490 0.0000 0.0000 0.0000
# 4 0.0000 0.0000 0.0000 -0.0106 0.0000 0.0000
# 5 0.0000 0.0000 0.0000 0.0000 24.7171 0.0000
# 6 0.0000 0.0000 0.0000 0.0000 0.0000 15.6712
#
#
#
# Elastic Compliance Matrix: (Units=1/GPa)
#
#
# Indices 1 2 3 4 5 6 
#
# 1 0.016306 -0.000152 -0.003898 0.000000 0.000000 0.000000
# 2 -0.000152 0.015361 -0.005786 0.000000 0.000000 0.000000
# 3 -0.003898 -0.005786 0.012507 0.000000 0.000000 0.000000
# 4 0.000000 0.000000 0.000000-94.551734 0.000000 0.000000
# 5 0.000000 0.000000 0.000000 0.000000 0.040458 0.000000
# 6 0.000000 0.000000 0.000000 0.000000 0.000000 0.063811
#
#
# Mechanical properties :
#
#
# Convention : Reuss Voigt Hill
#
# Bulk Modulus (GPa) = 40.81567 45.37721 43.09644
# Shear Modulus (GPa) = -0.05298 19.94384 9.94543
#
# Velocity S-wave (km/s) = -0.15643 3.03500 2.14322
# Velocity P-wave (km/s) = 4.33802 5.76537 5.10186
#
# Compressibility (1/GPa) = 0.02450039
#
# Stress axis : x y z
#
# Youngs Moduli (GPa) = 61.32878 65.10115 79.95537
#
# Poissons Ratio (x) = 0.00992 0.31164
# Poissons Ratio (y) = 0.00934 0.46266
# Poissons Ratio (z) = 0.23904 0.37671
#
# Static dielectric constant tensor:
#      x y z
#    x 1.878040 0.000000 0.000000 
#    y 0.000000 1.767770 0.000000 
#    z 0.000000 0.000000 1.876400 
# 
# From -- ./inp_files/25611.got.cif
#   From: 2010.05.17/outbox.cif.g08.bks.cpg/sg60_13_cif.got.tgz:25611.got - 2010.06.03 14:59:27.
