data_PCOD9456926
_publ_section_title
;
Structure prediction by ZEFSAII (Michael W. Deem and Ramdas Pophale) SiO2 
 PCOD9456926
Probable space group: P B C N
;
_chemical_formula_sum "Si O2"
_cell_formula_units_Z 32
_cell_length_a 5.242824
_cell_length_b 32.662734
_cell_length_c 8.928340
_cell_angle_alpha 90.000000
_cell_angle_beta 90.000000
_cell_angle_gamma 90.000000
_cell_volume 1528.933277
_symmetry_space_group_name_H-M "P B C N"
_symmetry_group_IT_number 60
_symmetry_cell_setting 'orthorhombic'
loop_
_space_group_symop_operation_xyz
x,y,z
1/2-x,1/2-y,1/2+z
1/2+x,1/2-y,-z
-x,y,1/2-z
-x,-y,-z
1/2+x,1/2+y,1/2-z
1/2-x,1/2+y,z
x,-y,1/2+z
loop_
_atom_site_type_symbol
_atom_site_label
_atom_site_fract_x
_atom_site_fract_y
_atom_site_fract_z
Si Si1 0.500234 0.954968 0.931052
Si Si2 0.251344 0.766144 0.853117
Si Si3 0.005952 0.904763 0.570010
Si Si4 0.974006 0.817646 0.075235
O O1 0.500000 0.958118 0.750000
O O2 0.260913 0.926087 0.975673
O O3 0.763066 0.933753 0.976638
O O4 0.500000 0.000000 0.000000
O O5 0.500000 0.773100 0.750000
O O6 0.279187 0.720699 0.922381
O O7 0.000000 0.769434 0.750000
O O8 0.214776 0.797770 0.988623
O O9 0.069389 0.859964 0.507841
O O10 0.000000 0.901649 0.750000
O O11 0.000000 0.827108 0.250000
#
# Coordination Sequence:
#
# PCOD9456926 Si02
#       4
#     8   8   8   8
#     4  10  22  41  64  89 119 157 200 249 312 379
#     4  11  25  44  65  91 132 178 217 269 332 383
#     4  10  23  40  61  90 125 162 200 251 316 379
#     4  11  24  41  65  96 127 167 223 269 311 373
#
# _framework density 20.929624
#
# number of rings (size 3 to 8) (size 9 to 14) (size 15 to 20)
#    0.000    1.500    0.000    4.500    0.000   13.000 
#    0.000    1.250    0.000    0.000    0.000    0.000 
#    0.000    0.000    0.000    0.000    0.000    0.000 
#
# Total GULP energy -178771.441321 kJ/mol
# GULP energy per Si atom -5586.607541 kJ/mol
# Density = 2.088199 g / cm^3
# Si number density = 20.929624 Si / 1000 Ang^3
#
#
#
# Elastic Constant Matrix: (Units=GPa)
#
#
# Indices 1 2 3 4 5 6 
#
# 1 143.0746 36.6555 53.5348 0.0000 0.0000 0.0000
# 2 36.6555 142.5943 39.6714 0.0000 0.0000 0.0000
# 3 53.5348 39.6714 62.8217 0.0000 0.0000 0.0000
# 4 0.0000 0.0000 0.0000 -345.0403 0.0000 0.0000
# 5 0.0000 0.0000 0.0000 0.0000 20.5461 0.0000
# 6 0.0000 0.0000 0.0000 0.0000 0.0000 33.6796
#
#
#
# Elastic Compliance Matrix: (Units=1/GPa)
#
#
# Indices 1 2 3 4 5 6 
#
# 1 0.010269 -0.000249 -0.008593 0.000000 0.000000 0.000000
# 2 -0.000249 0.008514 -0.005164 0.000000 0.000000 0.000000
# 3 -0.008593 -0.005164 0.026502 0.000000 0.000000 0.000000
# 4 0.000000 0.000000 0.000000 -0.002898 0.000000 0.000000
# 5 0.000000 0.000000 0.000000 0.000000 0.048671 0.000000
# 6 0.000000 0.000000 0.000000 0.000000 0.000000 0.029692
#
#
# Mechanical properties :
#
#
# Convention : Reuss Voigt Hill
#
# Bulk Modulus (GPa) = 57.89891 67.57933 62.73912
# Shear Modulus (GPa) = 32.35850 -43.58764 -5.61457
#
# Velocity S-wave (km/s) = 3.93627 -4.56848 -1.63964
# Velocity P-wave (km/s) = 6.95576 2.12859 5.14361
#
# Compressibility (1/GPa) = 0.01727148
#
# Stress axis : x y z
#
# Youngs Moduli (GPa) = 97.38489 117.45887 37.73268
#
# Poissons Ratio (x) = 0.02923 0.32425
# Poissons Ratio (y) = 0.02424 0.19486
# Poissons Ratio (z) = 0.83686 0.60658
#
# Static dielectric constant tensor:
#      x y z
#    x 1.774040 0.000000 0.000000 
#    y 0.000000 1.711570 0.000000 
#    z 0.000000 0.000000 1.768380 
# 
# From -- ./inp_files/3028.got.cif
#   From: 2010.05.17/outbox.cif.g08.bks.cpg/sg60_2_cif.got.tgz:3028.got - 2010.06.03 14:59:27.
