data_PCOD9456022
_publ_section_title
;
Structure prediction by ZEFSAII (Michael W. Deem and Ramdas Pophale) SiO2 
 PCOD9456022
Probable space group: P B C N
;
_chemical_formula_sum "Si O2"
_cell_formula_units_Z 56
_cell_length_a 31.472368
_cell_length_b 16.959231
_cell_length_c 4.995151
_cell_angle_alpha 90.000000
_cell_angle_beta 90.000000
_cell_angle_gamma 90.000000
_cell_volume 2666.147655
_symmetry_space_group_name_H-M "P B C N"
_symmetry_group_IT_number 60
_symmetry_cell_setting 'orthorhombic'
loop_
_space_group_symop_operation_xyz
x,y,z
1/2-x,1/2-y,1/2+z
1/2+x,1/2-y,-z
-x,y,1/2-z
-x,-y,-z
1/2+x,1/2+y,1/2-z
1/2-x,1/2+y,z
x,-y,1/2+z
loop_
_atom_site_type_symbol
_atom_site_label
_atom_site_fract_x
_atom_site_fract_y
_atom_site_fract_z
Si Si1 0.628296 0.213295 0.142027
Si Si2 0.000000 0.620851 0.250000
Si Si3 0.408992 0.293643 0.853137
Si Si4 0.636767 0.551627 0.355539
Si Si5 0.908250 0.549953 0.346543
Si Si6 0.271889 0.214076 0.326350
Si Si7 0.236946 0.051573 0.131221
Si Si8 0.500000 0.766192 0.250000
O O1 0.606130 0.273969 0.348090
O O2 0.616923 0.126947 0.252019
O O3 0.678351 0.228254 0.141378
O O4 0.610411 0.227653 0.846110
O O5 0.958321 0.570798 0.319960
O O6 0.010480 0.676890 0.500896
O O7 0.390827 0.375460 0.743347
O O8 0.459417 0.285227 0.829197
O O9 0.628976 0.521487 0.654852
O O10 0.686907 0.572411 0.337432
O O11 0.898854 0.521640 0.644798
O O12 0.248077 0.227508 0.606150
O O13 0.263717 0.126707 0.215617
O O14 0.244999 0.979387 0.333897
#
# Coordination Sequence:
#
# PCOD9456022 Si02
#       8
#     8   4   8   8   8   8   8   4
#     4  12  25  42  65  91 129 168 211 263 313 375
#     4  12  22  43  62  95 128 164 222 262 308 373
#     4  12  23  43  66  93 126 166 209 259 316 379
#     4  10  21  38  62  92 121 155 200 251 307 372
#     4  12  24  40  62  94 130 170 215 264 315 367
#     4  12  25  42  65  95 125 165 213 263 314 371
#     4  10  21  38  61  87 120 161 201 247 308 372
#     4  12  22  41  68  91 128 166 212 264 312 381
#
# _framework density 21.004087999999999
#
# number of rings (size 3 to 8) (size 9 to 14) (size 15 to 20)
#    0.000    0.571    2.857    6.429    0.000    3.429 
#    0.000    0.714    0.000    0.000    0.000    0.000 
#    0.000    0.000    0.000    0.000    0.000    0.000 
#
# Total GULP energy -313657.713738 kJ/mol
# GULP energy per Si atom -5601.030602 kJ/mol
# Density = 2.095628 g / cm^3
# Si number density = 21.004088 Si / 1000 Ang^3
#
#
#
# Elastic Constant Matrix: (Units=GPa)
#
#
# Indices 1 2 3 4 5 6 
#
# 1 85.1735 -6.1623 -1.5554 0.0000 0.0000 0.0000
# 2 -6.1623 34.7175 -12.3820 0.0000 0.0000 0.0000
# 3 -1.5554 -12.3820 61.5371 0.0000 0.0000 0.0000
# 4 0.0000 0.0000 0.0000 28.4378 0.0000 0.0000
# 5 0.0000 0.0000 0.0000 0.0000 16.8944 0.0000
# 6 0.0000 0.0000 0.0000 0.0000 0.0000 88.4398
#
#
#
# Elastic Compliance Matrix: (Units=1/GPa)
#
#
# Indices 1 2 3 4 5 6 
#
# 1 0.011928 0.002397 0.000784 0.000000 0.000000 0.000000
# 2 0.002397 0.031512 0.006401 0.000000 0.000000 0.000000
# 3 0.000784 0.006401 0.017558 0.000000 0.000000 0.000000
# 4 0.000000 0.000000 0.000000 0.035165 0.000000 0.000000
# 5 0.000000 0.000000 0.000000 0.000000 0.059191 0.000000
# 6 0.000000 0.000000 0.000000 0.000000 0.000000 0.011307
#
#
# Mechanical properties :
#
#
# Convention : Reuss Voigt Hill
#
# Bulk Modulus (GPa) = 12.47462 15.69206 14.08334
# Shear Modulus (GPa) = 28.69952 40.18958 34.44455
#
# Velocity S-wave (km/s) = 3.70046 4.37901 4.05396
# Velocity P-wave (km/s) = 4.92036 5.74933 5.35092
#
# Compressibility (1/GPa) = 0.08016277
#
# Stress axis : x y z
#
# Youngs Moduli (GPa) = 83.83303 31.73355 56.95348
#
# Poissons Ratio (x) = -0.07606 -0.04464
# Poissons Ratio (y) = -0.20093 -0.36457
# Poissons Ratio (z) = -0.06571 -0.20313
#
# Static dielectric constant tensor:
#      x y z
#    x 1.736160 0.000000 0.000000 
#    y 0.000000 1.748680 0.000000 
#    z 0.000000 0.000000 1.725390 
# 
# From -- ./inp_files/2702.got.cif
#   From: 2010.05.17/outbox.cif.g08.bks.cpg/sg60_2_cif.got.tgz:2702.got - 2010.06.03 14:59:27.
