data_PCOD9456145
_publ_section_title
;
Structure prediction by ZEFSAII (Michael W. Deem and Ramdas Pophale) SiO2 
 PCOD9456145
Probable space group: P B C N
;
_chemical_formula_sum "Si O2"
_cell_formula_units_Z 48
_cell_length_a 14.368317
_cell_length_b 7.904525
_cell_length_c 18.336762
_cell_angle_alpha 90.000000
_cell_angle_beta 90.000000
_cell_angle_gamma 90.000000
_cell_volume 2082.592627
_symmetry_space_group_name_H-M "P B C N"
_symmetry_group_IT_number 60
_symmetry_cell_setting 'orthorhombic'
loop_
_space_group_symop_operation_xyz
x,y,z
1/2-x,1/2-y,1/2+z
1/2+x,1/2-y,-z
-x,y,1/2-z
-x,-y,-z
1/2+x,1/2+y,1/2-z
1/2-x,1/2+y,z
x,-y,1/2+z
loop_
_atom_site_type_symbol
_atom_site_label
_atom_site_fract_x
_atom_site_fract_y
_atom_site_fract_z
Si Si1 0.304791 0.601463 0.983167
Si Si2 0.100093 0.666239 0.289507
Si Si3 0.819094 0.618794 0.909358
Si Si4 0.855732 0.797817 0.609754
Si Si5 0.009128 0.495389 0.414110
Si Si6 0.275330 0.836205 0.251365
O O1 0.354242 0.742111 0.032374
O O2 0.256147 0.484378 0.044692
O O3 0.223529 0.690068 0.934766
O O4 0.361054 0.476806 0.930419
O O5 0.074256 0.632156 0.374360
O O6 0.166559 0.823824 0.272690
O O7 0.164540 0.505330 0.266972
O O8 0.000000 0.669888 0.250000
O O9 0.782875 0.699173 0.834602
O O10 0.903444 0.496091 0.887611
O O11 0.947910 0.685926 0.606479
O O12 0.823030 0.796530 0.693152
O O13 0.000000 0.500000 0.500000
#
# Coordination Sequence:
#
# PCOD9456145 Si02
#       6
#     8   8   8   8   8   8
#     4  10  22  37  60  92 124 174 215 277 347 391
#     4  11  24  44  71  98 133 182 225 280 350 408
#     4  11  22  39  64  94 131 172 225 282 337 402
#     4  10  21  39  62  90 130 172 220 273 341 405
#     4  11  22  39  65  96 127 171 228 275 337 413
#     4  11  23  41  68  98 135 177 226 282 339 413
#
# _framework density 23.048195
#
# number of rings (size 3 to 8) (size 9 to 14) (size 15 to 20)
#    0.000    1.333    3.333    3.000    2.333    0.667 
#    0.000    0.833   11.000    0.000    0.000    0.000 
#    0.000    0.000    0.000    0.000    0.000    0.000 
#
# Total GULP energy -268067.920493 kJ/mol
# GULP energy per Si atom -5584.748344 kJ/mol
# Density = 2.299574 g / cm^3
# Si number density = 23.048195 Si / 1000 Ang^3
#
#
#
# Elastic Constant Matrix: (Units=GPa)
#
#
# Indices 1 2 3 4 5 6 
#
# 1 98.3180 16.2483 28.6367 0.0000 0.0000 0.0000
# 2 16.2483 67.6445 41.9332 0.0000 0.0000 0.0000
# 3 28.6367 41.9332 153.5371 0.0000 0.0000 0.0000
# 4 0.0000 0.0000 0.0000 25.6312 0.0000 0.0000
# 5 0.0000 0.0000 0.0000 0.0000 33.3280 0.0000
# 6 0.0000 0.0000 0.0000 0.0000 0.0000 36.6937
#
#
#
# Elastic Compliance Matrix: (Units=1/GPa)
#
#
# Indices 1 2 3 4 5 6 
#
# 1 0.010904 -0.001635 -0.001587 0.000000 0.000000 0.000000
# 2 -0.001635 0.018041 -0.004622 0.000000 0.000000 0.000000
# 3 -0.001587 -0.004622 0.008072 0.000000 0.000000 0.000000
# 4 0.000000 0.000000 0.000000 0.039015 0.000000 0.000000
# 5 0.000000 0.000000 0.000000 0.000000 0.030005 0.000000
# 6 0.000000 0.000000 0.000000 0.000000 0.000000 0.027253
#
#
# Mechanical properties :
#
#
# Convention : Reuss Voigt Hill
#
# Bulk Modulus (GPa) = 46.88853 54.79288 50.84070
# Shear Modulus (GPa) = 32.03339 34.64269 33.33804
#
# Velocity S-wave (km/s) = 3.73211 3.88113 3.80735
# Velocity P-wave (km/s) = 6.24174 6.62639 6.43694
#
# Compressibility (1/GPa) = 0.02132718
#
# Stress axis : x y z
#
# Youngs Moduli (GPa) = 91.71309 55.42815 123.89236
#
# Poissons Ratio (x) = 0.09064 0.19662
# Poissons Ratio (y) = 0.14997 0.57268
# Poissons Ratio (z) = 0.14555 0.25621
#
# Static dielectric constant tensor:
#      x y z
#    x 1.839820 0.000000 0.000000 
#    y 0.000000 1.887500 0.000000 
#    z 0.000000 0.000000 1.927860 
# 
# From -- ./inp_files/20466.got.cif
#   From: 2010.05.17/outbox.cif.g08.bks.cpg/sg60_11_cif.got.tgz:20466.got - 2010.06.03 14:59:27.
