data_PCOD9456645
_publ_section_title
;
Structure prediction by ZEFSAII (Michael W. Deem and Ramdas Pophale) SiO2 
 PCOD9456645
Probable space group: P B C N
;
_chemical_formula_sum "Si O2"
_cell_formula_units_Z 40
_cell_length_a 8.422449
_cell_length_b 10.278296
_cell_length_c 18.994896
_cell_angle_alpha 90.000000
_cell_angle_beta 90.000000
_cell_angle_gamma 90.000000
_cell_volume 1644.358208
_symmetry_space_group_name_H-M "P B C N"
_symmetry_group_IT_number 60
_symmetry_cell_setting 'orthorhombic'
loop_
_space_group_symop_operation_xyz
x,y,z
1/2-x,1/2-y,1/2+z
1/2+x,1/2-y,-z
-x,y,1/2-z
-x,-y,-z
1/2+x,1/2+y,1/2-z
1/2-x,1/2+y,z
x,-y,1/2+z
loop_
_atom_site_type_symbol
_atom_site_label
_atom_site_fract_x
_atom_site_fract_y
_atom_site_fract_z
Si Si1 0.953499 0.062484 0.574532
Si Si2 0.394180 0.914233 0.404071
Si Si3 0.410654 0.165894 0.066336
Si Si4 0.851829 0.981783 0.291570
Si Si5 0.358270 0.241513 0.673828
O O1 0.782848 0.032853 0.608999
O O2 0.962250 0.218146 0.568095
O O3 0.089145 0.017590 0.627826
O O4 0.000000 0.000000 0.500000
O O5 0.379475 0.867422 0.485193
O O6 0.472236 0.798370 0.358835
O O7 0.517157 0.034763 0.400731
O O8 0.261202 0.223856 0.108931
O O9 0.705130 0.886447 0.286452
O O10 0.000000 0.923121 0.250000
O O11 0.836840 0.133869 0.275915
#
# Coordination Sequence:
#
# PCOD9456645 Si02
#       5
#     8   8   8   8   8
#     4  11  25  41  67 102 141 179 233 289 340 417
#     4  11  22  37  68 100 136 186 221 285 351 407
#     4  10  22  37  62 101 139 175 231 280 343 404
#     4  11  26  48  70  97 141 180 230 291 348 412
#     4  11  23  47  67  99 138 186 235 284 346 424
#
# _framework density 24.325600999999999
#
# number of rings (size 3 to 8) (size 9 to 14) (size 15 to 20)
#    0.000    1.200    2.000    3.600   14.000    1.600 
#    3.600    1.000    0.000    0.000    0.000    0.000 
#    0.000    0.000    0.000    0.000    0.000    0.000 
#
# Total GULP energy -223674.043208 kJ/mol
# GULP energy per Si atom -5591.851080 kJ/mol
# Density = 2.427024 g / cm^3
# Si number density = 24.325601 Si / 1000 Ang^3
#
#
#
# Elastic Constant Matrix: (Units=GPa)
#
#
# Indices 1 2 3 4 5 6 
#
# 1 104.1778 31.7193 3.8995 0.0000 0.0000 0.0000
# 2 31.7193 125.6258 13.6596 0.0000 0.0000 0.0000
# 3 3.8995 13.6596 40.0859 0.0000 0.0000 0.0000
# 4 0.0000 0.0000 0.0000 15.5681 0.0000 0.0000
# 5 0.0000 0.0000 0.0000 0.0000 38.0938 0.0000
# 6 0.0000 0.0000 0.0000 0.0000 0.0000 36.1439
#
#
#
# Elastic Compliance Matrix: (Units=1/GPa)
#
#
# Indices 1 2 3 4 5 6 
#
# 1 0.010399 -0.002612 -0.000121 0.000000 0.000000 0.000000
# 2 -0.002612 0.008923 -0.002786 0.000000 0.000000 0.000000
# 3 -0.000121 -0.002786 0.025908 0.000000 0.000000 0.000000
# 4 0.000000 0.000000 0.000000 0.064234 0.000000 0.000000
# 5 0.000000 0.000000 0.000000 0.000000 0.026251 0.000000
# 6 0.000000 0.000000 0.000000 0.000000 0.000000 0.027667
#
#
# Mechanical properties :
#
#
# Convention : Reuss Voigt Hill
#
# Bulk Modulus (GPa) = 29.24916 40.93850 35.09383
# Shear Modulus (GPa) = 26.90800 32.66855 29.78828
#
# Velocity S-wave (km/s) = 3.32951 3.66863 3.50317
# Velocity P-wave (km/s) = 5.17986 5.90009 5.55167
#
# Compressibility (1/GPa) = 0.03418901
#
# Stress axis : x y z
#
# Youngs Moduli (GPa) = 96.16370 112.07333 38.59851
#
# Poissons Ratio (x) = 0.29278 0.00469
# Poissons Ratio (y) = 0.25122 0.10755
# Poissons Ratio (z) = 0.01167 0.31228
#
# Static dielectric constant tensor:
#      x y z
#    x 1.981210 0.000000 0.000000 
#    y 0.000000 1.990420 0.000000 
#    z 0.000000 0.000000 1.970180 
# 
# From -- ./inp_files/19036.got.cif
#   From: 2010.05.17/outbox.cif.g08.bks.cpg/sg60_10_cif.got.tgz:19036.got - 2010.06.03 14:59:27.
