data_PCOD9456518
_publ_section_title
;
Structure prediction by ZEFSAII (Michael W. Deem and Ramdas Pophale) SiO2 
 PCOD9456518
Probable space group: P B C N
;
_chemical_formula_sum "Si O2"
_cell_formula_units_Z 52
_cell_length_a 15.454440
_cell_length_b 19.077966
_cell_length_c 9.251032
_cell_angle_alpha 90.000000
_cell_angle_beta 90.000000
_cell_angle_gamma 90.000000
_cell_volume 2727.567622
_symmetry_space_group_name_H-M "P B C N"
_symmetry_group_IT_number 60
_symmetry_cell_setting 'orthorhombic'
loop_
_space_group_symop_operation_xyz
x,y,z
1/2-x,1/2-y,1/2+z
1/2+x,1/2-y,-z
-x,y,1/2-z
-x,-y,-z
1/2+x,1/2+y,1/2-z
1/2-x,1/2+y,z
x,-y,1/2+z
loop_
_atom_site_type_symbol
_atom_site_label
_atom_site_fract_x
_atom_site_fract_y
_atom_site_fract_z
Si Si1 0.856967 0.701817 0.439739
Si Si2 0.091103 0.479050 0.932966
Si Si3 0.000000 0.638119 0.250000
Si Si4 0.787033 0.468816 0.290107
Si Si5 0.723477 0.378001 0.750635
Si Si6 0.743401 0.832853 0.420296
Si Si7 0.603257 0.247920 0.759302
O O1 0.789840 0.645319 0.376491
O O2 0.815357 0.774641 0.388823
O O3 0.864153 0.711824 0.610674
O O4 0.947815 0.683226 0.366376
O O5 0.137870 0.534336 0.829558
O O6 0.067812 0.412393 0.833241
O O7 0.158347 0.471715 0.061962
O O8 0.000000 0.500000 0.000000
O O9 0.728197 0.537252 0.259709
O O10 0.737349 0.397062 0.313222
O O11 0.752128 0.355700 0.588143
O O12 0.639303 0.328061 0.771740
O O13 0.650552 0.797612 0.383534
O O14 0.500000 0.246558 0.750000
#
# Coordination Sequence:
#
# PCOD9456518 Si02
#       7
#     8   8   4   8   8   8   8
#     4  10  22  40  60  85 120 163 193 248 300 360
#     4  12  23  35  54  89 122 156 192 230 302 358
#     4  12  22  38  60  84 130 156 192 248 304 356
#     4  12  22  37  59  84 118 160 193 243 289 364
#     4  10  21  44  59  83 126 161 195 241 311 357
#     4  10  23  39  61  88 118 155 209 240 300 362
#     4  10  24  39  63  90 115 155 207 254 291 355
#
# _framework density 19.064605
#
# number of rings (size 3 to 8) (size 9 to 14) (size 15 to 20)
#    0.000    1.231    4.615    0.000    8.615    0.000 
#    0.000    0.000    1.692    1.846    0.000    0.000 
#    0.000    0.000    0.000    0.000    0.000    0.000 
#
# Total GULP energy -289982.404235 kJ/mol
# GULP energy per Si atom -5576.584697 kJ/mol
# Density = 1.902121 g / cm^3
# Si number density = 19.064605 Si / 1000 Ang^3
#
#
#
# Elastic Constant Matrix: (Units=GPa)
#
#
# Indices 1 2 3 4 5 6 
#
# 1 40.3544 24.8818 12.0101 0.0000 0.0000 0.0000
# 2 24.8818 105.0492 9.8369 0.0000 0.0000 0.0000
# 3 12.0101 9.8369 57.8974 0.0000 0.0000 0.0000
# 4 0.0000 0.0000 0.0000 27.4478 0.0000 0.0000
# 5 0.0000 0.0000 0.0000 0.0000 25.4798 0.0000
# 6 0.0000 0.0000 0.0000 0.0000 0.0000 22.8048
#
#
#
# Elastic Compliance Matrix: (Units=1/GPa)
#
#
# Indices 1 2 3 4 5 6 
#
# 1 0.030473 -0.006733 -0.005177 0.000000 0.000000 0.000000
# 2 -0.006733 0.011161 -0.000500 0.000000 0.000000 0.000000
# 3 -0.005177 -0.000500 0.018431 0.000000 0.000000 0.000000
# 4 0.000000 0.000000 0.000000 0.036433 0.000000 0.000000
# 5 0.000000 0.000000 0.000000 0.000000 0.039247 0.000000
# 6 0.000000 0.000000 0.000000 0.000000 0.000000 0.043850
#
#
# Mechanical properties :
#
#
# Convention : Reuss Voigt Hill
#
# Bulk Modulus (GPa) = 28.37295 32.97318 30.67307
# Shear Modulus (GPa) = 23.13078 25.58461 24.35769
#
# Velocity S-wave (km/s) = 3.48700 3.66730 3.57829
# Velocity P-wave (km/s) = 5.57916 5.93845 5.76161
#
# Compressibility (1/GPa) = 0.03524483
#
# Stress axis : x y z
#
# Youngs Moduli (GPa) = 32.81626 89.59861 54.25707
#
# Poissons Ratio (x) = 0.60326 0.28090
# Poissons Ratio (y) = 0.22095 0.02711
# Poissons Ratio (z) = 0.16990 0.04476
#
# Static dielectric constant tensor:
#      x y z
#    x 1.651140 0.000000 0.000000 
#    y 0.000000 1.831450 0.000000 
#    z 0.000000 0.000000 1.711370 
# 
# From -- ./inp_files/6884.got.cif
#   From: 2010.05.17/outbox.cif.g08.bks.cpg/sg60_4_cif.got.tgz:6884.got - 2010.06.03 14:59:27.
