data_PCOD9456372
_publ_section_title
;
Structure prediction by ZEFSAII (Michael W. Deem and Ramdas Pophale) SiO2 
 PCOD9456372
Probable space group: P B C N
;
_chemical_formula_sum "Si O2"
_cell_formula_units_Z 56
_cell_length_a 5.095043
_cell_length_b 14.661129
_cell_length_c 28.356490
_cell_angle_alpha 90.000000
_cell_angle_beta 90.000000
_cell_angle_gamma 90.000000
_cell_volume 2118.203791
_symmetry_space_group_name_H-M "P B C N"
_symmetry_group_IT_number 60
_symmetry_cell_setting 'orthorhombic'
loop_
_space_group_symop_operation_xyz
x,y,z
1/2-x,1/2-y,1/2+z
1/2+x,1/2-y,-z
-x,y,1/2-z
-x,-y,-z
1/2+x,1/2+y,1/2-z
1/2-x,1/2+y,z
x,-y,1/2+z
loop_
_atom_site_type_symbol
_atom_site_label
_atom_site_fract_x
_atom_site_fract_y
_atom_site_fract_z
Si Si1 0.148167 0.342694 0.793240
Si Si2 0.693389 0.494568 0.644758
Si Si3 0.282367 0.938638 0.589366
Si Si4 0.226285 0.250374 0.631457
Si Si5 0.069354 0.626494 0.500175
Si Si6 0.425633 0.671667 0.952845
Si Si7 0.884413 0.653819 0.703095
O O1 0.349526 0.409024 0.819506
O O2 0.265397 0.247168 0.776519
O O3 0.000000 0.388701 0.750000
O O4 0.944284 0.306744 0.831577
O O5 0.477984 0.492976 0.603742
O O6 0.693728 0.583354 0.677344
O O7 0.983133 0.474998 0.623315
O O8 0.179041 0.833522 0.597774
O O9 0.424705 0.935390 0.538672
O O10 0.040893 0.190793 0.598262
O O11 0.426386 0.190034 0.661245
O O12 0.082405 0.727410 0.476512
O O13 0.868340 0.634639 0.543875
O O14 0.365134 0.612017 0.517490
O O15 0.000000 0.607750 0.750000
#
# Coordination Sequence:
#
# PCOD9456372 Si02
#       7
#     8   8   8   8   8   8   8
#     4  11  23  43  65  94 130 173 220 275 325 390
#     4  11  25  41  68  96 131 172 216 270 323 391
#     4  10  21  41  65  96 130 172 216 267 327 381
#     4  10  22  38  63  93 130 172 217 269 327 385
#     4   9  17  32  57  90 127 161 210 264 314 382
#     4   9  18  30  56  93 124 162 212 262 315 383
#     4  12  25  43  65  96 130 172 218 270 330 386
#
# _framework density 26.437497
#
# number of rings (size 3 to 8) (size 9 to 14) (size 15 to 20)
#    0.000    1.714    2.857    1.286    4.000    3.429 
#    0.000    2.143    0.000    5.143    0.000    0.000 
#    0.000    0.000    0.000    0.000    0.000    0.000 
#
# Total GULP energy -313483.953273 kJ/mol
# GULP energy per Si atom -5597.927737 kJ/mol
# Density = 2.637732 g / cm^3
# Si number density = 26.437497 Si / 1000 Ang^3
#
#
#
# Elastic Constant Matrix: (Units=GPa)
#
#
# Indices 1 2 3 4 5 6 
#
# 1 93.7903 14.8915 14.6217 0.0000 0.0000 0.0000
# 2 14.8915 127.4722 27.1172 0.0000 0.0000 0.0000
# 3 14.6217 27.1172 115.7212 0.0000 0.0000 0.0000
# 4 0.0000 0.0000 0.0000 38.7397 0.0000 0.0000
# 5 0.0000 0.0000 0.0000 0.0000 50.7250 0.0000
# 6 0.0000 0.0000 0.0000 0.0000 0.0000 18.0211
#
#
#
# Elastic Compliance Matrix: (Units=1/GPa)
#
#
# Indices 1 2 3 4 5 6 
#
# 1 0.011006 -0.001042 -0.001147 0.000000 0.000000 0.000000
# 2 -0.001042 0.008355 -0.001826 0.000000 0.000000 0.000000
# 3 -0.001147 -0.001826 0.009214 0.000000 0.000000 0.000000
# 4 0.000000 0.000000 0.000000 0.025813 0.000000 0.000000
# 5 0.000000 0.000000 0.000000 0.000000 0.019714 0.000000
# 6 0.000000 0.000000 0.000000 0.000000 0.000000 0.055490
#
#
# Mechanical properties :
#
#
# Convention : Reuss Voigt Hill
#
# Bulk Modulus (GPa) = 48.67047 50.02719 49.34883
# Shear Modulus (GPa) = 34.60892 40.18739 37.39815
#
# Velocity S-wave (km/s) = 3.62205 3.90306 3.76518
# Velocity P-wave (km/s) = 5.99516 6.26704 6.13261
#
# Compressibility (1/GPa) = 0.02054634
#
# Stress axis : x y z
#
# Youngs Moduli (GPa) = 90.85754 119.68800 108.52739
#
# Poissons Ratio (x) = 0.12470 0.12443
# Poissons Ratio (y) = 0.09466 0.19819
# Poissons Ratio (z) = 0.10417 0.21858
#
# Static dielectric constant tensor:
#      x y z
#    x 2.072120 0.000000 0.000000 
#    y 0.000000 2.134770 0.000000 
#    z 0.000000 0.000000 2.025370 
# 
# From -- ./inp_files/25694.got.cif
#   From: 2010.05.17/outbox.cif.g08.bks.cpg/sg60_13_cif.got.tgz:25694.got - 2010.06.03 14:59:27.
