data_PCOD9456784
_publ_section_title
;
Structure prediction by ZEFSAII (Michael W. Deem and Ramdas Pophale) SiO2 
 PCOD9456784
Probable space group: P B C N
;
_chemical_formula_sum "Si O2"
_cell_formula_units_Z 60
_cell_length_a 15.863875
_cell_length_b 12.174224
_cell_length_c 13.210035
_cell_angle_alpha 90.000000
_cell_angle_beta 90.000000
_cell_angle_gamma 90.000000
_cell_volume 2551.258918
_symmetry_space_group_name_H-M "P B C N"
_symmetry_group_IT_number 60
_symmetry_cell_setting 'orthorhombic'
loop_
_space_group_symop_operation_xyz
x,y,z
1/2-x,1/2-y,1/2+z
1/2+x,1/2-y,-z
-x,y,1/2-z
-x,-y,-z
1/2+x,1/2+y,1/2-z
1/2-x,1/2+y,z
x,-y,1/2+z
loop_
_atom_site_type_symbol
_atom_site_label
_atom_site_fract_x
_atom_site_fract_y
_atom_site_fract_z
Si Si1 0.907473 0.532898 0.393494
Si Si2 0.897628 0.869100 0.092631
Si Si3 0.000000 0.993529 0.750000
Si Si4 0.674464 0.808439 0.745183
Si Si5 0.066264 0.376503 0.398698
Si Si6 0.437160 0.701030 0.136045
Si Si7 0.757301 0.489952 0.158601
Si Si8 0.783332 0.641706 0.849952
O O1 0.883049 0.598274 0.293952
O O2 0.925674 0.620473 0.480271
O O3 0.830062 0.448591 0.423346
O O4 0.991248 0.462547 0.376957
O O5 0.872468 0.769923 0.167162
O O6 0.815786 0.948044 0.085648
O O7 0.966633 0.935793 0.156361
O O8 0.921317 0.827021 0.981990
O O9 0.066405 0.909524 0.700398
O O10 0.715539 0.741550 0.839839
O O11 0.737231 0.879955 0.674186
O O12 0.154910 0.426442 0.364031
O O13 0.028475 0.261419 0.360922
O O14 0.366994 0.786844 0.172726
O O15 0.740095 0.439125 0.269410
#
# Coordination Sequence:
#
# PCOD9456784 Si02
#       8
#     8   8   4   8   8   8   8   8
#     4   9  21  38  63  98 133 174 226 286 343 411
#     4  11  27  44  66 106 131 178 241 283 355 432
#     4  12  26  48  68  90 144 182 220 296 346 446
#     4  10  22  40  67  94 140 183 220 288 351 415
#     4  10  22  39  66 102 130 173 239 282 347 420
#     4  11  24  45  73  95 134 186 234 285 357 430
#     4  10  22  42  64  99 137 173 226 287 345 420
#     4   9  20  40  62  94 130 175 225 270 354 402
#
# _framework density 23.517802
#
# number of rings (size 3 to 8) (size 9 to 14) (size 15 to 20)
#    0.000    1.867    0.000    2.000    9.333    5.333 
#    0.000    0.000    0.000    0.000    0.000    0.000 
#    0.000    0.000    0.000    0.000    0.000    0.000 
#
# Total GULP energy -334418.689532 kJ/mol
# GULP energy per Si atom -5573.644826 kJ/mol
# Density = 2.346427 g / cm^3
# Si number density = 23.517802 Si / 1000 Ang^3
#
#
#
# Elastic Constant Matrix: (Units=GPa)
#
#
# Indices 1 2 3 4 5 6 
#
# 1 49.2202 3.8540 12.2401 0.0000 0.0000 0.0000
# 2 3.8540 83.9606 14.4852 0.0000 0.0000 0.0000
# 3 12.2401 14.4852 61.8756 0.0000 0.0000 0.0000
# 4 0.0000 0.0000 0.0000 -12.7459 0.0000 0.0000
# 5 0.0000 0.0000 0.0000 0.0000 27.1032 0.0000
# 6 0.0000 0.0000 0.0000 0.0000 0.0000 -40.4589
#
#
#
# Elastic Compliance Matrix: (Units=1/GPa)
#
#
# Indices 1 2 3 4 5 6 
#
# 1 0.021374 -0.000262 -0.004167 0.000000 0.000000 0.000000
# 2 -0.000262 0.012415 -0.002854 0.000000 0.000000 0.000000
# 3 -0.004167 -0.002854 0.017654 0.000000 0.000000 0.000000
# 4 0.000000 0.000000 0.000000 -0.078457 0.000000 0.000000
# 5 0.000000 0.000000 0.000000 0.000000 0.036896 0.000000
# 6 0.000000 0.000000 0.000000 0.000000 0.000000 -0.024716
#
#
# Mechanical properties :
#
#
# Convention : Reuss Voigt Hill
#
# Bulk Modulus (GPa) = 27.11823 28.46834 27.79328
# Shear Modulus (GPa) = 415.84413 5.74482 210.79448
#
# Velocity S-wave (km/s) = 13.31183 1.56463 9.47768
# Velocity P-wave (km/s) = 15.74259 3.92369 11.47224
#
# Compressibility (1/GPa) = 0.03687556
#
# Stress axis : x y z
#
# Youngs Moduli (GPa) = 46.78672 80.54875 56.64456
#
# Poissons Ratio (x) = 0.02112 0.23602
# Poissons Ratio (y) = 0.01227 0.16169
# Poissons Ratio (z) = 0.19495 0.22992
#
# Static dielectric constant tensor:
#      x y z
#    x 1.958670 0.000000 0.000000 
#    y 0.000000 1.926770 0.000000 
#    z 0.000000 0.000000 1.928360 
# 
# From -- ./inp_files/17456.got.cif
#   From: 2010.05.17/outbox.cif.g08.bks.cpg/sg60_9_cif.got.tgz:17456.got - 2010.06.03 14:59:27.
