data_PCOD9456514
_publ_section_title
;
Structure prediction by ZEFSAII (Michael W. Deem and Ramdas Pophale) SiO2 
 PCOD9456514
Probable space group: P B C N
;
_chemical_formula_sum "Si O2"
_cell_formula_units_Z 48
_cell_length_a 10.317775
_cell_length_b 11.752648
_cell_length_c 14.708444
_cell_angle_alpha 90.000000
_cell_angle_beta 90.000000
_cell_angle_gamma 90.000000
_cell_volume 1783.563242
_symmetry_space_group_name_H-M "P B C N"
_symmetry_group_IT_number 60
_symmetry_cell_setting 'orthorhombic'
loop_
_space_group_symop_operation_xyz
x,y,z
1/2-x,1/2-y,1/2+z
1/2+x,1/2-y,-z
-x,y,1/2-z
-x,-y,-z
1/2+x,1/2+y,1/2-z
1/2-x,1/2+y,z
x,-y,1/2+z
loop_
_atom_site_type_symbol
_atom_site_label
_atom_site_fract_x
_atom_site_fract_y
_atom_site_fract_z
Si Si1 0.190800 0.472751 0.025738
Si Si2 0.393706 0.038897 0.820695
Si Si3 0.818656 0.673484 0.332817
Si Si4 0.630609 0.639036 0.702443
Si Si5 0.946725 0.742224 0.885338
Si Si6 0.545002 0.631340 0.952215
O O1 0.149681 0.565147 0.102281
O O2 0.128871 0.351731 0.053286
O O3 0.140187 0.495759 0.922767
O O4 0.345586 0.464091 0.040542
O O5 0.500000 0.983648 0.750000
O O6 0.254862 0.062307 0.772967
O O7 0.450830 0.164098 0.835081
O O8 0.852174 0.727794 0.232172
O O9 0.663950 0.690128 0.333426
O O10 0.886543 0.771668 0.392261
O O11 0.500000 0.594465 0.750000
O O12 0.593993 0.623923 0.597367
O O13 0.025598 0.826732 0.947009
#
# Coordination Sequence:
#
# PCOD9456514 Si02
#       6
#     8   8   8   8   8   8
#     4  11  25  46  79 117 149 212 275 324 404 511
#     4  12  24  45  77 112 153 202 263 334 397 485
#     4  10  21  43  72 102 151 197 255 320 395 468
#     4  10  23  45  72 106 151 205 251 326 404 465
#     4  11  23  45  71 108 151 198 256 332 392 479
#     4  10  23  43  75 105 155 202 265 326 403 485
#
# _framework density 26.912420000000001
#
# number of rings (size 3 to 8) (size 9 to 14) (size 15 to 20)
#    0.000    1.333    3.333    1.500    2.333    2.667 
#    3.000    0.000   18.333    0.000    0.000    0.000 
#    0.000    0.000    0.000    0.000    0.000    0.000 
#
# Total GULP energy -268042.360301 kJ/mol
# GULP energy per Si atom -5584.215840 kJ/mol
# Density = 2.685117 g / cm^3
# Si number density = 26.912420 Si / 1000 Ang^3
#
#
#
# Elastic Constant Matrix: (Units=GPa)
#
#
# Indices 1 2 3 4 5 6 
#
# 1 130.2901 27.7837 56.6077 0.0000 0.0000 0.0000
# 2 27.7837 76.7715 56.2646 0.0000 0.0000 0.0000
# 3 56.6077 56.2646 151.5320 0.0000 0.0000 0.0000
# 4 0.0000 0.0000 0.0000 44.6903 0.0000 0.0000
# 5 0.0000 0.0000 0.0000 0.0000 41.0069 0.0000
# 6 0.0000 0.0000 0.0000 0.0000 0.0000 -1.6910
#
#
#
# Elastic Compliance Matrix: (Units=1/GPa)
#
#
# Indices 1 2 3 4 5 6 
#
# 1 0.009232 -0.001118 -0.003034 0.000000 0.000000 0.000000
# 2 -0.001118 0.018031 -0.006277 0.000000 0.000000 0.000000
# 3 -0.003034 -0.006277 0.010063 0.000000 0.000000 0.000000
# 4 0.000000 0.000000 0.000000 0.022376 0.000000 0.000000
# 5 0.000000 0.000000 0.000000 0.000000 0.024386 0.000000
# 6 0.000000 0.000000 0.000000 0.000000 0.000000 -0.591377
#
#
# Mechanical properties :
#
#
# Convention : Reuss Voigt Hill
#
# Bulk Modulus (GPa) = 60.72253 71.10062 65.91158
# Shear Modulus (GPa) = -10.39625 31.33042 10.46708
#
# Velocity S-wave (km/s) = -1.96758 3.41568 1.97427
# Velocity P-wave (km/s) = 4.17734 6.48325 5.45356
#
# Compressibility (1/GPa) = 0.01646835
#
# Stress axis : x y z
#
# Youngs Moduli (GPa) = 108.32426 55.46090 99.37026
#
# Poissons Ratio (x) = 0.06198 0.30145
# Poissons Ratio (y) = 0.12106 0.62379
# Poissons Ratio (z) = 0.32862 0.34815
#
# Static dielectric constant tensor:
#      x y z
#    x 2.157550 0.000000 0.000000 
#    y 0.000000 2.100770 0.000000 
#    z 0.000000 0.000000 2.254610 
# 
# From -- ./inp_files/20067.got.cif
#   From: 2010.05.17/outbox.cif.g08.bks.cpg/sg60_11_cif.got.tgz:20067.got - 2010.06.03 14:59:27.
