data_PCOD9456067
_publ_section_title
;
Structure prediction by ZEFSAII (Michael W. Deem and Ramdas Pophale) SiO2 
 PCOD9456067
Probable space group: P B C N
;
_chemical_formula_sum "Si O2"
_cell_formula_units_Z 48
_cell_length_a 12.291679
_cell_length_b 11.447336
_cell_length_c 17.363955
_cell_angle_alpha 90.000000
_cell_angle_beta 90.000000
_cell_angle_gamma 90.000000
_cell_volume 2443.229661
_symmetry_space_group_name_H-M "P B C N"
_symmetry_group_IT_number 60
_symmetry_cell_setting 'orthorhombic'
loop_
_space_group_symop_operation_xyz
x,y,z
1/2-x,1/2-y,1/2+z
1/2+x,1/2-y,-z
-x,y,1/2-z
-x,-y,-z
1/2+x,1/2+y,1/2-z
1/2-x,1/2+y,z
x,-y,1/2+z
loop_
_atom_site_type_symbol
_atom_site_label
_atom_site_fract_x
_atom_site_fract_y
_atom_site_fract_z
Si Si1 0.145917 0.459225 0.067472
Si Si2 0.032628 0.853207 0.340459
Si Si3 0.742575 0.062449 0.697968
Si Si4 0.422225 0.094107 0.400947
Si Si5 0.609838 0.781176 0.294223
Si Si6 0.653025 0.468557 0.853657
O O1 0.139971 0.359844 0.132570
O O2 0.254816 0.534224 0.081194
O O3 0.038805 0.535359 0.083077
O O4 0.139399 0.405902 0.982666
O O5 0.147656 0.918977 0.349883
O O6 0.051636 0.723190 0.370802
O O7 0.000000 0.846200 0.250000
O O8 0.934717 0.931675 0.373694
O O9 0.699971 0.188699 0.728997
O O10 0.781471 0.999144 0.775573
O O11 0.649867 0.986630 0.656255
O O12 0.500000 0.815087 0.250000
O O13 0.598404 0.652522 0.329195
#
# Coordination Sequence:
#
# PCOD9456067 Si02
#       6
#     8   8   8   8   8   8
#     4  10  25  40  60  91 126 173 204 262 311 378
#     4  10  23  40  66  96 124 163 206 267 314 368
#     4  10  21  38  63  97 117 166 206 266 310 367
#     4  11  23  43  61  91 128 165 217 250 318 384
#     4  11  20  38  64  94 122 165 211 260 318 375
#     4  10  23  40  63  93 128 158 212 263 319 370
#
# _framework density 19.646128000000001
#
# number of rings (size 3 to 8) (size 9 to 14) (size 15 to 20)
#    0.000    1.667    1.667    2.500   11.667    1.333 
#    3.000    1.667    0.000    0.000    0.000    0.000 
#    0.000    0.000    0.000    0.000    0.000    0.000 
#
# Total GULP energy -267596.066051 kJ/mol
# GULP energy per Si atom -5574.918043 kJ/mol
# Density = 1.960141 g / cm^3
# Si number density = 19.646128 Si / 1000 Ang^3
#
#
#
# Elastic Constant Matrix: (Units=GPa)
#
#
# Indices 1 2 3 4 5 6 
#
# 1 96.9333 19.8170 33.4539 0.0000 0.0000 0.0000
# 2 19.8170 79.3502 27.2022 0.0000 0.0000 0.0000
# 3 33.4539 27.2022 44.0964 0.0000 0.0000 0.0000
# 4 0.0000 0.0000 0.0000 25.7161 0.0000 0.0000
# 5 0.0000 0.0000 0.0000 0.0000 22.2042 0.0000
# 6 0.0000 0.0000 0.0000 0.0000 0.0000 22.3134
#
#
#
# Elastic Compliance Matrix: (Units=1/GPa)
#
#
# Indices 1 2 3 4 5 6 
#
# 1 0.013978 0.000183 -0.010717 0.000000 0.000000 0.000000
# 2 0.000183 0.015985 -0.010000 0.000000 0.000000 0.000000
# 3 -0.010717 -0.010000 0.036977 0.000000 0.000000 0.000000
# 4 0.000000 0.000000 0.000000 0.038886 0.000000 0.000000
# 5 0.000000 0.000000 0.000000 0.000000 0.045036 0.000000
# 6 0.000000 0.000000 0.000000 0.000000 0.000000 0.044816
#
#
# Mechanical properties :
#
#
# Convention : Reuss Voigt Hill
#
# Bulk Modulus (GPa) = 38.65200 42.36956 40.51078
# Shear Modulus (GPa) = 20.37749 23.37388 21.87568
#
# Velocity S-wave (km/s) = 3.22409 3.45301 3.34051
# Velocity P-wave (km/s) = 5.79453 6.12461 5.96185
#
# Compressibility (1/GPa) = 0.02587188
#
# Stress axis : x y z
#
# Youngs Moduli (GPa) = 71.54262 62.56032 27.04397
#
# Poissons Ratio (x) = -0.01146 0.28984
# Poissons Ratio (y) = -0.01311 0.27043
# Poissons Ratio (z) = 0.76674 0.62558
#
# Static dielectric constant tensor:
#      x y z
#    x 1.716430 0.000000 0.000000 
#    y 0.000000 1.698980 0.000000 
#    z 0.000000 0.000000 1.683990 
# 
# From -- ./inp_files/19987.got.cif
#   From: 2010.05.17/outbox.cif.g08.bks.cpg/sg60_10_cif.got.tgz:19987.got - 2010.06.03 14:59:27.
