data_PCOD9456166
_publ_section_title
;
Structure prediction by ZEFSAII (Michael W. Deem and Ramdas Pophale) SiO2 
 PCOD9456166
Probable space group: P B C N
;
_chemical_formula_sum "Si O2"
_cell_formula_units_Z 36
_cell_length_a 11.761603
_cell_length_b 9.816626
_cell_length_c 10.870859
_cell_angle_alpha 90.000000
_cell_angle_beta 90.000000
_cell_angle_gamma 90.000000
_cell_volume 1255.141312
_symmetry_space_group_name_H-M "P B C N"
_symmetry_group_IT_number 60
_symmetry_cell_setting 'orthorhombic'
loop_
_space_group_symop_operation_xyz
x,y,z
1/2-x,1/2-y,1/2+z
1/2+x,1/2-y,-z
-x,y,1/2-z
-x,-y,-z
1/2+x,1/2+y,1/2-z
1/2-x,1/2+y,z
x,-y,1/2+z
loop_
_atom_site_type_symbol
_atom_site_label
_atom_site_fract_x
_atom_site_fract_y
_atom_site_fract_z
Si Si1 0.424096 0.675867 0.134027
Si Si2 0.201873 0.926891 0.424455
Si Si3 0.500000 0.351692 0.250000
Si Si4 0.368177 0.044783 0.709980
Si Si5 0.614144 0.195682 0.460480
O O1 0.500000 0.634931 0.250000
O O2 0.342913 0.796610 0.182305
O O3 0.359802 0.555119 0.060926
O O4 0.510393 0.756619 0.044322
O O5 0.088251 0.914929 0.345711
O O6 0.288372 0.997825 0.325438
O O7 0.272392 0.788149 0.458369
O O8 0.585780 0.262602 0.332123
O O9 0.500000 0.036319 0.750000
O O10 0.366958 0.961317 0.581838
#
# Coordination Sequence:
#
# PCOD9456166 Si02
#       5
#     8   8   4   8   8
#     4  10  21  39  63  96 133 167 221 274 338 396
#     4  11  23  39  67  94 135 179 214 277 336 405
#     4  10  24  42  64 102 132 172 226 264 342 402
#     4  11  21  39  65 104 131 165 227 281 335 384
#     4  11  21  38  67  99 132 169 220 286 329 385
#
# _framework density 28.682027999999999
#
# number of rings (size 3 to 8) (size 9 to 14) (size 15 to 20)
#    0.000    1.333    5.556    2.000    0.000    0.000 
#    0.000    1.111    2.444    0.000    2.889    0.000 
#    0.000    0.000    0.000    0.000    0.000    0.000 
#
# Total GULP energy -200800.403039 kJ/mol
# GULP energy per Si atom -5577.788973 kJ/mol
# Density = 2.861675 g / cm^3
# Si number density = 28.682028 Si / 1000 Ang^3
#
#
#
# Elastic Constant Matrix: (Units=GPa)
#
#
# Indices 1 2 3 4 5 6 
#
# 1 185.9418 31.2761 41.6495 0.0000 0.0000 0.0000
# 2 31.2761 70.1364 50.5096 0.0000 0.0000 0.0000
# 3 41.6495 50.5096 207.7786 0.0000 0.0000 0.0000
# 4 0.0000 0.0000 0.0000 -127.2549 0.0000 0.0000
# 5 0.0000 0.0000 0.0000 0.0000 70.9848 0.0000
# 6 0.0000 0.0000 0.0000 0.0000 0.0000 12.1148
#
#
#
# Elastic Compliance Matrix: (Units=1/GPa)
#
#
# Indices 1 2 3 4 5 6 
#
# 1 0.005887 -0.002152 -0.000657 0.000000 0.000000 0.000000
# 2 -0.002152 0.018071 -0.003961 0.000000 0.000000 0.000000
# 3 -0.000657 -0.003961 0.005907 0.000000 0.000000 0.000000
# 4 0.000000 0.000000 0.000000 -0.007858 0.000000 0.000000
# 5 0.000000 0.000000 0.000000 0.000000 0.014088 0.000000
# 6 0.000000 0.000000 0.000000 0.000000 0.000000 0.082544
#
#
# Mechanical properties :
#
#
# Convention : Reuss Voigt Hill
#
# Bulk Modulus (GPa) = 61.25898 78.96971 70.11434
# Shear Modulus (GPa) = 36.33180 13.86372 25.09776
#
# Velocity S-wave (km/s) = 3.56295 2.20093 2.96131
# Velocity P-wave (km/s) = 6.19116 5.83536 6.01589
#
# Compressibility (1/GPa) = 0.01632414
#
# Stress axis : x y z
#
# Youngs Moduli (GPa) = 169.86070 55.33875 169.27673
#
# Poissons Ratio (x) = 0.11910 0.11120
# Poissons Ratio (y) = 0.36557 0.67057
# Poissons Ratio (z) = 0.11158 0.21922
#
# Static dielectric constant tensor:
#      x y z
#    x 2.298140 0.000000 0.000000 
#    y 0.000000 2.316810 0.000000 
#    z 0.000000 0.000000 2.432830 
# 
# From -- ./inp_files/10687.got.cif
#   From: 2010.05.17/outbox.cif.g08.bks.cpg/sg60_6_cif.got.tgz:10687.got - 2010.06.03 14:59:27.
