data_PCOD9456433
_publ_section_title
;
Structure prediction by ZEFSAII (Michael W. Deem and Ramdas Pophale) SiO2 
 PCOD9456433
Probable space group: P B C N
;
_chemical_formula_sum "Si O2"
_cell_formula_units_Z 64
_cell_length_a 17.006394
_cell_length_b 11.726537
_cell_length_c 14.767638
_cell_angle_alpha 90.000000
_cell_angle_beta 90.000000
_cell_angle_gamma 90.000000
_cell_volume 2945.052578
_symmetry_space_group_name_H-M "P B C N"
_symmetry_group_IT_number 60
_symmetry_cell_setting 'orthorhombic'
loop_
_space_group_symop_operation_xyz
x,y,z
1/2-x,1/2-y,1/2+z
1/2+x,1/2-y,-z
-x,y,1/2-z
-x,-y,-z
1/2+x,1/2+y,1/2-z
1/2-x,1/2+y,z
x,-y,1/2+z
loop_
_atom_site_type_symbol
_atom_site_label
_atom_site_fract_x
_atom_site_fract_y
_atom_site_fract_z
Si Si1 0.134820 0.066748 0.741190
Si Si2 0.782624 0.961447 0.004730
Si Si3 0.466329 0.058506 0.648424
Si Si4 0.799205 0.452759 0.333952
Si Si5 0.148366 0.764491 0.402068
Si Si6 0.991376 0.338656 0.963233
Si Si7 0.749273 0.917254 0.677935
Si Si8 0.562725 0.579806 0.947919
O O1 0.114900 0.150123 0.824248
O O2 0.073933 0.054824 0.659650
O O3 0.311192 0.953384 0.744371
O O4 0.164772 0.944394 0.780238
O O5 0.823774 0.840031 0.013595
O O6 0.741740 0.989755 0.098811
O O7 0.724143 0.980397 0.923780
O O8 0.853309 0.051054 0.992081
O O9 0.500000 0.058663 0.750000
O O10 0.513880 0.119311 0.567163
O O11 0.379245 0.113618 0.653431
O O12 0.456889 0.930836 0.606758
O O13 0.718805 0.390012 0.302173
O O14 0.082677 0.676146 0.433314
O O15 0.224454 0.701703 0.362327
O O16 0.956849 0.212337 0.956337
O O17 0.500000 0.500000 0.000000
#
# Coordination Sequence:
#
# PCOD9456433 Si02
#       8
#     8   8   8   8   8   8   8   8
#     4   8  22  39  62  96 127 170 223 278 338 395
#     4  10  21  42  62  96 137 170 220 288 332 409
#     4  11  25  47  65 102 140 178 239 285 349 414
#     4   9  20  42  64  88 132 171 219 286 333 396
#     4  11  20  42  67  99 129 177 232 277 343 416
#     4  11  26  41  72 100 134 191 222 286 352 419
#     4   9  20  38  60  96 124 165 218 278 329 393
#     4  11  22  43  62  97 139 173 225 276 341 420
#
# _framework density 21.731359999999999
#
# number of rings (size 3 to 8) (size 9 to 14) (size 15 to 20)
#    0.750    1.250    1.250    1.500    3.500    2.000 
#    9.000    1.250    0.000    0.000    0.000    0.000 
#    0.000    0.000    0.000    0.000    0.000    0.000 
#
# Total GULP energy -356741.125062 kJ/mol
# GULP energy per Si atom -5574.080079 kJ/mol
# Density = 2.168190 g / cm^3
# Si number density = 21.731360 Si / 1000 Ang^3
#
#
#
# Elastic Constant Matrix: (Units=GPa)
#
#
# Indices 1 2 3 4 5 6 
#
# 1 66.2857 17.0863 34.0360 0.0000 0.0000 0.0000
# 2 17.0863 72.7060 17.4812 0.0000 0.0000 0.0000
# 3 34.0360 17.4812 141.0104 0.0000 0.0000 0.0000
# 4 0.0000 0.0000 0.0000 20.5950 0.0000 0.0000
# 5 0.0000 0.0000 0.0000 0.0000 -84.6231 0.0000
# 6 0.0000 0.0000 0.0000 0.0000 0.0000 26.8174
#
#
#
# Elastic Compliance Matrix: (Units=1/GPa)
#
#
# Indices 1 2 3 4 5 6 
#
# 1 0.017946 -0.003273 -0.003926 0.000000 0.000000 0.000000
# 2 -0.003273 0.014774 -0.001041 0.000000 0.000000 0.000000
# 3 -0.003926 -0.001041 0.008168 0.000000 0.000000 0.000000
# 4 0.000000 0.000000 0.000000 0.048556 0.000000 0.000000
# 5 0.000000 0.000000 0.000000 0.000000 -0.011817 0.000000
# 6 0.000000 0.000000 0.000000 0.000000 0.000000 0.037289
#
#
# Mechanical properties :
#
#
# Convention : Reuss Voigt Hill
#
# Bulk Modulus (GPa) = 40.97260 46.35657 43.66459
# Shear Modulus (GPa) = 35.83398 6.65109 21.24253
#
# Velocity S-wave (km/s) = 4.06514 1.75135 3.12990
# Velocity P-wave (km/s) = 6.39756 5.04654 5.76179
#
# Compressibility (1/GPa) = 0.02440655
#
# Stress axis : x y z
#
# Youngs Moduli (GPa) = 55.72334 67.68792 122.42361
#
# Poissons Ratio (x) = 0.22157 0.48061
# Poissons Ratio (y) = 0.18241 0.12749
# Poissons Ratio (z) = 0.21876 0.07049
#
# Static dielectric constant tensor:
#      x y z
#    x 1.814060 0.000000 0.000000 
#    y 0.000000 1.780820 0.000000 
#    z 0.000000 0.000000 1.812320 
# 
# From -- ./inp_files/17498.got.cif
#   From: 2010.05.17/outbox.cif.g08.bks.cpg/sg60_9_cif.got.tgz:17498.got - 2010.06.03 14:59:27.
