data_PCOD9456420
_publ_section_title
;
Structure prediction by ZEFSAII (Michael W. Deem and Ramdas Pophale) SiO2 
 PCOD9456420
Probable space group: P B C N
;
_chemical_formula_sum "Si O2"
_cell_formula_units_Z 40
_cell_length_a 8.648366
_cell_length_b 14.069676
_cell_length_c 12.898951
_cell_angle_alpha 90.000000
_cell_angle_beta 90.000000
_cell_angle_gamma 90.000000
_cell_volume 1569.540585
_symmetry_space_group_name_H-M "P B C N"
_symmetry_group_IT_number 60
_symmetry_cell_setting 'orthorhombic'
loop_
_space_group_symop_operation_xyz
x,y,z
1/2-x,1/2-y,1/2+z
1/2+x,1/2-y,-z
-x,y,1/2-z
-x,-y,-z
1/2+x,1/2+y,1/2-z
1/2-x,1/2+y,z
x,-y,1/2+z
loop_
_atom_site_type_symbol
_atom_site_label
_atom_site_fract_x
_atom_site_fract_y
_atom_site_fract_z
Si Si1 0.820893 0.230644 0.775462
Si Si2 0.785424 0.097004 0.176653
Si Si3 0.866131 0.680627 0.969118
Si Si4 0.833670 0.403274 0.112078
Si Si5 0.430605 0.398904 0.543829
O O1 0.770631 0.340709 0.772996
O O2 0.770307 0.189515 0.885151
O O3 0.720889 0.184414 0.683144
O O4 0.000000 0.217097 0.750000
O O5 0.966167 0.099989 0.147994
O O6 0.719720 0.991549 0.181435
O O7 0.697681 0.140934 0.076101
O O8 0.944211 0.784780 0.983617
O O9 0.990282 0.610943 0.917425
O O10 0.741777 0.410297 0.003274
O O11 0.500000 0.500000 0.500000
#
# Coordination Sequence:
#
# PCOD9456420 Si02
#       5
#     8   8   8   8   8
#     4  12  27  45  69 103 144 188 241 292 351 423
#     4  11  25  47  70 105 143 183 234 292 358 425
#     4  12  23  45  76 101 142 191 233 296 357 419
#     4  11  24  46  70 106 138 184 240 292 356 427
#     4  10  21  41  73 100 136 179 231 282 359 417
#
# _framework density 25.485167000000001
#
# number of rings (size 3 to 8) (size 9 to 14) (size 15 to 20)
#    0.000    0.800    4.000    2.400    2.800    1.600 
#   14.400    0.000    0.000    0.000    0.000    0.000 
#    0.000    0.000    0.000    0.000    0.000    0.000 
#
# Total GULP energy -223381.430559 kJ/mol
# GULP energy per Si atom -5584.535764 kJ/mol
# Density = 2.542716 g / cm^3
# Si number density = 25.485167 Si / 1000 Ang^3
#
#
#
# Elastic Constant Matrix: (Units=GPa)
#
#
# Indices 1 2 3 4 5 6 
#
# 1 114.6610 -10.7129 14.5460 0.0000 0.0000 0.0000
# 2 -10.7129 72.9244 -16.2801 0.0000 0.0000 0.0000
# 3 14.5460 -16.2801 55.2893 0.0000 0.0000 0.0000
# 4 0.0000 0.0000 0.0000 17.9669 0.0000 0.0000
# 5 0.0000 0.0000 0.0000 0.0000 20.3922 0.0000
# 6 0.0000 0.0000 0.0000 0.0000 0.0000 36.5775
#
#
#
# Elastic Compliance Matrix: (Units=1/GPa)
#
#
# Indices 1 2 3 4 5 6 
#
# 1 0.009072 0.000856 -0.002135 0.000000 0.000000 0.000000
# 2 0.000856 0.014758 0.004120 0.000000 0.000000 0.000000
# 3 -0.002135 0.004120 0.019862 0.000000 0.000000 0.000000
# 4 0.000000 0.000000 0.000000 0.055658 0.000000 0.000000
# 5 0.000000 0.000000 0.000000 0.000000 0.049038 0.000000
# 6 0.000000 0.000000 0.000000 0.000000 0.000000 0.027339
#
#
# Mechanical properties :
#
#
# Convention : Reuss Voigt Hill
#
# Bulk Modulus (GPa) = 20.25274 24.22009 22.23641
# Shear Modulus (GPa) = 26.80932 32.00878 29.40905
#
# Velocity S-wave (km/s) = 3.24691 3.54782 3.40069
# Velocity P-wave (km/s) = 4.69262 5.12903 4.91567
#
# Compressibility (1/GPa) = 0.04937603
#
# Stress axis : x y z
#
# Youngs Moduli (GPa) = 110.22735 67.75771 50.34850
#
# Poissons Ratio (x) = -0.05801 0.10748
# Poissons Ratio (y) = -0.09437 -0.20746
# Poissons Ratio (z) = 0.23530 -0.27919
#
# Static dielectric constant tensor:
#      x y z
#    x 2.015690 0.000000 0.000000 
#    y 0.000000 2.026500 0.000000 
#    z 0.000000 0.000000 2.596860 
# 
# From -- ./inp_files/14675.got.cif
#   From: 2010.05.17/outbox.cif.g08.bks.cpg/sg60_8_cif.got.tgz:14675.got - 2010.06.03 14:59:27.
