data_PCOD9456899
_publ_section_title
;
Structure prediction by ZEFSAII (Michael W. Deem and Ramdas Pophale) SiO2 
 PCOD9456899
Probable space group: P B C N
;
_chemical_formula_sum "Si O2"
_cell_formula_units_Z 40
_cell_length_a 8.555896
_cell_length_b 22.416636
_cell_length_c 9.124505
_cell_angle_alpha 90.000000
_cell_angle_beta 90.000000
_cell_angle_gamma 90.000000
_cell_volume 1750.029019
_symmetry_space_group_name_H-M "P B C N"
_symmetry_group_IT_number 60
_symmetry_cell_setting 'orthorhombic'
loop_
_space_group_symop_operation_xyz
x,y,z
1/2-x,1/2-y,1/2+z
1/2+x,1/2-y,-z
-x,y,1/2-z
-x,-y,-z
1/2+x,1/2+y,1/2-z
1/2-x,1/2+y,z
x,-y,1/2+z
loop_
_atom_site_type_symbol
_atom_site_label
_atom_site_fract_x
_atom_site_fract_y
_atom_site_fract_z
Si Si1 0.313214 0.425868 0.227799
Si Si2 0.232899 0.177574 0.103052
Si Si3 0.188047 0.794872 0.265236
Si Si4 0.734768 0.020375 0.073078
Si Si5 0.000000 0.090796 0.250000
Si Si6 0.000000 0.401231 0.750000
O O1 0.500000 0.425986 0.250000
O O2 0.269631 0.358090 0.190564
O O3 0.235663 0.452113 0.374709
O O4 0.260770 0.469212 0.097426
O O5 0.227414 0.238481 0.195891
O O6 0.089239 0.134077 0.138221
O O7 0.381578 0.140981 0.161850
O O8 0.231907 0.195896 0.934319
O O9 0.000000 0.786370 0.250000
O O10 0.588236 0.056268 0.135050
O O11 0.882122 0.050540 0.156660
#
# Coordination Sequence:
#
# PCOD9456899 Si02
#       6
#     8   8   8   8   4   4
#     4  11  24  42  71 100 134 179 238 284 339 410
#     4  11  25  45  71 101 142 183 231 285 344 413
#     4  11  26  44  70 102 140 177 233 281 344 408
#     4  11  24  44  68  99 139 180 232 285 342 409
#     4  10  22  40  72  94 134 188 232 282 338 402
#     4  10  26  46  70  98 148 182 228 282 354 406
#
# _framework density 22.856762
#
# number of rings (size 3 to 8) (size 9 to 14) (size 15 to 20)
#    0.000    1.200    2.000    3.000   14.000    0.800 
#    0.000    0.000    0.000    0.000    0.000    0.000 
#    0.000    0.000    0.000    0.000    0.000    0.000 
#
# Total GULP energy -224161.954109 kJ/mol
# GULP energy per Si atom -5604.048853 kJ/mol
# Density = 2.280474 g / cm^3
# Si number density = 22.856762 Si / 1000 Ang^3
#
#
#
# Elastic Constant Matrix: (Units=GPa)
#
#
# Indices 1 2 3 4 5 6 
#
# 1 54.4619 21.9593 17.4177 0.0000 0.0000 0.0000
# 2 21.9593 114.9600 -0.7317 0.0000 0.0000 0.0000
# 3 17.4177 -0.7317 91.7887 0.0000 0.0000 0.0000
# 4 0.0000 0.0000 0.0000 35.8115 0.0000 0.0000
# 5 0.0000 0.0000 0.0000 0.0000 17.9494 0.0000
# 6 0.0000 0.0000 0.0000 0.0000 0.0000 9.5741
#
#
#
# Elastic Compliance Matrix: (Units=1/GPa)
#
#
# Indices 1 2 3 4 5 6 
#
# 1 0.021318 -0.004098 -0.004078 0.000000 0.000000 0.000000
# 2 -0.004098 0.009487 0.000853 0.000000 0.000000 0.000000
# 3 -0.004078 0.000853 0.011675 0.000000 0.000000 0.000000
# 4 0.000000 0.000000 0.000000 0.027924 0.000000 0.000000
# 5 0.000000 0.000000 0.000000 0.000000 0.055712 0.000000
# 6 0.000000 0.000000 0.000000 0.000000 0.000000 0.104449
#
#
# Mechanical properties :
#
#
# Convention : Reuss Voigt Hill
#
# Bulk Modulus (GPa) = 35.92642 37.61124 36.76883
# Shear Modulus (GPa) = 19.64723 27.50469 23.57596
#
# Velocity S-wave (km/s) = 2.93504 3.47270 3.21513
# Velocity P-wave (km/s) = 5.21902 5.70705 5.46848
#
# Compressibility (1/GPa) = 0.02783467
#
# Stress axis : x y z
#
# Youngs Moduli (GPa) = 46.90869 105.40845 85.65155
#
# Poissons Ratio (x) = 0.43197 0.34928
# Poissons Ratio (y) = 0.19223 -0.07308
# Poissons Ratio (z) = 0.19129 -0.08994
#
# Static dielectric constant tensor:
#      x y z
#    x 1.852220 0.000000 0.000000 
#    y 0.000000 1.844730 0.000000 
#    z 0.000000 0.000000 1.837950 
# 
# From -- ./inp_files/3890.got.cif
#   From: 2010.05.17/outbox.cif.g08.bks.cpg/sg60_2_cif.got.tgz:3890.got - 2010.06.03 14:59:27.
