data_PCOD9456227
_publ_section_title
;
Structure prediction by ZEFSAII (Michael W. Deem and Ramdas Pophale) SiO2 
 PCOD9456227
Probable space group: P B C N
;
_chemical_formula_sum "Si O2"
_cell_formula_units_Z 64
_cell_length_a 10.161399
_cell_length_b 14.489139
_cell_length_c 21.225916
_cell_angle_alpha 90.000000
_cell_angle_beta 90.000000
_cell_angle_gamma 90.000000
_cell_volume 3125.089969
_symmetry_space_group_name_H-M "P B C N"
_symmetry_group_IT_number 60
_symmetry_cell_setting 'orthorhombic'
loop_
_space_group_symop_operation_xyz
x,y,z
1/2-x,1/2-y,1/2+z
1/2+x,1/2-y,-z
-x,y,1/2-z
-x,-y,-z
1/2+x,1/2+y,1/2-z
1/2-x,1/2+y,z
x,-y,1/2+z
loop_
_atom_site_type_symbol
_atom_site_label
_atom_site_fract_x
_atom_site_fract_y
_atom_site_fract_z
Si Si1 0.663593 0.534281 0.930070
Si Si2 0.956342 0.480319 0.429727
Si Si3 0.671216 0.043526 0.168637
Si Si4 0.802289 0.339772 0.209978
Si Si5 0.436303 0.763814 0.812901
Si Si6 0.096718 0.086107 0.427411
Si Si7 0.486249 0.771825 0.114658
Si Si8 0.294338 0.281694 0.150553
O O1 0.537673 0.470955 0.917461
O O2 0.668035 0.623897 0.885405
O O3 0.806179 0.489453 0.920171
O O4 0.653123 0.563068 0.003652
O O5 0.054025 0.525687 0.380283
O O6 0.970504 0.370384 0.418648
O O7 0.000000 0.500000 0.500000
O O8 0.632657 0.138776 0.202536
O O9 0.801358 0.059567 0.127340
O O10 0.684182 0.950392 0.209014
O O11 0.679549 0.304980 0.166170
O O12 0.932585 0.294788 0.179035
O O13 0.761435 0.306312 0.279345
O O14 0.500000 0.721644 0.750000
O O15 0.569192 0.774540 0.852899
O O16 0.066393 0.194481 0.422124
O O17 0.336509 0.736851 0.121807
#
# Coordination Sequence:
#
# PCOD9456227 Si02
#       8
#     8   8   8   8   8   8   8   8
#     4  10  23  41  62  89 129 162 206 261 307 378
#     4  10  21  40  59  90 120 159 204 257 307 371
#     4  11  22  38  68  90 124 162 207 260 322 368
#     4  10  21  42  64  91 126 160 204 264 315 375
#     4  10  22  39  63  93 121 157 210 254 307 379
#     4  11  22  42  60  93 123 164 210 251 313 378
#     4  10  22  39  63  88 123 166 203 255 317 365
#     4  10  22  42  61  91 127 161 204 259 311 370
#
# _framework density 20.479410999999999
#
# number of rings (size 3 to 8) (size 9 to 14) (size 15 to 20)
#    0.000    1.750    2.500    1.125    1.750    4.000 
#    4.500    0.000    0.000    0.000    0.000    0.000 
#    0.000    0.000    0.000    0.000    0.000    0.000 
#
# Total GULP energy -356875.366430 kJ/mol
# GULP energy per Si atom -5576.177600 kJ/mol
# Density = 2.043280 g / cm^3
# Si number density = 20.479411 Si / 1000 Ang^3
#
#
#
# Elastic Constant Matrix: (Units=GPa)
#
#
# Indices 1 2 3 4 5 6 
#
# 1 122.2496 19.0304 -4.3360 0.0000 0.0000 0.0000
# 2 19.0304 49.6349 -5.4729 0.0000 0.0000 0.0000
# 3 -4.3360 -5.4729 17.6015 0.0000 0.0000 0.0000
# 4 0.0000 0.0000 0.0000 17.6867 0.0000 0.0000
# 5 0.0000 0.0000 0.0000 0.0000 22.5894 0.0000
# 6 0.0000 0.0000 0.0000 0.0000 0.0000 35.0217
#
#
#
# Elastic Compliance Matrix: (Units=1/GPa)
#
#
# Indices 1 2 3 4 5 6 
#
# 1 0.008722 -0.003217 0.001148 0.000000 0.000000 0.000000
# 2 -0.003217 0.022049 0.006063 0.000000 0.000000 0.000000
# 3 0.001148 0.006063 0.058981 0.000000 0.000000 0.000000
# 4 0.000000 0.000000 0.000000 0.056540 0.000000 0.000000
# 5 0.000000 0.000000 0.000000 0.000000 0.044269 0.000000
# 6 0.000000 0.000000 0.000000 0.000000 0.000000 0.028554
#
#
# Mechanical properties :
#
#
# Convention : Reuss Voigt Hill
#
# Bulk Modulus (GPa) = 10.23118 23.10321 16.66720
# Shear Modulus (GPa) = 20.51652 27.07720 23.79686
#
# Velocity S-wave (km/s) = 3.16858 3.64011 3.41249
# Velocity P-wave (km/s) = 4.28873 5.38264 4.86652
#
# Compressibility (1/GPa) = 0.09774041
#
# Stress axis : x y z
#
# Youngs Moduli (GPa) = 114.65854 45.35305 16.95450
#
# Poissons Ratio (x) = 0.14592 -0.01947
# Poissons Ratio (y) = 0.36889 -0.10280
# Poissons Ratio (z) = -0.13164 -0.27499
#
# Static dielectric constant tensor:
#      x y z
#    x 1.794300 0.000000 0.000000 
#    y 0.000000 1.712720 0.000000 
#    z 0.000000 0.000000 1.755910 
# 
# From -- ./inp_files/24104.got.cif
#   From: 2010.05.17/outbox.cif.g08.bks.cpg/sg60_13_cif.got.tgz:24104.got - 2010.06.03 14:59:27.
