data_PCOD9456655
_publ_section_title
;
Structure prediction by ZEFSAII (Michael W. Deem and Ramdas Pophale) SiO2 
 PCOD9456655
Probable space group: P B C N
;
_chemical_formula_sum "Si O2"
_cell_formula_units_Z 56
_cell_length_a 20.098489
_cell_length_b 13.932318
_cell_length_c 8.104917
_cell_angle_alpha 90.000000
_cell_angle_beta 90.000000
_cell_angle_gamma 90.000000
_cell_volume 2269.527026
_symmetry_space_group_name_H-M "P B C N"
_symmetry_group_IT_number 60
_symmetry_cell_setting 'orthorhombic'
loop_
_space_group_symop_operation_xyz
x,y,z
1/2-x,1/2-y,1/2+z
1/2+x,1/2-y,-z
-x,y,1/2-z
-x,-y,-z
1/2+x,1/2+y,1/2-z
1/2-x,1/2+y,z
x,-y,1/2+z
loop_
_atom_site_type_symbol
_atom_site_label
_atom_site_fract_x
_atom_site_fract_y
_atom_site_fract_z
Si Si1 0.151276 0.703461 0.909351
Si Si2 0.830193 0.579753 0.056380
Si Si3 0.941320 0.126896 0.137593
Si Si4 0.241971 0.256056 0.124398
Si Si5 0.420370 0.965665 0.253120
Si Si6 0.107787 0.064404 0.688776
Si Si7 0.795224 0.938205 0.024762
O O1 0.115208 0.795355 0.836756
O O2 0.180585 0.739796 0.082640
O O3 0.215413 0.692159 0.788710
O O4 0.102485 0.613103 0.891537
O O5 0.789761 0.676035 0.018563
O O6 0.878271 0.561963 0.210702
O O7 0.773892 0.494998 0.063423
O O8 0.885230 0.573300 0.910900
O O9 0.000000 0.167481 0.250000
O O10 0.927286 0.024633 0.220648
O O11 0.944142 0.115627 0.937186
O O12 0.217861 0.146640 0.104121
O O13 0.500000 0.975743 0.250000
O O14 0.155856 0.103448 0.833292
O O15 0.161422 0.020342 0.562448
#
# Coordination Sequence:
#
# PCOD9456655 Si02
#       7
#     8   8   8   8   8   8   8
#     4  11  24  41  63  93 124 167 211 272 331 386
#     4  11  24  40  66  95 125 169 213 269 334 383
#     4  11  22  40  61  90 127 173 216 253 315 393
#     4  11  24  39  65  92 130 156 213 274 334 385
#     4  11  24  44  64  90 129 177 217 260 318 403
#     4  10  22  37  65  91 127 169 206 264 328 380
#     4  11  21  41  62  96 130 155 212 274 328 386
#
# _framework density 24.674742999999999
#
# number of rings (size 3 to 8) (size 9 to 14) (size 15 to 20)
#    0.000    1.143    2.857    3.857    6.000    0.000 
#    0.000    0.000    0.000    0.000    0.000    0.000 
#    0.000    0.000    0.000    0.000    0.000    0.000 
#
# Total GULP energy -312365.697101 kJ/mol
# GULP energy per Si atom -5577.958877 kJ/mol
# Density = 2.461858 g / cm^3
# Si number density = 24.674743 Si / 1000 Ang^3
#
#
#
# Elastic Constant Matrix: (Units=GPa)
#
#
# Indices 1 2 3 4 5 6 
#
# 1 87.3447 27.0072 10.5941 0.0000 0.0000 0.0000
# 2 27.0072 75.8649 -18.4516 0.0000 0.0000 0.0000
# 3 10.5941 -18.4516 37.9420 0.0000 0.0000 0.0000
# 4 0.0000 0.0000 0.0000 30.5734 0.0000 0.0000
# 5 0.0000 0.0000 0.0000 0.0000 30.6014 0.0000
# 6 0.0000 0.0000 0.0000 0.0000 0.0000 36.3253
#
#
#
# Elastic Compliance Matrix: (Units=1/GPa)
#
#
# Indices 1 2 3 4 5 6 
#
# 1 0.014508 -0.006975 -0.007443 0.000000 0.000000 0.000000
# 2 -0.006975 0.018303 0.010849 0.000000 0.000000 0.000000
# 3 -0.007443 0.010849 0.033710 0.000000 0.000000 0.000000
# 4 0.000000 0.000000 0.000000 0.032708 0.000000 0.000000
# 5 0.000000 0.000000 0.000000 0.000000 0.032678 0.000000
# 6 0.000000 0.000000 0.000000 0.000000 0.000000 0.027529
#
#
# Mechanical properties :
#
#
# Convention : Reuss Voigt Hill
#
# Bulk Modulus (GPa) = 16.84014 26.60567 21.72290
# Shear Modulus (GPa) = 26.82832 31.63349 29.23090
#
# Velocity S-wave (km/s) = 3.30097 3.58441 3.44561
# Velocity P-wave (km/s) = 4.62257 5.28551 4.96512
#
# Compressibility (1/GPa) = 0.05938194
#
# Stress axis : x y z
#
# Youngs Moduli (GPa) = 68.92565 54.63606 29.66474
#
# Poissons Ratio (x) = 0.38109 0.22080
# Poissons Ratio (y) = 0.48077 -0.32182
# Poissons Ratio (z) = 0.51302 -0.59272
#
# Static dielectric constant tensor:
#      x y z
#    x 2.005570 0.000000 0.000000 
#    y 0.000000 1.941090 0.000000 
#    z 0.000000 0.000000 2.068700 
# 
# From -- ./inp_files/7432.got.cif
#   From: 2010.05.17/outbox.cif.g08.bks.cpg/sg60_4_cif.got.tgz:7432.got - 2010.06.03 14:59:27.
