data_PCOD9456762
_publ_section_title
;
Structure prediction by ZEFSAII (Michael W. Deem and Ramdas Pophale) SiO2 
 PCOD9456762
Probable space group: P B C N
;
_chemical_formula_sum "Si O2"
_cell_formula_units_Z 40
_cell_length_a 19.821160
_cell_length_b 18.207163
_cell_length_c 5.317840
_cell_angle_alpha 90.000000
_cell_angle_beta 90.000000
_cell_angle_gamma 90.000000
_cell_volume 1919.139808
_symmetry_space_group_name_H-M "P B C N"
_symmetry_group_IT_number 60
_symmetry_cell_setting 'orthorhombic'
loop_
_space_group_symop_operation_xyz
x,y,z
1/2-x,1/2-y,1/2+z
1/2+x,1/2-y,-z
-x,y,1/2-z
-x,-y,-z
1/2+x,1/2+y,1/2-z
1/2-x,1/2+y,z
x,-y,1/2+z
loop_
_atom_site_type_symbol
_atom_site_label
_atom_site_fract_x
_atom_site_fract_y
_atom_site_fract_z
Si Si1 0.596697 0.321751 0.116778
Si Si2 0.242432 0.204214 0.048343
Si Si3 0.114831 0.678330 0.077552
Si Si4 0.000000 0.727663 0.750000
Si Si5 0.500000 0.549666 0.750000
Si Si6 0.580310 0.961986 0.706389
O O1 0.668813 0.331338 0.980189
O O2 0.611354 0.262880 0.336013
O O3 0.563817 0.395394 0.223399
O O4 0.542137 0.280744 0.937477
O O5 0.246784 0.267794 0.834061
O O6 0.310404 0.159646 0.985529
O O7 0.097791 0.623701 0.302809
O O8 0.054284 0.674949 0.881755
O O9 0.500000 0.500000 0.500000
O O10 0.500000 0.968668 0.750000
O O11 0.607100 0.003990 0.465525
#
# Coordination Sequence:
#
# PCOD9456762 Si02
#       6
#     8   8   8   4   4   8
#     4  11  23  41  65  97 127 172 220 277 332 391
#     4  10  22  39  62  96 132 163 213 277 332 382
#     4  11  23  38  66  97 126 171 221 269 320 391
#     4  12  19  36  68  99 122 160 226 268 315 378
#     4  12  27  44  66  99 134 170 222 284 339 396
#     4  10  23  38  56  89 130 167 201 255 312 373
#
# _framework density 20.842673000000001
#
# number of rings (size 3 to 8) (size 9 to 14) (size 15 to 20)
#    0.000    1.200    4.000    1.800    7.000    0.000 
#    0.000    2.000    0.000    0.000    0.000    0.000 
#    0.000    0.000    0.000    0.000    0.000    0.000 
#
# Total GULP energy -223229.848208 kJ/mol
# GULP energy per Si atom -5580.746205 kJ/mol
# Density = 2.079523 g / cm^3
# Si number density = 20.842673 Si / 1000 Ang^3
#
#
#
# Elastic Constant Matrix: (Units=GPa)
#
#
# Indices 1 2 3 4 5 6 
#
# 1 137.9624 18.3776 30.2509 0.0000 0.0000 0.0000
# 2 18.3776 95.9965 33.7876 0.0000 0.0000 0.0000
# 3 30.2509 33.7876 74.3494 0.0000 0.0000 0.0000
# 4 0.0000 0.0000 0.0000 33.4697 0.0000 0.0000
# 5 0.0000 0.0000 0.0000 0.0000 24.4368 0.0000
# 6 0.0000 0.0000 0.0000 0.0000 0.0000 9.6165
#
#
#
# Elastic Compliance Matrix: (Units=1/GPa)
#
#
# Indices 1 2 3 4 5 6 
#
# 1 0.007975 -0.000458 -0.003037 0.000000 0.000000 0.000000
# 2 -0.000458 0.012427 -0.005461 0.000000 0.000000 0.000000
# 3 -0.003037 -0.005461 0.017167 0.000000 0.000000 0.000000
# 4 0.000000 0.000000 0.000000 0.029878 0.000000 0.000000
# 5 0.000000 0.000000 0.000000 0.000000 0.040922 0.000000
# 6 0.000000 0.000000 0.000000 0.000000 0.000000 0.103988
#
#
# Mechanical properties :
#
#
# Convention : Reuss Voigt Hill
#
# Bulk Modulus (GPa) = 50.87005 52.57116 51.72061
# Shear Modulus (GPa) = 21.11296 28.56406 24.83851
#
# Velocity S-wave (km/s) = 3.18617 3.70599 3.45587
# Velocity P-wave (km/s) = 6.16403 6.60228 6.38691
#
# Compressibility (1/GPa) = 0.01965793
#
# Stress axis : x y z
#
# Youngs Moduli (GPa) = 125.38820 80.47128 58.25025
#
# Poissons Ratio (x) = 0.03685 0.17690
# Poissons Ratio (y) = 0.05742 0.31810
# Poissons Ratio (z) = 0.38078 0.43945
#
# Static dielectric constant tensor:
#      x y z
#    x 1.821170 0.000000 0.000000 
#    y 0.000000 1.740490 0.000000 
#    z 0.000000 0.000000 1.853480 
# 
# From -- ./inp_files/1654.got.cif
#   From: 2010.05.17/outbox.cif.g08.bks.cpg/sg60_1_cif.got.tgz:1654.got - 2010.06.03 14:59:27.
