data_PCOD9456241
_publ_section_title
;
Structure prediction by ZEFSAII (Michael W. Deem and Ramdas Pophale) SiO2 
 PCOD9456241
Probable space group: P B C N
;
_chemical_formula_sum "Si O2"
_cell_formula_units_Z 40
_cell_length_a 6.009458
_cell_length_b 13.464635
_cell_length_c 22.315579
_cell_angle_alpha 90.000000
_cell_angle_beta 90.000000
_cell_angle_gamma 90.000000
_cell_volume 1805.668612
_symmetry_space_group_name_H-M "P B C N"
_symmetry_group_IT_number 60
_symmetry_cell_setting 'orthorhombic'
loop_
_space_group_symop_operation_xyz
x,y,z
1/2-x,1/2-y,1/2+z
1/2+x,1/2-y,-z
-x,y,1/2-z
-x,-y,-z
1/2+x,1/2+y,1/2-z
1/2-x,1/2+y,z
x,-y,1/2+z
loop_
_atom_site_type_symbol
_atom_site_label
_atom_site_fract_x
_atom_site_fract_y
_atom_site_fract_z
Si Si1 0.522444 0.748075 0.365476
Si Si2 0.249502 0.611739 0.720466
Si Si3 0.744071 0.456095 0.886957
Si Si4 0.610156 0.199010 0.090006
Si Si5 0.232231 0.859648 0.038991
O O1 0.683877 0.785965 0.313672
O O2 0.579010 0.635774 0.381898
O O3 0.259427 0.743410 0.356500
O O4 0.556253 0.822185 0.421766
O O5 0.500000 0.616513 0.750000
O O6 0.273619 0.527517 0.669677
O O7 0.000000 0.589690 0.750000
O O8 0.703374 0.525524 0.944568
O O9 0.977045 0.398311 0.890353
O O10 0.454882 0.288293 0.066894
O O11 0.737403 0.164964 0.029876
#
# Coordination Sequence:
#
# PCOD9456241 Si02
#       5
#     8   8   8   8   8
#     4  10  24  42  68  99 138 182 236 295 351 441
#     4  11  28  49  75  98 137 184 242 310 376 419
#     4  10  25  41  68 101 137 180 246 293 357 432
#     4  11  21  40  68 100 147 191 233 287 354 442
#     4  10  21  40  62 101 146 188 227 278 361 428
#
# _framework density 22.152460000000001
#
# number of rings (size 3 to 8) (size 9 to 14) (size 15 to 20)
#    0.000    1.600    2.000    0.600   11.200    4.000 
#    0.000    0.000    0.000    0.000    0.000    0.000 
#    0.000    0.000    0.000    0.000    0.000    0.000 
#
# Total GULP energy -222814.949305 kJ/mol
# GULP energy per Si atom -5570.373733 kJ/mol
# Density = 2.210204 g / cm^3
# Si number density = 22.152460 Si / 1000 Ang^3
#
#
#
# Elastic Constant Matrix: (Units=GPa)
#
#
# Indices 1 2 3 4 5 6 
#
# 1 126.9600 41.2602 62.9358 0.0000 0.0000 0.0000
# 2 41.2602 112.8386 9.2602 0.0000 0.0000 0.0000
# 3 62.9358 9.2602 49.1152 0.0000 0.0000 0.0000
# 4 0.0000 0.0000 0.0000 22.8584 0.0000 0.0000
# 5 0.0000 0.0000 0.0000 0.0000 20.1214 0.0000
# 6 0.0000 0.0000 0.0000 0.0000 0.0000 -28.1268
#
#
#
# Elastic Compliance Matrix: (Units=1/GPa)
#
#
# Indices 1 2 3 4 5 6 
#
# 1 0.025949 -0.006866 -0.031956 0.000000 0.000000 0.000000
# 2 -0.006866 0.010818 0.006758 0.000000 0.000000 0.000000
# 3 -0.031956 0.006758 0.060035 0.000000 0.000000 0.000000
# 4 0.000000 0.000000 0.000000 0.043748 0.000000 0.000000
# 5 0.000000 0.000000 0.000000 0.000000 0.049698 0.000000
# 6 0.000000 0.000000 0.000000 0.000000 0.000000 -0.035553
#
#
# Mechanical properties :
#
#
# Convention : Reuss Voigt Hill
#
# Bulk Modulus (GPa) = 30.60550 57.31403 43.95977
# Shear Modulus (GPa) = 21.76623 14.66778 18.21700
#
# Velocity S-wave (km/s) = 3.13799 2.57598 2.87077
# Velocity P-wave (km/s) = 5.19376 5.89714 5.55659
#
# Compressibility (1/GPa) = 0.03267386
#
# Stress axis : x y z
#
# Youngs Moduli (GPa) = 38.53712 92.43719 16.65703
#
# Poissons Ratio (x) = 0.63466 0.53230
# Poissons Ratio (y) = 0.26459 -0.11257
# Poissons Ratio (z) = 1.23151 -0.62471
#
# Static dielectric constant tensor:
#      x y z
#    x 1.974500 0.000000 0.000000 
#    y 0.000000 1.757850 0.000000 
#    z 0.000000 0.000000 1.844560 
# 
# From -- ./inp_files/23536.got.cif
#   From: 2010.05.17/outbox.cif.g08.bks.cpg/sg60_12_cif.got.tgz:23536.got - 2010.06.03 14:59:27.
