data_PCOD9456743
_publ_section_title
;
Structure prediction by ZEFSAII (Michael W. Deem and Ramdas Pophale) SiO2 
 PCOD9456743
Probable space group: P B C N
;
_chemical_formula_sum "Si O2"
_cell_formula_units_Z 36
_cell_length_a 11.342436
_cell_length_b 11.129913
_cell_length_c 13.368491
_cell_angle_alpha 90.000000
_cell_angle_beta 90.000000
_cell_angle_gamma 90.000000
_cell_volume 1687.642660
_symmetry_space_group_name_H-M "P B C N"
_symmetry_group_IT_number 60
_symmetry_cell_setting 'orthorhombic'
loop_
_space_group_symop_operation_xyz
x,y,z
1/2-x,1/2-y,1/2+z
1/2+x,1/2-y,-z
-x,y,1/2-z
-x,-y,-z
1/2+x,1/2+y,1/2-z
1/2-x,1/2+y,z
x,-y,1/2+z
loop_
_atom_site_type_symbol
_atom_site_label
_atom_site_fract_x
_atom_site_fract_y
_atom_site_fract_z
Si Si1 0.671842 0.592055 0.974373
Si Si2 0.350423 0.168943 0.382779
Si Si3 0.500000 0.989589 0.750000
Si Si4 0.305089 0.192573 0.715645
Si Si5 0.939883 0.163668 0.440843
O O1 0.717182 0.654822 0.874199
O O2 0.578106 0.669087 0.037421
O O3 0.776659 0.571926 0.052854
O O4 0.607216 0.471125 0.943249
O O5 0.464384 0.101666 0.338717
O O6 0.271381 0.236762 0.298730
O O7 0.383392 0.266880 0.465734
O O8 0.384218 0.074773 0.741263
O O9 0.398989 0.279657 0.662405
#
# Coordination Sequence:
#
# PCOD9456743 Si02
#       5
#     8   8   4   8   8
#     4  10  22  39  60  86 120 161 202 250 308 368
#     4  11  23  40  62  90 123 157 206 258 310 371
#     4  12  24  38  64  92 120 166 204 250 316 368
#     4  11  23  40  62  90 123 157 206 258 310 371
#     4  10  22  39  60  86 120 161 202 250 308 368
#
# _framework density 21.331529
#
# number of rings (size 3 to 8) (size 9 to 14) (size 15 to 20)
#    0.000    1.333    0.000    5.333    0.000    7.111 
#    0.000    4.444    0.000    0.000    0.000    0.000 
#    0.000    0.000    0.000    0.000    0.000    0.000 
#
# Total GULP energy -200921.623376 kJ/mol
# GULP energy per Si atom -5581.156205 kJ/mol
# Density = 2.128298 g / cm^3
# Si number density = 21.331529 Si / 1000 Ang^3
#
#
#
# Elastic Constant Matrix: (Units=GPa)
#
#
# Indices 1 2 3 4 5 6 
#
# 1 35.6124 2.2346 -6.8427 0.0000 0.0000 0.0000
# 2 2.2346 45.0653 9.6328 0.0000 0.0000 0.0000
# 3 -6.8427 9.6328 45.3970 0.0000 0.0000 0.0000
# 4 0.0000 0.0000 0.0000 23.1862 0.0000 0.0000
# 5 0.0000 0.0000 0.0000 0.0000 53.6532 0.0000
# 6 0.0000 0.0000 0.0000 0.0000 0.0000 5.1205
#
#
#
# Elastic Compliance Matrix: (Units=1/GPa)
#
#
# Indices 1 2 3 4 5 6 
#
# 1 0.029184 -0.002501 0.004930 0.000000 0.000000 0.000000
# 2 -0.002501 0.023459 -0.005355 0.000000 0.000000 0.000000
# 3 0.004930 -0.005355 0.023907 0.000000 0.000000 0.000000
# 4 0.000000 0.000000 0.000000 0.043129 0.000000 0.000000
# 5 0.000000 0.000000 0.000000 0.000000 0.018638 0.000000
# 6 0.000000 0.000000 0.000000 0.000000 0.000000 0.195294
#
#
# Mechanical properties :
#
#
# Convention : Reuss Voigt Hill
#
# Bulk Modulus (GPa) = 14.14463 15.12490 14.63477
# Shear Modulus (GPa) = 13.77299 24.46198 19.11748
#
# Velocity S-wave (km/s) = 2.54375 3.39005 2.99692
# Velocity P-wave (km/s) = 3.90804 4.73593 4.34176
#
# Compressibility (1/GPa) = 0.07069818
#
# Stress axis : x y z
#
# Youngs Moduli (GPa) = 34.26511 42.62835 41.82852
#
# Poissons Ratio (x) = 0.10661 -0.20620
# Poissons Ratio (y) = 0.08569 0.22398
# Poissons Ratio (z) = -0.16891 0.22826
#
# Static dielectric constant tensor:
#      x y z
#    x 1.865460 0.000000 0.000000 
#    y 0.000000 1.767830 0.000000 
#    z 0.000000 0.000000 1.736630 
# 
# From -- ./inp_files/10641.got.cif
#   From: 2010.05.17/outbox.cif.g08.bks.cpg/sg60_6_cif.got.tgz:10641.got - 2010.06.03 14:59:27.
