data_PCOD9456732
_publ_section_title
;
Structure prediction by ZEFSAII (Michael W. Deem and Ramdas Pophale) SiO2 
 PCOD9456732
Probable space group: P B C N
;
_chemical_formula_sum "Si O2"
_cell_formula_units_Z 40
_cell_length_a 8.926320
_cell_length_b 19.434882
_cell_length_c 9.981447
_cell_angle_alpha 90.000000
_cell_angle_beta 90.000000
_cell_angle_gamma 90.000000
_cell_volume 1731.601148
_symmetry_space_group_name_H-M "P B C N"
_symmetry_group_IT_number 60
_symmetry_cell_setting 'orthorhombic'
loop_
_space_group_symop_operation_xyz
x,y,z
1/2-x,1/2-y,1/2+z
1/2+x,1/2-y,-z
-x,y,1/2-z
-x,-y,-z
1/2+x,1/2+y,1/2-z
1/2-x,1/2+y,z
x,-y,1/2+z
loop_
_atom_site_type_symbol
_atom_site_label
_atom_site_fract_x
_atom_site_fract_y
_atom_site_fract_z
Si Si1 0.302586 0.292453 0.136846
Si Si2 0.743112 0.103487 0.068902
Si Si3 0.500000 0.434904 0.750000
Si Si4 0.500000 0.092132 0.250000
Si Si5 0.152698 0.812310 0.436575
Si Si6 0.254265 0.460080 0.551739
O O1 0.477467 0.297232 0.092689
O O2 0.275526 0.292047 0.294225
O O3 0.241356 0.363211 0.074813
O O4 0.220592 0.232054 0.057121
O O5 0.609482 0.134666 0.155691
O O6 0.893200 0.110645 0.155816
O O7 0.723361 0.021910 0.049186
O O8 0.393259 0.477529 0.651018
O O9 0.387848 0.052938 0.148681
O O10 0.193476 0.891174 0.474629
#
# Coordination Sequence:
#
# PCOD9456732 Si02
#       6
#     8   8   4   4   8   8
#     4  11  28  47  71 102 140 183 232 286 348 413
#     4  11  24  44  71 103 138 184 234 289 344 411
#     4  10  22  38  76 100 136 172 236 290 350 396
#     4  10  26  42  68 100 148 180 228 286 358 400
#     4  11  28  47  71 102 140 183 232 286 348 413
#     4  11  24  44  71 103 138 184 234 289 344 411
#
# _framework density 23.100007999999999
#
# number of rings (size 3 to 8) (size 9 to 14) (size 15 to 20)
#    0.000    1.200    2.000    1.200   14.000    0.800 
#    0.000    0.000    0.000    0.000    0.000    0.000 
#    0.000    0.000    0.000    0.000    0.000    0.000 
#
# Total GULP energy -223648.040336 kJ/mol
# GULP energy per Si atom -5591.201008 kJ/mol
# Density = 2.304743 g / cm^3
# Si number density = 23.100008 Si / 1000 Ang^3
#
#
#
# Elastic Constant Matrix: (Units=GPa)
#
#
# Indices 1 2 3 4 5 6 
#
# 1 88.5941 -0.3577 24.2990 0.0000 0.0000 0.0000
# 2 -0.3577 107.1281 25.8309 0.0000 0.0000 0.0000
# 3 24.2990 25.8309 137.2408 0.0000 0.0000 0.0000
# 4 0.0000 0.0000 0.0000 21.4595 0.0000 0.0000
# 5 0.0000 0.0000 0.0000 0.0000 42.1138 0.0000
# 6 0.0000 0.0000 0.0000 0.0000 0.0000 7.1705
#
#
#
# Elastic Compliance Matrix: (Units=1/GPa)
#
#
# Indices 1 2 3 4 5 6 
#
# 1 0.011897 0.000574 -0.002214 0.000000 0.000000 0.000000
# 2 0.000574 0.009806 -0.001947 0.000000 0.000000 0.000000
# 3 -0.002214 -0.001947 0.008045 0.000000 0.000000 0.000000
# 4 0.000000 0.000000 0.000000 0.046599 0.000000 0.000000
# 5 0.000000 0.000000 0.000000 0.000000 0.023745 0.000000
# 6 0.000000 0.000000 0.000000 0.000000 0.000000 0.139459
#
#
# Mechanical properties :
#
#
# Convention : Reuss Voigt Hill
#
# Bulk Modulus (GPa) = 44.30214 48.05636 46.17925
# Shear Modulus (GPa) = 19.66552 33.02817 26.34685
#
# Velocity S-wave (km/s) = 2.92091 3.78536 3.38088
# Velocity P-wave (km/s) = 5.53133 6.32092 5.93926
#
# Compressibility (1/GPa) = 0.02257227
#
# Stress axis : x y z
#
# Youngs Moduli (GPa) = 84.05408 101.97784 124.30038
#
# Poissons Ratio (x) = -0.05850 0.27525
# Poissons Ratio (y) = -0.04822 0.24204
# Poissons Ratio (z) = 0.18613 0.19857
#
# Static dielectric constant tensor:
#      x y z
#    x 1.907430 0.000000 0.000000 
#    y 0.000000 1.851160 0.000000 
#    z 0.000000 0.000000 1.841790 
# 
# From -- ./inp_files/3910.got.cif
#   From: 2010.05.17/outbox.cif.g08.bks.cpg/sg60_2_cif.got.tgz:3910.got - 2010.06.03 14:59:27.
