data_PCOD9456902
_publ_section_title
;
Structure prediction by ZEFSAII (Michael W. Deem and Ramdas Pophale) SiO2 
 PCOD9456902
Probable space group: P B C N
;
_chemical_formula_sum "Si O2"
_cell_formula_units_Z 36
_cell_length_a 5.460348
_cell_length_b 19.813749
_cell_length_c 13.335929
_cell_angle_alpha 90.000000
_cell_angle_beta 90.000000
_cell_angle_gamma 90.000000
_cell_volume 1442.813688
_symmetry_space_group_name_H-M "P B C N"
_symmetry_group_IT_number 60
_symmetry_cell_setting 'orthorhombic'
loop_
_space_group_symop_operation_xyz
x,y,z
1/2-x,1/2-y,1/2+z
1/2+x,1/2-y,-z
-x,y,1/2-z
-x,-y,-z
1/2+x,1/2+y,1/2-z
1/2-x,1/2+y,z
x,-y,1/2+z
loop_
_atom_site_type_symbol
_atom_site_label
_atom_site_fract_x
_atom_site_fract_y
_atom_site_fract_z
Si Si1 0.000000 0.364214 0.250000
Si Si2 0.243365 0.046646 0.185395
Si Si3 0.764414 0.420467 0.437133
Si Si4 0.122466 0.194180 0.877823
Si Si5 0.578446 0.164596 0.425564
O O1 0.038749 0.407514 0.151496
O O2 0.233501 0.320266 0.275897
O O3 0.500000 0.040329 0.250000
O O4 0.239166 0.122848 0.144118
O O5 0.000000 0.030764 0.250000
O O6 0.218270 0.998779 0.085618
O O7 0.548669 0.369285 0.406878
O O8 0.877261 0.391632 0.539474
O O9 0.018708 0.268902 0.873838
O O10 0.309873 0.193756 0.971735
#
# Coordination Sequence:
#
# PCOD9456902 Si02
#       5
#     4   8   8   8   8
#     4  10  22  40  74 104 142 194 246 310 366 460
#     4  12  29  50  74 112 153 198 257 313 380 450
#     4  11  23  47  75 102 147 200 249 303 383 455
#     4  11  23  45  73 108 146 193 255 303 387 451
#     4  11  26  46  72 108 150 195 250 320 378 457
#
# _framework density 24.951245
#
# number of rings (size 3 to 8) (size 9 to 14) (size 15 to 20)
#    0.000    0.889    3.333    2.667    6.222    2.667 
#    4.000    0.000    0.000    0.000    0.000    0.000 
#    0.000    0.000    0.000    0.000    0.000    0.000 
#
# Total GULP energy -201200.039399 kJ/mol
# GULP energy per Si atom -5588.889983 kJ/mol
# Density = 2.489445 g / cm^3
# Si number density = 24.951245 Si / 1000 Ang^3
#
#
#
# Elastic Constant Matrix: (Units=GPa)
#
#
# Indices 1 2 3 4 5 6 
#
# 1 71.8965 11.0146 4.1741 0.0000 0.0000 0.0000
# 2 11.0146 141.9655 2.0437 0.0000 0.0000 0.0000
# 3 4.1741 2.0437 49.4512 0.0000 0.0000 0.0000
# 4 0.0000 0.0000 0.0000 10.3446 0.0000 0.0000
# 5 0.0000 0.0000 0.0000 0.0000 36.9450 0.0000
# 6 0.0000 0.0000 0.0000 0.0000 0.0000 13.4145
#
#
#
# Elastic Compliance Matrix: (Units=1/GPa)
#
#
# Indices 1 2 3 4 5 6 
#
# 1 0.014141 -0.001081 -0.001149 0.000000 0.000000 0.000000
# 2 -0.001081 0.007131 -0.000203 0.000000 0.000000 0.000000
# 3 -0.001149 -0.000203 0.020327 0.000000 0.000000 0.000000
# 4 0.000000 0.000000 0.000000 0.096669 0.000000 0.000000
# 5 0.000000 0.000000 0.000000 0.000000 0.027067 0.000000
# 6 0.000000 0.000000 0.000000 0.000000 0.000000 0.074546
#
#
# Mechanical properties :
#
#
# Convention : Reuss Voigt Hill
#
# Bulk Modulus (GPa) = 27.22341 33.08643 30.15492
# Shear Modulus (GPa) = 19.45585 28.54621 24.00103
#
# Velocity S-wave (km/s) = 2.79544 3.38609 3.10484
# Velocity P-wave (km/s) = 4.62100 5.34572 4.99652
#
# Compressibility (1/GPa) = 0.03673310
#
# Stress axis : x y z
#
# Youngs Moduli (GPa) = 70.71565 140.23799 49.19480
#
# Poissons Ratio (x) = 0.15154 0.05652
# Poissons Ratio (y) = 0.07642 0.01001
# Poissons Ratio (z) = 0.08125 0.02854
#
# Static dielectric constant tensor:
#      x y z
#    x 2.135230 0.000000 0.000000 
#    y 0.000000 1.957480 0.000000 
#    z 0.000000 0.000000 2.023470 
# 
# From -- ./inp_files/13743.got.cif
#   From: 2010.05.17/outbox.cif.g08.bks.cpg/sg60_7_cif.got.tgz:13743.got - 2010.06.03 14:59:27.
