data_PCOD9456020
_publ_section_title
;
Structure prediction by ZEFSAII (Michael W. Deem and Ramdas Pophale) SiO2 
 PCOD9456020
Probable space group: P B C N
;
_chemical_formula_sum "Si O2"
_cell_formula_units_Z 48
_cell_length_a 8.958304
_cell_length_b 10.094879
_cell_length_c 29.999857
_cell_angle_alpha 90.000000
_cell_angle_beta 90.000000
_cell_angle_gamma 90.000000
_cell_volume 2712.976916
_symmetry_space_group_name_H-M "P B C N"
_symmetry_group_IT_number 60
_symmetry_cell_setting 'orthorhombic'
loop_
_space_group_symop_operation_xyz
x,y,z
1/2-x,1/2-y,1/2+z
1/2+x,1/2-y,-z
-x,y,1/2-z
-x,-y,-z
1/2+x,1/2+y,1/2-z
1/2-x,1/2+y,z
x,-y,1/2+z
loop_
_atom_site_type_symbol
_atom_site_label
_atom_site_fract_x
_atom_site_fract_y
_atom_site_fract_z
Si Si1 0.569486 0.865456 0.480879
Si Si2 0.925305 0.117134 0.971704
Si Si3 0.884345 0.013538 0.710798
Si Si4 0.110326 0.291455 0.291055
Si Si5 0.598889 0.527139 0.609898
Si Si6 0.892160 0.287152 0.106726
O O1 0.508566 0.749504 0.512684
O O2 0.748831 0.871829 0.479855
O O3 0.505413 0.833955 0.431548
O O4 0.500000 0.000000 0.500000
O O5 0.967840 0.079376 0.921476
O O6 0.000000 0.000000 0.000000
O O7 0.744853 0.108511 0.714406
O O8 0.948650 0.034785 0.661378
O O9 0.000000 0.038413 0.750000
O O10 0.836528 0.860288 0.712782
O O11 0.051609 0.305329 0.342089
O O12 0.000000 0.313787 0.250000
O O13 0.635931 0.371473 0.600365
O O14 0.742964 0.622317 0.602836
#
# Coordination Sequence:
#
# PCOD9456020 Si02
#       6
#     8   8   8   8   8   8
#     4  12  26  40  62  88 118 156 197 245 293 349
#     4  12  24  42  60  86 118 155 197 242 293 345
#     4   9  19  36  58  85 116 154 192 237 291 344
#     4   9  19  36  59  85 117 153 191 239 289 344
#     4  10  21  38  61  85 117 154 196 244 293 350
#     4  10  21  39  60  87 116 153 197 243 295 347
#
# _framework density 17.692743
#
# number of rings (size 3 to 8) (size 9 to 14) (size 15 to 20)
#    0.000    1.667    1.667    3.000    2.333    2.000 
#    0.000    0.000    0.000    0.000    0.000    0.000 
#    0.000    0.000    0.000    0.000    0.000    0.000 
#
# Total GULP energy -267817.440388 kJ/mol
# GULP energy per Si atom -5579.530008 kJ/mol
# Density = 1.765247 g / cm^3
# Si number density = 17.692743 Si / 1000 Ang^3
#
#
#
# Elastic Constant Matrix: (Units=GPa)
#
#
# Indices 1 2 3 4 5 6 
#
# 1 120.7852 72.3013 78.4861 0.0000 0.0000 0.0000
# 2 72.3013 129.7576 91.5239 0.0000 0.0000 0.0000
# 3 78.4861 91.5239 139.2284 0.0000 0.0000 0.0000
# 4 0.0000 0.0000 0.0000 32.0568 0.0000 0.0000
# 5 0.0000 0.0000 0.0000 0.0000 62.1533 0.0000
# 6 0.0000 0.0000 0.0000 0.0000 0.0000 26.8204
#
#
#
# Elastic Compliance Matrix: (Units=1/GPa)
#
#
# Indices 1 2 3 4 5 6 
#
# 1 0.014209 -0.004228 -0.005231 0.000000 0.000000 0.000000
# 2 -0.004228 0.015627 -0.007889 0.000000 0.000000 0.000000
# 3 -0.005231 -0.007889 0.015317 0.000000 0.000000 0.000000
# 4 0.000000 0.000000 0.000000 0.031195 0.000000 0.000000
# 5 0.000000 0.000000 0.000000 0.000000 0.016089 0.000000
# 6 0.000000 0.000000 0.000000 0.000000 0.000000 0.037285
#
#
# Mechanical properties :
#
#
# Convention : Reuss Voigt Hill
#
# Bulk Modulus (GPa) = 95.62468 97.15486 96.38977
# Shear Modulus (GPa) = 29.77898 34.03676 31.90787
#
# Velocity S-wave (km/s) = 4.10703 4.39084 4.25130
# Velocity P-wave (km/s) = 8.75529 8.98540 8.87109
#
# Compressibility (1/GPa) = 0.01045755
#
# Stress axis : x y z
#
# Youngs Moduli (GPa) = 70.37948 63.99094 65.28561
#
# Poissons Ratio (x) = 0.27054 0.34148
# Poissons Ratio (y) = 0.29755 0.51507
# Poissons Ratio (z) = 0.36812 0.50486
#
# Static dielectric constant tensor:
#      x y z
#    x 1.572010 0.000000 0.000000 
#    y 0.000000 1.574620 0.000000 
#    z 0.000000 0.000000 1.641790 
# 
# From -- ./inp_files/25903.got.cif
#   From: 2010.05.17/outbox.cif.g08.bks.cpg/sg60_13_cif.got.tgz:25903.got - 2010.06.03 14:59:27.
