data_PCOD9456185
_publ_section_title
;
Structure prediction by ZEFSAII (Michael W. Deem and Ramdas Pophale) SiO2 
 PCOD9456185
Probable space group: P B C N
;
_chemical_formula_sum "Si O2"
_cell_formula_units_Z 24
_cell_length_a 10.942413
_cell_length_b 8.560174
_cell_length_c 9.221462
_cell_angle_alpha 90.000000
_cell_angle_beta 90.000000
_cell_angle_gamma 90.000000
_cell_volume 863.764748
_symmetry_space_group_name_H-M "P B C N"
_symmetry_group_IT_number 60
_symmetry_cell_setting 'orthorhombic'
loop_
_space_group_symop_operation_xyz
x,y,z
1/2-x,1/2-y,1/2+z
1/2+x,1/2-y,-z
-x,y,1/2-z
-x,-y,-z
1/2+x,1/2+y,1/2-z
1/2-x,1/2+y,z
x,-y,1/2+z
loop_
_atom_site_type_symbol
_atom_site_label
_atom_site_fract_x
_atom_site_fract_y
_atom_site_fract_z
Si Si1 0.429115 0.909205 0.617434
Si Si2 0.190093 0.872169 0.763196
Si Si3 0.110304 0.835448 0.449022
O O1 0.500000 0.976464 0.750000
O O2 0.291085 0.943460 0.650891
O O3 0.476961 0.732174 0.598208
O O4 0.500000 0.000000 0.500000
O O5 0.110182 0.811455 0.625403
O O6 0.278183 0.762932 0.867084
O O7 0.129340 0.996783 0.871413
#
# Coordination Sequence:
#
# PCOD9456185 Si02
#       3
#     8   8   8
#     4  10  21  39  65  95 127 174 226 277 345 413
#     4  11  22  42  64  97 134 176 230 291 348 417
#     4  11  23  41  70  98 135 184 232 290 354 414
#
# _framework density 27.785343000000001
#
# number of rings (size 3 to 8) (size 9 to 14) (size 15 to 20)
#    0.000    1.333    0.000    8.000    0.000    0.000 
#    0.000   26.667    0.000    0.000    0.000    0.000 
#    0.000    0.000    0.000    0.000    0.000    0.000 
#
# Total GULP energy -133632.405404 kJ/mol
# GULP energy per Si atom -5568.016892 kJ/mol
# Density = 2.772210 g / cm^3
# Si number density = 27.785343 Si / 1000 Ang^3
#
#
#
# Elastic Constant Matrix: (Units=GPa)
#
#
# Indices 1 2 3 4 5 6 
#
# 1 63.4994 24.5185 -6.0143 0.0000 0.0000 0.0000
# 2 24.5185 96.5986 70.1108 0.0000 0.0000 0.0000
# 3 -6.0143 70.1108 222.4754 0.0000 0.0000 0.0000
# 4 0.0000 0.0000 0.0000 102.5174 0.0000 0.0000
# 5 0.0000 0.0000 0.0000 0.0000 49.1049 0.0000
# 6 0.0000 0.0000 0.0000 0.0000 0.0000 45.9867
#
#
#
# Elastic Compliance Matrix: (Units=1/GPa)
#
#
# Indices 1 2 3 4 5 6 
#
# 1 0.018528 -0.006569 0.002571 0.000000 0.000000 0.000000
# 2 -0.006569 0.015751 -0.005141 0.000000 0.000000 0.000000
# 3 0.002571 -0.005141 0.006185 0.000000 0.000000 0.000000
# 4 0.000000 0.000000 0.000000 0.009754 0.000000 0.000000
# 5 0.000000 0.000000 0.000000 0.000000 0.020365 0.000000
# 6 0.000000 0.000000 0.000000 0.000000 0.000000 0.021745
#
#
# Mechanical properties :
#
#
# Convention : Reuss Voigt Hill
#
# Bulk Modulus (GPa) = 45.07475 62.20035 53.63755
# Shear Modulus (GPa) = 42.37243 59.11905 50.74574
#
# Velocity S-wave (km/s) = 3.90935 4.61771 4.27822
# Velocity P-wave (km/s) = 6.05269 7.13201 6.61441
#
# Compressibility (1/GPa) = 0.02218537
#
# Stress axis : x y z
#
# Youngs Moduli (GPa) = 53.97230 63.48835 161.69161
#
# Poissons Ratio (x) = 0.41704 -0.41570
# Poissons Ratio (y) = 0.35453 0.83131
# Poissons Ratio (z) = -0.13876 0.32641
#
# Static dielectric constant tensor:
#      x y z
#    x 3.022640 0.000000 0.000000 
#    y 0.000000 2.725750 0.000000 
#    z 0.000000 0.000000 2.611650 
# 
# From -- ./inp_files/4394.got.cif
#   From: 2010.05.17/outbox.cif.g08.bks.cpg/sg60_3_cif.got.tgz:4394.got - 2010.06.03 14:59:27.
