data_PCOD9456576
_publ_section_title
;
Structure prediction by ZEFSAII (Michael W. Deem and Ramdas Pophale) SiO2 
 PCOD9456576
Probable space group: P B C N
;
_chemical_formula_sum "Si O2"
_cell_formula_units_Z 52
_cell_length_a 25.138278
_cell_length_b 5.387013
_cell_length_c 18.027261
_cell_angle_alpha 90.000000
_cell_angle_beta 90.000000
_cell_angle_gamma 90.000000
_cell_volume 2441.255838
_symmetry_space_group_name_H-M "P B C N"
_symmetry_group_IT_number 60
_symmetry_cell_setting 'orthorhombic'
loop_
_space_group_symop_operation_xyz
x,y,z
1/2-x,1/2-y,1/2+z
1/2+x,1/2-y,-z
-x,y,1/2-z
-x,-y,-z
1/2+x,1/2+y,1/2-z
1/2-x,1/2+y,z
x,-y,1/2+z
loop_
_atom_site_type_symbol
_atom_site_label
_atom_site_fract_x
_atom_site_fract_y
_atom_site_fract_z
Si Si1 0.570029 0.248194 0.028268
Si Si2 0.601526 0.798366 0.691163
Si Si3 0.081600 0.064075 0.188005
Si Si4 0.000000 0.595966 0.750000
Si Si5 0.234708 0.787079 0.101308
Si Si6 0.443034 0.247929 0.056135
Si Si7 0.169423 0.458371 0.186651
O O1 0.603616 0.219089 0.103252
O O2 0.507079 0.242696 0.048578
O O3 0.578211 0.513798 0.989614
O O4 0.578258 0.010723 0.975380
O O5 0.596015 0.529536 0.729665
O O6 0.546823 0.940027 0.712662
O O7 0.648998 0.938231 0.735016
O O8 0.070010 0.820046 0.140358
O O9 0.128027 0.247671 0.162898
O O10 0.028152 0.226039 0.190170
O O11 0.261348 0.550222 0.061410
O O12 0.178402 0.691521 0.130659
O O13 0.272570 0.835639 0.173883
#
# Coordination Sequence:
#
# PCOD9456576 Si02
#       7
#     8   8   8   4   8   8   8
#     4  10  23  38  55  76 115 161 199 236 282 341
#     4  11  22  35  56  86 115 153 199 241 290 350
#     4  11  22  35  56  86 115 153 199 241 290 350
#     4  10  22  32  52  82 120 152 184 250 282 330
#     4   8  16  34  52  82 114 140 168 240 286 356
#     4  10  23  38  55  76 115 161 199 236 282 341
#     4   9  20  33  60  84 118 139 188 237 306 338
#
# _framework density 21.300512000000001
#
# number of rings (size 3 to 8) (size 9 to 14) (size 15 to 20)
#    0.923    1.231    0.000    3.231   15.077    0.000 
#    0.000    0.000    0.000    0.000    0.000    6.462 
#    0.000    0.000    0.000    0.000    0.000    0.000 
#
# Total GULP energy -289968.248333 kJ/mol
# GULP energy per Si atom -5576.312468 kJ/mol
# Density = 2.125203 g / cm^3
# Si number density = 21.300512 Si / 1000 Ang^3
#
#
#
# Elastic Constant Matrix: (Units=GPa)
#
#
# Indices 1 2 3 4 5 6 
#
# 1 46.0769 5.1466 -14.9169 0.0000 0.0000 0.0000
# 2 5.1466 128.7271 15.4491 0.0000 0.0000 0.0000
# 3 -14.9169 15.4491 59.8335 0.0000 0.0000 0.0000
# 4 0.0000 0.0000 0.0000 32.8618 0.0000 0.0000
# 5 0.0000 0.0000 0.0000 0.0000 5.4875 0.0000
# 6 0.0000 0.0000 0.0000 0.0000 0.0000 35.0264
#
#
#
# Elastic Compliance Matrix: (Units=1/GPa)
#
#
# Indices 1 2 3 4 5 6 
#
# 1 0.023976 -0.001730 0.006424 0.000000 0.000000 0.000000
# 2 -0.001730 0.008142 -0.002533 0.000000 0.000000 0.000000
# 3 0.006424 -0.002533 0.018969 0.000000 0.000000 0.000000
# 4 0.000000 0.000000 0.000000 0.030430 0.000000 0.000000
# 5 0.000000 0.000000 0.000000 0.000000 0.182233 0.000000
# 6 0.000000 0.000000 0.000000 0.000000 0.000000 0.028550
#
#
# Mechanical properties :
#
#
# Convention : Reuss Voigt Hill
#
# Bulk Modulus (GPa) = 18.04794 27.33277 22.69036
# Shear Modulus (GPa) = 16.31604 29.93905 23.12755
#
# Velocity S-wave (km/s) = 2.77066 3.75314 3.29868
# Velocity P-wave (km/s) = 4.32745 5.62506 5.01837
#
# Compressibility (1/GPa) = 0.05540798
#
# Stress axis : x y z
#
# Youngs Moduli (GPa) = 41.70891 122.82664 52.71845
#
# Poissons Ratio (x) = 0.21243 -0.33866
# Poissons Ratio (y) = 0.07214 0.13355
# Poissons Ratio (z) = -0.26793 0.31116
#
# Static dielectric constant tensor:
#      x y z
#    x 1.922460 0.000000 0.000000 
#    y 0.000000 1.861120 0.000000 
#    z 0.000000 0.000000 1.780890 
# 
# From -- ./inp_files/21191.got.cif
#   From: 2010.05.17/outbox.cif.g08.bks.cpg/sg60_11_cif.got.tgz:21191.got - 2010.06.03 14:59:27.
