data_PCOD9456535
_publ_section_title
;
Structure prediction by ZEFSAII (Michael W. Deem and Ramdas Pophale) SiO2 
 PCOD9456535
Probable space group: P B C N
;
_chemical_formula_sum "Si O2"
_cell_formula_units_Z 32
_cell_length_a 8.628869
_cell_length_b 11.125686
_cell_length_c 13.088755
_cell_angle_alpha 90.000000
_cell_angle_beta 90.000000
_cell_angle_gamma 90.000000
_cell_volume 1256.547797
_symmetry_space_group_name_H-M "P B C N"
_symmetry_group_IT_number 60
_symmetry_cell_setting 'orthorhombic'
loop_
_space_group_symop_operation_xyz
x,y,z
1/2-x,1/2-y,1/2+z
1/2+x,1/2-y,-z
-x,y,1/2-z
-x,-y,-z
1/2+x,1/2+y,1/2-z
1/2-x,1/2+y,z
x,-y,1/2+z
loop_
_atom_site_type_symbol
_atom_site_label
_atom_site_fract_x
_atom_site_fract_y
_atom_site_fract_z
Si Si1 0.100538 0.456777 0.657413
Si Si2 0.833634 0.184113 0.209597
Si Si3 0.912468 0.217691 0.595471
Si Si4 0.216285 0.130100 0.518071
O O1 0.250095 0.399648 0.709998
O O2 0.994575 0.346580 0.617858
O O3 0.160979 0.542194 0.568663
O O4 0.000000 0.513018 0.750000
O O5 0.714178 0.294519 0.185007
O O6 0.000000 0.217916 0.250000
O O7 0.835516 0.115311 0.100054
O O8 0.056830 0.132463 0.580407
O O9 0.807648 0.241628 0.494741
#
# Coordination Sequence:
#
# PCOD9456535 Si02
#       4
#     8   8   8   8
#     4  10  21  44  68 100 140 179 228 288 339 414
#     4   9  22  40  66  95 136 176 229 286 329 412
#     4   9  22  40  63  99 134 180 227 282 343 402
#     4  10  22  43  68  96 138 183 225 282 352 401
#
# _framework density 25.466601000000001
#
# number of rings (size 3 to 8) (size 9 to 14) (size 15 to 20)
#    1.500    1.000    0.000    0.750    3.500    1.000 
#    4.500    3.750    0.000    0.000    0.000    0.000 
#    0.000    0.000    0.000    0.000    0.000    0.000 
#
# Total GULP energy -178610.241733 kJ/mol
# GULP energy per Si atom -5581.570054 kJ/mol
# Density = 2.540864 g / cm^3
# Si number density = 25.466601 Si / 1000 Ang^3
#
#
#
# Elastic Constant Matrix: (Units=GPa)
#
#
# Indices 1 2 3 4 5 6 
#
# 1 203.8687 34.1990 56.6589 0.0000 0.0000 0.0000
# 2 34.1990 32.9513 31.9739 0.0000 0.0000 0.0000
# 3 56.6589 31.9739 129.1449 0.0000 0.0000 0.0000
# 4 0.0000 0.0000 0.0000 15.0200 0.0000 0.0000
# 5 0.0000 0.0000 0.0000 0.0000 61.3967 0.0000
# 6 0.0000 0.0000 0.0000 0.0000 0.0000 26.0825
#
#
#
# Elastic Compliance Matrix: (Units=1/GPa)
#
#
# Indices 1 2 3 4 5 6 
#
# 1 0.006144 -0.004950 -0.001470 0.000000 0.000000 0.000000
# 2 -0.004950 0.043933 -0.008705 0.000000 0.000000 0.000000
# 3 -0.001470 -0.008705 0.010543 0.000000 0.000000 0.000000
# 4 0.000000 0.000000 0.000000 0.066578 0.000000 0.000000
# 5 0.000000 0.000000 0.000000 0.000000 0.016288 0.000000
# 6 0.000000 0.000000 0.000000 0.000000 0.000000 0.038340
#
#
# Mechanical properties :
#
#
# Convention : Reuss Voigt Hill
#
# Bulk Modulus (GPa) = 32.92805 67.95870 50.44337
# Shear Modulus (GPa) = 22.50235 36.70871 29.60553
#
# Velocity S-wave (km/s) = 2.97577 3.80076 3.41328
# Velocity P-wave (km/s) = 4.97644 6.78265 5.94850
#
# Compressibility (1/GPa) = 0.03036925
#
# Stress axis : x y z
#
# Youngs Moduli (GPa) = 162.75879 22.76218 94.84670
#
# Poissons Ratio (x) = 0.11268 0.13942
# Poissons Ratio (y) = 0.80572 0.82564
# Poissons Ratio (z) = 0.23924 0.19815
#
# Static dielectric constant tensor:
#      x y z
#    x 2.021870 0.000000 0.000000 
#    y 0.000000 2.058440 0.000000 
#    z 0.000000 0.000000 2.050350 
# 
# From -- ./inp_files/14308.got.cif
#   From: 2010.05.17/outbox.cif.g08.bks.cpg/sg60_8_cif.got.tgz:14308.got - 2010.06.03 14:59:27.
