data_PCOD9456950
_publ_section_title
;
Structure prediction by ZEFSAII (Michael W. Deem and Ramdas Pophale) SiO2 
 PCOD9456950
Probable space group: P B C N
;
_chemical_formula_sum "Si O2"
_cell_formula_units_Z 36
_cell_length_a 22.768293
_cell_length_b 4.997943
_cell_length_c 12.756536
_cell_angle_alpha 90.000000
_cell_angle_beta 90.000000
_cell_angle_gamma 90.000000
_cell_volume 1451.625302
_symmetry_space_group_name_H-M "P B C N"
_symmetry_group_IT_number 60
_symmetry_cell_setting 'orthorhombic'
loop_
_space_group_symop_operation_xyz
x,y,z
1/2-x,1/2-y,1/2+z
1/2+x,1/2-y,-z
-x,y,1/2-z
-x,-y,-z
1/2+x,1/2+y,1/2-z
1/2-x,1/2+y,z
x,-y,1/2+z
loop_
_atom_site_type_symbol
_atom_site_label
_atom_site_fract_x
_atom_site_fract_y
_atom_site_fract_z
Si Si1 0.714429 0.731950 0.452653
Si Si2 0.414818 0.873410 0.417558
Si Si3 0.500000 0.658708 0.250000
Si Si4 0.610059 0.390664 0.363191
Si Si5 0.849462 0.862677 0.148618
O O1 0.766202 0.527239 0.424376
O O2 0.653863 0.621808 0.405053
O O3 0.706033 0.706989 0.578228
O O4 0.471935 0.818919 0.347476
O O5 0.411244 0.785676 0.538751
O O6 0.365640 0.675058 0.365460
O O7 0.400194 0.183040 0.405105
O O8 0.552391 0.493003 0.303005
O O9 0.648252 0.269597 0.267974
#
# Coordination Sequence:
#
# PCOD9456950 Si02
#       5
#     8   8   4   8   8
#     4  11  24  43  67  95 129 174 230 287 345 415
#     4  10  22  41  65  97 136 177 225 278 342 415
#     4  10  22  42  70 106 142 186 232 292 354 428
#     4  10  23  44  69 100 140 185 233 291 360 424
#     4  10  23  42  65  95 132 174 226 284 342 413
#
# _framework density 24.799787999999999
#
# number of rings (size 3 to 8) (size 9 to 14) (size 15 to 20)
#    0.000    1.778    0.000    3.333    0.000   16.000 
#    0.000   10.000    0.000    0.000    0.000    0.000 
#    0.000    0.000    0.000    0.000    0.000    0.000 
#
# Total GULP energy -201195.486181 kJ/mol
# GULP energy per Si atom -5588.763505 kJ/mol
# Density = 2.474334 g / cm^3
# Si number density = 24.799788 Si / 1000 Ang^3
#
#
#
# Elastic Constant Matrix: (Units=GPa)
#
#
# Indices 1 2 3 4 5 6 
#
# 1 94.7737 23.7623 58.9792 0.0000 0.0000 0.0000
# 2 23.7623 50.2823 24.9816 0.0000 0.0000 0.0000
# 3 58.9792 24.9816 183.5025 0.0000 0.0000 0.0000
# 4 0.0000 0.0000 0.0000 -38.9035 0.0000 0.0000
# 5 0.0000 0.0000 0.0000 0.0000 62.2444 0.0000
# 6 0.0000 0.0000 0.0000 0.0000 0.0000 31.3376
#
#
#
# Elastic Compliance Matrix: (Units=1/GPa)
#
#
# Indices 1 2 3 4 5 6 
#
# 1 0.014177 -0.004758 -0.003909 0.000000 0.000000 0.000000
# 2 -0.004758 0.022927 -0.001592 0.000000 0.000000 0.000000
# 3 -0.003909 -0.001592 0.006923 0.000000 0.000000 0.000000
# 4 0.000000 0.000000 0.000000 -0.025705 0.000000 0.000000
# 5 0.000000 0.000000 0.000000 0.000000 0.016066 0.000000
# 6 0.000000 0.000000 0.000000 0.000000 0.000000 0.031910
#
#
# Mechanical properties :
#
#
# Convention : Reuss Voigt Hill
#
# Bulk Modulus (GPa) = 42.53632 60.44496 51.49064
# Shear Modulus (GPa) = 52.82521 25.65807 39.24164
#
# Velocity S-wave (km/s) = 4.62027 3.22002 3.98218
# Velocity P-wave (km/s) = 6.75660 6.18472 6.47698
#
# Compressibility (1/GPa) = 0.02350932
#
# Stress axis : x y z
#
# Youngs Moduli (GPa) = 70.53741 43.61657 144.45433
#
# Poissons Ratio (x) = 0.20751 0.56465
# Poissons Ratio (y) = 0.33559 0.22999
# Poissons Ratio (z) = 0.27572 0.06944
#
# Static dielectric constant tensor:
#      x y z
#    x 1.980700 0.000000 0.000000 
#    y 0.000000 1.925380 0.000000 
#    z 0.000000 0.000000 2.041520 
# 
# From -- ./inp_files/12996.got.cif
#   From: 2010.05.17/outbox.cif.g08.bks.cpg/sg60_7_cif.got.tgz:12996.got - 2010.06.03 14:59:27.
