data_PCOD9456445
_publ_section_title
;
Structure prediction by ZEFSAII (Michael W. Deem and Ramdas Pophale) SiO2 
 PCOD9456445
Probable space group: P B C N
;
_chemical_formula_sum "Si O2"
_cell_formula_units_Z 60
_cell_length_a 9.678136
_cell_length_b 10.471147
_cell_length_c 25.607286
_cell_angle_alpha 90.000000
_cell_angle_beta 90.000000
_cell_angle_gamma 90.000000
_cell_volume 2595.072701
_symmetry_space_group_name_H-M "P B C N"
_symmetry_group_IT_number 60
_symmetry_cell_setting 'orthorhombic'
loop_
_space_group_symop_operation_xyz
x,y,z
1/2-x,1/2-y,1/2+z
1/2+x,1/2-y,-z
-x,y,1/2-z
-x,-y,-z
1/2+x,1/2+y,1/2-z
1/2-x,1/2+y,z
x,-y,1/2+z
loop_
_atom_site_type_symbol
_atom_site_label
_atom_site_fract_x
_atom_site_fract_y
_atom_site_fract_z
Si Si1 0.293883 0.641804 0.459162
Si Si2 0.506393 0.054775 0.869566
Si Si3 0.287693 0.809825 0.201502
Si Si4 0.450814 0.447778 0.168558
Si Si5 0.211532 0.111875 0.891641
Si Si6 0.500000 0.346215 0.750000
Si Si7 0.578403 0.762677 0.465583
Si Si8 0.259075 0.889446 0.607128
O O1 0.315689 0.503678 0.432955
O O2 0.251104 0.754303 0.418453
O O3 0.439816 0.690088 0.484103
O O4 0.161877 0.641862 0.497314
O O5 0.595581 0.092489 0.819105
O O6 0.344326 0.058016 0.860337
O O7 0.532961 0.161096 0.913960
O O8 0.582059 0.931086 0.893128
O O9 0.143241 0.877056 0.211296
O O10 0.360183 0.734302 0.247247
O O11 0.257319 0.713425 0.153479
O O12 0.575721 0.373854 0.143065
O O13 0.506019 0.572692 0.197320
O O14 0.339715 0.492763 0.124786
O O15 0.694797 0.663205 0.445889
#
# Coordination Sequence:
#
# PCOD9456445 Si02
#       8
#     8   8   8   8   8   4   8   8
#     4  11  26  40  61  94 130 176 224 281 333 393
#     4   9  21  37  62  86 123 170 213 270 327 389
#     4   9  20  39  65  94 123 168 209 259 336 398
#     4  10  21  42  64  94 127 170 213 267 334 401
#     4  11  25  42  62  95 133 172 223 271 338 391
#     4  10  22  40  70  96 134 154 216 280 326 402
#     4  10  22  38  57  88 128 168 220 280 327 380
#     4   9  18  38  62  84 123 170 216 261 324 391
#
# _framework density 23.120740000000001
#
# number of rings (size 3 to 8) (size 9 to 14) (size 15 to 20)
#    0.000    2.133    1.333    0.000    7.467    4.800 
#    0.000    0.000    0.000    3.200    0.000    0.000 
#    0.000    0.000    0.000    0.000    0.000    0.000 
#
# Total GULP energy -335067.318217 kJ/mol
# GULP energy per Si atom -5584.455304 kJ/mol
# Density = 2.306812 g / cm^3
# Si number density = 23.120740 Si / 1000 Ang^3
#
#
#
# Elastic Constant Matrix: (Units=GPa)
#
#
# Indices 1 2 3 4 5 6 
#
# 1 106.0668 17.2577 19.5764 0.0000 0.0000 0.0000
# 2 17.2577 48.9551 3.2945 0.0000 0.0000 0.0000
# 3 19.5764 3.2945 26.0512 0.0000 0.0000 0.0000
# 4 0.0000 0.0000 0.0000 18.9123 0.0000 0.0000
# 5 0.0000 0.0000 0.0000 0.0000 32.3521 0.0000
# 6 0.0000 0.0000 0.0000 0.0000 0.0000 2.1339
#
#
#
# Elastic Compliance Matrix: (Units=1/GPa)
#
#
# Indices 1 2 3 4 5 6 
#
# 1 0.011514 -0.003506 -0.008209 0.000000 0.000000 0.000000
# 2 -0.003506 0.021670 -0.000106 0.000000 0.000000 0.000000
# 3 -0.008209 -0.000106 0.044568 0.000000 0.000000 0.000000
# 4 0.000000 0.000000 0.000000 0.052876 0.000000 0.000000
# 5 0.000000 0.000000 0.000000 0.000000 0.030910 0.000000
# 6 0.000000 0.000000 0.000000 0.000000 0.000000 0.468635
#
#
# Mechanical properties :
#
#
# Convention : Reuss Voigt Hill
#
# Bulk Modulus (GPa) = 18.48074 29.03670 23.75872
# Shear Modulus (GPa) = 7.44214 20.07594 13.75904
#
# Velocity S-wave (km/s) = 1.79605 2.94990 2.44210
# Velocity P-wave (km/s) = 3.50878 4.91819 4.27201
#
# Compressibility (1/GPa) = 0.05411040
#
# Stress axis : x y z
#
# Youngs Moduli (GPa) = 86.85412 46.14666 22.43772
#
# Poissons Ratio (x) = 0.16181 0.18418
# Poissons Ratio (y) = 0.30454 0.00237
# Poissons Ratio (z) = 0.71295 0.00487
#
# Static dielectric constant tensor:
#      x y z
#    x 1.892940 0.000000 0.000000 
#    y 0.000000 1.937390 0.000000 
#    z 0.000000 0.000000 1.880090 
# 
# From -- ./inp_files/25983.got.cif
#   From: 2010.05.17/outbox.cif.g08.bks.cpg/sg60_13_cif.got.tgz:25983.got - 2010.06.03 14:59:27.
