data_PCOD9456785
_publ_section_title
;
Structure prediction by ZEFSAII (Michael W. Deem and Ramdas Pophale) SiO2 
 PCOD9456785
Probable space group: P B C N
;
_chemical_formula_sum "Si O2"
_cell_formula_units_Z 32
_cell_length_a 9.356237
_cell_length_b 24.412539
_cell_length_c 5.775043
_cell_angle_alpha 90.000000
_cell_angle_beta 90.000000
_cell_angle_gamma 90.000000
_cell_volume 1319.074688
_symmetry_space_group_name_H-M "P B C N"
_symmetry_group_IT_number 60
_symmetry_cell_setting 'orthorhombic'
loop_
_space_group_symop_operation_xyz
x,y,z
1/2-x,1/2-y,1/2+z
1/2+x,1/2-y,-z
-x,y,1/2-z
-x,-y,-z
1/2+x,1/2+y,1/2-z
1/2-x,1/2+y,z
x,-y,1/2+z
loop_
_atom_site_type_symbol
_atom_site_label
_atom_site_fract_x
_atom_site_fract_y
_atom_site_fract_z
Si Si1 0.624390 0.219424 0.911250
Si Si2 0.337096 0.874880 0.773358
Si Si3 0.667835 0.020593 0.994834
Si Si4 0.635545 0.334281 0.107618
O O1 0.500000 0.194999 0.750000
O O2 0.765866 0.200107 0.782679
O O3 0.641369 0.187445 0.150818
O O4 0.590781 0.282852 0.946075
O O5 0.500000 0.895485 0.750000
O O6 0.293311 0.914863 0.982323
O O7 0.231840 0.874230 0.553572
O O8 0.723111 0.998943 0.244837
O O9 0.500000 0.000000 0.000000
O O10 0.500000 0.356598 0.250000
#
# Coordination Sequence:
#
# PCOD9456785 Si02
#       4
#     8   8   8   8
#     4  12  24  41  67  94 140 187 245 296 359 451
#     4  12  24  40  68 100 133 193 237 305 381 444
#     4  10  22  39  66 103 141 172 244 324 373 434
#     4  12  26  42  62 100 145 187 240 300 373 463
#
# _framework density 24.259429000000001
#
# number of rings (size 3 to 8) (size 9 to 14) (size 15 to 20)
#    0.000    0.500    7.500    2.250    7.000    0.000 
#    0.000    0.000    0.000    1.500    0.000    0.000 
#    0.000    0.000    0.000    0.000    0.000    0.000 
#
# Total GULP energy -178282.748725 kJ/mol
# GULP energy per Si atom -5571.335898 kJ/mol
# Density = 2.420421 g / cm^3
# Si number density = 24.259429 Si / 1000 Ang^3
#
#
#
# Elastic Constant Matrix: (Units=GPa)
#
#
# Indices 1 2 3 4 5 6 
#
# 1 113.9819 7.9917 53.6917 0.0000 0.0000 0.0000
# 2 7.9917 98.5478 26.3619 0.0000 0.0000 0.0000
# 3 53.6917 26.3619 139.6351 0.0000 0.0000 0.0000
# 4 0.0000 0.0000 0.0000 31.6620 0.0000 0.0000
# 5 0.0000 0.0000 0.0000 0.0000 60.4740 0.0000
# 6 0.0000 0.0000 0.0000 0.0000 0.0000 1.8500
#
#
#
# Elastic Compliance Matrix: (Units=1/GPa)
#
#
# Indices 1 2 3 4 5 6 
#
# 1 0.010720 0.000246 -0.004168 0.000000 0.000000 0.000000
# 2 0.000246 0.010693 -0.002113 0.000000 0.000000 0.000000
# 3 -0.004168 -0.002113 0.009163 0.000000 0.000000 0.000000
# 4 0.000000 0.000000 0.000000 0.031584 0.000000 0.000000
# 5 0.000000 0.000000 0.000000 0.000000 0.016536 0.000000
# 6 0.000000 0.000000 0.000000 0.000000 0.000000 0.540529
#
#
# Mechanical properties :
#
#
# Convention : Reuss Voigt Hill
#
# Bulk Modulus (GPa) = 54.04195 58.69502 56.36848
# Shear Modulus (GPa) = 7.84359 36.40519 22.12439
#
# Velocity S-wave (km/s) = 1.80006 3.87804 3.02320
# Velocity P-wave (km/s) = 5.16191 6.65579 5.95587
#
# Compressibility (1/GPa) = 0.01850414
#
# Stress axis : x y z
#
# Youngs Moduli (GPa) = 93.28752 93.52160 109.13212
#
# Poissons Ratio (x) = -0.02298 0.45489
# Poissons Ratio (y) = -0.02292 0.23061
# Poissons Ratio (z) = 0.38884 0.19763
#
# Static dielectric constant tensor:
#      x y z
#    x 1.947740 0.000000 0.000000 
#    y 0.000000 1.960310 0.000000 
#    z 0.000000 0.000000 2.044610 
# 
# From -- ./inp_files/381.got.cif
#   From: 2010.05.17/outbox.cif.g08.bks.cpg/sg60_1_cif.got.tgz:381.got - 2010.06.03 14:59:27.
