data_PCOD9456381
_publ_section_title
;
Structure prediction by ZEFSAII (Michael W. Deem and Ramdas Pophale) SiO2 
 PCOD9456381
Probable space group: P B C N
;
_chemical_formula_sum "Si O2"
_cell_formula_units_Z 48
_cell_length_a 15.500299
_cell_length_b 10.783224
_cell_length_c 13.006182
_cell_angle_alpha 90.000000
_cell_angle_beta 90.000000
_cell_angle_gamma 90.000000
_cell_volume 2173.894830
_symmetry_space_group_name_H-M "P B C N"
_symmetry_group_IT_number 60
_symmetry_cell_setting 'orthorhombic'
loop_
_space_group_symop_operation_xyz
x,y,z
1/2-x,1/2-y,1/2+z
1/2+x,1/2-y,-z
-x,y,1/2-z
-x,-y,-z
1/2+x,1/2+y,1/2-z
1/2-x,1/2+y,z
x,-y,1/2+z
loop_
_atom_site_type_symbol
_atom_site_label
_atom_site_fract_x
_atom_site_fract_y
_atom_site_fract_z
Si Si1 0.741082 0.184668 0.544657
Si Si2 0.368916 0.680673 0.617452
Si Si3 0.610368 0.394897 0.884622
Si Si4 0.243693 0.325767 0.753074
Si Si5 0.000000 0.661069 0.250000
Si Si6 0.629502 0.973561 0.189668
Si Si7 0.500000 0.759543 0.250000
O O1 0.663121 0.246593 0.481886
O O2 0.824068 0.154079 0.473403
O O3 0.767377 0.283892 0.630751
O O4 0.697396 0.067625 0.602666
O O5 0.397634 0.541015 0.598020
O O6 0.284636 0.703515 0.689995
O O7 0.441759 0.750750 0.680968
O O8 0.664144 0.374580 0.779355
O O9 0.524013 0.321310 0.852013
O O10 0.182549 0.443233 0.728633
O O11 0.052000 0.571266 0.328468
O O12 0.580843 0.851360 0.228598
#
# Coordination Sequence:
#
# PCOD9456381 Si02
#       7
#     8   8   8   8   4   8   4
#     4  11  22  40  64 101 123 172 230 266 329 403
#     4  10  22  39  62  92 127 173 216 266 338 392
#     4  11  23  40  68  95 138 172 221 279 330 404
#     4  10  21  41  66  92 129 175 220 270 323 402
#     4   9  21  42  62  92 129 173 212 274 342 397
#     4  10  21  42  67  92 128 169 220 275 330 392
#     4  11  23  44  66 100 131 175 216 282 344 383
#
# _framework density 22.080183999999999
#
# number of rings (size 3 to 8) (size 9 to 14) (size 15 to 20)
#    0.000    1.667    1.667    2.500    2.333    0.667 
#   12.000    0.833    0.000    0.000    0.000    0.000 
#    0.000    0.000    0.000    0.000    0.000    0.000 
#
# Total GULP energy -267389.869119 kJ/mol
# GULP energy per Si atom -5570.622273 kJ/mol
# Density = 2.202993 g / cm^3
# Si number density = 22.080184 Si / 1000 Ang^3
#
#
#
# Elastic Constant Matrix: (Units=GPa)
#
#
# Indices 1 2 3 4 5 6 
#
# 1 45.4026 12.7152 -3.3238 0.0000 0.0000 0.0000
# 2 12.7152 107.0738 16.2819 0.0000 0.0000 0.0000
# 3 -3.3238 16.2819 51.2529 0.0000 0.0000 0.0000
# 4 0.0000 0.0000 0.0000 0.9958 0.0000 0.0000
# 5 0.0000 0.0000 0.0000 0.0000 31.4786 0.0000
# 6 0.0000 0.0000 0.0000 0.0000 0.0000 46.3340
#
#
#
# Elastic Compliance Matrix: (Units=1/GPa)
#
#
# Indices 1 2 3 4 5 6 
#
# 1 0.023081 -0.003119 0.002488 0.000000 0.000000 0.000000
# 2 -0.003119 0.010235 -0.003454 0.000000 0.000000 0.000000
# 3 0.002488 -0.003454 0.020770 0.000000 0.000000 0.000000
# 4 0.000000 0.000000 0.000000 1.004236 0.000000 0.000000
# 5 0.000000 0.000000 0.000000 0.000000 0.031768 0.000000
# 6 0.000000 0.000000 0.000000 0.000000 0.000000 0.021582
#
#
# Mechanical properties :
#
#
# Convention : Reuss Voigt Hill
#
# Bulk Modulus (GPa) = 21.77937 28.34175 25.06056
# Shear Modulus (GPa) = 4.40472 27.63209 16.01840
#
# Velocity S-wave (km/s) = 1.41393 3.54141 2.69637
# Velocity P-wave (km/s) = 3.54271 5.43929 4.59002
#
# Compressibility (1/GPa) = 0.04591501
#
# Stress axis : x y z
#
# Youngs Moduli (GPa) = 43.32604 97.70458 48.14734
#
# Poissons Ratio (x) = 0.30476 -0.11978
# Poissons Ratio (y) = 0.13514 0.16629
# Poissons Ratio (z) = -0.10778 0.33744
#
# Static dielectric constant tensor:
#      x y z
#    x 1.948770 0.000000 0.000000 
#    y 0.000000 1.814260 0.000000 
#    z 0.000000 0.000000 1.851620 
# 
# From -- ./inp_files/12437.got.cif
#   From: 2010.05.17/outbox.cif.g08.bks.cpg/sg60_7_cif.got.tgz:12437.got - 2010.06.03 14:59:27.
