data_PCOD9456911
_publ_section_title
;
Structure prediction by ZEFSAII (Michael W. Deem and Ramdas Pophale) SiO2 
 PCOD9456911
Probable space group: P B C N
;
_chemical_formula_sum "Si O2"
_cell_formula_units_Z 64
_cell_length_a 8.323406
_cell_length_b 11.509427
_cell_length_c 28.333986
_cell_angle_alpha 90.000000
_cell_angle_beta 90.000000
_cell_angle_gamma 90.000000
_cell_volume 2714.328813
_symmetry_space_group_name_H-M "P B C N"
_symmetry_group_IT_number 60
_symmetry_cell_setting 'orthorhombic'
loop_
_space_group_symop_operation_xyz
x,y,z
1/2-x,1/2-y,1/2+z
1/2+x,1/2-y,-z
-x,y,1/2-z
-x,-y,-z
1/2+x,1/2+y,1/2-z
1/2-x,1/2+y,z
x,-y,1/2+z
loop_
_atom_site_type_symbol
_atom_site_label
_atom_site_fract_x
_atom_site_fract_y
_atom_site_fract_z
Si Si1 0.184820 0.510604 0.040110
Si Si2 0.562128 0.832135 0.873597
Si Si3 0.022241 0.904761 0.940078
Si Si4 0.934001 0.471936 0.303324
Si Si5 0.587406 0.725110 0.344482
Si Si6 0.158666 0.116131 0.887602
Si Si7 0.044395 0.988223 0.198159
Si Si8 0.935783 0.334176 0.045683
O O1 0.117920 0.585046 0.083968
O O2 0.374465 0.522961 0.040171
O O3 0.118308 0.381215 0.048675
O O4 0.129921 0.576331 0.993185
O O5 0.718074 0.772924 0.849349
O O6 0.444120 0.734581 0.893955
O O7 0.495263 0.921034 0.833962
O O8 0.960911 0.829175 0.895076
O O9 0.081616 0.798407 0.971803
O O10 0.135976 0.001585 0.919585
O O11 0.974025 0.347696 0.325887
O O12 0.738122 0.475705 0.308146
O O13 0.000000 0.478908 0.250000
O O14 0.525577 0.626395 0.308753
O O15 0.333924 0.151154 0.906485
O O16 0.079632 0.073097 0.838105
O O17 0.000000 0.947944 0.250000
#
# Coordination Sequence:
#
# PCOD9456911 Si02
#       8
#     8   8   8   8   8   8   8   8
#     4  10  25  44  71  98 139 183 236 292 356 441
#     4  10  22  41  67  90 137 184 226 291 361 416
#     4  10  24  43  69  95 135 187 227 286 363 420
#     4  11  22  40  69  98 129 185 246 285 348 431
#     4   9  19  41  65  90 123 181 236 277 350 420
#     4  11  25  44  67  97 143 184 232 296 362 427
#     4  10  22  41  61  95 138 179 226 295 361 413
#     4  11  26  44  68 107 137 178 245 294 359 443
#
# _framework density 23.578574
#
# number of rings (size 3 to 8) (size 9 to 14) (size 15 to 20)
#    0.000    1.750    1.250    1.875    7.000    4.000 
#    2.250    0.000    0.000    0.000    0.000    0.000 
#    0.000    0.000    0.000    0.000    0.000    0.000 
#
# Total GULP energy -357158.446606 kJ/mol
# GULP energy per Si atom -5580.600728 kJ/mol
# Density = 2.352491 g / cm^3
# Si number density = 23.578574 Si / 1000 Ang^3
#
#
#
# Elastic Constant Matrix: (Units=GPa)
#
#
# Indices 1 2 3 4 5 6 
#
# 1 73.9323 37.2729 34.0645 0.0000 0.0000 0.0000
# 2 37.2729 136.2489 21.5864 0.0000 0.0000 0.0000
# 3 34.0645 21.5864 91.2484 0.0000 0.0000 0.0000
# 4 0.0000 0.0000 0.0000 21.8974 0.0000 0.0000
# 5 0.0000 0.0000 0.0000 0.0000 22.4830 0.0000
# 6 0.0000 0.0000 0.0000 0.0000 0.0000 11.9837
#
#
#
# Elastic Compliance Matrix: (Units=1/GPa)
#
#
# Indices 1 2 3 4 5 6 
#
# 1 0.018279 -0.004072 -0.005861 0.000000 0.000000 0.000000
# 2 -0.004072 0.008532 -0.000498 0.000000 0.000000 0.000000
# 3 -0.005861 -0.000498 0.013265 0.000000 0.000000 0.000000
# 4 0.000000 0.000000 0.000000 0.045668 0.000000 0.000000
# 5 0.000000 0.000000 0.000000 0.000000 0.044478 0.000000
# 6 0.000000 0.000000 0.000000 0.000000 0.000000 0.083447
#
#
# Mechanical properties :
#
#
# Convention : Reuss Voigt Hill
#
# Bulk Modulus (GPa) = 52.04409 54.14192 53.09300
# Shear Modulus (GPa) = 20.75243 25.17320 22.96282
#
# Velocity S-wave (km/s) = 2.96993 3.27101 3.12410
# Velocity P-wave (km/s) = 5.82076 6.10558 5.96487
#
# Compressibility (1/GPa) = 0.01921448
#
# Stress axis : x y z
#
# Youngs Moduli (GPa) = 54.70747 117.20011 75.38733
#
# Poissons Ratio (x) = 0.47724 0.44181
# Poissons Ratio (y) = 0.22277 0.03757
# Poissons Ratio (z) = 0.32062 0.05841
#
# Static dielectric constant tensor:
#      x y z
#    x 2.010260 0.000000 0.000000 
#    y 0.000000 1.887350 0.000000 
#    z 0.000000 0.000000 1.935240 
# 
# From -- ./inp_files/26005.got.cif
#   From: 2010.05.17/outbox.cif.g08.bks.cpg/sg60_14_cif.got.tgz:26005.got - 2010.06.03 14:59:27.
