data_PCOD9456093
_publ_section_title
;
Structure prediction by ZEFSAII (Michael W. Deem and Ramdas Pophale) SiO2 
 PCOD9456093
Probable space group: P B C N
;
_chemical_formula_sum "Si O2"
_cell_formula_units_Z 40
_cell_length_a 9.962867
_cell_length_b 22.357334
_cell_length_c 8.898069
_cell_angle_alpha 90.000000
_cell_angle_beta 90.000000
_cell_angle_gamma 90.000000
_cell_volume 1981.983875
_symmetry_space_group_name_H-M "P B C N"
_symmetry_group_IT_number 60
_symmetry_cell_setting 'orthorhombic'
loop_
_space_group_symop_operation_xyz
x,y,z
1/2-x,1/2-y,1/2+z
1/2+x,1/2-y,-z
-x,y,1/2-z
-x,-y,-z
1/2+x,1/2+y,1/2-z
1/2-x,1/2+y,z
x,-y,1/2+z
loop_
_atom_site_type_symbol
_atom_site_label
_atom_site_fract_x
_atom_site_fract_y
_atom_site_fract_z
Si Si1 0.282286 0.993208 0.999269
Si Si2 0.148764 0.806897 0.319566
Si Si3 0.343491 0.579441 0.225893
Si Si4 0.353169 0.713875 0.170966
Si Si5 0.140441 0.411358 0.279756
O O1 0.222890 0.952537 0.867913
O O2 0.378022 0.040648 0.914506
O O3 0.330861 0.949930 0.130910
O O4 0.179697 0.037642 0.082367
O O5 0.243690 0.760912 0.229137
O O6 0.132136 0.784709 0.490864
O O7 0.234759 0.868353 0.313845
O O8 0.000000 0.813854 0.250000
O O9 0.500000 0.583936 0.250000
O O10 0.296448 0.647393 0.206624
O O11 0.500000 0.721333 0.250000
O O12 0.000000 0.377844 0.250000
#
# Coordination Sequence:
#
# PCOD9456093 Si02
#       5
#     8   8   8   8   8
#     4  10  22  40  64  99 133 180 219 273 325 409
#     4  12  27  46  72 101 133 178 229 285 345 403
#     4  10  21  38  66  98 138 170 219 269 340 395
#     4  11  25  47  70  99 139 175 229 280 340 409
#     4  11  24  43  68  98 138 178 226 272 337 398
#
# _framework density 20.181799000000002
#
# number of rings (size 3 to 8) (size 9 to 14) (size 15 to 20)
#    0.000    1.200    2.000    3.000    8.400    3.200 
#    0.000    1.000    0.000    0.000    0.000    0.000 
#    0.000    0.000    0.000    0.000    0.000    0.000 
#
# Total GULP energy -223255.041567 kJ/mol
# GULP energy per Si atom -5581.376039 kJ/mol
# Density = 2.013586 g / cm^3
# Si number density = 20.181799 Si / 1000 Ang^3
#
#
#
# Elastic Constant Matrix: (Units=GPa)
#
#
# Indices 1 2 3 4 5 6 
#
# 1 117.2953 47.2472 45.3566 0.0000 0.0000 0.0000
# 2 47.2472 99.2246 37.4057 0.0000 0.0000 0.0000
# 3 45.3566 37.4057 141.7457 0.0000 0.0000 0.0000
# 4 0.0000 0.0000 0.0000 52.2868 0.0000 0.0000
# 5 0.0000 0.0000 0.0000 0.0000 12.9935 0.0000
# 6 0.0000 0.0000 0.0000 0.0000 0.0000 33.1257
#
#
#
# Elastic Compliance Matrix: (Units=1/GPa)
#
#
# Indices 1 2 3 4 5 6 
#
# 1 0.011254 -0.004443 -0.002429 0.000000 0.000000 0.000000
# 2 -0.004443 0.012946 -0.001994 0.000000 0.000000 0.000000
# 3 -0.002429 -0.001994 0.008358 0.000000 0.000000 0.000000
# 4 0.000000 0.000000 0.000000 0.019125 0.000000 0.000000
# 5 0.000000 0.000000 0.000000 0.000000 0.076961 0.000000
# 6 0.000000 0.000000 0.000000 0.000000 0.000000 0.030188
#
#
# Mechanical properties :
#
#
# Convention : Reuss Voigt Hill
#
# Bulk Modulus (GPa) = 67.45138 68.69828 68.07483
# Shear Modulus (GPa) = 27.54692 34.89826 31.22259
#
# Velocity S-wave (km/s) = 3.69852 4.16287 3.93754
# Velocity P-wave (km/s) = 7.19258 7.56436 7.38081
#
# Compressibility (1/GPa) = 0.01482549
#
# Stress axis : x y z
#
# Youngs Moduli (GPa) = 88.85362 77.24503 119.64070
#
# Poissons Ratio (x) = 0.34323 0.29057
# Poissons Ratio (y) = 0.39481 0.23862
# Poissons Ratio (z) = 0.21580 0.15406
#
# Static dielectric constant tensor:
#      x y z
#    x 1.728080 0.000000 0.000000 
#    y 0.000000 1.710570 0.000000 
#    z 0.000000 0.000000 1.731140 
# 
# From -- ./inp_files/3811.got.cif
#   From: 2010.05.17/outbox.cif.g08.bks.cpg/sg60_2_cif.got.tgz:3811.got - 2010.06.03 14:59:27.
