data_PCOD9456834
_publ_section_title
;
Structure prediction by ZEFSAII (Michael W. Deem and Ramdas Pophale) SiO2 
 PCOD9456834
Probable space group: P B C N
;
_chemical_formula_sum "Si O2"
_cell_formula_units_Z 32
_cell_length_a 16.116134
_cell_length_b 6.989589
_cell_length_c 11.218701
_cell_angle_alpha 90.000000
_cell_angle_beta 90.000000
_cell_angle_gamma 90.000000
_cell_volume 1263.732290
_symmetry_space_group_name_H-M "P B C N"
_symmetry_group_IT_number 60
_symmetry_cell_setting 'orthorhombic'
loop_
_space_group_symop_operation_xyz
x,y,z
1/2-x,1/2-y,1/2+z
1/2+x,1/2-y,-z
-x,y,1/2-z
-x,-y,-z
1/2+x,1/2+y,1/2-z
1/2-x,1/2+y,z
x,-y,1/2+z
loop_
_atom_site_type_symbol
_atom_site_label
_atom_site_fract_x
_atom_site_fract_y
_atom_site_fract_z
Si Si1 0.112537 0.684506 0.446572
Si Si2 0.850013 0.645476 0.803857
Si Si3 0.665085 0.447333 0.268822
Si Si4 0.920997 0.320513 0.944476
O O1 0.167135 0.731021 0.561798
O O2 0.140523 0.802153 0.334841
O O3 0.114103 0.450450 0.446494
O O4 0.015597 0.732172 0.467654
O O5 0.764588 0.545201 0.768920
O O6 0.916765 0.483871 0.838510
O O7 0.870936 0.843123 0.739899
O O8 0.630005 0.354303 0.390957
#
# Coordination Sequence:
#
# PCOD9456834 Si02
#       4
#     8   8   8   8
#     4   9  22  44  65  93 134 178 211 285 335 388
#     4  10  22  40  63  98 134 170 225 271 332 411
#     4  12  21  40  67  97 130 172 228 275 336 400
#     4   9  21  46  62  93 136 168 227 270 331 415
#
# _framework density 25.321818
#
# number of rings (size 3 to 8) (size 9 to 14) (size 15 to 20)
#    1.500    0.500    2.500    0.750    0.000    5.000 
#    4.500    2.500    0.000    0.000    0.000    0.000 
#    0.000    0.000    0.000    0.000    0.000    0.000 
#
# Total GULP energy -178517.115951 kJ/mol
# GULP energy per Si atom -5578.659873 kJ/mol
# Density = 2.526418 g / cm^3
# Si number density = 25.321818 Si / 1000 Ang^3
#
#
#
# Elastic Constant Matrix: (Units=GPa)
#
#
# Indices 1 2 3 4 5 6 
#
# 1 71.9701 1.5074 -0.1768 0.0000 0.0000 0.0000
# 2 1.5074 133.7689 13.5812 0.0000 0.0000 0.0000
# 3 -0.1768 13.5812 8.1714 0.0000 0.0000 0.0000
# 4 0.0000 0.0000 0.0000 46.9236 0.0000 0.0000
# 5 0.0000 0.0000 0.0000 0.0000 31.3076 0.0000
# 6 0.0000 0.0000 0.0000 0.0000 0.0000 21.7134
#
#
#
# Elastic Compliance Matrix: (Units=1/GPa)
#
#
# Indices 1 2 3 4 5 6 
#
# 1 0.013901 -0.000225 0.000675 0.000000 0.000000 0.000000
# 2 -0.000225 0.008997 -0.014958 0.000000 0.000000 0.000000
# 3 0.000675 -0.014958 0.147253 0.000000 0.000000 0.000000
# 4 0.000000 0.000000 0.000000 0.021311 0.000000 0.000000
# 5 0.000000 0.000000 0.000000 0.000000 0.031941 0.000000
# 6 0.000000 0.000000 0.000000 0.000000 0.000000 0.046054
#
#
# Mechanical properties :
#
#
# Convention : Reuss Voigt Hill
#
# Bulk Modulus (GPa) = 7.08540 27.08155 17.08347
# Shear Modulus (GPa) = 14.47098 33.25550 23.86324
#
# Velocity S-wave (km/s) = 2.39316 3.62790 3.07318
# Velocity P-wave (km/s) = 3.23118 5.31668 4.39929
#
# Compressibility (1/GPa) = 0.14113530
#
# Stress axis : x y z
#
# Youngs Moduli (GPa) = 71.93714 111.15140 6.79101
#
# Poissons Ratio (x) = 0.02503 -0.00458
# Poissons Ratio (y) = 0.01620 0.10158
# Poissons Ratio (z) = -0.04856 1.66258
#
# Static dielectric constant tensor:
#      x y z
#    x 1.883830 0.000000 0.000000 
#    y 0.000000 2.072370 0.000000 
#    z 0.000000 0.000000 2.216220 
# 
# From -- ./inp_files/16515.got.cif
#   From: 2010.05.17/outbox.cif.g08.bks.cpg/sg60_9_cif.got.tgz:16515.got - 2010.06.03 14:59:27.
