data_PCOD9456581
_publ_section_title
;
Structure prediction by ZEFSAII (Michael W. Deem and Ramdas Pophale) SiO2 
 PCOD9456581
Probable space group: P B C N
;
_chemical_formula_sum "Si O2"
_cell_formula_units_Z 48
_cell_length_a 15.417778
_cell_length_b 17.488023
_cell_length_c 8.494748
_cell_angle_alpha 90.000000
_cell_angle_beta 90.000000
_cell_angle_gamma 90.000000
_cell_volume 2290.408800
_symmetry_space_group_name_H-M "P B C N"
_symmetry_group_IT_number 60
_symmetry_cell_setting 'orthorhombic'
loop_
_space_group_symop_operation_xyz
x,y,z
1/2-x,1/2-y,1/2+z
1/2+x,1/2-y,-z
-x,y,1/2-z
-x,-y,-z
1/2+x,1/2+y,1/2-z
1/2-x,1/2+y,z
x,-y,1/2+z
loop_
_atom_site_type_symbol
_atom_site_label
_atom_site_fract_x
_atom_site_fract_y
_atom_site_fract_z
Si Si1 0.172419 0.276564 0.333908
Si Si2 0.500000 0.724527 0.750000
Si Si3 0.744242 0.388129 0.973328
Si Si4 0.816975 0.003947 0.753180
Si Si5 0.074257 0.214733 0.063848
Si Si6 0.675235 0.338648 0.391947
Si Si7 0.000000 0.919290 0.750000
O O1 0.171709 0.343326 0.465341
O O2 0.092441 0.265467 0.217196
O O3 0.181688 0.199689 0.436810
O O4 0.252262 0.299295 0.219906
O O5 0.536988 0.759175 0.586734
O O6 0.417130 0.677951 0.688615
O O7 0.715786 0.449443 0.103699
O O8 0.743085 0.434227 0.811131
O O9 0.667924 0.324660 0.967283
O O10 0.815130 0.070595 0.885980
O O11 0.914007 0.970312 0.733854
O O12 0.016357 0.140076 0.106630
#
# Coordination Sequence:
#
# PCOD9456581 Si02
#       7
#     8   4   8   8   8   8   4
#     4  11  21  42  55  83 117 185 201 264 285 371
#     4  12  21  36  54  94 110 165 200 260 293 368
#     4  10  22  35  56  81 123 165 212 240 301 360
#     4  10  22  33  52  89 118 173 194 245 299 374
#     4  11  22  36  56  81 120 174 204 246 301 353
#     4  11  22  36  62  80 133 161 220 244 309 364
#     4  10  23  36  54  90 134 165 200 236 307 396
#
# _framework density 20.956958
#
# number of rings (size 3 to 8) (size 9 to 14) (size 15 to 20)
#    0.000    1.333    5.000    1.500    7.000    1.333 
#    0.000    0.000    0.000    0.000    0.000    0.000 
#    0.000  140.000    0.000    0.000    0.000    0.000 
#
# Total GULP energy -267711.430435 kJ/mol
# GULP energy per Si atom -5577.321467 kJ/mol
# Density = 2.090926 g / cm^3
# Si number density = 20.956958 Si / 1000 Ang^3
#
#
#
# Elastic Constant Matrix: (Units=GPa)
#
#
# Indices 1 2 3 4 5 6 
#
# 1 67.9650 45.6064 28.2186 0.0000 0.0000 0.0000
# 2 45.6064 87.0737 44.2318 0.0000 0.0000 0.0000
# 3 28.2186 44.2318 79.4103 0.0000 0.0000 0.0000
# 4 0.0000 0.0000 0.0000 40.0468 0.0000 0.0000
# 5 0.0000 0.0000 0.0000 0.0000 42.1581 0.0000
# 6 0.0000 0.0000 0.0000 0.0000 0.0000 18.0817
#
#
#
# Elastic Compliance Matrix: (Units=1/GPa)
#
#
# Indices 1 2 3 4 5 6 
#
# 1 0.022920 -0.010972 -0.002033 0.000000 0.000000 0.000000
# 2 -0.010972 0.021269 -0.007948 0.000000 0.000000 0.000000
# 3 -0.002033 -0.007948 0.017742 0.000000 0.000000 0.000000
# 4 0.000000 0.000000 0.000000 0.024971 0.000000 0.000000
# 5 0.000000 0.000000 0.000000 0.000000 0.023720 0.000000
# 6 0.000000 0.000000 0.000000 0.000000 0.000000 0.055305
#
#
# Mechanical properties :
#
#
# Convention : Reuss Voigt Hill
#
# Bulk Modulus (GPa) = 49.93765 52.28476 51.11120
# Shear Modulus (GPa) = 23.30918 27.81679 25.56299
#
# Velocity S-wave (km/s) = 3.33865 3.64721 3.49633
# Velocity P-wave (km/s) = 6.22434 6.53750 6.38285
#
# Compressibility (1/GPa) = 0.02002497
#
# Stress axis : x y z
#
# Youngs Moduli (GPa) = 43.62970 47.01759 56.36245
#
# Poissons Ratio (x) = 0.51588 0.11460
# Poissons Ratio (y) = 0.47870 0.44796
# Poissons Ratio (z) = 0.08871 0.37369
#
# Static dielectric constant tensor:
#      x y z
#    x 1.785340 0.000000 0.000000 
#    y 0.000000 1.744880 0.000000 
#    z 0.000000 0.000000 1.874680 
# 
# From -- ./inp_files/6771.got.cif
#   From: 2010.05.17/outbox.cif.g08.bks.cpg/sg60_4_cif.got.tgz:6771.got - 2010.06.03 14:59:27.
