data_PCOD9456922
_publ_section_title
;
Structure prediction by ZEFSAII (Michael W. Deem and Ramdas Pophale) SiO2 
 PCOD9456922
Probable space group: P B C N
;
_chemical_formula_sum "Si O2"
_cell_formula_units_Z 40
_cell_length_a 12.706261
_cell_length_b 21.064433
_cell_length_c 5.663505
_cell_angle_alpha 90.000000
_cell_angle_beta 90.000000
_cell_angle_gamma 90.000000
_cell_volume 1515.838153
_symmetry_space_group_name_H-M "P B C N"
_symmetry_group_IT_number 60
_symmetry_cell_setting 'orthorhombic'
loop_
_space_group_symop_operation_xyz
x,y,z
1/2-x,1/2-y,1/2+z
1/2+x,1/2-y,-z
-x,y,1/2-z
-x,-y,-z
1/2+x,1/2+y,1/2-z
1/2-x,1/2+y,z
x,-y,1/2+z
loop_
_atom_site_type_symbol
_atom_site_label
_atom_site_fract_x
_atom_site_fract_y
_atom_site_fract_z
Si Si1 0.653253 0.393438 0.684757
Si Si2 0.657449 0.420413 0.183683
Si Si3 0.118058 0.355104 0.646332
Si Si4 0.621639 0.030106 0.640116
Si Si5 0.384258 0.291809 0.137082
O O1 0.616184 0.429729 0.448155
O O2 0.782297 0.389102 0.719238
O O3 0.618802 0.321430 0.624562
O O4 0.606619 0.418486 0.927301
O O5 0.684994 0.344060 0.219646
O O6 0.752173 0.468983 0.158701
O O7 0.103441 0.395428 0.407275
O O8 0.145680 0.281148 0.638210
O O9 0.000000 0.359672 0.750000
O O10 0.589032 0.005413 0.897063
O O11 0.500000 0.297597 0.250000
#
# Coordination Sequence:
#
# PCOD9456922 Si02
#       5
#     8   8   8   8   8
#     4   9  20  37  62  89 129 165 197 260 330 392
#     4   9  20  39  65  90 122 165 213 262 333 379
#     4  10  22  41  64 100 133 172 219 271 330 403
#     4  11  23  42  64  90 128 180 228 264 312 387
#     4   9  21  39  67 102 131 162 213 275 347 410
#
# _framework density 26.388041999999999
#
# number of rings (size 3 to 8) (size 9 to 14) (size 15 to 20)
#    1.200    1.200    0.000    2.400    5.600    1.600 
#    3.600    8.000    0.000    1.200    0.000    0.000 
#    0.000    0.000    0.000    0.000    0.000    0.000 
#
# Total GULP energy -222845.228957 kJ/mol
# GULP energy per Si atom -5571.130724 kJ/mol
# Density = 2.632798 g / cm^3
# Si number density = 26.388042 Si / 1000 Ang^3
#
#
#
# Elastic Constant Matrix: (Units=GPa)
#
#
# Indices 1 2 3 4 5 6 
#
# 1 118.5134 36.3280 78.4765 0.0000 0.0000 0.0000
# 2 36.3280 170.7670 62.3206 0.0000 0.0000 0.0000
# 3 78.4765 62.3206 256.3861 0.0000 0.0000 0.0000
# 4 0.0000 0.0000 0.0000 23.7464 0.0000 0.0000
# 5 0.0000 0.0000 0.0000 0.0000 35.4804 0.0000
# 6 0.0000 0.0000 0.0000 0.0000 0.0000 1.3260
#
#
#
# Elastic Compliance Matrix: (Units=1/GPa)
#
#
# Indices 1 2 3 4 5 6 
#
# 1 0.010801 -0.001197 -0.003015 0.000000 0.000000 0.000000
# 2 -0.001197 0.006559 -0.001228 0.000000 0.000000 0.000000
# 3 -0.003015 -0.001228 0.005122 0.000000 0.000000 0.000000
# 4 0.000000 0.000000 0.000000 0.042112 0.000000 0.000000
# 5 0.000000 0.000000 0.000000 0.000000 0.028185 0.000000
# 6 0.000000 0.000000 0.000000 0.000000 0.000000 0.754164
#
#
# Mechanical properties :
#
#
# Convention : Reuss Voigt Hill
#
# Bulk Modulus (GPa) = 86.19774 99.99075 93.09424
# Shear Modulus (GPa) = 5.80255 36.67998 21.24127
#
# Velocity S-wave (km/s) = 1.48449 3.73235 2.84026
# Velocity P-wave (km/s) = 5.97283 7.51988 6.79055
#
# Compressibility (1/GPa) = 0.01160123
#
# Stress axis : x y z
#
# Youngs Moduli (GPa) = 92.58003 152.46861 195.24846
#
# Poissons Ratio (x) = 0.18258 0.58870
# Poissons Ratio (y) = 0.11086 0.23971
# Poissons Ratio (z) = 0.27914 0.18719
#
# Static dielectric constant tensor:
#      x y z
#    x 2.197620 0.000000 0.000000 
#    y 0.000000 2.069010 0.000000 
#    z 0.000000 0.000000 2.087700 
# 
# From -- ./inp_files/1261.got.cif
#   From: 2010.05.17/outbox.cif.g08.bks.cpg/sg60_1_cif.got.tgz:1261.got - 2010.06.03 14:59:27.
