data_PCOD9456103
_publ_section_title
;
Structure prediction by ZEFSAII (Michael W. Deem and Ramdas Pophale) SiO2 
 PCOD9456103
Probable space group: P B C N
;
_chemical_formula_sum "Si O2"
_cell_formula_units_Z 48
_cell_length_a 7.903638
_cell_length_b 10.351984
_cell_length_c 22.527850
_cell_angle_alpha 90.000000
_cell_angle_beta 90.000000
_cell_angle_gamma 90.000000
_cell_volume 1843.191158
_symmetry_space_group_name_H-M "P B C N"
_symmetry_group_IT_number 60
_symmetry_cell_setting 'orthorhombic'
loop_
_space_group_symop_operation_xyz
x,y,z
1/2-x,1/2-y,1/2+z
1/2+x,1/2-y,-z
-x,y,1/2-z
-x,-y,-z
1/2+x,1/2+y,1/2-z
1/2-x,1/2+y,z
x,-y,1/2+z
loop_
_atom_site_type_symbol
_atom_site_label
_atom_site_fract_x
_atom_site_fract_y
_atom_site_fract_z
Si Si1 0.553097 0.840275 0.134419
Si Si2 0.376403 0.116228 0.516948
Si Si3 0.765031 0.606398 0.106931
Si Si4 0.801605 0.808085 0.298810
Si Si5 0.075319 0.044585 0.601641
Si Si6 0.672901 0.429639 0.777172
O O1 0.476653 0.809400 0.068292
O O2 0.689221 0.726085 0.144411
O O3 0.389560 0.826317 0.176218
O O4 0.615281 0.990990 0.132990
O O5 0.338572 0.173766 0.452593
O O6 0.203152 0.068861 0.548210
O O7 0.500000 0.000000 0.500000
O O8 0.603989 0.516440 0.087807
O O9 0.923521 0.829238 0.355267
O O10 0.817955 0.671439 0.269135
O O11 0.813933 0.925939 0.253178
O O12 0.158321 0.949680 0.651594
O O13 0.500000 0.380980 0.750000
#
# Coordination Sequence:
#
# PCOD9456103 Si02
#       6
#     8   8   8   8   8   8
#     4  10  21  39  56  92 129 172 213 262 318 377
#     4   9  20  36  57  89 129 174 215 252 318 380
#     4  11  21  37  59  93 128 171 216 263 307 391
#     4   9  20  43  67  88 128 163 202 270 321 381
#     4   9  20  38  64  89 128 162 211 267 315 370
#     4  10  21  43  69  93 123 162 211 261 331 383
#
# _framework density 26.041789000000001
#
# number of rings (size 3 to 8) (size 9 to 14) (size 15 to 20)
#    1.000    1.333    1.667    0.500    0.000    5.333 
#    3.000    0.833    0.000    0.000    0.000    0.000 
#    0.000    0.000    0.000    0.000    0.000    0.000 
#
# Total GULP energy -267722.680273 kJ/mol
# GULP energy per Si atom -5577.555839 kJ/mol
# Density = 2.598252 g / cm^3
# Si number density = 26.041789 Si / 1000 Ang^3
#
#
#
# Elastic Constant Matrix: (Units=GPa)
#
#
# Indices 1 2 3 4 5 6 
#
# 1 91.7797 16.8454 18.8710 0.0000 0.0000 0.0000
# 2 16.8454 78.4410 12.1603 0.0000 0.0000 0.0000
# 3 18.8710 12.1603 98.2111 0.0000 0.0000 0.0000
# 4 0.0000 0.0000 0.0000 11.6667 0.0000 0.0000
# 5 0.0000 0.0000 0.0000 0.0000 40.6972 0.0000
# 6 0.0000 0.0000 0.0000 0.0000 0.0000 32.5792
#
#
#
# Elastic Compliance Matrix: (Units=1/GPa)
#
#
# Indices 1 2 3 4 5 6 
#
# 1 0.011707 -0.002208 -0.001976 0.000000 0.000000 0.000000
# 2 -0.002208 0.013414 -0.001237 0.000000 0.000000 0.000000
# 3 -0.001976 -0.001237 0.010715 0.000000 0.000000 0.000000
# 4 0.000000 0.000000 0.000000 0.085714 0.000000 0.000000
# 5 0.000000 0.000000 0.000000 0.000000 0.024572 0.000000
# 6 0.000000 0.000000 0.000000 0.000000 0.000000 0.030694
#
#
# Mechanical properties :
#
#
# Convention : Reuss Voigt Hill
#
# Bulk Modulus (GPa) = 40.00774 40.46504 40.23639
# Shear Modulus (GPa) = 25.51154 31.69229 28.60191
#
# Velocity S-wave (km/s) = 3.13331 3.49231 3.31767
# Velocity P-wave (km/s) = 5.33727 5.64215 5.49183
#
# Compressibility (1/GPa) = 0.02499516
#
# Stress axis : x y z
#
# Youngs Moduli (GPa) = 85.41752 74.54740 93.32717
#
# Poissons Ratio (x) = 0.16459 0.18443
# Poissons Ratio (y) = 0.18858 0.11542
# Poissons Ratio (z) = 0.16880 0.09219
#
# Static dielectric constant tensor:
#      x y z
#    x 2.065520 0.000000 0.000000 
#    y 0.000000 2.195760 0.000000 
#    z 0.000000 0.000000 2.965510 
# 
# From -- ./inp_files/25144.got.cif
#   From: 2010.05.17/outbox.cif.g08.bks.cpg/sg60_13_cif.got.tgz:25144.got - 2010.06.03 14:59:27.
