data_PCOD9456483
_publ_section_title
;
Structure prediction by ZEFSAII (Michael W. Deem and Ramdas Pophale) SiO2 
 PCOD9456483
Probable space group: P B C N
;
_chemical_formula_sum "Si O2"
_cell_formula_units_Z 48
_cell_length_a 14.119379
_cell_length_b 7.808064
_cell_length_c 15.656562
_cell_angle_alpha 90.000000
_cell_angle_beta 90.000000
_cell_angle_gamma 90.000000
_cell_volume 1726.057911
_symmetry_space_group_name_H-M "P B C N"
_symmetry_group_IT_number 60
_symmetry_cell_setting 'orthorhombic'
loop_
_space_group_symop_operation_xyz
x,y,z
1/2-x,1/2-y,1/2+z
1/2+x,1/2-y,-z
-x,y,1/2-z
-x,-y,-z
1/2+x,1/2+y,1/2-z
1/2-x,1/2+y,z
x,-y,1/2+z
loop_
_atom_site_type_symbol
_atom_site_label
_atom_site_fract_x
_atom_site_fract_y
_atom_site_fract_z
Si Si1 0.414630 0.059129 0.186065
Si Si2 0.573040 0.698816 0.328399
Si Si3 0.431241 0.544798 0.908632
Si Si4 0.771194 0.940804 0.712925
Si Si5 0.345396 0.246389 0.026821
Si Si6 0.162962 0.631882 0.457737
O O1 0.500000 0.106993 0.250000
O O2 0.326252 0.000381 0.244369
O O3 0.382523 0.204679 0.121228
O O4 0.435976 0.887654 0.131086
O O5 0.500000 0.721089 0.250000
O O6 0.527868 0.542190 0.378945
O O7 0.674167 0.653397 0.289268
O O8 0.358523 0.545917 0.828048
O O9 0.391108 0.404884 0.975918
O O10 0.576633 0.262978 0.055395
O O11 0.728676 0.853599 0.627679
O O12 0.233492 0.290848 0.028851
O O13 0.355968 0.067513 0.974202
#
# Coordination Sequence:
#
# PCOD9456483 Si02
#       6
#     8   8   8   8   8   8
#     4  11  26  46  73 108 152 203 258 315 389 459
#     4   9  21  40  72 105 147 205 243 316 390 449
#     4  10  22  46  76 112 156 198 256 320 384 462
#     4  10  21  42  77 104 153 204 253 312 393 463
#     4  11  24  43  79 110 152 207 261 315 393 460
#     4  11  22  43  80 116 149 209 260 318 391 472
#
# _framework density 27.809031000000001
#
# number of rings (size 3 to 8) (size 9 to 14) (size 15 to 20)
#    0.000    1.667    3.333    1.000    9.333    0.667 
#    0.000    5.000    0.000    0.000    0.000    0.000 
#    0.000    0.000    0.000    0.000    0.000    0.000 
#
# Total GULP energy -268649.841443 kJ/mol
# GULP energy per Si atom -5596.871697 kJ/mol
# Density = 2.774574 g / cm^3
# Si number density = 27.809031 Si / 1000 Ang^3
#
#
#
# Elastic Constant Matrix: (Units=GPa)
#
#
# Indices 1 2 3 4 5 6 
#
# 1 131.8144 13.6076 45.8447 0.0000 0.0000 0.0000
# 2 13.6076 126.1519 28.3519 0.0000 0.0000 0.0000
# 3 45.8447 28.3519 104.9749 0.0000 0.0000 0.0000
# 4 0.0000 0.0000 0.0000 40.2525 0.0000 0.0000
# 5 0.0000 0.0000 0.0000 0.0000 52.7452 0.0000
# 6 0.0000 0.0000 0.0000 0.0000 0.0000 111.3753
#
#
#
# Elastic Compliance Matrix: (Units=1/GPa)
#
#
# Indices 1 2 3 4 5 6 
#
# 1 0.008946 -0.000093 -0.003882 0.000000 0.000000 0.000000
# 2 -0.000093 0.008440 -0.002239 0.000000 0.000000 0.000000
# 3 -0.003882 -0.002239 0.011826 0.000000 0.000000 0.000000
# 4 0.000000 0.000000 0.000000 0.024843 0.000000 0.000000
# 5 0.000000 0.000000 0.000000 0.000000 0.018959 0.000000
# 6 0.000000 0.000000 0.000000 0.000000 0.000000 0.008979
#
#
# Mechanical properties :
#
#
# Convention : Reuss Voigt Hill
#
# Bulk Modulus (GPa) = 59.57631 59.83884 59.70758
# Shear Modulus (GPa) = 49.99220 59.21708 54.60464
#
# Velocity S-wave (km/s) = 4.24452 4.61957 4.43601
# Velocity P-wave (km/s) = 6.74472 7.07237 6.91048
#
# Compressibility (1/GPa) = 0.01678519
#
# Stress axis : x y z
#
# Youngs Moduli (GPa) = 111.78044 118.48116 84.55825
#
# Poissons Ratio (x) = 0.01096 0.32825
# Poissons Ratio (y) = 0.01034 0.18934
# Poissons Ratio (z) = 0.43393 0.26529
#
# Static dielectric constant tensor:
#      x y z
#    x 2.196240 0.000000 0.000000 
#    y 0.000000 2.155220 0.000000 
#    z 0.000000 0.000000 2.198710 
# 
# From -- ./inp_files/20006.got.cif
#   From: 2010.05.17/outbox.cif.g08.bks.cpg/sg60_11_cif.got.tgz:20006.got - 2010.06.03 14:59:27.
