data_PCOD9456619
_publ_section_title
;
Structure prediction by ZEFSAII (Michael W. Deem and Ramdas Pophale) SiO2 
 PCOD9456619
Probable space group: P B C N
;
_chemical_formula_sum "Si O2"
_cell_formula_units_Z 40
_cell_length_a 10.599137
_cell_length_b 8.611816
_cell_length_c 18.046944
_cell_angle_alpha 90.000000
_cell_angle_beta 90.000000
_cell_angle_gamma 90.000000
_cell_volume 1647.285663
_symmetry_space_group_name_H-M "P B C N"
_symmetry_group_IT_number 60
_symmetry_cell_setting 'orthorhombic'
loop_
_space_group_symop_operation_xyz
x,y,z
1/2-x,1/2-y,1/2+z
1/2+x,1/2-y,-z
-x,y,1/2-z
-x,-y,-z
1/2+x,1/2+y,1/2-z
1/2-x,1/2+y,z
x,-y,1/2+z
loop_
_atom_site_type_symbol
_atom_site_label
_atom_site_fract_x
_atom_site_fract_y
_atom_site_fract_z
Si Si1 0.380800 0.830714 0.556964
Si Si2 0.382930 0.200067 0.534777
Si Si3 0.053000 0.196187 0.334590
Si Si4 0.786836 0.906946 0.186942
Si Si5 0.372150 0.879424 0.726175
O O1 0.511579 0.763556 0.526515
O O2 0.257035 0.758906 0.519865
O O3 0.371750 0.812654 0.644847
O O4 0.379241 0.014859 0.543048
O O5 0.437731 0.271905 0.610632
O O6 0.127141 0.035074 0.352735
O O7 0.158065 0.333425 0.346457
O O8 0.000000 0.187957 0.250000
O O9 0.740075 0.001655 0.259557
O O10 0.861329 0.757909 0.214380
O O11 0.500000 0.963696 0.750000
#
# Coordination Sequence:
#
# PCOD9456619 Si02
#       5
#     8   8   8   8   8
#     4  11  25  45  66  98 135 178 224 277 337 403
#     4  11  26  45  68  96 136 178 225 278 337 405
#     4  11  22  40  64  94 130 171 220 277 333 395
#     4  10  22  36  61  95 126 162 217 275 326 383
#     4  11  21  38  63  91 125 166 213 263 320 386
#
# _framework density 24.282371000000001
#
# number of rings (size 3 to 8) (size 9 to 14) (size 15 to 20)
#    0.000    1.200    0.000    7.200    0.000    8.800 
#    0.000    0.000    0.000    0.000    0.000    0.000 
#    0.000    0.000    0.000    0.000    0.000    0.000 
#
# Total GULP energy -223928.150244 kJ/mol
# GULP energy per Si atom -5598.203756 kJ/mol
# Density = 2.422710 g / cm^3
# Si number density = 24.282371 Si / 1000 Ang^3
#
#
#
# Elastic Constant Matrix: (Units=GPa)
#
#
# Indices 1 2 3 4 5 6 
#
# 1 116.1781 23.3836 6.2010 0.0000 0.0000 0.0000
# 2 23.3836 89.5728 -8.9684 0.0000 0.0000 0.0000
# 3 6.2010 -8.9684 43.4861 0.0000 0.0000 0.0000
# 4 0.0000 0.0000 0.0000 9.4779 0.0000 0.0000
# 5 0.0000 0.0000 0.0000 0.0000 39.1769 0.0000
# 6 0.0000 0.0000 0.0000 0.0000 0.0000 47.2624
#
#
#
# Elastic Compliance Matrix: (Units=1/GPa)
#
#
# Indices 1 2 3 4 5 6 
#
# 1 0.009228 -0.002594 -0.001851 0.000000 0.000000 0.000000
# 2 -0.002594 0.012129 0.002871 0.000000 0.000000 0.000000
# 3 -0.001851 0.002871 0.023852 0.000000 0.000000 0.000000
# 4 0.000000 0.000000 0.000000 0.105509 0.000000 0.000000
# 5 0.000000 0.000000 0.000000 0.000000 0.025525 0.000000
# 6 0.000000 0.000000 0.000000 0.000000 0.000000 0.021158
#
#
# Mechanical properties :
#
#
# Convention : Reuss Voigt Hill
#
# Bulk Modulus (GPa) = 23.77491 32.27436 28.02464
# Shear Modulus (GPa) = 23.30237 34.42482 28.86360
#
# Velocity S-wave (km/s) = 3.10117 3.76930 3.45144
# Velocity P-wave (km/s) = 4.75765 5.68011 5.23922
#
# Compressibility (1/GPa) = 0.04206115
#
# Stress axis : x y z
#
# Youngs Moduli (GPa) = 108.36022 82.44762 41.92518
#
# Poissons Ratio (x) = 0.21391 0.07760
# Poissons Ratio (y) = 0.28114 -0.12038
# Poissons Ratio (z) = 0.20058 -0.23674
#
# Static dielectric constant tensor:
#      x y z
#    x 1.989940 0.000000 0.000000 
#    y 0.000000 1.882970 0.000000 
#    z 0.000000 0.000000 1.941210 
# 
# From -- ./inp_files/19847.got.cif
#   From: 2010.05.17/outbox.cif.g08.bks.cpg/sg60_10_cif.got.tgz:19847.got - 2010.06.03 14:59:27.
