data_PCOD9456672
_publ_section_title
;
Structure prediction by ZEFSAII (Michael W. Deem and Ramdas Pophale) SiO2 
 PCOD9456672
Probable space group: P B C N
;
_chemical_formula_sum "Si O2"
_cell_formula_units_Z 64
_cell_length_a 14.255530
_cell_length_b 9.620853
_cell_length_c 23.876748
_cell_angle_alpha 90.000000
_cell_angle_beta 90.000000
_cell_angle_gamma 90.000000
_cell_volume 3274.704550
_symmetry_space_group_name_H-M "P B C N"
_symmetry_group_IT_number 60
_symmetry_cell_setting 'orthorhombic'
loop_
_space_group_symop_operation_xyz
x,y,z
1/2-x,1/2-y,1/2+z
1/2+x,1/2-y,-z
-x,y,1/2-z
-x,-y,-z
1/2+x,1/2+y,1/2-z
1/2-x,1/2+y,z
x,-y,1/2+z
loop_
_atom_site_type_symbol
_atom_site_label
_atom_site_fract_x
_atom_site_fract_y
_atom_site_fract_z
Si Si1 0.536799 0.322248 0.916981
Si Si2 0.089270 0.502041 0.086671
Si Si3 0.301659 0.490478 0.046087
Si Si4 0.539169 0.960173 0.691701
Si Si5 0.748449 0.126250 0.569616
Si Si6 0.431597 0.709092 0.302088
Si Si7 0.406634 0.233378 0.003304
Si Si8 0.763708 0.625165 0.149379
O O1 0.621712 0.428640 0.918050
O O2 0.478221 0.339591 0.860331
O O3 0.475904 0.339406 0.973079
O O4 0.566526 0.160390 0.921208
O O5 0.200953 0.507525 0.075529
O O6 0.042753 0.543853 0.145395
O O7 0.049960 0.617161 0.043310
O O8 0.298708 0.566215 0.985233
O O9 0.330847 0.330193 0.035290
O O10 0.500000 0.907504 0.750000
O O11 0.634280 0.881614 0.676494
O O12 0.566255 0.123117 0.698143
O O13 0.642784 0.148412 0.547093
O O14 0.773471 0.274021 0.595501
O O15 0.757208 0.022487 0.621059
O O16 0.500000 0.665493 0.250000
O O17 0.322162 0.664741 0.309106
#
# Coordination Sequence:
#
# PCOD9456672 Si02
#       8
#     8   8   8   8   8   8   8   8
#     4  11  21  38  60  88 122 166 209 252 311 379
#     4  10  22  38  59  88 120 164 207 256 309 377
#     4  11  23  36  58  91 134 163 197 254 321 373
#     4  10  23  43  67  90 121 165 218 260 313 379
#     4  11  21  36  61  91 128 162 207 248 308 375
#     4  10  22  43  66  92 123 168 215 261 316 371
#     4  11  21  37  57  93 128 164 203 253 314 377
#     4  12  21  41  66  92 121 165 208 264 304 372
#
# _framework density 19.543748000000001
#
# number of rings (size 3 to 8) (size 9 to 14) (size 15 to 20)
#    0.000    1.250    3.750    3.000    3.500    1.000 
#    0.000    1.875    0.000    0.000    0.000    0.000 
#    0.000    0.000    0.000    0.000    0.000    0.000 
#
# Total GULP energy -356959.031621 kJ/mol
# GULP energy per Si atom -5577.484869 kJ/mol
# Density = 1.949927 g / cm^3
# Si number density = 19.543748 Si / 1000 Ang^3
#
#
#
# Elastic Constant Matrix: (Units=GPa)
#
#
# Indices 1 2 3 4 5 6 
#
# 1 104.2822 14.8550 55.4529 0.0000 0.0000 0.0000
# 2 14.8550 31.9621 12.9076 0.0000 0.0000 0.0000
# 3 55.4529 12.9076 91.9424 0.0000 0.0000 0.0000
# 4 0.0000 0.0000 0.0000 16.4828 0.0000 0.0000
# 5 0.0000 0.0000 0.0000 0.0000 23.4018 0.0000
# 6 0.0000 0.0000 0.0000 0.0000 0.0000 32.6238
#
#
#
# Elastic Compliance Matrix: (Units=1/GPa)
#
#
# Indices 1 2 3 4 5 6 
#
# 1 0.014455 -0.003390 -0.008242 0.000000 0.000000 0.000000
# 2 -0.003390 0.033962 -0.002723 0.000000 0.000000 0.000000
# 3 -0.008242 -0.002723 0.016230 0.000000 0.000000 0.000000
# 4 0.000000 0.000000 0.000000 0.060669 0.000000 0.000000
# 5 0.000000 0.000000 0.000000 0.000000 0.042732 0.000000
# 6 0.000000 0.000000 0.000000 0.000000 0.000000 0.030653
#
#
# Mechanical properties :
#
#
# Convention : Reuss Voigt Hill
#
# Bulk Modulus (GPa) = 27.82708 43.84643 35.83676
# Shear Modulus (GPa) = 20.88633 24.16642 22.52637
#
# Velocity S-wave (km/s) = 3.27264 3.52025 3.39870
# Velocity P-wave (km/s) = 5.34317 6.24552 5.81189
#
# Compressibility (1/GPa) = 0.03593621
#
# Stress axis : x y z
#
# Youngs Moduli (GPa) = 69.17918 29.44442 61.61442
#
# Poissons Ratio (x) = 0.09981 0.50785
# Poissons Ratio (y) = 0.23449 0.16781
# Poissons Ratio (z) = 0.57021 0.08019
#
# Static dielectric constant tensor:
#      x y z
#    x 1.739700 0.000000 0.000000 
#    y 0.000000 1.676950 0.000000 
#    z 0.000000 0.000000 1.699910 
# 
# From -- ./inp_files/24463.got.cif
#   From: 2010.05.17/outbox.cif.g08.bks.cpg/sg60_13_cif.got.tgz:24463.got - 2010.06.03 14:59:27.
