data_PCOD9456708
_publ_section_title
;
Structure prediction by ZEFSAII (Michael W. Deem and Ramdas Pophale) SiO2 
 PCOD9456708
Probable space group: P B C N
;
_chemical_formula_sum "Si O2"
_cell_formula_units_Z 64
_cell_length_a 21.520748
_cell_length_b 8.497829
_cell_length_c 16.482496
_cell_angle_alpha 90.000000
_cell_angle_beta 90.000000
_cell_angle_gamma 90.000000
_cell_volume 3014.312876
_symmetry_space_group_name_H-M "P B C N"
_symmetry_group_IT_number 60
_symmetry_cell_setting 'orthorhombic'
loop_
_space_group_symop_operation_xyz
x,y,z
1/2-x,1/2-y,1/2+z
1/2+x,1/2-y,-z
-x,y,1/2-z
-x,-y,-z
1/2+x,1/2+y,1/2-z
1/2-x,1/2+y,z
x,-y,1/2+z
loop_
_atom_site_type_symbol
_atom_site_label
_atom_site_fract_x
_atom_site_fract_y
_atom_site_fract_z
Si Si1 0.289521 0.078606 0.196248
Si Si2 0.917113 0.329282 0.024307
Si Si3 0.278087 0.645669 0.808995
Si Si4 0.799075 0.125797 0.079974
Si Si5 0.628183 0.101860 0.928319
Si Si6 0.045847 0.943442 0.072738
Si Si7 0.514413 0.266872 0.841276
Si Si8 0.314542 0.418552 0.564948
O O1 0.306633 0.242223 0.239602
O O2 0.223542 0.088218 0.148606
O O3 0.278549 0.945989 0.264497
O O4 0.336979 0.023123 0.128344
O O5 0.854395 0.238175 0.050263
O O6 0.963105 0.302810 0.098503
O O7 0.903285 0.507319 0.000980
O O8 0.946924 0.241268 0.945320
O O9 0.317251 0.508334 0.852924
O O10 0.250804 0.764613 0.875762
O O11 0.779184 0.020981 0.002628
O O12 0.578198 0.190737 0.872529
O O13 0.673606 0.238610 0.958892
O O14 0.018605 0.043040 0.147268
O O15 0.116980 0.004796 0.068081
O O16 0.000000 0.000000 0.000000
O O17 0.500000 0.226169 0.750000
#
# Coordination Sequence:
#
# PCOD9456708 Si02
#       8
#     8   8   8   8   8   8   8   8
#     4  11  23  40  60  91 130 174 211 262 327 395
#     4  10  22  41  68  94 125 168 221 275 327 394
#     4  10  24  40  59  89 140 163 208 271 329 392
#     4  10  24  40  62  94 126 170 214 271 326 394
#     4  11  24  40  66  96 130 174 223 270 320 404
#     4   8  18  39  64  94 126 164 218 267 319 387
#     4  10  22  42  67  93 128 170 214 278 340 389
#     4  10  22  38  65  94 126 174 224 256 322 402
#
# _framework density 21.232036000000001
#
# number of rings (size 3 to 8) (size 9 to 14) (size 15 to 20)
#    0.000    2.000    1.250    0.375    8.750    2.000 
#    0.000    0.625    0.000    0.000    0.000    0.000 
#    0.000    0.000    0.000    0.000    0.000    0.000 
#
# Total GULP energy -356932.081590 kJ/mol
# GULP energy per Si atom -5577.063775 kJ/mol
# Density = 2.118371 g / cm^3
# Si number density = 21.232036 Si / 1000 Ang^3
#
#
#
# Elastic Constant Matrix: (Units=GPa)
#
#
# Indices 1 2 3 4 5 6 
#
# 1 40.0056 18.8033 30.1509 0.0000 0.0000 0.0000
# 2 18.8033 89.4784 33.6097 0.0000 0.0000 0.0000
# 3 30.1509 33.6097 83.4239 0.0000 0.0000 0.0000
# 4 0.0000 0.0000 0.0000 14.2674 0.0000 0.0000
# 5 0.0000 0.0000 0.0000 0.0000 21.2928 0.0000
# 6 0.0000 0.0000 0.0000 0.0000 0.0000 25.4804
#
#
#
# Elastic Compliance Matrix: (Units=1/GPa)
#
#
# Indices 1 2 3 4 5 6 
#
# 1 0.035057 -0.003073 -0.011432 0.000000 0.000000 0.000000
# 2 -0.003073 0.013438 -0.004303 0.000000 0.000000 0.000000
# 3 -0.011432 -0.004303 0.017853 0.000000 0.000000 0.000000
# 4 0.000000 0.000000 0.000000 0.070090 0.000000 0.000000
# 5 0.000000 0.000000 0.000000 0.000000 0.046964 0.000000
# 6 0.000000 0.000000 0.000000 0.000000 0.000000 0.039246
#
#
# Mechanical properties :
#
#
# Convention : Reuss Voigt Hill
#
# Bulk Modulus (GPa) = 34.80600 42.00397 38.40499
# Shear Modulus (GPa) = 18.52942 20.89771 19.71356
#
# Velocity S-wave (km/s) = 2.95737 3.14069 3.05041
# Velocity P-wave (km/s) = 5.30001 5.74266 5.52577
#
# Compressibility (1/GPa) = 0.02873068
#
# Stress axis : x y z
#
# Youngs Moduli (GPa) = 28.52505 74.41579 56.01455
#
# Poissons Ratio (x) = 0.22867 0.64037
# Poissons Ratio (y) = 0.08765 0.24105
# Poissons Ratio (z) = 0.32611 0.32023
#
# Static dielectric constant tensor:
#      x y z
#    x 1.835650 0.000000 0.000000 
#    y 0.000000 2.343800 0.000000 
#    z 0.000000 0.000000 1.806380 
# 
# From -- ./inp_files/17954.got.cif
#   From: 2010.05.17/outbox.cif.g08.bks.cpg/sg60_9_cif.got.tgz:17954.got - 2010.06.03 14:59:27.
