data_PCOD9456138
_publ_section_title
;
Structure prediction by ZEFSAII (Michael W. Deem and Ramdas Pophale) SiO2 
 PCOD9456138
Probable space group: P B C N
;
_chemical_formula_sum "Si O2"
_cell_formula_units_Z 44
_cell_length_a 5.038848
_cell_length_b 16.268265
_cell_length_c 24.055666
_cell_angle_alpha 90.000000
_cell_angle_beta 90.000000
_cell_angle_gamma 90.000000
_cell_volume 1971.922676
_symmetry_space_group_name_H-M "P B C N"
_symmetry_group_IT_number 60
_symmetry_cell_setting 'orthorhombic'
loop_
_space_group_symop_operation_xyz
x,y,z
1/2-x,1/2-y,1/2+z
1/2+x,1/2-y,-z
-x,y,1/2-z
-x,-y,-z
1/2+x,1/2+y,1/2-z
1/2-x,1/2+y,z
x,-y,1/2+z
loop_
_atom_site_type_symbol
_atom_site_label
_atom_site_fract_x
_atom_site_fract_y
_atom_site_fract_z
Si Si1 0.456019 0.275401 0.031616
Si Si2 0.500000 0.514290 0.750000
Si Si3 0.739926 0.867138 0.174668
Si Si4 0.279345 0.586657 0.146034
Si Si5 0.283191 0.194759 0.358460
Si Si6 0.240742 0.916867 0.100641
O O1 0.585432 0.234854 0.086566
O O2 0.326150 0.363965 0.046132
O O3 0.707703 0.277535 0.990618
O O4 0.730269 0.574959 0.727701
O O5 0.610036 0.457745 0.799010
O O6 0.744971 0.769698 0.184565
O O7 0.503145 0.886860 0.132375
O O8 0.003691 0.891645 0.141418
O O9 0.500133 0.653658 0.130170
O O10 0.250860 0.515498 0.099410
O O11 0.996533 0.626902 0.159131
#
# Coordination Sequence:
#
# PCOD9456138 Si02
#       6
#     8   4   8   8   8   8
#     4  11  22  41  67  91 120 168 225 258 307 398
#     4  10  24  40  64  92 122 176 210 242 302 396
#     4  10  21  39  62  86 122 165 213 241 296 376
#     4  11  23  40  62  92 133 159 202 263 326 364
#     4  11  23  41  62  93 126 162 201 273 320 353
#     4  10  21  40  62  89 125 166 196 257 323 364
#
# _framework density 22.313244999999998
#
# number of rings (size 3 to 8) (size 9 to 14) (size 15 to 20)
#    0.000    1.455    0.000    7.636    0.000    8.000 
#    0.000    5.455    0.000    0.000    0.000    0.000 
#    0.000    0.000    0.000    0.000    0.000    0.000 
#
# Total GULP energy -245872.044227 kJ/mol
# GULP energy per Si atom -5588.001005 kJ/mol
# Density = 2.226246 g / cm^3
# Si number density = 22.313245 Si / 1000 Ang^3
#
#
#
# Elastic Constant Matrix: (Units=GPa)
#
#
# Indices 1 2 3 4 5 6 
#
# 1 151.6289 1.9061 2.2547 0.0000 0.0000 0.0000
# 2 1.9061 89.0810 3.7285 0.0000 0.0000 0.0000
# 3 2.2547 3.7285 51.3484 0.0000 0.0000 0.0000
# 4 0.0000 0.0000 0.0000 24.9495 0.0000 0.0000
# 5 0.0000 0.0000 0.0000 0.0000 1.0767 0.0000
# 6 0.0000 0.0000 0.0000 0.0000 0.0000 -14.9680
#
#
#
# Elastic Compliance Matrix: (Units=1/GPa)
#
#
# Indices 1 2 3 4 5 6 
#
# 1 0.006601 -0.000130 -0.000280 0.000000 0.000000 0.000000
# 2 -0.000130 0.011263 -0.000812 0.000000 0.000000 0.000000
# 3 -0.000280 -0.000812 0.019546 0.000000 0.000000 0.000000
# 4 0.000000 0.000000 0.000000 0.040081 0.000000 0.000000
# 5 0.000000 0.000000 0.000000 0.000000 0.928790 0.000000
# 6 0.000000 0.000000 0.000000 0.000000 0.000000 -0.066809
#
#
# Mechanical properties :
#
#
# Convention : Reuss Voigt Hill
#
# Bulk Modulus (GPa) = 28.59974 34.20410 31.40192
# Shear Modulus (GPa) = 5.24345 21.15621 13.19983
#
# Velocity S-wave (km/s) = 1.53461 3.08254 2.43486
# Velocity P-wave (km/s) = 3.99816 5.29450 4.69132
#
# Compressibility (1/GPa) = 0.03496536
#
# Stress axis : x y z
#
# Youngs Moduli (GPa) = 151.49573 88.79019 51.16111
#
# Poissons Ratio (x) = 0.01150 0.01435
# Poissons Ratio (y) = 0.01962 0.04155
# Poissons Ratio (z) = 0.04249 0.07211
#
# Static dielectric constant tensor:
#      x y z
#    x 1.781050 0.000000 0.000000 
#    y 0.000000 1.869760 0.000000 
#    z 0.000000 0.000000 1.895140 
# 
# From -- ./inp_files/24824.got.cif
#   From: 2010.05.17/outbox.cif.g08.bks.cpg/sg60_13_cif.got.tgz:24824.got - 2010.06.03 14:59:27.
