data_PCOD9456490
_publ_section_title
;
Structure prediction by ZEFSAII (Michael W. Deem and Ramdas Pophale) SiO2 
 PCOD9456490
Probable space group: P B C N
;
_chemical_formula_sum "Si O2"
_cell_formula_units_Z 56
_cell_length_a 12.920000
_cell_length_b 11.851763
_cell_length_c 15.065150
_cell_angle_alpha 90.000000
_cell_angle_beta 90.000000
_cell_angle_gamma 90.000000
_cell_volume 2306.847749
_symmetry_space_group_name_H-M "P B C N"
_symmetry_group_IT_number 60
_symmetry_cell_setting 'orthorhombic'
loop_
_space_group_symop_operation_xyz
x,y,z
1/2-x,1/2-y,1/2+z
1/2+x,1/2-y,-z
-x,y,1/2-z
-x,-y,-z
1/2+x,1/2+y,1/2-z
1/2-x,1/2+y,z
x,-y,1/2+z
loop_
_atom_site_type_symbol
_atom_site_label
_atom_site_fract_x
_atom_site_fract_y
_atom_site_fract_z
Si Si1 0.906554 0.291217 0.028055
Si Si2 0.233779 0.489159 0.493465
Si Si3 0.366663 0.421217 0.846412
Si Si4 0.073967 0.568848 0.622086
Si Si5 0.684574 0.723406 0.323181
Si Si6 0.566907 0.460579 0.915714
Si Si7 0.428915 0.805462 0.666147
O O1 0.803326 0.360047 0.002082
O O2 0.883506 0.181937 0.084725
O O3 0.966861 0.377783 0.091635
O O4 0.961446 0.266094 0.933400
O O5 0.278179 0.508724 0.395830
O O6 0.138477 0.560863 0.529633
O O7 0.322924 0.518072 0.565863
O O8 0.335638 0.366034 0.754907
O O9 0.478456 0.480953 0.843152
O O10 0.133488 0.654069 0.687180
O O11 0.068440 0.442635 0.659363
O O12 0.611686 0.666672 0.400520
O O13 0.808745 0.731773 0.325848
O O14 0.500000 0.500000 0.000000
O O15 0.500000 0.771550 0.750000
#
# Coordination Sequence:
#
# PCOD9456490 Si02
#       7
#     8   8   8   8   8   8   8
#     4  11  23  43  69 100 130 182 231 274 356 415
#     4  10  22  43  64  95 129 178 220 284 339 407
#     4  11  25  38  73  94 136 178 231 274 346 417
#     4  11  24  41  73  94 137 178 231 278 350 417
#     4  12  24  44  68 104 137 180 231 288 346 409
#     4  10  21  43  64  91 128 179 223 278 340 402
#     4  11  26  45  70 101 143 176 229 298 347 411
#
# _framework density 24.275549999999999
#
# number of rings (size 3 to 8) (size 9 to 14) (size 15 to 20)
#    0.000    1.143    4.286    3.000    6.000    0.000 
#    0.000    0.000    6.286    0.000    0.000    0.000 
#    0.000    0.000    0.000    0.000    0.000    0.000 
#
# Total GULP energy -312336.460755 kJ/mol
# GULP energy per Si atom -5577.436799 kJ/mol
# Density = 2.422030 g / cm^3
# Si number density = 24.275550 Si / 1000 Ang^3
#
#
#
# Elastic Constant Matrix: (Units=GPa)
#
#
# Indices 1 2 3 4 5 6 
#
# 1 98.1727 6.6215 32.2339 0.0000 0.0000 0.0000
# 2 6.6215 42.1825 12.5813 0.0000 0.0000 0.0000
# 3 32.2339 12.5813 96.4374 0.0000 0.0000 0.0000
# 4 0.0000 0.0000 0.0000 36.5656 0.0000 0.0000
# 5 0.0000 0.0000 0.0000 0.0000 29.5881 0.0000
# 6 0.0000 0.0000 0.0000 0.0000 0.0000 20.6565
#
#
#
# Elastic Compliance Matrix: (Units=1/GPa)
#
#
# Indices 1 2 3 4 5 6 
#
# 1 0.011461 -0.000683 -0.003742 0.000000 0.000000 0.000000
# 2 -0.000683 0.024707 -0.002995 0.000000 0.000000 0.000000
# 3 -0.003742 -0.002995 0.012011 0.000000 0.000000 0.000000
# 4 0.000000 0.000000 0.000000 0.027348 0.000000 0.000000
# 5 0.000000 0.000000 0.000000 0.000000 0.033797 0.000000
# 6 0.000000 0.000000 0.000000 0.000000 0.000000 0.048411
#
#
# Mechanical properties :
#
#
# Convention : Reuss Voigt Hill
#
# Bulk Modulus (GPa) = 29.99471 37.74065 33.86768
# Shear Modulus (GPa) = 27.22020 29.71911 28.46965
#
# Velocity S-wave (km/s) = 3.35222 3.50271 3.42829
# Velocity P-wave (km/s) = 5.23124 5.65147 5.44541
#
# Compressibility (1/GPa) = 0.03333921
#
# Stress axis : x y z
#
# Youngs Moduli (GPa) = 87.25460 40.47436 83.25865
#
# Poissons Ratio (x) = 0.02765 0.31152
# Poissons Ratio (y) = 0.05960 0.24936
# Poissons Ratio (z) = 0.32647 0.12122
#
# Static dielectric constant tensor:
#      x y z
#    x 1.964320 0.000000 0.000000 
#    y 0.000000 1.967080 0.000000 
#    z 0.000000 0.000000 1.983130 
# 
# From -- ./inp_files/16175.got.cif
#   From: 2010.05.17/outbox.cif.g08.bks.cpg/sg60_9_cif.got.tgz:16175.got - 2010.06.03 14:59:27.
