data_PCOD9456817
_publ_section_title
;
Structure prediction by ZEFSAII (Michael W. Deem and Ramdas Pophale) SiO2 
 PCOD9456817
Probable space group: P B C N
;
_chemical_formula_sum "Si O2"
_cell_formula_units_Z 28
_cell_length_a 7.957876
_cell_length_b 25.169831
_cell_length_c 5.185105
_cell_angle_alpha 90.000000
_cell_angle_beta 90.000000
_cell_angle_gamma 90.000000
_cell_volume 1038.568204
_symmetry_space_group_name_H-M "P B C N"
_symmetry_group_IT_number 60
_symmetry_cell_setting 'orthorhombic'
loop_
_space_group_symop_operation_xyz
x,y,z
1/2-x,1/2-y,1/2+z
1/2+x,1/2-y,-z
-x,y,1/2-z
-x,-y,-z
1/2+x,1/2+y,1/2-z
1/2-x,1/2+y,z
x,-y,1/2+z
loop_
_atom_site_type_symbol
_atom_site_label
_atom_site_fract_x
_atom_site_fract_y
_atom_site_fract_z
Si Si1 0.500000 0.127496 0.750000
Si Si2 0.500000 0.410919 0.250000
Si Si3 0.300061 0.678986 0.497612
Si Si4 0.310882 0.035563 0.012366
Si Si5 0.000000 0.732589 0.250000
O O1 0.657130 0.166258 0.788779
O O2 0.435657 0.085310 0.963425
O O3 0.595742 0.374685 0.463093
O O4 0.370504 0.443256 0.423410
O O5 0.166599 0.697173 0.284563
O O6 0.435925 0.725187 0.536658
O O7 0.329352 0.989571 0.793730
#
# Coordination Sequence:
#
# PCOD9456817 Si02
#       5
#     4   4   8   8   4
#     4  10  22  40  61  98 134 168 229 286 346 410
#     4   9  22  42  64  96 132 168 228 284 344 409
#     4  10  22  40  64  95 130 174 224 284 343 414
#     4  11  23  42  67  96 135 180 227 283 347 415
#     4  11  22  42  67  92 132 180 227 282 354 419
#
# _framework density 26.960194999999999
#
# number of rings (size 3 to 8) (size 9 to 14) (size 15 to 20)
#    0.000    1.714    0.000    3.429    0.000    4.571 
#    0.000   11.429    0.000    0.000    0.000    0.000 
#    0.000    0.000    0.000    0.000    0.000    0.000 
#
# Total GULP energy -156211.249100 kJ/mol
# GULP energy per Si atom -5578.973182 kJ/mol
# Density = 2.689883 g / cm^3
# Si number density = 26.960195 Si / 1000 Ang^3
#
#
#
# Elastic Constant Matrix: (Units=GPa)
#
#
# Indices 1 2 3 4 5 6 
#
# 1 149.8697 20.6318 -6.7621 0.0000 0.0000 0.0000
# 2 20.6318 84.3498 24.3855 0.0000 0.0000 0.0000
# 3 -6.7621 24.3855 78.5393 0.0000 0.0000 0.0000
# 4 0.0000 0.0000 0.0000 26.9212 0.0000 0.0000
# 5 0.0000 0.0000 0.0000 0.0000 36.7893 0.0000
# 6 0.0000 0.0000 0.0000 0.0000 0.0000 2312.7857
#
#
#
# Elastic Compliance Matrix: (Units=1/GPa)
#
#
# Indices 1 2 3 4 5 6 
#
# 1 0.007015 -0.002077 0.001249 0.000000 0.000000 0.000000
# 2 -0.002077 0.013639 -0.004414 0.000000 0.000000 0.000000
# 3 0.001249 -0.004414 0.014210 0.000000 0.000000 0.000000
# 4 0.000000 0.000000 0.000000 0.037145 0.000000 0.000000
# 5 0.000000 0.000000 0.000000 0.000000 0.027182 0.000000
# 6 0.000000 0.000000 0.000000 0.000000 0.000000 0.000432
#
#
# Mechanical properties :
#
#
# Convention : Reuss Voigt Hill
#
# Bulk Modulus (GPa) = 41.01542 43.25213 42.13378
# Shear Modulus (GPa) = 42.28886 493.59948 267.94417
#
# Velocity S-wave (km/s) = 3.96481 13.54555 9.98002
# Velocity P-wave (km/s) = 6.01714 16.14684 12.18455
#
# Compressibility (1/GPa) = 0.02438107
#
# Stress axis : x y z
#
# Youngs Moduli (GPa) = 142.55753 73.31717 70.37103
#
# Poissons Ratio (x) = 0.15227 -0.08788
# Poissons Ratio (y) = 0.29606 0.31059
# Poissons Ratio (z) = -0.17802 0.32360
#
# Static dielectric constant tensor:
#      x y z
#    x 2.220710 0.000000 0.000000 
#    y 0.000000 2.154110 0.000000 
#    z 0.000000 0.000000 2.078520 
# 
# From -- ./inp_files/325.got.cif
#   From: 2010.05.17/outbox.cif.g08.bks.cpg/sg60_1_cif.got.tgz:325.got - 2010.06.03 14:59:27.
