data_PCOD9456308
_publ_section_title
;
Structure prediction by ZEFSAII (Michael W. Deem and Ramdas Pophale) SiO2 
 PCOD9456308
Probable space group: P B C N
;
_chemical_formula_sum "Si O2"
_cell_formula_units_Z 48
_cell_length_a 13.089830
_cell_length_b 9.711300
_cell_length_c 14.501160
_cell_angle_alpha 90.000000
_cell_angle_beta 90.000000
_cell_angle_gamma 90.000000
_cell_volume 1843.376816
_symmetry_space_group_name_H-M "P B C N"
_symmetry_group_IT_number 60
_symmetry_cell_setting 'orthorhombic'
loop_
_space_group_symop_operation_xyz
x,y,z
1/2-x,1/2-y,1/2+z
1/2+x,1/2-y,-z
-x,y,1/2-z
-x,-y,-z
1/2+x,1/2+y,1/2-z
1/2-x,1/2+y,z
x,-y,1/2+z
loop_
_atom_site_type_symbol
_atom_site_label
_atom_site_fract_x
_atom_site_fract_y
_atom_site_fract_z
Si Si1 0.120213 0.061527 0.723409
Si Si2 0.473233 0.167691 0.946275
Si Si3 0.862423 0.950891 0.589715
Si Si4 0.174543 0.483892 0.305313
Si Si5 0.336780 0.666739 0.072056
Si Si6 0.609358 0.836121 0.866274
O O1 0.235649 0.108230 0.758361
O O2 0.073107 0.192408 0.674712
O O3 0.921241 0.998733 0.681722
O O4 0.137309 0.936390 0.654729
O O5 0.421210 0.321269 0.950545
O O6 0.407320 0.095643 0.866506
O O7 0.591109 0.200452 0.925000
O O8 0.459711 0.110387 0.050052
O O9 0.746427 0.922971 0.626545
O O10 0.855134 0.077703 0.519902
O O11 0.124025 0.565637 0.221370
O O12 0.217945 0.694283 0.085150
#
# Coordination Sequence:
#
# PCOD9456308 Si02
#       6
#     8   8   8   8   8   8
#     4   9  21  40  68 104 138 185 239 301 361 436
#     4  12  23  42  75 107 148 190 246 310 365 444
#     4  10  21  40  68 108 136 185 242 302 362 426
#     4   9  22  39  66 104 143 199 225 293 379 438
#     4  11  23  41  71 114 136 191 249 306 371 432
#     4  11  21  44  71 102 151 191 241 305 371 452
#
# _framework density 26.039169999999999
#
# number of rings (size 3 to 8) (size 9 to 14) (size 15 to 20)
#    1.000    0.667    3.333    1.500    0.000    0.667 
#    0.000    0.000    3.667   14.000    0.000    0.000 
#    0.000    0.000    0.000    0.000    0.000    0.000 
#
# Total GULP energy -268928.946716 kJ/mol
# GULP energy per Si atom -5602.686390 kJ/mol
# Density = 2.597990 g / cm^3
# Si number density = 26.039170 Si / 1000 Ang^3
#
#
#
# Elastic Constant Matrix: (Units=GPa)
#
#
# Indices 1 2 3 4 5 6 
#
# 1 116.8934 17.9769 33.5716 0.0000 0.0000 0.0000
# 2 17.9769 44.0074 28.2298 0.0000 0.0000 0.0000
# 3 33.5716 28.2298 161.8748 0.0000 0.0000 0.0000
# 4 0.0000 0.0000 0.0000 49.3220 0.0000 0.0000
# 5 0.0000 0.0000 0.0000 0.0000 27.3279 0.0000
# 6 0.0000 0.0000 0.0000 0.0000 0.0000 45.8339
#
#
#
# Elastic Compliance Matrix: (Units=1/GPa)
#
#
# Indices 1 2 3 4 5 6 
#
# 1 0.009419 -0.002921 -0.001444 0.000000 0.000000 0.000000
# 2 -0.002921 0.026492 -0.004014 0.000000 0.000000 0.000000
# 3 -0.001444 -0.004014 0.007177 0.000000 0.000000 0.000000
# 4 0.000000 0.000000 0.000000 0.020275 0.000000 0.000000
# 5 0.000000 0.000000 0.000000 0.000000 0.036593 0.000000
# 6 0.000000 0.000000 0.000000 0.000000 0.000000 0.021818
#
#
# Mechanical properties :
#
#
# Convention : Reuss Voigt Hill
#
# Bulk Modulus (GPa) = 37.98099 53.59247 45.78673
# Shear Modulus (GPa) = 33.94245 40.69657 37.31951
#
# Velocity S-wave (km/s) = 3.61434 3.95764 3.78988
# Velocity P-wave (km/s) = 5.66001 6.44283 6.06406
#
# Compressibility (1/GPa) = 0.02632896
#
# Stress axis : x y z
#
# Youngs Moduli (GPa) = 106.17107 37.74754 139.33186
#
# Poissons Ratio (x) = 0.11027 0.20118
# Poissons Ratio (y) = 0.31016 0.55930
# Poissons Ratio (z) = 0.15330 0.15152
#
# Static dielectric constant tensor:
#      x y z
#    x 2.197050 0.000000 0.000000 
#    y 0.000000 2.027350 0.000000 
#    z 0.000000 0.000000 2.004970 
# 
# From -- ./inp_files/20071.got.cif
#   From: 2010.05.17/outbox.cif.g08.bks.cpg/sg60_11_cif.got.tgz:20071.got - 2010.06.03 14:59:27.
