data_PCOD9456824
_publ_section_title
;
Structure prediction by ZEFSAII (Michael W. Deem and Ramdas Pophale) SiO2 
 PCOD9456824
Probable space group: P B C N
;
_chemical_formula_sum "Si O2"
_cell_formula_units_Z 28
_cell_length_a 13.616969
_cell_length_b 4.997286
_cell_length_c 17.815921
_cell_angle_alpha 90.000000
_cell_angle_beta 90.000000
_cell_angle_gamma 90.000000
_cell_volume 1212.335807
_symmetry_space_group_name_H-M "P B C N"
_symmetry_group_IT_number 60
_symmetry_cell_setting 'orthorhombic'
loop_
_space_group_symop_operation_xyz
x,y,z
1/2-x,1/2-y,1/2+z
1/2+x,1/2-y,-z
-x,y,1/2-z
-x,-y,-z
1/2+x,1/2+y,1/2-z
1/2-x,1/2+y,z
x,-y,1/2+z
loop_
_atom_site_type_symbol
_atom_site_label
_atom_site_fract_x
_atom_site_fract_y
_atom_site_fract_z
Si Si1 0.500000 0.051899 0.750000
Si Si2 0.979483 0.819055 0.592749
Si Si3 0.101882 0.318842 0.550910
Si Si4 0.806087 0.243000 0.799380
O O1 0.472326 0.232827 0.821578
O O2 0.407053 0.865546 0.730427
O O3 0.065535 0.621780 0.561338
O O4 0.889454 0.754024 0.536625
O O5 0.014729 0.121121 0.580838
O O6 0.186529 0.258623 0.609957
O O7 0.719154 0.443929 0.776300
#
# Coordination Sequence:
#
# PCOD9456824 Si02
#       4
#     4   8   8   8
#     4  10  22  40  62  90 128 162 204 266 324 376
#     4   9  18  33  59  83 111 154 197 247 309 365
#     4   9  18  35  55  82 112 152 204 247 298 373
#     4  11  23  38  59  87 121 164 209 256 315 377
#
# _framework density 23.095908999999999
#
# number of rings (size 3 to 8) (size 9 to 14) (size 15 to 20)
#    0.000    2.286    0.000    3.429    0.000   10.286 
#    0.000    2.857    0.000    0.000    0.000    0.000 
#    0.000    0.000    0.000    0.000    0.000    0.000 
#
# Total GULP energy -156384.751293 kJ/mol
# GULP energy per Si atom -5585.169689 kJ/mol
# Density = 2.304334 g / cm^3
# Si number density = 23.095909 Si / 1000 Ang^3
#
#
#
# Elastic Constant Matrix: (Units=GPa)
#
#
# Indices 1 2 3 4 5 6 
#
# 1 59.2036 17.3881 29.3505 0.0000 0.0000 0.0000
# 2 17.3881 84.0793 19.0427 0.0000 0.0000 0.0000
# 3 29.3505 19.0427 158.8591 0.0000 0.0000 0.0000
# 4 0.0000 0.0000 0.0000 35.0810 0.0000 0.0000
# 5 0.0000 0.0000 0.0000 0.0000 35.1413 0.0000
# 6 0.0000 0.0000 0.0000 0.0000 0.0000 27.6251
#
#
#
# Elastic Compliance Matrix: (Units=1/GPa)
#
#
# Indices 1 2 3 4 5 6 
#
# 1 0.019444 -0.003297 -0.003197 0.000000 0.000000 0.000000
# 2 -0.003297 0.012785 -0.000923 0.000000 0.000000 0.000000
# 3 -0.003197 -0.000923 0.006996 0.000000 0.000000 0.000000
# 4 0.000000 0.000000 0.000000 0.028505 0.000000 0.000000
# 5 0.000000 0.000000 0.000000 0.000000 0.028457 0.000000
# 6 0.000000 0.000000 0.000000 0.000000 0.000000 0.036199
#
#
# Mechanical properties :
#
#
# Convention : Reuss Voigt Hill
#
# Bulk Modulus (GPa) = 41.00084 48.18940 44.59512
# Shear Modulus (GPa) = 32.18512 35.32685 33.75598
#
# Velocity S-wave (km/s) = 3.73707 3.91522 3.82718
# Velocity P-wave (km/s) = 6.03422 6.43030 6.23541
#
# Compressibility (1/GPa) = 0.02438975
#
# Stress axis : x y z
#
# Youngs Moduli (GPa) = 51.42901 78.21971 142.93288
#
# Poissons Ratio (x) = 0.25789 0.45699
# Poissons Ratio (y) = 0.16956 0.13198
# Poissons Ratio (z) = 0.16443 0.07222
#
# Static dielectric constant tensor:
#      x y z
#    x 1.891590 0.000000 0.000000 
#    y 0.000000 1.826710 0.000000 
#    z 0.000000 0.000000 1.939190 
# 
# From -- ./inp_files/20319.got.cif
#   From: 2010.05.17/outbox.cif.g08.bks.cpg/sg60_11_cif.got.tgz:20319.got - 2010.06.03 14:59:27.
