data_PCOD9456512
_publ_section_title
;
Structure prediction by ZEFSAII (Michael W. Deem and Ramdas Pophale) SiO2 
 PCOD9456512
Probable space group: P B C N
;
_chemical_formula_sum "Si O2"
_cell_formula_units_Z 56
_cell_length_a 7.710398
_cell_length_b 22.045204
_cell_length_c 15.110652
_cell_angle_alpha 90.000000
_cell_angle_beta 90.000000
_cell_angle_gamma 90.000000
_cell_volume 2568.467780
_symmetry_space_group_name_H-M "P B C N"
_symmetry_group_IT_number 60
_symmetry_cell_setting 'orthorhombic'
loop_
_space_group_symop_operation_xyz
x,y,z
1/2-x,1/2-y,1/2+z
1/2+x,1/2-y,-z
-x,y,1/2-z
-x,-y,-z
1/2+x,1/2+y,1/2-z
1/2-x,1/2+y,z
x,-y,1/2+z
loop_
_atom_site_type_symbol
_atom_site_label
_atom_site_fract_x
_atom_site_fract_y
_atom_site_fract_z
Si Si1 0.881406 0.620026 0.989156
Si Si2 0.980013 0.182936 0.933157
Si Si3 0.810426 0.306637 0.938493
Si Si4 0.609217 0.041423 0.826957
Si Si5 0.809491 0.924782 0.844139
Si Si6 0.691897 0.449352 0.634803
Si Si7 0.349228 0.419002 0.313599
O O1 0.690319 0.646432 0.966719
O O2 0.953313 0.579537 0.909179
O O3 0.841264 0.580561 0.076623
O O4 0.028615 0.669670 0.003072
O O5 0.887622 0.244507 0.898539
O O6 0.079312 0.139001 0.864038
O O7 0.131579 0.199423 0.004735
O O8 0.775950 0.361927 0.871889
O O9 0.500000 0.008391 0.750000
O O10 0.702228 0.089762 0.760364
O O11 0.720762 0.988099 0.870634
O O12 0.805613 0.929606 0.737636
O O13 0.998463 0.927599 0.889554
O O14 0.697681 0.522556 0.627614
O O15 0.500000 0.444397 0.250000
#
# Coordination Sequence:
#
# PCOD9456512 Si02
#       7
#     8   8   8   8   8   8   8
#     4  12  25  43  73 103 135 183 231 292 357 407
#     4  12  25  47  68  98 140 185 240 278 339 420
#     4  12  27  45  69  99 141 187 229 292 335 421
#     4  11  24  43  67 106 144 172 229 299 353 429
#     4  10  22  42  67 102 144 178 223 289 359 415
#     4  10  21  43  71 106 138 175 230 296 358 422
#     4  11  21  43  69  96 137 184 223 278 355 418
#
# _framework density 21.802883999999999
#
# number of rings (size 3 to 8) (size 9 to 14) (size 15 to 20)
#    0.000    0.857    7.143    0.857    6.000    1.714 
#    2.571    0.000    3.143    0.000    0.000    0.000 
#    0.000    0.000    0.000    0.000    0.000    0.000 
#
# Total GULP energy -312098.198117 kJ/mol
# GULP energy per Si atom -5573.182109 kJ/mol
# Density = 2.175326 g / cm^3
# Si number density = 21.802884 Si / 1000 Ang^3
#
#
#
# Elastic Constant Matrix: (Units=GPa)
#
#
# Indices 1 2 3 4 5 6 
#
# 1 108.4623 35.8571 20.8943 0.0000 0.0000 0.0000
# 2 35.8571 147.3917 41.5736 0.0000 0.0000 0.0000
# 3 20.8943 41.5736 48.8158 0.0000 0.0000 0.0000
# 4 0.0000 0.0000 0.0000 7.4312 0.0000 0.0000
# 5 0.0000 0.0000 0.0000 0.0000 29.0594 0.0000
# 6 0.0000 0.0000 0.0000 0.0000 0.0000 41.0884
#
#
#
# Elastic Compliance Matrix: (Units=1/GPa)
#
#
# Indices 1 2 3 4 5 6 
#
# 1 0.010351 -0.001670 -0.003009 0.000000 0.000000 0.000000
# 2 -0.001670 0.009199 -0.007120 0.000000 0.000000 0.000000
# 3 -0.003009 -0.007120 0.027836 0.000000 0.000000 0.000000
# 4 0.000000 0.000000 0.000000 0.134568 0.000000 0.000000
# 5 0.000000 0.000000 0.000000 0.000000 0.034412 0.000000
# 6 0.000000 0.000000 0.000000 0.000000 0.000000 0.024338
#
#
# Mechanical properties :
#
#
# Convention : Reuss Voigt Hill
#
# Bulk Modulus (GPa) = 42.03305 55.70219 48.86762
# Shear Modulus (GPa) = 18.36677 29.27212 23.81944
#
# Velocity S-wave (km/s) = 2.90556 3.66810 3.30887
# Velocity P-wave (km/s) = 5.52964 6.59875 6.08771
#
# Compressibility (1/GPa) = 0.02379081
#
# Stress axis : x y z
#
# Youngs Moduli (GPa) = 96.60566 108.70758 35.92429
#
# Poissons Ratio (x) = 0.18150 0.10809
# Poissons Ratio (y) = 0.16129 0.25577
# Poissons Ratio (z) = 0.29066 0.77396
#
# Static dielectric constant tensor:
#      x y z
#    x 2.047100 0.000000 0.000000 
#    y 0.000000 1.780400 0.000000 
#    z 0.000000 0.000000 1.783340 
# 
# From -- ./inp_files/15277.got.cif
#   From: 2010.05.17/outbox.cif.g08.bks.cpg/sg60_8_cif.got.tgz:15277.got - 2010.06.03 14:59:27.
