data_PCOD9456840
_publ_section_title
;
Structure prediction by ZEFSAII (Michael W. Deem and Ramdas Pophale) SiO2 
 PCOD9456840
Probable space group: P B C N
;
_chemical_formula_sum "Si O2"
_cell_formula_units_Z 28
_cell_length_a 5.156072
_cell_length_b 28.538450
_cell_length_c 8.692737
_cell_angle_alpha 90.000000
_cell_angle_beta 90.000000
_cell_angle_gamma 90.000000
_cell_volume 1279.104112
_symmetry_space_group_name_H-M "P B C N"
_symmetry_group_IT_number 60
_symmetry_cell_setting 'orthorhombic'
loop_
_space_group_symop_operation_xyz
x,y,z
1/2-x,1/2-y,1/2+z
1/2+x,1/2-y,-z
-x,y,1/2-z
-x,-y,-z
1/2+x,1/2+y,1/2-z
1/2-x,1/2+y,z
x,-y,1/2+z
loop_
_atom_site_type_symbol
_atom_site_label
_atom_site_fract_x
_atom_site_fract_y
_atom_site_fract_z
Si Si1 0.937463 0.275198 0.933308
Si Si2 0.762801 0.143747 0.648867
Si Si3 0.500000 0.016500 0.250000
Si Si4 0.819716 0.955380 0.026286
O O1 0.000000 0.278054 0.750000
O O2 0.699909 0.240066 0.976458
O O3 0.832799 0.323172 0.010451
O O4 0.500000 0.134611 0.750000
O O5 0.890301 0.096312 0.579049
O O6 0.000000 0.165050 0.750000
O O7 0.647364 0.047864 0.373259
O O8 0.671799 0.979001 0.164376
O O9 0.000000 0.000000 0.000000
#
# Coordination Sequence:
#
# PCOD9456840 Si02
#       4
#     8   8   4   8
#     4  12  26  49  78 111 148 189 240 306 372 442
#     4  12  26  46  74 106 146 192 245 301 367 439
#     4  10  22  40  64  92 136 186 236 296 350 422
#     4  11  23  42  66  98 141 188 243 294 362 419
#
# _framework density 21.890321
#
# number of rings (size 3 to 8) (size 9 to 14) (size 15 to 20)
#    0.000    0.571    1.429    7.714    6.000    0.000 
#    0.000    2.857    0.000    0.000    0.000    0.000 
#    0.000    0.000    0.000    0.000    0.000    0.000 
#
# Total GULP energy -156084.846926 kJ/mol
# GULP energy per Si atom -5574.458819 kJ/mol
# Density = 2.184050 g / cm^3
# Si number density = 21.890321 Si / 1000 Ang^3
#
#
#
# Elastic Constant Matrix: (Units=GPa)
#
#
# Indices 1 2 3 4 5 6 
#
# 1 132.3730 34.9596 76.7010 0.0000 0.0000 0.0000
# 2 34.9596 130.1435 55.2405 0.0000 0.0000 0.0000
# 3 76.7010 55.2405 183.9162 0.0000 0.0000 0.0000
# 4 0.0000 0.0000 0.0000 64.3238 0.0000 0.0000
# 5 0.0000 0.0000 0.0000 0.0000 59.1649 0.0000
# 6 0.0000 0.0000 0.0000 0.0000 0.0000 30.7976
#
#
#
# Elastic Compliance Matrix: (Units=1/GPa)
#
#
# Indices 1 2 3 4 5 6 
#
# 1 0.010087 -0.001059 -0.003889 0.000000 0.000000 0.000000
# 2 -0.001059 0.008918 -0.002237 0.000000 0.000000 0.000000
# 3 -0.003889 -0.002237 0.007731 0.000000 0.000000 0.000000
# 4 0.000000 0.000000 0.000000 0.015546 0.000000 0.000000
# 5 0.000000 0.000000 0.000000 0.000000 0.016902 0.000000
# 6 0.000000 0.000000 0.000000 0.000000 0.000000 0.032470
#
#
# Mechanical properties :
#
#
# Convention : Reuss Voigt Hill
#
# Bulk Modulus (GPa) = 80.86253 86.69277 83.77765
# Shear Modulus (GPa) = 45.39432 49.49270 47.44351
#
# Velocity S-wave (km/s) = 4.55875 4.76009 4.66051
# Velocity P-wave (km/s) = 8.04547 8.36065 8.20458
#
# Compressibility (1/GPa) = 0.01236667
#
# Stress axis : x y z
#
# Youngs Moduli (GPa) = 99.13368 112.13581 129.35115
#
# Poissons Ratio (x) = 0.11876 0.50302
# Poissons Ratio (y) = 0.10499 0.28934
# Poissons Ratio (z) = 0.38551 0.25083
#
# Static dielectric constant tensor:
#      x y z
#    x 1.809690 0.000000 0.000000 
#    y 0.000000 1.507810 0.000000 
#    z 0.000000 0.000000 1.789880 
# 
# From -- ./inp_files/2974.got.cif
#   From: 2010.05.17/outbox.cif.g08.bks.cpg/sg60_2_cif.got.tgz:2974.got - 2010.06.03 14:59:27.
