data_PCOD9456559
_publ_section_title
;
Structure prediction by ZEFSAII (Michael W. Deem and Ramdas Pophale) SiO2 
 PCOD9456559
Probable space group: P B C N
;
_chemical_formula_sum "Si O2"
_cell_formula_units_Z 32
_cell_length_a 9.016090
_cell_length_b 14.820161
_cell_length_c 9.776184
_cell_angle_alpha 90.000000
_cell_angle_beta 90.000000
_cell_angle_gamma 90.000000
_cell_volume 1306.292781
_symmetry_space_group_name_H-M "P B C N"
_symmetry_group_IT_number 60
_symmetry_cell_setting 'orthorhombic'
loop_
_space_group_symop_operation_xyz
x,y,z
1/2-x,1/2-y,1/2+z
1/2+x,1/2-y,-z
-x,y,1/2-z
-x,-y,-z
1/2+x,1/2+y,1/2-z
1/2-x,1/2+y,z
x,-y,1/2+z
loop_
_atom_site_type_symbol
_atom_site_label
_atom_site_fract_x
_atom_site_fract_y
_atom_site_fract_z
Si Si1 0.674071 0.201401 0.514223
Si Si2 0.168793 0.176648 0.726206
Si Si3 0.654104 0.526042 0.571913
Si Si4 0.437632 0.919061 0.906051
O O1 0.705688 0.286094 0.420442
O O2 0.213250 0.279823 0.329543
O O3 0.776896 0.111975 0.487557
O O4 0.509317 0.167362 0.479890
O O5 0.160833 0.072729 0.775678
O O6 0.000000 0.207617 0.750000
O O7 0.500000 0.500000 0.500000
O O8 0.764215 0.442195 0.587751
O O9 0.500000 0.923217 0.750000
O O10 0.500000 0.000000 0.000000
#
# Coordination Sequence:
#
# PCOD9456559 Si02
#       4
#     8   8   8   8
#     4   9  22  46  72 103 150 197 244 316 369 468
#     4  10  22  46  70 108 149 191 252 307 382 451
#     4   9  22  46  77 106 147 191 250 316 382 443
#     4  10  21  45  73 110 142 194 249 301 376 457
#
# _framework density 24.496805999999999
#
# number of rings (size 3 to 8) (size 9 to 14) (size 15 to 20)
#    1.500    1.000    0.000    0.750    0.000    4.000 
#   22.500    3.750    5.500    0.000    0.000    0.000 
#    0.000    0.000    0.000    0.000    0.000    0.000 
#
# Total GULP energy -178246.138619 kJ/mol
# GULP energy per Si atom -5570.191832 kJ/mol
# Density = 2.444105 g / cm^3
# Si number density = 24.496806 Si / 1000 Ang^3
#
#
#
# Elastic Constant Matrix: (Units=GPa)
#
#
# Indices 1 2 3 4 5 6 
#
# 1 142.8446 51.2863 27.9326 0.0000 0.0000 0.0000
# 2 51.2863 119.3363 59.3363 0.0000 0.0000 0.0000
# 3 27.9326 59.3363 62.3546 0.0000 0.0000 0.0000
# 4 0.0000 0.0000 0.0000 37.3128 0.0000 0.0000
# 5 0.0000 0.0000 0.0000 0.0000 30.8064 0.0000
# 6 0.0000 0.0000 0.0000 0.0000 0.0000 -6.6152
#
#
#
# Elastic Compliance Matrix: (Units=1/GPa)
#
#
# Indices 1 2 3 4 5 6 
#
# 1 0.008290 -0.003258 -0.000614 0.000000 0.000000 0.000000
# 2 -0.003258 0.017185 -0.014894 0.000000 0.000000 0.000000
# 3 -0.000614 -0.014894 0.030485 0.000000 0.000000 0.000000
# 4 0.000000 0.000000 0.000000 0.026800 0.000000 0.000000
# 5 0.000000 0.000000 0.000000 0.000000 0.032461 0.000000
# 6 0.000000 0.000000 0.000000 0.000000 0.000000 -0.151167
#
#
# Mechanical properties :
#
#
# Convention : Reuss Voigt Hill
#
# Bulk Modulus (GPa) = 54.25972 66.84953 60.55462
# Shear Modulus (GPa) = 646.86696 24.69950 335.78323
#
# Velocity S-wave (km/s) = 16.26761 3.17878 11.72049
# Velocity P-wave (km/s) = 19.36607 6.38914 14.41988
#
# Compressibility (1/GPa) = 0.01842988
#
# Stress axis : x y z
#
# Youngs Moduli (GPa) = 120.62355 58.18899 32.80255
#
# Poissons Ratio (x) = 0.18956 0.02013
# Poissons Ratio (y) = 0.39295 0.48857
# Poissons Ratio (z) = 0.07403 0.86668
#
# Static dielectric constant tensor:
#      x y z
#    x 2.016390 0.000000 0.000000 
#    y 0.000000 2.002600 0.000000 
#    z 0.000000 0.000000 1.954220 
# 
# From -- ./inp_files/9703.got.cif
#   From: 2010.05.17/outbox.cif.g08.bks.cpg/sg60_5_cif.got.tgz:9703.got - 2010.06.03 14:59:27.
