data_PCOD9456113
_publ_section_title
;
Structure prediction by ZEFSAII (Michael W. Deem and Ramdas Pophale) SiO2 
 PCOD9456113
Probable space group: P B C N
;
_chemical_formula_sum "Si O2"
_cell_formula_units_Z 60
_cell_length_a 14.592417
_cell_length_b 21.118711
_cell_length_c 9.122012
_cell_angle_alpha 90.000000
_cell_angle_beta 90.000000
_cell_angle_gamma 90.000000
_cell_volume 2811.158145
_symmetry_space_group_name_H-M "P B C N"
_symmetry_group_IT_number 60
_symmetry_cell_setting 'orthorhombic'
loop_
_space_group_symop_operation_xyz
x,y,z
1/2-x,1/2-y,1/2+z
1/2+x,1/2-y,-z
-x,y,1/2-z
-x,-y,-z
1/2+x,1/2+y,1/2-z
1/2-x,1/2+y,z
x,-y,1/2+z
loop_
_atom_site_type_symbol
_atom_site_label
_atom_site_fract_x
_atom_site_fract_y
_atom_site_fract_z
Si Si1 0.379242 0.320760 0.429649
Si Si2 0.500000 0.500658 0.250000
Si Si3 0.637901 0.197872 0.901564
Si Si4 0.457479 0.590292 0.507123
Si Si5 0.857952 0.788467 0.400545
Si Si6 0.388336 0.954977 0.602229
Si Si7 0.659580 0.834444 0.074547
Si Si8 0.603808 0.072306 0.075939
O O1 0.401644 0.264435 0.542984
O O2 0.439395 0.381856 0.470437
O O3 0.396439 0.297847 0.263087
O O4 0.270007 0.330181 0.429413
O O5 0.449776 0.546715 0.364674
O O6 0.560624 0.454370 0.352043
O O7 0.748194 0.205472 0.902400
O O8 0.618183 0.178611 0.734696
O O9 0.610689 0.142666 0.013756
O O10 0.396192 0.652790 0.506370
O O11 0.878992 0.719945 0.467157
O O12 0.360554 0.903670 0.482883
O O13 0.352476 0.937098 0.763679
O O14 0.498572 0.948245 0.600222
O O15 0.359095 0.023993 0.546736
#
# Coordination Sequence:
#
# PCOD9456113 Si02
#       8
#     8   4   8   8   8   8   8   8
#     4  10  21  40  62  86 121 156 200 244 300 348
#     4  10  24  42  64  90 124 150 208 250 300 350
#     4  10  22  38  59  91 120 154 198 251 293 356
#     4  11  22  44  64  90 119 164 198 254 295 366
#     4  10  21  40  62  86 121 156 200 244 300 348
#     4  10  21  39  60  84 117 155 196 240 294 352
#     4  10  22  38  59  91 120 154 198 251 293 356
#     4  10  21  39  60  84 117 155 196 240 294 352
#
# _framework density 21.343516000000001
#
# number of rings (size 3 to 8) (size 9 to 14) (size 15 to 20)
#    0.000    1.867    1.333    1.600    3.733    2.667 
#    4.800    0.000    0.000    0.000    0.000    0.000 
#    0.000    0.000    0.000    0.000    0.000    0.000 
#
# Total GULP energy -335061.021213 kJ/mol
# GULP energy per Si atom -5584.350354 kJ/mol
# Density = 2.129494 g / cm^3
# Si number density = 21.343516 Si / 1000 Ang^3
#
#
#
# Elastic Constant Matrix: (Units=GPa)
#
#
# Indices 1 2 3 4 5 6 
#
# 1 35.6613 3.6530 3.8225 0.0000 0.0000 0.0000
# 2 3.6530 88.1976 25.6459 0.0000 0.0000 0.0000
# 3 3.8225 25.6459 102.6237 0.0000 0.0000 0.0000
# 4 0.0000 0.0000 0.0000 25.5303 0.0000 0.0000
# 5 0.0000 0.0000 0.0000 0.0000 12.0973 0.0000
# 6 0.0000 0.0000 0.0000 0.0000 0.0000 33.0316
#
#
#
# Elastic Compliance Matrix: (Units=1/GPa)
#
#
# Indices 1 2 3 4 5 6 
#
# 1 0.028225 -0.000931 -0.000819 0.000000 0.000000 0.000000
# 2 -0.000931 0.012257 -0.003028 0.000000 0.000000 0.000000
# 3 -0.000819 -0.003028 0.010532 0.000000 0.000000 0.000000
# 4 0.000000 0.000000 0.000000 0.039169 0.000000 0.000000
# 5 0.000000 0.000000 0.000000 0.000000 0.082663 0.000000
# 6 0.000000 0.000000 0.000000 0.000000 0.000000 0.030274
#
#
# Mechanical properties :
#
#
# Convention : Reuss Voigt Hill
#
# Bulk Modulus (GPa) = 24.12105 32.52504 28.32304
# Shear Modulus (GPa) = 22.07547 27.02256 24.54902
#
# Velocity S-wave (km/s) = 3.21953 3.56206 3.39512
# Velocity P-wave (km/s) = 5.01462 5.67359 5.35425
#
# Compressibility (1/GPa) = 0.04145757
#
# Stress axis : x y z
#
# Youngs Moduli (GPa) = 35.42989 81.58368 94.95185
#
# Poissons Ratio (x) = 0.07595 0.07773
# Poissons Ratio (y) = 0.03298 0.28756
# Poissons Ratio (z) = 0.02900 0.24707
#
# Static dielectric constant tensor:
#      x y z
#    x 1.800600 0.000000 0.000000 
#    y 0.000000 1.719920 0.000000 
#    z 0.000000 0.000000 1.793810 
# 
# From -- ./inp_files/6934.got.cif
#   From: 2010.05.17/outbox.cif.g08.bks.cpg/sg60_4_cif.got.tgz:6934.got - 2010.06.03 14:59:27.
