data_PCOD9456186
_publ_section_title
;
Structure prediction by ZEFSAII (Michael W. Deem and Ramdas Pophale) SiO2 
 PCOD9456186
Probable space group: P B C N
;
_chemical_formula_sum "Si O2"
_cell_formula_units_Z 36
_cell_length_a 11.710258
_cell_length_b 8.699416
_cell_length_c 13.453264
_cell_angle_alpha 90.000000
_cell_angle_beta 90.000000
_cell_angle_gamma 90.000000
_cell_volume 1370.516370
_symmetry_space_group_name_H-M "P B C N"
_symmetry_group_IT_number 60
_symmetry_cell_setting 'orthorhombic'
loop_
_space_group_symop_operation_xyz
x,y,z
1/2-x,1/2-y,1/2+z
1/2+x,1/2-y,-z
-x,y,1/2-z
-x,-y,-z
1/2+x,1/2+y,1/2-z
1/2-x,1/2+y,z
x,-y,1/2+z
loop_
_atom_site_type_symbol
_atom_site_label
_atom_site_fract_x
_atom_site_fract_y
_atom_site_fract_z
Si Si1 0.500000 0.890981 0.750000
Si Si2 0.866137 0.575181 0.071442
Si Si3 0.570545 0.754718 0.022496
Si Si4 0.660499 0.670274 0.215832
Si Si5 0.324637 0.358293 0.166776
O O1 0.550821 0.982750 0.660062
O O2 0.595062 0.777948 0.793494
O O3 0.855684 0.415391 0.012900
O O4 0.761567 0.645858 0.131927
O O5 0.943769 0.701540 0.016490
O O6 0.561663 0.696901 0.135604
O O7 0.638809 0.638839 0.948600
O O8 0.650161 0.514891 0.277080
O O9 0.701166 0.802211 0.292681
#
# Coordination Sequence:
#
# PCOD9456186 Si02
#       5
#     4   8   8   8   8
#     4   8  18  40  60  84 132 172 214 280 330 396
#     4   9  19  39  64  94 132 176 224 274 340 407
#     4  10  21  39  65  96 130 176 229 278 336 413
#     4  11  21  39  62  98 133 173 223 277 338 408
#     4  10  22  37  62  89 133 172 216 280 333 394
#
# _framework density 26.267472999999999
#
# number of rings (size 3 to 8) (size 9 to 14) (size 15 to 20)
#    0.000    2.222    2.222    0.000    3.111    0.000 
#    0.000   13.333    0.000    0.000    0.000    0.000 
#    0.000    0.000    0.000    0.000    0.000    0.000 
#
# Total GULP energy -201106.612849 kJ/mol
# GULP energy per Si atom -5586.294801 kJ/mol
# Density = 2.620769 g / cm^3
# Si number density = 26.267473 Si / 1000 Ang^3
#
#
#
# Elastic Constant Matrix: (Units=GPa)
#
#
# Indices 1 2 3 4 5 6 
#
# 1 54.5900 8.4600 6.5584 0.0000 0.0000 0.0000
# 2 8.4600 99.8596 52.5267 0.0000 0.0000 0.0000
# 3 6.5584 52.5267 139.3791 0.0000 0.0000 0.0000
# 4 0.0000 0.0000 0.0000 56.2986 0.0000 0.0000
# 5 0.0000 0.0000 0.0000 0.0000 38.1028 0.0000
# 6 0.0000 0.0000 0.0000 0.0000 0.0000 19.3286
#
#
#
# Elastic Compliance Matrix: (Units=1/GPa)
#
#
# Indices 1 2 3 4 5 6 
#
# 1 0.018576 -0.001389 -0.000350 0.000000 0.000000 0.000000
# 2 -0.001389 0.012594 -0.004681 0.000000 0.000000 0.000000
# 3 -0.000350 -0.004681 0.008955 0.000000 0.000000 0.000000
# 4 0.000000 0.000000 0.000000 0.017762 0.000000 0.000000
# 5 0.000000 0.000000 0.000000 0.000000 0.026245 0.000000
# 6 0.000000 0.000000 0.000000 0.000000 0.000000 0.051737
#
#
# Mechanical properties :
#
#
# Convention : Reuss Voigt Hill
#
# Bulk Modulus (GPa) = 36.65202 47.65764 42.15483
# Shear Modulus (GPa) = 31.68474 37.83157 34.75816
#
# Velocity S-wave (km/s) = 3.47686 3.79917 3.64158
# Velocity P-wave (km/s) = 5.48650 6.11781 5.81073
#
# Compressibility (1/GPa) = 0.02728363
#
# Stress axis : x y z
#
# Youngs Moduli (GPa) = 53.83347 79.40368 111.66733
#
# Poissons Ratio (x) = 0.11032 0.03914
# Poissons Ratio (y) = 0.07479 0.52269
# Poissons Ratio (z) = 0.01887 0.37167
#
# Static dielectric constant tensor:
#      x y z
#    x 2.266260 0.000000 0.000000 
#    y 0.000000 1.968590 0.000000 
#    z 0.000000 0.000000 2.138960 
# 
# From -- ./inp_files/16520.got.cif
#   From: 2010.05.17/outbox.cif.g08.bks.cpg/sg60_9_cif.got.tgz:16520.got - 2010.06.03 14:59:27.
