data_PCOD9456776
_publ_section_title
;
Structure prediction by ZEFSAII (Michael W. Deem and Ramdas Pophale) SiO2 
 PCOD9456776
Probable space group: P B C N
;
_chemical_formula_sum "Si O2"
_cell_formula_units_Z 64
_cell_length_a 8.156792
_cell_length_b 22.582568
_cell_length_c 15.726790
_cell_angle_alpha 90.000000
_cell_angle_beta 90.000000
_cell_angle_gamma 90.000000
_cell_volume 2896.895320
_symmetry_space_group_name_H-M "P B C N"
_symmetry_group_IT_number 60
_symmetry_cell_setting 'orthorhombic'
loop_
_space_group_symop_operation_xyz
x,y,z
1/2-x,1/2-y,1/2+z
1/2+x,1/2-y,-z
-x,y,1/2-z
-x,-y,-z
1/2+x,1/2+y,1/2-z
1/2-x,1/2+y,z
x,-y,1/2+z
loop_
_atom_site_type_symbol
_atom_site_label
_atom_site_fract_x
_atom_site_fract_y
_atom_site_fract_z
Si Si1 0.148619 0.610222 0.199143
Si Si2 0.056813 0.364055 0.341383
Si Si3 0.014162 0.755967 0.595883
Si Si4 0.268556 0.604691 0.553518
Si Si5 0.657131 0.205952 0.435432
Si Si6 0.365202 0.381977 0.440292
Si Si7 0.362904 0.470544 0.586497
Si Si8 0.362940 0.616673 0.364413
O O1 0.093602 0.666638 0.142610
O O2 0.219282 0.563902 0.133826
O O3 0.277886 0.624134 0.273744
O O4 0.000000 0.583265 0.250000
O O5 0.906416 0.378208 0.405997
O O6 0.000000 0.384427 0.250000
O O7 0.072809 0.292585 0.345639
O O8 0.235211 0.388870 0.365124
O O9 0.965582 0.737711 0.499439
O O10 0.964139 0.822619 0.619789
O O11 0.208967 0.749967 0.603238
O O12 0.445546 0.635661 0.576816
O O13 0.311498 0.538036 0.582449
O O14 0.254840 0.611038 0.450702
O O15 0.769540 0.163632 0.496795
O O16 0.375403 0.443409 0.491997
O O17 0.523665 0.442362 0.632328
#
# Coordination Sequence:
#
# PCOD9456776 Si02
#       8
#     8   8   8   8   8   8   8   8
#     4  11  25  41  64 104 142 168 235 291 349 409
#     4  11  27  42  62  99 137 180 224 275 349 412
#     4  11  22  40  71  90 137 175 229 273 347 406
#     4  11  23  46  72  97 131 184 232 277 354 417
#     4  10  22  39  64  99 130 175 223 280 338 413
#     4   9  20  44  65  92 128 167 225 277 328 415
#     4  10  22  44  68  97 130 176 230 287 343 409
#     4  11  22  43  72  98 131 184 230 287 346 408
#
# _framework density 22.092618000000002
#
# number of rings (size 3 to 8) (size 9 to 14) (size 15 to 20)
#    0.000    1.500    3.750    2.625    8.750    1.500 
#    9.000    0.000    0.000    0.000    0.000    0.000 
#    0.000    0.000    0.000    0.000    0.000    0.000 
#
# Total GULP energy -356983.137313 kJ/mol
# GULP energy per Si atom -5577.861521 kJ/mol
# Density = 2.204233 g / cm^3
# Si number density = 22.092618 Si / 1000 Ang^3
#
#
#
# Elastic Constant Matrix: (Units=GPa)
#
#
# Indices 1 2 3 4 5 6 
#
# 1 61.0506 21.1443 15.6920 0.0000 0.0000 0.0000
# 2 21.1443 71.6298 15.7730 0.0000 0.0000 0.0000
# 3 15.6920 15.7730 69.1424 0.0000 0.0000 0.0000
# 4 0.0000 0.0000 0.0000 12.3856 0.0000 0.0000
# 5 0.0000 0.0000 0.0000 0.0000 45.2268 0.0000
# 6 0.0000 0.0000 0.0000 0.0000 0.0000 14.7714
#
#
#
# Elastic Compliance Matrix: (Units=1/GPa)
#
#
# Indices 1 2 3 4 5 6 
#
# 1 0.018884 -0.004876 -0.003174 0.000000 0.000000 0.000000
# 2 -0.004876 0.015958 -0.002534 0.000000 0.000000 0.000000
# 3 -0.003174 -0.002534 0.015761 0.000000 0.000000 0.000000
# 4 0.000000 0.000000 0.000000 0.080739 0.000000 0.000000
# 5 0.000000 0.000000 0.000000 0.000000 0.022111 0.000000
# 6 0.000000 0.000000 0.000000 0.000000 0.000000 0.067699
#
#
# Mechanical properties :
#
#
# Convention : Reuss Voigt Hill
#
# Bulk Modulus (GPa) = 33.97057 34.11571 34.04314
# Shear Modulus (GPa) = 19.83105 24.42432 22.12769
#
# Velocity S-wave (km/s) = 2.99930 3.32858 3.16822
# Velocity P-wave (km/s) = 5.23491 5.49984 5.36901
#
# Compressibility (1/GPa) = 0.02943724
#
# Stress axis : x y z
#
# Youngs Moduli (GPa) = 52.95441 62.66517 63.44698
#
# Poissons Ratio (x) = 0.30553 0.20135
# Poissons Ratio (y) = 0.25818 0.16076
# Poissons Ratio (z) = 0.16806 0.15878
#
# Static dielectric constant tensor:
#      x y z
#    x 1.907000 0.000000 0.000000 
#    y 0.000000 1.850610 0.000000 
#    z 0.000000 0.000000 1.838710 
# 
# From -- ./inp_files/15394.got.cif
#   From: 2010.05.17/outbox.cif.g08.bks.cpg/sg60_8_cif.got.tgz:15394.got - 2010.06.03 14:59:27.
