data_PCOD9456849
_publ_section_title
;
Structure prediction by ZEFSAII (Michael W. Deem and Ramdas Pophale) SiO2 
 PCOD9456849
Probable space group: P B C N
;
_chemical_formula_sum "Si O2"
_cell_formula_units_Z 56
_cell_length_a 13.770800
_cell_length_b 9.125208
_cell_length_c 19.829770
_cell_angle_alpha 90.000000
_cell_angle_beta 90.000000
_cell_angle_gamma 90.000000
_cell_volume 2491.836944
_symmetry_space_group_name_H-M "P B C N"
_symmetry_group_IT_number 60
_symmetry_cell_setting 'orthorhombic'
loop_
_space_group_symop_operation_xyz
x,y,z
1/2-x,1/2-y,1/2+z
1/2+x,1/2-y,-z
-x,y,1/2-z
-x,-y,-z
1/2+x,1/2+y,1/2-z
1/2-x,1/2+y,z
x,-y,1/2+z
loop_
_atom_site_type_symbol
_atom_site_label
_atom_site_fract_x
_atom_site_fract_y
_atom_site_fract_z
Si Si1 0.145378 0.445923 0.041192
Si Si2 0.319723 0.480211 0.201356
Si Si3 0.776816 0.519741 0.107086
Si Si4 0.000000 0.646414 0.250000
Si Si5 0.986856 0.406536 0.141704
Si Si6 0.185428 0.799470 0.317228
Si Si7 0.210250 0.275116 0.615347
Si Si8 0.500000 0.343954 0.750000
O O1 0.206137 0.327577 0.084561
O O2 0.162997 0.616131 0.061369
O O3 0.037298 0.411316 0.068301
O O4 0.190262 0.431063 0.966989
O O5 0.261680 0.385309 0.256576
O O6 0.354483 0.352499 0.149542
O O7 0.258043 0.607937 0.166833
O O8 0.407147 0.554295 0.240690
O O9 0.873951 0.439127 0.132818
O O10 0.760999 0.658959 0.154237
O O11 0.686620 0.411463 0.119602
O O12 0.032058 0.535812 0.189412
O O13 0.914986 0.741270 0.215200
O O14 0.998691 0.258955 0.184066
#
# Coordination Sequence:
#
# PCOD9456849 Si02
#       8
#     8   8   8   4   8   8   8   4
#     4  11  21  44  64  94 134 180 228 270 333 408
#     4  11  22  39  62  93 124 159 209 284 334 400
#     4  11  25  40  67  95 136 177 225 269 328 429
#     4   9  21  42  64  96 136 172 216 286 354 408
#     4  10  22  40  65  93 129 180 222 273 347 406
#     4  11  23  41  64 100 131 173 218 281 349 395
#     4  10  23  38  67  93 123 168 221 274 335 395
#     4  11  23  40  62  92 126 160 220 286 338 390
#
# _framework density 22.473379000000001
#
# number of rings (size 3 to 8) (size 9 to 14) (size 15 to 20)
#    0.000    1.429    1.429    3.429    4.000    3.429 
#    0.000    0.000    0.000    1.714    0.000    0.000 
#    0.000    0.000    0.000    0.000    0.000    0.000 
#
# Total GULP energy -312537.876727 kJ/mol
# GULP energy per Si atom -5581.033513 kJ/mol
# Density = 2.242223 g / cm^3
# Si number density = 22.473379 Si / 1000 Ang^3
#
#
#
# Elastic Constant Matrix: (Units=GPa)
#
#
# Indices 1 2 3 4 5 6 
#
# 1 62.5787 34.6608 28.4654 0.0000 0.0000 0.0000
# 2 34.6608 162.4443 47.6928 0.0000 0.0000 0.0000
# 3 28.4654 47.6928 97.9977 0.0000 0.0000 0.0000
# 4 0.0000 0.0000 0.0000 30.6662 0.0000 0.0000
# 5 0.0000 0.0000 0.0000 0.0000 23.8847 0.0000
# 6 0.0000 0.0000 0.0000 0.0000 0.0000 22.6146
#
#
#
# Elastic Compliance Matrix: (Units=1/GPa)
#
#
# Indices 1 2 3 4 5 6 
#
# 1 0.019531 -0.002919 -0.004253 0.000000 0.000000 0.000000
# 2 -0.002919 0.007618 -0.002860 0.000000 0.000000 0.000000
# 3 -0.004253 -0.002860 0.012831 0.000000 0.000000 0.000000
# 4 0.000000 0.000000 0.000000 0.032609 0.000000 0.000000
# 5 0.000000 0.000000 0.000000 0.000000 0.041868 0.000000
# 6 0.000000 0.000000 0.000000 0.000000 0.000000 0.044219
#
#
# Mechanical properties :
#
#
# Convention : Reuss Voigt Hill
#
# Bulk Modulus (GPa) = 50.20543 60.51764 55.36153
# Shear Modulus (GPa) = 26.97179 29.57988 28.27583
#
# Velocity S-wave (km/s) = 3.46810 3.63191 3.55095
# Velocity P-wave (km/s) = 6.19882 6.67643 6.44205
#
# Compressibility (1/GPa) = 0.01991817
#
# Stress axis : x y z
#
# Youngs Moduli (GPa) = 51.20076 131.26167 77.93381
#
# Poissons Ratio (x) = 0.38312 0.33143
# Poissons Ratio (y) = 0.14944 0.22288
# Poissons Ratio (z) = 0.21774 0.37539
#
# Static dielectric constant tensor:
#      x y z
#    x 1.862180 0.000000 0.000000 
#    y 0.000000 1.860360 0.000000 
#    z 0.000000 0.000000 1.936120 
# 
# From -- ./inp_files/22945.got.cif
#   From: 2010.05.17/outbox.cif.g08.bks.cpg/sg60_12_cif.got.tgz:22945.got - 2010.06.03 14:59:27.
