data_PCOD9456382
_publ_section_title
;
Structure prediction by ZEFSAII (Michael W. Deem and Ramdas Pophale) SiO2 
 PCOD9456382
Probable space group: P B C N
;
_chemical_formula_sum "Si O2"
_cell_formula_units_Z 64
_cell_length_a 8.556867
_cell_length_b 12.386731
_cell_length_c 24.750824
_cell_angle_alpha 90.000000
_cell_angle_beta 90.000000
_cell_angle_gamma 90.000000
_cell_volume 2623.379678
_symmetry_space_group_name_H-M "P B C N"
_symmetry_group_IT_number 60
_symmetry_cell_setting 'orthorhombic'
loop_
_space_group_symop_operation_xyz
x,y,z
1/2-x,1/2-y,1/2+z
1/2+x,1/2-y,-z
-x,y,1/2-z
-x,-y,-z
1/2+x,1/2+y,1/2-z
1/2-x,1/2+y,z
x,-y,1/2+z
loop_
_atom_site_type_symbol
_atom_site_label
_atom_site_fract_x
_atom_site_fract_y
_atom_site_fract_z
Si Si1 0.653046 0.963453 0.623901
Si Si2 0.137201 0.477834 0.172467
Si Si3 0.825534 0.934465 0.225131
Si Si4 0.574399 0.230668 0.698340
Si Si5 0.576220 0.644938 0.090271
Si Si6 0.672695 0.910558 0.016754
Si Si7 0.536073 0.744316 0.518486
Si Si8 0.144567 0.947035 0.069569
O O1 0.489927 0.935819 0.652152
O O2 0.778257 0.003278 0.669647
O O3 0.630519 0.052771 0.577300
O O4 0.737072 0.866805 0.592744
O O5 0.231028 0.495599 0.227188
O O6 0.251075 0.450423 0.123106
O O7 0.026126 0.376815 0.186679
O O8 0.745878 0.816394 0.213103
O O9 0.000000 0.925160 0.250000
O O10 0.500000 0.286924 0.750000
O O11 0.543165 0.304399 0.647686
O O12 0.504572 0.717130 0.044070
O O13 0.500191 0.528036 0.079634
O O14 0.526772 0.866838 0.981570
O O15 0.796377 0.812467 0.023032
O O16 0.760761 0.001917 0.981014
O O17 0.421912 0.670005 0.555055
#
# Coordination Sequence:
#
# PCOD9456382 Si02
#       8
#     8   8   8   8   8   8   8   8
#     4  11  21  40  64  90 131 165 217 266 326 384
#     4  10  23  40  64  93 127 169 211 269 324 385
#     4  10  21  41  66  93 123 170 217 265 330 392
#     4   9  21  41  64  94 128 168 214 265 331 386
#     4  11  21  41  62  89 130 172 212 267 327 387
#     4  11  24  41  63  96 129 176 217 266 324 394
#     4  11  23  40  62  91 131 172 212 269 323 388
#     4  11  23  41  63  94 130 173 222 265 322 399
#
# _framework density 24.396011999999999
#
# number of rings (size 3 to 8) (size 9 to 14) (size 15 to 20)
#    0.000    1.500    2.500    4.125    5.250    3.000 
#    0.000    3.750    0.000    0.000    0.000    0.000 
#    0.000    0.000    0.000    0.000    0.000    0.000 
#
# Total GULP energy -357706.428389 kJ/mol
# GULP energy per Si atom -5589.162944 kJ/mol
# Density = 2.434049 g / cm^3
# Si number density = 24.396012 Si / 1000 Ang^3
#
#
#
# Elastic Constant Matrix: (Units=GPa)
#
#
# Indices 1 2 3 4 5 6 
#
# 1 99.0752 7.0273 36.1076 0.0000 0.0000 0.0000
# 2 7.0273 21.5687 11.2026 0.0000 0.0000 0.0000
# 3 36.1076 11.2026 140.2873 0.0000 0.0000 0.0000
# 4 0.0000 0.0000 0.0000 28.7048 0.0000 0.0000
# 5 0.0000 0.0000 0.0000 0.0000 48.0314 0.0000
# 6 0.0000 0.0000 0.0000 0.0000 0.0000 23.9251
#
#
#
# Elastic Compliance Matrix: (Units=1/GPa)
#
#
# Indices 1 2 3 4 5 6 
#
# 1 0.011242 -0.002253 -0.002714 0.000000 0.000000 0.000000
# 2 -0.002253 0.048821 -0.003319 0.000000 0.000000 0.000000
# 3 -0.002714 -0.003319 0.008092 0.000000 0.000000 0.000000
# 4 0.000000 0.000000 0.000000 0.034837 0.000000 0.000000
# 5 0.000000 0.000000 0.000000 0.000000 0.020820 0.000000
# 6 0.000000 0.000000 0.000000 0.000000 0.000000 0.041797
#
#
# Mechanical properties :
#
#
# Convention : Reuss Voigt Hill
#
# Bulk Modulus (GPa) = 19.38589 41.06735 30.22662
# Shear Modulus (GPa) = 25.07836 33.90518 29.49177
#
# Velocity S-wave (km/s) = 3.20967 3.73202 3.48066
# Velocity P-wave (km/s) = 4.65828 5.95322 5.34511
#
# Compressibility (1/GPa) = 0.05158390
#
# Stress axis : x y z
#
# Youngs Moduli (GPa) = 88.95106 20.48286 123.58392
#
# Poissons Ratio (x) = 0.04616 0.33536
# Poissons Ratio (y) = 0.20044 0.41013
# Poissons Ratio (z) = 0.24138 0.06797
#
# Static dielectric constant tensor:
#      x y z
#    x 2.089920 0.000000 0.000000 
#    y 0.000000 2.004540 0.000000 
#    z 0.000000 0.000000 1.964090 
# 
# From -- ./inp_files/24098.got.cif
#   From: 2010.05.17/outbox.cif.g08.bks.cpg/sg60_13_cif.got.tgz:24098.got - 2010.06.03 14:59:27.
