data_PCOD9456996
_publ_section_title
;
Structure prediction by ZEFSAII (Michael W. Deem and Ramdas Pophale) SiO2 
 PCOD9456996
Probable space group: P B C N
;
_chemical_formula_sum "Si O2"
_cell_formula_units_Z 40
_cell_length_a 8.603627
_cell_length_b 14.014797
_cell_length_c 14.563507
_cell_angle_alpha 90.000000
_cell_angle_beta 90.000000
_cell_angle_gamma 90.000000
_cell_volume 1756.039798
_symmetry_space_group_name_H-M "P B C N"
_symmetry_group_IT_number 60
_symmetry_cell_setting 'orthorhombic'
loop_
_space_group_symop_operation_xyz
x,y,z
1/2-x,1/2-y,1/2+z
1/2+x,1/2-y,-z
-x,y,1/2-z
-x,-y,-z
1/2+x,1/2+y,1/2-z
1/2-x,1/2+y,z
x,-y,1/2+z
loop_
_atom_site_type_symbol
_atom_site_label
_atom_site_fract_x
_atom_site_fract_y
_atom_site_fract_z
Si Si1 0.575190 0.721493 0.660199
Si Si2 0.531076 0.070619 0.355041
Si Si3 0.859508 0.411489 0.461935
Si Si4 0.522266 0.612028 0.007147
Si Si5 0.438136 0.239300 0.850129
O O1 0.500000 0.672820 0.750000
O O2 0.465562 0.814770 0.646453
O O3 0.582357 0.658670 0.569996
O O4 0.754265 0.751068 0.668347
O O5 0.500000 0.041990 0.250000
O O6 0.402918 0.053599 0.435216
O O7 0.663654 0.002832 0.395719
O O8 0.696594 0.359747 0.474194
O O9 0.992591 0.343051 0.418398
O O10 0.500000 0.500000 0.000000
O O11 0.501109 0.662363 0.104816
O O12 0.500000 0.216779 0.750000
#
# Coordination Sequence:
#
# PCOD9456996 Si02
#       5
#     8   8   8   8   8
#     4  11  25  45  72 101 137 175 233 290 343 412
#     4  10  22  41  72 101 136 182 229 275 347 410
#     4  11  24  45  70 102 140 183 230 281 348 417
#     4  12  27  45  66 103 141 182 231 290 343 405
#     4  12  25  46  73 100 135 184 231 283 355 415
#
# _framework density 22.778527
#
# number of rings (size 3 to 8) (size 9 to 14) (size 15 to 20)
#    0.000    0.800    4.000    1.800    5.600    5.600 
#    0.000    0.000    0.000    0.000    0.000    0.000 
#    0.000    0.000    0.000    0.000    0.000    0.000 
#
# Total GULP energy -223106.822064 kJ/mol
# GULP energy per Si atom -5577.670552 kJ/mol
# Density = 2.272668 g / cm^3
# Si number density = 22.778527 Si / 1000 Ang^3
#
#
#
# Elastic Constant Matrix: (Units=GPa)
#
#
# Indices 1 2 3 4 5 6 
#
# 1 33.5059 9.1282 5.9300 0.0000 0.0000 0.0000
# 2 9.1282 83.5024 28.1564 0.0000 0.0000 0.0000
# 3 5.9300 28.1564 151.8000 0.0000 0.0000 0.0000
# 4 0.0000 0.0000 0.0000 9.6463 0.0000 0.0000
# 5 0.0000 0.0000 0.0000 0.0000 24.3144 0.0000
# 6 0.0000 0.0000 0.0000 0.0000 0.0000 24.8890
#
#
#
# Elastic Compliance Matrix: (Units=1/GPa)
#
#
# Indices 1 2 3 4 5 6 
#
# 1 0.030816 -0.003160 -0.000618 0.000000 0.000000 0.000000
# 2 -0.003160 0.013099 -0.002306 0.000000 0.000000 0.000000
# 3 -0.000618 -0.002306 0.007039 0.000000 0.000000 0.000000
# 4 0.000000 0.000000 0.000000 0.103667 0.000000 0.000000
# 5 0.000000 0.000000 0.000000 0.000000 0.041128 0.000000
# 6 0.000000 0.000000 0.000000 0.000000 0.000000 0.040178
#
#
# Mechanical properties :
#
#
# Convention : Reuss Voigt Hill
#
# Bulk Modulus (GPa) = 25.78267 39.47084 32.62675
# Shear Modulus (GPa) = 19.15535 26.80954 22.98245
#
# Velocity S-wave (km/s) = 2.90304 3.43441 3.17985
# Velocity P-wave (km/s) = 4.75187 5.75262 5.27603
#
# Compressibility (1/GPa) = 0.03878574
#
# Stress axis : x y z
#
# Youngs Moduli (GPa) = 32.45089 76.34284 142.05564
#
# Poissons Ratio (x) = 0.24128 0.08773
# Poissons Ratio (y) = 0.10256 0.32760
# Poissons Ratio (z) = 0.02004 0.17606
#
# Static dielectric constant tensor:
#      x y z
#    x 1.900220 0.000000 0.000000 
#    y 0.000000 1.884710 0.000000 
#    z 0.000000 0.000000 1.852880 
# 
# From -- ./inp_files/14651.got.cif
#   From: 2010.05.17/outbox.cif.g08.bks.cpg/sg60_8_cif.got.tgz:14651.got - 2010.06.03 14:59:27.
