data_PCOD9456626
_publ_section_title
;
Structure prediction by ZEFSAII (Michael W. Deem and Ramdas Pophale) SiO2 
 PCOD9456626
Probable space group: P B C N
;
_chemical_formula_sum "Si O2"
_cell_formula_units_Z 64
_cell_length_a 11.859823
_cell_length_b 23.585815
_cell_length_c 11.392761
_cell_angle_alpha 90.000000
_cell_angle_beta 90.000000
_cell_angle_gamma 90.000000
_cell_volume 3186.824021
_symmetry_space_group_name_H-M "P B C N"
_symmetry_group_IT_number 60
_symmetry_cell_setting 'orthorhombic'
loop_
_space_group_symop_operation_xyz
x,y,z
1/2-x,1/2-y,1/2+z
1/2+x,1/2-y,-z
-x,y,1/2-z
-x,-y,-z
1/2+x,1/2+y,1/2-z
1/2-x,1/2+y,z
x,-y,1/2+z
loop_
_atom_site_type_symbol
_atom_site_label
_atom_site_fract_x
_atom_site_fract_y
_atom_site_fract_z
Si Si1 0.830835 0.717812 0.769406
Si Si2 0.629367 0.100126 0.722759
Si Si3 0.408711 0.876719 0.650027
Si Si4 0.084338 0.180388 0.639502
Si Si5 0.966132 0.720799 0.008575
Si Si6 0.264949 0.183009 0.340155
Si Si7 0.272788 0.409684 0.040667
Si Si8 0.633496 0.980139 0.008754
O O1 0.849807 0.664626 0.683495
O O2 0.704771 0.707725 0.821977
O O3 0.081400 0.716767 0.622941
O O4 0.834891 0.776110 0.699002
O O5 0.500000 0.092196 0.750000
O O6 0.693017 0.097873 0.846069
O O7 0.658269 0.052673 0.629471
O O8 0.500000 0.892578 0.750000
O O9 0.469559 0.835750 0.555348
O O10 0.316597 0.841384 0.720617
O O11 0.359616 0.932616 0.591720
O O12 0.034900 0.223092 0.542383
O O13 0.110115 0.116902 0.590677
O O14 0.000000 0.178862 0.750000
O O15 0.856414 0.721815 0.093475
O O16 0.247090 0.131886 0.430552
O O17 0.228489 0.471433 0.002426
O O18 0.500000 0.000000 0.000000
#
# Coordination Sequence:
#
# PCOD9456626 Si02
#       8
#     8   8   8   8   8   8   8   8
#     4  11  23  39  65 103 133 178 230 275 344 431
#     4  11  23  40  62 100 137 173 223 289 359 410
#     4  10  22  36  64  95 136 182 209 274 365 413
#     4  11  21  42  68  93 139 188 224 280 351 418
#     4  11  19  39  65 100 143 175 222 275 350 428
#     4  11  21  41  63  99 140 169 222 279 346 427
#     4  11  26  41  63 100 136 180 236 279 342 446
#     4  12  24  39  63  95 138 179 224 294 357 415
#
# _framework density 20.082689999999999
#
# number of rings (size 3 to 8) (size 9 to 14) (size 15 to 20)
#    0.000    1.000    6.250    2.625    3.500    3.000 
#    0.000    0.000    0.000    3.000    0.000    0.000 
#    0.000    0.000    0.000    0.000    0.000    0.000 
#
# Total GULP energy -357072.303680 kJ/mol
# GULP energy per Si atom -5579.254745 kJ/mol
# Density = 2.003698 g / cm^3
# Si number density = 20.082690 Si / 1000 Ang^3
#
#
#
# Elastic Constant Matrix: (Units=GPa)
#
#
# Indices 1 2 3 4 5 6 
#
# 1 64.1410 43.2370 42.7054 0.0000 0.0000 0.0000
# 2 43.2370 151.3517 71.8946 0.0000 0.0000 0.0000
# 3 42.7054 71.8946 114.9148 0.0000 0.0000 0.0000
# 4 0.0000 0.0000 0.0000 37.5105 0.0000 0.0000
# 5 0.0000 0.0000 0.0000 0.0000 31.4905 0.0000
# 6 0.0000 0.0000 0.0000 0.0000 0.0000 33.0357
#
#
#
# Elastic Compliance Matrix: (Units=1/GPa)
#
#
# Indices 1 2 3 4 5 6 
#
# 1 0.021879 -0.003398 -0.006005 0.000000 0.000000 0.000000
# 2 -0.003398 0.009929 -0.004949 0.000000 0.000000 0.000000
# 3 -0.006005 -0.004949 0.014030 0.000000 0.000000 0.000000
# 4 0.000000 0.000000 0.000000 0.026659 0.000000 0.000000
# 5 0.000000 0.000000 0.000000 0.000000 0.031756 0.000000
# 6 0.000000 0.000000 0.000000 0.000000 0.000000 0.030270
#
#
# Mechanical properties :
#
#
# Convention : Reuss Voigt Hill
#
# Bulk Modulus (GPa) = 58.36303 71.78683 65.07493
# Shear Modulus (GPa) = 29.59658 31.91204 30.75431
#
# Velocity S-wave (km/s) = 3.84309 3.99059 3.91754
# Velocity P-wave (km/s) = 6.98691 7.55356 7.27576
#
# Compressibility (1/GPa) = 0.01713414
#
# Stress axis : x y z
#
# Youngs Moduli (GPa) = 45.70516 100.71889 71.27556
#
# Poissons Ratio (x) = 0.34222 0.42803
# Poissons Ratio (y) = 0.15529 0.35274
# Poissons Ratio (z) = 0.27447 0.49846
#
# Static dielectric constant tensor:
#      x y z
#    x 1.740060 0.000000 0.000000 
#    y 0.000000 1.776650 0.000000 
#    z 0.000000 0.000000 1.737030 
# 
# From -- ./inp_files/11353.got.cif
#   From: 2010.05.17/outbox.cif.g08.bks.cpg/sg60_6_cif.got.tgz:11353.got - 2010.06.03 14:59:27.
