data_PCOD9456053
_publ_section_title
;
Structure prediction by ZEFSAII (Michael W. Deem and Ramdas Pophale) SiO2 
 PCOD9456053
Probable space group: P B C N
;
_chemical_formula_sum "Si O2"
_cell_formula_units_Z 52
_cell_length_a 19.557025
_cell_length_b 20.198787
_cell_length_c 5.565825
_cell_angle_alpha 90.000000
_cell_angle_beta 90.000000
_cell_angle_gamma 90.000000
_cell_volume 2198.657733
_symmetry_space_group_name_H-M "P B C N"
_symmetry_group_IT_number 60
_symmetry_cell_setting 'orthorhombic'
loop_
_space_group_symop_operation_xyz
x,y,z
1/2-x,1/2-y,1/2+z
1/2+x,1/2-y,-z
-x,y,1/2-z
-x,-y,-z
1/2+x,1/2+y,1/2-z
1/2-x,1/2+y,z
x,-y,1/2+z
loop_
_atom_site_type_symbol
_atom_site_label
_atom_site_fract_x
_atom_site_fract_y
_atom_site_fract_z
Si Si1 0.000000 0.605697 0.250000
Si Si2 0.361002 0.039516 0.097190
Si Si3 0.409868 0.795860 0.053679
Si Si4 0.212918 0.328999 0.736868
Si Si5 0.651587 0.710890 0.062832
Si Si6 0.426275 0.654026 0.836507
Si Si7 0.920785 0.024428 0.462184
O O1 0.939705 0.564264 0.375587
O O2 0.036927 0.649608 0.458990
O O3 0.313571 0.104678 0.110829
O O4 0.349824 0.997046 0.342511
O O5 0.403716 0.760539 0.313100
O O6 0.334583 0.822799 0.977642
O O7 0.426698 0.730470 0.902684
O O8 0.194417 0.263256 0.591469
O O9 0.293576 0.323652 0.766488
O O10 0.622255 0.654461 0.892070
O O11 0.500000 0.633167 0.750000
O O12 0.413728 0.603621 0.051061
O O13 0.890195 0.994069 0.221679
O O14 0.000000 0.000000 0.500000
#
# Coordination Sequence:
#
# PCOD9456053 Si02
#       7
#     4   8   8   8   8   8   8
#     4  10  22  44  68 108 144 192 242 292 380 456
#     4  11  26  47  72 105 150 200 244 303 359 450
#     4  10  22  41  66 101 138 175 232 313 367 440
#     4  10  23  44  71 101 132 188 252 294 376 429
#     4  11  23  42  73 100 138 185 237 320 370 437
#     4  11  23  40  59 103 137 172 230 293 378 434
#     4  10  21  38  63  83 126 187 224 274 340 437
#
# _framework density 23.650794000000001
#
# number of rings (size 3 to 8) (size 9 to 14) (size 15 to 20)
#    0.000    1.538    3.846    0.462    6.462    0.615 
#    5.538    1.538    0.000    0.000    0.000    0.000 
#    0.000    0.000    0.000    0.000    0.000    0.000 
#
# Total GULP energy -290290.305458 kJ/mol
# GULP energy per Si atom -5582.505874 kJ/mol
# Density = 2.359696 g / cm^3
# Si number density = 23.650794 Si / 1000 Ang^3
#
#
#
# Elastic Constant Matrix: (Units=GPa)
#
#
# Indices 1 2 3 4 5 6 
#
# 1 72.7618 38.9731 16.4913 0.0000 0.0000 0.0000
# 2 38.9731 89.7145 15.7267 0.0000 0.0000 0.0000
# 3 16.4913 15.7267 74.6900 0.0000 0.0000 0.0000
# 4 0.0000 0.0000 0.0000 -22.9728 0.0000 0.0000
# 5 0.0000 0.0000 0.0000 0.0000 19.3109 0.0000
# 6 0.0000 0.0000 0.0000 0.0000 0.0000 30.6206
#
#
#
# Elastic Compliance Matrix: (Units=1/GPa)
#
#
# Indices 1 2 3 4 5 6 
#
# 1 0.018337 -0.007534 -0.002462 0.000000 0.000000 0.000000
# 2 -0.007534 0.014669 -0.001425 0.000000 0.000000 0.000000
# 3 -0.002462 -0.001425 0.014232 0.000000 0.000000 0.000000
# 4 0.000000 0.000000 0.000000 -0.043530 0.000000 0.000000
# 5 0.000000 0.000000 0.000000 0.000000 0.051784 0.000000
# 6 0.000000 0.000000 0.000000 0.000000 0.000000 0.032658
#
#
# Mechanical properties :
#
#
# Convention : Reuss Voigt Hill
#
# Bulk Modulus (GPa) = 40.99169 42.17206 41.58187
# Shear Modulus (GPa) = 41.97223 16.45675 29.21449
#
# Velocity S-wave (km/s) = 4.21725 2.64071 3.51842
# Velocity P-wave (km/s) = 6.40962 5.21226 5.84170
#
# Compressibility (1/GPa) = 0.02439519
#
# Stress axis : x y z
#
# Youngs Moduli (GPa) = 54.53429 68.16974 70.26200
#
# Poissons Ratio (x) = 0.51361 0.17301
# Poissons Ratio (y) = 0.41087 0.10014
# Poissons Ratio (z) = 0.13428 0.09716
#
# Static dielectric constant tensor:
#      x y z
#    x 1.899130 0.000000 0.000000 
#    y 0.000000 1.871840 0.000000 
#    z 0.000000 0.000000 2.106380 
# 
# From -- ./inp_files/2088.got.cif
#   From: 2010.05.17/outbox.cif.g08.bks.cpg/sg60_2_cif.got.tgz:2088.got - 2010.06.03 14:59:27.
