data_PCOD9456665
_publ_section_title
;
Structure prediction by ZEFSAII (Michael W. Deem and Ramdas Pophale) SiO2 
 PCOD9456665
Probable space group: P B C N
;
_chemical_formula_sum "Si O2"
_cell_formula_units_Z 32
_cell_length_a 22.810686
_cell_length_b 5.655930
_cell_length_c 9.603983
_cell_angle_alpha 90.000000
_cell_angle_beta 90.000000
_cell_angle_gamma 90.000000
_cell_volume 1239.064045
_symmetry_space_group_name_H-M "P B C N"
_symmetry_group_IT_number 60
_symmetry_cell_setting 'orthorhombic'
loop_
_space_group_symop_operation_xyz
x,y,z
1/2-x,1/2-y,1/2+z
1/2+x,1/2-y,-z
-x,y,1/2-z
-x,-y,-z
1/2+x,1/2+y,1/2-z
1/2-x,1/2+y,z
x,-y,1/2+z
loop_
_atom_site_type_symbol
_atom_site_label
_atom_site_fract_x
_atom_site_fract_y
_atom_site_fract_z
Si Si1 0.238931 0.612214 0.233429
Si Si2 0.134844 0.402346 0.514991
Si Si3 0.846174 0.906474 0.979775
Si Si4 0.039858 0.115633 0.616441
O O1 0.350111 0.655008 0.437793
O O2 0.177956 0.600402 0.148939
O O3 0.287923 0.608642 0.111123
O O4 0.144024 0.655815 0.445642
O O5 0.252235 0.363898 0.309278
O O6 0.068730 0.361571 0.566104
O O7 0.902035 0.949159 0.876069
O O8 0.000000 0.139711 0.750000
O O9 0.000000 0.000000 0.500000
#
# Coordination Sequence:
#
# PCOD9456665 Si02
#       4
#     8   8   8   8
#     4   8  12  24  48  78 104 138 182 230 280 328
#     4   8  16  30  52  82 106 149 182 237 277 336
#     4   8  16  30  52  82 106 149 182 237 277 336
#     4  10  22  38  58  84 118 154 192 232 284 346
#
# _framework density 25.825946999999999
#
# number of rings (size 3 to 8) (size 9 to 14) (size 15 to 20)
#    1.500    2.000    0.000    0.000    0.000    2.000 
#    0.000    0.000    0.000    3.000    0.000    0.000 
#    0.000    0.000    0.000    0.000    0.000    0.000 
#
# Total GULP energy -178631.658420 kJ/mol
# GULP energy per Si atom -5582.239326 kJ/mol
# Density = 2.576717 g / cm^3
# Si number density = 25.825947 Si / 1000 Ang^3
#
#
#
# Elastic Constant Matrix: (Units=GPa)
#
#
# Indices 1 2 3 4 5 6 
#
# 1 158.0770 -0.1878 42.0274 0.0000 0.0000 0.0000
# 2 -0.1878 220.0650 15.4943 0.0000 0.0000 0.0000
# 3 42.0274 15.4943 74.0585 0.0000 0.0000 0.0000
# 4 0.0000 0.0000 0.0000 19.8765 0.0000 0.0000
# 5 0.0000 0.0000 0.0000 0.0000 22.4063 0.0000
# 6 0.0000 0.0000 0.0000 0.0000 0.0000 55.6617
#
#
#
# Elastic Compliance Matrix: (Units=1/GPa)
#
#
# Indices 1 2 3 4 5 6 
#
# 1 0.007471 0.000309 -0.004304 0.000000 0.000000 0.000000
# 2 0.000309 0.004625 -0.001143 0.000000 0.000000 0.000000
# 3 -0.004304 -0.001143 0.016185 0.000000 0.000000 0.000000
# 4 0.000000 0.000000 0.000000 0.050311 0.000000 0.000000
# 5 0.000000 0.000000 0.000000 0.000000 0.044630 0.000000
# 6 0.000000 0.000000 0.000000 0.000000 0.000000 0.017966
#
#
# Mechanical properties :
#
#
# Convention : Reuss Voigt Hill
#
# Bulk Modulus (GPa) = 55.54280 62.98537 59.26408
# Shear Modulus (GPa) = 31.75322 45.91335 38.83328
#
# Velocity S-wave (km/s) = 3.51024 4.22097 3.88190
# Velocity P-wave (km/s) = 6.16298 6.94239 6.56426
#
# Compressibility (1/GPa) = 0.01800413
#
# Stress axis : x y z
#
# Youngs Moduli (GPa) = 133.85490 216.22246 61.78682
#
# Poissons Ratio (x) = -0.06691 0.26595
# Poissons Ratio (y) = -0.04142 0.07063
# Poissons Ratio (z) = 0.57616 0.24719
#
# Static dielectric constant tensor:
#      x y z
#    x 2.008280 0.000000 0.000000 
#    y 0.000000 2.182310 0.000000 
#    z 0.000000 0.000000 1.874610 
# 
# From -- ./inp_files/4686.got.cif
#   From: 2010.05.17/outbox.cif.g08.bks.cpg/sg60_3_cif.got.tgz:4686.got - 2010.06.03 14:59:27.
