data_PCOD9456650
_publ_section_title
;
Structure prediction by ZEFSAII (Michael W. Deem and Ramdas Pophale) SiO2 
 PCOD9456650
Probable space group: P B C N
;
_chemical_formula_sum "Si O2"
_cell_formula_units_Z 48
_cell_length_a 9.581356
_cell_length_b 13.584008
_cell_length_c 14.309437
_cell_angle_alpha 90.000000
_cell_angle_beta 90.000000
_cell_angle_gamma 90.000000
_cell_volume 1862.419253
_symmetry_space_group_name_H-M "P B C N"
_symmetry_group_IT_number 60
_symmetry_cell_setting 'orthorhombic'
loop_
_space_group_symop_operation_xyz
x,y,z
1/2-x,1/2-y,1/2+z
1/2+x,1/2-y,-z
-x,y,1/2-z
-x,-y,-z
1/2+x,1/2+y,1/2-z
1/2-x,1/2+y,z
x,-y,1/2+z
loop_
_atom_site_type_symbol
_atom_site_label
_atom_site_fract_x
_atom_site_fract_y
_atom_site_fract_z
Si Si1 0.201469 0.900213 0.177808
Si Si2 0.900112 0.902280 0.922391
Si Si3 0.348635 0.191227 0.184926
Si Si4 0.624410 0.860927 0.612644
Si Si5 0.527081 0.797844 0.415853
Si Si6 0.750840 0.429441 0.104682
O O1 0.108044 0.802745 0.165067
O O2 0.357259 0.860273 0.145753
O O3 0.210660 0.924174 0.287218
O O4 0.132083 0.993655 0.127136
O O5 0.775441 0.836352 0.881086
O O6 0.015069 0.818424 0.899183
O O7 0.874115 0.915482 0.031712
O O8 0.309336 0.185509 0.293900
O O9 0.470127 0.117987 0.154411
O O10 0.595915 0.800908 0.519175
O O11 0.697172 0.960599 0.585115
O O12 0.382282 0.857831 0.413668
#
# Coordination Sequence:
#
# PCOD9456650 Si02
#       6
#     8   8   8   8   8   8
#     4  11  23  40  62  93 127 168 207 268 318 380
#     4  11  22  41  62  94 130 165 210 264 317 378
#     4  10  22  37  63  91 129 157 212 266 316 368
#     4  11  20  38  67  94 117 168 215 263 310 380
#     4  11  23  37  65  96 126 161 217 265 314 372
#     4  12  22  39  68  95 122 168 224 257 315 382
#
# _framework density 25.772929999999999
#
# number of rings (size 3 to 8) (size 9 to 14) (size 15 to 20)
#    0.000    1.000    5.000    3.000    2.333    0.000 
#    0.000    0.833   14.667    0.000    0.000    0.000 
#    0.000    0.000    0.000    0.000    0.000    0.000 
#
# Total GULP energy -268161.521706 kJ/mol
# GULP energy per Si atom -5586.698369 kJ/mol
# Density = 2.571427 g / cm^3
# Si number density = 25.772930 Si / 1000 Ang^3
#
#
#
# Elastic Constant Matrix: (Units=GPa)
#
#
# Indices 1 2 3 4 5 6 
#
# 1 46.2587 26.8037 33.0882 0.0000 0.0000 0.0000
# 2 26.8037 201.6558 25.2834 0.0000 0.0000 0.0000
# 3 33.0882 25.2834 167.6923 0.0000 0.0000 0.0000
# 4 0.0000 0.0000 0.0000 14.7340 0.0000 0.0000
# 5 0.0000 0.0000 0.0000 0.0000 24.7183 0.0000
# 6 0.0000 0.0000 0.0000 0.0000 0.0000 41.0978
#
#
#
# Elastic Compliance Matrix: (Units=1/GPa)
#
#
# Indices 1 2 3 4 5 6 
#
# 1 0.026792 -0.002954 -0.004841 0.000000 0.000000 0.000000
# 2 -0.002954 0.005380 -0.000228 0.000000 0.000000 0.000000
# 3 -0.004841 -0.000228 0.006953 0.000000 0.000000 0.000000
# 4 0.000000 0.000000 0.000000 0.067870 0.000000 0.000000
# 5 0.000000 0.000000 0.000000 0.000000 0.040456 0.000000
# 6 0.000000 0.000000 0.000000 0.000000 0.000000 0.024332
#
#
# Mechanical properties :
#
#
# Convention : Reuss Voigt Hill
#
# Bulk Modulus (GPa) = 43.33103 65.10637 54.21870
# Shear Modulus (GPa) = 25.57239 38.13879 31.85559
#
# Velocity S-wave (km/s) = 3.15337 3.85099 3.51951
# Velocity P-wave (km/s) = 5.48702 6.71490 6.13177
#
# Compressibility (1/GPa) = 0.02307815
#
# Stress axis : x y z
#
# Youngs Moduli (GPa) = 37.32455 185.86563 143.82424
#
# Poissons Ratio (x) = 0.54908 0.69626
# Poissons Ratio (y) = 0.11026 0.03283
# Poissons Ratio (z) = 0.18069 0.04243
#
# Static dielectric constant tensor:
#      x y z
#    x 2.029290 0.000000 0.000000 
#    y 0.000000 2.240530 0.000000 
#    z 0.000000 0.000000 2.029500 
# 
# From -- ./inp_files/16783.got.cif
#   From: 2010.05.17/outbox.cif.g08.bks.cpg/sg60_9_cif.got.tgz:16783.got - 2010.06.03 14:59:27.
