data_PCOD9456905
_publ_section_title
;
Structure prediction by ZEFSAII (Michael W. Deem and Ramdas Pophale) SiO2 
 PCOD9456905
Probable space group: P B C N
;
_chemical_formula_sum "Si O2"
_cell_formula_units_Z 48
_cell_length_a 11.210916
_cell_length_b 7.606789
_cell_length_c 22.722406
_cell_angle_alpha 90.000000
_cell_angle_beta 90.000000
_cell_angle_gamma 90.000000
_cell_volume 1937.745709
_symmetry_space_group_name_H-M "P B C N"
_symmetry_group_IT_number 60
_symmetry_cell_setting 'orthorhombic'
loop_
_space_group_symop_operation_xyz
x,y,z
1/2-x,1/2-y,1/2+z
1/2+x,1/2-y,-z
-x,y,1/2-z
-x,-y,-z
1/2+x,1/2+y,1/2-z
1/2-x,1/2+y,z
x,-y,1/2+z
loop_
_atom_site_type_symbol
_atom_site_label
_atom_site_fract_x
_atom_site_fract_y
_atom_site_fract_z
Si Si1 0.696457 0.596349 0.889882
Si Si2 0.440235 0.864912 0.187399
Si Si3 0.669623 0.511052 0.080225
Si Si4 0.427385 0.095311 0.926271
Si Si5 0.494613 0.447873 0.316439
Si Si6 0.857723 0.776898 0.971172
O O1 0.808354 0.589971 0.842688
O O2 0.586884 0.669879 0.853304
O O3 0.732466 0.697105 0.949437
O O4 0.638531 0.421680 0.918798
O O5 0.500000 0.919375 0.250000
O O6 0.529440 0.940638 0.139235
O O7 0.454299 0.650095 0.188122
O O8 0.809765 0.517651 0.065476
O O9 0.620527 0.704895 0.072266
O O10 0.627888 0.454065 0.145910
O O11 0.620858 0.377088 0.031419
O O12 0.548810 0.119427 0.962659
O O13 0.500000 0.382829 0.250000
#
# Coordination Sequence:
#
# PCOD9456905 Si02
#       6
#     8   8   8   8   8   8
#     4  11  20  42  64  93 124 169 209 259 318 376
#     4   9  20  40  64  86 126 165 203 257 311 368
#     4  11  22  40  65  87 127 164 206 264 318 377
#     4  10  22  41  57  93 118 165 204 258 319 370
#     4  10  22  41  64  92 124 169 213 256 311 373
#     4  11  23  40  64  89 128 161 210 261 321 378
#
# _framework density 24.771051
#
# number of rings (size 3 to 8) (size 9 to 14) (size 15 to 20)
#    0.000    1.667    5.000    1.500    4.667    0.000 
#    6.000    5.000    0.000    0.000    0.000    0.000 
#    0.000    0.000    0.000    0.000    0.000    0.000 
#
# Total GULP energy -267428.795486 kJ/mol
# GULP energy per Si atom -5571.433239 kJ/mol
# Density = 2.471467 g / cm^3
# Si number density = 24.771051 Si / 1000 Ang^3
#
#
#
# Elastic Constant Matrix: (Units=GPa)
#
#
# Indices 1 2 3 4 5 6 
#
# 1 104.7514 8.4336 43.6404 0.0000 0.0000 0.0000
# 2 8.4336 51.9895 30.8897 0.0000 0.0000 0.0000
# 3 43.6404 30.8897 161.2219 0.0000 0.0000 0.0000
# 4 0.0000 0.0000 0.0000 10.3322 0.0000 0.0000
# 5 0.0000 0.0000 0.0000 0.0000 31.5240 0.0000
# 6 0.0000 0.0000 0.0000 0.0000 0.0000 25.9585
#
#
#
# Elastic Compliance Matrix: (Units=1/GPa)
#
#
# Indices 1 2 3 4 5 6 
#
# 1 0.010760 -0.000017 -0.002909 0.000000 0.000000 0.000000
# 2 -0.000017 0.021706 -0.004154 0.000000 0.000000 0.000000
# 3 -0.002909 -0.004154 0.007786 0.000000 0.000000 0.000000
# 4 0.000000 0.000000 0.000000 0.096785 0.000000 0.000000
# 5 0.000000 0.000000 0.000000 0.000000 0.031722 0.000000
# 6 0.000000 0.000000 0.000000 0.000000 0.000000 0.038523
#
#
# Mechanical properties :
#
#
# Convention : Reuss Voigt Hill
#
# Bulk Modulus (GPa) = 38.32769 53.76559 46.04664
# Shear Modulus (GPa) = 21.72604 29.22956 25.47780
#
# Velocity S-wave (km/s) = 2.96476 3.43882 3.21055
# Velocity P-wave (km/s) = 5.21786 6.12531 5.68971
#
# Compressibility (1/GPa) = 0.02609080
#
# Stress axis : x y z
#
# Youngs Moduli (GPa) = 92.93844 46.07110 128.43464
#
# Poissons Ratio (x) = 0.00078 0.37365
# Poissons Ratio (y) = 0.00157 0.53354
# Poissons Ratio (z) = 0.27039 0.19139
#
# Static dielectric constant tensor:
#      x y z
#    x 2.074810 0.000000 0.000000 
#    y 0.000000 2.128330 0.000000 
#    z 0.000000 0.000000 2.052690 
# 
# From -- ./inp_files/24244.got.cif
#   From: 2010.05.17/outbox.cif.g08.bks.cpg/sg60_13_cif.got.tgz:24244.got - 2010.06.03 14:59:27.
