data_PCOD9456032
_publ_section_title
;
Structure prediction by ZEFSAII (Michael W. Deem and Ramdas Pophale) SiO2 
 PCOD9456032
Probable space group: P B C N
;
_chemical_formula_sum "Si O2"
_cell_formula_units_Z 56
_cell_length_a 15.322506
_cell_length_b 19.601578
_cell_length_c 8.793223
_cell_angle_alpha 90.000000
_cell_angle_beta 90.000000
_cell_angle_gamma 90.000000
_cell_volume 2641.003169
_symmetry_space_group_name_H-M "P B C N"
_symmetry_group_IT_number 60
_symmetry_cell_setting 'orthorhombic'
loop_
_space_group_symop_operation_xyz
x,y,z
1/2-x,1/2-y,1/2+z
1/2+x,1/2-y,-z
-x,y,1/2-z
-x,-y,-z
1/2+x,1/2+y,1/2-z
1/2-x,1/2+y,z
x,-y,1/2+z
loop_
_atom_site_type_symbol
_atom_site_label
_atom_site_fract_x
_atom_site_fract_y
_atom_site_fract_z
Si Si1 0.328323 0.430069 0.070456
Si Si2 0.992941 0.714879 0.068709
Si Si3 0.065580 0.527066 0.376401
Si Si4 0.691476 0.576875 0.564339
Si Si5 0.332750 0.149996 0.534032
Si Si6 0.995963 0.132185 0.565058
Si Si7 0.871331 0.376627 0.123079
O O1 0.318401 0.431220 0.253113
O O2 0.269193 0.365561 0.020008
O O3 0.427171 0.418544 0.017558
O O4 0.296838 0.502508 0.008193
O O5 0.019319 0.790808 0.019784
O O6 0.000000 0.707496 0.250000
O O7 0.888831 0.709400 0.039969
O O8 0.051511 0.659996 0.973042
O O9 0.125959 0.583516 0.450519
O O10 0.112011 0.456414 0.331564
O O11 0.000000 0.555317 0.250000
O O12 0.000000 0.500000 0.500000
O O13 0.600039 0.609814 0.512713
O O14 0.778931 0.620894 0.534996
O O15 0.357100 0.155927 0.711970
O O16 0.000000 0.131832 0.750000
#
# Coordination Sequence:
#
# PCOD9456032 Si02
#       7
#     8   8   8   8   8   8   8
#     4  10  21  38  62  87 118 148 191 241 291 342
#     4  11  23  38  59  82 116 158 198 230 283 352
#     4  12  20  31  52  81 122 156 182 229 289 342
#     4  10  21  38  63  88 116 148 191 239 292 342
#     4  11  22  35  55  87 118 153 189 235 290 341
#     4   9  21  42  60  82 115 157 194 239 287 337
#     4  11  22  36  55  87 119 150 186 239 289 339
#
# _framework density 21.204063999999999
#
# number of rings (size 3 to 8) (size 9 to 14) (size 15 to 20)
#    0.000    1.429    4.286    1.286    0.000    2.286 
#    0.000    2.857    0.000    0.000    0.000    0.000 
#    0.000    0.000    0.000    0.000    0.000    0.000 
#
# Total GULP energy -312229.941627 kJ/mol
# GULP energy per Si atom -5575.534672 kJ/mol
# Density = 2.115580 g / cm^3
# Si number density = 21.204064 Si / 1000 Ang^3
#
#
#
# Elastic Constant Matrix: (Units=GPa)
#
#
# Indices 1 2 3 4 5 6 
#
# 1 111.8271 8.5909 20.2588 0.0000 0.0000 0.0000
# 2 8.5909 43.6371 6.4835 0.0000 0.0000 0.0000
# 3 20.2588 6.4835 37.1221 0.0000 0.0000 0.0000
# 4 0.0000 0.0000 0.0000 10.6421 0.0000 0.0000
# 5 0.0000 0.0000 0.0000 0.0000 19.0661 0.0000
# 6 0.0000 0.0000 0.0000 0.0000 0.0000 21.1158
#
#
#
# Elastic Compliance Matrix: (Units=1/GPa)
#
#
# Indices 1 2 3 4 5 6 
#
# 1 0.009983 -0.001187 -0.005241 0.000000 0.000000 0.000000
# 2 -0.001187 0.023668 -0.003486 0.000000 0.000000 0.000000
# 3 -0.005241 -0.003486 0.030407 0.000000 0.000000 0.000000
# 4 0.000000 0.000000 0.000000 0.093967 0.000000 0.000000
# 5 0.000000 0.000000 0.000000 0.000000 0.052449 0.000000
# 6 0.000000 0.000000 0.000000 0.000000 0.000000 0.047358
#
#
# Mechanical properties :
#
#
# Convention : Reuss Voigt Hill
#
# Bulk Modulus (GPa) = 22.60868 29.25030 25.92949
# Shear Modulus (GPa) = 17.09973 20.64833 18.87403
#
# Velocity S-wave (km/s) = 2.84286 3.12395 2.98671
# Velocity P-wave (km/s) = 4.63265 5.18041 4.91417
#
# Compressibility (1/GPa) = 0.04423080
#
# Stress axis : x y z
#
# Youngs Moduli (GPa) = 100.17065 42.25141 32.88715
#
# Poissons Ratio (x) = 0.05014 0.17235
# Poissons Ratio (y) = 0.11887 0.11465
# Poissons Ratio (z) = 0.52497 0.14729
#
# Static dielectric constant tensor:
#      x y z
#    x 2.002220 0.000000 0.000000 
#    y 0.000000 1.815660 0.000000 
#    z 0.000000 0.000000 1.730670 
# 
# From -- ./inp_files/6150.got.cif
#   From: 2010.05.17/outbox.cif.g08.bks.cpg/sg60_4_cif.got.tgz:6150.got - 2010.06.03 14:59:27.
