data_PCOD9456532
_publ_section_title
;
Structure prediction by ZEFSAII (Michael W. Deem and Ramdas Pophale) SiO2 
 PCOD9456532
Probable space group: P B C N
;
_chemical_formula_sum "Si O2"
_cell_formula_units_Z 64
_cell_length_a 10.731625
_cell_length_b 8.966899
_cell_length_c 31.553762
_cell_angle_alpha 90.000000
_cell_angle_beta 90.000000
_cell_angle_gamma 90.000000
_cell_volume 3036.399506
_symmetry_space_group_name_H-M "P B C N"
_symmetry_group_IT_number 60
_symmetry_cell_setting 'orthorhombic'
loop_
_space_group_symop_operation_xyz
x,y,z
1/2-x,1/2-y,1/2+z
1/2+x,1/2-y,-z
-x,y,1/2-z
-x,-y,-z
1/2+x,1/2+y,1/2-z
1/2-x,1/2+y,z
x,-y,1/2+z
loop_
_atom_site_type_symbol
_atom_site_label
_atom_site_fract_x
_atom_site_fract_y
_atom_site_fract_z
Si Si1 0.280793 0.338190 0.065826
Si Si2 0.933253 0.134583 0.419778
Si Si3 0.875257 0.284671 0.775423
Si Si4 0.958819 0.318184 0.867427
Si Si5 0.831906 0.226194 0.031497
Si Si6 0.339796 0.022976 0.417383
Si Si7 0.608414 0.481566 0.144786
Si Si8 0.134798 0.950250 0.757214
O O1 0.140076 0.290692 0.077437
O O2 0.330126 0.507245 0.070787
O O3 0.364609 0.245587 0.098280
O O4 0.308098 0.287956 0.017948
O O5 0.045581 0.133888 0.454006
O O6 0.004308 0.091594 0.376080
O O7 0.889739 0.343657 0.823225
O O8 0.867425 0.104627 0.769964
O O9 0.751150 0.352443 0.755934
O O10 0.000000 0.329121 0.750000
O O11 0.039166 0.445540 0.889526
O O12 0.054218 0.184253 0.856982
O O13 0.854369 0.391276 0.048944
O O14 0.710465 0.164257 0.056117
O O15 0.229241 0.987850 0.384624
O O16 0.641595 0.516569 0.192899
O O17 0.000000 0.876160 0.750000
#
# Coordination Sequence:
#
# PCOD9456532 Si02
#       8
#     8   8   8   8   8   8   8   8
#     4  11  25  41  66  91 139 174 221 283 328 391
#     4  10  25  42  65  96 131 177 220 277 331 398
#     4  11  24  45  69 102 133 173 222 276 339 406
#     4  11  23  41  67  95 134 172 218 279 334 385
#     4  11  24  42  66  96 132 176 231 267 333 392
#     4  11  23  41  69  98 129 177 226 274 324 402
#     4  10  21  44  67  95 128 170 218 268 332 393
#     4  11  24  42  72  96 135 173 213 276 335 411
#
# _framework density 21.077596
#
# number of rings (size 3 to 8) (size 9 to 14) (size 15 to 20)
#    0.000    1.250    3.750    1.875    5.250    1.000 
#    0.000    0.000    0.000    0.000    0.000    0.000 
#    0.000    0.000    0.000    0.000    0.000    0.000 
#
# Total GULP energy -357747.061609 kJ/mol
# GULP energy per Si atom -5589.797838 kJ/mol
# Density = 2.102962 g / cm^3
# Si number density = 21.077596 Si / 1000 Ang^3
#
#
#
# Elastic Constant Matrix: (Units=GPa)
#
#
# Indices 1 2 3 4 5 6 
#
# 1 99.4483 37.4399 20.3613 0.0000 0.0000 0.0000
# 2 37.4399 50.1847 13.6053 0.0000 0.0000 0.0000
# 3 20.3613 13.6053 90.5238 0.0000 0.0000 0.0000
# 4 0.0000 0.0000 0.0000 21.1637 0.0000 0.0000
# 5 0.0000 0.0000 0.0000 0.0000 19.5716 0.0000
# 6 0.0000 0.0000 0.0000 0.0000 0.0000 17.0108
#
#
#
# Elastic Compliance Matrix: (Units=1/GPa)
#
#
# Indices 1 2 3 4 5 6 
#
# 1 0.014222 -0.010156 -0.001672 0.000000 0.000000 0.000000
# 2 -0.010156 0.028026 -0.001928 0.000000 0.000000 0.000000
# 3 -0.001672 -0.001928 0.011713 0.000000 0.000000 0.000000
# 4 0.000000 0.000000 0.000000 0.047251 0.000000 0.000000
# 5 0.000000 0.000000 0.000000 0.000000 0.051094 0.000000
# 6 0.000000 0.000000 0.000000 0.000000 0.000000 0.058786
#
#
# Mechanical properties :
#
#
# Convention : Reuss Voigt Hill
#
# Bulk Modulus (GPa) = 37.81103 42.55218 40.18160
# Shear Modulus (GPa) = 20.20850 22.79924 21.50387
#
# Velocity S-wave (km/s) = 3.09975 3.29246 3.19756
# Velocity P-wave (km/s) = 5.54880 5.88947 5.72167
#
# Compressibility (1/GPa) = 0.02644731
#
# Stress axis : x y z
#
# Youngs Moduli (GPa) = 70.31585 35.68093 85.37736
#
# Poissons Ratio (x) = 0.36239 0.14278
# Poissons Ratio (y) = 0.71416 0.16458
# Poissons Ratio (z) = 0.11759 0.06878
#
# Static dielectric constant tensor:
#      x y z
#    x 1.781850 0.000000 0.000000 
#    y 0.000000 1.796280 0.000000 
#    z 0.000000 0.000000 1.773970 
# 
# From -- ./inp_files/26110.got.cif
#   From: 2010.05.17/outbox.cif.g08.bks.cpg/sg60_14_cif.got.tgz:26110.got - 2010.06.03 14:59:27.
