data_PCOD9456455
_publ_section_title
;
Structure prediction by ZEFSAII (Michael W. Deem and Ramdas Pophale) SiO2 
 PCOD9456455
Probable space group: P B C N
;
_chemical_formula_sum "Si O2"
_cell_formula_units_Z 32
_cell_length_a 6.946617
_cell_length_b 5.321867
_cell_length_c 37.447975
_cell_angle_alpha 90.000000
_cell_angle_beta 90.000000
_cell_angle_gamma 90.000000
_cell_volume 1384.413131
_symmetry_space_group_name_H-M "P B C N"
_symmetry_group_IT_number 60
_symmetry_cell_setting 'orthorhombic'
loop_
_space_group_symop_operation_xyz
x,y,z
1/2-x,1/2-y,1/2+z
1/2+x,1/2-y,-z
-x,y,1/2-z
-x,-y,-z
1/2+x,1/2+y,1/2-z
1/2-x,1/2+y,z
x,-y,1/2+z
loop_
_atom_site_type_symbol
_atom_site_label
_atom_site_fract_x
_atom_site_fract_y
_atom_site_fract_z
Si Si1 0.460646 0.611210 0.319106
Si Si2 0.877847 0.978506 0.536183
Si Si3 0.376428 0.473333 0.107901
Si Si4 0.524734 0.112059 0.209228
O O1 0.475150 0.515580 0.359458
O O2 0.556019 0.391994 0.295571
O O3 0.246290 0.645909 0.303414
O O4 0.550001 0.887306 0.315501
O O5 0.771124 0.710445 0.537146
O O6 0.015208 0.002673 0.570400
O O7 0.000000 0.000000 0.500000
O O8 0.276939 0.201105 0.110500
O O9 0.500000 0.033012 0.250000
#
# Coordination Sequence:
#
# PCOD9456455 Si02
#       4
#     8   8   8   8
#     4  10  23  41  66  94 132 178 236 290 367 422
#     4  12  26  46  79 112 152 195 241 294 357 429
#     4  12  26  47  70 105 150 192 243 301 357 431
#     4  10  21  42  66  92 129 172 235 300 358 438
#
# _framework density 23.114484999999998
#
# number of rings (size 3 to 8) (size 9 to 14) (size 15 to 20)
#    0.000    1.000    0.000    6.000    7.000    0.000 
#   27.000    0.000    0.000    0.000    0.000    0.000 
#    0.000    0.000    0.000    0.000    0.000    0.000 
#
# Total GULP energy -179038.450533 kJ/mol
# GULP energy per Si atom -5594.951579 kJ/mol
# Density = 2.306188 g / cm^3
# Si number density = 23.114485 Si / 1000 Ang^3
#
#
#
# Elastic Constant Matrix: (Units=GPa)
#
#
# Indices 1 2 3 4 5 6 
#
# 1 92.7252 -22.3385 16.4350 0.0000 0.0000 0.0000
# 2 -22.3385 138.2362 -15.9582 0.0000 0.0000 0.0000
# 3 16.4350 -15.9582 159.5461 0.0000 0.0000 0.0000
# 4 0.0000 0.0000 0.0000 38.6707 0.0000 0.0000
# 5 0.0000 0.0000 0.0000 0.0000 54.6529 0.0000
# 6 0.0000 0.0000 0.0000 0.0000 0.0000 30.7878
#
#
#
# Elastic Compliance Matrix: (Units=1/GPa)
#
#
# Indices 1 2 3 4 5 6 
#
# 1 0.011377 0.001723 -0.001000 0.000000 0.000000 0.000000
# 2 0.001723 0.007579 0.000581 0.000000 0.000000 0.000000
# 3 -0.001000 0.000581 0.006429 0.000000 0.000000 0.000000
# 4 0.000000 0.000000 0.000000 0.025859 0.000000 0.000000
# 5 0.000000 0.000000 0.000000 0.000000 0.018297 0.000000
# 6 0.000000 0.000000 0.000000 0.000000 0.000000 0.032480
#
#
# Mechanical properties :
#
#
# Convention : Reuss Voigt Hill
#
# Bulk Modulus (GPa) = 35.72284 38.53157 37.12721
# Shear Modulus (GPa) = 45.97908 52.31356 49.14632
#
# Velocity S-wave (km/s) = 4.46487 4.76251 4.61609
# Velocity P-wave (km/s) = 6.48601 6.85187 6.67145
#
# Compressibility (1/GPa) = 0.02799329
#
# Stress axis : x y z
#
# Youngs Moduli (GPa) = 87.89799 131.93548 155.54940
#
# Poissons Ratio (x) = -0.22733 0.15549
# Poissons Ratio (y) = -0.15145 -0.09032
# Poissons Ratio (z) = 0.08786 -0.07660
#
# Static dielectric constant tensor:
#      x y z
#    x 1.523440 0.000000 0.000000 
#    y 0.000000 1.929710 0.000000 
#    z 0.000000 0.000000 1.816510 
# 
# From -- ./inp_files/25864.got.cif
#   From: 2010.05.17/outbox.cif.g08.bks.cpg/sg60_13_cif.got.tgz:25864.got - 2010.06.03 14:59:27.
