data_PCOD9456287
_publ_section_title
;
Structure prediction by ZEFSAII (Michael W. Deem and Ramdas Pophale) SiO2 
 PCOD9456287
Probable space group: P B C N
;
_chemical_formula_sum "Si O2"
_cell_formula_units_Z 48
_cell_length_a 5.683031
_cell_length_b 18.477482
_cell_length_c 20.394751
_cell_angle_alpha 90.000000
_cell_angle_beta 90.000000
_cell_angle_gamma 90.000000
_cell_volume 2141.614114
_symmetry_space_group_name_H-M "P B C N"
_symmetry_group_IT_number 60
_symmetry_cell_setting 'orthorhombic'
loop_
_space_group_symop_operation_xyz
x,y,z
1/2-x,1/2-y,1/2+z
1/2+x,1/2-y,-z
-x,y,1/2-z
-x,-y,-z
1/2+x,1/2+y,1/2-z
1/2-x,1/2+y,z
x,-y,1/2+z
loop_
_atom_site_type_symbol
_atom_site_label
_atom_site_fract_x
_atom_site_fract_y
_atom_site_fract_z
Si Si1 0.749427 0.545692 0.259728
Si Si2 0.383642 0.818044 0.552276
Si Si3 0.104426 0.823940 0.422366
Si Si4 0.332376 0.459126 0.594345
Si Si5 0.751726 0.386030 0.214381
Si Si6 0.266043 0.570321 0.496361
O O1 0.500000 0.585723 0.250000
O O2 0.727307 0.516377 0.333559
O O3 0.755201 0.474057 0.214602
O O4 0.000000 0.584288 0.250000
O O5 0.272920 0.798558 0.481802
O O6 0.449328 0.746919 0.591845
O O7 0.216758 0.873447 0.590645
O O8 0.599741 0.869646 0.533710
O O9 0.234692 0.853885 0.358649
O O10 0.943557 0.885486 0.455501
O O11 0.178539 0.506592 0.544160
O O12 0.591522 0.465161 0.563802
O O13 0.500000 0.367009 0.250000
O O14 0.000000 0.364907 0.250000
#
# Coordination Sequence:
#
# PCOD9456287 Si02
#       6
#     8   8   8   8   8   8
#     4  10  22  39  65  95 130 179 227 283 337 400
#     4  11  23  39  66 100 133 185 208 304 348 412
#     4  11  23  40  69  99 141 174 240 277 357 419
#     4  10  23  39  64  98 133 170 230 287 347 416
#     4  10  23  41  67 102 129 182 233 286 326 408
#     4  10  21  40  65  99 131 172 220 287 350 409
#
# _framework density 22.413001000000001
#
# number of rings (size 3 to 8) (size 9 to 14) (size 15 to 20)
#    0.000    1.667    1.667    2.500    9.333    0.000 
#    0.000    0.833    0.000    0.000    0.000    0.000 
#    0.000    0.000    0.000    0.000    0.000    0.000 
#
# Total GULP energy -267790.946128 kJ/mol
# GULP energy per Si atom -5578.978044 kJ/mol
# Density = 2.236199 g / cm^3
# Si number density = 22.413001 Si / 1000 Ang^3
#
#
#
# Elastic Constant Matrix: (Units=GPa)
#
#
# Indices 1 2 3 4 5 6 
#
# 1 107.7475 -3.1098 19.0265 0.0000 0.0000 0.0000
# 2 -3.1098 88.2984 3.4961 0.0000 0.0000 0.0000
# 3 19.0265 3.4961 69.0640 0.0000 0.0000 0.0000
# 4 0.0000 0.0000 0.0000 7.9356 0.0000 0.0000
# 5 0.0000 0.0000 0.0000 0.0000 19.9126 0.0000
# 6 0.0000 0.0000 0.0000 0.0000 0.0000 23.2233
#
#
#
# Elastic Compliance Matrix: (Units=1/GPa)
#
#
# Indices 1 2 3 4 5 6 
#
# 1 0.009773 0.000452 -0.002715 0.000000 0.000000 0.000000
# 2 0.000452 0.011369 -0.000700 0.000000 0.000000 0.000000
# 3 -0.002715 -0.000700 0.015263 0.000000 0.000000 0.000000
# 4 0.000000 0.000000 0.000000 0.126014 0.000000 0.000000
# 5 0.000000 0.000000 0.000000 0.000000 0.050219 0.000000
# 6 0.000000 0.000000 0.000000 0.000000 0.000000 0.043060
#
#
# Mechanical properties :
#
#
# Convention : Reuss Voigt Hill
#
# Bulk Modulus (GPa) = 32.81061 33.77063 33.29062
# Shear Modulus (GPa) = 18.39689 26.59411 22.49550
#
# Velocity S-wave (km/s) = 2.86809 3.44837 3.17153
# Velocity P-wave (km/s) = 5.06348 5.56373 5.31949
#
# Compressibility (1/GPa) = 0.03047795
#
# Stress axis : x y z
#
# Youngs Moduli (GPa) = 102.31759 87.95956 65.51873
#
# Poissons Ratio (x) = -0.03973 0.17791
# Poissons Ratio (y) = -0.04622 0.04586
# Poissons Ratio (z) = 0.27783 0.06157
#
# Static dielectric constant tensor:
#      x y z
#    x 2.006310 0.000000 0.000000 
#    y 0.000000 1.838280 0.000000 
#    z 0.000000 0.000000 1.820270 
# 
# From -- ./inp_files/21589.got.cif
#   From: 2010.05.17/outbox.cif.g08.bks.cpg/sg60_11_cif.got.tgz:21589.got - 2010.06.03 14:59:27.
