data_PCOD9456756
_publ_section_title
;
Structure prediction by ZEFSAII (Michael W. Deem and Ramdas Pophale) SiO2 
 PCOD9456756
Probable space group: P B C N
;
_chemical_formula_sum "Si O2"
_cell_formula_units_Z 56
_cell_length_a 20.969279
_cell_length_b 15.079146
_cell_length_c 9.304461
_cell_angle_alpha 90.000000
_cell_angle_beta 90.000000
_cell_angle_gamma 90.000000
_cell_volume 2942.059585
_symmetry_space_group_name_H-M "P B C N"
_symmetry_group_IT_number 60
_symmetry_cell_setting 'orthorhombic'
loop_
_space_group_symop_operation_xyz
x,y,z
1/2-x,1/2-y,1/2+z
1/2+x,1/2-y,-z
-x,y,1/2-z
-x,-y,-z
1/2+x,1/2+y,1/2-z
1/2-x,1/2+y,z
x,-y,1/2+z
loop_
_atom_site_type_symbol
_atom_site_label
_atom_site_fract_x
_atom_site_fract_y
_atom_site_fract_z
Si Si1 0.000000 0.954981 0.250000
Si Si2 0.786287 0.655929 0.993954
Si Si3 0.118347 0.060684 0.127426
Si Si4 0.300591 0.489871 0.885736
Si Si5 0.500000 0.010303 0.750000
Si Si6 0.295441 0.312316 0.286277
Si Si7 0.428955 0.691592 0.913722
Si Si8 0.935962 0.385170 0.515324
O O1 0.023538 0.887317 0.372789
O O2 0.056963 0.016884 0.198178
O O3 0.745693 0.688799 0.857652
O O4 0.755119 0.564561 0.043842
O O5 0.776732 0.731169 0.113360
O O6 0.861466 0.635044 0.983158
O O7 0.174293 0.058108 0.243586
O O8 0.105529 0.156342 0.058385
O O9 0.141503 0.997877 0.997894
O O10 0.282170 0.590617 0.851504
O O11 0.465718 0.070723 0.628085
O O12 0.452600 0.948525 0.847648
O O13 0.373547 0.306243 0.290206
O O14 0.460302 0.786506 0.941024
#
# Coordination Sequence:
#
# PCOD9456756 Si02
#       8
#     4   8   8   8   4   8   8   8
#     4  12  19  37  62  88 124 174 202 237 307 374
#     4  11  24  40  67  93 124 166 209 254 322 381
#     4  11  22  37  60  88 129 167 203 245 304 374
#     4  11  22  41  59  86 132 161 197 264 308 362
#     4  10  23  49  66  90 124 160 214 275 315 374
#     4  10  23  41  59  93 126 159 208 257 308 371
#     4  10  22  39  61  92 128 160 210 256 305 369
#     4  10  24  44  67  91 121 162 211 267 320 376
#
# _framework density 19.034286000000002
#
# number of rings (size 3 to 8) (size 9 to 14) (size 15 to 20)
#    0.000    1.429    4.286    0.857    8.000    0.571 
#    2.571    1.429    0.000    0.000    0.000    0.000 
#    0.000    0.000    0.000    0.000    0.000    0.000 
#
# Total GULP energy -312202.947767 kJ/mol
# GULP energy per Si atom -5575.052639 kJ/mol
# Density = 1.899096 g / cm^3
# Si number density = 19.034286 Si / 1000 Ang^3
#
#
#
# Elastic Constant Matrix: (Units=GPa)
#
#
# Indices 1 2 3 4 5 6 
#
# 1 43.9951 24.8665 17.7134 0.0000 0.0000 0.0000
# 2 24.8665 69.5303 12.2215 0.0000 0.0000 0.0000
# 3 17.7134 12.2215 78.1767 0.0000 0.0000 0.0000
# 4 0.0000 0.0000 0.0000 -238.5783 0.0000 0.0000
# 5 0.0000 0.0000 0.0000 0.0000 23.7614 0.0000
# 6 0.0000 0.0000 0.0000 0.0000 0.0000 16.2343
#
#
#
# Elastic Compliance Matrix: (Units=1/GPa)
#
#
# Indices 1 2 3 4 5 6 
#
# 1 0.030525 -0.009975 -0.005357 0.000000 0.000000 0.000000
# 2 -0.009975 0.018048 -0.000561 0.000000 0.000000 0.000000
# 3 -0.005357 -0.000561 0.014093 0.000000 0.000000 0.000000
# 4 0.000000 0.000000 0.000000 -0.004191 0.000000 0.000000
# 5 0.000000 0.000000 0.000000 0.000000 0.042085 0.000000
# 6 0.000000 0.000000 0.000000 0.000000 0.000000 0.061598
#
#
# Mechanical properties :
#
#
# Convention : Reuss Voigt Hill
#
# Bulk Modulus (GPa) = 32.38411 33.47833 32.93122
# Shear Modulus (GPa) = 24.48133 -30.58979 -3.05423
#
# Velocity S-wave (km/s) = 3.59021 -4.01320 -1.26810
# Velocity P-wave (km/s) = 5.85121 1.96157 3.89801
#
# Compressibility (1/GPa) = 0.03087934
#
# Stress axis : x y z
#
# Youngs Moduli (GPa) = 32.76043 55.40676 70.95689
#
# Poissons Ratio (x) = 0.55269 0.38011
# Poissons Ratio (y) = 0.32679 0.03983
# Poissons Ratio (z) = 0.17549 0.03110
#
# Static dielectric constant tensor:
#      x y z
#    x 1.699870 0.000000 0.000000 
#    y 0.000000 1.649290 0.000000 
#    z 0.000000 0.000000 1.723480 
# 
# From -- ./inp_files/7452.got.cif
#   From: 2010.05.17/outbox.cif.g08.bks.cpg/sg60_4_cif.got.tgz:7452.got - 2010.06.03 14:59:27.
