data_PCOD9456063
_publ_section_title
;
Structure prediction by ZEFSAII (Michael W. Deem and Ramdas Pophale) SiO2 
 PCOD9456063
Probable space group: P B C N
;
_chemical_formula_sum "Si O2"
_cell_formula_units_Z 52
_cell_length_a 9.469106
_cell_length_b 19.417523
_cell_length_c 15.444649
_cell_angle_alpha 90.000000
_cell_angle_beta 90.000000
_cell_angle_gamma 90.000000
_cell_volume 2839.754846
_symmetry_space_group_name_H-M "P B C N"
_symmetry_group_IT_number 60
_symmetry_cell_setting 'orthorhombic'
loop_
_space_group_symop_operation_xyz
x,y,z
1/2-x,1/2-y,1/2+z
1/2+x,1/2-y,-z
-x,y,1/2-z
-x,-y,-z
1/2+x,1/2+y,1/2-z
1/2-x,1/2+y,z
x,-y,1/2+z
loop_
_atom_site_type_symbol
_atom_site_label
_atom_site_fract_x
_atom_site_fract_y
_atom_site_fract_z
Si Si1 0.843570 0.309804 0.504626
Si Si2 0.000000 0.729939 0.250000
Si Si3 0.000000 0.054699 0.250000
Si Si4 0.000000 0.493579 0.750000
Si Si5 0.963952 0.193918 0.927287
Si Si6 0.785387 0.376030 0.693953
Si Si7 0.922202 0.034124 0.919868
Si Si8 0.913242 0.450834 0.433562
O O1 0.697252 0.294922 0.456543
O O2 0.804048 0.345175 0.597489
O O3 0.930914 0.370658 0.457994
O O4 0.932864 0.239898 0.513381
O O5 0.004108 0.775944 0.166271
O O6 0.137780 0.681270 0.247578
O O7 0.872316 0.103075 0.217810
O O8 0.952871 0.006596 0.330748
O O9 0.122791 0.444321 0.787699
O O10 0.047435 0.535969 0.666241
O O11 0.979273 0.112150 0.920360
O O12 0.754582 0.034612 0.938961
O O13 0.000000 0.000000 0.000000
O O14 0.000000 0.500000 0.500000
#
# Coordination Sequence:
#
# PCOD9456063 Si02
#       8
#     8   4   4   4   8   8   8   8
#     4  10  22  41  61  89 125 169 208 257 310 382
#     4   9  21  40  64  84 120 176 204 250 310 386
#     4  12  21  38  61  95 129 158 200 274 317 366
#     4  11  20  40  61  95 127 158 204 256 309 376
#     4  10  22  42  59  86 123 163 214 252 315 375
#     4  10  21  38  63  92 125 163 209 249 318 379
#     4  11  25  39  62  93 125 161 206 269 322 369
#     4  11  22  39  65  92 125 164 213 260 307 381
#
# _framework density 18.311440000000001
#
# number of rings (size 3 to 8) (size 9 to 14) (size 15 to 20)
#    0.000    1.538    3.077    2.308    0.000    3.692 
#    0.000    3.077    0.000    0.923    0.000    0.000 
#    0.000    0.000    0.000    0.000    0.000    0.000 
#
# Total GULP energy -290090.020708 kJ/mol
# GULP energy per Si atom -5578.654244 kJ/mol
# Density = 1.826976 g / cm^3
# Si number density = 18.311440 Si / 1000 Ang^3
#
#
#
# Elastic Constant Matrix: (Units=GPa)
#
#
# Indices 1 2 3 4 5 6 
#
# 1 91.5336 63.2636 26.7795 0.0000 0.0000 0.0000
# 2 63.2636 135.4873 48.3128 0.0000 0.0000 0.0000
# 3 26.7795 48.3128 80.5804 0.0000 0.0000 0.0000
# 4 0.0000 0.0000 0.0000 10.3809 0.0000 0.0000
# 5 0.0000 0.0000 0.0000 0.0000 31.2390 0.0000
# 6 0.0000 0.0000 0.0000 0.0000 0.0000 23.2172
#
#
#
# Elastic Compliance Matrix: (Units=1/GPa)
#
#
# Indices 1 2 3 4 5 6 
#
# 1 0.016204 -0.007181 -0.001080 0.000000 0.000000 0.000000
# 2 -0.007181 0.012570 -0.005150 0.000000 0.000000 0.000000
# 3 -0.001080 -0.005150 0.015857 0.000000 0.000000 0.000000
# 4 0.000000 0.000000 0.000000 0.096331 0.000000 0.000000
# 5 0.000000 0.000000 0.000000 0.000000 0.032011 0.000000
# 6 0.000000 0.000000 0.000000 0.000000 0.000000 0.043071
#
#
# Mechanical properties :
#
#
# Convention : Reuss Voigt Hill
#
# Bulk Modulus (GPa) = 56.15094 64.92370 60.53732
# Shear Modulus (GPa) = 20.09620 24.25045 22.17332
#
# Velocity S-wave (km/s) = 3.31640 3.64309 3.48357
# Velocity P-wave (km/s) = 6.73763 7.29578 7.02225
#
# Compressibility (1/GPa) = 0.01780914
#
# Stress axis : x y z
#
# Youngs Moduli (GPa) = 61.71246 79.55170 63.06534
#
# Poissons Ratio (x) = 0.57129 0.06808
# Poissons Ratio (y) = 0.44318 0.32480
# Poissons Ratio (z) = 0.06662 0.40970
#
# Static dielectric constant tensor:
#      x y z
#    x 1.628530 0.000000 0.000000 
#    y 0.000000 1.623890 0.000000 
#    z 0.000000 0.000000 1.634520 
# 
# From -- ./inp_files/19544.got.cif
#   From: 2010.05.17/outbox.cif.g08.bks.cpg/sg60_10_cif.got.tgz:19544.got - 2010.06.03 14:59:27.
