data_PCOD9456859
_publ_section_title
;
Structure prediction by ZEFSAII (Michael W. Deem and Ramdas Pophale) SiO2 
 PCOD9456859
Probable space group: P B C N
;
_chemical_formula_sum "Si O2"
_cell_formula_units_Z 40
_cell_length_a 12.392386
_cell_length_b 13.178106
_cell_length_c 9.996965
_cell_angle_alpha 90.000000
_cell_angle_beta 90.000000
_cell_angle_gamma 90.000000
_cell_volume 1632.586123
_symmetry_space_group_name_H-M "P B C N"
_symmetry_group_IT_number 60
_symmetry_cell_setting 'orthorhombic'
loop_
_space_group_symop_operation_xyz
x,y,z
1/2-x,1/2-y,1/2+z
1/2+x,1/2-y,-z
-x,y,1/2-z
-x,-y,-z
1/2+x,1/2+y,1/2-z
1/2-x,1/2+y,z
x,-y,1/2+z
loop_
_atom_site_type_symbol
_atom_site_label
_atom_site_fract_x
_atom_site_fract_y
_atom_site_fract_z
Si Si1 0.735100 0.185853 0.004283
Si Si2 0.293502 0.145753 0.189820
Si Si3 0.887938 0.564389 0.807219
Si Si4 0.000000 0.756379 0.250000
Si Si5 0.000000 0.248234 0.250000
Si Si6 0.976196 0.117684 0.986765
O O1 0.733676 0.295065 0.929565
O O2 0.635587 0.114705 0.952929
O O3 0.737797 0.183519 0.163164
O O4 0.848302 0.134379 0.958746
O O5 0.415281 0.185714 0.175935
O O6 0.299645 0.024050 0.199251
O O7 0.901240 0.671196 0.727576
O O8 0.000000 0.517611 0.750000
O O9 0.041798 0.831122 0.365465
O O10 0.997140 0.177057 0.377644
O O11 0.000000 0.000000 0.000000
#
# Coordination Sequence:
#
# PCOD9456859 Si02
#       6
#     8   8   8   4   4   8
#     4  11  26  42  71 107 146 189 252 305 373 465
#     4  11  24  47  69 104 142 190 244 312 372 442
#     4  10  24  44  73 107 141 195 246 320 370 442
#     4  10  22  40  66  92 130 180 236 286 364 428
#     4  10  22  44  72 100 134 194 252 296 364 446
#     4  11  24  42  66  99 144 190 231 298 372 441
#
# _framework density 24.501003000000001
#
# number of rings (size 3 to 8) (size 9 to 14) (size 15 to 20)
#    0.600    0.800    1.000    3.000    0.000   13.600 
#    0.000    0.000    0.000    0.000    0.000    0.000 
#    0.000    0.000    0.000    0.000    0.000    0.000 
#
# Total GULP energy -222777.481868 kJ/mol
# GULP energy per Si atom -5569.437047 kJ/mol
# Density = 2.444524 g / cm^3
# Si number density = 24.501003 Si / 1000 Ang^3
#
#
#
# Elastic Constant Matrix: (Units=GPa)
#
#
# Indices 1 2 3 4 5 6 
#
# 1 63.6341 35.0186 2.3853 0.0000 0.0000 0.0000
# 2 35.0186 206.5771 88.3903 0.0000 0.0000 0.0000
# 3 2.3853 88.3903 151.7024 0.0000 0.0000 0.0000
# 4 0.0000 0.0000 0.0000 28.0731 0.0000 0.0000
# 5 0.0000 0.0000 0.0000 0.0000 35.0076 0.0000
# 6 0.0000 0.0000 0.0000 0.0000 0.0000 -6.0083
#
#
#
# Elastic Compliance Matrix: (Units=1/GPa)
#
#
# Indices 1 2 3 4 5 6 
#
# 1 0.017761 -0.003851 0.001965 0.000000 0.000000 0.000000
# 2 -0.003851 0.007284 -0.004183 0.000000 0.000000 0.000000
# 3 0.001965 -0.004183 0.008998 0.000000 0.000000 0.000000
# 4 0.000000 0.000000 0.000000 0.035621 0.000000 0.000000
# 5 0.000000 0.000000 0.000000 0.000000 0.028565 0.000000
# 6 0.000000 0.000000 0.000000 0.000000 0.000000 -0.166437
#
#
# Mechanical properties :
#
#
# Convention : Reuss Voigt Hill
#
# Bulk Modulus (GPa) = 45.65620 74.83355 60.24488
# Shear Modulus (GPa) = -102.52876 31.15577 -35.68650
#
# Velocity S-wave (km/s) = -6.47593 3.56984 -3.82059
# Velocity P-wave (km/s) = 6.10262 6.89935 2.27586
#
# Compressibility (1/GPa) = 0.02190283
#
# Stress axis : x y z
#
# Youngs Moduli (GPa) = 56.30409 137.29365 111.13098
#
# Poissons Ratio (x) = 0.52878 -0.21835
# Poissons Ratio (y) = 0.21685 0.46490
# Poissons Ratio (z) = -0.11063 0.57434
#
# Static dielectric constant tensor:
#      x y z
#    x 2.188880 0.000000 0.000000 
#    y 0.000000 1.953280 0.000000 
#    z 0.000000 0.000000 1.982900 
# 
# From -- ./inp_files/5721.got.cif
#   From: 2010.05.17/outbox.cif.g08.bks.cpg/sg60_3_cif.got.tgz:5721.got - 2010.06.03 14:59:27.
