data_PCOD9456894
_publ_section_title
;
Structure prediction by ZEFSAII (Michael W. Deem and Ramdas Pophale) SiO2 
 PCOD9456894
Probable space group: P B C N
;
_chemical_formula_sum "Si O2"
_cell_formula_units_Z 32
_cell_length_a 5.355622
_cell_length_b 16.430787
_cell_length_c 17.238047
_cell_angle_alpha 90.000000
_cell_angle_beta 90.000000
_cell_angle_gamma 90.000000
_cell_volume 1516.897876
_symmetry_space_group_name_H-M "P B C N"
_symmetry_group_IT_number 60
_symmetry_cell_setting 'orthorhombic'
loop_
_space_group_symop_operation_xyz
x,y,z
1/2-x,1/2-y,1/2+z
1/2+x,1/2-y,-z
-x,y,1/2-z
-x,-y,-z
1/2+x,1/2+y,1/2-z
1/2-x,1/2+y,z
x,-y,1/2+z
loop_
_atom_site_type_symbol
_atom_site_label
_atom_site_fract_x
_atom_site_fract_y
_atom_site_fract_z
Si Si1 0.652865 0.909167 0.670506
Si Si2 0.421275 0.562942 0.886787
Si Si3 0.000000 0.204579 0.250000
Si Si4 0.313442 0.060922 0.043373
Si Si5 0.000000 0.188666 0.750000
O O1 0.500000 0.904393 0.750000
O O2 0.902269 0.855752 0.681873
O O3 0.476729 0.882489 0.599294
O O4 0.719882 0.002736 0.652981
O O5 0.640581 0.498945 0.906121
O O6 0.478198 0.632325 0.825747
O O7 0.339372 0.597404 0.971038
O O8 0.246364 0.259270 0.238561
O O9 0.500000 0.000000 0.000000
#
# Coordination Sequence:
#
# PCOD9456894 Si02
#       5
#     8   8   4   8   4
#     4  11  21  42  71  96 128 181 225 276 337 410
#     4  10  22  40  72 101 130 169 236 290 337 398
#     4  12  27  42  65  96 144 180 228 268 349 428
#     4   9  20  38  70  98 129 166 228 285 338 395
#     4  12  27  42  69 102 140 180 230 288 339 410
#
# _framework density 21.095683000000001
#
# number of rings (size 3 to 8) (size 9 to 14) (size 15 to 20)
#    0.000    1.500    1.250    3.750    8.750    0.000 
#    0.000    0.000   22.000    0.000    0.000    0.000 
#    0.000    0.000    0.000    0.000    0.000    0.000 
#
# Total GULP energy -178478.570878 kJ/mol
# GULP energy per Si atom -5577.455340 kJ/mol
# Density = 2.104767 g / cm^3
# Si number density = 21.095683 Si / 1000 Ang^3
#
#
#
# Elastic Constant Matrix: (Units=GPa)
#
#
# Indices 1 2 3 4 5 6 
#
# 1 127.8937 47.6123 79.4502 0.0000 0.0000 0.0000
# 2 47.6123 84.5157 72.1072 0.0000 0.0000 0.0000
# 3 79.4502 72.1072 147.1363 0.0000 0.0000 0.0000
# 4 0.0000 0.0000 0.0000 -1.6659 0.0000 0.0000
# 5 0.0000 0.0000 0.0000 0.0000 49.2437 0.0000
# 6 0.0000 0.0000 0.0000 0.0000 0.0000 0.1424
#
#
#
# Elastic Compliance Matrix: (Units=1/GPa)
#
#
# Indices 1 2 3 4 5 6 
#
# 1 0.011982 -0.002114 -0.005434 0.000000 0.000000 0.000000
# 2 -0.002114 0.020707 -0.009007 0.000000 0.000000 0.000000
# 3 -0.005434 -0.009007 0.014144 0.000000 0.000000 0.000000
# 4 0.000000 0.000000 0.000000 -0.600278 0.000000 0.000000
# 5 0.000000 0.000000 0.000000 0.000000 0.020307 0.000000
# 6 0.000000 0.000000 0.000000 0.000000 0.000000 7.021695
#
#
# Mechanical properties :
#
#
# Convention : Reuss Voigt Hill
#
# Bulk Modulus (GPa) = 72.86132 84.20945 78.53539
# Shear Modulus (GPa) = 0.76614 20.23577 10.50096
#
# Velocity S-wave (km/s) = 0.60329 3.10052 2.23351
# Velocity P-wave (km/s) = 5.92442 7.26788 6.63027
#
# Compressibility (1/GPa) = 0.01372470
#
# Stress axis : x y z
#
# Youngs Moduli (GPa) = 83.46178 48.29242 70.69931
#
# Poissons Ratio (x) = 0.10208 0.38417
# Poissons Ratio (y) = 0.17642 0.63676
# Poissons Ratio (z) = 0.45352 0.43495
#
# Static dielectric constant tensor:
#      x y z
#    x 1.879860 0.000000 0.000000 
#    y 0.000000 1.736340 0.000000 
#    z 0.000000 0.000000 1.808370 
# 
# From -- ./inp_files/13614.got.cif
#   From: 2010.05.17/outbox.cif.g08.bks.cpg/sg60_7_cif.got.tgz:13614.got - 2010.06.03 14:59:27.
