data_PCOD9456270
_publ_section_title
;
Structure prediction by ZEFSAII (Michael W. Deem and Ramdas Pophale) SiO2 
 PCOD9456270
Probable space group: P B C N
;
_chemical_formula_sum "Si O2"
_cell_formula_units_Z 32
_cell_length_a 12.650563
_cell_length_b 5.308930
_cell_length_c 18.531641
_cell_angle_alpha 90.000000
_cell_angle_beta 90.000000
_cell_angle_gamma 90.000000
_cell_volume 1244.602678
_symmetry_space_group_name_H-M "P B C N"
_symmetry_group_IT_number 60
_symmetry_cell_setting 'orthorhombic'
loop_
_space_group_symop_operation_xyz
x,y,z
1/2-x,1/2-y,1/2+z
1/2+x,1/2-y,-z
-x,y,1/2-z
-x,-y,-z
1/2+x,1/2+y,1/2-z
1/2-x,1/2+y,z
x,-y,1/2+z
loop_
_atom_site_type_symbol
_atom_site_label
_atom_site_fract_x
_atom_site_fract_y
_atom_site_fract_z
Si Si1 0.586857 0.784531 0.700246
Si Si2 0.781738 0.200714 0.097214
Si Si3 0.995308 0.966189 0.915397
Si Si4 0.816364 0.105274 0.308802
O O1 0.500000 0.928954 0.750000
O O2 0.703912 0.850669 0.667206
O O3 0.525971 0.720013 0.626988
O O4 0.610565 0.529885 0.747656
O O5 0.737555 0.439774 0.056743
O O6 0.907025 0.216279 0.107648
O O7 0.883453 0.899032 0.882143
O O8 0.000000 0.000000 0.000000
O O9 0.722413 0.895129 0.305751
#
# Coordination Sequence:
#
# PCOD9456270 Si02
#       4
#     8   8   8   8
#     4   9  20  41  68  98 130 171 222 277 337 402
#     4  10  21  40  64  91 125 167 212 265 329 390
#     4  10  23  42  66  98 136 178 223 275 339 406
#     4  11  24  43  67  97 131 174 227 279 330 396
#
# _framework density 25.711013999999999
#
# number of rings (size 3 to 8) (size 9 to 14) (size 15 to 20)
#    0.000    2.000    0.000    3.000    0.000   10.000 
#    0.000   17.500    0.000    0.000    0.000    0.000 
#    0.000    0.000    0.000    0.000    0.000    0.000 
#
# Total GULP energy -178169.093376 kJ/mol
# GULP energy per Si atom -5567.784168 kJ/mol
# Density = 2.565249 g / cm^3
# Si number density = 25.711014 Si / 1000 Ang^3
#
#
#
# Elastic Constant Matrix: (Units=GPa)
#
#
# Indices 1 2 3 4 5 6 
#
# 1 119.8428 1.2836 39.2885 0.0000 0.0000 0.0000
# 2 1.2836 93.0694 -8.4378 0.0000 0.0000 0.0000
# 3 39.2885 -8.4378 160.9196 0.0000 0.0000 0.0000
# 4 0.0000 0.0000 0.0000 8.7594 0.0000 0.0000
# 5 0.0000 0.0000 0.0000 0.0000 35.7257 0.0000
# 6 0.0000 0.0000 0.0000 0.0000 0.0000 50.1344
#
#
#
# Elastic Compliance Matrix: (Units=1/GPa)
#
#
# Indices 1 2 3 4 5 6 
#
# 1 0.009080 -0.000328 -0.002234 0.000000 0.000000 0.000000
# 2 -0.000328 0.010808 0.000647 0.000000 0.000000 0.000000
# 3 -0.002234 0.000647 0.006794 0.000000 0.000000 0.000000
# 4 0.000000 0.000000 0.000000 0.114163 0.000000 0.000000
# 5 0.000000 0.000000 0.000000 0.000000 0.027991 0.000000
# 6 0.000000 0.000000 0.000000 0.000000 0.000000 0.019946
#
#
# Mechanical properties :
#
#
# Convention : Reuss Voigt Hill
#
# Bulk Modulus (GPa) = 43.76110 48.67783 46.21946
# Shear Modulus (GPa) = 24.97129 41.70374 33.33751
#
# Velocity S-wave (km/s) = 3.11984 4.03180 3.60477
# Velocity P-wave (km/s) = 5.48043 6.37555 5.94486
#
# Compressibility (1/GPa) = 0.02285135
#
# Stress axis : x y z
#
# Youngs Moduli (GPa) = 110.12979 92.52556 147.19626
#
# Poissons Ratio (x) = 0.03033 0.32885
# Poissons Ratio (y) = 0.03610 -0.09520
# Poissons Ratio (z) = 0.24604 -0.05984
#
# Static dielectric constant tensor:
#      x y z
#    x 2.174360 0.000000 0.000000 
#    y 0.000000 2.164880 0.000000 
#    z 0.000000 0.000000 1.991840 
# 
# From -- ./inp_files/22483.got.cif
#   From: 2010.05.17/outbox.cif.g08.bks.cpg/sg60_12_cif.got.tgz:22483.got - 2010.06.03 14:59:27.
