data_PCOD9456984
_publ_section_title
;
Structure prediction by ZEFSAII (Michael W. Deem and Ramdas Pophale) SiO2 
 PCOD9456984
Probable space group: P B C N
;
_chemical_formula_sum "Si O2"
_cell_formula_units_Z 56
_cell_length_a 14.742095
_cell_length_b 10.590175
_cell_length_c 15.137908
_cell_angle_alpha 90.000000
_cell_angle_beta 90.000000
_cell_angle_gamma 90.000000
_cell_volume 2363.350874
_symmetry_space_group_name_H-M "P B C N"
_symmetry_group_IT_number 60
_symmetry_cell_setting 'orthorhombic'
loop_
_space_group_symop_operation_xyz
x,y,z
1/2-x,1/2-y,1/2+z
1/2+x,1/2-y,-z
-x,y,1/2-z
-x,-y,-z
1/2+x,1/2+y,1/2-z
1/2-x,1/2+y,z
x,-y,1/2+z
loop_
_atom_site_type_symbol
_atom_site_label
_atom_site_fract_x
_atom_site_fract_y
_atom_site_fract_z
Si Si1 0.500000 0.493564 0.750000
Si Si2 0.763775 0.466399 0.499165
Si Si3 0.544913 0.707593 0.380355
Si Si4 0.000000 0.574752 0.750000
Si Si5 0.817541 0.482984 0.180468
Si Si6 0.747337 0.376071 0.829075
Si Si7 0.146054 0.792136 0.456414
Si Si8 0.339171 0.315835 0.260321
O O1 0.512054 0.404125 0.664395
O O2 0.588871 0.577102 0.764043
O O3 0.832677 0.510767 0.576476
O O4 0.772892 0.513108 0.398279
O O5 0.681129 0.561556 0.531133
O O6 0.779121 0.313984 0.510122
O O7 0.513486 0.834360 0.333788
O O8 0.648820 0.675901 0.352313
O O9 0.556084 0.719466 0.484473
O O10 0.909753 0.499830 0.732477
O O11 0.750265 0.583394 0.225988
O O12 0.762456 0.359464 0.210188
O O13 0.823183 0.268286 0.825718
O O14 0.125229 0.765148 0.354447
#
# Coordination Sequence:
#
# PCOD9456984 Si02
#       8
#     4   8   8   4   8   8   8   8
#     4  11  24  41  68 104 132 189 233 294 346 423
#     4  10  23  39  68 104 134 186 239 284 351 420
#     4  10  22  41  68  97 134 176 238 279 351 416
#     4  11  22  39  68  96 132 179 221 288 344 417
#     4  11  22  42  66  98 134 181 232 279 350 416
#     4  11  21  41  71  93 136 181 228 290 348 412
#     4  10  22  43  66 101 139 180 237 290 346 424
#     4  11  23  42  68  97 142 177 234 291 350 411
#
# _framework density 23.695170000000001
#
# number of rings (size 3 to 8) (size 9 to 14) (size 15 to 20)
#    0.000    1.429    4.286    0.857    2.000    1.143 
#    5.143    1.429    0.000    0.000    0.000    0.000 
#    0.000    0.000    0.000    0.000    0.000    0.000 
#
# Total GULP energy -311789.996296 kJ/mol
# GULP energy per Si atom -5567.678505 kJ/mol
# Density = 2.364124 g / cm^3
# Si number density = 23.695170 Si / 1000 Ang^3
#
#
#
# Elastic Constant Matrix: (Units=GPa)
#
#
# Indices 1 2 3 4 5 6 
#
# 1 53.9948 11.1153 -8.5563 0.0000 0.0000 0.0000
# 2 11.1153 78.2311 2.6647 0.0000 0.0000 0.0000
# 3 -8.5563 2.6647 77.5415 0.0000 0.0000 0.0000
# 4 0.0000 0.0000 0.0000 22.8452 0.0000 0.0000
# 5 0.0000 0.0000 0.0000 0.0000 32.6283 0.0000
# 6 0.0000 0.0000 0.0000 0.0000 0.0000 32.3716
#
#
#
# Elastic Compliance Matrix: (Units=1/GPa)
#
#
# Indices 1 2 3 4 5 6 
#
# 1 0.019461 -0.002842 0.002245 0.000000 0.000000 0.000000
# 2 -0.002842 0.013213 -0.000768 0.000000 0.000000 0.000000
# 3 0.002245 -0.000768 0.013170 0.000000 0.000000 0.000000
# 4 0.000000 0.000000 0.000000 0.043773 0.000000 0.000000
# 5 0.000000 0.000000 0.000000 0.000000 0.030648 0.000000
# 6 0.000000 0.000000 0.000000 0.000000 0.000000 0.030891
#
#
# Mechanical properties :
#
#
# Convention : Reuss Voigt Hill
#
# Bulk Modulus (GPa) = 23.19334 24.46831 23.83082
# Shear Modulus (GPa) = 29.71653 31.20526 30.46089
#
# Velocity S-wave (km/s) = 3.54519 3.63291 3.58932
# Velocity P-wave (km/s) = 5.15435 5.28641 5.22080
#
# Compressibility (1/GPa) = 0.04311583
#
# Stress axis : x y z
#
# Youngs Moduli (GPa) = 51.38471 75.68577 75.92765
#
# Poissons Ratio (x) = 0.21507 -0.17046
# Poissons Ratio (y) = 0.14601 0.05828
# Poissons Ratio (z) = -0.11536 0.05810
#
# Static dielectric constant tensor:
#      x y z
#    x 1.868250 0.000000 0.000000 
#    y 0.000000 2.120030 0.000000 
#    z 0.000000 0.000000 1.987180 
# 
# From -- ./inp_files/16902.got.cif
#   From: 2010.05.17/outbox.cif.g08.bks.cpg/sg60_9_cif.got.tgz:16902.got - 2010.06.03 14:59:27.
