data_PCOD9456820
_publ_section_title
;
Structure prediction by ZEFSAII (Michael W. Deem and Ramdas Pophale) SiO2 
 PCOD9456820
Probable space group: P B C N
;
_chemical_formula_sum "Si O2"
_cell_formula_units_Z 48
_cell_length_a 4.950275
_cell_length_b 13.556816
_cell_length_c 29.275540
_cell_angle_alpha 90.000000
_cell_angle_beta 90.000000
_cell_angle_gamma 90.000000
_cell_volume 1964.680533
_symmetry_space_group_name_H-M "P B C N"
_symmetry_group_IT_number 60
_symmetry_cell_setting 'orthorhombic'
loop_
_space_group_symop_operation_xyz
x,y,z
1/2-x,1/2-y,1/2+z
1/2+x,1/2-y,-z
-x,y,1/2-z
-x,-y,-z
1/2+x,1/2+y,1/2-z
1/2-x,1/2+y,z
x,-y,1/2+z
loop_
_atom_site_type_symbol
_atom_site_label
_atom_site_fract_x
_atom_site_fract_y
_atom_site_fract_z
Si Si1 0.428891 0.534051 0.896429
Si Si2 0.951294 0.960991 0.298828
Si Si3 0.543691 0.822818 0.200770
Si Si4 0.083676 0.434146 0.565046
Si Si5 0.596529 0.804224 0.485637
Si Si6 0.248433 0.733475 0.610785
O O1 0.483675 0.486370 0.846350
O O2 0.629152 0.486859 0.933380
O O3 0.528933 0.646083 0.889546
O O4 0.132283 0.506138 0.911950
O O5 0.846336 0.865523 0.200855
O O6 0.647198 0.920572 0.299696
O O7 0.000000 0.011645 0.250000
O O8 0.500000 0.772851 0.250000
O O9 0.428973 0.765969 0.156831
O O10 0.997233 0.396248 0.515302
O O11 0.115858 0.336349 0.596582
O O12 0.411175 0.716157 0.505492
O O13 0.557541 0.795666 0.431888
#
# Coordination Sequence:
#
# PCOD9456820 Si02
#       6
#     8   8   8   8   8   8
#     4  11  23  39  64  92 120 165 210 253 317 370
#     4   9  18  35  59  88 122 159 202 251 306 371
#     4   9  18  34  61  91 117 157 206 248 305 372
#     4  11  24  40  60  93 127 159 213 260 298 380
#     4  10  22  40  62  88 124 169 207 254 317 368
#     4  10  23  42  66  90 130 170 202 261 323 363
#
# _framework density 24.431452
#
# number of rings (size 3 to 8) (size 9 to 14) (size 15 to 20)
#    0.000    2.000    0.000    4.000    0.000   13.333 
#    0.000    0.833    0.000    8.000    0.000    0.000 
#    0.000    0.000    0.000    0.000    0.000    0.000 
#
# Total GULP energy -268291.755595 kJ/mol
# GULP energy per Si atom -5589.411575 kJ/mol
# Density = 2.437584 g / cm^3
# Si number density = 24.431452 Si / 1000 Ang^3
#
#
#
# Elastic Constant Matrix: (Units=GPa)
#
#
# Indices 1 2 3 4 5 6 
#
# 1 73.6183 21.1432 20.2882 0.0000 0.0000 0.0000
# 2 21.1432 96.0578 8.0648 0.0000 0.0000 0.0000
# 3 20.2882 8.0648 171.9115 0.0000 0.0000 0.0000
# 4 0.0000 0.0000 0.0000 18.0236 0.0000 0.0000
# 5 0.0000 0.0000 0.0000 0.0000 43.1081 0.0000
# 6 0.0000 0.0000 0.0000 0.0000 0.0000 23.2159
#
#
#
# Elastic Compliance Matrix: (Units=1/GPa)
#
#
# Indices 1 2 3 4 5 6 
#
# 1 0.014934 -0.003151 -0.001615 0.000000 0.000000 0.000000
# 2 -0.003151 0.011117 -0.000150 0.000000 0.000000 0.000000
# 3 -0.001615 -0.000150 0.006015 0.000000 0.000000 0.000000
# 4 0.000000 0.000000 0.000000 0.055483 0.000000 0.000000
# 5 0.000000 0.000000 0.000000 0.000000 0.023197 0.000000
# 6 0.000000 0.000000 0.000000 0.000000 0.000000 0.043074
#
#
# Mechanical properties :
#
#
# Convention : Reuss Voigt Hill
#
# Bulk Modulus (GPa) = 44.97710 48.95332 46.96521
# Shear Modulus (GPa) = 29.22925 36.34228 32.78577
#
# Velocity S-wave (km/s) = 3.46262 3.86102 3.66724
# Velocity P-wave (km/s) = 5.86820 6.32117 6.09889
#
# Compressibility (1/GPa) = 0.02223354
#
# Stress axis : x y z
#
# Youngs Moduli (GPa) = 66.96293 89.95537 166.26469
#
# Poissons Ratio (x) = 0.28349 0.26844
# Poissons Ratio (y) = 0.21103 0.02487
# Poissons Ratio (z) = 0.10812 0.01346
#
# Static dielectric constant tensor:
#      x y z
#    x 1.879280 0.000000 0.000000 
#    y 0.000000 1.962580 0.000000 
#    z 0.000000 0.000000 2.046880 
# 
# From -- ./inp_files/25656.got.cif
#   From: 2010.05.17/outbox.cif.g08.bks.cpg/sg60_13_cif.got.tgz:25656.got - 2010.06.03 14:59:27.
