data_PCOD9456157
_publ_section_title
;
Structure prediction by ZEFSAII (Michael W. Deem and Ramdas Pophale) SiO2 
 PCOD9456157
Probable space group: P B C N
;
_chemical_formula_sum "Si O2"
_cell_formula_units_Z 56
_cell_length_a 13.866305
_cell_length_b 31.744936
_cell_length_c 5.744438
_cell_angle_alpha 90.000000
_cell_angle_beta 90.000000
_cell_angle_gamma 90.000000
_cell_volume 2528.615239
_symmetry_space_group_name_H-M "P B C N"
_symmetry_group_IT_number 60
_symmetry_cell_setting 'orthorhombic'
loop_
_space_group_symop_operation_xyz
x,y,z
1/2-x,1/2-y,1/2+z
1/2+x,1/2-y,-z
-x,y,1/2-z
-x,-y,-z
1/2+x,1/2+y,1/2-z
1/2-x,1/2+y,z
x,-y,1/2+z
loop_
_atom_site_type_symbol
_atom_site_label
_atom_site_fract_x
_atom_site_fract_y
_atom_site_fract_z
Si Si1 0.609225 0.187671 0.835991
Si Si2 0.663281 0.105778 0.111484
Si Si3 0.500000 0.337880 0.250000
Si Si4 0.109420 0.513427 0.287098
Si Si5 0.641912 0.401343 0.335418
Si Si6 0.500000 0.475599 0.250000
Si Si7 0.402513 0.280139 0.596234
Si Si8 0.255486 0.659163 0.023739
O O1 0.500000 0.189719 0.750000
O O2 0.622413 0.232260 0.965938
O O3 0.694047 0.188442 0.646418
O O4 0.619359 0.141864 0.950066
O O5 0.608039 0.062641 0.148928
O O6 0.677634 0.130694 0.348028
O O7 0.769636 0.094588 0.011188
O O8 0.556376 0.369904 0.421529
O O9 0.425802 0.306168 0.365549
O O10 0.153146 0.492525 0.524635
O O11 0.000000 0.496904 0.250000
O O12 0.593096 0.444951 0.265365
O O13 0.681733 0.375783 0.112797
O O14 0.500000 0.500000 0.500000
O O15 0.500000 0.281214 0.750000
O O16 0.316548 0.309918 0.692694
#
# Coordination Sequence:
#
# PCOD9456157 Si02
#       8
#     8   8   4   8   8   4   8   8
#     4  10  25  40  58  98 134 174 229 287 348 415
#     4  11  24  40  69  91 130 176 219 280 349 408
#     4   9  18  40  66  84 130 172 226 264 330 403
#     4  10  25  45  69  94 122 167 221 276 339 414
#     4   9  22  43  62  99 130 176 228 272 340 428
#     4  11  26  44  72 108 148 184 226 298 360 423
#     4  10  21  39  63  92 129 176 227 281 337 413
#     4  10  23  40  64  93 132 181 226 284 342 422
#
# _framework density 22.146511
#
# number of rings (size 3 to 8) (size 9 to 14) (size 15 to 20)
#    0.000    2.000    0.000    0.857   10.000    4.000 
#    5.143    0.000    0.000    0.000    0.000    0.000 
#    0.000    0.000    0.000    0.000    0.000    0.000 
#
# Total GULP energy -311882.141056 kJ/mol
# GULP energy per Si atom -5569.323947 kJ/mol
# Density = 2.209610 g / cm^3
# Si number density = 22.146511 Si / 1000 Ang^3
#
#
#
# Elastic Constant Matrix: (Units=GPa)
#
#
# Indices 1 2 3 4 5 6 
#
# 1 57.9819 32.6759 11.6782 0.0000 0.0000 0.0000
# 2 32.6759 135.9504 43.1749 0.0000 0.0000 0.0000
# 3 11.6782 43.1749 75.4469 0.0000 0.0000 0.0000
# 4 0.0000 0.0000 0.0000 -26.8739 0.0000 0.0000
# 5 0.0000 0.0000 0.0000 0.0000 9.9030 0.0000
# 6 0.0000 0.0000 0.0000 0.0000 0.0000 9.1578
#
#
#
# Elastic Compliance Matrix: (Units=1/GPa)
#
#
# Indices 1 2 3 4 5 6 
#
# 1 0.019960 -0.004664 -0.000421 0.000000 0.000000 0.000000
# 2 -0.004664 0.010079 -0.005046 0.000000 0.000000 0.000000
# 3 -0.000421 -0.005046 0.016207 0.000000 0.000000 0.000000
# 4 0.000000 0.000000 0.000000 -0.037211 0.000000 0.000000
# 5 0.000000 0.000000 0.000000 0.000000 0.100980 0.000000
# 6 0.000000 0.000000 0.000000 0.000000 0.000000 0.109197
#
#
# Mechanical properties :
#
#
# Convention : Reuss Voigt Hill
#
# Bulk Modulus (GPa) = 38.48345 49.38191 43.93268
# Shear Modulus (GPa) = 20.15042 10.56071 15.35556
#
# Velocity S-wave (km/s) = 3.01968 2.18607 2.63603
# Velocity P-wave (km/s) = 5.43805 5.35893 5.39864
#
# Compressibility (1/GPa) = 0.02598519
#
# Stress axis : x y z
#
# Youngs Moduli (GPa) = 50.10071 99.21579 61.70168
#
# Poissons Ratio (x) = 0.46272 0.02595
# Poissons Ratio (y) = 0.23366 0.31134
# Poissons Ratio (z) = 0.02107 0.50063
#
# Static dielectric constant tensor:
#      x y z
#    x 1.946640 0.000000 0.000000 
#    y 0.000000 1.761310 0.000000 
#    z 0.000000 0.000000 1.933260 
# 
# From -- ./inp_files/1495.got.cif
#   From: 2010.05.17/outbox.cif.g08.bks.cpg/sg60_1_cif.got.tgz:1495.got - 2010.06.03 14:59:27.
