data_PCOD9456102
_publ_section_title
;
Structure prediction by ZEFSAII (Michael W. Deem and Ramdas Pophale) SiO2 
 PCOD9456102
Probable space group: P B C N
;
_chemical_formula_sum "Si O2"
_cell_formula_units_Z 40
_cell_length_a 9.645849
_cell_length_b 22.517850
_cell_length_c 8.541234
_cell_angle_alpha 90.000000
_cell_angle_beta 90.000000
_cell_angle_gamma 90.000000
_cell_volume 1855.188318
_symmetry_space_group_name_H-M "P B C N"
_symmetry_group_IT_number 60
_symmetry_cell_setting 'orthorhombic'
loop_
_space_group_symop_operation_xyz
x,y,z
1/2-x,1/2-y,1/2+z
1/2+x,1/2-y,-z
-x,y,1/2-z
-x,-y,-z
1/2+x,1/2+y,1/2-z
1/2-x,1/2+y,z
x,-y,1/2+z
loop_
_atom_site_type_symbol
_atom_site_label
_atom_site_fract_x
_atom_site_fract_y
_atom_site_fract_z
Si Si1 0.497702 0.293283 0.413074
Si Si2 0.618586 0.079482 0.540841
Si Si3 0.500000 0.183216 0.750000
Si Si4 0.500000 0.988318 0.750000
Si Si5 0.723204 0.725491 0.146830
Si Si6 0.128233 0.117939 0.160870
O O1 0.500000 0.328323 0.250000
O O2 0.381018 0.244553 0.375636
O O3 0.642022 0.270023 0.480695
O O4 0.446419 0.334512 0.550749
O O5 0.545044 0.138796 0.608831
O O6 0.530668 0.051759 0.399346
O O7 0.766450 0.086668 0.457064
O O8 0.618446 0.033535 0.686942
O O9 0.368307 0.228032 0.748805
O O10 0.712746 0.659234 0.216547
O O11 0.000000 0.085844 0.250000
#
# Coordination Sequence:
#
# PCOD9456102 Si02
#       6
#     8   8   4   4   8   8
#     4  11  22  35  54  82 129 177 209 246 290 367
#     4  10  21  41  65  87 119 156 210 267 328 356
#     4  11  20  34  62  88 128 166 198 251 316 388
#     4   9  22  44  64  92 108 150 218 291 304 372
#     4  11  22  37  55  89 134 172 209 246 297 396
#     4  10  21  39  56  86 129 165 198 249 313 392
#
# _framework density 21.561153999999998
#
# number of rings (size 3 to 8) (size 9 to 14) (size 15 to 20)
#    0.000    1.600    5.000    1.200    0.000    1.600 
#    3.600    1.000    0.000    0.000    0.000    0.000 
#    0.000    0.000    0.000    0.000    0.000    0.000 
#
# Total GULP energy -222784.888655 kJ/mol
# GULP energy per Si atom -5569.622216 kJ/mol
# Density = 2.151208 g / cm^3
# Si number density = 21.561154 Si / 1000 Ang^3
#
#
#
# Elastic Constant Matrix: (Units=GPa)
#
#
# Indices 1 2 3 4 5 6 
#
# 1 99.7366 16.0806 34.9537 0.0000 0.0000 0.0000
# 2 16.0806 46.6753 16.4567 0.0000 0.0000 0.0000
# 3 34.9537 16.4567 103.1268 0.0000 0.0000 0.0000
# 4 0.0000 0.0000 0.0000 11.6989 0.0000 0.0000
# 5 0.0000 0.0000 0.0000 0.0000 49.6846 0.0000
# 6 0.0000 0.0000 0.0000 0.0000 0.0000 8.1124
#
#
#
# Elastic Compliance Matrix: (Units=1/GPa)
#
#
# Indices 1 2 3 4 5 6 
#
# 1 0.011712 -0.002792 -0.003524 0.000000 0.000000 0.000000
# 2 -0.002792 0.023368 -0.002782 0.000000 0.000000 0.000000
# 3 -0.003524 -0.002782 0.011335 0.000000 0.000000 0.000000
# 4 0.000000 0.000000 0.000000 0.085478 0.000000 0.000000
# 5 0.000000 0.000000 0.000000 0.000000 0.020127 0.000000
# 6 0.000000 0.000000 0.000000 0.000000 0.000000 0.123268
#
#
# Mechanical properties :
#
#
# Convention : Reuss Voigt Hill
#
# Bulk Modulus (GPa) = 35.43979 42.72450 39.08215
# Shear Modulus (GPa) = 16.50761 26.03570 21.27165
#
# Velocity S-wave (km/s) = 2.76998 3.47872 3.14438
# Velocity P-wave (km/s) = 5.16749 5.99949 5.59896
#
# Compressibility (1/GPa) = 0.02821687
#
# Stress axis : x y z
#
# Youngs Moduli (GPa) = 85.38526 42.79410 88.22070
#
# Poissons Ratio (x) = 0.11950 0.31088
# Poissons Ratio (y) = 0.23843 0.24547
# Poissons Ratio (z) = 0.30089 0.11907
#
# Static dielectric constant tensor:
#      x y z
#    x 1.908020 0.000000 0.000000 
#    y 0.000000 1.812340 0.000000 
#    z 0.000000 0.000000 1.918460 
# 
# From -- ./inp_files/3902.got.cif
#   From: 2010.05.17/outbox.cif.g08.bks.cpg/sg60_2_cif.got.tgz:3902.got - 2010.06.03 14:59:27.
