data_PCOD9456929
_publ_section_title
;
Structure prediction by ZEFSAII (Michael W. Deem and Ramdas Pophale) SiO2 
 PCOD9456929
Probable space group: P B C N
;
_chemical_formula_sum "Si O2"
_cell_formula_units_Z 40
_cell_length_a 12.566088
_cell_length_b 4.869753
_cell_length_c 26.632813
_cell_angle_alpha 90.000000
_cell_angle_beta 90.000000
_cell_angle_gamma 90.000000
_cell_volume 1629.761560
_symmetry_space_group_name_H-M "P B C N"
_symmetry_group_IT_number 60
_symmetry_cell_setting 'orthorhombic'
loop_
_space_group_symop_operation_xyz
x,y,z
1/2-x,1/2-y,1/2+z
1/2+x,1/2-y,-z
-x,y,1/2-z
-x,-y,-z
1/2+x,1/2+y,1/2-z
1/2-x,1/2+y,z
x,-y,1/2+z
loop_
_atom_site_type_symbol
_atom_site_label
_atom_site_fract_x
_atom_site_fract_y
_atom_site_fract_z
Si Si1 0.000000 0.500000 0.500000
Si Si2 0.314672 0.652875 0.555649
Si Si3 0.812601 0.396630 0.198339
Si Si4 0.500000 0.437364 0.750000
Si Si5 0.446224 0.782393 0.389678
Si Si6 0.061394 0.779204 0.148539
O O1 0.916890 0.712587 0.469765
O O2 0.956737 0.625673 0.553609
O O3 0.287294 0.341184 0.541385
O O4 0.333999 0.663255 0.615582
O O5 0.790422 0.711443 0.209367
O O6 0.908135 0.259366 0.228306
O O7 0.839191 0.356552 0.139549
O O8 0.450331 0.619415 0.705061
O O9 0.473012 0.465068 0.380631
O O10 0.533909 0.961367 0.358974
#
# Coordination Sequence:
#
# PCOD9456929 Si02
#       6
#     4   8   8   4   8   8
#     4  10  24  44  70  96 134 180 224 280 346 414
#     4  11  24  41  65 100 135 174 225 277 338 406
#     4  11  24  41  65 100 136 178 232 283 340 410
#     4  10  24  44  70  98 140 190 236 286 354 422
#     4  10  22  41  64  91 129 173 223 284 344 402
#     4  10  22  41  64  92 131 175 224 284 340 402
#
# _framework density 24.543468000000001
#
# number of rings (size 3 to 8) (size 9 to 14) (size 15 to 20)
#    0.000    1.600    0.000    4.800    0.000   17.600 
#    0.000    0.000    0.000    0.000    0.000    0.000 
#    0.000    0.000    0.000    0.000    0.000    0.000 
#
# Total GULP energy -222763.423910 kJ/mol
# GULP energy per Si atom -5569.085598 kJ/mol
# Density = 2.448761 g / cm^3
# Si number density = 24.543468 Si / 1000 Ang^3
#
#
#
# Elastic Constant Matrix: (Units=GPa)
#
#
# Indices 1 2 3 4 5 6 
#
# 1 37.0605 13.6026 35.9337 0.0000 0.0000 0.0000
# 2 13.6026 85.2976 24.5608 0.0000 0.0000 0.0000
# 3 35.9337 24.5608 196.9328 0.0000 0.0000 0.0000
# 4 0.0000 0.0000 0.0000 29.0303 0.0000 0.0000
# 5 0.0000 0.0000 0.0000 0.0000 28.6571 0.0000
# 6 0.0000 0.0000 0.0000 0.0000 0.0000 29.0566
#
#
#
# Elastic Compliance Matrix: (Units=1/GPa)
#
#
# Indices 1 2 3 4 5 6 
#
# 1 0.033907 -0.003761 -0.005718 0.000000 0.000000 0.000000
# 2 -0.003761 0.012577 -0.000882 0.000000 0.000000 0.000000
# 3 -0.005718 -0.000882 0.006231 0.000000 0.000000 0.000000
# 4 0.000000 0.000000 0.000000 0.034447 0.000000 0.000000
# 5 0.000000 0.000000 0.000000 0.000000 0.034895 0.000000
# 6 0.000000 0.000000 0.000000 0.000000 0.000000 0.034416
#
#
# Mechanical properties :
#
#
# Convention : Reuss Voigt Hill
#
# Bulk Modulus (GPa) = 31.25609 51.94278 41.59943
# Shear Modulus (GPa) = 26.61546 33.69506 30.15526
#
# Velocity S-wave (km/s) = 3.29663 3.70925 3.50901
# Velocity P-wave (km/s) = 5.22044 6.28922 5.77959
#
# Compressibility (1/GPa) = 0.03199377
#
# Stress axis : x y z
#
# Youngs Moduli (GPa) = 29.49212 79.50717 160.48131
#
# Poissons Ratio (x) = 0.29901 0.91762
# Poissons Ratio (y) = 0.11092 0.14161
# Poissons Ratio (z) = 0.16863 0.07016
#
# Static dielectric constant tensor:
#      x y z
#    x 2.017680 0.000000 0.000000 
#    y 0.000000 1.905540 0.000000 
#    z 0.000000 0.000000 1.941460 
# 
# From -- ./inp_files/25386.got.cif
#   From: 2010.05.17/outbox.cif.g08.bks.cpg/sg60_13_cif.got.tgz:25386.got - 2010.06.03 14:59:27.
