data_PCOD9456590
_publ_section_title
;
Structure prediction by ZEFSAII (Michael W. Deem and Ramdas Pophale) SiO2 
 PCOD9456590
Probable space group: P B C N
;
_chemical_formula_sum "Si O2"
_cell_formula_units_Z 48
_cell_length_a 21.686959
_cell_length_b 13.841607
_cell_length_c 7.398668
_cell_angle_alpha 90.000000
_cell_angle_beta 90.000000
_cell_angle_gamma 90.000000
_cell_volume 2220.949647
_symmetry_space_group_name_H-M "P B C N"
_symmetry_group_IT_number 60
_symmetry_cell_setting 'orthorhombic'
loop_
_space_group_symop_operation_xyz
x,y,z
1/2-x,1/2-y,1/2+z
1/2+x,1/2-y,-z
-x,y,1/2-z
-x,-y,-z
1/2+x,1/2+y,1/2-z
1/2-x,1/2+y,z
x,-y,1/2+z
loop_
_atom_site_type_symbol
_atom_site_label
_atom_site_fract_x
_atom_site_fract_y
_atom_site_fract_z
Si Si1 0.197793 0.681511 0.282725
Si Si2 0.321405 0.403710 0.696106
Si Si3 0.780570 0.102182 0.712536
Si Si4 0.351575 0.924353 0.421864
Si Si5 0.890620 0.276910 0.369374
Si Si6 0.958584 0.416838 0.580186
O O1 0.211363 0.790576 0.210797
O O2 0.159318 0.698209 0.468431
O O3 0.265100 0.634744 0.321096
O O4 0.164682 0.620807 0.119858
O O5 0.295178 0.388688 0.497447
O O6 0.325537 0.518544 0.716954
O O7 0.379617 0.332616 0.695334
O O8 0.710480 0.063675 0.700333
O O9 0.393711 0.020672 0.416668
O O10 0.384495 0.841350 0.308372
O O11 0.950522 0.320161 0.464522
O O12 0.000000 0.387675 0.750000
O O13 0.000000 0.500000 0.500000
#
# Coordination Sequence:
#
# PCOD9456590 Si02
#       6
#     8   8   8   8   8   8
#     4  10  22  37  54  89 126 159 201 240 292 375
#     4  10  22  34  56  84 123 162 197 238 293 366
#     4  10  22  34  57  88 123 168 192 233 298 366
#     4  11  23  37  61  86 124 164 194 255 297 359
#     4  11  23  39  57  84 121 160 199 246 306 353
#     4  12  24  41  61  89 118 156 213 258 309 359
#
# _framework density 21.612376000000001
#
# number of rings (size 3 to 8) (size 9 to 14) (size 15 to 20)
#    0.000    1.333    3.333    2.000    9.333    0.000 
#    0.000    0.000    0.000    0.000    0.000   11.667 
#    0.000    0.167    0.000    0.000    0.000    0.000 
#
# Total GULP energy -267217.112074 kJ/mol
# GULP energy per Si atom -5567.023168 kJ/mol
# Density = 2.156319 g / cm^3
# Si number density = 21.612376 Si / 1000 Ang^3
#
#
#
# Elastic Constant Matrix: (Units=GPa)
#
#
# Indices 1 2 3 4 5 6 
#
# 1 42.3073 29.6596 0.5534 0.0000 0.0000 0.0000
# 2 29.6596 146.9895 -5.5240 0.0000 0.0000 0.0000
# 3 0.5534 -5.5240 54.3017 0.0000 0.0000 0.0000
# 4 0.0000 0.0000 0.0000 7.6895 0.0000 0.0000
# 5 0.0000 0.0000 0.0000 0.0000 24.1872 0.0000
# 6 0.0000 0.0000 0.0000 0.0000 0.0000 28.4790
#
#
#
# Elastic Compliance Matrix: (Units=1/GPa)
#
#
# Indices 1 2 3 4 5 6 
#
# 1 0.027570 -0.005595 -0.000850 0.000000 0.000000 0.000000
# 2 -0.005595 0.007965 0.000867 0.000000 0.000000 0.000000
# 3 -0.000850 0.000867 0.018513 0.000000 0.000000 0.000000
# 4 0.000000 0.000000 0.000000 0.130047 0.000000 0.000000
# 5 0.000000 0.000000 0.000000 0.000000 0.041344 0.000000
# 6 0.000000 0.000000 0.000000 0.000000 0.000000 0.035114
#
#
# Mechanical properties :
#
#
# Convention : Reuss Voigt Hill
#
# Bulk Modulus (GPa) = 23.31463 32.55295 27.93379
# Shear Modulus (GPa) = 17.48217 26.66510 22.07364
#
# Velocity S-wave (km/s) = 2.84720 3.51634 3.19931
# Velocity P-wave (km/s) = 4.64970 5.61971 5.15756
#
# Compressibility (1/GPa) = 0.04289153
#
# Stress axis : x y z
#
# Youngs Moduli (GPa) = 36.27110 125.55281 54.01751
#
# Poissons Ratio (x) = 0.70248 0.04592
# Poissons Ratio (y) = 0.20294 -0.04685
# Poissons Ratio (z) = 0.03084 -0.10889
#
# Static dielectric constant tensor:
#      x y z
#    x 2.028930 0.000000 0.000000 
#    y 0.000000 1.891060 0.000000 
#    z 0.000000 0.000000 1.816830 
# 
# From -- ./inp_files/7312.got.cif
#   From: 2010.05.17/outbox.cif.g08.bks.cpg/sg60_4_cif.got.tgz:7312.got - 2010.06.03 14:59:27.
