data_PCOD9456826
_publ_section_title
;
Structure prediction by ZEFSAII (Michael W. Deem and Ramdas Pophale) SiO2 
 PCOD9456826
Probable space group: P B C N
;
_chemical_formula_sum "Si O2"
_cell_formula_units_Z 40
_cell_length_a 14.088273
_cell_length_b 12.522371
_cell_length_c 10.641067
_cell_angle_alpha 90.000000
_cell_angle_beta 90.000000
_cell_angle_gamma 90.000000
_cell_volume 1877.281943
_symmetry_space_group_name_H-M "P B C N"
_symmetry_group_IT_number 60
_symmetry_cell_setting 'orthorhombic'
loop_
_space_group_symop_operation_xyz
x,y,z
1/2-x,1/2-y,1/2+z
1/2+x,1/2-y,-z
-x,y,1/2-z
-x,-y,-z
1/2+x,1/2+y,1/2-z
1/2-x,1/2+y,z
x,-y,1/2+z
loop_
_atom_site_type_symbol
_atom_site_label
_atom_site_fract_x
_atom_site_fract_y
_atom_site_fract_z
Si Si1 0.280051 0.935801 0.941923
Si Si2 0.387464 0.720765 0.021301
Si Si3 0.393870 0.703341 0.744654
Si Si4 0.731227 0.895838 0.839912
Si Si5 0.068014 0.899053 0.007801
O O1 0.346352 0.839889 0.997867
O O2 0.293305 0.954176 0.792335
O O3 0.169193 0.901196 0.942744
O O4 0.292795 0.032619 0.039115
O O5 0.362199 0.672295 0.883157
O O6 0.335116 0.653560 0.128900
O O7 0.500610 0.700954 0.029810
O O8 0.500000 0.751067 0.750000
O O9 0.329116 0.787955 0.675501
O O10 0.403564 0.603918 0.654525
O O11 0.000000 0.000000 0.000000
#
# Coordination Sequence:
#
# PCOD9456826 Si02
#       5
#     8   8   8   8   8
#     4  11  25  40  66  97 129 170 215 267 326 384
#     4  10  22  40  62  94 126 172 210 263 324 377
#     4   9  21  41  65  89 133 176 211 266 329 382
#     4  11  23  40  66  91 135 168 215 266 327 383
#     4  11  21  38  67  96 124 166 216 267 324 383
#
# _framework density 21.307403000000001
#
# number of rings (size 3 to 8) (size 9 to 14) (size 15 to 20)
#    0.000    1.600    4.000    0.000    2.800    2.400 
#    0.000    9.000    0.000    0.000    0.000    0.000 
#    0.000    0.000    0.000    0.000    0.000    0.000 
#
# Total GULP energy -222749.218600 kJ/mol
# GULP energy per Si atom -5568.730465 kJ/mol
# Density = 2.125891 g / cm^3
# Si number density = 21.307403 Si / 1000 Ang^3
#
#
#
# Elastic Constant Matrix: (Units=GPa)
#
#
# Indices 1 2 3 4 5 6 
#
# 1 60.9799 14.6636 5.7497 0.0000 0.0000 0.0000
# 2 14.6636 44.1172 43.1478 0.0000 0.0000 0.0000
# 3 5.7497 43.1478 108.1481 0.0000 0.0000 0.0000
# 4 0.0000 0.0000 0.0000 44.0303 0.0000 0.0000
# 5 0.0000 0.0000 0.0000 0.0000 27.1564 0.0000
# 6 0.0000 0.0000 0.0000 0.0000 0.0000 34.5954
#
#
#
# Elastic Compliance Matrix: (Units=1/GPa)
#
#
# Indices 1 2 3 4 5 6 
#
# 1 0.018186 -0.008362 0.002369 0.000000 0.000000 0.000000
# 2 -0.008362 0.041016 -0.015919 0.000000 0.000000 0.000000
# 3 0.002369 -0.015919 0.015472 0.000000 0.000000 0.000000
# 4 0.000000 0.000000 0.000000 0.022712 0.000000 0.000000
# 5 0.000000 0.000000 0.000000 0.000000 0.036824 0.000000
# 6 0.000000 0.000000 0.000000 0.000000 0.000000 0.028906
#
#
# Mechanical properties :
#
#
# Convention : Reuss Voigt Hill
#
# Bulk Modulus (GPa) = 32.41514 37.81862 35.11688
# Shear Modulus (GPa) = 23.01787 31.13536 27.07661
#
# Velocity S-wave (km/s) = 3.29032 3.82677 3.56864
# Velocity P-wave (km/s) = 5.44803 6.10845 5.78767
#
# Compressibility (1/GPa) = 0.03084978
#
# Stress axis : x y z
#
# Youngs Moduli (GPa) = 54.98670 24.38081 64.63289
#
# Poissons Ratio (x) = 0.20387 -0.15313
# Poissons Ratio (y) = 0.45979 1.02892
# Poissons Ratio (z) = -0.13028 0.38813
#
# Static dielectric constant tensor:
#      x y z
#    x 1.829130 0.000000 0.000000 
#    y 0.000000 1.830870 0.000000 
#    z 0.000000 0.000000 1.886410 
# 
# From -- ./inp_files/5665.got.cif
#   From: 2010.05.17/outbox.cif.g08.bks.cpg/sg60_3_cif.got.tgz:5665.got - 2010.06.03 14:59:27.
