data_PCOD9456049
_publ_section_title
;
Structure prediction by ZEFSAII (Michael W. Deem and Ramdas Pophale) SiO2 
 PCOD9456049
Probable space group: P B C N
;
_chemical_formula_sum "Si O2"
_cell_formula_units_Z 32
_cell_length_a 11.322424
_cell_length_b 18.828972
_cell_length_c 6.174227
_cell_angle_alpha 90.000000
_cell_angle_beta 90.000000
_cell_angle_gamma 90.000000
_cell_volume 1316.281012
_symmetry_space_group_name_H-M "P B C N"
_symmetry_group_IT_number 60
_symmetry_cell_setting 'orthorhombic'
loop_
_space_group_symop_operation_xyz
x,y,z
1/2-x,1/2-y,1/2+z
1/2+x,1/2-y,-z
-x,y,1/2-z
-x,-y,-z
1/2+x,1/2+y,1/2-z
1/2-x,1/2+y,z
x,-y,1/2+z
loop_
_atom_site_type_symbol
_atom_site_label
_atom_site_fract_x
_atom_site_fract_y
_atom_site_fract_z
Si Si1 0.843306 0.515325 0.128325
Si Si2 0.195706 0.850869 0.773905
Si Si3 0.619631 0.263566 0.351840
Si Si4 0.381010 0.585858 0.870872
O O1 0.894804 0.506977 0.383093
O O2 0.788650 0.594964 0.111030
O O3 0.729664 0.464610 0.155238
O O4 0.281622 0.795642 0.653844
O O5 0.115225 0.900090 0.625239
O O6 0.114669 0.798954 0.914344
O O7 0.500000 0.233837 0.250000
O O8 0.645381 0.335316 0.218417
O O9 0.500000 0.562357 0.750000
#
# Coordination Sequence:
#
# PCOD9456049 Si02
#       4
#     8   8   8   8
#     4  10  21  38  62  92 129 171 206 265 332 390
#     4  11  22  42  63  91 138 167 216 268 326 392
#     4  11  23  41  62  95 125 172 220 262 326 388
#     4  10  22  39  60  95 127 165 213 264 333 386
#
# _framework density 24.310918999999998
#
# number of rings (size 3 to 8) (size 9 to 14) (size 15 to 20)
#    0.000    1.500    5.000    0.000    0.000    8.000 
#    0.000    0.000    0.000    6.000    0.000    0.000 
#    0.000    0.000    0.000    0.000    0.000    0.000 
#
# Total GULP energy -178178.878872 kJ/mol
# GULP energy per Si atom -5568.089965 kJ/mol
# Density = 2.425559 g / cm^3
# Si number density = 24.310919 Si / 1000 Ang^3
#
#
#
# Elastic Constant Matrix: (Units=GPa)
#
#
# Indices 1 2 3 4 5 6 
#
# 1 51.9683 11.7905 72.5121 0.0000 0.0000 0.0000
# 2 11.7905 54.3847 10.5688 0.0000 0.0000 0.0000
# 3 72.5121 10.5688 160.2903 0.0000 0.0000 0.0000
# 4 0.0000 0.0000 0.0000 51.5200 0.0000 0.0000
# 5 0.0000 0.0000 0.0000 0.0000 45.9599 0.0000
# 6 0.0000 0.0000 0.0000 0.0000 0.0000 172.8813
#
#
#
# Elastic Compliance Matrix: (Units=1/GPa)
#
#
# Indices 1 2 3 4 5 6 
#
# 1 0.054794 -0.007154 -0.024316 0.000000 0.000000 0.000000
# 2 -0.007154 0.019560 0.001947 0.000000 0.000000 0.000000
# 3 -0.024316 0.001947 0.017110 0.000000 0.000000 0.000000
# 4 0.000000 0.000000 0.000000 0.019410 0.000000 0.000000
# 5 0.000000 0.000000 0.000000 0.000000 0.021758 0.000000
# 6 0.000000 0.000000 0.000000 0.000000 0.000000 0.005784
#
#
# Mechanical properties :
#
#
# Convention : Reuss Voigt Hill
#
# Bulk Modulus (GPa) = 30.84700 50.70956 40.77828
# Shear Modulus (GPa) = 24.00734 65.52369 44.76551
#
# Velocity S-wave (km/s) = 3.14588 5.19720 4.29578
# Velocity P-wave (km/s) = 5.09033 7.54444 6.43545
#
# Compressibility (1/GPa) = 0.03241806
#
# Stress axis : x y z
#
# Youngs Moduli (GPa) = 18.25015 51.12425 58.44395
#
# Poissons Ratio (x) = 0.36573 1.42112
# Poissons Ratio (y) = 0.13056 -0.11376
# Poissons Ratio (z) = 0.44377 -0.09951
#
# Static dielectric constant tensor:
#      x y z
#    x 0.823890 0.000000 0.000000 
#    y 0.000000 1.866630 0.000000 
#    z 0.000000 0.000000 2.766170 
# 
# From -- ./inp_files/630.got.cif
#   From: 2010.05.17/outbox.cif.g08.bks.cpg/sg60_1_cif.got.tgz:630.got - 2010.06.03 14:59:27.
