data_PCOD9456468
_publ_section_title
;
Structure prediction by ZEFSAII (Michael W. Deem and Ramdas Pophale) SiO2 
 PCOD9456468
Probable space group: P B C N
;
_chemical_formula_sum "Si O2"
_cell_formula_units_Z 52
_cell_length_a 23.524038
_cell_length_b 5.411900
_cell_length_c 15.816877
_cell_angle_alpha 90.000000
_cell_angle_beta 90.000000
_cell_angle_gamma 90.000000
_cell_volume 2013.642518
_symmetry_space_group_name_H-M "P B C N"
_symmetry_group_IT_number 60
_symmetry_cell_setting 'orthorhombic'
loop_
_space_group_symop_operation_xyz
x,y,z
1/2-x,1/2-y,1/2+z
1/2+x,1/2-y,-z
-x,y,1/2-z
-x,-y,-z
1/2+x,1/2+y,1/2-z
1/2-x,1/2+y,z
x,-y,1/2+z
loop_
_atom_site_type_symbol
_atom_site_label
_atom_site_fract_x
_atom_site_fract_y
_atom_site_fract_z
Si Si1 0.025039 0.235241 0.091643
Si Si2 0.769010 0.127247 0.455613
Si Si3 0.601438 0.681013 0.110338
Si Si4 0.228370 0.976447 0.233633
Si Si5 0.877097 0.683208 0.029477
Si Si6 0.500000 0.086012 0.250000
Si Si7 0.404118 0.460728 0.224149
O O1 0.014435 0.435437 0.165537
O O2 0.961524 0.153652 0.069953
O O3 0.064179 0.028082 0.137275
O O4 0.061573 0.332496 0.014239
O O5 0.733141 0.352687 0.495410
O O6 0.750042 0.054192 0.360642
O O7 0.831274 0.249276 0.457742
O O8 0.629778 0.417978 0.090688
O O9 0.593953 0.691555 0.211203
O O10 0.630904 0.923397 0.074853
O O11 0.238696 0.246460 0.275551
O O12 0.162430 0.903811 0.219271
O O13 0.445173 0.258421 0.265780
#
# Coordination Sequence:
#
# PCOD9456468 Si02
#       7
#     8   8   8   8   8   4   8
#     4  12  25  44  70 103 139 190 237 283 350 437
#     4  10  21  42  69  98 130 177 242 290 341 413
#     4  12  26  45  65 106 147 181 227 288 360 434
#     4  10  24  43  71 104 133 177 242 302 342 408
#     4  12  27  44  69 102 142 190 227 292 353 424
#     4  12  24  42  76 104 142 182 248 288 362 418
#     4  12  25  45  73 103 143 187 240 293 365 424
#
# _framework density 25.823851000000001
#
# number of rings (size 3 to 8) (size 9 to 14) (size 15 to 20)
#    0.000    0.615    4.615    2.769    4.308    1.231 
#    0.000    4.615    0.000    0.000    0.000    0.000 
#    0.000    0.000    0.000    0.000    0.000    0.000 
#
# Total GULP energy -290680.231425 kJ/mol
# GULP energy per Si atom -5590.004450 kJ/mol
# Density = 2.576507 g / cm^3
# Si number density = 25.823851 Si / 1000 Ang^3
#
#
#
# Elastic Constant Matrix: (Units=GPa)
#
#
# Indices 1 2 3 4 5 6 
#
# 1 110.5863 45.4108 -16.1537 0.0000 0.0000 0.0000
# 2 45.4108 179.7732 28.7451 0.0000 0.0000 0.0000
# 3 -16.1537 28.7451 53.7837 0.0000 0.0000 0.0000
# 4 0.0000 0.0000 0.0000 30.4465 0.0000 0.0000
# 5 0.0000 0.0000 0.0000 0.0000 27.5875 0.0000
# 6 0.0000 0.0000 0.0000 0.0000 0.0000 36.3523
#
#
#
# Elastic Compliance Matrix: (Units=1/GPa)
#
#
# Indices 1 2 3 4 5 6 
#
# 1 0.011368 -0.003737 0.005411 0.000000 0.000000 0.000000
# 2 -0.003737 0.007311 -0.005030 0.000000 0.000000 0.000000
# 3 0.005411 -0.005030 0.022906 0.000000 0.000000 0.000000
# 4 0.000000 0.000000 0.000000 0.032845 0.000000 0.000000
# 5 0.000000 0.000000 0.000000 0.000000 0.036248 0.000000
# 6 0.000000 0.000000 0.000000 0.000000 0.000000 0.027509
#
#
# Mechanical properties :
#
#
# Convention : Reuss Voigt Hill
#
# Bulk Modulus (GPa) = 28.67404 51.12751 39.90077
# Shear Modulus (GPa) = 31.94463 37.95332 34.94898
#
# Velocity S-wave (km/s) = 3.52095 3.83783 3.68280
# Velocity P-wave (km/s) = 5.25901 6.28332 5.79385
#
# Compressibility (1/GPa) = 0.03487475
#
# Stress axis : x y z
#
# Youngs Moduli (GPa) = 87.96932 136.78643 43.65602
#
# Poissons Ratio (x) = 0.51113 -0.23624
# Poissons Ratio (y) = 0.32872 0.21957
# Poissons Ratio (z) = -0.47603 0.68797
#
# Static dielectric constant tensor:
#      x y z
#    x 2.063990 0.000000 0.000000 
#    y 0.000000 2.146680 0.000000 
#    z 0.000000 0.000000 2.068340 
# 
# From -- ./inp_files/21189.got.cif
#   From: 2010.05.17/outbox.cif.g08.bks.cpg/sg60_11_cif.got.tgz:21189.got - 2010.06.03 14:59:27.
