data_PCOD9456380
_publ_section_title
;
Structure prediction by ZEFSAII (Michael W. Deem and Ramdas Pophale) SiO2 
 PCOD9456380
Probable space group: P B C N
;
_chemical_formula_sum "Si O2"
_cell_formula_units_Z 60
_cell_length_a 21.839577
_cell_length_b 5.023570
_cell_length_c 27.268455
_cell_angle_alpha 90.000000
_cell_angle_beta 90.000000
_cell_angle_gamma 90.000000
_cell_volume 2991.694291
_symmetry_space_group_name_H-M "P B C N"
_symmetry_group_IT_number 60
_symmetry_cell_setting 'orthorhombic'
loop_
_space_group_symop_operation_xyz
x,y,z
1/2-x,1/2-y,1/2+z
1/2+x,1/2-y,-z
-x,y,1/2-z
-x,-y,-z
1/2+x,1/2+y,1/2-z
1/2-x,1/2+y,z
x,-y,1/2+z
loop_
_atom_site_type_symbol
_atom_site_label
_atom_site_fract_x
_atom_site_fract_y
_atom_site_fract_z
Si Si1 0.895928 0.240057 0.134536
Si Si2 0.466372 0.220077 0.648458
Si Si3 0.209976 0.405813 0.437529
Si Si4 0.709978 0.242483 0.284039
Si Si5 0.500000 0.500697 0.250000
Si Si6 0.209839 0.596332 0.054351
Si Si7 0.616292 0.242286 0.199230
Si Si8 0.612636 0.287762 0.369928
O O1 0.850161 0.328440 0.092201
O O2 0.886147 0.441779 0.180155
O O3 0.967636 0.266336 0.122643
O O4 0.883000 0.943259 0.153406
O O5 0.476820 0.321150 0.704359
O O6 0.419727 0.429003 0.624192
O O7 0.438312 0.927317 0.645939
O O8 0.236404 0.695267 0.425467
O O9 0.199381 0.389719 0.495976
O O10 0.766910 0.441153 0.288059
O O11 0.675046 0.284112 0.233059
O O12 0.662382 0.305281 0.326848
O O13 0.555800 0.322600 0.229827
O O14 0.236189 0.306394 0.066947
O O15 0.149612 0.680123 0.083401
#
# Coordination Sequence:
#
# PCOD9456380 Si02
#       8
#     8   8   8   8   4   8   8   8
#     4  11  24  40  60  93 120 157 202 259 291 363
#     4  11  24  37  63  86 124 161 211 242 299 351
#     4  10  22  41  68  90 118 158 202 249 312 371
#     4  12  25  38  55  86 122 155 194 248 307 355
#     4  10  22  42  60  86 114 170 216 246 272 368
#     4  10  21  41  66  92 118 158 206 253 302 372
#     4  11  24  38  61  84 120 161 203 250 297 351
#     4  12  23  40  61  90 120 164 201 251 302 360
#
# _framework density 20.055526
#
# number of rings (size 3 to 8) (size 9 to 14) (size 15 to 20)
#    0.000    1.067    1.333    5.600    3.733    4.267 
#    0.000    1.333    0.000    0.000    0.000    0.000 
#    0.000    0.000    0.000    0.000    0.000    0.000 
#
# Total GULP energy -335829.754066 kJ/mol
# GULP energy per Si atom -5597.162568 kJ/mol
# Density = 2.000988 g / cm^3
# Si number density = 20.055526 Si / 1000 Ang^3
#
#
#
# Elastic Constant Matrix: (Units=GPa)
#
#
# Indices 1 2 3 4 5 6 
#
# 1 66.1208 -11.2293 28.3268 0.0000 0.0000 0.0000
# 2 -11.2293 49.4504 -9.0216 0.0000 0.0000 0.0000
# 3 28.3268 -9.0216 30.1614 0.0000 0.0000 0.0000
# 4 0.0000 0.0000 0.0000 17.9678 0.0000 0.0000
# 5 0.0000 0.0000 0.0000 0.0000 32.4377 0.0000
# 6 0.0000 0.0000 0.0000 0.0000 0.0000 34.9177
#
#
#
# Elastic Compliance Matrix: (Units=1/GPa)
#
#
# Indices 1 2 3 4 5 6 
#
# 1 0.025410 0.001498 -0.023416 0.000000 0.000000 0.000000
# 2 0.001498 0.021478 0.005017 0.000000 0.000000 0.000000
# 3 -0.023416 0.005017 0.056648 0.000000 0.000000 0.000000
# 4 0.000000 0.000000 0.000000 0.055655 0.000000 0.000000
# 5 0.000000 0.000000 0.000000 0.000000 0.030828 0.000000
# 6 0.000000 0.000000 0.000000 0.000000 0.000000 0.028639
#
#
# Mechanical properties :
#
#
# Convention : Reuss Voigt Hill
#
# Bulk Modulus (GPa) = 14.34026 17.98713 16.16370
# Shear Modulus (GPa) = 18.13538 26.24176 22.18857
#
# Velocity S-wave (km/s) = 3.01035 3.62118 3.32980
# Velocity P-wave (km/s) = 4.38734 5.14510 4.78126
#
# Compressibility (1/GPa) = 0.06973374
#
# Stress axis : x y z
#
# Youngs Moduli (GPa) = 39.35452 46.55963 17.65296
#
# Poissons Ratio (x) = -0.06975 0.41337
# Poissons Ratio (y) = -0.05896 -0.08857
# Poissons Ratio (z) = 0.92154 -0.23360
#
# Static dielectric constant tensor:
#      x y z
#    x 1.689550 0.000000 0.000000 
#    y 0.000000 1.688220 0.000000 
#    z 0.000000 0.000000 1.690630 
# 
# From -- ./inp_files/24598.got.cif
#   From: 2010.05.17/outbox.cif.g08.bks.cpg/sg60_13_cif.got.tgz:24598.got - 2010.06.03 14:59:27.
