data_PCOD9456442
_publ_section_title
;
Structure prediction by ZEFSAII (Michael W. Deem and Ramdas Pophale) SiO2 
 PCOD9456442
Probable space group: P B C N
;
_chemical_formula_sum "Si O2"
_cell_formula_units_Z 48
_cell_length_a 9.147311
_cell_length_b 12.687030
_cell_length_c 17.917000
_cell_angle_alpha 90.000000
_cell_angle_beta 90.000000
_cell_angle_gamma 90.000000
_cell_volume 2079.307430
_symmetry_space_group_name_H-M "P B C N"
_symmetry_group_IT_number 60
_symmetry_cell_setting 'orthorhombic'
loop_
_space_group_symop_operation_xyz
x,y,z
1/2-x,1/2-y,1/2+z
1/2+x,1/2-y,-z
-x,y,1/2-z
-x,-y,-z
1/2+x,1/2+y,1/2-z
1/2-x,1/2+y,z
x,-y,1/2+z
loop_
_atom_site_type_symbol
_atom_site_label
_atom_site_fract_x
_atom_site_fract_y
_atom_site_fract_z
Si Si1 0.123538 0.338551 0.193142
Si Si2 0.974215 0.735259 0.161673
Si Si3 0.737989 0.248078 0.542876
Si Si4 0.757282 0.140911 0.399697
Si Si5 0.546441 0.109206 0.961175
Si Si6 0.606897 0.456119 0.310568
O O1 0.181371 0.235480 0.151559
O O2 0.256014 0.401380 0.230920
O O3 0.000000 0.311275 0.250000
O O4 0.066522 0.411951 0.126496
O O5 0.814323 0.735994 0.123325
O O6 0.000000 0.710681 0.250000
O O7 0.083337 0.659764 0.114903
O O8 0.027537 0.855977 0.152757
O O9 0.795656 0.156615 0.486448
O O10 0.570108 0.208384 0.542833
O O11 0.800776 0.349429 0.497351
O O12 0.831104 0.037483 0.368726
O O13 0.500000 0.000000 0.000000
O O14 0.500000 0.505975 0.250000
#
# Coordination Sequence:
#
# PCOD9456442 Si02
#       6
#     8   8   8   8   8   8
#     4  10  23  40  64  95 133 172 219 287 340 410
#     4  10  23  42  66  98 139 173 226 290 343 413
#     4  11  23  46  69  98 137 186 229 289 351 423
#     4  10  21  42  64  92 135 170 227 281 339 412
#     4  11  25  47  69 101 142 181 235 287 353 416
#     4  10  22  41  64  94 134 174 226 279 343 416
#
# _framework density 23.084607999999999
#
# number of rings (size 3 to 8) (size 9 to 14) (size 15 to 20)
#    0.000    1.667    1.667    1.500    7.000    1.333 
#    6.000    0.000    0.000    0.000    0.000    0.000 
#    0.000    0.000    0.000    0.000    0.000    0.000 
#
# Total GULP energy -267459.561300 kJ/mol
# GULP energy per Si atom -5572.074194 kJ/mol
# Density = 2.303207 g / cm^3
# Si number density = 23.084608 Si / 1000 Ang^3
#
#
#
# Elastic Constant Matrix: (Units=GPa)
#
#
# Indices 1 2 3 4 5 6 
#
# 1 99.5978 10.0175 30.5722 0.0000 0.0000 0.0000
# 2 10.0175 53.0822 5.0396 0.0000 0.0000 0.0000
# 3 30.5722 5.0396 100.8213 0.0000 0.0000 0.0000
# 4 0.0000 0.0000 0.0000 20.3180 0.0000 0.0000
# 5 0.0000 0.0000 0.0000 0.0000 36.6305 0.0000
# 6 0.0000 0.0000 0.0000 0.0000 0.0000 12.9738
#
#
#
# Elastic Compliance Matrix: (Units=1/GPa)
#
#
# Indices 1 2 3 4 5 6 
#
# 1 0.011241 -0.001806 -0.003318 0.000000 0.000000 0.000000
# 2 -0.001806 0.019219 -0.000413 0.000000 0.000000 0.000000
# 3 -0.003318 -0.000413 0.010945 0.000000 0.000000 0.000000
# 4 0.000000 0.000000 0.000000 0.049217 0.000000 0.000000
# 5 0.000000 0.000000 0.000000 0.000000 0.027300 0.000000
# 6 0.000000 0.000000 0.000000 0.000000 0.000000 0.077079
#
#
# Mechanical properties :
#
#
# Convention : Reuss Voigt Hill
#
# Bulk Modulus (GPa) = 32.97075 38.30666 35.63871
# Shear Modulus (GPa) = 23.12831 27.84258 25.48544
#
# Velocity S-wave (km/s) = 3.16870 3.47668 3.32626
# Velocity P-wave (km/s) = 5.26319 5.72245 5.49762
#
# Compressibility (1/GPa) = 0.03032991
#
# Stress axis : x y z
#
# Youngs Moduli (GPa) = 88.96322 52.03238 91.36279
#
# Poissons Ratio (x) = 0.09398 0.30316
# Poissons Ratio (y) = 0.16069 0.03773
# Poissons Ratio (z) = 0.29520 0.02149
#
# Static dielectric constant tensor:
#      x y z
#    x 1.979160 0.000000 0.000000 
#    y 0.000000 1.867460 0.000000 
#    z 0.000000 0.000000 1.916360 
# 
# From -- ./inp_files/19331.got.cif
#   From: 2010.05.17/outbox.cif.g08.bks.cpg/sg60_10_cif.got.tgz:19331.got - 2010.06.03 14:59:27.
