data_PCOD9456343
_publ_section_title
;
Structure prediction by ZEFSAII (Michael W. Deem and Ramdas Pophale) SiO2 
 PCOD9456343
Probable space group: P B C N
;
_chemical_formula_sum "Si O2"
_cell_formula_units_Z 36
_cell_length_a 12.726558
_cell_length_b 8.043626
_cell_length_c 16.617666
_cell_angle_alpha 90.000000
_cell_angle_beta 90.000000
_cell_angle_gamma 90.000000
_cell_volume 1701.111796
_symmetry_space_group_name_H-M "P B C N"
_symmetry_group_IT_number 60
_symmetry_cell_setting 'orthorhombic'
loop_
_space_group_symop_operation_xyz
x,y,z
1/2-x,1/2-y,1/2+z
1/2+x,1/2-y,-z
-x,y,1/2-z
-x,-y,-z
1/2+x,1/2+y,1/2-z
1/2-x,1/2+y,z
x,-y,1/2+z
loop_
_atom_site_type_symbol
_atom_site_label
_atom_site_fract_x
_atom_site_fract_y
_atom_site_fract_z
Si Si1 0.186309 0.950982 0.136102
Si Si2 0.608816 0.679666 0.713154
Si Si3 0.500000 0.005584 0.750000
Si Si4 0.401694 0.818845 0.100121
Si Si5 0.009506 0.168296 0.949741
O O1 0.195946 0.899422 0.230064
O O2 0.297591 0.930068 0.094141
O O3 0.100869 0.822313 0.097709
O O4 0.140569 0.134956 0.124507
O O5 0.500000 0.602721 0.750000
O O6 0.599833 0.653434 0.618247
O O7 0.593831 0.875668 0.729596
O O8 0.527392 0.111785 0.827946
O O9 0.462098 0.804534 0.015740
O O10 0.000000 0.000000 0.000000
#
# Coordination Sequence:
#
# PCOD9456343 Si02
#       5
#     8   8   4   8   8
#     4  10  21  41  63  86 130 161 206 260 310 382
#     4   8  18  39  60  82 121 157 201 250 311 358
#     4  10  22  36  60  90 118 170 198 250 316 364
#     4  11  23  39  62  94 120 166 211 252 318 367
#     4   9  20  38  65  88 122 162 205 259 315 360
#
# _framework density 21.16263
#
# number of rings (size 3 to 8) (size 9 to 14) (size 15 to 20)
#    0.667    1.778    0.000    1.333    7.778    0.889 
#    4.000    2.222    0.000    0.000    0.000    0.000 
#    0.000    0.000    0.000    0.000    0.000    0.000 
#
# Total GULP energy -200662.151523 kJ/mol
# GULP energy per Si atom -5573.948653 kJ/mol
# Density = 2.111446 g / cm^3
# Si number density = 21.162630 Si / 1000 Ang^3
#
#
#
# Elastic Constant Matrix: (Units=GPa)
#
#
# Indices 1 2 3 4 5 6 
#
# 1 32.0559 12.7939 6.2413 0.0000 0.0000 0.0000
# 2 12.7939 92.1892 33.7524 0.0000 0.0000 0.0000
# 3 6.2413 33.7524 144.2553 0.0000 0.0000 0.0000
# 4 0.0000 0.0000 0.0000 31.6767 0.0000 0.0000
# 5 0.0000 0.0000 0.0000 0.0000 25.5343 0.0000
# 6 0.0000 0.0000 0.0000 0.0000 0.0000 20.6832
#
#
#
# Elastic Compliance Matrix: (Units=1/GPa)
#
#
# Indices 1 2 3 4 5 6 
#
# 1 0.033045 -0.004443 -0.000390 0.000000 0.000000 0.000000
# 2 -0.004443 0.012461 -0.002723 0.000000 0.000000 0.000000
# 3 -0.000390 -0.002723 0.007586 0.000000 0.000000 0.000000
# 4 0.000000 0.000000 0.000000 0.031569 0.000000 0.000000
# 5 0.000000 0.000000 0.000000 0.000000 0.039163 0.000000
# 6 0.000000 0.000000 0.000000 0.000000 0.000000 0.048348
#
#
# Mechanical properties :
#
#
# Convention : Reuss Voigt Hill
#
# Bulk Modulus (GPa) = 26.33046 41.56397 33.94721
# Shear Modulus (GPa) = 25.00689 29.95971 27.48330
#
# Velocity S-wave (km/s) = 3.44125 3.76665 3.60762
# Velocity P-wave (km/s) = 5.31588 6.21287 5.78179
#
# Compressibility (1/GPa) = 0.03797883
#
# Stress axis : x y z
#
# Youngs Moduli (GPa) = 30.26198 80.25084 131.81776
#
# Poissons Ratio (x) = 0.35656 0.05143
# Poissons Ratio (y) = 0.13446 0.35898
# Poissons Ratio (z) = 0.01181 0.21855
#
# Static dielectric constant tensor:
#      x y z
#    x 1.846510 0.000000 0.000000 
#    y 0.000000 1.802320 0.000000 
#    z 0.000000 0.000000 1.799890 
# 
# From -- ./inp_files/20384.got.cif
#   From: 2010.05.17/outbox.cif.g08.bks.cpg/sg60_11_cif.got.tgz:20384.got - 2010.06.03 14:59:27.
