data_PCOD9456924
_publ_section_title
;
Structure prediction by ZEFSAII (Michael W. Deem and Ramdas Pophale) SiO2 
 PCOD9456924
Probable space group: P B C N
;
_chemical_formula_sum "Si O2"
_cell_formula_units_Z 56
_cell_length_a 11.149606
_cell_length_b 18.166807
_cell_length_c 10.862166
_cell_angle_alpha 90.000000
_cell_angle_beta 90.000000
_cell_angle_gamma 90.000000
_cell_volume 2200.161489
_symmetry_space_group_name_H-M "P B C N"
_symmetry_group_IT_number 60
_symmetry_cell_setting 'orthorhombic'
loop_
_space_group_symop_operation_xyz
x,y,z
1/2-x,1/2-y,1/2+z
1/2+x,1/2-y,-z
-x,y,1/2-z
-x,-y,-z
1/2+x,1/2+y,1/2-z
1/2-x,1/2+y,z
x,-y,1/2+z
loop_
_atom_site_type_symbol
_atom_site_label
_atom_site_fract_x
_atom_site_fract_y
_atom_site_fract_z
Si Si1 0.915286 0.871514 0.630346
Si Si2 0.164473 0.565291 0.309247
Si Si3 0.372687 0.392346 0.449413
Si Si4 0.745570 0.638320 0.784607
Si Si5 0.162235 0.706608 0.928851
Si Si6 0.314441 0.990222 0.056170
Si Si7 0.108626 0.717176 0.187923
O O1 0.807234 0.926598 0.662670
O O2 0.731178 0.910012 0.401874
O O3 0.863037 0.790007 0.606569
O O4 0.998555 0.891374 0.512781
O O5 0.114390 0.526109 0.430736
O O6 0.129421 0.648643 0.276871
O O7 0.137018 0.521402 0.184985
O O8 0.500000 0.631404 0.250000
O O9 0.354255 0.401083 0.302740
O O10 0.289753 0.451815 0.519019
O O11 0.853579 0.652118 0.686938
O O12 0.709878 0.721152 0.819362
O O13 0.300429 0.685666 0.965617
O O14 0.087165 0.689254 0.050219
O O15 0.000000 0.759625 0.250000
#
# Coordination Sequence:
#
# PCOD9456924 Si02
#       7
#     8   8   8   8   8   8   8
#     4  12  22  40  69 106 143 189 233 293 365 419
#     4  12  24  47  70 101 144 186 238 299 356 430
#     4  10  22  41  64 100 143 177 235 286 350 433
#     4  10  23  42  69  98 139 185 227 290 354 421
#     4  10  22  42  65 100 142 178 243 293 335 429
#     4  12  23  45  73  99 144 189 226 292 376 424
#     4  12  24  46  71 101 138 188 238 299 355 418
#
# _framework density 25.452677000000001
#
# number of rings (size 3 to 8) (size 9 to 14) (size 15 to 20)
#    0.857    0.000    5.714    1.714    0.000    0.571 
#    7.714    0.714    0.000    0.000    0.000    0.000 
#    0.000    0.000    0.000    0.000    0.000    0.000 
#
# Total GULP energy -312872.329447 kJ/mol
# GULP energy per Si atom -5587.005883 kJ/mol
# Density = 2.539475 g / cm^3
# Si number density = 25.452677 Si / 1000 Ang^3
#
#
#
# Elastic Constant Matrix: (Units=GPa)
#
#
# Indices 1 2 3 4 5 6 
#
# 1 63.4038 16.1591 44.2821 0.0000 0.0000 0.0000
# 2 16.1591 110.9663 57.0381 0.0000 0.0000 0.0000
# 3 44.2821 57.0381 182.9052 0.0000 0.0000 0.0000
# 4 0.0000 0.0000 0.0000 57.1083 0.0000 0.0000
# 5 0.0000 0.0000 0.0000 0.0000 32.0385 0.0000
# 6 0.0000 0.0000 0.0000 0.0000 0.0000 5.9601
#
#
#
# Elastic Compliance Matrix: (Units=1/GPa)
#
#
# Indices 1 2 3 4 5 6 
#
# 1 0.019003 -0.000479 -0.004451 0.000000 0.000000 0.000000
# 2 -0.000479 0.010744 -0.003234 0.000000 0.000000 0.000000
# 3 -0.004451 -0.003234 0.007554 0.000000 0.000000 0.000000
# 4 0.000000 0.000000 0.000000 0.017511 0.000000 0.000000
# 5 0.000000 0.000000 0.000000 0.000000 0.031212 0.000000
# 6 0.000000 0.000000 0.000000 0.000000 0.000000 0.167783
#
#
# Mechanical properties :
#
#
# Convention : Reuss Voigt Hill
#
# Bulk Modulus (GPa) = 47.68557 65.80376 56.74467
# Shear Modulus (GPa) = 18.04228 35.00777 26.52502
#
# Velocity S-wave (km/s) = 2.66532 3.71267 3.23171
# Velocity P-wave (km/s) = 5.31485 6.65493 6.02228
#
# Compressibility (1/GPa) = 0.02097070
#
# Stress axis : x y z
#
# Youngs Moduli (GPa) = 52.62369 93.07437 132.38682
#
# Poissons Ratio (x) = 0.04461 0.58928
# Poissons Ratio (y) = 0.02522 0.42820
# Poissons Ratio (z) = 0.23424 0.30105
#
# Static dielectric constant tensor:
#      x y z
#    x 2.066240 0.000000 0.000000 
#    y 0.000000 2.005450 0.000000 
#    z 0.000000 0.000000 2.076530 
# 
# From -- ./inp_files/6140.got.cif
#   From: 2010.05.17/outbox.cif.g08.bks.cpg/sg60_4_cif.got.tgz:6140.got - 2010.06.03 14:59:27.
