data_PCOD9456259
_publ_section_title
;
Structure prediction by ZEFSAII (Michael W. Deem and Ramdas Pophale) SiO2 
 PCOD9456259
Probable space group: P B C N
;
_chemical_formula_sum "Si O2"
_cell_formula_units_Z 56
_cell_length_a 19.723064
_cell_length_b 4.998011
_cell_length_c 22.670486
_cell_angle_alpha 90.000000
_cell_angle_beta 90.000000
_cell_angle_gamma 90.000000
_cell_volume 2234.767887
_symmetry_space_group_name_H-M "P B C N"
_symmetry_group_IT_number 60
_symmetry_cell_setting 'orthorhombic'
loop_
_space_group_symop_operation_xyz
x,y,z
1/2-x,1/2-y,1/2+z
1/2+x,1/2-y,-z
-x,y,1/2-z
-x,-y,-z
1/2+x,1/2+y,1/2-z
1/2-x,1/2+y,z
x,-y,1/2+z
loop_
_atom_site_type_symbol
_atom_site_label
_atom_site_fract_x
_atom_site_fract_y
_atom_site_fract_z
Si Si1 0.345833 0.867585 0.401207
Si Si2 0.019251 0.911261 0.872010
Si Si3 0.383788 0.208221 0.302990
Si Si4 0.000000 0.364339 0.250000
Si Si5 0.703346 0.440524 0.779453
Si Si6 0.791400 0.927154 0.404640
Si Si7 0.500000 0.500000 0.000000
Si Si8 0.154043 0.874506 0.471546
O O1 0.332575 0.018853 0.339998
O O2 0.330098 0.073011 0.453564
O O3 0.426982 0.811496 0.395843
O O4 0.319372 0.577422 0.420372
O O5 0.989381 0.801136 0.810428
O O6 0.065479 0.154882 0.849465
O O7 0.974922 0.977253 0.928950
O O8 0.432428 0.039250 0.260438
O O9 0.346657 0.449215 0.269902
O O10 0.731707 0.141795 0.776118
O O11 0.671762 0.490560 0.844259
O O12 0.776587 0.612338 0.401408
O O13 0.819632 0.017529 0.466851
O O14 0.572978 0.394955 0.023075
#
# Coordination Sequence:
#
# PCOD9456259 Si02
#       8
#     8   8   8   4   8   8   4   8
#     4  10  21  40  63  93 132 169 214 274 318 406
#     4  10  22  42  65  97 142 179 228 277 345 417
#     4  11  22  45  67  96 141 177 228 288 344 417
#     4  10  24  38  68 106 136 178 232 294 344 422
#     4  10  25  45  70  97 130 175 228 286 345 404
#     4  10  22  45  65  93 129 168 223 282 335 403
#     4  10  22  42  66  98 142 180 222 274 348 412
#     4  11  22  40  66  94 129 176 215 272 336 400
#
# _framework density 25.058530999999999
#
# number of rings (size 3 to 8) (size 9 to 14) (size 15 to 20)
#    0.000    1.714    2.857    1.286    4.000    4.571 
#    7.714    4.286    0.000    0.000    0.000    0.000 
#    0.000    0.000    0.000    0.000    0.000    0.000 
#
# Total GULP energy -311971.961847 kJ/mol
# GULP energy per Si atom -5570.927890 kJ/mol
# Density = 2.500150 g / cm^3
# Si number density = 25.058531 Si / 1000 Ang^3
#
#
#
# Elastic Constant Matrix: (Units=GPa)
#
#
# Indices 1 2 3 4 5 6 
#
# 1 42.6778 -12.3865 7.9000 0.0000 0.0000 0.0000
# 2 -12.3865 86.5194 12.1571 0.0000 0.0000 0.0000
# 3 7.9000 12.1571 171.4707 0.0000 0.0000 0.0000
# 4 0.0000 0.0000 0.0000 25.1560 0.0000 0.0000
# 5 0.0000 0.0000 0.0000 0.0000 54.6577 0.0000
# 6 0.0000 0.0000 0.0000 0.0000 0.0000 20.1267
#
#
#
# Elastic Compliance Matrix: (Units=1/GPa)
#
#
# Indices 1 2 3 4 5 6 
#
# 1 0.024779 0.003745 -0.001407 0.000000 0.000000 0.000000
# 2 0.003745 0.012240 -0.001040 0.000000 0.000000 0.000000
# 3 -0.001407 -0.001040 0.005970 0.000000 0.000000 0.000000
# 4 0.000000 0.000000 0.000000 0.039752 0.000000 0.000000
# 5 0.000000 0.000000 0.000000 0.000000 0.018296 0.000000
# 6 0.000000 0.000000 0.000000 0.000000 0.000000 0.049685
#
#
# Mechanical properties :
#
#
# Convention : Reuss Voigt Hill
#
# Bulk Modulus (GPa) = 21.93701 35.11213 28.52457
# Shear Modulus (GPa) = 30.61428 39.52123 35.06776
#
# Velocity S-wave (km/s) = 3.49909 3.97565 3.74496
# Velocity P-wave (km/s) = 5.00981 5.92595 5.48703
#
# Compressibility (1/GPa) = 0.04558507
#
# Stress axis : x y z
#
# Youngs Moduli (GPa) = 40.35706 81.69623 167.49041
#
# Poissons Ratio (x) = -0.30597 0.23568
# Poissons Ratio (y) = -0.15114 0.17425
# Poissons Ratio (z) = 0.05679 0.08500
#
# Static dielectric constant tensor:
#      x y z
#    x 2.011940 0.000000 0.000000 
#    y 0.000000 1.987170 0.000000 
#    z 0.000000 0.000000 2.019970 
# 
# From -- ./inp_files/23298.got.cif
#   From: 2010.05.17/outbox.cif.g08.bks.cpg/sg60_12_cif.got.tgz:23298.got - 2010.06.03 14:59:27.
