data_PCOD9456078
_publ_section_title
;
Structure prediction by ZEFSAII (Michael W. Deem and Ramdas Pophale) SiO2 
 PCOD9456078
Probable space group: P B C N
;
_chemical_formula_sum "Si O2"
_cell_formula_units_Z 64
_cell_length_a 20.365859
_cell_length_b 7.979167
_cell_length_c 17.883970
_cell_angle_alpha 90.000000
_cell_angle_beta 90.000000
_cell_angle_gamma 90.000000
_cell_volume 2906.191446
_symmetry_space_group_name_H-M "P B C N"
_symmetry_group_IT_number 60
_symmetry_cell_setting 'orthorhombic'
loop_
_space_group_symop_operation_xyz
x,y,z
1/2-x,1/2-y,1/2+z
1/2+x,1/2-y,-z
-x,y,1/2-z
-x,-y,-z
1/2+x,1/2+y,1/2-z
1/2-x,1/2+y,z
x,-y,1/2+z
loop_
_atom_site_type_symbol
_atom_site_label
_atom_site_fract_x
_atom_site_fract_y
_atom_site_fract_z
Si Si1 0.372261 0.332960 0.800733
Si Si2 0.036276 0.986135 0.907792
Si Si3 0.167724 0.023500 0.986866
Si Si4 0.257366 0.818954 0.903882
Si Si5 0.396388 0.423340 0.638424
Si Si6 0.068378 0.714158 0.202837
Si Si7 0.622294 0.026608 0.162716
Si Si8 0.994638 0.365546 0.565867
O O1 0.420794 0.480399 0.830238
O O2 0.301503 0.322208 0.841891
O O3 0.370846 0.329963 0.711701
O O4 0.404272 0.159178 0.826057
O O5 0.097921 0.944280 0.960846
O O6 0.008792 0.162046 0.941310
O O7 0.970723 0.880931 0.889428
O O8 0.196182 0.163251 0.928770
O O9 0.221109 0.877605 0.979441
O O10 0.152501 0.090797 0.068826
O O11 0.306223 0.959084 0.871797
O O12 0.404168 0.613986 0.669056
O O13 0.117484 0.625404 0.259617
O O14 0.000000 0.736926 0.250000
O O15 0.048640 0.604486 0.130439
O O16 0.575534 0.107996 0.102634
O O17 0.000000 0.500000 0.500000
#
# Coordination Sequence:
#
# PCOD9456078 Si02
#       8
#     8   8   8   8   8   8   8   8
#     4  11  24  41  71  99 130 187 231 283 338 427
#     4  10  22  43  70  98 141 177 225 285 355 422
#     4  11  24  45  69  94 137 179 227 284 353 415
#     4  11  24  47  65  91 129 186 229 269 346 425
#     4  11  23  42  67 106 132 170 230 293 348 401
#     4   9  21  40  65  97 136 177 219 284 350 412
#     4  11  22  42  65  90 131 178 232 275 336 415
#     4  10  21  38  64  99 138 179 216 285 353 405
#
# _framework density 22.021948999999999
#
# number of rings (size 3 to 8) (size 9 to 14) (size 15 to 20)
#    0.000    1.500    2.500    3.000    1.750    9.000 
#    4.500    0.000    0.000    0.000    0.000    0.000 
#    0.000    0.000    0.000    0.000    0.000    0.000 
#
# Total GULP energy -356446.773836 kJ/mol
# GULP energy per Si atom -5569.480841 kJ/mol
# Density = 2.197183 g / cm^3
# Si number density = 22.021949 Si / 1000 Ang^3
#
#
#
# Elastic Constant Matrix: (Units=GPa)
#
#
# Indices 1 2 3 4 5 6 
#
# 1 106.7188 26.2346 52.8918 0.0000 0.0000 0.0000
# 2 26.2346 56.0979 10.5164 0.0000 0.0000 0.0000
# 3 52.8918 10.5164 104.8839 0.0000 0.0000 0.0000
# 4 0.0000 0.0000 0.0000 29.8197 0.0000 0.0000
# 5 0.0000 0.0000 0.0000 0.0000 31.7941 0.0000
# 6 0.0000 0.0000 0.0000 0.0000 0.0000 23.4149
#
#
#
# Elastic Compliance Matrix: (Units=1/GPa)
#
#
# Indices 1 2 3 4 5 6 
#
# 1 0.013872 -0.005275 -0.006467 0.000000 0.000000 0.000000
# 2 -0.005275 0.020173 0.000637 0.000000 0.000000 0.000000
# 3 -0.006467 0.000637 0.012732 0.000000 0.000000 0.000000
# 4 0.000000 0.000000 0.000000 0.033535 0.000000 0.000000
# 5 0.000000 0.000000 0.000000 0.000000 0.031452 0.000000
# 6 0.000000 0.000000 0.000000 0.000000 0.000000 0.042708
#
#
# Mechanical properties :
#
#
# Convention : Reuss Voigt Hill
#
# Bulk Modulus (GPa) = 40.70262 49.66511 45.18386
# Shear Modulus (GPa) = 27.04597 28.87627 27.96112
#
# Velocity S-wave (km/s) = 3.50828 3.62505 3.56714
# Velocity P-wave (km/s) = 5.91046 6.33425 6.12603
#
# Compressibility (1/GPa) = 0.02456845
#
# Stress axis : x y z
#
# Youngs Moduli (GPa) = 72.08654 49.57011 78.54531
#
# Poissons Ratio (x) = 0.26149 0.50793
# Poissons Ratio (y) = 0.38027 -0.05007
# Poissons Ratio (z) = 0.46616 -0.03160
#
# Static dielectric constant tensor:
#      x y z
#    x 1.798890 0.000000 0.000000 
#    y 0.000000 2.083000 0.000000 
#    z 0.000000 0.000000 1.864380 
# 
# From -- ./inp_files/21071.got.cif
#   From: 2010.05.17/outbox.cif.g08.bks.cpg/sg60_11_cif.got.tgz:21071.got - 2010.06.03 14:59:27.
