data_PCOD9456627
_publ_section_title
;
Structure prediction by ZEFSAII (Michael W. Deem and Ramdas Pophale) SiO2 
 PCOD9456627
Probable space group: P B C N
;
_chemical_formula_sum "Si O2"
_cell_formula_units_Z 52
_cell_length_a 8.683140
_cell_length_b 23.885729
_cell_length_c 11.947514
_cell_angle_alpha 90.000000
_cell_angle_beta 90.000000
_cell_angle_gamma 90.000000
_cell_volume 2477.951786
_symmetry_space_group_name_H-M "P B C N"
_symmetry_group_IT_number 60
_symmetry_cell_setting 'orthorhombic'
loop_
_space_group_symop_operation_xyz
x,y,z
1/2-x,1/2-y,1/2+z
1/2+x,1/2-y,-z
-x,y,1/2-z
-x,-y,-z
1/2+x,1/2+y,1/2-z
1/2-x,1/2+y,z
x,-y,1/2+z
loop_
_atom_site_type_symbol
_atom_site_label
_atom_site_fract_x
_atom_site_fract_y
_atom_site_fract_z
Si Si1 0.945356 0.802202 0.124466
Si Si2 0.241729 0.013555 0.522735
Si Si3 0.585020 0.108895 0.077171
Si Si4 0.223752 0.411245 0.677106
Si Si5 0.500000 0.342058 0.750000
Si Si6 0.446159 0.565370 0.875496
Si Si7 0.702164 0.287276 0.559590
O O1 0.000000 0.787656 0.250000
O O2 0.914757 0.868674 0.120027
O O3 0.795683 0.768368 0.086736
O O4 0.083842 0.785651 0.041983
O O5 0.381408 0.055437 0.499959
O O6 0.091725 0.051776 0.545087
O O7 0.265932 0.973374 0.628479
O O8 0.193565 0.972473 0.420907
O O9 0.406298 0.118675 0.102095
O O10 0.663519 0.092086 0.195976
O O11 0.672775 0.163827 0.036636
O O12 0.388082 0.381204 0.676231
O O13 0.605885 0.305723 0.668890
O O14 0.500000 0.550848 0.750000
#
# Coordination Sequence:
#
# PCOD9456627 Si02
#       7
#     8   8   8   8   4   8   8
#     4  11  26  45  68 100 134 183 224 284 344 406
#     4  11  20  36  67  93 131 174 209 268 327 399
#     4  10  22  41  61 101 128 174 214 280 328 398
#     4  10  22  36  64  96 134 163 226 267 334 395
#     4  10  24  42  70 102 124 180 232 280 336 408
#     4  10  22  38  61  96 134 167 215 260 330 401
#     4  11  25  44  71  92 139 169 235 280 336 409
#
# _framework density 20.985073
#
# number of rings (size 3 to 8) (size 9 to 14) (size 15 to 20)
#    0.000    1.538    1.538    2.308   14.000    1.231 
#    0.000    0.000    0.000    0.000    0.000    0.000 
#    0.000    0.000    0.000    0.000    0.000    0.000 
#
# Total GULP energy -290861.696408 kJ/mol
# GULP energy per Si atom -5593.494162 kJ/mol
# Density = 2.093731 g / cm^3
# Si number density = 20.985073 Si / 1000 Ang^3
#
#
#
# Elastic Constant Matrix: (Units=GPa)
#
#
# Indices 1 2 3 4 5 6 
#
# 1 97.8967 36.2791 16.2804 0.0000 0.0000 0.0000
# 2 36.2791 81.3978 34.6908 0.0000 0.0000 0.0000
# 3 16.2804 34.6908 78.4057 0.0000 0.0000 0.0000
# 4 0.0000 0.0000 0.0000 3.8992 0.0000 0.0000
# 5 0.0000 0.0000 0.0000 0.0000 20.2249 0.0000
# 6 0.0000 0.0000 0.0000 0.0000 0.0000 41.3072
#
#
#
# Elastic Compliance Matrix: (Units=1/GPa)
#
#
# Indices 1 2 3 4 5 6 
#
# 1 0.012237 -0.005387 -0.000157 0.000000 0.000000 0.000000
# 2 -0.005387 0.017512 -0.006630 0.000000 0.000000 0.000000
# 3 -0.000157 -0.006630 0.015720 0.000000 0.000000 0.000000
# 4 0.000000 0.000000 0.000000 0.256464 0.000000 0.000000
# 5 0.000000 0.000000 0.000000 0.000000 0.049444 0.000000
# 6 0.000000 0.000000 0.000000 0.000000 0.000000 0.024209
#
#
# Mechanical properties :
#
#
# Convention : Reuss Voigt Hill
#
# Bulk Modulus (GPa) = 47.34604 48.02232 47.68418
# Shear Modulus (GPa) = 12.28577 24.44958 18.36768
#
# Velocity S-wave (km/s) = 2.42224 3.41705 2.96171
# Velocity P-wave (km/s) = 5.51668 6.20500 5.87094
#
# Compressibility (1/GPa) = 0.02112109
#
# Stress axis : x y z
#
# Youngs Moduli (GPa) = 81.71651 57.10425 63.61265
#
# Poissons Ratio (x) = 0.30763 0.01002
# Poissons Ratio (y) = 0.44022 0.42172
# Poissons Ratio (z) = 0.01287 0.37858
#
# Static dielectric constant tensor:
#      x y z
#    x 1.786760 0.000000 0.000000 
#    y 0.000000 1.745380 0.000000 
#    z 0.000000 0.000000 1.756620 
# 
# From -- ./inp_files/10243.got.cif
#   From: 2010.05.17/outbox.cif.g08.bks.cpg/sg60_6_cif.got.tgz:10243.got - 2010.06.03 14:59:27.
