data_PCOD9456284
_publ_section_title
;
Structure prediction by ZEFSAII (Michael W. Deem and Ramdas Pophale) SiO2 
 PCOD9456284
Probable space group: P B C N
;
_chemical_formula_sum "Si O2"
_cell_formula_units_Z 56
_cell_length_a 9.440266
_cell_length_b 13.874261
_cell_length_c 18.748028
_cell_angle_alpha 90.000000
_cell_angle_beta 90.000000
_cell_angle_gamma 90.000000
_cell_volume 2455.555109
_symmetry_space_group_name_H-M "P B C N"
_symmetry_group_IT_number 60
_symmetry_cell_setting 'orthorhombic'
loop_
_space_group_symop_operation_xyz
x,y,z
1/2-x,1/2-y,1/2+z
1/2+x,1/2-y,-z
-x,y,1/2-z
-x,-y,-z
1/2+x,1/2+y,1/2-z
1/2-x,1/2+y,z
x,-y,1/2+z
loop_
_atom_site_type_symbol
_atom_site_label
_atom_site_fract_x
_atom_site_fract_y
_atom_site_fract_z
Si Si1 0.378925 0.592989 0.414172
Si Si2 0.166103 0.175664 0.262372
Si Si3 0.189321 0.034023 0.132260
Si Si4 0.107297 0.518249 0.933154
Si Si5 0.047140 0.645949 0.097538
Si Si6 0.992051 0.283147 0.449984
Si Si7 0.271187 0.308073 0.154612
O O1 0.316598 0.641576 0.342444
O O2 0.528402 0.544720 0.393909
O O3 0.265883 0.518706 0.444926
O O4 0.421747 0.685037 0.460638
O O5 0.207408 0.090370 0.207463
O O6 0.236229 0.273812 0.234754
O O7 0.000000 0.190104 0.250000
O O8 0.300658 0.092917 0.083059
O O9 0.218701 0.921319 0.141778
O O10 0.088895 0.630802 0.917761
O O11 0.040362 0.445860 0.873568
O O12 0.000000 0.500000 0.000000
O O13 0.091285 0.743178 0.137156
O O14 0.957278 0.682244 0.029600
O O15 0.858284 0.273849 0.397561
#
# Coordination Sequence:
#
# PCOD9456284 Si02
#       7
#     8   8   8   8   8   8   8
#     4  11  23  42  65  95 128 170 221 271 331 398
#     4   9  19  41  64  92 127 167 220 272 324 400
#     4  10  21  40  65  93 129 168 219 276 330 390
#     4  10  24  42  60  93 134 162 214 271 322 402
#     4  10  22  38  61  93 129 166 216 273 313 398
#     4  11  22  37  66  87 127 176 208 260 334 390
#     4  11  21  41  67  92 127 176 212 271 339 384
#
# _framework density 22.805433000000001
#
# number of rings (size 3 to 8) (size 9 to 14) (size 15 to 20)
#    0.000    1.714    5.714    0.000    4.000    2.286 
#    2.571    9.286    0.000    0.000    0.000    0.000 
#    0.000    0.000    0.000    0.000    0.000    0.000 
#
# Total GULP energy -312141.284174 kJ/mol
# GULP energy per Si atom -5573.951503 kJ/mol
# Density = 2.275353 g / cm^3
# Si number density = 22.805433 Si / 1000 Ang^3
#
#
#
# Elastic Constant Matrix: (Units=GPa)
#
#
# Indices 1 2 3 4 5 6 
#
# 1 53.7138 17.6634 -13.0582 0.0000 0.0000 0.0000
# 2 17.6634 126.2521 -21.5584 0.0000 0.0000 0.0000
# 3 -13.0582 -21.5584 34.1697 0.0000 0.0000 0.0000
# 4 0.0000 0.0000 0.0000 11.3612 0.0000 0.0000
# 5 0.0000 0.0000 0.0000 0.0000 21.8807 0.0000
# 6 0.0000 0.0000 0.0000 0.0000 0.0000 31.4366
#
#
#
# Elastic Compliance Matrix: (Units=1/GPa)
#
#
# Indices 1 2 3 4 5 6 
#
# 1 0.020862 -0.001745 0.006871 0.000000 0.000000 0.000000
# 2 -0.001745 0.009023 0.005026 0.000000 0.000000 0.000000
# 3 0.006871 0.005026 0.035063 0.000000 0.000000 0.000000
# 4 0.000000 0.000000 0.000000 0.088018 0.000000 0.000000
# 5 0.000000 0.000000 0.000000 0.000000 0.045702 0.000000
# 6 0.000000 0.000000 0.000000 0.000000 0.000000 0.031810
#
#
# Mechanical properties :
#
#
# Convention : Reuss Voigt Hill
#
# Bulk Modulus (GPa) = 11.73012 20.02547 15.87780
# Shear Modulus (GPa) = 20.95633 28.34164 24.64898
#
# Velocity S-wave (km/s) = 3.03466 3.52910 3.29118
# Velocity P-wave (km/s) = 4.17535 5.04045 4.62816
#
# Compressibility (1/GPa) = 0.08525059
#
# Stress axis : x y z
#
# Youngs Moduli (GPa) = 47.93497 110.82739 28.52049
#
# Poissons Ratio (x) = 0.19343 -0.19597
# Poissons Ratio (y) = 0.08366 -0.14334
# Poissons Ratio (z) = -0.32937 -0.55700
#
# Static dielectric constant tensor:
#      x y z
#    x 1.891030 0.000000 0.000000 
#    y 0.000000 1.919030 0.000000 
#    z 0.000000 0.000000 1.977260 
# 
# From -- ./inp_files/22196.got.cif
#   From: 2010.05.17/outbox.cif.g08.bks.cpg/sg60_12_cif.got.tgz:22196.got - 2010.06.03 14:59:27.
