data_PCOD9456024
_publ_section_title
;
Structure prediction by ZEFSAII (Michael W. Deem and Ramdas Pophale) SiO2 
 PCOD9456024
Probable space group: P B C N
;
_chemical_formula_sum "Si O2"
_cell_formula_units_Z 64
_cell_length_a 8.297134
_cell_length_b 18.133310
_cell_length_c 20.221866
_cell_angle_alpha 90.000000
_cell_angle_beta 90.000000
_cell_angle_gamma 90.000000
_cell_volume 3042.470797
_symmetry_space_group_name_H-M "P B C N"
_symmetry_group_IT_number 60
_symmetry_cell_setting 'orthorhombic'
loop_
_space_group_symop_operation_xyz
x,y,z
1/2-x,1/2-y,1/2+z
1/2+x,1/2-y,-z
-x,y,1/2-z
-x,-y,-z
1/2+x,1/2+y,1/2-z
1/2-x,1/2+y,z
x,-y,1/2+z
loop_
_atom_site_type_symbol
_atom_site_label
_atom_site_fract_x
_atom_site_fract_y
_atom_site_fract_z
Si Si1 0.709899 0.920338 0.018925
Si Si2 0.160247 0.336092 0.349076
Si Si3 0.815572 0.163875 0.154138
Si Si4 0.338405 0.091771 0.473560
Si Si5 0.179624 0.425862 0.723150
Si Si6 0.287417 0.173966 0.606150
Si Si7 0.680396 0.586001 0.774376
Si Si8 0.680056 0.655426 0.395049
O O1 0.529767 0.906797 0.989150
O O2 0.825901 0.891335 0.961900
O O3 0.734027 0.874177 0.085758
O O4 0.717513 0.007180 0.032447
O O5 0.212018 0.251449 0.338605
O O6 0.210463 0.380961 0.284412
O O7 0.968962 0.337440 0.364826
O O8 0.712179 0.133995 0.092483
O O9 0.774677 0.117694 0.219446
O O10 0.004007 0.154587 0.137583
O O11 0.263949 0.129553 0.538586
O O12 0.249344 0.506333 0.707628
O O13 0.195079 0.379365 0.656440
O O14 0.000000 0.433570 0.750000
O O15 0.178159 0.141440 0.663898
O O16 0.270697 0.260320 0.591892
O O17 0.500000 0.575819 0.750000
#
# Coordination Sequence:
#
# PCOD9456024 Si02
#       8
#     8   8   8   8   8   8   8   8
#     4  10  21  38  61  88 119 161 207 246 295 359
#     4  10  22  40  61  88 125 164 199 242 298 356
#     4  11  23  39  61  90 123 158 201 252 299 348
#     4  10  21  38  61  88 119 161 207 246 295 359
#     4  12  25  42  63  85 117 159 201 248 303 362
#     4  10  22  40  61  88 125 164 199 242 298 356
#     4  12  25  40  63  93 121 153 199 250 299 356
#     4  11  23  39  61  90 123 158 201 252 299 348
#
# _framework density 21.035534999999999
#
# number of rings (size 3 to 8) (size 9 to 14) (size 15 to 20)
#    0.000    1.250    0.000    6.000    0.000    8.500 
#    0.000    0.000    0.000    0.000    0.000    0.000 
#    0.000    0.000    0.000    0.000    0.000    0.000 
#
# Total GULP energy -358209.629655 kJ/mol
# GULP energy per Si atom -5597.025463 kJ/mol
# Density = 2.098766 g / cm^3
# Si number density = 21.035535 Si / 1000 Ang^3
#
#
#
# Elastic Constant Matrix: (Units=GPa)
#
#
# Indices 1 2 3 4 5 6 
#
# 1 20.8564 12.2809 -14.3345 0.0000 0.0000 0.0000
# 2 12.2809 64.5155 -12.3312 0.0000 0.0000 0.0000
# 3 -14.3345 -12.3312 58.2777 0.0000 0.0000 0.0000
# 4 0.0000 0.0000 0.0000 27.9251 0.0000 0.0000
# 5 0.0000 0.0000 0.0000 0.0000 22.6715 0.0000
# 6 0.0000 0.0000 0.0000 0.0000 0.0000 12.4364
#
#
#
# Elastic Compliance Matrix: (Units=1/GPa)
#
#
# Indices 1 2 3 4 5 6 
#
# 1 0.062700 -0.009366 0.013440 0.000000 0.000000 0.000000
# 2 -0.009366 0.017553 0.001410 0.000000 0.000000 0.000000
# 3 0.013440 0.001410 0.020763 0.000000 0.000000 0.000000
# 4 0.000000 0.000000 0.000000 0.035810 0.000000 0.000000
# 5 0.000000 0.000000 0.000000 0.000000 0.044108 0.000000
# 6 0.000000 0.000000 0.000000 0.000000 0.000000 0.080409
#
#
# Mechanical properties :
#
#
# Convention : Reuss Voigt Hill
#
# Bulk Modulus (GPa) = 8.92986 12.76447 10.84716
# Shear Modulus (GPa) = 17.37902 23.14221 20.26062
#
# Velocity S-wave (km/s) = 2.87744 3.32045 3.10685
# Velocity P-wave (km/s) = 3.91074 4.55870 4.24710
#
# Compressibility (1/GPa) = 0.11198387
#
# Stress axis : x y z
#
# Youngs Moduli (GPa) = 15.94907 56.97155 48.16146
#
# Poissons Ratio (x) = 0.53362 -0.64730
# Poissons Ratio (y) = 0.14938 -0.06792
# Poissons Ratio (z) = -0.21436 -0.08034
#
# Static dielectric constant tensor:
#      x y z
#    x 1.768790 0.000000 0.000000 
#    y 0.000000 1.708160 0.000000 
#    z 0.000000 0.000000 1.715660 
# 
# From -- ./inp_files/22388.got.cif
#   From: 2010.05.17/outbox.cif.g08.bks.cpg/sg60_12_cif.got.tgz:22388.got - 2010.06.03 14:59:27.
