data_PCOD9456737
_publ_section_title
;
Structure prediction by ZEFSAII (Michael W. Deem and Ramdas Pophale) SiO2 
 PCOD9456737
Probable space group: P B C N
;
_chemical_formula_sum "Si O2"
_cell_formula_units_Z 60
_cell_length_a 28.670850
_cell_length_b 8.819594
_cell_length_c 12.186628
_cell_angle_alpha 90.000000
_cell_angle_beta 90.000000
_cell_angle_gamma 90.000000
_cell_volume 3081.574817
_symmetry_space_group_name_H-M "P B C N"
_symmetry_group_IT_number 60
_symmetry_cell_setting 'orthorhombic'
loop_
_space_group_symop_operation_xyz
x,y,z
1/2-x,1/2-y,1/2+z
1/2+x,1/2-y,-z
-x,y,1/2-z
-x,-y,-z
1/2+x,1/2+y,1/2-z
1/2-x,1/2+y,z
x,-y,1/2+z
loop_
_atom_site_type_symbol
_atom_site_label
_atom_site_fract_x
_atom_site_fract_y
_atom_site_fract_z
Si Si1 0.925505 0.210705 0.623439
Si Si2 0.896142 0.516611 0.731393
Si Si3 0.577354 0.694785 0.360350
Si Si4 0.000000 0.984269 0.250000
Si Si5 0.821633 0.698590 0.600218
Si Si6 0.805269 0.564647 0.366937
Si Si7 0.151995 0.010372 0.276643
Si Si8 0.244944 0.838551 0.219383
O O1 0.923330 0.377624 0.677111
O O2 0.922670 0.213487 0.491433
O O3 0.970514 0.120505 0.667280
O O4 0.881899 0.115590 0.671974
O O5 0.924465 0.642455 0.799463
O O6 0.867063 0.604543 0.637760
O O7 0.855459 0.455969 0.812061
O O8 0.535041 0.590154 0.318819
O O9 0.623719 0.609702 0.313527
O O10 0.810779 0.657407 0.477181
O O11 0.832434 0.872110 0.629119
O O12 0.777927 0.649098 0.674745
O O13 0.770978 0.666140 0.293358
O O14 0.778715 0.403847 0.376063
O O15 0.197129 0.930584 0.227147
#
# Coordination Sequence:
#
# PCOD9456737 Si02
#       8
#     8   8   8   4   8   8   8   8
#     4  11  22  41  71  92 122 161 201 252 315 372
#     4  10  22  42  60  93 124 155 213 246 296 377
#     4  10  23  43  66  91 127 161 192 256 319 364
#     4  10  24  44  66 102 126 146 204 248 304 400
#     4  10  23  38  55  83 125 167 202 256 308 345
#     4  11  23  36  58  82 124 166 206 253 305 343
#     4  10  22  39  58  88 121 158 213 259 293 373
#     4  11  22  38  51  86 122 155 216 256 289 359
#
# _framework density 19.470562999999999
#
# number of rings (size 3 to 8) (size 9 to 14) (size 15 to 20)
#    0.000    1.600    2.667    1.200    3.733    0.533 
#    0.000    5.333    0.000    0.000    0.000    0.000 
#    0.000    0.000    0.000    0.000    0.000    0.000 
#
# Total GULP energy -335034.781487 kJ/mol
# GULP energy per Si atom -5583.913025 kJ/mol
# Density = 1.942625 g / cm^3
# Si number density = 19.470563 Si / 1000 Ang^3
#
#
#
# Elastic Constant Matrix: (Units=GPa)
#
#
# Indices 1 2 3 4 5 6 
#
# 1 77.5167 39.7485 20.4561 0.0000 0.0000 0.0000
# 2 39.7485 114.5023 35.9276 0.0000 0.0000 0.0000
# 3 20.4561 35.9276 77.6906 0.0000 0.0000 0.0000
# 4 0.0000 0.0000 0.0000 12.8786 0.0000 0.0000
# 5 0.0000 0.0000 0.0000 0.0000 12.5749 0.0000
# 6 0.0000 0.0000 0.0000 0.0000 0.0000 -335.3430
#
#
#
# Elastic Compliance Matrix: (Units=1/GPa)
#
#
# Indices 1 2 3 4 5 6 
#
# 1 0.015934 -0.004930 -0.001915 0.000000 0.000000 0.000000
# 2 -0.004930 0.011741 -0.004132 0.000000 0.000000 0.000000
# 3 -0.001915 -0.004132 0.015287 0.000000 0.000000 0.000000
# 4 0.000000 0.000000 0.000000 0.077648 0.000000 0.000000
# 5 0.000000 0.000000 0.000000 0.000000 0.079524 0.000000
# 6 0.000000 0.000000 0.000000 0.000000 0.000000 -0.002982
#
#
# Mechanical properties :
#
#
# Convention : Reuss Voigt Hill
#
# Bulk Modulus (GPa) = 47.60270 51.33046 49.46658
# Shear Modulus (GPa) = 22.11320 -50.40608 -14.14644
#
# Velocity S-wave (km/s) = 3.37371 -5.09358 -2.69839
# Velocity P-wave (km/s) = 6.29901 2.85874 3.96895
#
# Compressibility (1/GPa) = 0.02100721
#
# Stress axis : x y z
#
# Youngs Moduli (GPa) = 62.75853 85.16911 65.41713
#
# Poissons Ratio (x) = 0.41992 0.12530
# Poissons Ratio (y) = 0.30942 0.27027
# Poissons Ratio (z) = 0.12021 0.35188
#
# Static dielectric constant tensor:
#      x y z
#    x 1.660480 0.000000 0.000000 
#    y 0.000000 1.711190 0.000000 
#    z 0.000000 0.000000 1.655830 
# 
# From -- ./inp_files/13303.got.cif
#   From: 2010.05.17/outbox.cif.g08.bks.cpg/sg60_7_cif.got.tgz:13303.got - 2010.06.03 14:59:27.
