data_PCOD9456423
_publ_section_title
;
Structure prediction by ZEFSAII (Michael W. Deem and Ramdas Pophale) SiO2 
 PCOD9456423
Probable space group: P B C N
;
_chemical_formula_sum "Si O2"
_cell_formula_units_Z 48
_cell_length_a 29.725343
_cell_length_b 9.744873
_cell_length_c 8.464505
_cell_angle_alpha 90.000000
_cell_angle_beta 90.000000
_cell_angle_gamma 90.000000
_cell_volume 2451.910560
_symmetry_space_group_name_H-M "P B C N"
_symmetry_group_IT_number 60
_symmetry_cell_setting 'orthorhombic'
loop_
_space_group_symop_operation_xyz
x,y,z
1/2-x,1/2-y,1/2+z
1/2+x,1/2-y,-z
-x,y,1/2-z
-x,-y,-z
1/2+x,1/2+y,1/2-z
1/2-x,1/2+y,z
x,-y,1/2+z
loop_
_atom_site_type_symbol
_atom_site_label
_atom_site_fract_x
_atom_site_fract_y
_atom_site_fract_z
Si Si1 0.207335 0.141923 0.944255
Si Si2 0.458361 0.096990 0.868806
Si Si3 0.714035 0.665194 0.177046
Si Si4 0.970114 0.288861 0.607378
Si Si5 0.109954 0.116611 0.802180
Si Si6 0.116005 0.187840 0.427657
O O1 0.243489 0.243454 0.868439
O O2 0.157759 0.165179 0.871883
O O3 0.219643 0.986824 0.894515
O O4 0.207441 0.155633 0.133995
O O5 0.500000 0.084875 0.750000
O O6 0.415355 0.193488 0.854003
O O7 0.445282 0.937758 0.885771
O O8 0.487448 0.172809 0.000631
O O9 0.668355 0.722882 0.097920
O O10 0.930116 0.181634 0.593409
O O11 0.000000 0.233851 0.750000
O O12 0.107032 0.159123 0.615820
O O13 0.108268 0.953140 0.830594
#
# Coordination Sequence:
#
# PCOD9456423 Si02
#       6
#     8   8   8   8   8   8
#     4  11  23  42  65  92 122 161 197 254 299 367
#     4  10  23  38  62  83 121 157 205 246 302 352
#     4  11  23  42  65  91 125 156 204 245 308 357
#     4  10  21  42  58  86 118 160 198 252 295 354
#     4  11  23  39  62  87 124 154 203 245 303 354
#     4  11  23  40  59  91 119 160 198 251 296 362
#
# _framework density 19.576571000000001
#
# number of rings (size 3 to 8) (size 9 to 14) (size 15 to 20)
#    0.000    1.333    1.667    6.000    4.667    2.667 
#    0.000    3.333    0.000    0.000    0.000    0.000 
#    0.000    0.000    0.000    0.000    0.000    0.000 
#
# Total GULP energy -267216.352857 kJ/mol
# GULP energy per Si atom -5567.007351 kJ/mol
# Density = 1.953201 g / cm^3
# Si number density = 19.576571 Si / 1000 Ang^3
#
#
#
# Elastic Constant Matrix: (Units=GPa)
#
#
# Indices 1 2 3 4 5 6 
#
# 1 120.4298 69.6443 -10.7973 0.0000 0.0000 0.0000
# 2 69.6443 53.9731 -10.8597 0.0000 0.0000 0.0000
# 3 -10.7973 -10.8597 46.5180 0.0000 0.0000 0.0000
# 4 0.0000 0.0000 0.0000 23.3091 0.0000 0.0000
# 5 0.0000 0.0000 0.0000 0.0000 33.7877 0.0000
# 6 0.0000 0.0000 0.0000 0.0000 0.0000 42.7014
#
#
#
# Elastic Compliance Matrix: (Units=1/GPa)
#
#
# Indices 1 2 3 4 5 6 
#
# 1 0.032970 -0.043024 -0.002391 0.000000 0.000000 0.000000
# 2 -0.043024 0.075584 0.007659 0.000000 0.000000 0.000000
# 3 -0.002391 0.007659 0.022730 0.000000 0.000000 0.000000
# 4 0.000000 0.000000 0.000000 0.042902 0.000000 0.000000
# 5 0.000000 0.000000 0.000000 0.000000 0.029597 0.000000
# 6 0.000000 0.000000 0.000000 0.000000 0.000000 0.023418
#
#
# Mechanical properties :
#
#
# Convention : Reuss Voigt Hill
#
# Bulk Modulus (GPa) = 17.93009 35.21062 26.57036
# Shear Modulus (GPa) = 15.56164 31.48853 23.52509
#
# Velocity S-wave (km/s) = 2.82248 4.01494 3.47031
# Velocity P-wave (km/s) = 4.44979 6.28634 5.44604
#
# Compressibility (1/GPa) = 0.05577216
#
# Stress axis : x y z
#
# Youngs Moduli (GPa) = 30.33096 13.23028 43.99475
#
# Poissons Ratio (x) = 0.56921 0.10520
# Poissons Ratio (y) = 1.30494 -0.33695
# Poissons Ratio (z) = 0.07253 -0.10133
#
# Static dielectric constant tensor:
#      x y z
#    x 1.700450 0.000000 0.000000 
#    y 0.000000 1.613720 0.000000 
#    z 0.000000 0.000000 1.754990 
# 
# From -- ./inp_files/8380.got.cif
#   From: 2010.05.17/outbox.cif.g08.bks.cpg/sg60_5_cif.got.tgz:8380.got - 2010.06.03 14:59:27.
