data_PCOD9456311
_publ_section_title
;
Structure prediction by ZEFSAII (Michael W. Deem and Ramdas Pophale) SiO2 
 PCOD9456311
Probable space group: P B C N
;
_chemical_formula_sum "Si O2"
_cell_formula_units_Z 40
_cell_length_a 8.720774
_cell_length_b 11.573127
_cell_length_c 16.819243
_cell_angle_alpha 90.000000
_cell_angle_beta 90.000000
_cell_angle_gamma 90.000000
_cell_volume 1697.509432
_symmetry_space_group_name_H-M "P B C N"
_symmetry_group_IT_number 60
_symmetry_cell_setting 'orthorhombic'
loop_
_space_group_symop_operation_xyz
x,y,z
1/2-x,1/2-y,1/2+z
1/2+x,1/2-y,-z
-x,y,1/2-z
-x,-y,-z
1/2+x,1/2+y,1/2-z
1/2-x,1/2+y,z
x,-y,1/2+z
loop_
_atom_site_type_symbol
_atom_site_label
_atom_site_fract_x
_atom_site_fract_y
_atom_site_fract_z
Si Si1 0.144175 0.025694 0.795388
Si Si2 0.125911 0.396899 0.689125
Si Si3 0.438070 0.883759 0.370183
Si Si4 0.956529 0.144978 0.072162
Si Si5 0.785327 0.319996 0.979089
O O1 0.222433 0.930186 0.737787
O O2 0.087382 0.962587 0.875035
O O3 0.000000 0.077252 0.750000
O O4 0.282655 0.108959 0.819095
O O5 0.155855 0.323692 0.610696
O O6 0.000000 0.348810 0.750000
O O7 0.052883 0.518539 0.658279
O O8 0.496096 0.753136 0.369390
O O9 0.386583 0.898840 0.462027
O O10 0.110865 0.136691 0.020966
O O11 0.816384 0.194349 0.018679
#
# Coordination Sequence:
#
# PCOD9456311 Si02
#       5
#     8   8   8   8   8
#     4  11  22  43  65  97 133 172 223 276 330 388
#     4  10  21  40  68  93 131 172 214 276 336 382
#     4   9  24  42  67  94 131 173 224 260 343 398
#     4  10  24  42  67  97 132 174 222 269 329 399
#     4  10  22  43  65  96 130 178 217 268 324 405
#
# _framework density 23.563935000000001
#
# number of rings (size 3 to 8) (size 9 to 14) (size 15 to 20)
#    1.200    0.800    2.000    0.600    5.600    3.200 
#    3.600    3.000    0.000    0.000    0.000    0.000 
#    0.000    0.000    0.000    0.000    0.000    0.000 
#
# Total GULP energy -223396.986696 kJ/mol
# GULP energy per Si atom -5584.924667 kJ/mol
# Density = 2.351030 g / cm^3
# Si number density = 23.563935 Si / 1000 Ang^3
#
#
#
# Elastic Constant Matrix: (Units=GPa)
#
#
# Indices 1 2 3 4 5 6 
#
# 1 80.7284 9.4248 30.8997 0.0000 0.0000 0.0000
# 2 9.4248 58.2935 19.3505 0.0000 0.0000 0.0000
# 3 30.8997 19.3505 126.2880 0.0000 0.0000 0.0000
# 4 0.0000 0.0000 0.0000 0.2913 0.0000 0.0000
# 5 0.0000 0.0000 0.0000 0.0000 49.7797 0.0000
# 6 0.0000 0.0000 0.0000 0.0000 0.0000 17.0163
#
#
#
# Elastic Compliance Matrix: (Units=1/GPa)
#
#
# Indices 1 2 3 4 5 6 
#
# 1 0.013742 -0.001165 -0.003184 0.000000 0.000000 0.000000
# 2 -0.001165 0.018173 -0.002499 0.000000 0.000000 0.000000
# 3 -0.003184 -0.002499 0.009080 0.000000 0.000000 0.000000
# 4 0.000000 0.000000 0.000000 3.432538 0.000000 0.000000
# 5 0.000000 0.000000 0.000000 0.000000 0.020088 0.000000
# 6 0.000000 0.000000 0.000000 0.000000 0.000000 0.058767
#
#
# Mechanical properties :
#
#
# Convention : Reuss Voigt Hill
#
# Bulk Modulus (GPa) = 36.63210 42.74000 39.68605
# Shear Modulus (GPa) = 1.39853 27.12647 14.26250
#
# Velocity S-wave (km/s) = 0.77123 3.39659 2.46289
# Velocity P-wave (km/s) = 4.04631 5.79308 4.99662
#
# Compressibility (1/GPa) = 0.02729846
#
# Stress axis : x y z
#
# Youngs Moduli (GPa) = 72.77038 55.02791 110.12738
#
# Poissons Ratio (x) = 0.06410 0.35063
# Poissons Ratio (y) = 0.08477 0.27526
# Poissons Ratio (z) = 0.23169 0.13754
#
# Static dielectric constant tensor:
#      x y z
#    x 1.891720 0.000000 0.000000 
#    y 0.000000 1.878650 0.000000 
#    z 0.000000 0.000000 1.906690 
# 
# From -- ./inp_files/14640.got.cif
#   From: 2010.05.17/outbox.cif.g08.bks.cpg/sg60_8_cif.got.tgz:14640.got - 2010.06.03 14:59:27.
