data_PCOD9456416
_publ_section_title
;
Structure prediction by ZEFSAII (Michael W. Deem and Ramdas Pophale) SiO2 
 PCOD9456416
Probable space group: P B C N
;
_chemical_formula_sum "Si O2"
_cell_formula_units_Z 48
_cell_length_a 7.433319
_cell_length_b 13.785857
_cell_length_c 17.552863
_cell_angle_alpha 90.000000
_cell_angle_beta 90.000000
_cell_angle_gamma 90.000000
_cell_volume 1798.723892
_symmetry_space_group_name_H-M "P B C N"
_symmetry_group_IT_number 60
_symmetry_cell_setting 'orthorhombic'
loop_
_space_group_symop_operation_xyz
x,y,z
1/2-x,1/2-y,1/2+z
1/2+x,1/2-y,-z
-x,y,1/2-z
-x,-y,-z
1/2+x,1/2+y,1/2-z
1/2-x,1/2+y,z
x,-y,1/2+z
loop_
_atom_site_type_symbol
_atom_site_label
_atom_site_fract_x
_atom_site_fract_y
_atom_site_fract_z
Si Si1 0.361078 0.641273 0.088835
Si Si2 0.306430 0.298680 0.989777
Si Si3 0.266020 0.622836 0.717443
Si Si4 0.588244 0.869941 0.125455
Si Si5 0.500000 0.206605 0.250000
Si Si6 0.000000 0.064969 0.250000
Si Si7 0.464924 0.081132 0.396496
O O1 0.517209 0.632760 0.023432
O O2 0.463000 0.628794 0.172150
O O3 0.181189 0.575025 0.091402
O O4 0.260940 0.740905 0.063467
O O5 0.356691 0.211816 0.932424
O O6 0.632710 0.145438 0.040631
O O7 0.187798 0.657490 0.797402
O O8 0.395490 0.712737 0.700041
O O9 0.344065 0.516768 0.737624
O O10 0.113636 0.615528 0.655264
O O11 0.632514 0.977811 0.098638
O O12 0.427907 0.132824 0.314668
#
# Coordination Sequence:
#
# PCOD9456416 Si02
#       7
#     8   8   8   8   4   4   8
#     4  12  27  49  76 111 158 208 263 328 395 476
#     4  12  27  50  73 112 157 206 267 326 397 478
#     4  10  21  41  71 112 148 194 264 328 389 477
#     4  11  23  45  73 107 153 203 264 325 398 468
#     4  11  22  40  71 106 152 196 251 326 391 466
#     4  11  24  46  75 116 150 200 267 328 395 468
#     4  12  25  47  74 110 153 207 258 329 396 477
#
# _framework density 26.685587000000002
#
# number of rings (size 3 to 8) (size 9 to 14) (size 15 to 20)
#    0.000    0.667    5.000    3.000    2.333    2.000 
#    0.000    3.333    0.000    0.000    0.000    0.000 
#    0.000    0.000    0.000    0.000    0.000    0.000 
#
# Total GULP energy -267789.309852 kJ/mol
# GULP energy per Si atom -5578.943955 kJ/mol
# Density = 2.662485 g / cm^3
# Si number density = 26.685587 Si / 1000 Ang^3
#
#
#
# Elastic Constant Matrix: (Units=GPa)
#
#
# Indices 1 2 3 4 5 6 
#
# 1 115.1790 18.9569 8.7693 0.0000 0.0000 0.0000
# 2 18.9569 113.8652 36.4556 0.0000 0.0000 0.0000
# 3 8.7693 36.4556 67.4379 0.0000 0.0000 0.0000
# 4 0.0000 0.0000 0.0000 16.5805 0.0000 0.0000
# 5 0.0000 0.0000 0.0000 0.0000 44.4609 0.0000
# 6 0.0000 0.0000 0.0000 0.0000 0.0000 25.4173
#
#
#
# Elastic Compliance Matrix: (Units=1/GPa)
#
#
# Indices 1 2 3 4 5 6 
#
# 1 0.008937 -0.001349 -0.000433 0.000000 0.000000 0.000000
# 2 -0.001349 0.010824 -0.005676 0.000000 0.000000 0.000000
# 3 -0.000433 -0.005676 0.017953 0.000000 0.000000 0.000000
# 4 0.000000 0.000000 0.000000 0.060312 0.000000 0.000000
# 5 0.000000 0.000000 0.000000 0.000000 0.022492 0.000000
# 6 0.000000 0.000000 0.000000 0.000000 0.000000 0.039343
#
#
# Mechanical properties :
#
#
# Convention : Reuss Voigt Hill
#
# Bulk Modulus (GPa) = 43.86265 47.20510 45.53387
# Shear Modulus (GPa) = 27.41584 32.77843 30.09713
#
# Velocity S-wave (km/s) = 3.20873 3.50854 3.36198
# Velocity P-wave (km/s) = 5.49549 5.84302 5.67192
#
# Compressibility (1/GPa) = 0.02279844
#
# Stress axis : x y z
#
# Youngs Moduli (GPa) = 111.89221 92.38569 55.70096
#
# Poissons Ratio (x) = 0.12466 0.02410
# Poissons Ratio (y) = 0.15098 0.31615
# Poissons Ratio (z) = 0.04842 0.52437
#
# Static dielectric constant tensor:
#      x y z
#    x 2.399410 0.000000 0.000000 
#    y 0.000000 2.109250 0.000000 
#    z 0.000000 0.000000 2.082990 
# 
# From -- ./inp_files/19371.got.cif
#   From: 2010.05.17/outbox.cif.g08.bks.cpg/sg60_10_cif.got.tgz:19371.got - 2010.06.03 14:59:27.
