data_PCOD9456974
_publ_section_title
;
Structure prediction by ZEFSAII (Michael W. Deem and Ramdas Pophale) SiO2 
 PCOD9456974
Probable space group: P B C N
;
_chemical_formula_sum "Si O2"
_cell_formula_units_Z 64
_cell_length_a 30.220765
_cell_length_b 11.484035
_cell_length_c 8.795330
_cell_angle_alpha 90.000000
_cell_angle_beta 90.000000
_cell_angle_gamma 90.000000
_cell_volume 3052.474889
_symmetry_space_group_name_H-M "P B C N"
_symmetry_group_IT_number 60
_symmetry_cell_setting 'orthorhombic'
loop_
_space_group_symop_operation_xyz
x,y,z
1/2-x,1/2-y,1/2+z
1/2+x,1/2-y,-z
-x,y,1/2-z
-x,-y,-z
1/2+x,1/2+y,1/2-z
1/2-x,1/2+y,z
x,-y,1/2+z
loop_
_atom_site_type_symbol
_atom_site_label
_atom_site_fract_x
_atom_site_fract_y
_atom_site_fract_z
Si Si1 0.031566 0.573706 0.889321
Si Si2 0.267970 0.401577 0.985471
Si Si3 0.864522 0.838913 0.012089
Si Si4 0.185259 0.553693 0.896245
Si Si5 0.894674 0.713289 0.477267
Si Si6 0.641077 0.557693 0.856145
Si Si7 0.217582 0.758740 0.682040
Si Si8 0.892704 0.383807 0.649716
O O1 0.071864 0.483889 0.868132
O O2 0.000000 0.600528 0.750000
O O3 0.059967 0.686323 0.936335
O O4 0.000000 0.500000 0.000000
O O5 0.227601 0.494583 0.978616
O O6 0.275875 0.355046 0.813306
O O7 0.309856 0.454446 0.072151
O O8 0.258866 0.284030 0.083040
O O9 0.859194 0.896979 0.181344
O O10 0.892489 0.720189 0.028009
O O11 0.818443 0.795139 0.941834
O O12 0.881343 0.933987 0.891353
O O13 0.202615 0.639451 0.765648
O O14 0.155634 0.443390 0.843994
O O15 0.148262 0.635706 0.976723
O O16 0.880780 0.846238 0.465455
O O17 0.904095 0.674835 0.306904
#
# Coordination Sequence:
#
# PCOD9456974 Si02
#       8
#     8   8   8   8   8   8   8   8
#     4  11  22  41  72 109 137 170 213 278 352 425
#     4  12  26  39  61  86 134 174 239 282 335 394
#     4  11  25  46  64  92 130 181 232 280 345 405
#     4  11  24  39  62  93 127 171 229 281 347 395
#     4  10  22  43  64  97 136 173 219 283 345 413
#     4  11  25  44  66  92 131 185 235 284 332 406
#     4  12  26  41  60  90 127 179 230 294 348 392
#     4  10  22  41  67  95 140 167 213 275 348 406
#
# _framework density 20.966593
#
# number of rings (size 3 to 8) (size 9 to 14) (size 15 to 20)
#    0.000    1.000    3.750    2.250    8.750    0.000 
#    0.000    0.000    0.000    1.500    0.000    0.000 
#    0.000    0.000    0.000    0.000    0.000    0.000 
#
# Total GULP energy -357091.605818 kJ/mol
# GULP energy per Si atom -5579.556341 kJ/mol
# Density = 2.091887 g / cm^3
# Si number density = 20.966593 Si / 1000 Ang^3
#
#
#
# Elastic Constant Matrix: (Units=GPa)
#
#
# Indices 1 2 3 4 5 6 
#
# 1 60.8979 -8.0902 -4.3207 0.0000 0.0000 0.0000
# 2 -8.0902 62.2131 -8.5021 0.0000 0.0000 0.0000
# 3 -4.3207 -8.5021 41.3286 0.0000 0.0000 0.0000
# 4 0.0000 0.0000 0.0000 34.9089 0.0000 0.0000
# 5 0.0000 0.0000 0.0000 0.0000 20.1895 0.0000
# 6 0.0000 0.0000 0.0000 0.0000 0.0000 15.9378
#
#
#
# Elastic Compliance Matrix: (Units=1/GPa)
#
#
# Indices 1 2 3 4 5 6 
#
# 1 0.016917 0.002512 0.002285 0.000000 0.000000 0.000000
# 2 0.002512 0.016912 0.003742 0.000000 0.000000 0.000000
# 3 0.002285 0.003742 0.025205 0.000000 0.000000 0.000000
# 4 0.000000 0.000000 0.000000 0.028646 0.000000 0.000000
# 5 0.000000 0.000000 0.000000 0.000000 0.049531 0.000000
# 6 0.000000 0.000000 0.000000 0.000000 0.000000 0.062744
#
#
# Mechanical properties :
#
#
# Convention : Reuss Voigt Hill
#
# Bulk Modulus (GPa) = 13.13850 13.62374 13.38112
# Shear Modulus (GPa) = 24.01002 26.56408 25.28705
#
# Velocity S-wave (km/s) = 3.38769 3.56332 3.47661
# Velocity P-wave (km/s) = 4.64563 4.84165 4.74465
#
# Compressibility (1/GPa) = 0.07611219
#
# Stress axis : x y z
#
# Youngs Moduli (GPa) = 59.11282 59.13024 39.67464
#
# Poissons Ratio (x) = -0.14855 -0.09067
# Poissons Ratio (y) = -0.14850 -0.14845
# Poissons Ratio (z) = -0.13509 -0.22125
#
# Static dielectric constant tensor:
#      x y z
#    x 1.851060 0.000000 0.000000 
#    y 0.000000 1.819280 0.000000 
#    z 0.000000 0.000000 1.819860 
# 
# From -- ./inp_files/8501.got.cif
#   From: 2010.05.17/outbox.cif.g08.bks.cpg/sg60_5_cif.got.tgz:8501.got - 2010.06.03 14:59:27.
