data_PCOD9456625
_publ_section_title
;
Structure prediction by ZEFSAII (Michael W. Deem and Ramdas Pophale) SiO2 
 PCOD9456625
Probable space group: P B C N
;
_chemical_formula_sum "Si O2"
_cell_formula_units_Z 32
_cell_length_a 10.121164
_cell_length_b 18.581151
_cell_length_c 6.751932
_cell_angle_alpha 90.000000
_cell_angle_beta 90.000000
_cell_angle_gamma 90.000000
_cell_volume 1269.787754
_symmetry_space_group_name_H-M "P B C N"
_symmetry_group_IT_number 60
_symmetry_cell_setting 'orthorhombic'
loop_
_space_group_symop_operation_xyz
x,y,z
1/2-x,1/2-y,1/2+z
1/2+x,1/2-y,-z
-x,y,1/2-z
-x,-y,-z
1/2+x,1/2+y,1/2-z
1/2-x,1/2+y,z
x,-y,1/2+z
loop_
_atom_site_type_symbol
_atom_site_label
_atom_site_fract_x
_atom_site_fract_y
_atom_site_fract_z
Si Si1 0.149351 0.917422 0.253156
Si Si2 0.639645 0.664230 0.354991
Si Si3 0.095531 0.526938 0.613745
Si Si4 0.816205 0.322810 0.489746
O O1 0.174900 0.890997 0.473635
O O2 0.246019 0.973869 0.148555
O O3 0.182843 0.843827 0.132074
O O4 0.000000 0.941432 0.250000
O O5 0.500000 0.645958 0.250000
O O6 0.628748 0.745125 0.441016
O O7 0.765596 0.667574 0.210947
O O8 0.070701 0.492816 0.375450
O O9 0.084550 0.613614 0.570867
#
# Coordination Sequence:
#
# PCOD9456625 Si02
#       4
#     8   8   8   8
#     4  10  22  42  64  98 136 175 233 289 357 431
#     4  12  20  37  66 103 142 183 221 285 370 440
#     4  10  23  45  65  94 134 179 239 295 342 414
#     4  10  22  36  63  99 140 177 226 286 351 432
#
# _framework density 25.201063999999999
#
# number of rings (size 3 to 8) (size 9 to 14) (size 15 to 20)
#    1.500    0.000    5.000    0.750    0.000    2.000 
#    0.000    5.000    0.000    0.000    0.000    0.000 
#    0.000    0.000    0.000    0.000    0.000    0.000 
#
# Total GULP energy -178262.180318 kJ/mol
# GULP energy per Si atom -5570.693135 kJ/mol
# Density = 2.514370 g / cm^3
# Si number density = 25.201064 Si / 1000 Ang^3
#
#
#
# Elastic Constant Matrix: (Units=GPa)
#
#
# Indices 1 2 3 4 5 6 
#
# 1 146.4664 41.5816 57.0942 0.0000 0.0000 0.0000
# 2 41.5816 144.2058 69.6089 0.0000 0.0000 0.0000
# 3 57.0942 69.6089 164.7542 0.0000 0.0000 0.0000
# 4 0.0000 0.0000 0.0000 101.0690 0.0000 0.0000
# 5 0.0000 0.0000 0.0000 0.0000 53.3188 0.0000
# 6 0.0000 0.0000 0.0000 0.0000 0.0000 29.9899
#
#
#
# Elastic Compliance Matrix: (Units=1/GPa)
#
#
# Indices 1 2 3 4 5 6 
#
# 1 0.008063 -0.001226 -0.002276 0.000000 0.000000 0.000000
# 2 -0.001226 0.008898 -0.003334 0.000000 0.000000 0.000000
# 3 -0.002276 -0.003334 0.008267 0.000000 0.000000 0.000000
# 4 0.000000 0.000000 0.000000 0.009894 0.000000 0.000000
# 5 0.000000 0.000000 0.000000 0.000000 0.018755 0.000000
# 6 0.000000 0.000000 0.000000 0.000000 0.000000 0.033345
#
#
# Mechanical properties :
#
#
# Convention : Reuss Voigt Hill
#
# Bulk Modulus (GPa) = 86.54693 87.99952 87.27322
# Shear Modulus (GPa) = 47.73447 56.01831 51.87639
#
# Velocity S-wave (km/s) = 4.35690 4.71983 4.54199
# Velocity P-wave (km/s) = 7.72834 8.04346 7.88747
#
# Compressibility (1/GPa) = 0.01155443
#
# Stress axis : x y z
#
# Youngs Moduli (GPa) = 124.02552 112.38966 120.96096
#
# Poissons Ratio (x) = 0.13782 0.27531
# Poissons Ratio (y) = 0.15209 0.40332
# Poissons Ratio (z) = 0.28228 0.37474
#
# Static dielectric constant tensor:
#      x y z
#    x 1.961210 0.000000 0.000000 
#    y 0.000000 1.934060 0.000000 
#    z 0.000000 0.000000 2.320250 
# 
# From -- ./inp_files/710.got.cif
#   From: 2010.05.17/outbox.cif.g08.bks.cpg/sg60_1_cif.got.tgz:710.got - 2010.06.03 14:59:27.
