data_PCOD9456014
_publ_section_title
;
Structure prediction by ZEFSAII (Michael W. Deem and Ramdas Pophale) SiO2 
 PCOD9456014
Probable space group: P B C N
;
_chemical_formula_sum "Si O2"
_cell_formula_units_Z 24
_cell_length_a 5.774382
_cell_length_b 18.964093
_cell_length_c 7.487641
_cell_angle_alpha 90.000000
_cell_angle_beta 90.000000
_cell_angle_gamma 90.000000
_cell_volume 819.940996
_symmetry_space_group_name_H-M "P B C N"
_symmetry_group_IT_number 60
_symmetry_cell_setting 'orthorhombic'
loop_
_space_group_symop_operation_xyz
x,y,z
1/2-x,1/2-y,1/2+z
1/2+x,1/2-y,-z
-x,y,1/2-z
-x,-y,-z
1/2+x,1/2+y,1/2-z
1/2-x,1/2+y,z
x,-y,1/2+z
loop_
_atom_site_type_symbol
_atom_site_label
_atom_site_fract_x
_atom_site_fract_y
_atom_site_fract_z
Si Si1 0.500000 0.134738 0.250000
Si Si2 0.247246 0.255679 0.403728
Si Si3 0.746922 0.087494 0.571945
Si Si4 0.000000 0.972715 0.750000
O O1 0.286961 0.188796 0.275396
O O2 0.534388 0.092411 0.432783
O O3 0.491742 0.250560 0.512442
O O4 0.256059 0.336360 0.334387
O O5 0.785373 0.025399 0.711463
O O6 0.950110 0.072006 0.426606
#
# Coordination Sequence:
#
# PCOD9456014 Si02
#       4
#     4   8   8   4
#     4  10  21  38  64  96 133 174 232 298 354 416
#     4  10  21  38  63  93 127 167 219 285 347 408
#     4  10  21  38  61  93 132 178 230 281 352 419
#     4  10  21  38  60  88 135 182 226 282 340 430
#
# _framework density 29.270396000000002
#
# number of rings (size 3 to 8) (size 9 to 14) (size 15 to 20)
#    0.000    2.000    0.000    3.000    0.000    5.333 
#    0.000    3.333    0.000    0.000    0.000    0.000 
#    0.000    0.000    0.000    0.000    0.000    0.000 
#
# Total GULP energy -134129.789447 kJ/mol
# GULP energy per Si atom -5588.741227 kJ/mol
# Density = 2.920378 g / cm^3
# Si number density = 29.270396 Si / 1000 Ang^3
#
#
#
# Elastic Constant Matrix: (Units=GPa)
#
#
# Indices 1 2 3 4 5 6 
#
# 1 179.7637 55.0912 56.5399 0.0000 0.0000 0.0000
# 2 55.0912 146.8373 28.2026 0.0000 0.0000 0.0000
# 3 56.5399 28.2026 99.8684 0.0000 0.0000 0.0000
# 4 0.0000 0.0000 0.0000 32.3977 0.0000 0.0000
# 5 0.0000 0.0000 0.0000 0.0000 73.9592 0.0000
# 6 0.0000 0.0000 0.0000 0.0000 0.0000 29.5538
#
#
#
# Elastic Compliance Matrix: (Units=1/GPa)
#
#
# Indices 1 2 3 4 5 6 
#
# 1 0.007314 -0.002060 -0.003559 0.000000 0.000000 0.000000
# 2 -0.002060 0.007781 -0.001031 0.000000 0.000000 0.000000
# 3 -0.003559 -0.001031 0.012319 0.000000 0.000000 0.000000
# 4 0.000000 0.000000 0.000000 0.030866 0.000000 0.000000
# 5 0.000000 0.000000 0.000000 0.000000 0.013521 0.000000
# 6 0.000000 0.000000 0.000000 0.000000 0.000000 0.033837
#
#
# Mechanical properties :
#
#
# Convention : Reuss Voigt Hill
#
# Bulk Modulus (GPa) = 70.85238 78.45964 74.65601
# Shear Modulus (GPa) = 40.43912 46.29119 43.36516
#
# Velocity S-wave (km/s) = 3.72098 3.98112 3.85325
# Velocity P-wave (km/s) = 6.53603 6.92790 6.73481
#
# Compressibility (1/GPa) = 0.01411385
#
# Stress axis : x y z
#
# Youngs Moduli (GPa) = 136.73150 128.51306 81.17519
#
# Poissons Ratio (x) = 0.26479 0.28888
# Poissons Ratio (y) = 0.28173 0.08368
# Poissons Ratio (z) = 0.48658 0.13249
#
# Static dielectric constant tensor:
#      x y z
#    x 2.280820 0.000000 0.000000 
#    y 0.000000 2.241350 0.000000 
#    z 0.000000 0.000000 2.447730 
# 
# From -- ./inp_files/2911.got.cif
#   From: 2010.05.17/outbox.cif.g08.bks.cpg/sg60_2_cif.got.tgz:2911.got - 2010.06.03 14:59:27.
