data_PCOD9456278
_publ_section_title
;
Structure prediction by ZEFSAII (Michael W. Deem and Ramdas Pophale) SiO2 
 PCOD9456278
Probable space group: P B C N
;
_chemical_formula_sum "Si O2"
_cell_formula_units_Z 48
_cell_length_a 17.764893
_cell_length_b 7.218691
_cell_length_c 15.599383
_cell_angle_alpha 90.000000
_cell_angle_beta 90.000000
_cell_angle_gamma 90.000000
_cell_volume 2000.453539
_symmetry_space_group_name_H-M "P B C N"
_symmetry_group_IT_number 60
_symmetry_cell_setting 'orthorhombic'
loop_
_space_group_symop_operation_xyz
x,y,z
1/2-x,1/2-y,1/2+z
1/2+x,1/2-y,-z
-x,y,1/2-z
-x,-y,-z
1/2+x,1/2+y,1/2-z
1/2-x,1/2+y,z
x,-y,1/2+z
loop_
_atom_site_type_symbol
_atom_site_label
_atom_site_fract_x
_atom_site_fract_y
_atom_site_fract_z
Si Si1 0.673734 0.941773 0.490703
Si Si2 0.322284 0.716564 0.728912
Si Si3 0.156722 0.347859 0.199333
Si Si4 0.659835 0.373986 0.461841
Si Si5 0.064381 0.271083 0.869385
Si Si6 0.500000 0.500000 0.500000
Si Si7 0.000000 0.586689 0.750000
O O1 0.651593 0.154265 0.476150
O O2 0.662435 0.824350 0.403033
O O3 0.762622 0.935425 0.506230
O O4 0.623218 0.861848 0.565114
O O5 0.232304 0.718441 0.746917
O O6 0.330577 0.601141 0.641052
O O7 0.383640 0.664181 0.799881
O O8 0.341898 0.930412 0.711962
O O9 0.074115 0.292585 0.231074
O O10 0.590677 0.478267 0.502518
O O11 0.020079 0.445443 0.827001
O O12 0.004510 0.144713 0.917778
#
# Coordination Sequence:
#
# PCOD9456278 Si02
#       7
#     8   8   8   8   8   4   4
#     4  10  21  40  65  90 123 164 205 248 304 371
#     4   9  20  40  63  83 119 165 201 241 306 373
#     4   9  19  38  62  87 116 157 201 248 301 360
#     4  10  22  41  64  90 123 162 205 253 307 367
#     4  11  23  41  63  89 124 164 204 252 310 367
#     4  12  24  36  60  94 122 154 206 262 306 352
#     4  10  22  40  62  86 120 160 202 254 310 354
#
# _framework density 23.99456
#
# number of rings (size 3 to 8) (size 9 to 14) (size 15 to 20)
#    0.000    2.000    0.000    4.000    0.000    9.333 
#    0.000    1.667    0.000   12.000    0.000    0.000 
#    0.000    0.000    0.000    0.000    0.000    0.000 
#
# Total GULP energy -267641.881393 kJ/mol
# GULP energy per Si atom -5575.872529 kJ/mol
# Density = 2.393995 g / cm^3
# Si number density = 23.994560 Si / 1000 Ang^3
#
#
#
# Elastic Constant Matrix: (Units=GPa)
#
#
# Indices 1 2 3 4 5 6 
#
# 1 149.5039 30.5912 16.1746 0.0000 0.0000 0.0000
# 2 30.5912 42.6858 23.7711 0.0000 0.0000 0.0000
# 3 16.1746 23.7711 53.3882 0.0000 0.0000 0.0000
# 4 0.0000 0.0000 0.0000 20.8476 0.0000 0.0000
# 5 0.0000 0.0000 0.0000 0.0000 48.1337 0.0000
# 6 0.0000 0.0000 0.0000 0.0000 0.0000 24.5933
#
#
#
# Elastic Compliance Matrix: (Units=1/GPa)
#
#
# Indices 1 2 3 4 5 6 
#
# 1 0.007839 -0.005712 0.000168 0.000000 0.000000 0.000000
# 2 -0.005712 0.035313 -0.013993 0.000000 0.000000 0.000000
# 3 0.000168 -0.013993 0.024910 0.000000 0.000000 0.000000
# 4 0.000000 0.000000 0.000000 0.047967 0.000000 0.000000
# 5 0.000000 0.000000 0.000000 0.000000 0.020775 0.000000
# 6 0.000000 0.000000 0.000000 0.000000 0.000000 0.040661
#
#
# Mechanical properties :
#
#
# Convention : Reuss Voigt Hill
#
# Bulk Modulus (GPa) = 34.49507 42.96129 38.72818
# Shear Modulus (GPa) = 22.10417 30.38433 26.24425
#
# Velocity S-wave (km/s) = 3.03845 3.56237 3.31079
# Velocity P-wave (km/s) = 5.16884 5.90459 5.54892
#
# Compressibility (1/GPa) = 0.02898965
#
# Stress axis : x y z
#
# Youngs Moduli (GPa) = 127.56189 28.31842 40.14454
#
# Poissons Ratio (x) = 0.16175 -0.00675
# Poissons Ratio (y) = 0.72861 0.56173
# Poissons Ratio (z) = -0.02145 0.39625
#
# Static dielectric constant tensor:
#      x y z
#    x 1.916390 0.000000 0.000000 
#    y 0.000000 1.921640 0.000000 
#    z 0.000000 0.000000 1.976750 
# 
# From -- ./inp_files/17373.got.cif
#   From: 2010.05.17/outbox.cif.g08.bks.cpg/sg60_9_cif.got.tgz:17373.got - 2010.06.03 14:59:27.
