data_PCOD9456012
_publ_section_title
;
Structure prediction by ZEFSAII (Michael W. Deem and Ramdas Pophale) SiO2 
 PCOD9456012
Probable space group: P B C N
;
_chemical_formula_sum "Si O2"
_cell_formula_units_Z 64
_cell_length_a 19.767976
_cell_length_b 17.512184
_cell_length_c 9.203383
_cell_angle_alpha 90.000000
_cell_angle_beta 90.000000
_cell_angle_gamma 90.000000
_cell_volume 3186.031112
_symmetry_space_group_name_H-M "P B C N"
_symmetry_group_IT_number 60
_symmetry_cell_setting 'orthorhombic'
loop_
_space_group_symop_operation_xyz
x,y,z
1/2-x,1/2-y,1/2+z
1/2+x,1/2-y,-z
-x,y,1/2-z
-x,-y,-z
1/2+x,1/2+y,1/2-z
1/2-x,1/2+y,z
x,-y,1/2+z
loop_
_atom_site_type_symbol
_atom_site_label
_atom_site_fract_x
_atom_site_fract_y
_atom_site_fract_z
Si Si1 0.211817 0.157905 0.109255
Si Si2 0.255385 0.114259 0.788662
Si Si3 0.665513 0.248464 0.316746
Si Si4 0.067105 0.775350 0.933265
Si Si5 0.878860 0.305004 0.346653
Si Si6 0.156599 0.991261 0.746494
Si Si7 0.931537 0.951424 0.495531
Si Si8 0.545121 0.189987 0.120980
O O1 0.277665 0.183259 0.201042
O O2 0.167419 0.234983 0.092405
O O3 0.166146 0.093267 0.182870
O O4 0.241315 0.127509 0.958187
O O5 0.204062 0.173509 0.713219
O O6 0.329555 0.136747 0.736344
O O7 0.229073 0.031579 0.743336
O O8 0.635629 0.253304 0.479271
O O9 0.602807 0.234605 0.210231
O O10 0.074690 0.736771 0.775390
O O11 0.058594 0.866566 0.941768
O O12 0.006745 0.743033 0.032136
O O13 0.915928 0.346017 0.482284
O O14 0.100143 0.041396 0.663640
O O15 0.127987 0.987046 0.907742
O O16 0.000000 0.000000 0.500000
O O17 0.500000 0.150680 0.250000
#
# Coordination Sequence:
#
# PCOD9456012 Si02
#       8
#     8   8   8   8   8   8   8   8
#     4  11  22  38  62  87 123 158 210 264 309 361
#     4  11  22  38  62  88 124 160 204 270 310 357
#     4  10  21  38  60  87 117 161 205 262 308 350
#     4  11  22  38  60  90 119 170 213 247 292 372
#     4  11  22  38  64  90 120 161 210 261 310 356
#     4  12  25  40  59  87 125 168 213 247 314 367
#     4  12  27  37  54  84 132 180 210 240 290 368
#     4  10  23  37  59  88 122 153 202 252 302 364
#
# _framework density 20.087689999999998
#
# number of rings (size 3 to 8) (size 9 to 14) (size 15 to 20)
#    0.000    1.000    6.250    0.750    3.500    3.000 
#    0.000    0.000    0.000    0.000    0.000    9.625 
#    0.000    0.000    0.000    0.000    0.000    0.000 
#
# Total GULP energy -356905.205289 kJ/mol
# GULP energy per Si atom -5576.643833 kJ/mol
# Density = 2.004197 g / cm^3
# Si number density = 20.087690 Si / 1000 Ang^3
#
#
#
# Elastic Constant Matrix: (Units=GPa)
#
#
# Indices 1 2 3 4 5 6 
#
# 1 80.9123 8.1727 4.8466 0.0000 0.0000 0.0000
# 2 8.1727 30.1106 -13.7044 0.0000 0.0000 0.0000
# 3 4.8466 -13.7044 59.9893 0.0000 0.0000 0.0000
# 4 0.0000 0.0000 0.0000 8.8311 0.0000 0.0000
# 5 0.0000 0.0000 0.0000 0.0000 39.1046 0.0000
# 6 0.0000 0.0000 0.0000 0.0000 0.0000 22.1953
#
#
#
# Elastic Compliance Matrix: (Units=1/GPa)
#
#
# Indices 1 2 3 4 5 6 
#
# 1 0.012932 -0.004448 -0.002061 0.000000 0.000000 0.000000
# 2 -0.004448 0.038595 0.009176 0.000000 0.000000 0.000000
# 3 -0.002061 0.009176 0.018932 0.000000 0.000000 0.000000
# 4 0.000000 0.000000 0.000000 0.113237 0.000000 0.000000
# 5 0.000000 0.000000 0.000000 0.000000 0.025572 0.000000
# 6 0.000000 0.000000 0.000000 0.000000 0.000000 0.045055
#
#
# Mechanical properties :
#
#
# Convention : Reuss Voigt Hill
#
# Bulk Modulus (GPa) = 13.19373 18.84908 16.02141
# Shear Modulus (GPa) = 18.23138 25.47268 21.85203
#
# Velocity S-wave (km/s) = 3.01589 3.56487 3.30181
# Velocity P-wave (km/s) = 4.32548 5.13304 4.74647
#
# Compressibility (1/GPa) = 0.07579357
#
# Stress axis : x y z
#
# Youngs Moduli (GPa) = 77.32886 25.91035 52.81939
#
# Poissons Ratio (x) = 0.11525 0.10886
# Poissons Ratio (y) = 0.34396 -0.48468
# Poissons Ratio (z) = 0.15937 -0.23776
#
# Static dielectric constant tensor:
#      x y z
#    x 1.736920 0.000000 0.000000 
#    y 0.000000 1.682410 0.000000 
#    z 0.000000 0.000000 1.747690 
# 
# From -- ./inp_files/7574.got.cif
#   From: 2010.05.17/outbox.cif.g08.bks.cpg/sg60_4_cif.got.tgz:7574.got - 2010.06.03 14:59:27.
