data_PCOD9456396
_publ_section_title
;
Structure prediction by ZEFSAII (Michael W. Deem and Ramdas Pophale) SiO2 
 PCOD9456396
Probable space group: P B C N
;
_chemical_formula_sum "Si O2"
_cell_formula_units_Z 36
_cell_length_a 10.712815
_cell_length_b 10.513069
_cell_length_c 12.530829
_cell_angle_alpha 90.000000
_cell_angle_beta 90.000000
_cell_angle_gamma 90.000000
_cell_volume 1411.279144
_symmetry_space_group_name_H-M "P B C N"
_symmetry_group_IT_number 60
_symmetry_cell_setting 'orthorhombic'
loop_
_space_group_symop_operation_xyz
x,y,z
1/2-x,1/2-y,1/2+z
1/2+x,1/2-y,-z
-x,y,1/2-z
-x,-y,-z
1/2+x,1/2+y,1/2-z
1/2-x,1/2+y,z
x,-y,1/2+z
loop_
_atom_site_type_symbol
_atom_site_label
_atom_site_fract_x
_atom_site_fract_y
_atom_site_fract_z
Si Si1 0.060855 0.363460 0.526572
Si Si2 0.249417 0.883582 0.337610
Si Si3 0.312968 0.630238 0.256482
Si Si4 0.534219 0.615099 0.425623
Si Si5 0.000000 0.758358 0.250000
O O1 0.188100 0.354926 0.453080
O O2 0.000000 0.500000 0.500000
O O3 0.972090 0.252450 0.478879
O O4 0.063550 0.324642 0.653302
O O5 0.304578 0.781754 0.255147
O O6 0.104187 0.845522 0.310772
O O7 0.280415 0.029176 0.309639
O O8 0.426734 0.616199 0.337942
O O9 0.341841 0.583426 0.139033
O O10 0.500000 0.500000 0.500000
#
# Coordination Sequence:
#
# PCOD9456396 Si02
#       5
#     8   8   8   8   4
#     4  11  26  47  75 114 154 200 264 333 394 463
#     4  11  24  44  72 108 151 200 256 322 392 472
#     4  10  22  40  65 100 141 192 244 305 381 457
#     4  10  21  41  67  97 141 191 246 306 379 467
#     4  12  26  48  76 112 156 206 260 326 410 488
#
# _framework density 25.508775
#
# number of rings (size 3 to 8) (size 9 to 14) (size 15 to 20)
#    0.000    1.333    0.000    5.333    0.000    8.889 
#    0.000    4.444    0.000    0.000    0.000    0.000 
#    0.000    0.000    0.000    0.000    0.000    0.000 
#
# Total GULP energy -200651.959277 kJ/mol
# GULP energy per Si atom -5573.665535 kJ/mol
# Density = 2.545072 g / cm^3
# Si number density = 25.508775 Si / 1000 Ang^3
#
#
#
# Elastic Constant Matrix: (Units=GPa)
#
#
# Indices 1 2 3 4 5 6 
#
# 1 73.3986 3.0400 43.2717 0.0000 0.0000 0.0000
# 2 3.0400 154.9982 54.5059 0.0000 0.0000 0.0000
# 3 43.2717 54.5059 157.9171 0.0000 0.0000 0.0000
# 4 0.0000 0.0000 0.0000 33.5793 0.0000 0.0000
# 5 0.0000 0.0000 0.0000 0.0000 52.2675 0.0000
# 6 0.0000 0.0000 0.0000 0.0000 0.0000 39.4980
#
#
#
# Elastic Compliance Matrix: (Units=1/GPa)
#
#
# Indices 1 2 3 4 5 6 
#
# 1 0.016528 0.001444 -0.005027 0.000000 0.000000 0.000000
# 2 0.001444 0.007469 -0.002974 0.000000 0.000000 0.000000
# 3 -0.005027 -0.002974 0.008736 0.000000 0.000000 0.000000
# 4 0.000000 0.000000 0.000000 0.029780 0.000000 0.000000
# 5 0.000000 0.000000 0.000000 0.000000 0.019132 0.000000
# 6 0.000000 0.000000 0.000000 0.000000 0.000000 0.025318
#
#
# Mechanical properties :
#
#
# Convention : Reuss Voigt Hill
#
# Bulk Modulus (GPa) = 50.97021 65.32769 58.14895
# Shear Modulus (GPa) = 39.48883 44.10205 41.79544
#
# Velocity S-wave (km/s) = 3.93879 4.16251 4.05220
# Velocity P-wave (km/s) = 6.38046 6.98337 6.68871
#
# Compressibility (1/GPa) = 0.01961930
#
# Stress axis : x y z
#
# Youngs Moduli (GPa) = 60.50241 133.88592 114.46445
#
# Poissons Ratio (x) = -0.19329 0.57545
# Poissons Ratio (y) = -0.08735 0.34037
# Poissons Ratio (z) = 0.30416 0.39812
#
# Static dielectric constant tensor:
#      x y z
#    x 2.439420 0.000000 0.000000 
#    y 0.000000 2.033850 0.000000 
#    z 0.000000 0.000000 2.011890 
# 
# From -- ./inp_files/10660.got.cif
#   From: 2010.05.17/outbox.cif.g08.bks.cpg/sg60_6_cif.got.tgz:10660.got - 2010.06.03 14:59:27.
