data_PCOD9456877
_publ_section_title
;
Structure prediction by ZEFSAII (Michael W. Deem and Ramdas Pophale) SiO2 
 PCOD9456877
Probable space group: P B C N
;
_chemical_formula_sum "Si O2"
_cell_formula_units_Z 36
_cell_length_a 5.316884
_cell_length_b 25.519471
_cell_length_c 11.133973
_cell_angle_alpha 90.000000
_cell_angle_beta 90.000000
_cell_angle_gamma 90.000000
_cell_volume 1510.702739
_symmetry_space_group_name_H-M "P B C N"
_symmetry_group_IT_number 60
_symmetry_cell_setting 'orthorhombic'
loop_
_space_group_symop_operation_xyz
x,y,z
1/2-x,1/2-y,1/2+z
1/2+x,1/2-y,-z
-x,y,1/2-z
-x,-y,-z
1/2+x,1/2+y,1/2-z
1/2-x,1/2+y,z
x,-y,1/2+z
loop_
_atom_site_type_symbol
_atom_site_label
_atom_site_fract_x
_atom_site_fract_y
_atom_site_fract_z
Si Si1 0.755046 0.609912 0.782022
Si Si2 0.000000 0.292702 0.750000
Si Si3 0.350304 0.270713 0.945354
Si Si4 0.127938 0.870104 0.624405
Si Si5 0.078811 0.444388 0.448337
O O1 0.500000 0.637294 0.750000
O O2 0.774558 0.562874 0.679910
O O3 0.000000 0.643482 0.750000
O O4 0.819997 0.585269 0.910029
O O5 0.214607 0.261089 0.818203
O O6 0.143679 0.331452 0.659875
O O7 0.435245 0.331447 0.943389
O O8 0.611622 0.240409 0.968210
O O9 0.249689 0.914830 0.544444
O O10 0.000000 0.887671 0.750000
O O11 0.000000 0.500000 0.500000
#
# Coordination Sequence:
#
# PCOD9456877 Si02
#       5
#     8   4   8   8   8
#     4   8  20  39  61  85 130 169 234 277 345 424
#     4  10  22  40  70 106 142 180 242 292 364 452
#     4  11  22  42  72  99 144 186 229 298 368 437
#     4  10  22  40  68 106 147 187 247 306 371 440
#     4   9  21  39  66 100 137 188 235 297 359 429
#
# _framework density 23.829969999999999
#
# number of rings (size 3 to 8) (size 9 to 14) (size 15 to 20)
#    1.333    0.889    2.222    0.000    0.000    7.111 
#    0.000    0.000   26.889    0.000    0.000    0.000 
#    0.000    0.000    0.000    0.000    0.000    0.000 
#
# Total GULP energy -200520.028366 kJ/mol
# GULP energy per Si atom -5570.000788 kJ/mol
# Density = 2.377573 g / cm^3
# Si number density = 23.829970 Si / 1000 Ang^3
#
#
#
# Elastic Constant Matrix: (Units=GPa)
#
#
# Indices 1 2 3 4 5 6 
#
# 1 214.5008 71.7030 59.9197 0.0000 0.0000 0.0000
# 2 71.7030 109.0535 86.7287 0.0000 0.0000 0.0000
# 3 59.9197 86.7287 119.7645 0.0000 0.0000 0.0000
# 4 0.0000 0.0000 0.0000 9.8835 0.0000 0.0000
# 5 0.0000 0.0000 0.0000 0.0000 65.6859 0.0000
# 6 0.0000 0.0000 0.0000 0.0000 0.0000 37.2732
#
#
#
# Elastic Compliance Matrix: (Units=1/GPa)
#
#
# Indices 1 2 3 4 5 6 
#
# 1 0.005981 -0.003661 -0.000341 0.000000 0.000000 0.000000
# 2 -0.003661 0.023864 -0.015449 0.000000 0.000000 0.000000
# 3 -0.000341 -0.015449 0.019708 0.000000 0.000000 0.000000
# 4 0.000000 0.000000 0.000000 0.101179 0.000000 0.000000
# 5 0.000000 0.000000 0.000000 0.000000 0.015224 0.000000
# 6 0.000000 0.000000 0.000000 0.000000 0.000000 0.026829
#
#
# Mechanical properties :
#
#
# Convention : Reuss Voigt Hill
#
# Bulk Modulus (GPa) = 93.90070 97.78018 95.84044
# Shear Modulus (GPa) = 21.25496 37.56633 29.41064
#
# Velocity S-wave (km/s) = 2.98978 3.97474 3.51691
# Velocity P-wave (km/s) = 7.16996 7.88583 7.53640
#
# Compressibility (1/GPa) = 0.01064955
#
# Stress axis : x y z
#
# Youngs Moduli (GPa) = 167.19079 41.90410 50.74029
#
# Poissons Ratio (x) = 0.15343 0.01730
# Poissons Ratio (y) = 0.61217 0.78391
# Poissons Ratio (z) = 0.05700 0.64740
#
# Static dielectric constant tensor:
#      x y z
#    x 2.115860 0.000000 0.000000 
#    y 0.000000 1.852060 0.000000 
#    z 0.000000 0.000000 2.055860 
# 
# From -- ./inp_files/9170.got.cif
#   From: 2010.05.17/outbox.cif.g08.bks.cpg/sg60_5_cif.got.tgz:9170.got - 2010.06.03 14:59:27.
