data_PCOD9456272
_publ_section_title
;
Structure prediction by ZEFSAII (Michael W. Deem and Ramdas Pophale) SiO2 
 PCOD9456272
Probable space group: P B C N
;
_chemical_formula_sum "Si O2"
_cell_formula_units_Z 52
_cell_length_a 14.980273
_cell_length_b 7.590731
_cell_length_c 21.916565
_cell_angle_alpha 90.000000
_cell_angle_beta 90.000000
_cell_angle_gamma 90.000000
_cell_volume 2492.159402
_symmetry_space_group_name_H-M "P B C N"
_symmetry_group_IT_number 60
_symmetry_cell_setting 'orthorhombic'
loop_
_space_group_symop_operation_xyz
x,y,z
1/2-x,1/2-y,1/2+z
1/2+x,1/2-y,-z
-x,y,1/2-z
-x,-y,-z
1/2+x,1/2+y,1/2-z
1/2-x,1/2+y,z
x,-y,1/2+z
loop_
_atom_site_type_symbol
_atom_site_label
_atom_site_fract_x
_atom_site_fract_y
_atom_site_fract_z
Si Si1 0.662248 0.059664 0.872104
Si Si2 0.154932 0.927000 0.566165
Si Si3 0.151997 0.846949 0.424346
Si Si4 0.000000 0.747581 0.250000
Si Si5 0.190102 0.169281 0.348429
Si Si6 0.162232 0.481743 0.268951
Si Si7 0.032938 0.774725 0.116837
O O1 0.632026 0.244371 0.900274
O O2 0.679224 0.080272 0.799873
O O3 0.753199 0.000251 0.905216
O O4 0.591587 0.902195 0.880410
O O5 0.165887 0.886379 0.494880
O O6 0.081659 0.076823 0.577449
O O7 0.238443 0.757298 0.394462
O O8 0.063693 0.734779 0.411352
O O9 0.136393 0.027840 0.387097
O O10 0.084159 0.624956 0.266799
O O11 0.023839 0.842861 0.186992
O O12 0.137304 0.320666 0.313253
O O13 0.249145 0.067665 0.297678
#
# Coordination Sequence:
#
# PCOD9456272 Si02
#       7
#     8   8   8   4   8   8   8
#     4  11  24  41  69  97 131 175 215 281 331 385
#     4  12  24  44  66  99 134 177 222 260 334 398
#     4  11  24  44  64  97 133 179 219 271 323 396
#     4  10  22  42  64  92 136 160 216 286 332 376
#     4  10  22  40  69  91 129 175 219 269 332 390
#     4  10  21  40  64  95 125 165 223 271 334 391
#     4  11  25  43  67  98 133 171 222 277 326 391
#
# _framework density 20.865438000000001
#
# number of rings (size 3 to 8) (size 9 to 14) (size 15 to 20)
#    0.000    1.231    3.077    2.308    2.154    4.308 
#    0.000    0.769    0.000    0.000    0.000    0.000 
#    0.000    0.000    0.000    0.000    0.000    0.000 
#
# Total GULP energy -290845.321420 kJ/mol
# GULP energy per Si atom -5593.179258 kJ/mol
# Density = 2.081795 g / cm^3
# Si number density = 20.865438 Si / 1000 Ang^3
#
#
#
# Elastic Constant Matrix: (Units=GPa)
#
#
# Indices 1 2 3 4 5 6 
#
# 1 37.6520 -14.3754 10.1894 0.0000 0.0000 0.0000
# 2 -14.3754 70.1488 28.1215 0.0000 0.0000 0.0000
# 3 10.1894 28.1215 129.4947 0.0000 0.0000 0.0000
# 4 0.0000 0.0000 0.0000 16.2402 0.0000 0.0000
# 5 0.0000 0.0000 0.0000 0.0000 12.4357 0.0000
# 6 0.0000 0.0000 0.0000 0.0000 0.0000 10.2533
#
#
#
# Elastic Compliance Matrix: (Units=1/GPa)
#
#
# Indices 1 2 3 4 5 6 
#
# 1 0.030719 0.007957 -0.004145 0.000000 0.000000 0.000000
# 2 0.007957 0.017676 -0.004465 0.000000 0.000000 0.000000
# 3 -0.004145 -0.004465 0.009018 0.000000 0.000000 0.000000
# 4 0.000000 0.000000 0.000000 0.061576 0.000000 0.000000
# 5 0.000000 0.000000 0.000000 0.000000 0.080414 0.000000
# 6 0.000000 0.000000 0.000000 0.000000 0.000000 0.097530
#
#
# Mechanical properties :
#
#
# Convention : Reuss Voigt Hill
#
# Bulk Modulus (GPa) = 17.82322 31.68516 24.75419
# Shear Modulus (GPa) = 15.77590 22.00984 18.89287
#
# Velocity S-wave (km/s) = 2.75267 3.25136 3.01235
# Velocity P-wave (km/s) = 4.32012 5.41420 4.89781
#
# Compressibility (1/GPa) = 0.05610658
#
# Stress axis : x y z
#
# Youngs Moduli (GPa) = 32.55360 56.57466 110.88902
#
# Poissons Ratio (x) = -0.45015 0.45964
# Poissons Ratio (y) = -0.25902 0.49508
# Poissons Ratio (z) = 0.13494 0.25258
#
# Static dielectric constant tensor:
#      x y z
#    x 1.745210 0.000000 0.000000 
#    y 0.000000 1.745230 0.000000 
#    z 0.000000 0.000000 1.727470 
# 
# From -- ./inp_files/22866.got.cif
#   From: 2010.05.17/outbox.cif.g08.bks.cpg/sg60_12_cif.got.tgz:22866.got - 2010.06.03 14:59:27.
