data_PCOD9456288
_publ_section_title
;
Structure prediction by ZEFSAII (Michael W. Deem and Ramdas Pophale) SiO2 
 PCOD9456288
Probable space group: P B C N
;
_chemical_formula_sum "Si O2"
_cell_formula_units_Z 44
_cell_length_a 11.860602
_cell_length_b 13.583883
_cell_length_c 13.944415
_cell_angle_alpha 90.000000
_cell_angle_beta 90.000000
_cell_angle_gamma 90.000000
_cell_volume 2246.626951
_symmetry_space_group_name_H-M "P B C N"
_symmetry_group_IT_number 60
_symmetry_cell_setting 'orthorhombic'
loop_
_space_group_symop_operation_xyz
x,y,z
1/2-x,1/2-y,1/2+z
1/2+x,1/2-y,-z
-x,y,1/2-z
-x,-y,-z
1/2+x,1/2+y,1/2-z
1/2-x,1/2+y,z
x,-y,1/2+z
loop_
_atom_site_type_symbol
_atom_site_label
_atom_site_fract_x
_atom_site_fract_y
_atom_site_fract_z
Si Si1 0.009069 0.131522 0.101226
Si Si2 0.000000 0.697253 0.750000
Si Si3 0.161424 0.833266 0.042372
Si Si4 0.803651 0.548697 0.811452
Si Si5 0.202335 0.977141 0.881308
Si Si6 0.236898 0.611242 0.052315
O O1 0.976155 0.227820 0.162365
O O2 0.931021 0.041379 0.136001
O O3 0.966336 0.148029 0.992049
O O4 0.641290 0.385129 0.895087
O O5 0.101965 0.626998 0.718498
O O6 0.203736 0.890608 0.135727
O O7 0.186777 0.719183 0.050505
O O8 0.227392 0.883205 0.951111
O O9 0.764558 0.489770 0.717949
O O10 0.838706 0.467307 0.890270
O O11 0.234999 0.069149 0.947519
#
# Coordination Sequence:
#
# PCOD9456288 Si02
#       6
#     8   4   8   8   8   8
#     4  10  21  40  66  89 122 170 211 257 324 371
#     4  12  22  40  64  94 128 178 204 256 336 384
#     4   9  22  39  61  93 122 164 206 271 310 371
#     4  11  23  39  62  92 128 165 214 262 314 387
#     4   9  22  37  61  92 120 165 211 260 311 375
#     4  11  20  42  62  92 130 161 214 267 312 382
#
# _framework density 19.584916
#
# number of rings (size 3 to 8) (size 9 to 14) (size 15 to 20)
#    1.091    0.727    1.818    2.727    0.000    0.000 
#    3.273    2.727    0.000    0.000    0.000    0.000 
#    0.000    0.000    0.000    0.000    0.000    0.000 
#
# Total GULP energy -245055.932011 kJ/mol
# GULP energy per Si atom -5569.453000 kJ/mol
# Density = 1.954034 g / cm^3
# Si number density = 19.584916 Si / 1000 Ang^3
#
#
#
# Elastic Constant Matrix: (Units=GPa)
#
#
# Indices 1 2 3 4 5 6 
#
# 1 30.6121 0.4368 16.0344 0.0000 0.0000 0.0000
# 2 0.4368 82.3473 16.2387 0.0000 0.0000 0.0000
# 3 16.0344 16.2387 81.7906 0.0000 0.0000 0.0000
# 4 0.0000 0.0000 0.0000 33.3787 0.0000 0.0000
# 5 0.0000 0.0000 0.0000 0.0000 9.8480 0.0000
# 6 0.0000 0.0000 0.0000 0.0000 0.0000 22.1209
#
#
#
# Elastic Compliance Matrix: (Units=1/GPa)
#
#
# Indices 1 2 3 4 5 6 
#
# 1 0.036532 0.001268 -0.007414 0.000000 0.000000 0.000000
# 2 0.001268 0.012683 -0.002767 0.000000 0.000000 0.000000
# 3 -0.007414 -0.002767 0.014229 0.000000 0.000000 0.000000
# 4 0.000000 0.000000 0.000000 0.029959 0.000000 0.000000
# 5 0.000000 0.000000 0.000000 0.000000 0.101543 0.000000
# 6 0.000000 0.000000 0.000000 0.000000 0.000000 0.045206
#
#
# Mechanical properties :
#
#
# Convention : Reuss Voigt Hill
#
# Bulk Modulus (GPa) = 21.92051 28.90776 25.41413
# Shear Modulus (GPa) = 18.30279 23.87220 21.08750
#
# Velocity S-wave (km/s) = 3.06033 3.49507 3.28490
# Velocity P-wave (km/s) = 4.86871 5.57491 5.23374
#
# Compressibility (1/GPa) = 0.04561938
#
# Stress axis : x y z
#
# Youngs Moduli (GPa) = 27.37337 78.84864 70.27901
#
# Poissons Ratio (x) = -0.09999 0.52102
# Poissons Ratio (y) = -0.03471 0.19443
# Poissons Ratio (z) = 0.20293 0.21814
#
# Static dielectric constant tensor:
#      x y z
#    x 1.698460 0.000000 0.000000 
#    y 0.000000 1.674840 0.000000 
#    z 0.000000 0.000000 1.716110 
# 
# From -- ./inp_files/16737.got.cif
#   From: 2010.05.17/outbox.cif.g08.bks.cpg/sg60_9_cif.got.tgz:16737.got - 2010.06.03 14:59:27.
