data_PCOD9456374
_publ_section_title
;
Structure prediction by ZEFSAII (Michael W. Deem and Ramdas Pophale) SiO2 
 PCOD9456374
Probable space group: P B C N
;
_chemical_formula_sum "Si O2"
_cell_formula_units_Z 44
_cell_length_a 5.172205
_cell_length_b 16.461433
_cell_length_c 22.340105
_cell_angle_alpha 90.000000
_cell_angle_beta 90.000000
_cell_angle_gamma 90.000000
_cell_volume 1902.079121
_symmetry_space_group_name_H-M "P B C N"
_symmetry_group_IT_number 60
_symmetry_cell_setting 'orthorhombic'
loop_
_space_group_symop_operation_xyz
x,y,z
1/2-x,1/2-y,1/2+z
1/2+x,1/2-y,-z
-x,y,1/2-z
-x,-y,-z
1/2+x,1/2+y,1/2-z
1/2-x,1/2+y,z
x,-y,1/2+z
loop_
_atom_site_type_symbol
_atom_site_label
_atom_site_fract_x
_atom_site_fract_y
_atom_site_fract_z
Si Si1 0.523921 0.029078 0.637990
Si Si2 0.326155 0.792060 0.700308
Si Si3 0.000000 0.351873 0.250000
Si Si4 0.988798 0.941678 0.819604
Si Si5 0.066022 0.658750 0.541971
Si Si6 0.069683 0.257288 0.923934
O O1 0.567489 0.093920 0.692196
O O2 0.253978 0.986172 0.651090
O O3 0.501971 0.075691 0.575166
O O4 0.756681 0.966154 0.644994
O O5 0.500000 0.837076 0.750000
O O6 0.499864 0.778531 0.642965
O O7 0.226223 0.708341 0.728317
O O8 0.082994 0.846910 0.682338
O O9 0.000000 0.968210 0.750000
O O10 0.856161 0.722225 0.568474
O O11 0.035889 0.668612 0.470678
O O12 0.354790 0.689266 0.557783
#
# Coordination Sequence:
#
# PCOD9456374 Si02
#       6
#     8   8   4   8   8   8
#     4  12  24  41  65  96 127 173 216 268 321 392
#     4  12  26  42  65 101 132 177 213 279 328 402
#     4  12  24  36  72  96 126 156 236 272 316 386
#     4  12  25  43  59  91 141 173 205 262 343 387
#     4  10  21  41  65  98 127 172 214 284 320 382
#     4  10  22  40  67  95 134 163 222 273 336 371
#
# _framework density 23.132583
#
# number of rings (size 3 to 8) (size 9 to 14) (size 15 to 20)
#    0.000    0.727    4.545    3.273    2.545    0.000 
#    0.000    1.818    0.000    0.000    0.000    0.000 
#    0.000    0.000    0.000    0.000    0.000    0.000 
#
# Total GULP energy -246510.996251 kJ/mol
# GULP energy per Si atom -5602.522642 kJ/mol
# Density = 2.307993 g / cm^3
# Si number density = 23.132583 Si / 1000 Ang^3
#
#
#
# Elastic Constant Matrix: (Units=GPa)
#
#
# Indices 1 2 3 4 5 6 
#
# 1 92.7819 20.5833 7.2559 0.0000 0.0000 0.0000
# 2 20.5833 47.2657 2.5815 0.0000 0.0000 0.0000
# 3 7.2559 2.5815 87.7370 0.0000 0.0000 0.0000
# 4 0.0000 0.0000 0.0000 13.8174 0.0000 0.0000
# 5 0.0000 0.0000 0.0000 0.0000 26.9486 0.0000
# 6 0.0000 0.0000 0.0000 0.0000 0.0000 30.7119
#
#
#
# Elastic Compliance Matrix: (Units=1/GPa)
#
#
# Indices 1 2 3 4 5 6 
#
# 1 0.011992 -0.005176 -0.000839 0.000000 0.000000 0.000000
# 2 -0.005176 0.023425 -0.000261 0.000000 0.000000 0.000000
# 3 -0.000839 -0.000261 0.011475 0.000000 0.000000 0.000000
# 4 0.000000 0.000000 0.000000 0.072373 0.000000 0.000000
# 5 0.000000 0.000000 0.000000 0.000000 0.037108 0.000000
# 6 0.000000 0.000000 0.000000 0.000000 0.000000 0.032561
#
#
# Mechanical properties :
#
#
# Convention : Reuss Voigt Hill
#
# Bulk Modulus (GPa) = 29.12205 32.06954 30.59580
# Shear Modulus (GPa) = 23.48154 27.45319 25.46736
#
# Velocity S-wave (km/s) = 3.18950 3.44870 3.32163
# Velocity P-wave (km/s) = 5.11668 5.45449 5.28828
#
# Compressibility (1/GPa) = 0.03433824
#
# Stress axis : x y z
#
# Youngs Moduli (GPa) = 83.38912 42.68858 87.14747
#
# Poissons Ratio (x) = 0.22097 0.07315
# Poissons Ratio (y) = 0.43166 0.02276
# Poissons Ratio (z) = 0.07000 0.01115
#
# Static dielectric constant tensor:
#      x y z
#    x 1.856100 0.000000 0.000000 
#    y 0.000000 1.879710 0.000000 
#    z 0.000000 0.000000 1.855530 
# 
# From -- ./inp_files/23574.got.cif
#   From: 2010.05.17/outbox.cif.g08.bks.cpg/sg60_12_cif.got.tgz:23574.got - 2010.06.03 14:59:27.
