data_PCOD9456917
_publ_section_title
;
Structure prediction by ZEFSAII (Michael W. Deem and Ramdas Pophale) SiO2 
 PCOD9456917
Probable space group: P B C N
;
_chemical_formula_sum "Si O2"
_cell_formula_units_Z 40
_cell_length_a 10.119086
_cell_length_b 12.152195
_cell_length_c 12.786550
_cell_angle_alpha 90.000000
_cell_angle_beta 90.000000
_cell_angle_gamma 90.000000
_cell_volume 1572.350626
_symmetry_space_group_name_H-M "P B C N"
_symmetry_group_IT_number 60
_symmetry_cell_setting 'orthorhombic'
loop_
_space_group_symop_operation_xyz
x,y,z
1/2-x,1/2-y,1/2+z
1/2+x,1/2-y,-z
-x,y,1/2-z
-x,-y,-z
1/2+x,1/2+y,1/2-z
1/2-x,1/2+y,z
x,-y,1/2+z
loop_
_atom_site_type_symbol
_atom_site_label
_atom_site_fract_x
_atom_site_fract_y
_atom_site_fract_z
Si Si1 0.724836 0.911054 0.595518
Si Si2 0.685533 0.079700 0.443674
Si Si3 0.016586 0.875563 0.632166
Si Si4 0.377611 0.146585 0.620599
Si Si5 0.361105 0.244282 0.215479
O O1 0.668382 0.838581 0.500145
O O2 0.683603 0.851558 0.702613
O O3 0.882363 0.912553 0.579166
O O4 0.678315 0.034401 0.561910
O O5 0.840599 0.088976 0.411902
O O6 0.622354 0.189529 0.399246
O O7 0.608483 0.984148 0.378951
O O8 0.017439 0.742054 0.636566
O O9 0.000000 0.917265 0.750000
O O10 0.258488 0.172892 0.700031
O O11 0.500000 0.292238 0.250000
#
# Coordination Sequence:
#
# PCOD9456917 Si02
#       5
#     8   8   8   8   8
#     4  10  22  41  63  89 125 161 203 255 310 353
#     4   9  22  41  60  94 118 164 209 235 322 367
#     4  11  19  41  68  88 130 154 208 266 289 368
#     4   9  23  39  59  95 120 162 209 238 322 363
#     4  11  23  44  59  91 131 154 208 266 292 371
#
# _framework density 25.439617999999999
#
# number of rings (size 3 to 8) (size 9 to 14) (size 15 to 20)
#    1.200    0.800    4.000    0.600    2.800    2.400 
#    7.200    0.000    0.000    0.000    0.000    0.000 
#    0.000    0.000    0.000    0.000    0.000    0.000 
#
# Total GULP energy -223075.561886 kJ/mol
# GULP energy per Si atom -5576.889047 kJ/mol
# Density = 2.538172 g / cm^3
# Si number density = 25.439618 Si / 1000 Ang^3
#
#
#
# Elastic Constant Matrix: (Units=GPa)
#
#
# Indices 1 2 3 4 5 6 
#
# 1 109.3737 -9.6485 16.1521 0.0000 0.0000 0.0000
# 2 -9.6485 42.8505 -3.9811 0.0000 0.0000 0.0000
# 3 16.1521 -3.9811 78.8197 0.0000 0.0000 0.0000
# 4 0.0000 0.0000 0.0000 23.8720 0.0000 0.0000
# 5 0.0000 0.0000 0.0000 0.0000 39.0391 0.0000
# 6 0.0000 0.0000 0.0000 0.0000 0.0000 21.7166
#
#
#
# Elastic Compliance Matrix: (Units=1/GPa)
#
#
# Indices 1 2 3 4 5 6 
#
# 1 0.009594 0.001987 -0.001866 0.000000 0.000000 0.000000
# 2 0.001987 0.023858 0.000798 0.000000 0.000000 0.000000
# 3 -0.001866 0.000798 0.013110 0.000000 0.000000 0.000000
# 4 0.000000 0.000000 0.000000 0.041890 0.000000 0.000000
# 5 0.000000 0.000000 0.000000 0.000000 0.025615 0.000000
# 6 0.000000 0.000000 0.000000 0.000000 0.000000 0.046048
#
#
# Mechanical properties :
#
#
# Convention : Reuss Voigt Hill
#
# Bulk Modulus (GPa) = 20.66107 26.23212 23.44659
# Shear Modulus (GPa) = 28.66804 32.16030 30.41417
#
# Velocity S-wave (km/s) = 3.36058 3.55939 3.46141
# Velocity P-wave (km/s) = 4.81635 5.21788 5.02113
#
# Compressibility (1/GPa) = 0.04840022
#
# Stress axis : x y z
#
# Youngs Moduli (GPa) = 104.23452 41.91390 76.27878
#
# Poissons Ratio (x) = -0.08328 0.14231
# Poissons Ratio (y) = -0.20710 -0.06086
# Poissons Ratio (z) = 0.19446 -0.03344
#
# Static dielectric constant tensor:
#      x y z
#    x 2.033110 0.000000 0.000000 
#    y 0.000000 2.017130 0.000000 
#    z 0.000000 0.000000 2.026890 
# 
# From -- ./inp_files/15934.got.cif
#   From: 2010.05.17/outbox.cif.g08.bks.cpg/sg60_8_cif.got.tgz:15934.got - 2010.06.03 14:59:27.
