data_PCOD9456098
_publ_section_title
;
Structure prediction by ZEFSAII (Michael W. Deem and Ramdas Pophale) SiO2 
 PCOD9456098
Probable space group: P B C N
;
_chemical_formula_sum "Si O2"
_cell_formula_units_Z 64
_cell_length_a 7.927541
_cell_length_b 24.509358
_cell_length_c 14.418524
_cell_angle_alpha 90.000000
_cell_angle_beta 90.000000
_cell_angle_gamma 90.000000
_cell_volume 2801.503936
_symmetry_space_group_name_H-M "P B C N"
_symmetry_group_IT_number 60
_symmetry_cell_setting 'orthorhombic'
loop_
_space_group_symop_operation_xyz
x,y,z
1/2-x,1/2-y,1/2+z
1/2+x,1/2-y,-z
-x,y,1/2-z
-x,-y,-z
1/2+x,1/2+y,1/2-z
1/2-x,1/2+y,z
x,-y,1/2+z
loop_
_atom_site_type_symbol
_atom_site_label
_atom_site_fract_x
_atom_site_fract_y
_atom_site_fract_z
Si Si1 0.698449 0.809234 0.353067
Si Si2 0.691839 0.387877 0.007855
Si Si3 0.319846 0.200380 0.869450
Si Si4 0.176177 0.926969 0.944157
Si Si5 0.784297 0.316241 0.647020
Si Si6 0.680690 0.809183 0.856637
Si Si7 0.291343 0.534777 0.840065
Si Si8 0.318189 0.428466 0.142509
O O1 0.703752 0.803399 0.241113
O O2 0.508757 0.820491 0.387768
O O3 0.750458 0.749660 0.388986
O O4 0.805879 0.863276 0.369714
O O5 0.521211 0.414317 0.966637
O O6 0.784979 0.360199 0.922251
O O7 0.682404 0.335679 0.077647
O O8 0.785512 0.431525 0.073851
O O9 0.312282 0.264118 0.892752
O O10 0.251956 0.870118 0.910791
O O11 0.207838 0.971461 0.864910
O O12 0.244220 0.949524 0.042863
O O13 0.739999 0.322197 0.755866
O O14 0.980899 0.302011 0.648281
O O15 0.487853 0.553495 0.845941
O O16 0.229982 0.551904 0.737663
#
# Coordination Sequence:
#
# PCOD9456098 Si02
#       8
#     8   8   8   8   8   8   8   8
#     4  10  21  40  63  99 134 175 218 273 342 406
#     4  11  22  39  65  98 129 171 219 275 329 392
#     4  10  22  38  65  99 138 166 220 274 339 407
#     4  11  25  42  69  97 132 178 235 270 334 401
#     4  10  24  43  61  97 135 182 219 276 333 408
#     4  10  24  39  66  94 140 179 218 272 344 405
#     4  10  23  43  65  98 129 173 228 277 326 397
#     4  10  21  38  68  95 125 170 219 280 327 390
#
# _framework density 22.844873
#
# number of rings (size 3 to 8) (size 9 to 14) (size 15 to 20)
#    0.000    1.750    1.250    2.250    7.000    5.500 
#    0.000    0.625    8.250    0.000    0.000    0.000 
#    0.000    0.000    0.000    0.000    0.000    0.000 
#
# Total GULP energy -357336.549556 kJ/mol
# GULP energy per Si atom -5583.383587 kJ/mol
# Density = 2.279288 g / cm^3
# Si number density = 22.844873 Si / 1000 Ang^3
#
#
#
# Elastic Constant Matrix: (Units=GPa)
#
#
# Indices 1 2 3 4 5 6 
#
# 1 32.6322 14.2148 6.9654 0.0000 0.0000 0.0000
# 2 14.2148 114.6119 28.4871 0.0000 0.0000 0.0000
# 3 6.9654 28.4871 107.2225 0.0000 0.0000 0.0000
# 4 0.0000 0.0000 0.0000 27.0212 0.0000 0.0000
# 5 0.0000 0.0000 0.0000 0.0000 11.7765 0.0000
# 6 0.0000 0.0000 0.0000 0.0000 0.0000 -52.0827
#
#
#
# Elastic Compliance Matrix: (Units=1/GPa)
#
#
# Indices 1 2 3 4 5 6 
#
# 1 0.032519 -0.003756 -0.001115 0.000000 0.000000 0.000000
# 2 -0.003756 0.009776 -0.002353 0.000000 0.000000 0.000000
# 3 -0.001115 -0.002353 0.010024 0.000000 0.000000 0.000000
# 4 0.000000 0.000000 0.000000 0.037008 0.000000 0.000000
# 5 0.000000 0.000000 0.000000 0.000000 0.084915 0.000000
# 6 0.000000 0.000000 0.000000 0.000000 0.000000 -0.019200
#
#
# Mechanical properties :
#
#
# Convention : Reuss Voigt Hill
#
# Bulk Modulus (GPa) = 26.40563 39.31124 32.85844
# Shear Modulus (GPa) = 27.45555 10.99630 19.22593
#
# Velocity S-wave (km/s) = 3.47050 2.19634 2.90416
# Velocity P-wave (km/s) = 5.25765 4.86592 5.06557
#
# Compressibility (1/GPa) = 0.03787071
#
# Stress axis : x y z
#
# Youngs Moduli (GPa) = 30.75156 102.29281 99.76026
#
# Poissons Ratio (x) = 0.38422 0.11119
# Poissons Ratio (y) = 0.11551 0.23476
# Poissons Ratio (z) = 0.03427 0.24072
#
# Static dielectric constant tensor:
#      x y z
#    x 1.867170 0.000000 0.000000 
#    y 0.000000 1.824010 0.000000 
#    z 0.000000 0.000000 1.941320 
# 
# From -- ./inp_files/15406.got.cif
#   From: 2010.05.17/outbox.cif.g08.bks.cpg/sg60_8_cif.got.tgz:15406.got - 2010.06.03 14:59:27.
