data_PCOD9456154
_publ_section_title
;
Structure prediction by ZEFSAII (Michael W. Deem and Ramdas Pophale) SiO2 
 PCOD9456154
Probable space group: P B C N
;
_chemical_formula_sum "Si O2"
_cell_formula_units_Z 32
_cell_length_a 19.566361
_cell_length_b 8.420311
_cell_length_c 8.060249
_cell_angle_alpha 90.000000
_cell_angle_beta 90.000000
_cell_angle_gamma 90.000000
_cell_volume 1327.965073
_symmetry_space_group_name_H-M "P B C N"
_symmetry_group_IT_number 60
_symmetry_cell_setting 'orthorhombic'
loop_
_space_group_symop_operation_xyz
x,y,z
1/2-x,1/2-y,1/2+z
1/2+x,1/2-y,-z
-x,y,1/2-z
-x,-y,-z
1/2+x,1/2+y,1/2-z
1/2-x,1/2+y,z
x,-y,1/2+z
loop_
_atom_site_type_symbol
_atom_site_label
_atom_site_fract_x
_atom_site_fract_y
_atom_site_fract_z
Si Si1 0.209519 0.782749 0.998678
Si Si2 0.586256 0.878411 0.863264
Si Si3 0.453341 0.784249 0.008200
Si Si4 0.667596 0.384332 0.867791
O O1 0.186153 0.824486 0.814412
O O2 0.162406 0.643538 0.072351
O O3 0.287170 0.726773 0.011078
O O4 0.192286 0.936960 0.107445
O O5 0.534507 0.777339 0.980324
O O6 0.575251 0.821052 0.676301
O O7 0.563457 0.060355 0.882568
O O8 0.411595 0.640126 0.086683
#
# Coordination Sequence:
#
# PCOD9456154 Si02
#       4
#     8   8   8   8
#     4  12  25  42  63  88 120 157 200 247 298 354
#     4  10  21  39  63  91 123 159 199 243 294 352
#     4  10  21  39  63  91 123 159 199 243 294 352
#     4  12  25  42  63  88 120 157 200 247 298 354
#
# _framework density 24.097019
#
# number of rings (size 3 to 8) (size 9 to 14) (size 15 to 20)
#    0.000    1.000    0.000    7.500    0.000    4.000 
#    0.000    0.000    0.000    0.000    0.000    0.000 
#    0.000    0.000    0.000    0.000    0.000    0.000 
#
# Total GULP energy -179339.737689 kJ/mol
# GULP energy per Si atom -5604.366803 kJ/mol
# Density = 2.404217 g / cm^3
# Si number density = 24.097019 Si / 1000 Ang^3
#
#
#
# Elastic Constant Matrix: (Units=GPa)
#
#
# Indices 1 2 3 4 5 6 
#
# 1 82.0611 0.7821 -5.8786 0.0000 0.0000 0.0000
# 2 0.7821 50.8734 -11.5608 0.0000 0.0000 0.0000
# 3 -5.8786 -11.5608 95.9428 0.0000 0.0000 0.0000
# 4 0.0000 0.0000 0.0000 24.6048 0.0000 0.0000
# 5 0.0000 0.0000 0.0000 0.0000 33.6770 0.0000
# 6 0.0000 0.0000 0.0000 0.0000 0.0000 12.3944
#
#
#
# Elastic Compliance Matrix: (Units=1/GPa)
#
#
# Indices 1 2 3 4 5 6 
#
# 1 0.012240 -0.000018 0.000748 0.000000 0.000000 0.000000
# 2 -0.000018 0.020210 0.002434 0.000000 0.000000 0.000000
# 3 0.000748 0.002434 0.010762 0.000000 0.000000 0.000000
# 4 0.000000 0.000000 0.000000 0.040642 0.000000 0.000000
# 5 0.000000 0.000000 0.000000 0.000000 0.029694 0.000000
# 6 0.000000 0.000000 0.000000 0.000000 0.000000 0.080681
#
#
# Mechanical properties :
#
#
# Convention : Reuss Voigt Hill
#
# Bulk Modulus (GPa) = 20.18605 21.72919 20.95762
# Shear Modulus (GPa) = 24.46001 30.50423 27.48212
#
# Velocity S-wave (km/s) = 3.18946 3.56180 3.38076
# Velocity P-wave (km/s) = 4.68602 5.09433 4.89443
#
# Compressibility (1/GPa) = 0.04953915
#
# Stress axis : x y z
#
# Youngs Moduli (GPa) = 81.70076 49.48027 92.91958
#
# Poissons Ratio (x) = 0.00090 -0.06948
# Poissons Ratio (y) = 0.00149 -0.22618
# Poissons Ratio (z) = -0.06109 -0.12044
#
# Static dielectric constant tensor:
#      x y z
#    x 1.878180 0.000000 0.000000 
#    y 0.000000 1.887150 0.000000 
#    z 0.000000 0.000000 1.900060 
# 
# From -- ./inp_files/7137.got.cif
#   From: 2010.05.17/outbox.cif.g08.bks.cpg/sg60_4_cif.got.tgz:7137.got - 2010.06.03 14:59:27.
