data_PCOD9456004
_publ_section_title
;
Structure prediction by ZEFSAII (Michael W. Deem and Ramdas Pophale) SiO2 
 PCOD9456004
Probable space group: P B C N
;
_chemical_formula_sum "Si O2"
_cell_formula_units_Z 48
_cell_length_a 5.075547
_cell_length_b 25.182048
_cell_length_c 18.024192
_cell_angle_alpha 90.000000
_cell_angle_beta 90.000000
_cell_angle_gamma 90.000000
_cell_volume 2303.720071
_symmetry_space_group_name_H-M "P B C N"
_symmetry_group_IT_number 60
_symmetry_cell_setting 'orthorhombic'
loop_
_space_group_symop_operation_xyz
x,y,z
1/2-x,1/2-y,1/2+z
1/2+x,1/2-y,-z
-x,y,1/2-z
-x,-y,-z
1/2+x,1/2+y,1/2-z
1/2-x,1/2+y,z
x,-y,1/2+z
loop_
_atom_site_type_symbol
_atom_site_label
_atom_site_fract_x
_atom_site_fract_y
_atom_site_fract_z
Si Si1 0.300810 0.015429 0.563509
Si Si2 0.640423 0.656843 0.600297
Si Si3 0.430715 0.669165 0.331294
Si Si4 0.943534 0.910223 0.959425
Si Si5 0.563208 0.242148 0.331784
Si Si6 0.378137 0.107897 0.668950
O O1 0.419262 0.051782 0.627425
O O2 0.105619 0.054146 0.518336
O O3 0.500000 0.000000 0.500000
O O4 0.197866 0.957584 0.586153
O O5 0.677295 0.631646 0.518485
O O6 0.521312 0.715641 0.606066
O O7 0.425107 0.623988 0.650968
O O8 0.931630 0.652475 0.633820
O O9 0.500000 0.646256 0.250000
O O10 0.436173 0.626848 0.396817
O O11 0.142312 0.694066 0.332116
O O12 0.647401 0.716853 0.339795
O O13 0.500000 0.267696 0.250000
O O14 0.500000 0.102587 0.750000
#
# Coordination Sequence:
#
# PCOD9456004 Si02
#       6
#     8   8   8   8   8   8
#     4  10  21  42  61  84 124 159 196 255 305 351
#     4  11  22  38  64  89 122 159 196 252 301 357
#     4  10  23  41  60  89 123 160 202 245 293 362
#     4  10  23  40  61  87 120 161 202 246 307 356
#     4  10  21  38  59  87 123 157 197 250 302 347
#     4  11  22  38  61  93 120 155 205 247 299 363
#
# _framework density 20.835863
#
# number of rings (size 3 to 8) (size 9 to 14) (size 15 to 20)
#    0.000    1.667    1.667    2.500    2.333    2.667 
#    3.000    0.000    0.000    0.000    0.000    0.000 
#    0.000    0.000    0.000    0.000    0.000    0.000 
#
# Total GULP energy -267212.936976 kJ/mol
# GULP energy per Si atom -5566.936187 kJ/mol
# Density = 2.078844 g / cm^3
# Si number density = 20.835863 Si / 1000 Ang^3
#
#
#
# Elastic Constant Matrix: (Units=GPa)
#
#
# Indices 1 2 3 4 5 6 
#
# 1 51.8502 -8.5028 -11.0383 0.0000 0.0000 0.0000
# 2 -8.5028 61.4159 30.0203 0.0000 0.0000 0.0000
# 3 -11.0383 30.0203 72.5495 0.0000 0.0000 0.0000
# 4 0.0000 0.0000 0.0000 22.5898 0.0000 0.0000
# 5 0.0000 0.0000 0.0000 0.0000 13.9998 0.0000
# 6 0.0000 0.0000 0.0000 0.0000 0.0000 -16.4445
#
#
#
# Elastic Compliance Matrix: (Units=1/GPa)
#
#
# Indices 1 2 3 4 5 6 
#
# 1 0.020058 0.001611 0.002385 0.000000 0.000000 0.000000
# 2 0.001611 0.020540 -0.008254 0.000000 0.000000 0.000000
# 3 0.002385 -0.008254 0.017562 0.000000 0.000000 0.000000
# 4 0.000000 0.000000 0.000000 0.044268 0.000000 0.000000
# 5 0.000000 0.000000 0.000000 0.000000 0.071430 0.000000
# 6 0.000000 0.000000 0.000000 0.000000 0.000000 -0.060811
#
#
# Mechanical properties :
#
#
# Convention : Reuss Voigt Hill
#
# Bulk Modulus (GPa) = 20.14312 22.97490 21.55901
# Shear Modulus (GPa) = 36.20270 15.71811 25.96041
#
# Velocity S-wave (km/s) = 4.17288 2.74957 3.53363
# Velocity P-wave (km/s) = 5.73635 4.59682 5.19791
#
# Compressibility (1/GPa) = 0.04964475
#
# Stress axis : x y z
#
# Youngs Moduli (GPa) = 49.85463 48.68510 56.94076
#
# Poissons Ratio (x) = -0.07844 -0.13581
# Poissons Ratio (y) = -0.08032 0.47000
# Poissons Ratio (z) = -0.11891 0.40186
#
# Static dielectric constant tensor:
#      x y z
#    x 1.764030 0.000000 0.000000 
#    y 0.000000 1.328810 0.000000 
#    z 0.000000 0.000000 1.786520 
# 
# From -- ./inp_files/18700.got.cif
#   From: 2010.05.17/outbox.cif.g08.bks.cpg/sg60_10_cif.got.tgz:18700.got - 2010.06.03 14:59:27.
