data_PCOD9456268
_publ_section_title
;
Structure prediction by ZEFSAII (Michael W. Deem and Ramdas Pophale) SiO2 
 PCOD9456268
Probable space group: P B C N
;
_chemical_formula_sum "Si O2"
_cell_formula_units_Z 64
_cell_length_a 22.409515
_cell_length_b 11.156607
_cell_length_c 13.361675
_cell_angle_alpha 90.000000
_cell_angle_beta 90.000000
_cell_angle_gamma 90.000000
_cell_volume 3340.607843
_symmetry_space_group_name_H-M "P B C N"
_symmetry_group_IT_number 60
_symmetry_cell_setting 'orthorhombic'
loop_
_space_group_symop_operation_xyz
x,y,z
1/2-x,1/2-y,1/2+z
1/2+x,1/2-y,-z
-x,y,1/2-z
-x,-y,-z
1/2+x,1/2+y,1/2-z
1/2-x,1/2+y,z
x,-y,1/2+z
loop_
_atom_site_type_symbol
_atom_site_label
_atom_site_fract_x
_atom_site_fract_y
_atom_site_fract_z
Si Si1 0.736969 0.577715 0.566206
Si Si2 0.641306 0.848730 0.144825
Si Si3 0.894750 0.911080 0.018706
Si Si4 0.062942 0.451812 0.962987
Si Si5 0.614307 0.319676 0.461413
Si Si6 0.991700 0.772563 0.133990
Si Si7 0.369262 0.193568 0.630072
Si Si8 0.758077 0.824591 0.444644
O O1 0.790444 0.600300 0.645050
O O2 0.665918 0.588886 0.586452
O O3 0.748494 0.694220 0.495862
O O4 0.743889 0.445194 0.515020
O O5 0.616382 0.813301 0.253177
O O6 0.601890 0.951569 0.094281
O O7 0.633640 0.738058 0.067641
O O8 0.953152 0.874062 0.079224
O O9 0.883910 0.818057 0.927077
O O10 0.902147 0.042991 0.976390
O O11 0.048041 0.344244 0.887404
O O12 0.097724 0.402740 0.060018
O O13 0.000000 0.500000 0.000000
O O14 0.556901 0.256195 0.415305
O O15 0.675776 0.318346 0.398548
O O16 0.000000 0.796821 0.250000
O O17 0.298923 0.166395 0.625128
#
# Coordination Sequence:
#
# PCOD9456268 Si02
#       8
#     8   8   8   8   8   8   8   8
#     4   9  18  37  62  87 122 164 201 259 319 361
#     4  11  22  37  67  95 120 164 218 254 315 385
#     4   9  21  42  63  86 132 161 202 267 312 364
#     4  11  23  41  59  85 131 158 202 264 308 362
#     4  10  21  40  64  88 126 166 206 264 309 370
#     4  11  24  39  60  87 121 167 208 246 319 376
#     4  10  22  39  63  95 123 168 210 259 320 373
#     4   9  18  37  61  85 127 161 203 262 317 361
#
# _framework density 19.158190999999999
#
# number of rings (size 3 to 8) (size 9 to 14) (size 15 to 20)
#    0.000    2.000    2.500    0.375    1.750    2.000 
#    0.000   10.000    0.000    0.000    0.000    0.000 
#    0.000    0.000    0.000    0.000    0.000    0.000 
#
# Total GULP energy -356418.694444 kJ/mol
# GULP energy per Si atom -5569.042101 kJ/mol
# Density = 1.911459 g / cm^3
# Si number density = 19.158191 Si / 1000 Ang^3
#
#
#
# Elastic Constant Matrix: (Units=GPa)
#
#
# Indices 1 2 3 4 5 6 
#
# 1 100.4327 12.3019 34.3641 0.0000 0.0000 0.0000
# 2 12.3019 68.8787 18.7753 0.0000 0.0000 0.0000
# 3 34.3641 18.7753 89.9229 0.0000 0.0000 0.0000
# 4 0.0000 0.0000 0.0000 -2.2317 0.0000 0.0000
# 5 0.0000 0.0000 0.0000 0.0000 13.3985 0.0000
# 6 0.0000 0.0000 0.0000 0.0000 0.0000 18.3795
#
#
#
# Elastic Compliance Matrix: (Units=1/GPa)
#
#
# Indices 1 2 3 4 5 6 
#
# 1 0.011508 -0.000908 -0.004208 0.000000 0.000000 0.000000
# 2 -0.000908 0.015466 -0.002882 0.000000 0.000000 0.000000
# 3 -0.004208 -0.002882 0.013331 0.000000 0.000000 0.000000
# 4 0.000000 0.000000 0.000000 -0.448081 0.000000 0.000000
# 5 0.000000 0.000000 0.000000 0.000000 0.074635 0.000000
# 6 0.000000 0.000000 0.000000 0.000000 0.000000 0.054409
#
#
# Mechanical properties :
#
#
# Convention : Reuss Voigt Hill
#
# Bulk Modulus (GPa) = 41.13942 43.34632 42.24287
# Shear Modulus (GPa) = -19.63610 18.82878 -0.40366
#
# Velocity S-wave (km/s) = -3.20495 3.13837 -0.45952
# Velocity P-wave (km/s) = 2.79724 5.98390 4.67074
#
# Compressibility (1/GPa) = 0.02430758
#
# Stress axis : x y z
#
# Youngs Moduli (GPa) = 86.89582 64.65751 75.01563
#
# Poissons Ratio (x) = 0.05873 0.31568
# Poissons Ratio (y) = 0.07893 0.21620
# Poissons Ratio (z) = 0.36567 0.18635
#
# Static dielectric constant tensor:
#      x y z
#    x 1.703360 0.000000 0.000000 
#    y 0.000000 1.691940 0.000000 
#    z 0.000000 0.000000 1.787570 
# 
# From -- ./inp_files/13155.got.cif
#   From: 2010.05.17/outbox.cif.g08.bks.cpg/sg60_7_cif.got.tgz:13155.got - 2010.06.03 14:59:27.
