data_PCOD9456435
_publ_section_title
;
Structure prediction by ZEFSAII (Michael W. Deem and Ramdas Pophale) SiO2 
 PCOD9456435
Probable space group: P B C N
;
_chemical_formula_sum "Si O2"
_cell_formula_units_Z 40
_cell_length_a 15.086425
_cell_length_b 7.780607
_cell_length_c 15.823555
_cell_angle_alpha 90.000000
_cell_angle_beta 90.000000
_cell_angle_gamma 90.000000
_cell_volume 1857.393317
_symmetry_space_group_name_H-M "P B C N"
_symmetry_group_IT_number 60
_symmetry_cell_setting 'orthorhombic'
loop_
_space_group_symop_operation_xyz
x,y,z
1/2-x,1/2-y,1/2+z
1/2+x,1/2-y,-z
-x,y,1/2-z
-x,-y,-z
1/2+x,1/2+y,1/2-z
1/2-x,1/2+y,z
x,-y,1/2+z
loop_
_atom_site_type_symbol
_atom_site_label
_atom_site_fract_x
_atom_site_fract_y
_atom_site_fract_z
Si Si1 0.181893 0.238112 0.832039
Si Si2 0.040680 0.325726 0.959231
Si Si3 0.128940 0.856682 0.809792
Si Si4 0.567145 0.742231 0.362582
Si Si5 0.920195 0.634942 0.317940
O O1 0.125252 0.352135 0.897992
O O2 0.286860 0.248588 0.839949
O O3 0.160500 0.293946 0.735875
O O4 0.144118 0.047697 0.843232
O O5 0.960836 0.263459 0.897869
O O6 0.072217 0.210516 0.037632
O O7 0.000000 0.500000 0.000000
O O8 0.119477 0.865544 0.707628
O O9 0.036858 0.777696 0.840716
O O10 0.595965 0.938981 0.344947
O O11 0.000000 0.634250 0.250000
#
# Coordination Sequence:
#
# PCOD9456435 Si02
#       5
#     8   8   8   8   8
#     4  11  24  41  64  97 125 175 218 267 318 394
#     4   9  21  39  69  92 122 162 218 264 332 377
#     4  11  24  39  64  90 134 170 217 258 328 380
#     4  10  21  42  63  93 127 169 211 269 325 390
#     4   9  17  37  67  84 122 165 208 255 327 384
#
# _framework density 21.535556
#
# number of rings (size 3 to 8) (size 9 to 14) (size 15 to 20)
#    0.000    2.000    2.000    1.200   14.000    0.800 
#    3.600    0.000    0.000    0.000    0.000    0.000 
#    0.000    0.000    0.000    0.000    0.000    0.000 
#
# Total GULP energy -223079.255279 kJ/mol
# GULP energy per Si atom -5576.981382 kJ/mol
# Density = 2.148654 g / cm^3
# Si number density = 21.535556 Si / 1000 Ang^3
#
#
#
# Elastic Constant Matrix: (Units=GPa)
#
#
# Indices 1 2 3 4 5 6 
#
# 1 91.6207 7.9622 16.9492 0.0000 0.0000 0.0000
# 2 7.9622 50.4252 1.3389 0.0000 0.0000 0.0000
# 3 16.9492 1.3389 123.7875 0.0000 0.0000 0.0000
# 4 0.0000 0.0000 0.0000 7.2605 0.0000 0.0000
# 5 0.0000 0.0000 0.0000 0.0000 9.8538 0.0000
# 6 0.0000 0.0000 0.0000 0.0000 0.0000 13.3594
#
#
#
# Elastic Compliance Matrix: (Units=1/GPa)
#
#
# Indices 1 2 3 4 5 6 
#
# 1 0.011351 -0.001752 -0.001535 0.000000 0.000000 0.000000
# 2 -0.001752 0.020107 0.000022 0.000000 0.000000 0.000000
# 3 -0.001535 0.000022 0.008288 0.000000 0.000000 0.000000
# 4 0.000000 0.000000 0.000000 0.137732 0.000000 0.000000
# 5 0.000000 0.000000 0.000000 0.000000 0.101484 0.000000
# 6 0.000000 0.000000 0.000000 0.000000 0.000000 0.074854
#
#
# Mechanical properties :
#
#
# Convention : Reuss Voigt Hill
#
# Bulk Modulus (GPa) = 30.10452 35.37044 32.73748
# Shear Modulus (GPa) = 13.46195 22.06693 17.76444
#
# Velocity S-wave (km/s) = 2.50292 3.20453 2.87520
# Velocity P-wave (km/s) = 4.72886 5.49107 5.12416
#
# Compressibility (1/GPa) = 0.03321760
#
# Stress axis : x y z
#
# Youngs Moduli (GPa) = 88.09963 49.73307 120.65163
#
# Poissons Ratio (x) = 0.08711 0.18523
# Poissons Ratio (y) = 0.15431 -0.00270
# Poissons Ratio (z) = 0.13525 -0.00111
#
# Static dielectric constant tensor:
#      x y z
#    x 1.768170 0.000000 0.000000 
#    y 0.000000 1.818930 0.000000 
#    z 0.000000 0.000000 1.862290 
# 
# From -- ./inp_files/20406.got.cif
#   From: 2010.05.17/outbox.cif.g08.bks.cpg/sg60_11_cif.got.tgz:20406.got - 2010.06.03 14:59:27.
