data_PCOD9456036
_publ_section_title
;
Structure prediction by ZEFSAII (Michael W. Deem and Ramdas Pophale) SiO2 
 PCOD9456036
Probable space group: P B C N
;
_chemical_formula_sum "Si O2"
_cell_formula_units_Z 56
_cell_length_a 15.561370
_cell_length_b 20.727121
_cell_length_c 9.184064
_cell_angle_alpha 90.000000
_cell_angle_beta 90.000000
_cell_angle_gamma 90.000000
_cell_volume 2962.250034
_symmetry_space_group_name_H-M "P B C N"
_symmetry_group_IT_number 60
_symmetry_cell_setting 'orthorhombic'
loop_
_space_group_symop_operation_xyz
x,y,z
1/2-x,1/2-y,1/2+z
1/2+x,1/2-y,-z
-x,y,1/2-z
-x,-y,-z
1/2+x,1/2+y,1/2-z
1/2-x,1/2+y,z
x,-y,1/2+z
loop_
_atom_site_type_symbol
_atom_site_label
_atom_site_fract_x
_atom_site_fract_y
_atom_site_fract_z
Si Si1 0.544871 0.946161 0.402518
Si Si2 0.481880 0.718187 0.592336
Si Si3 0.953108 0.366564 0.893063
Si Si4 0.738875 0.042156 0.811430
Si Si5 0.697304 0.317747 0.394098
Si Si6 0.235341 0.418446 0.525499
Si Si7 0.821755 0.783713 0.051305
O O1 0.500000 0.948011 0.250000
O O2 0.519358 0.879682 0.477568
O O3 0.644160 0.956203 0.380698
O O4 0.500000 0.000000 0.500000
O O5 0.500000 0.686267 0.750000
O O6 0.447067 0.790353 0.621940
O O7 0.396433 0.686054 0.529223
O O8 0.575801 0.721514 0.521147
O O9 0.861110 0.397848 0.925223
O O10 0.000000 0.393490 0.750000
O O11 0.782147 0.106866 0.873023
O O12 0.733119 0.050686 0.636969
O O13 0.772601 0.972585 0.865082
O O14 0.692238 0.288997 0.227566
O O15 0.767198 0.275500 0.482992
O O16 0.287169 0.351450 0.513360
#
# Coordination Sequence:
#
# PCOD9456036 Si02
#       7
#     8   8   8   8   8   8   8
#     4  12  21  32  48  75 112 148 185 223 283 347
#     4   9  19  38  61  85 114 149 196 238 295 353
#     4  11  21  33  57  84 112 151 186 235 291 356
#     4  11  23  37  54  82 119 157 191 242 289 348
#     4  10  21  38  62  88 116 153 197 244 298 349
#     4  11  23  38  56  84 121 154 197 239 293 351
#     4  10  21  40  62  88 116 154 198 249 291 351
#
# _framework density 18.90455
#
# number of rings (size 3 to 8) (size 9 to 14) (size 15 to 20)
#    0.000    1.429    4.286    1.286    2.000    1.143 
#    0.000    1.429    0.000    0.000    0.000    0.000 
#    0.000    0.000    0.000    0.000    0.000    0.000 
#
# Total GULP energy -312156.709693 kJ/mol
# GULP energy per Si atom -5574.226959 kJ/mol
# Density = 1.886152 g / cm^3
# Si number density = 18.904550 Si / 1000 Ang^3
#
#
#
# Elastic Constant Matrix: (Units=GPa)
#
#
# Indices 1 2 3 4 5 6 
#
# 1 122.2253 36.2188 25.6289 0.0000 0.0000 0.0000
# 2 36.2188 89.5560 27.2889 0.0000 0.0000 0.0000
# 3 25.6289 27.2889 65.6052 0.0000 0.0000 0.0000
# 4 0.0000 0.0000 0.0000 29.6316 0.0000 0.0000
# 5 0.0000 0.0000 0.0000 0.0000 20.9172 0.0000
# 6 0.0000 0.0000 0.0000 0.0000 0.0000 28.0916
#
#
#
# Elastic Compliance Matrix: (Units=1/GPa)
#
#
# Indices 1 2 3 4 5 6 
#
# 1 0.009628 -0.003147 -0.002452 0.000000 0.000000 0.000000
# 2 -0.003147 0.013815 -0.004517 0.000000 0.000000 0.000000
# 3 -0.002452 -0.004517 0.018080 0.000000 0.000000 0.000000
# 4 0.000000 0.000000 0.000000 0.033748 0.000000 0.000000
# 5 0.000000 0.000000 0.000000 0.000000 0.047808 0.000000
# 6 0.000000 0.000000 0.000000 0.000000 0.000000 0.035598
#
#
# Mechanical properties :
#
#
# Convention : Reuss Voigt Hill
#
# Bulk Modulus (GPa) = 46.96927 50.62885 48.79906
# Shear Modulus (GPa) = 26.88084 28.27807 27.57946
#
# Velocity S-wave (km/s) = 3.77493 3.87180 3.82367
# Velocity P-wave (km/s) = 6.62568 6.84304 6.73523
#
# Compressibility (1/GPa) = 0.02129052
#
# Stress axis : x y z
#
# Youngs Moduli (GPa) = 103.86048 72.38378 55.31047
#
# Poissons Ratio (x) = 0.22777 0.13565
# Poissons Ratio (y) = 0.32681 0.24985
# Poissons Ratio (z) = 0.25472 0.32698
#
# Static dielectric constant tensor:
#      x y z
#    x 1.687630 0.000000 0.000000 
#    y 0.000000 1.729400 0.000000 
#    z 0.000000 0.000000 1.685450 
# 
# From -- ./inp_files/6157.got.cif
#   From: 2010.05.17/outbox.cif.g08.bks.cpg/sg60_4_cif.got.tgz:6157.got - 2010.06.03 14:59:27.
