data_PCOD9456907
_publ_section_title
;
Structure prediction by ZEFSAII (Michael W. Deem and Ramdas Pophale) SiO2 
 PCOD9456907
Probable space group: P B C N
;
_chemical_formula_sum "Si O2"
_cell_formula_units_Z 60
_cell_length_a 31.170793
_cell_length_b 5.287001
_cell_length_c 16.176799
_cell_angle_alpha 90.000000
_cell_angle_beta 90.000000
_cell_angle_gamma 90.000000
_cell_volume 2665.936698
_symmetry_space_group_name_H-M "P B C N"
_symmetry_group_IT_number 60
_symmetry_cell_setting 'orthorhombic'
loop_
_space_group_symop_operation_xyz
x,y,z
1/2-x,1/2-y,1/2+z
1/2+x,1/2-y,-z
-x,y,1/2-z
-x,-y,-z
1/2+x,1/2+y,1/2-z
1/2-x,1/2+y,z
x,-y,1/2+z
loop_
_atom_site_type_symbol
_atom_site_label
_atom_site_fract_x
_atom_site_fract_y
_atom_site_fract_z
Si Si1 0.079094 0.483809 0.819900
Si Si2 0.557637 0.060963 0.993391
Si Si3 0.457946 0.555453 0.596200
Si Si4 0.276130 0.601913 0.105600
Si Si5 0.275447 0.390114 0.805698
Si Si6 0.000000 0.229732 0.750000
Si Si7 0.127774 0.978814 0.856339
Si Si8 0.626787 0.602120 0.453924
O O1 0.057016 0.480280 0.909829
O O2 0.041881 0.404868 0.757498
O O3 0.101440 0.754294 0.812308
O O4 0.113008 0.252713 0.823437
O O5 0.535505 0.321010 0.965062
O O6 0.607396 0.116139 0.967337
O O7 0.539484 0.827637 0.944654
O O8 0.490324 0.553115 0.671855
O O9 0.406416 0.518117 0.612197
O O10 0.250599 0.854104 0.080350
O O11 0.278999 0.604446 0.205684
O O12 0.324191 0.596043 0.070790
O O13 0.244597 0.621599 0.830267
O O14 0.322274 0.433645 0.842125
O O15 0.119365 0.976286 0.955561
#
# Coordination Sequence:
#
# PCOD9456907 Si02
#       8
#     8   8   8   8   8   4   8   8
#     4  11  24  44  63 100 126 172 219 276 330 394
#     4   9  20  43  66  86 126 170 208 257 333 381
#     4  10  23  42  64  94 124 168 209 275 320 391
#     4  10  23  36  59  92 129 166 206 258 316 380
#     4  10  22  41  60  96 133 171 209 263 322 382
#     4  12  30  42  68 102 132 162 234 272 336 396
#     4  11  23  42  70  92 130 174 220 265 330 391
#     4   9  22  40  66  89 125 164 219 257 321 381
#
# _framework density 22.506160999999999
#
# number of rings (size 3 to 8) (size 9 to 14) (size 15 to 20)
#    0.800    1.067    1.333    0.800    3.733    6.400 
#    0.000    0.000    0.000    0.000    0.000    0.000 
#    0.000    0.000    0.000    0.000    0.000    0.000 
#
# Total GULP energy -335419.964175 kJ/mol
# GULP energy per Si atom -5590.332736 kJ/mol
# Density = 2.245494 g / cm^3
# Si number density = 22.506161 Si / 1000 Ang^3
#
#
#
# Elastic Constant Matrix: (Units=GPa)
#
#
# Indices 1 2 3 4 5 6 
#
# 1 129.3588 19.5322 9.4937 0.0000 0.0000 0.0000
# 2 19.5322 114.6696 13.5634 0.0000 0.0000 0.0000
# 3 9.4937 13.5634 25.0482 0.0000 0.0000 0.0000
# 4 0.0000 0.0000 0.0000 4.8637 0.0000 0.0000
# 5 0.0000 0.0000 0.0000 0.0000 42.8487 0.0000
# 6 0.0000 0.0000 0.0000 0.0000 0.0000 20.6549
#
#
#
# Elastic Compliance Matrix: (Units=1/GPa)
#
#
# Indices 1 2 3 4 5 6 
#
# 1 0.008076 -0.001083 -0.002474 0.000000 0.000000 0.000000
# 2 -0.001083 0.009463 -0.004714 0.000000 0.000000 0.000000
# 3 -0.002474 -0.004714 0.043413 0.000000 0.000000 0.000000
# 4 0.000000 0.000000 0.000000 0.205603 0.000000 0.000000
# 5 0.000000 0.000000 0.000000 0.000000 0.023338 0.000000
# 6 0.000000 0.000000 0.000000 0.000000 0.000000 0.048415
#
#
# Mechanical properties :
#
#
# Convention : Reuss Voigt Hill
#
# Bulk Modulus (GPa) = 22.51758 39.36171 30.93964
# Shear Modulus (GPa) = 13.52623 28.77262 21.14943
#
# Velocity S-wave (km/s) = 2.45419 3.57940 3.06881
# Velocity P-wave (km/s) = 4.24942 5.88303 5.13165
#
# Compressibility (1/GPa) = 0.04440975
#
# Stress axis : x y z
#
# Youngs Moduli (GPa) = 123.83076 105.67825 23.03450
#
# Poissons Ratio (x) = 0.11444 0.05700
# Poissons Ratio (y) = 0.13409 0.10857
# Poissons Ratio (z) = 0.30641 0.49812
#
# Static dielectric constant tensor:
#      x y z
#    x 1.836870 0.000000 0.000000 
#    y 0.000000 1.820440 0.000000 
#    z 0.000000 0.000000 1.856410 
# 
# From -- ./inp_files/21215.got.cif
#   From: 2010.05.17/outbox.cif.g08.bks.cpg/sg60_11_cif.got.tgz:21215.got - 2010.06.03 14:59:27.
