data_PCOD9456995
_publ_section_title
;
Structure prediction by ZEFSAII (Michael W. Deem and Ramdas Pophale) SiO2 
 PCOD9456995
Probable space group: P B C N
;
_chemical_formula_sum "Si O2"
_cell_formula_units_Z 40
_cell_length_a 8.943393
_cell_length_b 23.334288
_cell_length_c 8.573704
_cell_angle_alpha 90.000000
_cell_angle_beta 90.000000
_cell_angle_gamma 90.000000
_cell_volume 1789.226636
_symmetry_space_group_name_H-M "P B C N"
_symmetry_group_IT_number 60
_symmetry_cell_setting 'orthorhombic'
loop_
_space_group_symop_operation_xyz
x,y,z
1/2-x,1/2-y,1/2+z
1/2+x,1/2-y,-z
-x,y,1/2-z
-x,-y,-z
1/2+x,1/2+y,1/2-z
1/2-x,1/2+y,z
x,-y,1/2+z
loop_
_atom_site_type_symbol
_atom_site_label
_atom_site_fract_x
_atom_site_fract_y
_atom_site_fract_z
Si Si1 0.665208 0.234797 0.175812
Si Si2 0.404366 0.545505 0.099610
Si Si3 0.246165 0.161643 0.033817
Si Si4 0.384487 0.970608 0.114745
Si Si5 0.934597 0.350408 0.422221
O O1 0.500000 0.242082 0.250000
O O2 0.759259 0.198499 0.304374
O O3 0.721816 0.295741 0.112288
O O4 0.649028 0.198954 0.015663
O O5 0.500000 0.559649 0.250000
O O6 0.358906 0.606095 0.023826
O O7 0.252293 0.512220 0.147403
O O8 0.500000 0.500000 0.000000
O O9 0.415410 0.138230 0.022905
O O10 0.500000 0.956781 0.250000
O O11 0.332624 0.907104 0.068958
O O12 0.500000 0.000000 0.000000
O O13 0.000000 0.336674 0.250000
#
# Coordination Sequence:
#
# PCOD9456995 Si02
#       5
#     8   8   8   8   8
#     4  10  24  43  72 103 141 188 249 310 369 444
#     4  12  29  46  68 111 155 195 239 310 393 449
#     4  11  24  46  70 104 143 193 245 311 379 451
#     4  11  23  43  74  99 136 188 243 291 350 449
#     4  10  22  41  72 101 130 185 248 295 356 448
#
# _framework density 22.356027000000001
#
# number of rings (size 3 to 8) (size 9 to 14) (size 15 to 20)
#    0.000    1.200    2.000    2.400    8.400    4.800 
#    0.000    0.000    0.000    0.000    0.000    0.000 
#    0.000    0.000    0.000    0.000    0.000    0.000 
#
# Total GULP energy -223255.482351 kJ/mol
# GULP energy per Si atom -5581.387059 kJ/mol
# Density = 2.230514 g / cm^3
# Si number density = 22.356027 Si / 1000 Ang^3
#
#
#
# Elastic Constant Matrix: (Units=GPa)
#
#
# Indices 1 2 3 4 5 6 
#
# 1 66.0891 43.7160 -0.9932 0.0000 0.0000 0.0000
# 2 43.7160 163.0391 42.1813 0.0000 0.0000 0.0000
# 3 -0.9932 42.1813 66.8354 0.0000 0.0000 0.0000
# 4 0.0000 0.0000 0.0000 28.4887 0.0000 0.0000
# 5 0.0000 0.0000 0.0000 0.0000 28.9717 0.0000
# 6 0.0000 0.0000 0.0000 0.0000 0.0000 39.0449
#
#
#
# Elastic Compliance Matrix: (Units=1/GPa)
#
#
# Indices 1 2 3 4 5 6 
#
# 1 0.019357 -0.006292 0.004259 0.000000 0.000000 0.000000
# 2 -0.006292 0.009376 -0.006011 0.000000 0.000000 0.000000
# 3 0.004259 -0.006011 0.018819 0.000000 0.000000 0.000000
# 4 0.000000 0.000000 0.000000 0.035102 0.000000 0.000000
# 5 0.000000 0.000000 0.000000 0.000000 0.034516 0.000000
# 6 0.000000 0.000000 0.000000 0.000000 0.000000 0.025612
#
#
# Mechanical properties :
#
#
# Convention : Reuss Voigt Hill
#
# Bulk Modulus (GPa) = 31.78278 51.75243 41.76760
# Shear Modulus (GPa) = 29.52338 33.37169 31.44753
#
# Velocity S-wave (km/s) = 3.63795 3.86779 3.75463
# Velocity P-wave (km/s) = 5.64745 6.56855 6.12534
#
# Compressibility (1/GPa) = 0.03146358
#
# Stress axis : x y z
#
# Youngs Moduli (GPa) = 51.66062 106.65880 53.13802
#
# Poissons Ratio (x) = 0.67110 -0.22630
# Poissons Ratio (y) = 0.32505 0.31940
# Poissons Ratio (z) = -0.22001 0.64110
#
# Static dielectric constant tensor:
#      x y z
#    x 1.782420 0.000000 0.000000 
#    y 0.000000 1.762330 0.000000 
#    z 0.000000 0.000000 1.782620 
# 
# From -- ./inp_files/3821.got.cif
#   From: 2010.05.17/outbox.cif.g08.bks.cpg/sg60_2_cif.got.tgz:3821.got - 2010.06.03 14:59:27.
