data_PCOD9456406
_publ_section_title
;
Structure prediction by ZEFSAII (Michael W. Deem and Ramdas Pophale) SiO2 
 PCOD9456406
Probable space group: P B C N
;
_chemical_formula_sum "Si O2"
_cell_formula_units_Z 32
_cell_length_a 9.540566
_cell_length_b 11.224497
_cell_length_c 11.423922
_cell_angle_alpha 90.000000
_cell_angle_beta 90.000000
_cell_angle_gamma 90.000000
_cell_volume 1223.365581
_symmetry_space_group_name_H-M "P B C N"
_symmetry_group_IT_number 60
_symmetry_cell_setting 'orthorhombic'
loop_
_space_group_symop_operation_xyz
x,y,z
1/2-x,1/2-y,1/2+z
1/2+x,1/2-y,-z
-x,y,1/2-z
-x,-y,-z
1/2+x,1/2+y,1/2-z
1/2-x,1/2+y,z
x,-y,1/2+z
loop_
_atom_site_type_symbol
_atom_site_label
_atom_site_fract_x
_atom_site_fract_y
_atom_site_fract_z
Si Si1 0.612254 0.351546 0.476883
Si Si2 0.326305 0.321535 0.612755
Si Si3 0.182255 0.577950 0.334293
Si Si4 0.000000 0.375095 0.250000
Si Si5 0.500000 0.707362 0.750000
O O1 0.463415 0.359068 0.541521
O O2 0.696420 0.224730 0.466080
O O3 0.718684 0.427209 0.553920
O O4 0.582138 0.372442 0.341217
O O5 0.267574 0.408905 0.712603
O O6 0.388845 0.208079 0.684672
O O7 0.081336 0.465602 0.333938
O O8 0.092926 0.701110 0.327561
#
# Coordination Sequence:
#
# PCOD9456406 Si02
#       5
#     8   8   8   4   4
#     4  11  20  41  72  99 144 191 235 299 360 420
#     4  11  23  43  75 101 145 190 232 299 367 413
#     4  10  21  41  69 105 137 185 249 287 353 438
#     4  11  24  44  76 109 142 189 238 294 374 421
#     4   9  20  36  62 103 136 185 230 290 368 409
#
# _framework density 26.157347999999999
#
# number of rings (size 3 to 8) (size 9 to 14) (size 15 to 20)
#    0.000    1.500    5.000    0.000    0.000    1.000 
#    0.000    1.250   33.000    0.000    0.000    0.000 
#    0.000    0.000    0.000    0.000    0.000    0.000 
#
# Total GULP energy -179138.284996 kJ/mol
# GULP energy per Si atom -5598.071406 kJ/mol
# Density = 2.609781 g / cm^3
# Si number density = 26.157348 Si / 1000 Ang^3
#
#
#
# Elastic Constant Matrix: (Units=GPa)
#
#
# Indices 1 2 3 4 5 6 
#
# 1 134.8113 15.4105 35.7083 0.0000 0.0000 0.0000
# 2 15.4105 59.7177 8.8828 0.0000 0.0000 0.0000
# 3 35.7083 8.8828 48.3153 0.0000 0.0000 0.0000
# 4 0.0000 0.0000 0.0000 7.1339 0.0000 0.0000
# 5 0.0000 0.0000 0.0000 0.0000 62.4342 0.0000
# 6 0.0000 0.0000 0.0000 0.0000 0.0000 19.2830
#
#
#
# Elastic Compliance Matrix: (Units=1/GPa)
#
#
# Indices 1 2 3 4 5 6 
#
# 1 0.009339 -0.001422 -0.006641 0.000000 0.000000 0.000000
# 2 -0.001422 0.017433 -0.002154 0.000000 0.000000 0.000000
# 3 -0.006641 -0.002154 0.026001 0.000000 0.000000 0.000000
# 4 0.000000 0.000000 0.000000 0.140175 0.000000 0.000000
# 5 0.000000 0.000000 0.000000 0.000000 0.016017 0.000000
# 6 0.000000 0.000000 0.000000 0.000000 0.000000 0.051859
#
#
# Mechanical properties :
#
#
# Convention : Reuss Voigt Hill
#
# Bulk Modulus (GPa) = 30.92193 40.31638 35.61915
# Shear Modulus (GPa) = 17.12099 29.95974 23.54037
#
# Velocity S-wave (km/s) = 2.56117 3.38800 3.00318
# Velocity P-wave (km/s) = 4.53798 5.54538 5.06678
#
# Compressibility (1/GPa) = 0.03233950
#
# Stress axis : x y z
#
# Youngs Moduli (GPa) = 107.07341 57.36288 38.45932
#
# Poissons Ratio (x) = 0.08158 0.25541
# Poissons Ratio (y) = 0.15229 0.08284
# Poissons Ratio (z) = 0.71107 0.12355
#
# Static dielectric constant tensor:
#      x y z
#    x 2.053100 0.000000 0.000000 
#    y 0.000000 2.097250 0.000000 
#    z 0.000000 0.000000 1.990780 
# 
# From -- ./inp_files/9633.got.cif
#   From: 2010.05.17/outbox.cif.g08.bks.cpg/sg60_5_cif.got.tgz:9633.got - 2010.06.03 14:59:27.
