data_PCOD9456882
_publ_section_title
;
Structure prediction by ZEFSAII (Michael W. Deem and Ramdas Pophale) SiO2 
 PCOD9456882
Probable space group: P B C N
;
_chemical_formula_sum "Si O2"
_cell_formula_units_Z 48
_cell_length_a 5.307418
_cell_length_b 29.312757
_cell_length_c 13.938123
_cell_angle_alpha 90.000000
_cell_angle_beta 90.000000
_cell_angle_gamma 90.000000
_cell_volume 2168.424240
_symmetry_space_group_name_H-M "P B C N"
_symmetry_group_IT_number 60
_symmetry_cell_setting 'orthorhombic'
loop_
_space_group_symop_operation_xyz
x,y,z
1/2-x,1/2-y,1/2+z
1/2+x,1/2-y,-z
-x,y,1/2-z
-x,-y,-z
1/2+x,1/2+y,1/2-z
1/2-x,1/2+y,z
x,-y,1/2+z
loop_
_atom_site_type_symbol
_atom_site_label
_atom_site_fract_x
_atom_site_fract_y
_atom_site_fract_z
Si Si1 0.745420 0.821275 0.191811
Si Si2 0.184640 0.883271 0.489746
Si Si3 0.246161 0.515573 0.944303
Si Si4 0.833000 0.239295 0.060155
Si Si5 0.342144 0.571009 0.345430
Si Si6 0.453067 0.842834 0.857808
O O1 0.500000 0.840545 0.250000
O O2 0.646148 0.774030 0.147901
O O3 0.000000 0.812268 0.250000
O O4 0.847636 0.852663 0.104505
O O5 0.336366 0.848972 0.560573
O O6 0.983962 0.907398 0.561419
O O7 0.288392 0.930221 0.440821
O O8 0.268894 0.482014 0.853232
O O9 0.500000 0.500000 0.000000
O O10 0.000000 0.500000 0.000000
O O11 0.766168 0.188571 0.097104
O O12 0.585901 0.255015 0.000707
O O13 0.500000 0.578934 0.250000
O O14 0.106835 0.604036 0.342939
O O15 0.500000 0.824280 0.750000
#
# Coordination Sequence:
#
# PCOD9456882 Si02
#       6
#     8   8   8   8   8   8
#     4  12  28  48  71 101 143 190 242 296 348 425
#     4  11  24  46  69 101 140 189 234 289 360 423
#     4  10  22  40  68  96 137 183 226 283 348 418
#     4  12  26  47  75 102 139 192 238 296 365 422
#     4  11  23  41  71 107 147 182 236 298 359 427
#     4  12  24  41  71 104 141 184 233 300 363 424
#
# _framework density 22.135888999999999
#
# number of rings (size 3 to 8) (size 9 to 14) (size 15 to 20)
#    0.000    0.667    5.000    2.500    2.333    1.333 
#    0.000    2.500    0.000    0.000    0.000    0.000 
#    0.000    0.000    0.000    0.000    0.000    0.000 
#
# Total GULP energy -267338.558670 kJ/mol
# GULP energy per Si atom -5569.553306 kJ/mol
# Density = 2.208551 g / cm^3
# Si number density = 22.135889 Si / 1000 Ang^3
#
#
#
# Elastic Constant Matrix: (Units=GPa)
#
#
# Indices 1 2 3 4 5 6 
#
# 1 83.5932 -8.2203 25.7974 0.0000 0.0000 0.0000
# 2 -8.2203 111.9854 20.1687 0.0000 0.0000 0.0000
# 3 25.7974 20.1687 98.2651 0.0000 0.0000 0.0000
# 4 0.0000 0.0000 0.0000 28.3406 0.0000 0.0000
# 5 0.0000 0.0000 0.0000 0.0000 35.9878 0.0000
# 6 0.0000 0.0000 0.0000 0.0000 0.0000 29.3901
#
#
#
# Elastic Compliance Matrix: (Units=1/GPa)
#
#
# Indices 1 2 3 4 5 6 
#
# 1 0.013311 0.001668 -0.003837 0.000000 0.000000 0.000000
# 2 0.001668 0.009482 -0.002384 0.000000 0.000000 0.000000
# 3 -0.003837 -0.002384 0.011673 0.000000 0.000000 0.000000
# 4 0.000000 0.000000 0.000000 0.035285 0.000000 0.000000
# 5 0.000000 0.000000 0.000000 0.000000 0.027787 0.000000
# 6 0.000000 0.000000 0.000000 0.000000 0.000000 0.034025
#
#
# Mechanical properties :
#
#
# Convention : Reuss Voigt Hill
#
# Bulk Modulus (GPa) = 39.43213 41.03725 40.23469
# Shear Modulus (GPa) = 33.52969 35.81690 34.67330
#
# Velocity S-wave (km/s) = 3.89616 4.02686 3.96205
# Velocity P-wave (km/s) = 6.17191 6.34033 6.25669
#
# Compressibility (1/GPa) = 0.02536003
#
# Stress axis : x y z
#
# Youngs Moduli (GPa) = 75.12693 105.46809 85.66674
#
# Poissons Ratio (x) = -0.17593 0.32869
# Poissons Ratio (y) = -0.12532 0.20423
# Poissons Ratio (z) = 0.28825 0.25143
#
# Static dielectric constant tensor:
#      x y z
#    x 1.856260 0.000000 0.000000 
#    y 0.000000 1.942560 0.000000 
#    z 0.000000 0.000000 2.255420 
# 
# From -- ./inp_files/13941.got.cif
#   From: 2010.05.17/outbox.cif.g08.bks.cpg/sg60_7_cif.got.tgz:13941.got - 2010.06.03 14:59:27.
