data_PCOD9456124
_publ_section_title
;
Structure prediction by ZEFSAII (Michael W. Deem and Ramdas Pophale) SiO2 
 PCOD9456124
Probable space group: P B C N
;
_chemical_formula_sum "Si O2"
_cell_formula_units_Z 48
_cell_length_a 5.223864
_cell_length_b 18.535255
_cell_length_c 21.403865
_cell_angle_alpha 90.000000
_cell_angle_beta 90.000000
_cell_angle_gamma 90.000000
_cell_volume 2072.443170
_symmetry_space_group_name_H-M "P B C N"
_symmetry_group_IT_number 60
_symmetry_cell_setting 'orthorhombic'
loop_
_space_group_symop_operation_xyz
x,y,z
1/2-x,1/2-y,1/2+z
1/2+x,1/2-y,-z
-x,y,1/2-z
-x,-y,-z
1/2+x,1/2+y,1/2-z
1/2-x,1/2+y,z
x,-y,1/2+z
loop_
_atom_site_type_symbol
_atom_site_label
_atom_site_fract_x
_atom_site_fract_y
_atom_site_fract_z
Si Si1 0.580023 0.151781 0.473506
Si Si2 0.609593 0.557045 0.393329
Si Si3 0.870878 0.461417 0.684777
Si Si4 0.592470 0.874126 0.182478
Si Si5 0.721935 0.406605 0.433301
Si Si6 0.339561 0.720886 0.916546
O O1 0.410760 0.090612 0.507345
O O2 0.624858 0.207109 0.530920
O O3 0.438808 0.198411 0.420836
O O4 0.834815 0.117984 0.444303
O O5 0.385050 0.573414 0.344175
O O6 0.558945 0.479263 0.425023
O O7 0.891166 0.547341 0.362444
O O8 0.788301 0.546047 0.693141
O O9 0.000000 0.437524 0.750000
O O10 0.500000 0.849905 0.250000
O O11 0.376877 0.892889 0.131118
O O12 0.754161 0.811401 0.149660
O O13 0.553994 0.335549 0.438077
#
# Coordination Sequence:
#
# PCOD9456124 Si02
#       6
#     8   8   8   8   8   8
#     4  11  24  37  62  90 133 180 225 279 345 413
#     4  11  23  39  65  98 130 176 228 284 338 412
#     4  10  21  40  66  97 129 171 222 283 344 404
#     4   9  20  38  64  95 127 166 223 279 332 403
#     4  10  21  39  60  95 128 172 220 279 343 401
#     4  11  21  39  61  90 133 176 221 275 343 404
#
# _framework density 23.161069999999999
#
# number of rings (size 3 to 8) (size 9 to 14) (size 15 to 20)
#    0.000    1.667    3.333    1.000    2.333    1.333 
#    0.000    0.000    3.667    0.000    0.000    0.000 
#    0.000    0.000    0.000    0.000    0.000    0.000 
#
# Total GULP energy -268033.134872 kJ/mol
# GULP energy per Si atom -5584.023643 kJ/mol
# Density = 2.310835 g / cm^3
# Si number density = 23.161070 Si / 1000 Ang^3
#
#
#
# Elastic Constant Matrix: (Units=GPa)
#
#
# Indices 1 2 3 4 5 6 
#
# 1 91.0578 28.5179 55.1676 0.0000 0.0000 0.0000
# 2 28.5179 70.6995 42.2677 0.0000 0.0000 0.0000
# 3 55.1676 42.2677 141.1958 0.0000 0.0000 0.0000
# 4 0.0000 0.0000 0.0000 21.4494 0.0000 0.0000
# 5 0.0000 0.0000 0.0000 0.0000 39.2703 0.0000
# 6 0.0000 0.0000 0.0000 0.0000 0.0000 29.5686
#
#
#
# Elastic Compliance Matrix: (Units=1/GPa)
#
#
# Indices 1 2 3 4 5 6 
#
# 1 0.014921 -0.003085 -0.004906 0.000000 0.000000 0.000000
# 2 -0.003085 0.017866 -0.004143 0.000000 0.000000 0.000000
# 3 -0.004906 -0.004143 0.010239 0.000000 0.000000 0.000000
# 4 0.000000 0.000000 0.000000 0.046621 0.000000 0.000000
# 5 0.000000 0.000000 0.000000 0.000000 0.025465 0.000000
# 6 0.000000 0.000000 0.000000 0.000000 0.000000 0.033820
#
#
# Mechanical properties :
#
#
# Convention : Reuss Voigt Hill
#
# Bulk Modulus (GPa) = 53.31244 61.65106 57.48175
# Shear Modulus (GPa) = 27.86258 29.85765 28.86011
#
# Velocity S-wave (km/s) = 3.47218 3.59434 3.53379
# Velocity P-wave (km/s) = 6.25642 6.62585 6.44378
#
# Compressibility (1/GPa) = 0.01875735
#
# Stress axis : x y z
#
# Youngs Moduli (GPa) = 67.02075 55.97353 97.66190
#
# Poissons Ratio (x) = 0.17270 0.47915
# Poissons Ratio (y) = 0.20679 0.40458
# Poissons Ratio (z) = 0.32881 0.23188
#
# Static dielectric constant tensor:
#      x y z
#    x 1.984090 0.000000 0.000000 
#    y 0.000000 1.870830 0.000000 
#    z 0.000000 0.000000 1.923760 
# 
# From -- ./inp_files/21598.got.cif
#   From: 2010.05.17/outbox.cif.g08.bks.cpg/sg60_11_cif.got.tgz:21598.got - 2010.06.03 14:59:27.
