data_PCOD9456579
_publ_section_title
;
Structure prediction by ZEFSAII (Michael W. Deem and Ramdas Pophale) SiO2 
 PCOD9456579
Probable space group: P B C N
;
_chemical_formula_sum "Si O2"
_cell_formula_units_Z 56
_cell_length_a 16.402992
_cell_length_b 8.926591
_cell_length_c 19.839841
_cell_angle_alpha 90.000000
_cell_angle_beta 90.000000
_cell_angle_gamma 90.000000
_cell_volume 2905.005086
_symmetry_space_group_name_H-M "P B C N"
_symmetry_group_IT_number 60
_symmetry_cell_setting 'orthorhombic'
loop_
_space_group_symop_operation_xyz
x,y,z
1/2-x,1/2-y,1/2+z
1/2+x,1/2-y,-z
-x,y,1/2-z
-x,-y,-z
1/2+x,1/2+y,1/2-z
1/2-x,1/2+y,z
x,-y,1/2+z
loop_
_atom_site_type_symbol
_atom_site_label
_atom_site_fract_x
_atom_site_fract_y
_atom_site_fract_z
Si Si1 0.101236 0.951104 0.447023
Si Si2 0.692419 0.464647 0.803493
Si Si3 0.678747 0.113117 0.408715
Si Si4 0.922418 0.888179 0.416115
Si Si5 0.777384 0.718212 0.714584
Si Si6 0.815928 0.312121 0.484480
Si Si7 0.730803 0.024824 0.120972
O O1 0.115041 0.802189 0.492064
O O2 0.015921 0.935318 0.409399
O O3 0.099468 0.076061 0.505728
O O4 0.176166 0.975141 0.396285
O O5 0.773333 0.400062 0.839018
O O6 0.633743 0.520379 0.863291
O O7 0.721901 0.603919 0.757779
O O8 0.663325 0.321490 0.759843
O O9 0.599000 0.214723 0.404365
O O10 0.741855 0.206732 0.457355
O O11 0.665299 0.942383 0.431423
O O12 0.813877 0.616829 0.654282
O O13 0.726095 0.843573 0.675330
O O14 0.797156 0.407919 0.550882
#
# Coordination Sequence:
#
# PCOD9456579 Si02
#       7
#     8   8   8   8   8   8   8
#     4  11  23  38  59  91 123 152 188 249 316 356
#     4  11  19  37  58  88 111 151 202 250 274 356
#     4  12  19  34  63  89 114 154 199 247 296 350
#     4  11  23  38  59  91 123 152 188 249 316 356
#     4  10  22  32  60  86 108 152 212 238 280 332
#     4  12  19  34  63  89 114 154 199 247 296 350
#     4  11  19  37  58  88 111 151 202 250 274 356
#
# _framework density 19.277073000000001
#
# number of rings (size 3 to 8) (size 9 to 14) (size 15 to 20)
#    0.000    0.857    8.571    0.000    0.000    0.571 
#    0.000    2.857    0.000    1.714    0.000    0.000 
#    0.000    0.000    0.000    0.000    0.000    0.000 
#
# Total GULP energy -312005.953906 kJ/mol
# GULP energy per Si atom -5571.534891 kJ/mol
# Density = 1.923320 g / cm^3
# Si number density = 19.277073 Si / 1000 Ang^3
#
#
#
# Elastic Constant Matrix: (Units=GPa)
#
#
# Indices 1 2 3 4 5 6 
#
# 1 31.9313 6.0799 5.1679 0.0000 0.0000 0.0000
# 2 6.0799 103.3944 14.4202 0.0000 0.0000 0.0000
# 3 5.1679 14.4202 61.6234 0.0000 0.0000 0.0000
# 4 0.0000 0.0000 0.0000 55.4475 0.0000 0.0000
# 5 0.0000 0.0000 0.0000 0.0000 5.5648 0.0000
# 6 0.0000 0.0000 0.0000 0.0000 0.0000 15.1732
#
#
#
# Elastic Compliance Matrix: (Units=1/GPa)
#
#
# Indices 1 2 3 4 5 6 
#
# 1 0.031989 -0.001558 -0.002318 0.000000 0.000000 0.000000
# 2 -0.001558 0.010074 -0.002227 0.000000 0.000000 0.000000
# 3 -0.002318 -0.002227 0.016943 0.000000 0.000000 0.000000
# 4 0.000000 0.000000 0.000000 0.018035 0.000000 0.000000
# 5 0.000000 0.000000 0.000000 0.000000 0.179700 0.000000
# 6 0.000000 0.000000 0.000000 0.000000 0.000000 0.065906
#
#
# Mechanical properties :
#
#
# Convention : Reuss Voigt Hill
#
# Bulk Modulus (GPa) = 21.36718 27.58722 24.47720
# Shear Modulus (GPa) = 14.26727 26.65585 20.46156
#
# Velocity S-wave (km/s) = 2.72346 3.72260 3.26152
# Velocity P-wave (km/s) = 4.58235 5.72879 5.18734
#
# Compressibility (1/GPa) = 0.04680075
#
# Stress axis : x y z
#
# Youngs Moduli (GPa) = 31.26078 99.26686 59.02123
#
# Poissons Ratio (x) = 0.15463 0.13682
# Poissons Ratio (y) = 0.04870 0.13142
# Poissons Ratio (z) = 0.07247 0.22104
#
# Static dielectric constant tensor:
#      x y z
#    x 1.659870 0.000000 0.000000 
#    y 0.000000 1.714550 0.000000 
#    z 0.000000 0.000000 1.734250 
# 
# From -- ./inp_files/23047.got.cif
#   From: 2010.05.17/outbox.cif.g08.bks.cpg/sg60_12_cif.got.tgz:23047.got - 2010.06.03 14:59:27.
