data_PCOD9456568
_publ_section_title
;
Structure prediction by ZEFSAII (Michael W. Deem and Ramdas Pophale) SiO2 
 PCOD9456568
Probable space group: P B C N
;
_chemical_formula_sum "Si O2"
_cell_formula_units_Z 64
_cell_length_a 8.906965
_cell_length_b 14.559746
_cell_length_c 21.091591
_cell_angle_alpha 90.000000
_cell_angle_beta 90.000000
_cell_angle_gamma 90.000000
_cell_volume 2735.223918
_symmetry_space_group_name_H-M "P B C N"
_symmetry_group_IT_number 60
_symmetry_cell_setting 'orthorhombic'
loop_
_space_group_symop_operation_xyz
x,y,z
1/2-x,1/2-y,1/2+z
1/2+x,1/2-y,-z
-x,y,1/2-z
-x,-y,-z
1/2+x,1/2+y,1/2-z
1/2-x,1/2+y,z
x,-y,1/2+z
loop_
_atom_site_type_symbol
_atom_site_label
_atom_site_fract_x
_atom_site_fract_y
_atom_site_fract_z
Si Si1 0.414027 0.839253 0.402392
Si Si2 0.174151 0.878380 0.739664
Si Si3 0.263205 0.286333 0.075469
Si Si4 0.830727 0.920040 0.902443
Si Si5 0.647271 0.966611 0.215857
Si Si6 0.158955 0.186604 0.715197
Si Si7 0.153893 0.850251 0.937160
Si Si8 0.172465 0.492514 0.485037
O O1 0.587398 0.820078 0.422743
O O2 0.409043 0.908562 0.343984
O O3 0.343086 0.738609 0.392010
O O4 0.311661 0.893552 0.452712
O O5 0.183166 0.932748 0.672471
O O6 0.268485 0.785569 0.731944
O O7 0.000000 0.855414 0.750000
O O8 0.239372 0.948157 0.791731
O O9 0.252611 0.176362 0.083560
O O10 0.346279 0.321112 0.138826
O O11 0.341805 0.310452 0.009212
O O12 0.763347 0.995140 0.949470
O O13 0.002025 0.903710 0.921944
O O14 0.500000 0.005466 0.250000
O O15 0.730319 0.890722 0.258352
O O16 0.000000 0.177010 0.750000
O O17 0.283605 0.925129 0.938866
O O18 0.000000 0.500000 0.500000
#
# Coordination Sequence:
#
# PCOD9456568 Si02
#       8
#     8   8   8   8   8   8   8   8
#     4  11  25  45  69 107 140 185 240 289 364 424
#     4  11  27  49  72 103 147 188 244 302 360 425
#     4  10  21  46  71 100 148 180 226 302 352 424
#     4  10  25  45  69 105 142 187 236 293 357 425
#     4  12  26  46  76 102 141 192 242 297 360 436
#     4  11  25  47  71 106 140 187 238 298 362 428
#     4  11  24  45  73 101 145 188 229 296 360 427
#     4  12  25  43  70 106 138 185 233 290 354 427
#
# _framework density 23.398451000000001
#
# number of rings (size 3 to 8) (size 9 to 14) (size 15 to 20)
#    0.000    1.000    3.750    1.500    8.750    1.000 
#    4.500    0.000    0.000    0.000    0.000    0.000 
#    0.000    0.000    0.000    0.000    0.000    0.000 
#
# Total GULP energy -358111.221688 kJ/mol
# GULP energy per Si atom -5595.487839 kJ/mol
# Density = 2.334519 g / cm^3
# Si number density = 23.398451 Si / 1000 Ang^3
#
#
#
# Elastic Constant Matrix: (Units=GPa)
#
#
# Indices 1 2 3 4 5 6 
#
# 1 81.0643 16.3618 8.7623 0.0000 0.0000 0.0000
# 2 16.3618 88.7189 -3.9799 0.0000 0.0000 0.0000
# 3 8.7623 -3.9799 83.4285 0.0000 0.0000 0.0000
# 4 0.0000 0.0000 0.0000 27.3551 0.0000 0.0000
# 5 0.0000 0.0000 0.0000 0.0000 34.2958 0.0000
# 6 0.0000 0.0000 0.0000 0.0000 0.0000 29.7326
#
#
#
# Elastic Compliance Matrix: (Units=1/GPa)
#
#
# Indices 1 2 3 4 5 6 
#
# 1 0.012993 -0.002463 -0.001482 0.000000 0.000000 0.000000
# 2 -0.002463 0.011763 0.000820 0.000000 0.000000 0.000000
# 3 -0.001482 0.000820 0.012181 0.000000 0.000000 0.000000
# 4 0.000000 0.000000 0.000000 0.036556 0.000000 0.000000
# 5 0.000000 0.000000 0.000000 0.000000 0.029158 0.000000
# 6 0.000000 0.000000 0.000000 0.000000 0.000000 0.033633
#
#
# Mechanical properties :
#
#
# Convention : Reuss Voigt Hill
#
# Bulk Modulus (GPa) = 32.58749 32.83334 32.71042
# Shear Modulus (GPa) = 32.73039 33.74787 33.23913
#
# Velocity S-wave (km/s) = 3.74415 3.80190 3.77313
# Velocity P-wave (km/s) = 5.71393 5.77367 5.74388
#
# Compressibility (1/GPa) = 0.03068662
#
# Stress axis : x y z
#
# Youngs Moduli (GPa) = 76.96353 85.01587 82.09448
#
# Poissons Ratio (x) = 0.20937 0.12167
# Poissons Ratio (y) = 0.18954 -0.06730
# Poissons Ratio (z) = 0.11407 -0.06969
#
# Static dielectric constant tensor:
#      x y z
#    x 1.810800 0.000000 0.000000 
#    y 0.000000 1.890590 0.000000 
#    z 0.000000 0.000000 1.979150 
# 
# From -- ./inp_files/24068.got.cif
#   From: 2010.05.17/outbox.cif.g08.bks.cpg/sg60_13_cif.got.tgz:24068.got - 2010.06.03 14:59:27.
