data_PCOD9456956
_publ_section_title
;
Structure prediction by ZEFSAII (Michael W. Deem and Ramdas Pophale) SiO2 
 PCOD9456956
Probable space group: P B C N
;
_chemical_formula_sum "Si O2"
_cell_formula_units_Z 48
_cell_length_a 8.900038
_cell_length_b 15.899056
_cell_length_c 15.000352
_cell_angle_alpha 90.000000
_cell_angle_beta 90.000000
_cell_angle_gamma 90.000000
_cell_volume 2122.582847
_symmetry_space_group_name_H-M "P B C N"
_symmetry_group_IT_number 60
_symmetry_cell_setting 'orthorhombic'
loop_
_space_group_symop_operation_xyz
x,y,z
1/2-x,1/2-y,1/2+z
1/2+x,1/2-y,-z
-x,y,1/2-z
-x,-y,-z
1/2+x,1/2+y,1/2-z
1/2-x,1/2+y,z
x,-y,1/2+z
loop_
_atom_site_type_symbol
_atom_site_label
_atom_site_fract_x
_atom_site_fract_y
_atom_site_fract_z
Si Si1 0.195312 0.273648 0.885815
Si Si2 0.349059 0.779909 0.555501
Si Si3 0.298617 0.585532 0.818548
Si Si4 0.840674 0.171092 0.282228
Si Si5 0.333096 0.029946 0.985732
Si Si6 0.629659 0.483289 0.359750
O O1 0.221876 0.182934 0.840167
O O2 0.238641 0.336719 0.806440
O O3 0.022462 0.274119 0.916618
O O4 0.298320 0.279914 0.974246
O O5 0.244384 0.774560 0.642804
O O6 0.322676 0.873721 0.518106
O O7 0.195257 0.529949 0.881287
O O8 0.277085 0.565572 0.715603
O O9 0.466062 0.558324 0.851427
O O10 0.875530 0.079896 0.325582
O O11 0.000000 0.207372 0.250000
O O12 0.209656 0.981463 0.044906
O O13 0.500000 0.000000 0.000000
#
# Coordination Sequence:
#
# PCOD9456956 Si02
#       6
#     8   8   8   8   8   8
#     4  11  24  43  64  96 131 168 218 265 320 386
#     4  10  24  41  64  93 130 169 211 261 326 382
#     4  10  22  42  64  93 123 170 219 255 313 388
#     4  11  22  41  66  93 127 168 215 267 319 378
#     4  10  23  40  62  96 127 163 207 266 322 367
#     4  10  22  41  66  91 123 170 217 253 313 385
#
# _framework density 22.613958
#
# number of rings (size 3 to 8) (size 9 to 14) (size 15 to 20)
#    0.000    1.667    1.667    2.000    7.000    2.000 
#    6.000    0.000    0.000    0.000    0.000    0.000 
#    0.000    0.000    0.000    0.000    0.000    0.000 
#
# Total GULP energy -268350.530025 kJ/mol
# GULP energy per Si atom -5590.636042 kJ/mol
# Density = 2.256249 g / cm^3
# Si number density = 22.613958 Si / 1000 Ang^3
#
#
#
# Elastic Constant Matrix: (Units=GPa)
#
#
# Indices 1 2 3 4 5 6 
#
# 1 48.7162 -11.2420 -6.4477 0.0000 0.0000 0.0000
# 2 -11.2420 46.2675 10.6602 0.0000 0.0000 0.0000
# 3 -6.4477 10.6602 44.0531 0.0000 0.0000 0.0000
# 4 0.0000 0.0000 0.0000 24.8142 0.0000 0.0000
# 5 0.0000 0.0000 0.0000 0.0000 46.0781 0.0000
# 6 0.0000 0.0000 0.0000 0.0000 0.0000 22.8829
#
#
#
# Elastic Compliance Matrix: (Units=1/GPa)
#
#
# Indices 1 2 3 4 5 6 
#
# 1 0.021917 0.004857 0.002032 0.000000 0.000000 0.000000
# 2 0.004857 0.023966 -0.005089 0.000000 0.000000 0.000000
# 3 0.002032 -0.005089 0.024229 0.000000 0.000000 0.000000
# 4 0.000000 0.000000 0.000000 0.040299 0.000000 0.000000
# 5 0.000000 0.000000 0.000000 0.000000 0.021702 0.000000
# 6 0.000000 0.000000 0.000000 0.000000 0.000000 0.043701
#
#
# Mechanical properties :
#
#
# Convention : Reuss Voigt Hill
#
# Bulk Modulus (GPa) = 13.56603 13.88643 13.72623
# Shear Modulus (GPa) = 25.40865 28.49280 26.95073
#
# Velocity S-wave (km/s) = 3.35563 3.55345 3.45595
# Velocity P-wave (km/s) = 4.58537 4.79479 4.69125
#
# Compressibility (1/GPa) = 0.07371351
#
# Stress axis : x y z
#
# Youngs Moduli (GPa) = 45.62692 41.72579 41.27333
#
# Poissons Ratio (x) = -0.20266 -0.08389
# Poissons Ratio (y) = -0.22161 0.21002
# Poissons Ratio (z) = -0.09273 0.21232
#
# Static dielectric constant tensor:
#      x y z
#    x 1.808820 0.000000 0.000000 
#    y 0.000000 1.867350 0.000000 
#    z 0.000000 0.000000 1.866730 
# 
# From -- ./inp_files/15007.got.cif
#   From: 2010.05.17/outbox.cif.g08.bks.cpg/sg60_8_cif.got.tgz:15007.got - 2010.06.03 14:59:27.
