data_PCOD9456232
_publ_section_title
;
Structure prediction by ZEFSAII (Michael W. Deem and Ramdas Pophale) SiO2 
 PCOD9456232
Probable space group: P B C N
;
_chemical_formula_sum "Si O2"
_cell_formula_units_Z 48
_cell_length_a 21.556944
_cell_length_b 21.740960
_cell_length_c 5.096765
_cell_angle_alpha 90.000000
_cell_angle_beta 90.000000
_cell_angle_gamma 90.000000
_cell_volume 2388.694009
_symmetry_space_group_name_H-M "P B C N"
_symmetry_group_IT_number 60
_symmetry_cell_setting 'orthorhombic'
loop_
_space_group_symop_operation_xyz
x,y,z
1/2-x,1/2-y,1/2+z
1/2+x,1/2-y,-z
-x,y,1/2-z
-x,-y,-z
1/2+x,1/2+y,1/2-z
1/2-x,1/2+y,z
x,-y,1/2+z
loop_
_atom_site_type_symbol
_atom_site_label
_atom_site_fract_x
_atom_site_fract_y
_atom_site_fract_z
Si Si1 0.929620 0.836211 0.860375
Si Si2 0.089922 0.711705 0.885748
Si Si3 0.864065 0.962018 0.719486
Si Si4 0.000000 0.544987 0.250000
Si Si5 0.000000 0.768158 0.250000
Si Si6 0.284372 0.963031 0.776674
Si Si7 0.384618 0.134518 0.367392
O O1 0.894517 0.779606 0.720788
O O2 0.895251 0.899445 0.814871
O O3 0.000000 0.842770 0.750000
O O4 0.944163 0.811398 0.153038
O O5 0.098130 0.664778 0.646031
O O6 0.021955 0.724391 0.015299
O O7 0.124188 0.685529 0.140996
O O8 0.789593 0.954151 0.717707
O O9 0.881258 0.985035 0.429577
O O10 0.939826 0.588894 0.226517
O O11 0.000000 0.500000 0.500000
O O12 0.322335 0.904982 0.875435
O O13 0.300781 0.982568 0.481118
#
# Coordination Sequence:
#
# PCOD9456232 Si02
#       7
#     8   8   8   4   4   8   8
#     4  10  23  40  64  93 131 161 202 258 317 378
#     4  11  23  37  60  92 119 170 207 250 310 377
#     4  10  24  42  67  93 122 163 209 255 316 384
#     4  12  25  36  52  88 122 155 200 268 306 344
#     4  10  21  40  60  88 136 167 202 248 334 372
#     4  10  21  43  64  87 122 167 210 261 317 374
#     4  12  23  37  63  88 122 166 216 256 311 380
#
# _framework density 20.094663000000001
#
# number of rings (size 3 to 8) (size 9 to 14) (size 15 to 20)
#    0.000    1.333    1.667    3.500    9.333    0.667 
#    0.000    1.667    0.000    0.000    0.000    0.000 
#    0.000    0.000    0.000    0.000    0.000    0.000 
#
# Total GULP energy -267853.998826 kJ/mol
# GULP energy per Si atom -5580.291642 kJ/mol
# Density = 2.004893 g / cm^3
# Si number density = 20.094663 Si / 1000 Ang^3
#
#
#
# Elastic Constant Matrix: (Units=GPa)
#
#
# Indices 1 2 3 4 5 6 
#
# 1 31.9264 40.5666 28.7807 0.0000 0.0000 0.0000
# 2 40.5666 116.7948 44.0256 0.0000 0.0000 0.0000
# 3 28.7807 44.0256 138.8617 0.0000 0.0000 0.0000
# 4 0.0000 0.0000 0.0000 29.5040 0.0000 0.0000
# 5 0.0000 0.0000 0.0000 0.0000 13.7202 0.0000
# 6 0.0000 0.0000 0.0000 0.0000 0.0000 18.8413
#
#
#
# Elastic Compliance Matrix: (Units=1/GPa)
#
#
# Indices 1 2 3 4 5 6 
#
# 1 0.061169 -0.018702 -0.006749 0.000000 0.000000 0.000000
# 2 -0.018702 0.015442 -0.001020 0.000000 0.000000 0.000000
# 3 -0.006749 -0.001020 0.008923 0.000000 0.000000 0.000000
# 4 0.000000 0.000000 0.000000 0.033894 0.000000 0.000000
# 5 0.000000 0.000000 0.000000 0.000000 0.072885 0.000000
# 6 0.000000 0.000000 0.000000 0.000000 0.000000 0.053075
#
#
# Mechanical properties :
#
#
# Convention : Reuss Voigt Hill
#
# Bulk Modulus (GPa) = 30.68048 57.14763 43.91406
# Shear Modulus (GPa) = 16.17106 24.02709 20.09908
#
# Velocity S-wave (km/s) = 2.83988 3.46163 3.16606
# Velocity P-wave (km/s) = 5.10434 6.66919 5.93854
#
# Compressibility (1/GPa) = 0.03259402
#
# Stress axis : x y z
#
# Youngs Moduli (GPa) = 16.34810 64.75733 112.06475
#
# Poissons Ratio (x) = 1.21110 0.75628
# Poissons Ratio (y) = 0.30575 0.11427
# Poissons Ratio (z) = 0.11033 0.06603
#
# Static dielectric constant tensor:
#      x y z
#    x 1.718190 0.000000 0.000000 
#    y 0.000000 1.710440 0.000000 
#    z 0.000000 0.000000 1.799670 
# 
# From -- ./inp_files/2073.got.cif
#   From: 2010.05.17/outbox.cif.g08.bks.cpg/sg60_2_cif.got.tgz:2073.got - 2010.06.03 14:59:27.
