data_PCOD9456266
_publ_section_title
;
Structure prediction by ZEFSAII (Michael W. Deem and Ramdas Pophale) SiO2 
 PCOD9456266
Probable space group: P B C N
;
_chemical_formula_sum "Si O2"
_cell_formula_units_Z 48
_cell_length_a 7.921723
_cell_length_b 33.785115
_cell_length_c 8.309729
_cell_angle_alpha 90.000000
_cell_angle_beta 90.000000
_cell_angle_gamma 90.000000
_cell_volume 2223.985311
_symmetry_space_group_name_H-M "P B C N"
_symmetry_group_IT_number 60
_symmetry_cell_setting 'orthorhombic'
loop_
_space_group_symop_operation_xyz
x,y,z
1/2-x,1/2-y,1/2+z
1/2+x,1/2-y,-z
-x,y,1/2-z
-x,-y,-z
1/2+x,1/2+y,1/2-z
1/2-x,1/2+y,z
x,-y,1/2+z
loop_
_atom_site_type_symbol
_atom_site_label
_atom_site_fract_x
_atom_site_fract_y
_atom_site_fract_z
Si Si1 0.370360 0.121014 0.041086
Si Si2 0.582340 0.266452 0.574778
Si Si3 0.456140 0.043144 0.437534
Si Si4 0.714767 0.832558 0.471910
Si Si5 0.715885 0.308190 0.106753
Si Si6 0.330762 0.403261 0.852453
O O1 0.425618 0.077237 0.983075
O O2 0.534465 0.147485 0.002072
O O3 0.304731 0.113731 0.221836
O O4 0.226130 0.147756 0.963594
O O5 0.500000 0.266104 0.750000
O O6 0.743171 0.295503 0.584503
O O7 0.645638 0.222609 0.536881
O O8 0.456431 0.286630 0.446739
O O9 0.500000 0.041744 0.250000
O O10 0.263450 0.059734 0.437888
O O11 0.500000 0.000000 0.500000
O O12 0.739553 0.815380 0.293271
O O13 0.843791 0.867930 0.518899
O O14 0.500000 0.411772 0.750000
#
# Coordination Sequence:
#
# PCOD9456266 Si02
#       6
#     8   8   8   8   8   8
#     4  10  21  40  64  88 123 165 208 261 328 396
#     4  12  25  40  58  83 123 165 210 271 331 390
#     4   9  20  38  63  93 125 166 212 259 320 395
#     4  11  22  38  61  89 117 162 218 269 324 393
#     4  12  24  40  60  87 119 162 220 273 326 387
#     4  10  21  40  65  94 129 168 210 265 333 397
#
# _framework density 21.582875999999999
#
# number of rings (size 3 to 8) (size 9 to 14) (size 15 to 20)
#    0.000    1.333    0.000    8.000    0.000    2.667 
#    0.000   15.000    0.000    2.000    0.000    0.000 
#    0.000    0.000    0.000    0.000    0.000    0.000 
#
# Total GULP energy -267660.405084 kJ/mol
# GULP energy per Si atom -5576.258439 kJ/mol
# Density = 2.153375 g / cm^3
# Si number density = 21.582876 Si / 1000 Ang^3
#
#
#
# Elastic Constant Matrix: (Units=GPa)
#
#
# Indices 1 2 3 4 5 6 
#
# 1 119.6515 63.4324 30.7983 0.0000 0.0000 0.0000
# 2 63.4324 195.1464 28.0207 0.0000 0.0000 0.0000
# 3 30.7983 28.0207 44.3970 0.0000 0.0000 0.0000
# 4 0.0000 0.0000 0.0000 34.9043 0.0000 0.0000
# 5 0.0000 0.0000 0.0000 0.0000 16.1437 0.0000
# 6 0.0000 0.0000 0.0000 0.0000 0.0000 26.9762
#
#
#
# Elastic Compliance Matrix: (Units=1/GPa)
#
#
# Indices 1 2 3 4 5 6 
#
# 1 0.011444 -0.002837 -0.006148 0.000000 0.000000 0.000000
# 2 -0.002837 0.006338 -0.002032 0.000000 0.000000 0.000000
# 3 -0.006148 -0.002032 0.028072 0.000000 0.000000 0.000000
# 4 0.000000 0.000000 0.000000 0.028650 0.000000 0.000000
# 5 0.000000 0.000000 0.000000 0.000000 0.061944 0.000000
# 6 0.000000 0.000000 0.000000 0.000000 0.000000 0.037070
#
#
# Mechanical properties :
#
#
# Convention : Reuss Voigt Hill
#
# Bulk Modulus (GPa) = 41.98323 67.07753 54.53038
# Shear Modulus (GPa) = 24.57090 31.40108 27.98599
#
# Velocity S-wave (km/s) = 3.37774 3.81846 3.60484
# Velocity P-wave (km/s) = 5.89123 7.11248 6.53046
#
# Compressibility (1/GPa) = 0.02381904
#
# Stress axis : x y z
#
# Youngs Moduli (GPa) = 87.38002 157.76898 35.62292
#
# Poissons Ratio (x) = 0.44761 0.21902
# Poissons Ratio (y) = 0.24791 0.07240
# Poissons Ratio (z) = 0.53724 0.32063
#
# Static dielectric constant tensor:
#      x y z
#    x 1.932450 0.000000 0.000000 
#    y 0.000000 1.795720 0.000000 
#    z 0.000000 0.000000 1.918940 
# 
# From -- ./inp_files/4170.got.cif
#   From: 2010.05.17/outbox.cif.g08.bks.cpg/sg60_3_cif.got.tgz:4170.got - 2010.06.03 14:59:27.
