data_PCOD9456139
_publ_section_title
;
Structure prediction by ZEFSAII (Michael W. Deem and Ramdas Pophale) SiO2 
 PCOD9456139
Probable space group: P B C N
;
_chemical_formula_sum "Si O2"
_cell_formula_units_Z 48
_cell_length_a 29.002424
_cell_length_b 5.042887
_cell_length_c 14.470841
_cell_angle_alpha 90.000000
_cell_angle_beta 90.000000
_cell_angle_gamma 90.000000
_cell_volume 2116.446554
_symmetry_space_group_name_H-M "P B C N"
_symmetry_group_IT_number 60
_symmetry_cell_setting 'orthorhombic'
loop_
_space_group_symop_operation_xyz
x,y,z
1/2-x,1/2-y,1/2+z
1/2+x,1/2-y,-z
-x,y,1/2-z
-x,-y,-z
1/2+x,1/2+y,1/2-z
1/2-x,1/2+y,z
x,-y,1/2+z
loop_
_atom_site_type_symbol
_atom_site_label
_atom_site_fract_x
_atom_site_fract_y
_atom_site_fract_z
Si Si1 0.857496 0.052892 0.283878
Si Si2 0.279103 0.583157 0.075599
Si Si3 0.780301 0.105312 0.643549
Si Si4 0.504165 0.391996 0.347396
Si Si5 0.088288 0.468667 0.661002
Si Si6 0.456436 0.200578 0.503970
O O1 0.826063 0.982848 0.196415
O O2 0.895120 0.285793 0.277029
O O3 0.822515 0.152486 0.362812
O O4 0.880280 0.782985 0.319365
O O5 0.238226 0.788276 0.097117
O O6 0.288430 0.599152 0.966457
O O7 0.739787 0.894398 0.666783
O O8 0.500000 0.535773 0.250000
O O9 0.536541 0.140523 0.323786
O O10 0.456825 0.314067 0.400022
O O11 0.530838 0.567457 0.423465
O O12 0.086323 0.557879 0.552700
O O13 0.500000 0.000000 0.500000
#
# Coordination Sequence:
#
# PCOD9456139 Si02
#       6
#     8   8   8   8   8   8
#     4  12  22  39  61  90 133 161 197 265 327 363
#     4  10  21  39  63  89 115 165 217 246 302 384
#     4  10  21  39  62  88 121 163 214 255 296 373
#     4  10  21  43  69  92 120 173 219 257 315 389
#     4  11  23  41  58  95 130 159 208 260 315 381
#     4   9  20  41  66  88 126 163 213 265 305 372
#
# _framework density 22.679521000000001
#
# number of rings (size 3 to 8) (size 9 to 14) (size 15 to 20)
#    0.000    1.667    1.667    3.000    0.000    2.667 
#    6.000    0.000    0.000    0.000    0.000    0.000 
#    0.000    0.000    0.000    0.000    0.000    0.000 
#
# Total GULP energy -268101.976419 kJ/mol
# GULP energy per Si atom -5585.457842 kJ/mol
# Density = 2.262790 g / cm^3
# Si number density = 22.679521 Si / 1000 Ang^3
#
#
#
# Elastic Constant Matrix: (Units=GPa)
#
#
# Indices 1 2 3 4 5 6 
#
# 1 40.3048 4.8147 11.5946 0.0000 0.0000 0.0000
# 2 4.8147 91.8765 7.5426 0.0000 0.0000 0.0000
# 3 11.5946 7.5426 74.5756 0.0000 0.0000 0.0000
# 4 0.0000 0.0000 0.0000 17.3312 0.0000 0.0000
# 5 0.0000 0.0000 0.0000 0.0000 8.1199 0.0000
# 6 0.0000 0.0000 0.0000 0.0000 0.0000 32.7747
#
#
#
# Elastic Compliance Matrix: (Units=1/GPa)
#
#
# Indices 1 2 3 4 5 6 
#
# 1 0.026071 -0.001042 -0.003948 0.000000 0.000000 0.000000
# 2 -0.001042 0.011017 -0.000952 0.000000 0.000000 0.000000
# 3 -0.003948 -0.000952 0.014119 0.000000 0.000000 0.000000
# 4 0.000000 0.000000 0.000000 0.057699 0.000000 0.000000
# 5 0.000000 0.000000 0.000000 0.000000 0.123154 0.000000
# 6 0.000000 0.000000 0.000000 0.000000 0.000000 0.030511
#
#
# Mechanical properties :
#
#
# Convention : Reuss Voigt Hill
#
# Bulk Modulus (GPa) = 25.43058 28.29564 26.86311
# Shear Modulus (GPa) = 17.38740 23.83216 20.60978
#
# Velocity S-wave (km/s) = 2.77186 3.24516 3.01780
# Velocity P-wave (km/s) = 4.63483 5.15216 4.90033
#
# Compressibility (1/GPa) = 0.03932273
#
# Stress axis : x y z
#
# Youngs Moduli (GPa) = 38.35656 90.76916 70.82486
#
# Poissons Ratio (x) = 0.09459 0.27962
# Poissons Ratio (y) = 0.03997 0.06744
# Poissons Ratio (z) = 0.15143 0.08643
#
# Static dielectric constant tensor:
#      x y z
#    x 1.854830 0.000000 0.000000 
#    y 0.000000 1.876850 0.000000 
#    z 0.000000 0.000000 1.916600 
# 
# From -- ./inp_files/18035.got.cif
#   From: 2010.05.17/outbox.cif.g08.bks.cpg/sg60_10_cif.got.tgz:18035.got - 2010.06.03 14:59:27.
