data_PCOD9456180
_publ_section_title
;
Structure prediction by ZEFSAII (Michael W. Deem and Ramdas Pophale) SiO2 
 PCOD9456180
Probable space group: P B C N
;
_chemical_formula_sum "Si O2"
_cell_formula_units_Z 56
_cell_length_a 8.452171
_cell_length_b 14.331611
_cell_length_c 19.148616
_cell_angle_alpha 90.000000
_cell_angle_beta 90.000000
_cell_angle_gamma 90.000000
_cell_volume 2319.533646
_symmetry_space_group_name_H-M "P B C N"
_symmetry_group_IT_number 60
_symmetry_cell_setting 'orthorhombic'
loop_
_space_group_symop_operation_xyz
x,y,z
1/2-x,1/2-y,1/2+z
1/2+x,1/2-y,-z
-x,y,1/2-z
-x,-y,-z
1/2+x,1/2+y,1/2-z
1/2-x,1/2+y,z
x,-y,1/2+z
loop_
_atom_site_type_symbol
_atom_site_label
_atom_site_fract_x
_atom_site_fract_y
_atom_site_fract_z
Si Si1 0.100377 0.719942 0.315477
Si Si2 0.643163 0.423733 0.952372
Si Si3 0.195544 0.753327 0.091881
Si Si4 0.697363 0.061127 0.875573
Si Si5 0.182323 0.389292 0.264634
Si Si6 0.363656 0.084012 0.916200
Si Si7 0.833717 0.196873 0.065973
O O1 0.197335 0.803441 0.277518
O O2 0.223048 0.668436 0.368667
O O3 0.000000 0.676922 0.250000
O O4 0.978094 0.758396 0.374753
O O5 0.755245 0.354021 0.907579
O O6 0.652310 0.523368 0.916240
O O7 0.476824 0.373516 0.947151
O O8 0.731298 0.434717 0.026227
O O9 0.294411 0.827601 0.134937
O O10 0.233145 0.787448 0.012466
O O11 0.710307 0.033813 0.795363
O O12 0.539239 0.039377 0.919377
O O13 0.189753 0.440212 0.338991
O O14 0.000000 0.358605 0.250000
O O15 0.386048 0.196688 0.917648
#
# Coordination Sequence:
#
# PCOD9456180 Si02
#       7
#     8   8   8   8   8   8   8
#     4  11  22  39  71  99 132 187 239 281 360 430
#     4  11  23  40  69 103 135 179 237 293 345 423
#     4  11  22  41  69  97 137 178 230 287 357 417
#     4  11  21  38  69  99 134 180 229 287 355 420
#     4   9  19  38  67  93 130 184 223 277 357 424
#     4   9  19  38  66  98 137 180 229 281 361 427
#     4  10  21  39  65 100 136 184 229 292 348 421
#
# _framework density 24.142783999999999
#
# number of rings (size 3 to 8) (size 9 to 14) (size 15 to 20)
#    0.000    1.714    2.857    3.000    2.000    0.571 
#    0.000    2.143    9.429    0.000    0.000    0.000 
#    0.000    0.000    0.000    0.000    0.000    0.000 
#
# Total GULP energy -311995.293732 kJ/mol
# GULP energy per Si atom -5571.344531 kJ/mol
# Density = 2.408783 g / cm^3
# Si number density = 24.142784 Si / 1000 Ang^3
#
#
#
# Elastic Constant Matrix: (Units=GPa)
#
#
# Indices 1 2 3 4 5 6 
#
# 1 97.4110 16.5548 61.7060 0.0000 0.0000 0.0000
# 2 16.5548 47.4876 29.1287 0.0000 0.0000 0.0000
# 3 61.7060 29.1287 154.1926 0.0000 0.0000 0.0000
# 4 0.0000 0.0000 0.0000 13.7403 0.0000 0.0000
# 5 0.0000 0.0000 0.0000 0.0000 54.2480 0.0000
# 6 0.0000 0.0000 0.0000 0.0000 0.0000 25.1063
#
#
#
# Elastic Compliance Matrix: (Units=1/GPa)
#
#
# Indices 1 2 3 4 5 6 
#
# 1 0.013861 -0.001617 -0.005241 0.000000 0.000000 0.000000
# 2 -0.001617 0.024007 -0.003888 0.000000 0.000000 0.000000
# 3 -0.005241 -0.003888 0.009317 0.000000 0.000000 0.000000
# 4 0.000000 0.000000 0.000000 0.072778 0.000000 0.000000
# 5 0.000000 0.000000 0.000000 0.000000 0.018434 0.000000
# 6 0.000000 0.000000 0.000000 0.000000 0.000000 0.039831
#
#
# Mechanical properties :
#
#
# Convention : Reuss Voigt Hill
#
# Bulk Modulus (GPa) = 38.92253 57.09667 48.00960
# Shear Modulus (GPa) = 24.00557 31.39905 27.70231
#
# Velocity S-wave (km/s) = 3.15670 3.61023 3.39106
# Velocity P-wave (km/s) = 5.42615 6.40931 5.93812
#
# Compressibility (1/GPa) = 0.02569206
#
# Stress axis : x y z
#
# Youngs Moduli (GPa) = 72.14561 41.65498 107.32526
#
# Poissons Ratio (x) = 0.06735 0.56254
# Poissons Ratio (y) = 0.11666 0.41729
# Poissons Ratio (z) = 0.37815 0.16196
#
# Static dielectric constant tensor:
#      x y z
#    x 1.957610 0.000000 0.000000 
#    y 0.000000 1.930790 0.000000 
#    z 0.000000 0.000000 2.205340 
# 
# From -- ./inp_files/22302.got.cif
#   From: 2010.05.17/outbox.cif.g08.bks.cpg/sg60_12_cif.got.tgz:22302.got - 2010.06.03 14:59:27.
