data_PCOD9456719
_publ_section_title
;
Structure prediction by ZEFSAII (Michael W. Deem and Ramdas Pophale) SiO2 
 PCOD9456719
Probable space group: P B C N
;
_chemical_formula_sum "Si O2"
_cell_formula_units_Z 60
_cell_length_a 21.590737
_cell_length_b 11.049101
_cell_length_c 11.782289
_cell_angle_alpha 90.000000
_cell_angle_beta 90.000000
_cell_angle_gamma 90.000000
_cell_volume 2810.762054
_symmetry_space_group_name_H-M "P B C N"
_symmetry_group_IT_number 60
_symmetry_cell_setting 'orthorhombic'
loop_
_space_group_symop_operation_xyz
x,y,z
1/2-x,1/2-y,1/2+z
1/2+x,1/2-y,-z
-x,y,1/2-z
-x,-y,-z
1/2+x,1/2+y,1/2-z
1/2-x,1/2+y,z
x,-y,1/2+z
loop_
_atom_site_type_symbol
_atom_site_label
_atom_site_fract_x
_atom_site_fract_y
_atom_site_fract_z
Si Si1 0.645394 0.862800 0.466965
Si Si2 0.303560 0.125982 0.063217
Si Si3 0.378359 0.150924 0.284317
Si Si4 0.936083 0.036056 0.939218
Si Si5 0.428780 0.888444 0.234505
Si Si6 0.000000 0.200292 0.750000
Si Si7 0.857126 0.196339 0.112986
Si Si8 0.674313 0.629120 0.348544
O O1 0.651445 0.819169 0.594926
O O2 0.580418 0.858670 0.399113
O O3 0.681534 0.770648 0.385003
O O4 0.661217 0.003258 0.468173
O O5 0.336821 0.183623 0.174954
O O6 0.235506 0.077625 0.094190
O O7 0.311339 0.220037 0.960641
O O8 0.445339 0.213540 0.293876
O O9 0.390244 0.007605 0.268232
O O10 0.961959 0.116085 0.836100
O O11 0.889283 0.930622 0.894960
O O12 0.895696 0.114230 0.027053
O O13 0.000000 0.000000 0.000000
O O14 0.500000 0.912983 0.250000
O O15 0.404328 0.781200 0.314916
O O16 0.824368 0.120422 0.212668
#
# Coordination Sequence:
#
# PCOD9456719 Si02
#       8
#     8   8   8   8   8   4   8   8
#     4  10  24  43  65 101 137 176 235 297 356 427
#     4  11  25  45  71 104 139 185 249 300 369 438
#     4  11  22  40  65 107 140 178 231 298 359 425
#     4  12  27  48  70 106 147 197 248 297 369 447
#     4  10  22  38  68 101 136 180 223 287 373 422
#     4  12  24  40  70 106 146 190 246 292 362 444
#     4  11  25  48  70 104 145 185 241 306 361 443
#     4  11  28  47  72 100 141 200 239 299 375 436
#
# _framework density 21.346523999999999
#
# number of rings (size 3 to 8) (size 9 to 14) (size 15 to 20)
#    0.000    1.067    3.333    1.600    9.333    0.533 
#    0.000    0.000    0.000    0.000    0.000    0.000 
#    0.000    0.000    0.000    0.000    0.000    0.000 
#
# Total GULP energy -334644.709429 kJ/mol
# GULP energy per Si atom -5577.411824 kJ/mol
# Density = 2.129794 g / cm^3
# Si number density = 21.346524 Si / 1000 Ang^3
#
#
#
# Elastic Constant Matrix: (Units=GPa)
#
#
# Indices 1 2 3 4 5 6 
#
# 1 75.4206 6.6252 34.0552 0.0000 0.0000 0.0000
# 2 6.6252 59.3395 28.3693 0.0000 0.0000 0.0000
# 3 34.0552 28.3693 135.5371 0.0000 0.0000 0.0000
# 4 0.0000 0.0000 0.0000 19.4015 0.0000 0.0000
# 5 0.0000 0.0000 0.0000 0.0000 19.6771 0.0000
# 6 0.0000 0.0000 0.0000 0.0000 0.0000 14.5967
#
#
#
# Elastic Compliance Matrix: (Units=1/GPa)
#
#
# Indices 1 2 3 4 5 6 
#
# 1 0.014957 0.000141 -0.003788 0.000000 0.000000 0.000000
# 2 0.000141 0.018727 -0.003955 0.000000 0.000000 0.000000
# 3 -0.003788 -0.003955 0.009158 0.000000 0.000000 0.000000
# 4 0.000000 0.000000 0.000000 0.051542 0.000000 0.000000
# 5 0.000000 0.000000 0.000000 0.000000 0.050821 0.000000
# 6 0.000000 0.000000 0.000000 0.000000 0.000000 0.068509
#
#
# Mechanical properties :
#
#
# Convention : Reuss Voigt Hill
#
# Bulk Modulus (GPa) = 36.18212 45.37740 40.77976
# Shear Modulus (GPa) = 20.99693 24.15155 22.57424
#
# Velocity S-wave (km/s) = 3.13968 3.36728 3.25547
# Velocity P-wave (km/s) = 5.48909 6.03505 5.76853
#
# Compressibility (1/GPa) = 0.02763796
#
# Stress axis : x y z
#
# Youngs Moduli (GPa) = 66.85913 53.39775 109.19906
#
# Poissons Ratio (x) = -0.00752 0.41360
# Poissons Ratio (y) = -0.00942 0.43191
# Poissons Ratio (z) = 0.25323 0.21120
#
# Static dielectric constant tensor:
#      x y z
#    x 2.033030 0.000000 0.000000 
#    y 0.000000 1.874260 0.000000 
#    z 0.000000 0.000000 1.815030 
# 
# From -- ./inp_files/12884.got.cif
#   From: 2010.05.17/outbox.cif.g08.bks.cpg/sg60_7_cif.got.tgz:12884.got - 2010.06.03 14:59:27.
