data_PCOD9456273
_publ_section_title
;
Structure prediction by ZEFSAII (Michael W. Deem and Ramdas Pophale) SiO2 
 PCOD9456273
Probable space group: P B C N
;
_chemical_formula_sum "Si O2"
_cell_formula_units_Z 52
_cell_length_a 11.457067
_cell_length_b 8.456867
_cell_length_c 25.807268
_cell_angle_alpha 90.000000
_cell_angle_beta 90.000000
_cell_angle_gamma 90.000000
_cell_volume 2500.489212
_symmetry_space_group_name_H-M "P B C N"
_symmetry_group_IT_number 60
_symmetry_cell_setting 'orthorhombic'
loop_
_space_group_symop_operation_xyz
x,y,z
1/2-x,1/2-y,1/2+z
1/2+x,1/2-y,-z
-x,y,1/2-z
-x,-y,-z
1/2+x,1/2+y,1/2-z
1/2-x,1/2+y,z
x,-y,1/2+z
loop_
_atom_site_type_symbol
_atom_site_label
_atom_site_fract_x
_atom_site_fract_y
_atom_site_fract_z
Si Si1 0.700659 0.833366 0.764670
Si Si2 0.607322 0.145931 0.936413
Si Si3 0.794377 0.938450 0.994654
Si Si4 0.361814 0.272455 0.942203
Si Si5 0.000000 0.089711 0.750000
Si Si6 0.623125 0.338461 0.677773
Si Si7 0.601855 0.145859 0.815259
O O1 0.603654 0.699363 0.771016
O O2 0.752920 0.830220 0.706644
O O3 0.815298 0.790890 0.798125
O O4 0.644025 0.996933 0.782140
O O5 0.648787 0.321993 0.952876
O O6 0.470008 0.153132 0.947078
O O7 0.623927 0.115802 0.875720
O O8 0.682567 0.021229 0.968326
O O9 0.752120 0.826374 0.041680
O O10 0.869745 0.081769 0.017746
O O11 0.361558 0.338378 0.883818
O O12 0.056052 0.985213 0.795827
O O13 0.533848 0.193949 0.690227
#
# Coordination Sequence:
#
# PCOD9456273 Si02
#       7
#     8   8   8   8   4   8   8
#     4  12  24  41  63  93 130 164 218 261 318 381
#     4  10  21  40  65  91 128 162 211 261 306 376
#     4  10  21  40  64  95 126 166 204 259 317 365
#     4  10  23  39  64  94 126 166 207 254 319 373
#     4  12  26  40  64  92 126 172 206 262 322 372
#     4  11  24  45  63  92 134 167 213 268 311 386
#     4  11  22  41  67  93 126 176 211 264 323 371
#
# _framework density 20.795929000000001
#
# number of rings (size 3 to 8) (size 9 to 14) (size 15 to 20)
#    0.000    1.231    3.077    1.846    4.308    1.231 
#    2.769    1.538    0.000    0.000    0.000    0.000 
#    0.000    0.000    0.000    0.000    0.000    0.000 
#
# Total GULP energy -290519.496547 kJ/mol
# GULP energy per Si atom -5586.913395 kJ/mol
# Density = 2.074860 g / cm^3
# Si number density = 20.795929 Si / 1000 Ang^3
#
#
#
# Elastic Constant Matrix: (Units=GPa)
#
#
# Indices 1 2 3 4 5 6 
#
# 1 46.7385 8.3697 24.4491 0.0000 0.0000 0.0000
# 2 8.3697 66.0722 23.5312 0.0000 0.0000 0.0000
# 3 24.4491 23.5312 103.9607 0.0000 0.0000 0.0000
# 4 0.0000 0.0000 0.0000 14.5523 0.0000 0.0000
# 5 0.0000 0.0000 0.0000 0.0000 26.4931 0.0000
# 6 0.0000 0.0000 0.0000 0.0000 0.0000 33.7118
#
#
#
# Elastic Compliance Matrix: (Units=1/GPa)
#
#
# Indices 1 2 3 4 5 6 
#
# 1 0.024476 -0.001143 -0.005498 0.000000 0.000000 0.000000
# 2 -0.001143 0.016515 -0.003469 0.000000 0.000000 0.000000
# 3 -0.005498 -0.003469 0.011697 0.000000 0.000000 0.000000
# 4 0.000000 0.000000 0.000000 0.068718 0.000000 0.000000
# 5 0.000000 0.000000 0.000000 0.000000 0.037746 0.000000
# 6 0.000000 0.000000 0.000000 0.000000 0.000000 0.029663
#
#
# Mechanical properties :
#
#
# Convention : Reuss Voigt Hill
#
# Bulk Modulus (GPa) = 30.79832 36.60795 33.70314
# Shear Modulus (GPa) = 22.74197 25.64617 24.19407
#
# Velocity S-wave (km/s) = 3.31052 3.51555 3.41457
# Velocity P-wave (km/s) = 5.42721 5.84127 5.63804
#
# Compressibility (1/GPa) = 0.03246930
#
# Stress axis : x y z
#
# Youngs Moduli (GPa) = 40.85631 60.54980 85.49038
#
# Poissons Ratio (x) = 0.06918 0.46999
# Poissons Ratio (y) = 0.04668 0.29661
# Poissons Ratio (z) = 0.22461 0.21008
#
# Static dielectric constant tensor:
#      x y z
#    x 1.751120 0.000000 0.000000 
#    y 0.000000 1.745430 0.000000 
#    z 0.000000 0.000000 1.732450 
# 
# From -- ./inp_files/25292.got.cif
#   From: 2010.05.17/outbox.cif.g08.bks.cpg/sg60_13_cif.got.tgz:25292.got - 2010.06.03 14:59:27.
