data_PCOD9456447
_publ_section_title
;
Structure prediction by ZEFSAII (Michael W. Deem and Ramdas Pophale) SiO2 
 PCOD9456447
Probable space group: P B C N
;
_chemical_formula_sum "Si O2"
_cell_formula_units_Z 60
_cell_length_a 9.167177
_cell_length_b 11.529076
_cell_length_c 25.746745
_cell_angle_alpha 90.000000
_cell_angle_beta 90.000000
_cell_angle_gamma 90.000000
_cell_volume 2721.149801
_symmetry_space_group_name_H-M "P B C N"
_symmetry_group_IT_number 60
_symmetry_cell_setting 'orthorhombic'
loop_
_space_group_symop_operation_xyz
x,y,z
1/2-x,1/2-y,1/2+z
1/2+x,1/2-y,-z
-x,y,1/2-z
-x,-y,-z
1/2+x,1/2+y,1/2-z
1/2-x,1/2+y,z
x,-y,1/2+z
loop_
_atom_site_type_symbol
_atom_site_label
_atom_site_fract_x
_atom_site_fract_y
_atom_site_fract_z
Si Si1 0.795117 0.365952 0.313920
Si Si2 0.158293 0.390074 0.458778
Si Si3 0.882267 0.928520 0.556540
Si Si4 0.000000 0.540843 0.250000
Si Si5 0.173961 0.244686 0.787962
Si Si6 0.477129 0.633109 0.623275
Si Si7 0.959430 0.762417 0.023196
Si Si8 0.931117 0.270155 0.138402
O O1 0.899147 0.461141 0.286851
O O2 0.695941 0.307809 0.269180
O O3 0.678193 0.407873 0.355831
O O4 0.902530 0.277498 0.343728
O O5 0.233890 0.514668 0.464936
O O6 0.287918 0.295484 0.472485
O O7 0.020987 0.349261 0.492747
O O8 0.110800 0.378604 0.398387
O O9 0.974102 0.868474 0.511093
O O10 0.879643 0.833285 0.601622
O O11 0.954598 0.033973 0.587849
O O12 0.896550 0.628432 0.217649
O O13 0.335503 0.241358 0.810670
O O14 0.079303 0.169619 0.828599
O O15 0.475369 0.737869 0.581502
#
# Coordination Sequence:
#
# PCOD9456447 Si02
#       8
#     8   8   8   4   8   8   8   8
#     4  12  27  47  67 103 133 183 235 289 338 425
#     4  10  21  42  65 100 131 176 221 276 334 408
#     4  10  23  42  71  98 130 181 230 272 347 417
#     4  12  28  44  70  96 144 168 240 288 338 414
#     4  12  24  48  65  98 138 180 228 289 345 406
#     4  11  23  44  71  97 139 179 225 287 347 405
#     4  10  22  42  69  95 137 174 223 281 332 414
#     4  11  24  43  69  94 136 180 223 281 346 406
#
# _framework density 22.049503999999999
#
# number of rings (size 3 to 8) (size 9 to 14) (size 15 to 20)
#    0.000    1.067    5.333    1.600    9.333    0.000 
#    2.400    2.667    0.000    0.000    0.000    0.000 
#    0.000    0.000    0.000    0.000    0.000    0.000 
#
# Total GULP energy -334827.480250 kJ/mol
# GULP energy per Si atom -5580.458004 kJ/mol
# Density = 2.199932 g / cm^3
# Si number density = 22.049504 Si / 1000 Ang^3
#
#
#
# Elastic Constant Matrix: (Units=GPa)
#
#
# Indices 1 2 3 4 5 6 
#
# 1 80.9428 26.3644 46.7957 0.0000 0.0000 0.0000
# 2 26.3644 62.9975 16.6366 0.0000 0.0000 0.0000
# 3 46.7957 16.6366 85.4606 0.0000 0.0000 0.0000
# 4 0.0000 0.0000 0.0000 25.8153 0.0000 0.0000
# 5 0.0000 0.0000 0.0000 0.0000 52.1340 0.0000
# 6 0.0000 0.0000 0.0000 0.0000 0.0000 29.6267
#
#
#
# Elastic Compliance Matrix: (Units=1/GPa)
#
#
# Indices 1 2 3 4 5 6 
#
# 1 0.019866 -0.005736 -0.009761 0.000000 0.000000 0.000000
# 2 -0.005736 0.018390 -0.000439 0.000000 0.000000 0.000000
# 3 -0.009761 -0.000439 0.017132 0.000000 0.000000 0.000000
# 4 0.000000 0.000000 0.000000 0.038737 0.000000 0.000000
# 5 0.000000 0.000000 0.000000 0.000000 0.019181 0.000000
# 6 0.000000 0.000000 0.000000 0.000000 0.000000 0.033753
#
#
# Mechanical properties :
#
#
# Convention : Reuss Voigt Hill
#
# Bulk Modulus (GPa) = 42.52634 45.44381 43.98507
# Shear Modulus (GPa) = 26.77072 30.82216 28.79644
#
# Velocity S-wave (km/s) = 3.48820 3.74285 3.61777
# Velocity P-wave (km/s) = 5.96255 6.27162 6.11904
#
# Compressibility (1/GPa) = 0.02351484
#
# Stress axis : x y z
#
# Youngs Moduli (GPa) = 50.33674 54.37687 58.37076
#
# Poissons Ratio (x) = 0.31191 0.56979
# Poissons Ratio (y) = 0.28874 0.02563
# Poissons Ratio (z) = 0.49136 0.02387
#
# Static dielectric constant tensor:
#      x y z
#    x 1.813880 0.000000 0.000000 
#    y 0.000000 1.934200 0.000000 
#    z 0.000000 0.000000 1.846560 
# 
# From -- ./inp_files/25217.got.cif
#   From: 2010.05.17/outbox.cif.g08.bks.cpg/sg60_13_cif.got.tgz:25217.got - 2010.06.03 14:59:27.
