data_PCOD9456013
_publ_section_title
;
Structure prediction by ZEFSAII (Michael W. Deem and Ramdas Pophale) SiO2 
 PCOD9456013
Probable space group: P B C N
;
_chemical_formula_sum "Si O2"
_cell_formula_units_Z 40
_cell_length_a 8.368748
_cell_length_b 19.678400
_cell_length_c 10.982381
_cell_angle_alpha 90.000000
_cell_angle_beta 90.000000
_cell_angle_gamma 90.000000
_cell_volume 1808.617717
_symmetry_space_group_name_H-M "P B C N"
_symmetry_group_IT_number 60
_symmetry_cell_setting 'orthorhombic'
loop_
_space_group_symop_operation_xyz
x,y,z
1/2-x,1/2-y,1/2+z
1/2+x,1/2-y,-z
-x,y,1/2-z
-x,-y,-z
1/2+x,1/2+y,1/2-z
1/2-x,1/2+y,z
x,-y,1/2+z
loop_
_atom_site_type_symbol
_atom_site_label
_atom_site_fract_x
_atom_site_fract_y
_atom_site_fract_z
Si Si1 0.191359 0.302109 0.258327
Si Si2 0.198777 0.899334 0.472223
Si Si3 0.692393 0.353893 0.759584
Si Si4 0.878930 0.911461 0.362611
Si Si5 0.819725 0.488997 0.705924
O O1 0.252345 0.338380 0.380915
O O2 0.241571 0.223737 0.259620
O O3 0.262760 0.346783 0.146698
O O4 0.000000 0.305717 0.250000
O O5 0.245032 0.877061 0.605901
O O6 0.006739 0.913463 0.470361
O O7 0.284157 0.963946 0.410627
O O8 0.500000 0.356837 0.750000
O O9 0.769550 0.412245 0.677125
O O10 0.000000 0.900434 0.250000
O O11 0.785698 0.978315 0.316960
O O12 0.000000 0.493555 0.750000
#
# Coordination Sequence:
#
# PCOD9456013 Si02
#       5
#     8   8   8   8   8
#     4   9  19  37  59  86 118 151 198 247 294 359
#     4  10  21  40  62  82 119 161 190 244 304 342
#     4  11  24  39  58  90 121 154 203 243 288 362
#     4   8  16  34  60  82 111 155 195 232 290 358
#     4  10  21  38  60  88 118 151 200 248 295 359
#
# _framework density 22.116337999999999
#
# number of rings (size 3 to 8) (size 9 to 14) (size 15 to 20)
#    0.000    2.800    0.000    4.200    0.000    9.600 
#    0.000    4.000    0.000    0.000    0.000    0.000 
#    0.000    0.000    0.000    0.000    0.000    0.000 
#
# Total GULP energy -223293.499589 kJ/mol
# GULP energy per Si atom -5582.337490 kJ/mol
# Density = 2.206600 g / cm^3
# Si number density = 22.116338 Si / 1000 Ang^3
#
#
#
# Elastic Constant Matrix: (Units=GPa)
#
#
# Indices 1 2 3 4 5 6 
#
# 1 93.9054 35.2458 -5.0571 0.0000 0.0000 0.0000
# 2 35.2458 171.9704 13.2611 0.0000 0.0000 0.0000
# 3 -5.0571 13.2611 48.7903 0.0000 0.0000 0.0000
# 4 0.0000 0.0000 0.0000 9.6283 0.0000 0.0000
# 5 0.0000 0.0000 0.0000 0.0000 18.8407 0.0000
# 6 0.0000 0.0000 0.0000 0.0000 0.0000 36.5849
#
#
#
# Elastic Compliance Matrix: (Units=1/GPa)
#
#
# Indices 1 2 3 4 5 6 
#
# 1 0.011707 -0.002546 0.001906 0.000000 0.000000 0.000000
# 2 -0.002546 0.006493 -0.002029 0.000000 0.000000 0.000000
# 3 0.001906 -0.002029 0.021245 0.000000 0.000000 0.000000
# 4 0.000000 0.000000 0.000000 0.103861 0.000000 0.000000
# 5 0.000000 0.000000 0.000000 0.000000 0.053077 0.000000
# 6 0.000000 0.000000 0.000000 0.000000 0.000000 0.027334
#
#
# Mechanical properties :
#
#
# Convention : Reuss Voigt Hill
#
# Bulk Modulus (GPa) = 29.32015 44.61842 36.96928
# Shear Modulus (GPa) = 20.79654 31.09187 25.94421
#
# Velocity S-wave (km/s) = 3.06980 3.75351 3.42874
# Velocity P-wave (km/s) = 5.08438 6.24527 5.69448
#
# Compressibility (1/GPa) = 0.03410624
#
# Stress axis : x y z
#
# Youngs Moduli (GPa) = 85.41620 154.00511 47.07032
#
# Poissons Ratio (x) = 0.39216 -0.08970
# Poissons Ratio (y) = 0.21750 0.09550
# Poissons Ratio (z) = -0.16277 0.31245
#
# Static dielectric constant tensor:
#      x y z
#    x 1.833610 0.000000 0.000000 
#    y 0.000000 1.825410 0.000000 
#    z 0.000000 0.000000 1.875100 
# 
# From -- ./inp_files/9779.got.cif
#   From: 2010.05.17/outbox.cif.g08.bks.cpg/sg60_5_cif.got.tgz:9779.got - 2010.06.03 14:59:27.
