data_PCOD9456764
_publ_section_title
;
Structure prediction by ZEFSAII (Michael W. Deem and Ramdas Pophale) SiO2 
 PCOD9456764
Probable space group: P B C N
;
_chemical_formula_sum "Si O2"
_cell_formula_units_Z 32
_cell_length_a 5.150112
_cell_length_b 15.150541
_cell_length_c 21.234088
_cell_angle_alpha 90.000000
_cell_angle_beta 90.000000
_cell_angle_gamma 90.000000
_cell_volume 1656.831824
_symmetry_space_group_name_H-M "P B C N"
_symmetry_group_IT_number 60
_symmetry_cell_setting 'orthorhombic'
loop_
_space_group_symop_operation_xyz
x,y,z
1/2-x,1/2-y,1/2+z
1/2+x,1/2-y,-z
-x,y,1/2-z
-x,-y,-z
1/2+x,1/2+y,1/2-z
1/2-x,1/2+y,z
x,-y,1/2+z
loop_
_atom_site_type_symbol
_atom_site_label
_atom_site_fract_x
_atom_site_fract_y
_atom_site_fract_z
Si Si1 0.681768 0.773090 0.537098
Si Si2 0.923686 0.123646 0.629238
Si Si3 0.436821 0.047280 0.681699
Si Si4 0.661747 0.972746 0.561226
O O1 0.446695 0.773349 0.486413
O O2 0.561548 0.715964 0.593896
O O3 0.753551 0.873108 0.553515
O O4 0.660598 0.119672 0.669271
O O5 0.879918 0.046590 0.576234
O O6 0.162087 0.093075 0.671505
O O7 0.500000 0.008685 0.750000
O O8 0.483817 0.979791 0.624126
O O9 0.500000 0.000000 0.500000
#
# Coordination Sequence:
#
# PCOD9456764 Si02
#       4
#     8   8   8   8
#     4  12  23  36  61  94 127 157 203 253 318 374
#     4  10  22  39  63  88 123 160 205 254 312 366
#     4  10  22  42  63  85 122 169 207 254 316 370
#     4  10  22  39  63  90 124 159 204 258 314 370
#
# _framework density 19.313970999999999
#
# number of rings (size 3 to 8) (size 9 to 14) (size 15 to 20)
#    1.500    0.000    2.500    3.750    3.500    2.000 
#    0.000    2.500    0.000    0.000    0.000    0.000 
#    0.000    0.000    0.000    0.000    0.000    0.000 
#
# Total GULP energy -178279.286095 kJ/mol
# GULP energy per Si atom -5571.227690 kJ/mol
# Density = 1.927001 g / cm^3
# Si number density = 19.313971 Si / 1000 Ang^3
#
#
#
# Elastic Constant Matrix: (Units=GPa)
#
#
# Indices 1 2 3 4 5 6 
#
# 1 94.9995 -1.8286 15.3921 0.0000 0.0000 0.0000
# 2 -1.8286 90.0395 16.2918 0.0000 0.0000 0.0000
# 3 15.3921 16.2918 114.1111 0.0000 0.0000 0.0000
# 4 0.0000 0.0000 0.0000 17.7789 0.0000 0.0000
# 5 0.0000 0.0000 0.0000 0.0000 30.9083 0.0000
# 6 0.0000 0.0000 0.0000 0.0000 0.0000 12.3130
#
#
#
# Elastic Compliance Matrix: (Units=1/GPa)
#
#
# Indices 1 2 3 4 5 6 
#
# 1 0.010783 0.000495 -0.001525 0.000000 0.000000 0.000000
# 2 0.000495 0.011423 -0.001698 0.000000 0.000000 0.000000
# 3 -0.001525 -0.001698 0.009211 0.000000 0.000000 0.000000
# 4 0.000000 0.000000 0.000000 0.056247 0.000000 0.000000
# 5 0.000000 0.000000 0.000000 0.000000 0.032354 0.000000
# 6 0.000000 0.000000 0.000000 0.000000 0.000000 0.081215
#
#
# Mechanical properties :
#
#
# Convention : Reuss Voigt Hill
#
# Bulk Modulus (GPa) = 38.51760 39.87342 39.19551
# Shear Modulus (GPa) = 23.21873 30.15302 26.68588
#
# Velocity S-wave (km/s) = 3.47100 3.95549 3.72114
# Velocity P-wave (km/s) = 6.00416 6.44600 6.22900
#
# Compressibility (1/GPa) = 0.02596216
#
# Stress axis : x y z
#
# Youngs Moduli (GPa) = 92.73847 87.53908 108.56001
#
# Poissons Ratio (x) = -0.04333 0.16557
# Poissons Ratio (y) = -0.04590 0.18430
# Poissons Ratio (z) = 0.14144 0.14862
#
# Static dielectric constant tensor:
#      x y z
#    x 1.707300 0.000000 0.000000 
#    y 0.000000 1.661700 0.000000 
#    z 0.000000 0.000000 1.858370 
# 
# From -- ./inp_files/18375.got.cif
#   From: 2010.05.17/outbox.cif.g08.bks.cpg/sg60_10_cif.got.tgz:18375.got - 2010.06.03 14:59:27.
