data_PCOD9456867
_publ_section_title
;
Structure prediction by ZEFSAII (Michael W. Deem and Ramdas Pophale) SiO2 
 PCOD9456867
Probable space group: P B C N
;
_chemical_formula_sum "Si O2"
_cell_formula_units_Z 60
_cell_length_a 11.769003
_cell_length_b 8.976855
_cell_length_c 23.031550
_cell_angle_alpha 90.000000
_cell_angle_beta 90.000000
_cell_angle_gamma 90.000000
_cell_volume 2433.251783
_symmetry_space_group_name_H-M "P B C N"
_symmetry_group_IT_number 60
_symmetry_cell_setting 'orthorhombic'
loop_
_space_group_symop_operation_xyz
x,y,z
1/2-x,1/2-y,1/2+z
1/2+x,1/2-y,-z
-x,y,1/2-z
-x,-y,-z
1/2+x,1/2+y,1/2-z
1/2-x,1/2+y,z
x,-y,1/2+z
loop_
_atom_site_type_symbol
_atom_site_label
_atom_site_fract_x
_atom_site_fract_y
_atom_site_fract_z
Si Si1 0.108998 0.901832 0.926370
Si Si2 0.628328 0.011268 0.481008
Si Si3 0.278390 0.825453 0.727961
Si Si4 0.727918 0.881644 0.102319
Si Si5 0.596085 0.570213 0.355104
Si Si6 0.824313 0.827864 0.445410
Si Si7 0.500000 0.614855 0.750000
Si Si8 0.377807 0.112700 0.779383
O O1 0.209126 0.793447 0.904182
O O2 0.142612 0.061465 0.898606
O O3 0.109152 0.885663 0.996104
O O4 0.992727 0.847428 0.897259
O O5 0.689093 0.056206 0.540589
O O6 0.648101 0.154117 0.439717
O O7 0.500000 0.000000 0.500000
O O8 0.692534 0.865802 0.458173
O O9 0.390775 0.725861 0.740904
O O10 0.187825 0.767447 0.774505
O O11 0.199960 0.830859 0.669967
O O12 0.311935 0.994619 0.739480
O O13 0.646369 0.935563 0.154520
O O14 0.641515 0.431298 0.392348
O O15 0.522876 0.498901 0.302905
O O16 0.500000 0.124140 0.750000
#
# Coordination Sequence:
#
# PCOD9456867 Si02
#       8
#     8   8   8   8   8   8   4   8
#     4  10  22  45  71 108 141 194 243 308 376 456
#     4  10  24  45  73 110 151 190 250 311 388 455
#     4  12  27  46  69 103 139 192 249 299 376 448
#     4  10  22  40  67 100 140 187 241 298 374 447
#     4  12  27  46  76 103 153 195 256 317 381 453
#     4  10  25  45  75 109 146 196 255 311 380 469
#     4  12  28  50  66 112 152 198 244 322 386 442
#     4  12  25  42  68  98 140 186 244 301 364 446
#
# _framework density 24.658362
#
# number of rings (size 3 to 8) (size 9 to 14) (size 15 to 20)
#    0.000    1.067    2.000    2.800    4.667    8.533 
#    0.000    0.000    0.000    0.000    0.000    0.000 
#    0.000    0.000    0.000    0.000    0.000    0.000 
#
# Total GULP energy -335115.855052 kJ/mol
# GULP energy per Si atom -5585.264251 kJ/mol
# Density = 2.460224 g / cm^3
# Si number density = 24.658362 Si / 1000 Ang^3
#
#
#
# Elastic Constant Matrix: (Units=GPa)
#
#
# Indices 1 2 3 4 5 6 
#
# 1 115.0745 43.5971 20.7787 0.0000 0.0000 0.0000
# 2 43.5971 68.7614 -5.6245 0.0000 0.0000 0.0000
# 3 20.7787 -5.6245 102.6120 0.0000 0.0000 0.0000
# 4 0.0000 0.0000 0.0000 27.4494 0.0000 0.0000
# 5 0.0000 0.0000 0.0000 0.0000 37.0902 0.0000
# 6 0.0000 0.0000 0.0000 0.0000 0.0000 42.4791
#
#
#
# Elastic Compliance Matrix: (Units=1/GPa)
#
#
# Indices 1 2 3 4 5 6 
#
# 1 0.012250 -0.008006 -0.002919 0.000000 0.000000 0.000000
# 2 -0.008006 0.019841 0.002709 0.000000 0.000000 0.000000
# 3 -0.002919 0.002709 0.010485 0.000000 0.000000 0.000000
# 4 0.000000 0.000000 0.000000 0.036431 0.000000 0.000000
# 5 0.000000 0.000000 0.000000 0.000000 0.026961 0.000000
# 6 0.000000 0.000000 0.000000 0.000000 0.000000 0.023541
#
#
# Mechanical properties :
#
#
# Convention : Reuss Voigt Hill
#
# Bulk Modulus (GPa) = 38.25165 44.88338 41.56752
# Shear Modulus (GPa) = 32.32970 36.58352 34.45661
#
# Velocity S-wave (km/s) = 3.62485 3.85595 3.74218
# Velocity P-wave (km/s) = 5.75028 6.16977 5.96371
#
# Compressibility (1/GPa) = 0.02614266
#
# Stress axis : x y z
#
# Youngs Moduli (GPa) = 81.63067 50.40162 95.37337
#
# Poissons Ratio (x) = 0.40351 0.27844
# Poissons Ratio (y) = 0.65353 -0.25834
# Poissons Ratio (z) = 0.23832 -0.13652
#
# Static dielectric constant tensor:
#      x y z
#    x 2.107460 0.000000 0.000000 
#    y 0.000000 2.038430 0.000000 
#    z 0.000000 0.000000 2.129510 
# 
# From -- ./inp_files/25326.got.cif
#   From: 2010.05.17/outbox.cif.g08.bks.cpg/sg60_13_cif.got.tgz:25326.got - 2010.06.03 14:59:27.
