data_PCOD9456073
_publ_section_title
;
Structure prediction by ZEFSAII (Michael W. Deem and Ramdas Pophale) SiO2 
 PCOD9456073
Probable space group: P B C N
;
_chemical_formula_sum "Si O2"
_cell_formula_units_Z 56
_cell_length_a 21.630517
_cell_length_b 8.997417
_cell_length_c 14.751474
_cell_angle_alpha 90.000000
_cell_angle_beta 90.000000
_cell_angle_gamma 90.000000
_cell_volume 2870.913893
_symmetry_space_group_name_H-M "P B C N"
_symmetry_group_IT_number 60
_symmetry_cell_setting 'orthorhombic'
loop_
_space_group_symop_operation_xyz
x,y,z
1/2-x,1/2-y,1/2+z
1/2+x,1/2-y,-z
-x,y,1/2-z
-x,-y,-z
1/2+x,1/2+y,1/2-z
1/2-x,1/2+y,z
x,-y,1/2+z
loop_
_atom_site_type_symbol
_atom_site_label
_atom_site_fract_x
_atom_site_fract_y
_atom_site_fract_z
Si Si1 0.046154 0.901080 0.939725
Si Si2 0.331202 0.874086 0.877577
Si Si3 0.052653 0.440953 0.434349
Si Si4 0.100713 0.760260 0.206176
Si Si5 0.000000 0.003436 0.250000
Si Si6 0.750445 0.886351 0.044914
Si Si7 0.332280 0.623615 0.526937
Si Si8 0.000000 0.469716 0.750000
O O1 0.056233 0.729301 0.964524
O O2 0.016076 0.908180 0.840619
O O3 0.116370 0.951213 0.960349
O O4 0.000000 0.000000 0.000000
O O5 0.355495 0.816626 0.780825
O O6 0.302551 0.728182 0.922912
O O7 0.387817 0.950065 0.933331
O O8 0.278588 0.002702 0.879472
O O9 0.034444 0.440781 0.327876
O O10 0.000000 0.500000 0.500000
O O11 0.137269 0.826334 0.121156
O O12 0.047886 0.634189 0.193929
O O13 0.059818 0.897856 0.241143
O O14 0.697062 0.774489 0.012564
O O15 0.778260 0.999170 0.969957
#
# Coordination Sequence:
#
# PCOD9456073 Si02
#       8
#     8   8   8   8   4   8   8   4
#     4  12  24  40  66  97 131 164 212 269 331 398
#     4  10  22  41  63  90 125 170 215 270 319 390
#     4  11  23  38  64  93 124 162 206 261 335 380
#     4  10  21  38  64  93 130 164 212 271 327 388
#     4  11  23  38  62 100 134 166 208 266 348 396
#     4  10  23  41  64  88 127 174 223 263 320 385
#     4  11  22  42  64  95 129 170 222 267 323 390
#     4   9  21  38  58  94 130 158 206 264 326 398
#
# _framework density 19.505983000000001
#
# number of rings (size 3 to 8) (size 9 to 14) (size 15 to 20)
#    0.000    1.429    2.857    2.143    6.000    1.143 
#    0.000    0.000    3.143    0.000    0.000    0.000 
#    0.000    0.000    0.000    0.000    0.000    0.000 
#
# Total GULP energy -311764.304995 kJ/mol
# GULP energy per Si atom -5567.219732 kJ/mol
# Density = 1.946159 g / cm^3
# Si number density = 19.505983 Si / 1000 Ang^3
#
#
#
# Elastic Constant Matrix: (Units=GPa)
#
#
# Indices 1 2 3 4 5 6 
#
# 1 103.6397 63.1002 48.0312 0.0000 0.0000 0.0000
# 2 63.1002 130.3744 39.6269 0.0000 0.0000 0.0000
# 3 48.0312 39.6269 85.7459 0.0000 0.0000 0.0000
# 4 0.0000 0.0000 0.0000 20.0681 0.0000 0.0000
# 5 0.0000 0.0000 0.0000 0.0000 29.2692 0.0000
# 6 0.0000 0.0000 0.0000 0.0000 0.0000 42.0162
#
#
#
# Elastic Compliance Matrix: (Units=1/GPa)
#
#
# Indices 1 2 3 4 5 6 
#
# 1 0.016180 -0.005906 -0.006334 0.000000 0.000000 0.000000
# 2 -0.005906 0.011079 -0.001812 0.000000 0.000000 0.000000
# 3 -0.006334 -0.001812 0.016048 0.000000 0.000000 0.000000
# 4 0.000000 0.000000 0.000000 0.049830 0.000000 0.000000
# 5 0.000000 0.000000 0.000000 0.000000 0.034166 0.000000
# 6 0.000000 0.000000 0.000000 0.000000 0.000000 0.023800
#
#
# Mechanical properties :
#
#
# Convention : Reuss Voigt Hill
#
# Bulk Modulus (GPa) = 65.77467 69.03073 67.40270
# Shear Modulus (GPa) = 27.13340 29.53750 28.33545
#
# Velocity S-wave (km/s) = 3.73370 3.89560 3.81550
# Velocity P-wave (km/s) = 7.23746 7.46328 7.35124
#
# Compressibility (1/GPa) = 0.01520342
#
# Stress axis : x y z
#
# Youngs Moduli (GPa) = 61.80490 90.25815 62.31368
#
# Poissons Ratio (x) = 0.53304 0.39470
# Poissons Ratio (y) = 0.36501 0.11292
# Poissons Ratio (z) = 0.39147 0.16355
#
# Static dielectric constant tensor:
#      x y z
#    x 1.610700 0.000000 0.000000 
#    y 0.000000 1.717070 0.000000 
#    z 0.000000 0.000000 1.702880 
# 
# From -- ./inp_files/17745.got.cif
#   From: 2010.05.17/outbox.cif.g08.bks.cpg/sg60_9_cif.got.tgz:17745.got - 2010.06.03 14:59:27.
