data_PCOD9456729
_publ_section_title
;
Structure prediction by ZEFSAII (Michael W. Deem and Ramdas Pophale) SiO2 
 PCOD9456729
Probable space group: P B C N
;
_chemical_formula_sum "Si O2"
_cell_formula_units_Z 56
_cell_length_a 19.081611
_cell_length_b 8.849925
_cell_length_c 14.000760
_cell_angle_alpha 90.000000
_cell_angle_beta 90.000000
_cell_angle_gamma 90.000000
_cell_volume 2364.319909
_symmetry_space_group_name_H-M "P B C N"
_symmetry_group_IT_number 60
_symmetry_cell_setting 'orthorhombic'
loop_
_space_group_symop_operation_xyz
x,y,z
1/2-x,1/2-y,1/2+z
1/2+x,1/2-y,-z
-x,y,1/2-z
-x,-y,-z
1/2+x,1/2+y,1/2-z
1/2-x,1/2+y,z
x,-y,1/2+z
loop_
_atom_site_type_symbol
_atom_site_label
_atom_site_fract_x
_atom_site_fract_y
_atom_site_fract_z
Si Si1 0.856943 0.647394 0.498302
Si Si2 0.161460 0.044527 0.756353
Si Si3 0.457260 0.629815 0.889102
Si Si4 0.213244 0.729077 0.812380
Si Si5 0.612176 0.971385 0.313954
Si Si6 0.897272 0.014697 0.941070
Si Si7 0.533876 0.970377 0.625773
O O1 0.798382 0.658842 0.581787
O O2 0.847147 0.566068 0.395383
O O3 0.879563 0.819920 0.481811
O O4 0.918033 0.551380 0.549208
O O5 0.084999 0.087042 0.794804
O O6 0.210771 0.187760 0.773372
O O7 0.154373 0.993336 0.647011
O O8 0.195909 0.905557 0.813078
O O9 0.522857 0.519976 0.902951
O O10 0.486322 0.798824 0.896249
O O11 0.400622 0.604771 0.973803
O O12 0.159465 0.655412 0.735323
O O13 0.535895 0.929412 0.358432
O O14 0.581366 0.054295 0.220318
#
# Coordination Sequence:
#
# PCOD9456729 Si02
#       7
#     8   8   8   8   8   8   8
#     4  11  22  45  69 103 139 180 231 291 348 425
#     4  12  28  50  68  99 144 186 244 294 358 426
#     4  11  24  44  70 108 136 181 231 298 356 418
#     4  11  29  48  69  99 140 190 238 297 343 433
#     4  10  22  41  69 103 136 186 227 280 356 414
#     4  11  25  43  72 103 141 181 230 296 366 416
#     4  10  22  38  72 105 143 176 229 286 346 426
#
# _framework density 23.685459999999999
#
# number of rings (size 3 to 8) (size 9 to 14) (size 15 to 20)
#    0.000    1.143    2.857    1.714   10.000    2.286 
#    5.143    0.000    0.000    0.000    0.000    0.000 
#    0.000    0.000    0.000    0.000    0.000    0.000 
#
# Total GULP energy -312887.691067 kJ/mol
# GULP energy per Si atom -5587.280198 kJ/mol
# Density = 2.363155 g / cm^3
# Si number density = 23.685460 Si / 1000 Ang^3
#
#
#
# Elastic Constant Matrix: (Units=GPa)
#
#
# Indices 1 2 3 4 5 6 
#
# 1 55.3908 5.8933 19.1441 0.0000 0.0000 0.0000
# 2 5.8933 38.9093 10.2596 0.0000 0.0000 0.0000
# 3 19.1441 10.2596 136.7060 0.0000 0.0000 0.0000
# 4 0.0000 0.0000 0.0000 26.6573 0.0000 0.0000
# 5 0.0000 0.0000 0.0000 0.0000 28.4012 0.0000
# 6 0.0000 0.0000 0.0000 0.0000 0.0000 23.2310
#
#
#
# Elastic Compliance Matrix: (Units=1/GPa)
#
#
# Indices 1 2 3 4 5 6 
#
# 1 0.019161 -0.002239 -0.002515 0.000000 0.000000 0.000000
# 2 -0.002239 0.026481 -0.001674 0.000000 0.000000 0.000000
# 3 -0.002515 -0.001674 0.007793 0.000000 0.000000 0.000000
# 4 0.000000 0.000000 0.000000 0.037513 0.000000 0.000000
# 5 0.000000 0.000000 0.000000 0.000000 0.035210 0.000000
# 6 0.000000 0.000000 0.000000 0.000000 0.000000 0.043046
#
#
# Mechanical properties :
#
#
# Convention : Reuss Voigt Hill
#
# Bulk Modulus (GPa) = 24.64326 33.51113 29.07720
# Shear Modulus (GPa) = 25.56412 28.70515 27.13464
#
# Velocity S-wave (km/s) = 3.28886 3.48506 3.38838
# Velocity P-wave (km/s) = 4.98489 5.51120 5.25464
#
# Compressibility (1/GPa) = 0.04057904
#
# Stress axis : x y z
#
# Youngs Moduli (GPa) = 52.18918 37.76252 128.32316
#
# Poissons Ratio (x) = 0.08455 0.32277
# Poissons Ratio (y) = 0.11685 0.21479
# Poissons Ratio (z) = 0.13127 0.06321
#
# Static dielectric constant tensor:
#      x y z
#    x 1.885260 0.000000 0.000000 
#    y 0.000000 1.842740 0.000000 
#    z 0.000000 0.000000 2.009040 
# 
# From -- ./inp_files/17711.got.cif
#   From: 2010.05.17/outbox.cif.g08.bks.cpg/sg60_9_cif.got.tgz:17711.got - 2010.06.03 14:59:27.
