data_PCOD9456356
_publ_section_title
;
Structure prediction by ZEFSAII (Michael W. Deem and Ramdas Pophale) SiO2 
 PCOD9456356
Probable space group: P B C N
;
_chemical_formula_sum "Si O2"
_cell_formula_units_Z 60
_cell_length_a 10.951276
_cell_length_b 17.293548
_cell_length_c 15.633156
_cell_angle_alpha 90.000000
_cell_angle_beta 90.000000
_cell_angle_gamma 90.000000
_cell_volume 2960.707404
_symmetry_space_group_name_H-M "P B C N"
_symmetry_group_IT_number 60
_symmetry_cell_setting 'orthorhombic'
loop_
_space_group_symop_operation_xyz
x,y,z
1/2-x,1/2-y,1/2+z
1/2+x,1/2-y,-z
-x,y,1/2-z
-x,-y,-z
1/2+x,1/2+y,1/2-z
1/2-x,1/2+y,z
x,-y,1/2+z
loop_
_atom_site_type_symbol
_atom_site_label
_atom_site_fract_x
_atom_site_fract_y
_atom_site_fract_z
Si Si1 0.500000 0.685736 0.750000
Si Si2 0.890641 0.558512 0.980888
Si Si3 0.012973 0.670776 0.845275
Si Si4 0.768458 0.339999 0.618729
Si Si5 0.004996 0.850491 0.650858
Si Si6 0.619056 0.163485 0.297770
Si Si7 0.729639 0.421956 0.938511
Si Si8 0.299357 0.666029 0.885392
O O1 0.420106 0.746643 0.692837
O O2 0.401566 0.645855 0.813234
O O3 0.779276 0.508653 0.942775
O O4 0.942929 0.620684 0.914878
O O5 0.846158 0.597646 0.068172
O O6 0.000000 0.500000 0.000000
O O7 0.159013 0.670086 0.855707
O O8 0.000000 0.639212 0.750000
O O9 0.963123 0.758756 0.850576
O O10 0.625593 0.353470 0.603869
O O11 0.782805 0.340867 0.721576
O O12 0.819896 0.256246 0.590227
O O13 0.103762 0.905212 0.608510
O O14 0.000000 0.872176 0.750000
O O15 0.500000 0.127148 0.250000
O O16 0.668332 0.126012 0.383889
O O17 0.706620 0.389331 0.033354
#
# Coordination Sequence:
#
# PCOD9456356 Si02
#       8
#     4   8   8   8   8   8   8   8
#     4   8  20  36  64  92 132 168 220 278 344 390
#     4  12  25  41  62  96 136 167 220 270 336 409
#     4  10  23  42  66  94 131 169 219 284 335 381
#     4  10  21  41  64  91 133 173 214 280 326 396
#     4  10  21  42  68  96 125 169 226 270 327 395
#     4   9  19  35  64  93 125 170 223 266 330 398
#     4  12  23  38  67  97 132 176 223 271 337 408
#     4  10  21  41  64  98 129 169 225 278 335 393
#
# _framework density 20.265426000000001
#
# number of rings (size 3 to 8) (size 9 to 14) (size 15 to 20)
#    0.400    1.333    2.667    1.600    1.867    4.267 
#    2.400    0.000    1.467    0.000    0.000    0.000 
#    0.000    0.000    0.000    0.000    0.000    0.000 
#
# Total GULP energy -334558.414707 kJ/mol
# GULP energy per Si atom -5575.973578 kJ/mol
# Density = 2.021930 g / cm^3
# Si number density = 20.265426 Si / 1000 Ang^3
#
#
#
# Elastic Constant Matrix: (Units=GPa)
#
#
# Indices 1 2 3 4 5 6 
#
# 1 100.5871 27.8664 31.6383 0.0000 0.0000 0.0000
# 2 27.8664 35.9266 26.6098 0.0000 0.0000 0.0000
# 3 31.6383 26.6098 77.5686 0.0000 0.0000 0.0000
# 4 0.0000 0.0000 0.0000 129.7108 0.0000 0.0000
# 5 0.0000 0.0000 0.0000 0.0000 31.4148 0.0000
# 6 0.0000 0.0000 0.0000 0.0000 0.0000 227.8503
#
#
#
# Elastic Compliance Matrix: (Units=1/GPa)
#
#
# Indices 1 2 3 4 5 6 
#
# 1 0.013007 -0.008258 -0.002472 0.000000 0.000000 0.000000
# 2 -0.008258 0.042558 -0.011232 0.000000 0.000000 0.000000
# 3 -0.002472 -0.011232 0.017753 0.000000 0.000000 0.000000
# 4 0.000000 0.000000 0.000000 0.007709 0.000000 0.000000
# 5 0.000000 0.000000 0.000000 0.000000 0.031832 0.000000
# 6 0.000000 0.000000 0.000000 0.000000 0.000000 0.004389
#
#
# Mechanical properties :
#
#
# Convention : Reuss Voigt Hill
#
# Bulk Modulus (GPa) = 34.01885 42.92346 38.47116
# Shear Modulus (GPa) = 29.24481 86.32636 57.78559
#
# Velocity S-wave (km/s) = 3.80292 6.53378 5.34568
# Velocity P-wave (km/s) = 6.00883 8.84008 7.55821
#
# Compressibility (1/GPa) = 0.02939547
#
# Stress axis : x y z
#
# Youngs Moduli (GPa) = 76.88194 23.49716 56.32776
#
# Poissons Ratio (x) = 0.19403 0.13927
# Poissons Ratio (y) = 0.63485 0.63265
# Poissons Ratio (z) = 0.19009 0.26391
#
# Static dielectric constant tensor:
#      x y z
#    x 1.770390 0.000000 0.000000 
#    y 0.000000 1.731650 0.000000 
#    z 0.000000 0.000000 1.691700 
# 
# From -- ./inp_files/16345.got.cif
#   From: 2010.05.17/outbox.cif.g08.bks.cpg/sg60_9_cif.got.tgz:16345.got - 2010.06.03 14:59:27.
