data_PCOD9456075
_publ_section_title
;
Structure prediction by ZEFSAII (Michael W. Deem and Ramdas Pophale) SiO2 
 PCOD9456075
Probable space group: P B C N
;
_chemical_formula_sum "Si O2"
_cell_formula_units_Z 60
_cell_length_a 22.280605
_cell_length_b 5.520825
_cell_length_c 22.956327
_cell_angle_alpha 90.000000
_cell_angle_beta 90.000000
_cell_angle_gamma 90.000000
_cell_volume 2823.796287
_symmetry_space_group_name_H-M "P B C N"
_symmetry_group_IT_number 60
_symmetry_cell_setting 'orthorhombic'
loop_
_space_group_symop_operation_xyz
x,y,z
1/2-x,1/2-y,1/2+z
1/2+x,1/2-y,-z
-x,y,1/2-z
-x,-y,-z
1/2+x,1/2+y,1/2-z
1/2-x,1/2+y,z
x,-y,1/2+z
loop_
_atom_site_type_symbol
_atom_site_label
_atom_site_fract_x
_atom_site_fract_y
_atom_site_fract_z
Si Si1 0.898891 0.973687 0.121019
Si Si2 0.737978 0.895152 0.822569
Si Si3 0.897098 0.715893 0.308408
Si Si4 0.056568 0.522481 0.571730
Si Si5 0.915459 0.507650 0.555997
Si Si6 0.782699 0.075673 0.193832
Si Si7 0.025267 0.902032 0.652446
Si Si8 0.000000 0.532434 0.750000
O O1 0.902515 0.227477 0.084034
O O2 0.848903 0.023601 0.169842
O O3 0.966806 0.934230 0.144662
O O4 0.884397 0.726162 0.085743
O O5 0.754747 0.648573 0.855054
O O6 0.670281 0.863121 0.800762
O O7 0.778443 0.911579 0.764270
O O8 0.916814 0.613400 0.372100
O O9 0.939382 0.615000 0.258014
O O10 0.917924 0.992053 0.313616
O O11 0.094082 0.484328 0.513523
O O12 0.050120 0.802100 0.591710
O O13 0.987113 0.454487 0.561488
O O14 0.757188 0.340227 0.175294
O O15 0.998347 0.689976 0.692029
#
# Coordination Sequence:
#
# PCOD9456075 Si02
#       8
#     8   8   8   8   8   8   8   4
#     4  11  22  38  64  93 128 158 215 257 330 376
#     4  10  25  42  62  87 118 173 220 261 302 368
#     4  11  22  40  62  89 132 168 216 258 327 379
#     4   9  21  37  61  96 131 159 209 251 329 393
#     4  10  21  38  64  97 128 165 199 261 327 391
#     4  10  22  39  61  87 120 167 213 264 301 374
#     4  10  22  36  60  93 130 168 199 268 318 393
#     4  10  24  34  56  94 130 168 198 264 318 392
#
# _framework density 21.247990999999999
#
# number of rings (size 3 to 8) (size 9 to 14) (size 15 to 20)
#    0.000    1.867    1.333    1.200    9.333    4.800 
#    0.000    0.000    0.000    4.800    0.000    0.000 
#    0.000    0.000    0.000    0.000    0.000    0.000 
#
# Total GULP energy -334535.890151 kJ/mol
# GULP energy per Si atom -5575.598169 kJ/mol
# Density = 2.119963 g / cm^3
# Si number density = 21.247991 Si / 1000 Ang^3
#
#
#
# Elastic Constant Matrix: (Units=GPa)
#
#
# Indices 1 2 3 4 5 6 
#
# 1 57.9539 22.8988 5.7616 0.0000 0.0000 0.0000
# 2 22.8988 117.1423 16.8882 0.0000 0.0000 0.0000
# 3 5.7616 16.8882 69.5334 0.0000 0.0000 0.0000
# 4 0.0000 0.0000 0.0000 20.5214 0.0000 0.0000
# 5 0.0000 0.0000 0.0000 0.0000 17.6682 0.0000
# 6 0.0000 0.0000 0.0000 0.0000 0.0000 340.2082
#
#
#
# Elastic Compliance Matrix: (Units=1/GPa)
#
#
# Indices 1 2 3 4 5 6 
#
# 1 0.018731 -0.003562 -0.000687 0.000000 0.000000 0.000000
# 2 -0.003562 0.009524 -0.002018 0.000000 0.000000 0.000000
# 3 -0.000687 -0.002018 0.014929 0.000000 0.000000 0.000000
# 4 0.000000 0.000000 0.000000 0.048730 0.000000 0.000000
# 5 0.000000 0.000000 0.000000 0.000000 0.056599 0.000000
# 6 0.000000 0.000000 0.000000 0.000000 0.000000 0.002939
#
#
# Mechanical properties :
#
#
# Convention : Reuss Voigt Hill
#
# Bulk Modulus (GPa) = 32.62752 37.30299 34.96526
# Shear Modulus (GPa) = 28.70226 88.95161 58.82694
#
# Velocity S-wave (km/s) = 3.67934 6.47722 5.26745
# Velocity P-wave (km/s) = 5.78264 8.57516 7.31342
#
# Compressibility (1/GPa) = 0.03064897
#
# Stress axis : x y z
#
# Youngs Moduli (GPa) = 53.38748 104.99852 66.98542
#
# Poissons Ratio (x) = 0.37406 0.04601
# Poissons Ratio (y) = 0.19019 0.13518
# Poissons Ratio (z) = 0.03667 0.21188
#
# Static dielectric constant tensor:
#      x y z
#    x 1.736590 0.000000 0.000000 
#    y 0.000000 1.925300 0.000000 
#    z 0.000000 0.000000 1.779950 
# 
# From -- ./inp_files/24596.got.cif
#   From: 2010.05.17/outbox.cif.g08.bks.cpg/sg60_13_cif.got.tgz:24596.got - 2010.06.03 14:59:27.
