data_PCOD9456888
_publ_section_title
;
Structure prediction by ZEFSAII (Michael W. Deem and Ramdas Pophale) SiO2 
 PCOD9456888
Probable space group: P B C N
;
_chemical_formula_sum "Si O2"
_cell_formula_units_Z 40
_cell_length_a 13.670408
_cell_length_b 8.932870
_cell_length_c 12.568156
_cell_angle_alpha 90.000000
_cell_angle_beta 90.000000
_cell_angle_gamma 90.000000
_cell_volume 1534.772655
_symmetry_space_group_name_H-M "P B C N"
_symmetry_group_IT_number 60
_symmetry_cell_setting 'orthorhombic'
loop_
_space_group_symop_operation_xyz
x,y,z
1/2-x,1/2-y,1/2+z
1/2+x,1/2-y,-z
-x,y,1/2-z
-x,-y,-z
1/2+x,1/2+y,1/2-z
1/2-x,1/2+y,z
x,-y,1/2+z
loop_
_atom_site_type_symbol
_atom_site_label
_atom_site_fract_x
_atom_site_fract_y
_atom_site_fract_z
Si Si1 0.627799 0.400513 0.967400
Si Si2 0.059528 0.239831 0.855352
Si Si3 0.805131 0.900449 0.293315
Si Si4 0.597989 0.918473 0.190543
Si Si5 0.188569 0.778079 0.996097
O O1 0.533310 0.344353 0.033687
O O2 0.673737 0.546960 0.023776
O O3 0.697920 0.260593 0.988117
O O4 0.640698 0.453428 0.844556
O O5 0.160030 0.163170 0.817355
O O6 0.069224 0.417779 0.855339
O O7 0.000000 0.196340 0.750000
O O8 0.689512 0.929261 0.273639
O O9 0.662459 0.270915 0.378246
O O10 0.500000 0.861143 0.250000
O O11 0.633315 0.818933 0.090775
#
# Coordination Sequence:
#
# PCOD9456888 Si02
#       5
#     8   8   8   8   8
#     4  10  22  40  70  95 135 179 238 280 357 418
#     4  11  24  45  72 103 145 187 236 299 360 430
#     4  10  24  43  70 101 138 191 231 301 355 427
#     4  11  24  47  75 107 145 190 240 298 361 433
#     4  10  22  41  69 100 130 185 233 288 348 430
#
# _framework density 26.062494000000001
#
# number of rings (size 3 to 8) (size 9 to 14) (size 15 to 20)
#    1.200    0.400    2.000    2.400    0.000    3.200 
#    3.600    3.000    0.000    0.000    0.000    0.000 
#    0.000    0.000    0.000    0.000    0.000    0.000 
#
# Total GULP energy -222760.087522 kJ/mol
# GULP energy per Si atom -5569.002188 kJ/mol
# Density = 2.600317 g / cm^3
# Si number density = 26.062494 Si / 1000 Ang^3
#
#
#
# Elastic Constant Matrix: (Units=GPa)
#
#
# Indices 1 2 3 4 5 6 
#
# 1 66.3268 -6.6461 0.8067 0.0000 0.0000 0.0000
# 2 -6.6461 71.2906 17.0058 0.0000 0.0000 0.0000
# 3 0.8067 17.0058 122.4083 0.0000 0.0000 0.0000
# 4 0.0000 0.0000 0.0000 46.4226 0.0000 0.0000
# 5 0.0000 0.0000 0.0000 0.0000 43.0373 0.0000
# 6 0.0000 0.0000 0.0000 0.0000 0.0000 30.0995
#
#
#
# Elastic Compliance Matrix: (Units=1/GPa)
#
#
# Indices 1 2 3 4 5 6 
#
# 1 0.015230 0.001493 -0.000308 0.000000 0.000000 0.000000
# 2 0.001493 0.014654 -0.002046 0.000000 0.000000 0.000000
# 3 -0.000308 -0.002046 0.008456 0.000000 0.000000 0.000000
# 4 0.000000 0.000000 0.000000 0.021541 0.000000 0.000000
# 5 0.000000 0.000000 0.000000 0.000000 0.023236 0.000000
# 6 0.000000 0.000000 0.000000 0.000000 0.000000 0.033223
#
#
# Mechanical properties :
#
#
# Convention : Reuss Voigt Hill
#
# Bulk Modulus (GPa) = 27.30776 31.37315 29.34046
# Shear Modulus (GPa) = 38.38262 40.50249 39.44255
#
# Velocity S-wave (km/s) = 3.84176 3.94642 3.89444
# Velocity P-wave (km/s) = 5.49358 5.72970 5.61288
#
# Compressibility (1/GPa) = 0.03661962
#
# Stress axis : x y z
#
# Youngs Moduli (GPa) = 65.65882 68.23939 118.26457
#
# Poissons Ratio (x) = -0.10190 0.03640
# Poissons Ratio (y) = -0.09805 0.24194
# Poissons Ratio (z) = 0.02021 0.13960
#
# Static dielectric constant tensor:
#      x y z
#    x 2.957710 0.000000 0.000000 
#    y 0.000000 1.968330 0.000000 
#    z 0.000000 0.000000 2.173030 
# 
# From -- ./inp_files/16604.got.cif
#   From: 2010.05.17/outbox.cif.g08.bks.cpg/sg60_9_cif.got.tgz:16604.got - 2010.06.03 14:59:27.
