data_PCOD9456720
_publ_section_title
;
Structure prediction by ZEFSAII (Michael W. Deem and Ramdas Pophale) SiO2 
 PCOD9456720
Probable space group: P B C N
;
_chemical_formula_sum "Si O2"
_cell_formula_units_Z 64
_cell_length_a 10.524046
_cell_length_b 8.876568
_cell_length_c 30.934816
_cell_angle_alpha 90.000000
_cell_angle_beta 90.000000
_cell_angle_gamma 90.000000
_cell_volume 2889.850388
_symmetry_space_group_name_H-M "P B C N"
_symmetry_group_IT_number 60
_symmetry_cell_setting 'orthorhombic'
loop_
_space_group_symop_operation_xyz
x,y,z
1/2-x,1/2-y,1/2+z
1/2+x,1/2-y,-z
-x,y,1/2-z
-x,-y,-z
1/2+x,1/2+y,1/2-z
1/2-x,1/2+y,z
x,-y,1/2+z
loop_
_atom_site_type_symbol
_atom_site_label
_atom_site_fract_x
_atom_site_fract_y
_atom_site_fract_z
Si Si1 0.571644 0.269899 0.371515
Si Si2 0.664687 0.842636 0.101335
Si Si3 0.387878 0.230848 0.716319
Si Si4 0.139758 0.601627 0.248046
Si Si5 0.319080 0.136730 0.343998
Si Si6 0.181507 0.900223 0.633780
Si Si7 0.460323 0.678302 0.049709
Si Si8 0.921736 0.151509 0.547326
O O1 0.640586 0.426979 0.360137
O O2 0.670204 0.137878 0.361505
O O3 0.528923 0.276615 0.421704
O O4 0.439455 0.249294 0.346233
O O5 0.655932 0.006042 0.121755
O O6 0.694506 0.725261 0.140204
O O7 0.545245 0.803538 0.072390
O O8 0.788271 0.829889 0.071038
O O9 0.500000 0.276803 0.750000
O O10 0.378879 0.050701 0.720656
O O11 0.251625 0.294767 0.731016
O O12 0.397397 0.298212 0.668037
O O13 0.183015 0.564575 0.296883
O O14 0.000000 0.674817 0.250000
O O15 0.148257 0.856972 0.584461
O O16 0.545346 0.526349 0.046416
O O17 0.418565 0.713292 0.001174
#
# Coordination Sequence:
#
# PCOD9456720 Si02
#       8
#     8   8   8   8   8   8   8   8
#     4  10  24  43  67  99 133 176 218 273 325 411
#     4  11  22  40  67  98 128 178 219 277 326 401
#     4  11  26  42  66  98 129 170 227 274 337 400
#     4  11  25  43  66  95 131 173 219 282 330 403
#     4  11  24  42  68  95 136 170 231 269 340 393
#     4  11  24  43  67  92 136 176 218 271 344 391
#     4  10  22  38  68  89 136 175 212 279 327 395
#     4   9  21  43  59 101 131 170 226 267 329 391
#
# _framework density 22.146477000000001
#
# number of rings (size 3 to 8) (size 9 to 14) (size 15 to 20)
#    0.000    1.500    1.250    2.250    8.750    1.500 
#    0.000    2.500    0.000    0.000    0.000    0.000 
#    0.000    0.000    0.000    0.000    0.000    0.000 
#
# Total GULP energy -357852.471941 kJ/mol
# GULP energy per Si atom -5591.444874 kJ/mol
# Density = 2.209607 g / cm^3
# Si number density = 22.146477 Si / 1000 Ang^3
#
#
#
# Elastic Constant Matrix: (Units=GPa)
#
#
# Indices 1 2 3 4 5 6 
#
# 1 77.3543 10.9581 11.9540 0.0000 0.0000 0.0000
# 2 10.9581 65.0521 24.8805 0.0000 0.0000 0.0000
# 3 11.9540 24.8805 126.4133 0.0000 0.0000 0.0000
# 4 0.0000 0.0000 0.0000 20.5041 0.0000 0.0000
# 5 0.0000 0.0000 0.0000 0.0000 17.6800 0.0000
# 6 0.0000 0.0000 0.0000 0.0000 0.0000 24.2444
#
#
#
# Elastic Compliance Matrix: (Units=1/GPa)
#
#
# Indices 1 2 3 4 5 6 
#
# 1 0.013335 -0.001908 -0.000886 0.000000 0.000000 0.000000
# 2 -0.001908 0.016897 -0.003145 0.000000 0.000000 0.000000
# 3 -0.000886 -0.003145 0.008613 0.000000 0.000000 0.000000
# 4 0.000000 0.000000 0.000000 0.048771 0.000000 0.000000
# 5 0.000000 0.000000 0.000000 0.000000 0.056561 0.000000
# 6 0.000000 0.000000 0.000000 0.000000 0.000000 0.041247
#
#
# Mechanical properties :
#
#
# Convention : Reuss Voigt Hill
#
# Bulk Modulus (GPa) = 37.08095 40.48941 38.78518
# Shear Modulus (GPa) = 24.23789 27.22085 25.72937
#
# Velocity S-wave (km/s) = 3.31181 3.50970 3.41219
# Velocity P-wave (km/s) = 5.60393 5.89459 5.75110
#
# Compressibility (1/GPa) = 0.02696803
#
# Stress axis : x y z
#
# Youngs Moduli (GPa) = 74.99286 59.18368 116.09924
#
# Poissons Ratio (x) = 0.11290 0.10281
# Poissons Ratio (y) = 0.14305 0.36515
# Poissons Ratio (z) = 0.06641 0.18614
#
# Static dielectric constant tensor:
#      x y z
#    x 1.798780 0.000000 0.000000 
#    y 0.000000 1.785370 0.000000 
#    z 0.000000 0.000000 1.870920 
# 
# From -- ./inp_files/26091.got.cif
#   From: 2010.05.17/outbox.cif.g08.bks.cpg/sg60_14_cif.got.tgz:26091.got - 2010.06.03 14:59:27.
