data_PCOD9456713
_publ_section_title
;
Structure prediction by ZEFSAII (Michael W. Deem and Ramdas Pophale) SiO2 
 PCOD9456713
Probable space group: P B C N
;
_chemical_formula_sum "Si O2"
_cell_formula_units_Z 48
_cell_length_a 15.389958
_cell_length_b 15.448804
_cell_length_c 7.984623
_cell_angle_alpha 90.000000
_cell_angle_beta 90.000000
_cell_angle_gamma 90.000000
_cell_volume 1898.395577
_symmetry_space_group_name_H-M "P B C N"
_symmetry_group_IT_number 60
_symmetry_cell_setting 'orthorhombic'
loop_
_space_group_symop_operation_xyz
x,y,z
1/2-x,1/2-y,1/2+z
1/2+x,1/2-y,-z
-x,y,1/2-z
-x,-y,-z
1/2+x,1/2+y,1/2-z
1/2-x,1/2+y,z
x,-y,1/2+z
loop_
_atom_site_type_symbol
_atom_site_label
_atom_site_fract_x
_atom_site_fract_y
_atom_site_fract_z
Si Si1 0.418447 0.698490 0.658457
Si Si2 0.263877 0.095825 0.454564
Si Si3 0.604064 0.876591 0.984469
Si Si4 0.371274 0.022712 0.727213
Si Si5 0.597069 0.381500 0.709689
Si Si6 0.798001 0.197882 0.523231
O O1 0.500000 0.656758 0.750000
O O2 0.433999 0.799343 0.621074
O O3 0.412561 0.668878 0.466586
O O4 0.341973 0.684708 0.794157
O O5 0.284841 0.056847 0.634158
O O6 0.177783 0.062045 0.358864
O O7 0.272638 0.199819 0.469694
O O8 0.340782 0.054667 0.347609
O O9 0.588458 0.895345 0.179700
O O10 0.709086 0.855506 0.988432
O O11 0.575518 0.966379 0.902203
O O12 0.500000 0.415084 0.750000
O O13 0.636270 0.328174 0.869950
#
# Coordination Sequence:
#
# PCOD9456713 Si02
#       6
#     8   8   8   8   8   8
#     4  12  24  40  62  97 133 164 210 272 325 373
#     4  11  22  41  66  96 124 166 218 263 318 381
#     4  11  22  41  66  96 124 166 218 263 318 381
#     4  10  22  38  66  94 130 160 216 272 314 372
#     4  12  24  40  62  97 133 164 210 272 325 373
#     4  12  22  42  70  96 120 170 220 268 312 376
#
# _framework density 25.284507999999999
#
# number of rings (size 3 to 8) (size 9 to 14) (size 15 to 20)
#    0.000    0.667    6.667    2.000    0.000    0.000 
#    0.000    1.667    0.000    0.000    0.000    0.000 
#    0.000    0.000    0.000    0.000    0.000    0.000 
#
# Total GULP energy -267353.179708 kJ/mol
# GULP energy per Si atom -5569.857911 kJ/mol
# Density = 2.522696 g / cm^3
# Si number density = 25.284508 Si / 1000 Ang^3
#
#
#
# Elastic Constant Matrix: (Units=GPa)
#
#
# Indices 1 2 3 4 5 6 
#
# 1 83.2583 19.0195 39.3948 0.0000 0.0000 0.0000
# 2 19.0195 38.4114 37.3989 0.0000 0.0000 0.0000
# 3 39.3948 37.3989 151.1786 0.0000 0.0000 0.0000
# 4 0.0000 0.0000 0.0000 25.4772 0.0000 0.0000
# 5 0.0000 0.0000 0.0000 0.0000 29.7748 0.0000
# 6 0.0000 0.0000 0.0000 0.0000 0.0000 27.7739
#
#
#
# Elastic Compliance Matrix: (Units=1/GPa)
#
#
# Indices 1 2 3 4 5 6 
#
# 1 0.014277 -0.004541 -0.002597 0.000000 0.000000 0.000000
# 2 -0.004541 0.035738 -0.007658 0.000000 0.000000 0.000000
# 3 -0.002597 -0.007658 0.009186 0.000000 0.000000 0.000000
# 4 0.000000 0.000000 0.000000 0.039251 0.000000 0.000000
# 5 0.000000 0.000000 0.000000 0.000000 0.033586 0.000000
# 6 0.000000 0.000000 0.000000 0.000000 0.000000 0.036005
#
#
# Mechanical properties :
#
#
# Convention : Reuss Voigt Hill
#
# Bulk Modulus (GPa) = 33.77237 51.60828 42.69033
# Shear Modulus (GPa) = 24.09602 28.40752 26.25177
#
# Velocity S-wave (km/s) = 3.09041 3.35552 3.22569
# Velocity P-wave (km/s) = 5.11079 5.95551 5.54924
#
# Compressibility (1/GPa) = 0.02961000
#
# Stress axis : x y z
#
# Youngs Moduli (GPa) = 70.04321 27.98127 108.86315
#
# Poissons Ratio (x) = 0.12705 0.28272
# Poissons Ratio (y) = 0.31804 0.83365
# Poissons Ratio (z) = 0.18191 0.21427
#
# Static dielectric constant tensor:
#      x y z
#    x 2.351660 0.000000 0.000000 
#    y 0.000000 2.030410 0.000000 
#    z 0.000000 0.000000 2.154450 
# 
# From -- ./inp_files/6808.got.cif
#   From: 2010.05.17/outbox.cif.g08.bks.cpg/sg60_4_cif.got.tgz:6808.got - 2010.06.03 14:59:27.
