data_PCOD9456105
_publ_section_title
;
Structure prediction by ZEFSAII (Michael W. Deem and Ramdas Pophale) SiO2 
 PCOD9456105
Probable space group: P B C N
;
_chemical_formula_sum "Si O2"
_cell_formula_units_Z 52
_cell_length_a 17.798747
_cell_length_b 14.466243
_cell_length_c 10.651544
_cell_angle_alpha 90.000000
_cell_angle_beta 90.000000
_cell_angle_gamma 90.000000
_cell_volume 2742.570192
_symmetry_space_group_name_H-M "P B C N"
_symmetry_group_IT_number 60
_symmetry_cell_setting 'orthorhombic'
loop_
_space_group_symop_operation_xyz
x,y,z
1/2-x,1/2-y,1/2+z
1/2+x,1/2-y,-z
-x,y,1/2-z
-x,-y,-z
1/2+x,1/2+y,1/2-z
1/2-x,1/2+y,z
x,-y,1/2+z
loop_
_atom_site_type_symbol
_atom_site_label
_atom_site_fract_x
_atom_site_fract_y
_atom_site_fract_z
Si Si1 0.000000 0.081833 0.750000
Si Si2 0.104226 0.086777 0.307053
Si Si3 0.290781 0.614633 0.082552
Si Si4 0.636661 0.769188 0.565041
Si Si5 0.521646 0.709316 0.997251
Si Si6 0.154761 0.741576 0.149805
Si Si7 0.767069 0.905652 0.484353
O O1 0.016286 0.140588 0.624359
O O2 0.067817 0.013457 0.787677
O O3 0.137035 0.116051 0.173389
O O4 0.044142 0.151139 0.379746
O O5 0.176249 0.089902 0.397988
O O6 0.222222 0.669744 0.142318
O O7 0.263758 0.510869 0.059691
O O8 0.316478 0.675459 0.963779
O O9 0.556817 0.762540 0.495565
O O10 0.620593 0.768066 0.712789
O O11 0.690041 0.853811 0.522537
O O12 0.592136 0.772816 0.957366
O O13 0.192393 0.840793 0.118996
#
# Coordination Sequence:
#
# PCOD9456105 Si02
#       7
#     4   8   8   8   8   8   8
#     4  12  20  32  56  90 120 156 190 240 314 362
#     4  11  21  36  54  90 121 149 197 246 310 359
#     4  11  23  37  61  87 118 156 202 252 295 358
#     4  11  21  40  60  86 122 161 200 249 302 361
#     4  11  22  36  59  85 123 159 193 248 304 364
#     4  10  21  39  58  87 116 159 198 246 304 357
#     4  10  23  37  60  87 119 160 203 247 301 358
#
# _framework density 18.960317
#
# number of rings (size 3 to 8) (size 9 to 14) (size 15 to 20)
#    0.000    1.231    3.077    4.154    2.154    0.000 
#    0.000    0.769    0.000    0.000    0.000    0.000 
#    0.000    0.000    0.000    0.000    0.000    0.000 
#
# Total GULP energy -290278.404409 kJ/mol
# GULP energy per Si atom -5582.277008 kJ/mol
# Density = 1.891716 g / cm^3
# Si number density = 18.960317 Si / 1000 Ang^3
#
#
#
# Elastic Constant Matrix: (Units=GPa)
#
#
# Indices 1 2 3 4 5 6 
#
# 1 96.6909 38.6976 6.6922 0.0000 0.0000 0.0000
# 2 38.6976 90.4432 17.5790 0.0000 0.0000 0.0000
# 3 6.6922 17.5790 54.5754 0.0000 0.0000 0.0000
# 4 0.0000 0.0000 0.0000 11.8510 0.0000 0.0000
# 5 0.0000 0.0000 0.0000 0.0000 31.2904 0.0000
# 6 0.0000 0.0000 0.0000 0.0000 0.0000 29.0539
#
#
#
# Elastic Compliance Matrix: (Units=1/GPa)
#
#
# Indices 1 2 3 4 5 6 
#
# 1 0.012481 -0.005380 0.000202 0.000000 0.000000 0.000000
# 2 -0.005380 0.014114 -0.003886 0.000000 0.000000 0.000000
# 3 0.000202 -0.003886 0.019550 0.000000 0.000000 0.000000
# 4 0.000000 0.000000 0.000000 0.084381 0.000000 0.000000
# 5 0.000000 0.000000 0.000000 0.000000 0.031959 0.000000
# 6 0.000000 0.000000 0.000000 0.000000 0.000000 0.034419
#
#
# Mechanical properties :
#
#
# Convention : Reuss Voigt Hill
#
# Bulk Modulus (GPa) = 35.69154 40.84967 38.27061
# Shear Modulus (GPa) = 22.28454 26.35510 24.31982
#
# Velocity S-wave (km/s) = 3.43202 3.73233 3.58532
# Velocity P-wave (km/s) = 5.87965 6.33761 6.11292
#
# Compressibility (1/GPa) = 0.02801784
#
# Stress axis : x y z
#
# Youngs Moduli (GPa) = 80.12001 70.85247 51.15007
#
# Poissons Ratio (x) = 0.38116 -0.01035
# Poissons Ratio (y) = 0.43102 0.19879
# Poissons Ratio (z) = -0.01621 0.27537
#
# Static dielectric constant tensor:
#      x y z
#    x 1.694800 0.000000 0.000000 
#    y 0.000000 1.639260 0.000000 
#    z 0.000000 0.000000 1.700130 
# 
# From -- ./inp_files/12501.got.cif
#   From: 2010.05.17/outbox.cif.g08.bks.cpg/sg60_7_cif.got.tgz:12501.got - 2010.06.03 14:59:27.
