data_PCOD9456644
_publ_section_title
;
Structure prediction by ZEFSAII (Michael W. Deem and Ramdas Pophale) SiO2 
 PCOD9456644
Probable space group: P B C N
;
_chemical_formula_sum "Si O2"
_cell_formula_units_Z 60
_cell_length_a 25.313421
_cell_length_b 5.239434
_cell_length_c 18.088501
_cell_angle_alpha 90.000000
_cell_angle_beta 90.000000
_cell_angle_gamma 90.000000
_cell_volume 2399.041686
_symmetry_space_group_name_H-M "P B C N"
_symmetry_group_IT_number 60
_symmetry_cell_setting 'orthorhombic'
loop_
_space_group_symop_operation_xyz
x,y,z
1/2-x,1/2-y,1/2+z
1/2+x,1/2-y,-z
-x,y,1/2-z
-x,-y,-z
1/2+x,1/2+y,1/2-z
1/2-x,1/2+y,z
x,-y,1/2+z
loop_
_atom_site_type_symbol
_atom_site_label
_atom_site_fract_x
_atom_site_fract_y
_atom_site_fract_z
Si Si1 0.658632 0.387814 0.955452
Si Si2 0.781333 0.993569 0.811647
Si Si3 0.576641 0.030396 0.868550
Si Si4 0.000000 0.599169 0.250000
Si Si5 0.362032 0.133865 0.764194
Si Si6 0.353415 0.147871 0.403768
Si Si7 0.074988 0.732908 0.985353
Si Si8 0.064769 0.014541 0.345246
O O1 0.702296 0.465775 0.897208
O O2 0.629367 0.626201 0.991816
O O3 0.610329 0.245544 0.911554
O O4 0.679650 0.217406 0.023623
O O5 0.735743 0.782169 0.796561
O O6 0.829791 0.870676 0.767813
O O7 0.526878 0.066081 0.815356
O O8 0.554973 0.852029 0.934541
O O9 0.620409 0.953096 0.805201
O O10 0.035717 0.804019 0.296489
O O11 0.416724 0.244346 0.797267
O O12 0.332783 0.011724 0.834556
O O13 0.378380 0.396927 0.367618
O O14 0.404813 0.008768 0.439050
O O15 0.042381 0.899344 0.925960
#
# Coordination Sequence:
#
# PCOD9456644 Si02
#       8
#     8   8   8   4   8   8   8   8
#     4   9  21  40  68  86 130 178 219 267 343 417
#     4  11  27  42  68 106 135 169 225 288 341 420
#     4  10  22  37  61  92 127 178 216 280 328 396
#     4  12  24  36  62  98 138 166 240 292 326 388
#     4  10  22  40  68  88 134 176 218 271 357 416
#     4   9  18  40  67  90 122 177 220 263 332 417
#     4   9  20  41  65  91 120 182 222 262 340 403
#     4  10  22  40  63  94 130 181 222 283 334 404
#
# _framework density 25.009988
#
# number of rings (size 3 to 8) (size 9 to 14) (size 15 to 20)
#    0.000    2.133    1.333    0.000   11.200    1.067 
#    0.000    7.333    0.000    0.000    0.000    0.000 
#    0.000    0.000    0.000    0.000    0.000    0.000 
#
# Total GULP energy -334364.017460 kJ/mol
# GULP energy per Si atom -5572.733624 kJ/mol
# Density = 2.495306 g / cm^3
# Si number density = 25.009988 Si / 1000 Ang^3
#
#
#
# Elastic Constant Matrix: (Units=GPa)
#
#
# Indices 1 2 3 4 5 6 
#
# 1 44.6630 -5.2981 30.2851 0.0000 0.0000 0.0000
# 2 -5.2981 45.0978 38.7397 0.0000 0.0000 0.0000
# 3 30.2851 38.7397 175.6611 0.0000 0.0000 0.0000
# 4 0.0000 0.0000 0.0000 32.2410 0.0000 0.0000
# 5 0.0000 0.0000 0.0000 0.0000 31.3083 0.0000
# 6 0.0000 0.0000 0.0000 0.0000 0.0000 24.8779
#
#
#
# Elastic Compliance Matrix: (Units=1/GPa)
#
#
# Indices 1 2 3 4 5 6 
#
# 1 0.028155 0.009225 -0.006889 0.000000 0.000000 0.000000
# 2 0.009225 0.030379 -0.008290 0.000000 0.000000 0.000000
# 3 -0.006889 -0.008290 0.008709 0.000000 0.000000 0.000000
# 4 0.000000 0.000000 0.000000 0.031016 0.000000 0.000000
# 5 0.000000 0.000000 0.000000 0.000000 0.031940 0.000000
# 6 0.000000 0.000000 0.000000 0.000000 0.000000 0.040196
#
#
# Mechanical properties :
#
#
# Convention : Reuss Voigt Hill
#
# Bulk Modulus (GPa) = 18.07154 43.65283 30.86218
# Shear Modulus (GPa) = 24.90675 31.13179 28.01927
#
# Velocity S-wave (km/s) = 3.15917 3.53196 3.35075
# Velocity P-wave (km/s) = 4.53305 5.84167 5.22846
#
# Compressibility (1/GPa) = 0.05533564
#
# Stress axis : x y z
#
# Youngs Moduli (GPa) = 35.51741 32.91732 114.82760
#
# Poissons Ratio (x) = -0.30366 0.79100
# Poissons Ratio (y) = -0.32765 0.95194
# Poissons Ratio (z) = 0.24467 0.27289
#
# Static dielectric constant tensor:
#      x y z
#    x 2.065030 0.000000 0.000000 
#    y 0.000000 2.043410 0.000000 
#    z 0.000000 0.000000 2.035320 
# 
# From -- ./inp_files/21277.got.cif
#   From: 2010.05.17/outbox.cif.g08.bks.cpg/sg60_11_cif.got.tgz:21277.got - 2010.06.03 14:59:27.
