data_PCOD9456811
_publ_section_title
;
Structure prediction by ZEFSAII (Michael W. Deem and Ramdas Pophale) SiO2 
 PCOD9456811
Probable space group: P B C N
;
_chemical_formula_sum "Si O2"
_cell_formula_units_Z 28
_cell_length_a 5.203344
_cell_length_b 20.773431
_cell_length_c 9.716647
_cell_angle_alpha 90.000000
_cell_angle_beta 90.000000
_cell_angle_gamma 90.000000
_cell_volume 1050.285079
_symmetry_space_group_name_H-M "P B C N"
_symmetry_group_IT_number 60
_symmetry_cell_setting 'orthorhombic'
loop_
_space_group_symop_operation_xyz
x,y,z
1/2-x,1/2-y,1/2+z
1/2+x,1/2-y,-z
-x,y,1/2-z
-x,-y,-z
1/2+x,1/2+y,1/2-z
1/2-x,1/2+y,z
x,-y,1/2+z
loop_
_atom_site_type_symbol
_atom_site_label
_atom_site_fract_x
_atom_site_fract_y
_atom_site_fract_z
Si Si1 0.500000 0.744486 0.250000
Si Si2 0.744287 0.142997 0.931304
Si Si3 0.249557 0.004384 0.595740
Si Si4 0.749388 0.134365 0.377606
O O1 0.348223 0.795412 0.153427
O O2 0.280351 0.688690 0.237114
O O3 0.752736 0.076293 0.843636
O O4 0.510384 0.136180 0.037136
O O5 0.017483 0.148313 0.011339
O O6 0.239198 0.938457 0.681039
O O7 0.500000 0.000000 0.500000
O O8 0.000000 0.000000 0.500000
#
# Coordination Sequence:
#
# PCOD9456811 Si02
#       4
#     4   8   8   8
#     4  12  24  38  64  96 128 164 204 266 336 384
#     4  10  22  40  61  88 123 162 207 257 311 378
#     4   8  16  36  60  80 112 156 198 246 298 356
#     4  10  22  40  61  88 123 162 207 257 311 378
#
# _framework density 26.659426
#
# number of rings (size 3 to 8) (size 9 to 14) (size 15 to 20)
#    0.000    2.286    0.000    1.714    0.000    4.571 
#    0.000   17.143    0.000    0.000    0.000    0.000 
#    0.000    0.000    0.000    0.000    0.000    0.000 
#
# Total GULP energy -155968.430765 kJ/mol
# GULP energy per Si atom -5570.301099 kJ/mol
# Density = 2.659875 g / cm^3
# Si number density = 26.659426 Si / 1000 Ang^3
#
#
#
# Elastic Constant Matrix: (Units=GPa)
#
#
# Indices 1 2 3 4 5 6 
#
# 1 230.5238 29.9517 52.9020 0.0000 0.0000 0.0000
# 2 29.9517 293.0028 68.0076 0.0000 0.0000 0.0000
# 3 52.9020 68.0076 49.5865 0.0000 0.0000 0.0000
# 4 0.0000 0.0000 0.0000 205.2541 0.0000 0.0000
# 5 0.0000 0.0000 0.0000 0.0000 60.5863 0.0000
# 6 0.0000 0.0000 0.0000 0.0000 0.0000 74.9384
#
#
#
# Elastic Compliance Matrix: (Units=1/GPa)
#
#
# Indices 1 2 3 4 5 6 
#
# 1 0.006061 0.001293 -0.008239 0.000000 0.000000 0.000000
# 2 0.001293 0.005282 -0.008624 0.000000 0.000000 0.000000
# 3 -0.008239 -0.008624 0.040784 0.000000 0.000000 0.000000
# 4 0.000000 0.000000 0.000000 0.004872 0.000000 0.000000
# 5 0.000000 0.000000 0.000000 0.000000 0.016505 0.000000
# 6 0.000000 0.000000 0.000000 0.000000 0.000000 0.013344
#
#
# Mechanical properties :
#
#
# Convention : Reuss Voigt Hill
#
# Bulk Modulus (GPa) = 47.64830 97.20399 72.42614
# Shear Modulus (GPa) = 40.00459 96.30587 68.15523
#
# Velocity S-wave (km/s) = 3.87793 6.01689 5.06168
# Velocity P-wave (km/s) = 6.16141 9.20930 7.83499
#
# Compressibility (1/GPa) = 0.02098711
#
# Stress axis : x y z
#
# Youngs Moduli (GPa) = 164.99738 189.30470 24.51913
#
# Poissons Ratio (x) = -0.24473 0.20201
# Poissons Ratio (y) = -0.21330 0.21146
# Poissons Ratio (z) = 1.35940 1.63258
#
# Static dielectric constant tensor:
#      x y z
#    x 2.064780 0.000000 0.000000 
#    y 0.000000 2.126250 0.000000 
#    z 0.000000 0.000000 2.097050 
# 
# From -- ./inp_files/8772.got.cif
#   From: 2010.05.17/outbox.cif.g08.bks.cpg/sg60_5_cif.got.tgz:8772.got - 2010.06.03 14:59:27.
