data_PCOD9456492
_publ_section_title
;
Structure prediction by ZEFSAII (Michael W. Deem and Ramdas Pophale) SiO2 
 PCOD9456492
Probable space group: P B C N
;
_chemical_formula_sum "Si O2"
_cell_formula_units_Z 60
_cell_length_a 7.955354
_cell_length_b 28.194518
_cell_length_c 12.559041
_cell_angle_alpha 90.000000
_cell_angle_beta 90.000000
_cell_angle_gamma 90.000000
_cell_volume 2816.959885
_symmetry_space_group_name_H-M "P B C N"
_symmetry_group_IT_number 60
_symmetry_cell_setting 'orthorhombic'
loop_
_space_group_symop_operation_xyz
x,y,z
1/2-x,1/2-y,1/2+z
1/2+x,1/2-y,-z
-x,y,1/2-z
-x,-y,-z
1/2+x,1/2+y,1/2-z
1/2-x,1/2+y,z
x,-y,1/2+z
loop_
_atom_site_type_symbol
_atom_site_label
_atom_site_fract_x
_atom_site_fract_y
_atom_site_fract_z
Si Si1 0.067653 0.892847 0.970753
Si Si2 0.076619 0.653211 0.457874
Si Si3 0.179421 0.969851 0.810126
Si Si4 0.273656 0.747255 0.954473
Si Si5 0.139626 0.664863 0.833639
Si Si6 0.500000 0.090216 0.250000
Si Si7 0.954875 0.200570 0.372184
Si Si8 0.152255 0.923724 0.331012
O O1 0.242324 0.866379 0.999365
O O2 0.134322 0.940032 0.914702
O O3 0.973386 0.855395 0.893464
O O4 0.935298 0.906301 0.060651
O O5 0.106439 0.708322 0.430338
O O6 0.018443 0.623131 0.355213
O O7 0.950069 0.651252 0.555773
O O8 0.331327 0.942335 0.750572
O O9 0.000000 0.970058 0.750000
O O10 0.229859 0.023807 0.836925
O O11 0.273437 0.705110 0.867408
O O12 0.094221 0.772060 0.941027
O O13 0.294268 0.723831 0.071469
O O14 0.223787 0.617149 0.791847
O O15 0.000000 0.682308 0.750000
O O16 0.000000 0.208713 0.250000
O O17 0.000000 0.927312 0.250000
#
# Coordination Sequence:
#
# PCOD9456492 Si02
#       8
#     8   8   8   8   8   4   8   8
#     4  10  21  43  65  98 134 177 240 292 349 429
#     4  10  24  44  67 101 139 181 238 296 361 431
#     4  10  23  42  72 100 141 186 238 299 371 432
#     4  11  23  42  63  97 132 179 230 282 352 425
#     4  12  25  43  67  99 144 188 232 292 360 438
#     4  10  24  48  70 110 142 180 246 314 358 438
#     4  11  23  43  67  95 136 179 228 287 348 424
#     4  11  24  43  67  99 137 187 234 294 361 433
#
# _framework density 21.299558000000001
#
# number of rings (size 3 to 8) (size 9 to 14) (size 15 to 20)
#    0.000    1.333    2.667    2.000    2.800    3.200 
#    1.200    2.000    0.000    0.000    0.000    0.000 
#    0.000    0.000    0.000    0.000    0.000    0.000 
#
# Total GULP energy -334853.168988 kJ/mol
# GULP energy per Si atom -5580.886150 kJ/mol
# Density = 2.125108 g / cm^3
# Si number density = 21.299558 Si / 1000 Ang^3
#
#
#
# Elastic Constant Matrix: (Units=GPa)
#
#
# Indices 1 2 3 4 5 6 
#
# 1 69.4385 27.5322 25.6779 0.0000 0.0000 0.0000
# 2 27.5322 162.8582 39.9329 0.0000 0.0000 0.0000
# 3 25.6779 39.9329 95.6986 0.0000 0.0000 0.0000
# 4 0.0000 0.0000 0.0000 57.6360 0.0000 0.0000
# 5 0.0000 0.0000 0.0000 0.0000 36.0120 0.0000
# 6 0.0000 0.0000 0.0000 0.0000 0.0000 19.8629
#
#
#
# Elastic Compliance Matrix: (Units=1/GPa)
#
#
# Indices 1 2 3 4 5 6 
#
# 1 0.016498 -0.001898 -0.003635 0.000000 0.000000 0.000000
# 2 -0.001898 0.007058 -0.002436 0.000000 0.000000 0.000000
# 3 -0.003635 -0.002436 0.012441 0.000000 0.000000 0.000000
# 4 0.000000 0.000000 0.000000 0.017350 0.000000 0.000000
# 5 0.000000 0.000000 0.000000 0.000000 0.027769 0.000000
# 6 0.000000 0.000000 0.000000 0.000000 0.000000 0.050345
#
#
# Mechanical properties :
#
#
# Convention : Reuss Voigt Hill
#
# Bulk Modulus (GPa) = 49.85005 57.14237 53.49621
# Shear Modulus (GPa) = 32.44949 38.35901 35.40425
#
# Velocity S-wave (km/s) = 3.90742 4.24834 4.08144
# Velocity P-wave (km/s) = 6.61908 7.13798 6.88342
#
# Compressibility (1/GPa) = 0.02006016
#
# Stress axis : x y z
#
# Youngs Moduli (GPa) = 60.61407 141.67338 80.37746
#
# Poissons Ratio (x) = 0.26887 0.29215
# Poissons Ratio (y) = 0.11503 0.19581
# Poissons Ratio (z) = 0.22032 0.34513
#
# Static dielectric constant tensor:
#      x y z
#    x 1.843580 0.000000 0.000000 
#    y 0.000000 1.795340 0.000000 
#    z 0.000000 0.000000 1.752230 
# 
# From -- ./inp_files/10301.got.cif
#   From: 2010.05.17/outbox.cif.g08.bks.cpg/sg60_6_cif.got.tgz:10301.got - 2010.06.03 14:59:27.
