data_PCOD9456198
_publ_section_title
;
Structure prediction by ZEFSAII (Michael W. Deem and Ramdas Pophale) SiO2 
 PCOD9456198
Probable space group: P B C N
;
_chemical_formula_sum "Si O2"
_cell_formula_units_Z 40
_cell_length_a 10.611820
_cell_length_b 15.985557
_cell_length_c 9.876929
_cell_angle_alpha 90.000000
_cell_angle_beta 90.000000
_cell_angle_gamma 90.000000
_cell_volume 1675.481281
_symmetry_space_group_name_H-M "P B C N"
_symmetry_group_IT_number 60
_symmetry_cell_setting 'orthorhombic'
loop_
_space_group_symop_operation_xyz
x,y,z
1/2-x,1/2-y,1/2+z
1/2+x,1/2-y,-z
-x,y,1/2-z
-x,-y,-z
1/2+x,1/2+y,1/2-z
1/2-x,1/2+y,z
x,-y,1/2+z
loop_
_atom_site_type_symbol
_atom_site_label
_atom_site_fract_x
_atom_site_fract_y
_atom_site_fract_z
Si Si1 0.636641 0.678997 0.219962
Si Si2 0.117338 0.939440 0.531736
Si Si3 0.743560 0.600504 0.960382
Si Si4 0.514216 0.917739 0.092223
Si Si5 0.271660 0.337266 0.324375
O O1 0.500000 0.718407 0.250000
O O2 0.635129 0.598988 0.319319
O O3 0.747737 0.745931 0.237878
O O4 0.658985 0.649706 0.066751
O O5 0.123295 0.859533 0.433390
O O6 0.231448 0.003235 0.500300
O O7 0.000000 0.000000 0.500000
O O8 0.700469 0.605806 0.805471
O O9 0.887832 0.631552 0.954325
O O10 0.500000 0.944097 0.250000
O O11 0.640158 0.861684 0.099171
O O12 0.500000 0.000000 0.000000
#
# Coordination Sequence:
#
# PCOD9456198 Si02
#       5
#     8   8   8   8   8
#     4  12  25  45  69 103 147 194 244 317 387 453
#     4  12  25  45  73 104 144 195 252 305 381 470
#     4  11  23  42  70 100 137 187 252 305 377 461
#     4  10  21  39  66  96 130 175 240 298 363 444
#     4  11  25  44  70 102 147 191 241 314 383 454
#
# _framework density 23.873737999999999
#
# number of rings (size 3 to 8) (size 9 to 14) (size 15 to 20)
#    0.000    0.800    4.000    4.200    2.800    0.000 
#    0.000    0.000    4.400    0.000    0.000    0.000 
#    0.000    0.000    0.000    0.000    0.000    0.000 
#
# Total GULP energy -223127.976207 kJ/mol
# GULP energy per Si atom -5578.199405 kJ/mol
# Density = 2.381940 g / cm^3
# Si number density = 23.873738 Si / 1000 Ang^3
#
#
#
# Elastic Constant Matrix: (Units=GPa)
#
#
# Indices 1 2 3 4 5 6 
#
# 1 103.9028 28.6863 53.3108 0.0000 0.0000 0.0000
# 2 28.6863 91.4641 24.8235 0.0000 0.0000 0.0000
# 3 53.3108 24.8235 108.5975 0.0000 0.0000 0.0000
# 4 0.0000 0.0000 0.0000 41.9901 0.0000 0.0000
# 5 0.0000 0.0000 0.0000 0.0000 34.9549 0.0000
# 6 0.0000 0.0000 0.0000 0.0000 0.0000 25.9767
#
#
#
# Elastic Compliance Matrix: (Units=1/GPa)
#
#
# Indices 1 2 3 4 5 6 
#
# 1 0.013412 -0.002580 -0.005994 0.000000 0.000000 0.000000
# 2 -0.002580 0.012153 -0.001512 0.000000 0.000000 0.000000
# 3 -0.005994 -0.001512 0.012497 0.000000 0.000000 0.000000
# 4 0.000000 0.000000 0.000000 0.023815 0.000000 0.000000
# 5 0.000000 0.000000 0.000000 0.000000 0.028608 0.000000
# 6 0.000000 0.000000 0.000000 0.000000 0.000000 0.038496
#
#
# Mechanical properties :
#
#
# Convention : Reuss Voigt Hill
#
# Bulk Modulus (GPa) = 55.89683 57.51175 56.70429
# Shear Modulus (GPa) = 32.23408 33.72725 32.98066
#
# Velocity S-wave (km/s) = 3.67848 3.76271 3.72083
# Velocity P-wave (km/s) = 6.44251 6.55893 6.50098
#
# Compressibility (1/GPa) = 0.01789010
#
# Stress axis : x y z
#
# Youngs Moduli (GPa) = 74.55878 82.28730 80.02234
#
# Poissons Ratio (x) = 0.21227 0.47969
# Poissons Ratio (y) = 0.19233 0.12095
# Poissons Ratio (z) = 0.44694 0.12438
#
# Static dielectric constant tensor:
#      x y z
#    x 2.086760 0.000000 0.000000 
#    y 0.000000 1.953160 0.000000 
#    z 0.000000 0.000000 1.918580 
# 
# From -- ./inp_files/4758.got.cif
#   From: 2010.05.17/outbox.cif.g08.bks.cpg/sg60_3_cif.got.tgz:4758.got - 2010.06.03 14:59:27.
