data_PCOD9456305
_publ_section_title
;
Structure prediction by ZEFSAII (Michael W. Deem and Ramdas Pophale) SiO2 
 PCOD9456305
Probable space group: P B C N
;
_chemical_formula_sum "Si O2"
_cell_formula_units_Z 40
_cell_length_a 10.395777
_cell_length_b 7.473782
_cell_length_c 19.502526
_cell_angle_alpha 90.000000
_cell_angle_beta 90.000000
_cell_angle_gamma 90.000000
_cell_volume 1515.263794
_symmetry_space_group_name_H-M "P B C N"
_symmetry_group_IT_number 60
_symmetry_cell_setting 'orthorhombic'
loop_
_space_group_symop_operation_xyz
x,y,z
1/2-x,1/2-y,1/2+z
1/2+x,1/2-y,-z
-x,y,1/2-z
-x,-y,-z
1/2+x,1/2+y,1/2-z
1/2-x,1/2+y,z
x,-y,1/2+z
loop_
_atom_site_type_symbol
_atom_site_label
_atom_site_fract_x
_atom_site_fract_y
_atom_site_fract_z
Si Si1 0.610552 0.679788 0.917253
Si Si2 0.099232 0.904843 0.932332
Si Si3 0.532648 0.949814 0.421619
Si Si4 0.673385 0.874417 0.675814
Si Si5 0.370182 0.543049 0.733748
O O1 0.462505 0.602697 0.927155
O O2 0.645857 0.598826 0.844334
O O3 0.635200 0.892154 0.909337
O O4 0.661823 0.624624 0.992436
O O5 0.979597 0.765020 0.921669
O O6 0.207287 0.857846 0.876903
O O7 0.500000 0.000000 0.500000
O O8 0.428259 0.008997 0.365078
O O9 0.612244 0.699540 0.709334
O O10 0.737038 0.961444 0.742209
O O11 0.500000 0.428819 0.750000
#
# Coordination Sequence:
#
# PCOD9456305 Si02
#       5
#     8   8   8   8   8
#     4  10  22  45  65  96 138 172 222 298 336 397
#     4  10  21  41  71  96 125 182 231 273 348 413
#     4  10  21  40  67  96 126 173 231 282 341 410
#     4  12  22  42  69  96 136 185 229 281 357 420
#     4  12  24  44  66  98 144 180 229 295 348 415
#
# _framework density 26.398045
#
# number of rings (size 3 to 8) (size 9 to 14) (size 15 to 20)
#    0.000    1.200    6.000    0.000    0.000    0.000 
#   10.800    3.000    0.000    0.000    0.000    0.000 
#    0.000    0.000    0.000    0.000    0.000    0.000 
#
# Total GULP energy -223099.843117 kJ/mol
# GULP energy per Si atom -5577.496078 kJ/mol
# Density = 2.633796 g / cm^3
# Si number density = 26.398045 Si / 1000 Ang^3
#
#
#
# Elastic Constant Matrix: (Units=GPa)
#
#
# Indices 1 2 3 4 5 6 
#
# 1 45.6912 17.5285 34.9840 0.0000 0.0000 0.0000
# 2 17.5285 76.9492 22.6559 0.0000 0.0000 0.0000
# 3 34.9840 22.6559 217.2661 0.0000 0.0000 0.0000
# 4 0.0000 0.0000 0.0000 36.7884 0.0000 0.0000
# 5 0.0000 0.0000 0.0000 0.0000 47.0846 0.0000
# 6 0.0000 0.0000 0.0000 0.0000 0.0000 10.5576
#
#
#
# Elastic Compliance Matrix: (Units=1/GPa)
#
#
# Indices 1 2 3 4 5 6 
#
# 1 0.026684 -0.004966 -0.003779 0.000000 0.000000 0.000000
# 2 -0.004966 0.014331 -0.000695 0.000000 0.000000 0.000000
# 3 -0.003779 -0.000695 0.005284 0.000000 0.000000 0.000000
# 4 0.000000 0.000000 0.000000 0.027182 0.000000 0.000000
# 5 0.000000 0.000000 0.000000 0.000000 0.021238 0.000000
# 6 0.000000 0.000000 0.000000 0.000000 0.000000 0.094719
#
#
# Mechanical properties :
#
#
# Convention : Reuss Voigt Hill
#
# Bulk Modulus (GPa) = 36.46950 54.47145 45.47047
# Shear Modulus (GPa) = 22.99293 36.53532 29.76412
#
# Velocity S-wave (km/s) = 2.95449 3.72427 3.36149
# Velocity P-wave (km/s) = 5.04816 6.25884 5.68581
#
# Compressibility (1/GPa) = 0.02742017
#
# Stress axis : x y z
#
# Youngs Moduli (GPa) = 37.47495 69.77701 189.26569
#
# Poissons Ratio (x) = 0.34651 0.71521
# Poissons Ratio (y) = 0.18610 0.13151
# Poissons Ratio (z) = 0.14161 0.04848
#
# Static dielectric constant tensor:
#      x y z
#    x 1.000150 0.000000 0.000000 
#    y 0.000000 2.257110 0.000000 
#    z 0.000000 0.000000 1.986780 
# 
# From -- ./inp_files/19870.got.cif
#   From: 2010.05.17/outbox.cif.g08.bks.cpg/sg60_10_cif.got.tgz:19870.got - 2010.06.03 14:59:27.
