data_PCOD9456123
_publ_section_title
;
Structure prediction by ZEFSAII (Michael W. Deem and Ramdas Pophale) SiO2 
 PCOD9456123
Probable space group: P B C N
;
_chemical_formula_sum "Si O2"
_cell_formula_units_Z 48
_cell_length_a 10.956371
_cell_length_b 25.985797
_cell_length_c 8.070394
_cell_angle_alpha 90.000000
_cell_angle_beta 90.000000
_cell_angle_gamma 90.000000
_cell_volume 2297.722139
_symmetry_space_group_name_H-M "P B C N"
_symmetry_group_IT_number 60
_symmetry_cell_setting 'orthorhombic'
loop_
_space_group_symop_operation_xyz
x,y,z
1/2-x,1/2-y,1/2+z
1/2+x,1/2-y,-z
-x,y,1/2-z
-x,-y,-z
1/2+x,1/2+y,1/2-z
1/2-x,1/2+y,z
x,-y,1/2+z
loop_
_atom_site_type_symbol
_atom_site_label
_atom_site_fract_x
_atom_site_fract_y
_atom_site_fract_z
Si Si1 0.001608 0.153971 0.052545
Si Si2 0.929955 0.953070 0.921717
Si Si3 0.649583 0.963339 0.848611
Si Si4 0.767876 0.326438 0.427350
Si Si5 0.419425 0.072234 0.518699
Si Si6 0.371599 0.261012 0.342895
O O1 0.057559 0.100818 0.986448
O O2 0.000000 0.158756 0.250000
O O3 0.083639 0.199238 0.981577
O O4 0.863647 0.154131 0.988329
O O5 0.788998 0.963690 0.899145
O O6 0.000000 0.944710 0.750000
O O7 0.000000 0.000000 0.000000
O O8 0.638791 0.941752 0.661992
O O9 0.562956 0.929175 0.968990
O O10 0.605668 0.022458 0.867221
O O11 0.859709 0.375354 0.411126
O O12 0.820407 0.289546 0.570345
O O13 0.729470 0.290012 0.271333
O O14 0.500000 0.249195 0.250000
#
# Coordination Sequence:
#
# PCOD9456123 Si02
#       6
#     8   8   8   8   8   8
#     4  10  21  40  63  89 124 163 212 274 331 398
#     4  11  22  36  60  93 124 168 216 267 334 394
#     4  10  21  39  60  94 129 171 221 276 331 429
#     4  11  22  42  64  92 126 176 221 281 347 403
#     4  10  22  39  65  89 132 177 216 276 348 406
#     4  10  24  41  65  94 130 169 229 285 339 407
#
# _framework density 20.890255
#
# number of rings (size 3 to 8) (size 9 to 14) (size 15 to 20)
#    0.000    1.667    0.000    5.000    2.333    4.667 
#    3.000    0.000    7.333    0.000    0.000    0.000 
#    0.000    0.000    0.000    0.000    0.000    0.000 
#
# Total GULP energy -267993.465762 kJ/mol
# GULP energy per Si atom -5583.197203 kJ/mol
# Density = 2.084271 g / cm^3
# Si number density = 20.890255 Si / 1000 Ang^3
#
#
#
# Elastic Constant Matrix: (Units=GPa)
#
#
# Indices 1 2 3 4 5 6 
#
# 1 146.3856 51.7318 26.2671 0.0000 0.0000 0.0000
# 2 51.7318 82.3145 29.7531 0.0000 0.0000 0.0000
# 3 26.2671 29.7531 56.3584 0.0000 0.0000 0.0000
# 4 0.0000 0.0000 0.0000 19.5670 0.0000 0.0000
# 5 0.0000 0.0000 0.0000 0.0000 18.7445 0.0000
# 6 0.0000 0.0000 0.0000 0.0000 0.0000 -4.1438
#
#
#
# Elastic Compliance Matrix: (Units=1/GPa)
#
#
# Indices 1 2 3 4 5 6 
#
# 1 0.008880 -0.005048 -0.001474 0.000000 0.000000 0.000000
# 2 -0.005048 0.017883 -0.007088 0.000000 0.000000 0.000000
# 3 -0.001474 -0.007088 0.022172 0.000000 0.000000 0.000000
# 4 0.000000 0.000000 0.000000 0.051106 0.000000 0.000000
# 5 0.000000 0.000000 0.000000 0.000000 0.053349 0.000000
# 6 0.000000 0.000000 0.000000 0.000000 0.000000 -0.241324
#
#
# Mechanical properties :
#
#
# Convention : Reuss Voigt Hill
#
# Bulk Modulus (GPa) = 46.04983 55.61803 50.83393
# Shear Modulus (GPa) = -93.50058 18.65399 -37.42330
#
# Velocity S-wave (km/s) = -6.69740 2.99147 -4.23711
# Velocity P-wave (km/s) = 6.14128 6.21398 0.67017
#
# Compressibility (1/GPa) = 0.02171561
#
# Stress axis : x y z
#
# Youngs Moduli (GPa) = 112.61795 55.91900 45.10096
#
# Poissons Ratio (x) = 0.28227 0.06646
# Poissons Ratio (y) = 0.56848 0.31969
# Poissons Ratio (z) = 0.16596 0.39637
#
# Static dielectric constant tensor:
#      x y z
#    x 1.730630 0.000000 0.000000 
#    y 0.000000 1.816470 0.000000 
#    z 0.000000 0.000000 1.786780 
# 
# From -- ./inp_files/5057.got.cif
#   From: 2010.05.17/outbox.cif.g08.bks.cpg/sg60_3_cif.got.tgz:5057.got - 2010.06.03 14:59:27.
