data_PCOD9456664
_publ_section_title
;
Structure prediction by ZEFSAII (Michael W. Deem and Ramdas Pophale) SiO2 
 PCOD9456664
Probable space group: P B C N
;
_chemical_formula_sum "Si O2"
_cell_formula_units_Z 36
_cell_length_a 12.207362
_cell_length_b 18.779762
_cell_length_c 5.771796
_cell_angle_alpha 90.000000
_cell_angle_beta 90.000000
_cell_angle_gamma 90.000000
_cell_volume 1323.192042
_symmetry_space_group_name_H-M "P B C N"
_symmetry_group_IT_number 60
_symmetry_cell_setting 'orthorhombic'
loop_
_space_group_symop_operation_xyz
x,y,z
1/2-x,1/2-y,1/2+z
1/2+x,1/2-y,-z
-x,y,1/2-z
-x,-y,-z
1/2+x,1/2+y,1/2-z
1/2-x,1/2+y,z
x,-y,1/2+z
loop_
_atom_site_type_symbol
_atom_site_label
_atom_site_fract_x
_atom_site_fract_y
_atom_site_fract_z
Si Si1 0.000000 0.239759 0.750000
Si Si2 0.878385 0.794245 0.853986
Si Si3 0.870674 0.962853 0.259938
Si Si4 0.855761 0.633338 0.357672
Si Si5 0.835013 0.623866 0.855098
O O1 0.073809 0.294630 0.606852
O O2 0.912735 0.194873 0.617197
O O3 0.769461 0.839286 0.813246
O O4 0.848517 0.709888 0.845265
O O5 0.000000 0.810277 0.750000
O O6 0.788981 0.901901 0.343330
O O7 0.000000 0.950785 0.250000
O O8 0.849166 0.015329 0.487319
O O9 0.874730 0.595176 0.603202
O O10 0.884194 0.601146 0.105092
#
# Coordination Sequence:
#
# PCOD9456664 Si02
#       5
#     4   8   8   8   8
#     4  10  22  38  58  82 128 178 212 258 294 360
#     4  11  23  38  58  88 129 175 206 252 299 366
#     4  10  22  42  68  91 120 155 201 265 330 374
#     4  11  24  38  61  91 129 171 210 248 307 357
#     4  11  22  40  60  93 119 163 205 252 310 378
#
# _framework density 27.206932999999999
#
# number of rings (size 3 to 8) (size 9 to 14) (size 15 to 20)
#    0.000    1.333    2.222    4.000    3.111    1.778 
#    2.000    0.000    0.000    1.333    0.000    0.000 
#    0.000    0.000    0.000    0.000    0.000    0.000 
#
# Total GULP energy -200508.083091 kJ/mol
# GULP energy per Si atom -5569.668975 kJ/mol
# Density = 2.714501 g / cm^3
# Si number density = 27.206933 Si / 1000 Ang^3
#
#
#
# Elastic Constant Matrix: (Units=GPa)
#
#
# Indices 1 2 3 4 5 6 
#
# 1 124.0586 33.7545 31.1934 0.0000 0.0000 0.0000
# 2 33.7545 43.2901 33.9164 0.0000 0.0000 0.0000
# 3 31.1934 33.9164 240.7797 0.0000 0.0000 0.0000
# 4 0.0000 0.0000 0.0000 16.9465 0.0000 0.0000
# 5 0.0000 0.0000 0.0000 0.0000 40.6852 0.0000
# 6 0.0000 0.0000 0.0000 0.0000 0.0000 28.4890
#
#
#
# Elastic Compliance Matrix: (Units=1/GPa)
#
#
# Indices 1 2 3 4 5 6 
#
# 1 0.010242 -0.007808 -0.000227 0.000000 0.000000 0.000000
# 2 -0.007808 0.031918 -0.003484 0.000000 0.000000 0.000000
# 3 -0.000227 -0.003484 0.004673 0.000000 0.000000 0.000000
# 4 0.000000 0.000000 0.000000 0.059009 0.000000 0.000000
# 5 0.000000 0.000000 0.000000 0.000000 0.024579 0.000000
# 6 0.000000 0.000000 0.000000 0.000000 0.000000 0.035101
#
#
# Mechanical properties :
#
#
# Convention : Reuss Voigt Hill
#
# Bulk Modulus (GPa) = 42.02669 67.31744 54.67206
# Shear Modulus (GPa) = 25.44599 37.84175 31.64387
#
# Velocity S-wave (km/s) = 3.06155 3.73350 3.41410
# Velocity P-wave (km/s) = 5.28942 6.58649 5.97327
#
# Compressibility (1/GPa) = 0.02379440
#
# Stress axis : x y z
#
# Youngs Moduli (GPa) = 97.63406 31.32995 213.97661
#
# Poissons Ratio (x) = 0.24464 0.04858
# Poissons Ratio (y) = 0.76236 0.74559
# Poissons Ratio (z) = 0.02216 0.10917
#
# Static dielectric constant tensor:
#      x y z
#    x 2.142240 0.000000 0.000000 
#    y 0.000000 2.102590 0.000000 
#    z 0.000000 0.000000 2.455150 
# 
# From -- ./inp_files/750.got.cif
#   From: 2010.05.17/outbox.cif.g08.bks.cpg/sg60_1_cif.got.tgz:750.got - 2010.06.03 14:59:27.
