data_PCOD9456005
_publ_section_title
;
Structure prediction by ZEFSAII (Michael W. Deem and Ramdas Pophale) SiO2 
 PCOD9456005
Probable space group: P B C N
;
_chemical_formula_sum "Si O2"
_cell_formula_units_Z 40
_cell_length_a 9.871026
_cell_length_b 11.766392
_cell_length_c 14.707425
_cell_angle_alpha 90.000000
_cell_angle_beta 90.000000
_cell_angle_gamma 90.000000
_cell_volume 1708.213899
_symmetry_space_group_name_H-M "P B C N"
_symmetry_group_IT_number 60
_symmetry_cell_setting 'orthorhombic'
loop_
_space_group_symop_operation_xyz
x,y,z
1/2-x,1/2-y,1/2+z
1/2+x,1/2-y,-z
-x,y,1/2-z
-x,-y,-z
1/2+x,1/2+y,1/2-z
1/2-x,1/2+y,z
x,-y,1/2+z
loop_
_atom_site_type_symbol
_atom_site_label
_atom_site_fract_x
_atom_site_fract_y
_atom_site_fract_z
Si Si1 0.292723 0.488427 0.067433
Si Si2 0.643556 0.933411 0.248473
Si Si3 0.520237 0.310923 0.005332
Si Si4 0.152144 0.397620 0.901708
Si Si5 0.396262 0.722925 0.321528
O O1 0.223565 0.480991 0.166372
O O2 0.366999 0.604117 0.037239
O O3 0.403641 0.387766 0.052140
O O4 0.174590 0.464982 0.994849
O O5 0.500000 0.861398 0.250000
O O6 0.591464 0.024448 0.176016
O O7 0.714089 0.819917 0.209615
O O8 0.467104 0.242823 0.916864
O O9 0.578610 0.218367 0.073879
O O10 0.300646 0.378123 0.859087
O O11 0.500000 0.664380 0.250000
#
# Coordination Sequence:
#
# PCOD9456005 Si02
#       5
#     8   8   8   8   8
#     4  10  23  43  64  91 129 168 212 262 320 387
#     4  11  24  38  60  93 126 162 207 266 320 375
#     4  10  22  41  65  90 126 175 214 260 321 387
#     4  11  22  38  64  92 121 163 214 263 313 369
#     4  10  21  38  59  87 125 167 209 256 317 379
#
# _framework density 23.416271999999999
#
# number of rings (size 3 to 8) (size 9 to 14) (size 15 to 20)
#    0.000    1.600    0.000    4.800    0.000    8.000 
#    0.000    6.000    0.000    0.000    0.000    0.000 
#    0.000    0.000    0.000    0.000    0.000    0.000 
#
# Total GULP energy -222771.519467 kJ/mol
# GULP energy per Si atom -5569.287987 kJ/mol
# Density = 2.336298 g / cm^3
# Si number density = 23.416272 Si / 1000 Ang^3
#
#
#
# Elastic Constant Matrix: (Units=GPa)
#
#
# Indices 1 2 3 4 5 6 
#
# 1 37.2817 -3.3633 11.8111 0.0000 0.0000 0.0000
# 2 -3.3633 57.0186 39.0566 0.0000 0.0000 0.0000
# 3 11.8111 39.0566 96.5948 0.0000 0.0000 0.0000
# 4 0.0000 0.0000 0.0000 76.8892 0.0000 0.0000
# 5 0.0000 0.0000 0.0000 0.0000 -62.9654 0.0000
# 6 0.0000 0.0000 0.0000 0.0000 0.0000 28.1260
#
#
#
# Elastic Compliance Matrix: (Units=1/GPa)
#
#
# Indices 1 2 3 4 5 6 
#
# 1 0.029214 0.005767 -0.005904 0.000000 0.000000 0.000000
# 2 0.005767 0.025395 -0.010973 0.000000 0.000000 0.000000
# 3 -0.005904 -0.010973 0.015511 0.000000 0.000000 0.000000
# 4 0.000000 0.000000 0.000000 0.013006 0.000000 0.000000
# 5 0.000000 0.000000 0.000000 0.000000 -0.015882 0.000000
# 6 0.000000 0.000000 0.000000 0.000000 0.000000 0.035554
#
#
# Mechanical properties :
#
#
# Convention : Reuss Voigt Hill
#
# Bulk Modulus (GPa) = 20.87688 31.76709 26.32199
# Shear Modulus (GPa) = 35.46496 17.96934 26.71715
#
# Velocity S-wave (km/s) = 3.89594 2.77318 3.38148
# Velocity P-wave (km/s) = 5.40117 4.88362 5.14890
#
# Compressibility (1/GPa) = 0.04789987
#
# Stress axis : x y z
#
# Youngs Moduli (GPa) = 34.23068 39.37820 64.46924
#
# Poissons Ratio (x) = -0.22711 0.38063
# Poissons Ratio (y) = -0.19742 0.70743
# Poissons Ratio (z) = 0.20210 0.43210
#
# Static dielectric constant tensor:
#      x y z
#    x 2.014940 0.000000 0.000000 
#    y 0.000000 1.941820 0.000000 
#    z 0.000000 0.000000 1.593630 
# 
# From -- ./inp_files/15860.got.cif
#   From: 2010.05.17/outbox.cif.g08.bks.cpg/sg60_8_cif.got.tgz:15860.got - 2010.06.03 14:59:27.
