data_PCOD9456700
_publ_section_title
;
Structure prediction by ZEFSAII (Michael W. Deem and Ramdas Pophale) SiO2 
 PCOD9456700
Probable space group: P B C N
;
_chemical_formula_sum "Si O2"
_cell_formula_units_Z 40
_cell_length_a 10.198273
_cell_length_b 8.331953
_cell_length_c 18.337888
_cell_angle_alpha 90.000000
_cell_angle_beta 90.000000
_cell_angle_gamma 90.000000
_cell_volume 1558.198424
_symmetry_space_group_name_H-M "P B C N"
_symmetry_group_IT_number 60
_symmetry_cell_setting 'orthorhombic'
loop_
_space_group_symop_operation_xyz
x,y,z
1/2-x,1/2-y,1/2+z
1/2+x,1/2-y,-z
-x,y,1/2-z
-x,-y,-z
1/2+x,1/2+y,1/2-z
1/2-x,1/2+y,z
x,-y,1/2+z
loop_
_atom_site_type_symbol
_atom_site_label
_atom_site_fract_x
_atom_site_fract_y
_atom_site_fract_z
Si Si1 0.085699 0.680096 0.454431
Si Si2 0.860977 0.087185 0.781880
Si Si3 0.166160 0.023000 0.415027
Si Si4 0.875005 0.751592 0.719589
Si Si5 0.817458 0.788541 0.443325
O O1 0.174615 0.542221 0.416818
O O2 0.167041 0.725462 0.528764
O O3 0.929516 0.649756 0.453061
O O4 0.110435 0.845268 0.409576
O O5 0.750028 0.142326 0.726135
O O6 0.827008 0.149474 0.861741
O O7 0.000000 0.142607 0.750000
O O8 0.860427 0.895219 0.778806
O O9 0.115979 0.150698 0.355734
O O10 0.131108 0.088086 0.495365
O O11 0.000000 0.657649 0.750000
#
# Coordination Sequence:
#
# PCOD9456700 Si02
#       5
#     8   8   8   8   8
#     4  10  22  38  64  89 119 159 205 259 296 363
#     4  11  25  42  64  93 133 165 206 260 323 370
#     4  10  22  39  66  85 125 156 210 249 310 352
#     4  11  24  41  65  92 128 165 210 255 318 375
#     4  10  24  39  68  87 126 159 216 246 315 361
#
# _framework density 25.670670999999999
#
# number of rings (size 3 to 8) (size 9 to 14) (size 15 to 20)
#    1.200    0.400    0.000    5.400    5.600    1.600 
#    0.000    4.000    0.000    0.000    0.000    0.000 
#    0.000    0.000    0.000    0.000    0.000    0.000 
#
# Total GULP energy -223328.369021 kJ/mol
# GULP energy per Si atom -5583.209226 kJ/mol
# Density = 2.561224 g / cm^3
# Si number density = 25.670671 Si / 1000 Ang^3
#
#
#
# Elastic Constant Matrix: (Units=GPa)
#
#
# Indices 1 2 3 4 5 6 
#
# 1 73.0546 26.3739 13.0229 0.0000 0.0000 0.0000
# 2 26.3739 22.9583 -2.0750 0.0000 0.0000 0.0000
# 3 13.0229 -2.0750 124.0428 0.0000 0.0000 0.0000
# 4 0.0000 0.0000 0.0000 21.4598 0.0000 0.0000
# 5 0.0000 0.0000 0.0000 0.0000 35.9582 0.0000
# 6 0.0000 0.0000 0.0000 0.0000 0.0000 35.9085
#
#
#
# Elastic Compliance Matrix: (Units=1/GPa)
#
#
# Indices 1 2 3 4 5 6 
#
# 1 0.024485 -0.028404 -0.003046 0.000000 0.000000 0.000000
# 2 -0.028404 0.076572 0.004263 0.000000 0.000000 0.000000
# 3 -0.003046 0.004263 0.008453 0.000000 0.000000 0.000000
# 4 0.000000 0.000000 0.000000 0.046599 0.000000 0.000000
# 5 0.000000 0.000000 0.000000 0.000000 0.027810 0.000000
# 6 0.000000 0.000000 0.000000 0.000000 0.000000 0.027849
#
#
# Mechanical properties :
#
#
# Convention : Reuss Voigt Hill
#
# Bulk Modulus (GPa) = 18.13662 32.74438 25.44050
# Shear Modulus (GPa) = 17.57351 30.84757 24.21054
#
# Velocity S-wave (km/s) = 2.61928 3.47027 3.07436
# Velocity P-wave (km/s) = 4.02839 5.37031 4.74701
#
# Compressibility (1/GPa) = 0.05513708
#
# Stress axis : x y z
#
# Youngs Moduli (GPa) = 40.84054 13.05967 118.30384
#
# Poissons Ratio (x) = 0.37094 0.36033
# Poissons Ratio (y) = 1.16002 -0.50432
# Poissons Ratio (z) = 0.12439 -0.05567
#
# Static dielectric constant tensor:
#      x y z
#    x 2.187540 0.000000 0.000000 
#    y 0.000000 2.000840 0.000000 
#    z 0.000000 0.000000 2.018940 
# 
# From -- ./inp_files/22018.got.cif
#   From: 2010.05.17/outbox.cif.g08.bks.cpg/sg60_12_cif.got.tgz:22018.got - 2010.06.03 14:59:27.
