data_PCOD9456088
_publ_section_title
;
Structure prediction by ZEFSAII (Michael W. Deem and Ramdas Pophale) SiO2 
 PCOD9456088
Probable space group: P B C N
;
_chemical_formula_sum "Si O2"
_cell_formula_units_Z 64
_cell_length_a 32.306759
_cell_length_b 7.471021
_cell_length_c 10.358223
_cell_angle_alpha 90.000000
_cell_angle_beta 90.000000
_cell_angle_gamma 90.000000
_cell_volume 2500.107056
_symmetry_space_group_name_H-M "P B C N"
_symmetry_group_IT_number 60
_symmetry_cell_setting 'orthorhombic'
loop_
_space_group_symop_operation_xyz
x,y,z
1/2-x,1/2-y,1/2+z
1/2+x,1/2-y,-z
-x,y,1/2-z
-x,-y,-z
1/2+x,1/2+y,1/2-z
1/2-x,1/2+y,z
x,-y,1/2+z
loop_
_atom_site_type_symbol
_atom_site_label
_atom_site_fract_x
_atom_site_fract_y
_atom_site_fract_z
Si Si1 0.667957 0.626827 0.111829
Si Si2 0.732899 0.758493 0.908934
Si Si3 0.545714 0.229276 0.202336
Si Si4 0.904113 0.306256 0.450053
Si Si5 0.955371 0.706415 0.705295
Si Si6 0.910309 0.260361 0.956923
Si Si7 0.315201 0.742368 0.932404
Si Si8 0.205571 0.566088 0.748354
O O1 0.628537 0.666277 0.023234
O O2 0.672417 0.424574 0.159307
O O3 0.674103 0.774996 0.221798
O O4 0.706434 0.658292 0.015063
O O5 0.749850 0.659342 0.779296
O O6 0.705489 0.929857 0.871186
O O7 0.776433 0.802558 0.976522
O O8 0.500000 0.287034 0.250000
O O9 0.564365 0.266903 0.060837
O O10 0.577437 0.293325 0.312988
O O11 0.544417 0.011111 0.204744
O O12 0.920786 0.244263 0.311027
O O13 0.904780 0.523893 0.452976
O O14 0.857540 0.260831 0.487880
O O15 0.946469 0.769810 0.561186
O O16 0.000000 0.768509 0.750000
O O17 0.303050 0.925761 0.862017
#
# Coordination Sequence:
#
# PCOD9456088 Si02
#       8
#     8   8   8   8   8   8   8   8
#     4  12  28  49  70 107 145 190 249 303 366 441
#     4  12  28  48  72 100 144 188 242 306 364 430
#     4   9  18  35  64 101 139 186 238 292 359 436
#     4  10  21  38  66 100 143 184 238 300 359 431
#     4   9  18  35  64 101 139 186 238 292 359 436
#     4  10  21  38  66 100 143 184 238 300 359 431
#     4  12  28  49  70 107 145 190 249 303 366 441
#     4  12  28  48  76 100 143 193 237 311 362 441
#
# _framework density 25.598904000000001
#
# number of rings (size 3 to 8) (size 9 to 14) (size 15 to 20)
#    0.000    1.250    2.500    2.250    8.750    3.000 
#    0.000    0.000    0.000    4.500    0.000    0.000 
#    0.000    0.000    0.000    0.000    0.000    0.000 
#
# Total GULP energy -357961.318926 kJ/mol
# GULP energy per Si atom -5593.145608 kJ/mol
# Density = 2.554064 g / cm^3
# Si number density = 25.598904 Si / 1000 Ang^3
#
#
#
# Elastic Constant Matrix: (Units=GPa)
#
#
# Indices 1 2 3 4 5 6 
#
# 1 94.3185 2.2994 -1.2032 0.0000 0.0000 0.0000
# 2 2.2994 106.8948 26.6101 0.0000 0.0000 0.0000
# 3 -1.2032 26.6101 88.3857 0.0000 0.0000 0.0000
# 4 0.0000 0.0000 0.0000 -2.0018 0.0000 0.0000
# 5 0.0000 0.0000 0.0000 0.0000 40.8426 0.0000
# 6 0.0000 0.0000 0.0000 0.0000 0.0000 4.9792
#
#
#
# Elastic Compliance Matrix: (Units=1/GPa)
#
#
# Indices 1 2 3 4 5 6 
#
# 1 0.010612 -0.000286 0.000230 0.000000 0.000000 0.000000
# 2 -0.000286 0.010121 -0.003051 0.000000 0.000000 0.000000
# 3 0.000230 -0.003051 0.012236 0.000000 0.000000 0.000000
# 4 0.000000 0.000000 0.000000 -0.499550 0.000000 0.000000
# 5 0.000000 0.000000 0.000000 0.000000 0.024484 0.000000
# 6 0.000000 0.000000 0.000000 0.000000 0.000000 0.200837
#
#
# Mechanical properties :
#
#
# Convention : Reuss Voigt Hill
#
# Bulk Modulus (GPa) = 37.37414 38.33462 37.85438
# Shear Modulus (GPa) = -22.11123 26.22352 2.05614
#
# Velocity S-wave (km/s) = -2.94216 3.20410 0.89719
# Velocity P-wave (km/s) = 1.75779 5.35686 3.98659
#
# Compressibility (1/GPa) = 0.02675647
#
# Stress axis : x y z
#
# Youngs Moduli (GPa) = 94.23046 98.80828 81.72802
#
# Poissons Ratio (x) = 0.02822 -0.01884
# Poissons Ratio (y) = 0.02692 0.24934
# Poissons Ratio (z) = -0.02172 0.30145
#
# Static dielectric constant tensor:
#      x y z
#    x 1.963720 0.000000 0.000000 
#    y 0.000000 2.075050 0.000000 
#    z 0.000000 0.000000 2.044680 
# 
# From -- ./inp_files/13393.got.cif
#   From: 2010.05.17/outbox.cif.g08.bks.cpg/sg60_7_cif.got.tgz:13393.got - 2010.06.03 14:59:27.
