data_PCOD9456683
_publ_section_title
;
Structure prediction by ZEFSAII (Michael W. Deem and Ramdas Pophale) SiO2 
 PCOD9456683
Probable space group: P B C N
;
_chemical_formula_sum "Si O2"
_cell_formula_units_Z 36
_cell_length_a 7.204003
_cell_length_b 14.283419
_cell_length_c 16.298243
_cell_angle_alpha 90.000000
_cell_angle_beta 90.000000
_cell_angle_gamma 90.000000
_cell_volume 1677.053240
_symmetry_space_group_name_H-M "P B C N"
_symmetry_group_IT_number 60
_symmetry_cell_setting 'orthorhombic'
loop_
_space_group_symop_operation_xyz
x,y,z
1/2-x,1/2-y,1/2+z
1/2+x,1/2-y,-z
-x,y,1/2-z
-x,-y,-z
1/2+x,1/2+y,1/2-z
1/2-x,1/2+y,z
x,-y,1/2+z
loop_
_atom_site_type_symbol
_atom_site_label
_atom_site_fract_x
_atom_site_fract_y
_atom_site_fract_z
Si Si1 0.500000 0.761503 0.750000
Si Si2 0.634931 0.189515 0.827821
Si Si3 0.812806 0.843266 0.958265
Si Si4 0.690955 0.041897 0.965215
Si Si5 0.882086 0.305734 0.582699
O O1 0.344598 0.702868 0.703586
O O2 0.384645 0.816528 0.819678
O O3 0.500000 0.186353 0.750000
O O4 0.591169 0.277205 0.889205
O O5 0.638267 0.096589 0.882627
O O6 0.594586 0.825679 0.941583
O O7 0.829406 0.955038 0.953390
O O8 0.846467 0.798233 0.047747
O O9 0.744828 0.122316 0.031146
O O10 0.500000 0.000000 0.000000
#
# Coordination Sequence:
#
# PCOD9456683 Si02
#       5
#     4   8   8   8   8
#     4  10  22  38  60  94 126 160 208 260 308 372
#     4  10  22  41  65  89 127 166 202 262 317 364
#     4   9  19  38  61  90 117 161 214 243 315 385
#     4   9  19  39  64  91 119 164 214 246 308 388
#     4   9  19  36  61  85 124 160 201 259 309 364
#
# _framework density 21.466222999999999
#
# number of rings (size 3 to 8) (size 9 to 14) (size 15 to 20)
#    0.000    2.667    0.000    0.000    9.333    0.000 
#   20.000   10.000    0.000    0.000    0.000    0.000 
#    0.000    0.000    0.000    0.000    0.000    0.000 
#
# Total GULP energy -200747.152500 kJ/mol
# GULP energy per Si atom -5576.309792 kJ/mol
# Density = 2.141737 g / cm^3
# Si number density = 21.466223 Si / 1000 Ang^3
#
#
#
# Elastic Constant Matrix: (Units=GPa)
#
#
# Indices 1 2 3 4 5 6 
#
# 1 42.3681 23.1218 22.3061 0.0000 0.0000 0.0000
# 2 23.1218 155.3369 79.0119 0.0000 0.0000 0.0000
# 3 22.3061 79.0119 147.8228 0.0000 0.0000 0.0000
# 4 0.0000 0.0000 0.0000 20.5703 0.0000 0.0000
# 5 0.0000 0.0000 0.0000 0.0000 40.8923 0.0000
# 6 0.0000 0.0000 0.0000 0.0000 0.0000 25.5001
#
#
#
# Elastic Compliance Matrix: (Units=1/GPa)
#
#
# Indices 1 2 3 4 5 6 
#
# 1 0.026390 -0.002613 -0.002586 0.000000 0.000000 0.000000
# 2 -0.002613 0.009100 -0.004470 0.000000 0.000000 0.000000
# 3 -0.002586 -0.004470 0.009544 0.000000 0.000000 0.000000
# 4 0.000000 0.000000 0.000000 0.048614 0.000000 0.000000
# 5 0.000000 0.000000 0.000000 0.000000 0.024454 0.000000
# 6 0.000000 0.000000 0.000000 0.000000 0.000000 0.039215
#
#
# Mechanical properties :
#
#
# Convention : Reuss Voigt Hill
#
# Bulk Modulus (GPa) = 38.91416 66.04525 52.47970
# Shear Modulus (GPa) = 26.99491 32.13176 29.56333
#
# Velocity S-wave (km/s) = 3.55005 3.87311 3.71509
# Velocity P-wave (km/s) = 5.91365 7.12988 6.55005
#
# Compressibility (1/GPa) = 0.02569759
#
# Stress axis : x y z
#
# Youngs Moduli (GPa) = 37.89329 109.88905 104.77681
#
# Poissons Ratio (x) = 0.28714 0.27090
# Poissons Ratio (y) = 0.09902 0.46832
# Poissons Ratio (z) = 0.09797 0.49118
#
# Static dielectric constant tensor:
#      x y z
#    x 1.830770 0.000000 0.000000 
#    y 0.000000 1.852610 0.000000 
#    z 0.000000 0.000000 1.949630 
# 
# From -- ./inp_files/14567.got.cif
#   From: 2010.05.17/outbox.cif.g08.bks.cpg/sg60_8_cif.got.tgz:14567.got - 2010.06.03 14:59:27.
