data_PCOD9456161
_publ_section_title
;
Structure prediction by ZEFSAII (Michael W. Deem and Ramdas Pophale) SiO2 
 PCOD9456161
Probable space group: P B C N
;
_chemical_formula_sum "Si O2"
_cell_formula_units_Z 60
_cell_length_a 19.940342
_cell_length_b 9.170108
_cell_length_c 16.772493
_cell_angle_alpha 90.000000
_cell_angle_beta 90.000000
_cell_angle_gamma 90.000000
_cell_volume 3066.935712
_symmetry_space_group_name_H-M "P B C N"
_symmetry_group_IT_number 60
_symmetry_cell_setting 'orthorhombic'
loop_
_space_group_symop_operation_xyz
x,y,z
1/2-x,1/2-y,1/2+z
1/2+x,1/2-y,-z
-x,y,1/2-z
-x,-y,-z
1/2+x,1/2+y,1/2-z
1/2-x,1/2+y,z
x,-y,1/2+z
loop_
_atom_site_type_symbol
_atom_site_label
_atom_site_fract_x
_atom_site_fract_y
_atom_site_fract_z
Si Si1 0.585198 0.621001 0.521907
Si Si2 0.198414 0.376744 0.389985
Si Si3 0.303695 0.745991 0.627185
Si Si4 0.706021 0.826680 0.519542
Si Si5 0.260109 0.512989 0.237460
Si Si6 0.500000 0.489962 0.750000
Si Si7 0.442631 0.367119 0.097328
Si Si8 0.120318 0.880332 0.846864
O O1 0.634147 0.754464 0.506456
O O2 0.579995 0.517674 0.445050
O O3 0.511588 0.670830 0.551227
O O4 0.616054 0.512638 0.589630
O O5 0.200624 0.505889 0.454500
O O6 0.258958 0.265946 0.409811
O O7 0.209972 0.449782 0.304146
O O8 0.133589 0.273074 0.389737
O O9 0.254411 0.702020 0.555148
O O10 0.277921 0.889582 0.672149
O O11 0.296356 0.618326 0.692155
O O12 0.380363 0.743268 0.596953
O O13 0.317909 0.597396 0.286205
O O14 0.537903 0.592592 0.812749
O O15 0.552141 0.391963 0.701800
#
# Coordination Sequence:
#
# PCOD9456161 Si02
#       8
#     8   8   8   8   8   4   8   8
#     4  10  22  40  66  90 123 167 219 262 311 388
#     4  12  22  38  62  89 125 162 214 256 317 380
#     4  12  24  38  62  95 129 161 210 272 324 372
#     4  12  23  39  63  93 124 166 211 268 318 379
#     4  12  22  37  60  91 126 162 207 263 320 380
#     4  10  22  36  66  86 128 164 210 256 320 378
#     4  10  21  39  63  94 123 167 215 263 315 381
#     4  11  21  40  61  91 122 167 209 262 315 385
#
# _framework density 19.563502
#
# number of rings (size 3 to 8) (size 9 to 14) (size 15 to 20)
#    0.000    0.800    5.333    3.200    0.000    0.000 
#    0.000    1.333    0.000   12.000    0.000    0.000 
#    0.000    0.000    0.000    0.000    0.000    0.000 
#
# Total GULP energy -335295.146079 kJ/mol
# GULP energy per Si atom -5588.252435 kJ/mol
# Density = 1.951897 g / cm^3
# Si number density = 19.563502 Si / 1000 Ang^3
#
#
#
# Elastic Constant Matrix: (Units=GPa)
#
#
# Indices 1 2 3 4 5 6 
#
# 1 80.8364 17.2412 3.2843 0.0000 0.0000 0.0000
# 2 17.2412 48.6192 -2.8361 0.0000 0.0000 0.0000
# 3 3.2843 -2.8361 65.0366 0.0000 0.0000 0.0000
# 4 0.0000 0.0000 0.0000 24.5172 0.0000 0.0000
# 5 0.0000 0.0000 0.0000 0.0000 22.1871 0.0000
# 6 0.0000 0.0000 0.0000 0.0000 0.0000 34.0681
#
#
#
# Elastic Compliance Matrix: (Units=1/GPa)
#
#
# Indices 1 2 3 4 5 6 
#
# 1 0.013434 -0.004816 -0.000888 0.000000 0.000000 0.000000
# 2 -0.004816 0.022347 0.001218 0.000000 0.000000 0.000000
# 3 -0.000888 0.001218 0.015474 0.000000 0.000000 0.000000
# 4 0.000000 0.000000 0.000000 0.040788 0.000000 0.000000
# 5 0.000000 0.000000 0.000000 0.000000 0.045071 0.000000
# 6 0.000000 0.000000 0.000000 0.000000 0.000000 0.029353
#
#
# Mechanical properties :
#
#
# Convention : Reuss Voigt Hill
#
# Bulk Modulus (GPa) = 23.65088 25.54121 24.59605
# Shear Modulus (GPa) = 26.38060 27.94133 27.16097
#
# Velocity S-wave (km/s) = 3.67612 3.78330 3.73010
# Velocity P-wave (km/s) = 5.48945 5.67172 5.58133
#
# Compressibility (1/GPa) = 0.04228172
#
# Stress axis : x y z
#
# Youngs Moduli (GPa) = 74.43867 44.74924 64.62487
#
# Poissons Ratio (x) = 0.21550 0.05741
# Poissons Ratio (y) = 0.35847 -0.07869
# Poissons Ratio (z) = 0.06613 -0.05449
#
# Static dielectric constant tensor:
#      x y z
#    x 1.700730 0.000000 0.000000 
#    y 0.000000 1.676890 0.000000 
#    z 0.000000 0.000000 1.720650 
# 
# From -- ./inp_files/20891.got.cif
#   From: 2010.05.17/outbox.cif.g08.bks.cpg/sg60_11_cif.got.tgz:20891.got - 2010.06.03 14:59:27.
