data_PCOD9456080
_publ_section_title
;
Structure prediction by ZEFSAII (Michael W. Deem and Ramdas Pophale) SiO2 
 PCOD9456080
Probable space group: P B C N
;
_chemical_formula_sum "Si O2"
_cell_formula_units_Z 44
_cell_length_a 7.255256
_cell_length_b 22.162212
_cell_length_c 13.627699
_cell_angle_alpha 90.000000
_cell_angle_beta 90.000000
_cell_angle_gamma 90.000000
_cell_volume 2191.232086
_symmetry_space_group_name_H-M "P B C N"
_symmetry_group_IT_number 60
_symmetry_cell_setting 'orthorhombic'
loop_
_space_group_symop_operation_xyz
x,y,z
1/2-x,1/2-y,1/2+z
1/2+x,1/2-y,-z
-x,y,1/2-z
-x,-y,-z
1/2+x,1/2+y,1/2-z
1/2-x,1/2+y,z
x,-y,1/2+z
loop_
_atom_site_type_symbol
_atom_site_label
_atom_site_fract_x
_atom_site_fract_y
_atom_site_fract_z
Si Si1 0.113248 0.853505 0.846260
Si Si2 0.000000 0.658919 0.750000
Si Si3 0.537517 0.073741 0.572054
Si Si4 0.334191 0.247554 0.606302
Si Si5 0.192192 0.031677 0.480335
Si Si6 0.524194 0.174903 0.079484
O O1 0.327100 0.834574 0.834657
O O2 0.000000 0.871960 0.750000
O O3 0.996836 0.797140 0.887236
O O4 0.137202 0.909242 0.919469
O O5 0.076081 0.617274 0.836970
O O6 0.853803 0.703017 0.801483
O O7 0.323325 0.052411 0.570761
O O8 0.551063 0.112982 0.471023
O O9 0.672939 0.016792 0.572114
O O10 0.365293 0.207801 0.509192
O O11 0.144826 0.283001 0.605300
O O12 0.000000 0.000000 0.500000
#
# Coordination Sequence:
#
# PCOD9456080 Si02
#       6
#     8   4   8   8   8   8
#     4  11  23  39  58  95 128 158 213 264 308 373
#     4  10  22  40  62  94 136 152 210 278 304 368
#     4   9  21  41  61  92 122 162 210 261 314 367
#     4  11  20  39  62  90 126 167 208 252 317 383
#     4  10  21  41  66  86 119 169 213 248 316 389
#     4  10  21  38  65  86 124 173 201 251 319 382
#
# _framework density 20.080027999999999
#
# number of rings (size 3 to 8) (size 9 to 14) (size 15 to 20)
#    0.000    1.818    2.727    1.091    0.000    2.182 
#    0.000    1.818    0.000    0.000    0.000    0.000 
#    0.000    0.000    0.000    0.000    0.000    0.000 
#
# Total GULP energy -245475.623210 kJ/mol
# GULP energy per Si atom -5578.991437 kJ/mol
# Density = 2.003432 g / cm^3
# Si number density = 20.080028 Si / 1000 Ang^3
#
#
#
# Elastic Constant Matrix: (Units=GPa)
#
#
# Indices 1 2 3 4 5 6 
#
# 1 98.8509 42.0448 29.3014 0.0000 0.0000 0.0000
# 2 42.0448 118.0290 26.6686 0.0000 0.0000 0.0000
# 3 29.3014 26.6686 60.2787 0.0000 0.0000 0.0000
# 4 0.0000 0.0000 0.0000 31.5726 0.0000 0.0000
# 5 0.0000 0.0000 0.0000 0.0000 20.0686 0.0000
# 6 0.0000 0.0000 0.0000 0.0000 0.0000 14.3976
#
#
#
# Elastic Compliance Matrix: (Units=1/GPa)
#
#
# Indices 1 2 3 4 5 6 
#
# 1 0.013047 -0.003572 -0.004762 0.000000 0.000000 0.000000
# 2 -0.003572 0.010391 -0.002861 0.000000 0.000000 0.000000
# 3 -0.004762 -0.002861 0.020170 0.000000 0.000000 0.000000
# 4 0.000000 0.000000 0.000000 0.031673 0.000000 0.000000
# 5 0.000000 0.000000 0.000000 0.000000 0.049829 0.000000
# 6 0.000000 0.000000 0.000000 0.000000 0.000000 0.069456
#
#
# Mechanical properties :
#
#
# Convention : Reuss Voigt Hill
#
# Bulk Modulus (GPa) = 47.12768 52.57647 49.85208
# Shear Modulus (GPa) = 22.31857 25.15071 23.73464
#
# Velocity S-wave (km/s) = 3.33751 3.54294 3.44176
# Velocity P-wave (km/s) = 6.19458 6.55567 6.37768
#
# Compressibility (1/GPa) = 0.02121895
#
# Stress axis : x y z
#
# Youngs Moduli (GPa) = 76.64636 96.23450 49.57815
#
# Poissons Ratio (x) = 0.34372 0.23609
# Poissons Ratio (y) = 0.27376 0.14185
# Poissons Ratio (z) = 0.36498 0.27534
#
# Static dielectric constant tensor:
#      x y z
#    x 1.678280 0.000000 0.000000 
#    y 0.000000 1.735740 0.000000 
#    z 0.000000 0.000000 1.743400 
# 
# From -- ./inp_files/13871.got.cif
#   From: 2010.05.17/outbox.cif.g08.bks.cpg/sg60_7_cif.got.tgz:13871.got - 2010.06.03 14:59:27.
