data_PCOD9456326
_publ_section_title
;
Structure prediction by ZEFSAII (Michael W. Deem and Ramdas Pophale) SiO2 
 PCOD9456326
Probable space group: P B C N
;
_chemical_formula_sum "Si O2"
_cell_formula_units_Z 36
_cell_length_a 8.789030
_cell_length_b 23.123109
_cell_length_c 9.401276
_cell_angle_alpha 90.000000
_cell_angle_beta 90.000000
_cell_angle_gamma 90.000000
_cell_volume 1910.618489
_symmetry_space_group_name_H-M "P B C N"
_symmetry_group_IT_number 60
_symmetry_cell_setting 'orthorhombic'
loop_
_space_group_symop_operation_xyz
x,y,z
1/2-x,1/2-y,1/2+z
1/2+x,1/2-y,-z
-x,y,1/2-z
-x,-y,-z
1/2+x,1/2+y,1/2-z
1/2-x,1/2+y,z
x,-y,1/2+z
loop_
_atom_site_type_symbol
_atom_site_label
_atom_site_fract_x
_atom_site_fract_y
_atom_site_fract_z
Si Si1 0.332668 0.027758 0.795607
Si Si2 0.358515 0.534260 0.067368
Si Si3 0.500000 0.251674 0.750000
Si Si4 0.741091 0.342963 0.268835
Si Si5 0.483069 0.342253 0.496790
O O1 0.500000 0.006821 0.750000
O O2 0.319073 0.094980 0.752728
O O3 0.201438 0.992121 0.713667
O O4 0.284650 0.026651 0.960198
O O5 0.500000 0.500000 0.000000
O O6 0.416353 0.600203 0.071447
O O7 0.641941 0.209322 0.775098
O O8 0.507516 0.292541 0.611910
O O9 0.639132 0.350441 0.409739
O O10 0.635937 0.330521 0.131067
#
# Coordination Sequence:
#
# PCOD9456326 Si02
#       5
#     8   8   4   8   8
#     4  11  22  39  61  90 124 162 200 252 310 357
#     4  11  22  38  64  89 122 157 204 250 299 370
#     4  12  22  38  64  86 122 152 206 254 294 354
#     4  10  21  41  60  85 121 163 198 243 306 363
#     4  10  23  38  61  91 116 159 204 244 301 360
#
# _framework density 18.842068000000001
#
# number of rings (size 3 to 8) (size 9 to 14) (size 15 to 20)
#    0.000    1.333    3.333    2.667    3.111    0.000 
#    0.000    0.000    4.889    0.000    0.000    0.000 
#    0.000    0.000    0.000    0.000    0.000    0.000 
#
# Total GULP energy -200955.050404 kJ/mol
# GULP energy per Si atom -5582.084733 kJ/mol
# Density = 1.879918 g / cm^3
# Si number density = 18.842068 Si / 1000 Ang^3
#
#
#
# Elastic Constant Matrix: (Units=GPa)
#
#
# Indices 1 2 3 4 5 6 
#
# 1 76.4628 7.4135 8.8128 0.0000 0.0000 0.0000
# 2 7.4135 70.0541 31.0630 0.0000 0.0000 0.0000
# 3 8.8128 31.0630 77.2085 0.0000 0.0000 0.0000
# 4 0.0000 0.0000 0.0000 28.3208 0.0000 0.0000
# 5 0.0000 0.0000 0.0000 0.0000 18.1710 0.0000
# 6 0.0000 0.0000 0.0000 0.0000 0.0000 30.3910
#
#
#
# Elastic Compliance Matrix: (Units=1/GPa)
#
#
# Indices 1 2 3 4 5 6 
#
# 1 0.013298 -0.000894 -0.001158 0.000000 0.000000 0.000000
# 2 -0.000894 0.017434 -0.006912 0.000000 0.000000 0.000000
# 3 -0.001158 -0.006912 0.015865 0.000000 0.000000 0.000000
# 4 0.000000 0.000000 0.000000 0.035310 0.000000 0.000000
# 5 0.000000 0.000000 0.000000 0.000000 0.055033 0.000000
# 6 0.000000 0.000000 0.000000 0.000000 0.000000 0.032905
#
#
# Mechanical properties :
#
#
# Convention : Reuss Voigt Hill
#
# Bulk Modulus (GPa) = 34.88063 35.36712 35.12387
# Shear Modulus (GPa) = 25.33828 27.13895 26.23861
#
# Velocity S-wave (km/s) = 3.67109 3.79930 3.73574
# Velocity P-wave (km/s) = 6.04330 6.16906 6.10650
#
# Compressibility (1/GPa) = 0.02866921
#
# Stress axis : x y z
#
# Youngs Moduli (GPa) = 75.19697 57.35834 63.03121
#
# Poissons Ratio (x) = 0.05126 0.07301
# Poissons Ratio (y) = 0.06720 0.43569
# Poissons Ratio (z) = 0.08711 0.39648
#
# Static dielectric constant tensor:
#      x y z
#    x 1.656060 0.000000 0.000000 
#    y 0.000000 1.623160 0.000000 
#    z 0.000000 0.000000 1.641000 
# 
# From -- ./inp_files/3671.got.cif
#   From: 2010.05.17/outbox.cif.g08.bks.cpg/sg60_2_cif.got.tgz:3671.got - 2010.06.03 14:59:27.
