data_PCOD9456815
_publ_section_title
;
Structure prediction by ZEFSAII (Michael W. Deem and Ramdas Pophale) SiO2 
 PCOD9456815
Probable space group: P B C N
;
_chemical_formula_sum "Si O2"
_cell_formula_units_Z 48
_cell_length_a 28.157138
_cell_length_b 5.149377
_cell_length_c 15.524359
_cell_angle_alpha 90.000000
_cell_angle_beta 90.000000
_cell_angle_gamma 90.000000
_cell_volume 2250.903495
_symmetry_space_group_name_H-M "P B C N"
_symmetry_group_IT_number 60
_symmetry_cell_setting 'orthorhombic'
loop_
_space_group_symop_operation_xyz
x,y,z
1/2-x,1/2-y,1/2+z
1/2+x,1/2-y,-z
-x,y,1/2-z
-x,-y,-z
1/2+x,1/2+y,1/2-z
1/2-x,1/2+y,z
x,-y,1/2+z
loop_
_atom_site_type_symbol
_atom_site_label
_atom_site_fract_x
_atom_site_fract_y
_atom_site_fract_z
Si Si1 0.440440 0.047091 0.595752
Si Si2 0.645736 0.590746 0.452686
Si Si3 0.050043 0.559736 0.899763
Si Si4 0.892097 0.958271 0.137528
Si Si5 0.138489 0.695116 0.196849
Si Si6 0.782926 0.640173 0.848882
O O1 0.404577 0.285490 0.577925
O O2 0.494645 0.102680 0.618158
O O3 0.442542 0.900434 0.503155
O O4 0.414449 0.888783 0.670354
O O5 0.639711 0.521644 0.551795
O O6 0.655518 0.353556 0.387844
O O7 0.687653 0.799899 0.437071
O O8 0.069297 0.271855 0.879745
O O9 0.081113 0.771433 0.850976
O O10 0.862783 0.872284 0.220087
O O11 0.247321 0.100008 0.162251
O O12 0.827437 0.552264 0.789790
#
# Coordination Sequence:
#
# PCOD9456815 Si02
#       6
#     8   8   8   8   8   8
#     4   9  21  38  64  90 128 179 221 274 327 375
#     4  10  22  43  67  92 130 169 217 269 333 392
#     4  10  22  40  61  92 131 173 230 271 314 390
#     4  11  25  40  63  96 133 176 218 270 325 386
#     4  11  23  42  66  96 134 173 218 273 340 395
#     4  11  23  43  72  95 120 163 210 267 336 403
#
# _framework density 21.324770999999998
#
# number of rings (size 3 to 8) (size 9 to 14) (size 15 to 20)
#    0.000    1.667    3.333    0.000    7.000    2.667 
#    0.000    1.667    0.000    0.000    0.000    0.000 
#    0.000    0.000    0.000    0.000    0.000    0.000 
#
# Total GULP energy -267843.313019 kJ/mol
# GULP energy per Si atom -5580.069021 kJ/mol
# Density = 2.127624 g / cm^3
# Si number density = 21.324771 Si / 1000 Ang^3
#
#
#
# Elastic Constant Matrix: (Units=GPa)
#
#
# Indices 1 2 3 4 5 6 
#
# 1 54.6907 11.3627 9.1505 0.0000 0.0000 0.0000
# 2 11.3627 82.9672 10.4109 0.0000 0.0000 0.0000
# 3 9.1505 10.4109 79.0377 0.0000 0.0000 0.0000
# 4 0.0000 0.0000 0.0000 23.4851 0.0000 0.0000
# 5 0.0000 0.0000 0.0000 0.0000 9.7559 0.0000
# 6 0.0000 0.0000 0.0000 0.0000 0.0000 29.0622
#
#
#
# Elastic Compliance Matrix: (Units=1/GPa)
#
#
# Indices 1 2 3 4 5 6 
#
# 1 0.019096 -0.002377 -0.001898 0.000000 0.000000 0.000000
# 2 -0.002377 0.012551 -0.001378 0.000000 0.000000 0.000000
# 3 -0.001898 -0.001378 0.013053 0.000000 0.000000 0.000000
# 4 0.000000 0.000000 0.000000 0.042580 0.000000 0.000000
# 5 0.000000 0.000000 0.000000 0.000000 0.102502 0.000000
# 6 0.000000 0.000000 0.000000 0.000000 0.000000 0.034409
#
#
# Mechanical properties :
#
#
# Convention : Reuss Voigt Hill
#
# Bulk Modulus (GPa) = 29.94456 30.94931 30.44694
# Shear Modulus (GPa) = 20.27333 24.84542 22.55937
#
# Velocity S-wave (km/s) = 3.08668 3.41705 3.25606
# Velocity P-wave (km/s) = 5.17456 5.48755 5.33335
#
# Compressibility (1/GPa) = 0.03339504
#
# Stress axis : x y z
#
# Youngs Moduli (GPa) = 52.36683 79.67214 76.60830
#
# Poissons Ratio (x) = 0.18939 0.14538
# Poissons Ratio (y) = 0.12448 0.10557
# Poissons Ratio (z) = 0.09938 0.10979
#
# Static dielectric constant tensor:
#      x y z
#    x 1.779440 0.000000 0.000000 
#    y 0.000000 1.842390 0.000000 
#    z 0.000000 0.000000 1.771560 
# 
# From -- ./inp_files/21114.got.cif
#   From: 2010.05.17/outbox.cif.g08.bks.cpg/sg60_11_cif.got.tgz:21114.got - 2010.06.03 14:59:27.
