data_PCOD9456772
_publ_section_title
;
Structure prediction by ZEFSAII (Michael W. Deem and Ramdas Pophale) SiO2 
 PCOD9456772
Probable space group: P B C N
;
_chemical_formula_sum "Si O2"
_cell_formula_units_Z 32
_cell_length_a 4.878688
_cell_length_b 12.828017
_cell_length_c 19.551295
_cell_angle_alpha 90.000000
_cell_angle_beta 90.000000
_cell_angle_gamma 90.000000
_cell_volume 1223.596147
_symmetry_space_group_name_H-M "P B C N"
_symmetry_group_IT_number 60
_symmetry_cell_setting 'orthorhombic'
loop_
_space_group_symop_operation_xyz
x,y,z
1/2-x,1/2-y,1/2+z
1/2+x,1/2-y,-z
-x,y,1/2-z
-x,-y,-z
1/2+x,1/2+y,1/2-z
1/2-x,1/2+y,z
x,-y,1/2+z
loop_
_atom_site_type_symbol
_atom_site_label
_atom_site_fract_x
_atom_site_fract_y
_atom_site_fract_z
Si Si1 0.500000 0.692306 0.250000
Si Si2 0.567616 0.631287 0.538758
Si Si3 0.568947 0.861873 0.558310
Si Si4 0.808553 0.015003 0.351393
Si Si5 0.500000 0.340724 0.250000
O O1 0.427279 0.616123 0.186880
O O2 0.757189 0.762749 0.227533
O O3 0.524379 0.740818 0.577732
O O4 0.868478 0.619124 0.507225
O O5 0.368768 0.637999 0.473473
O O6 0.472113 0.539105 0.586872
O O7 0.474914 0.941931 0.616505
O O8 0.826862 0.921117 0.297376
#
# Coordination Sequence:
#
# PCOD9456772 Si02
#       5
#     4   8   8   8   4
#     4  11  28  47  66  98 134 177 232 283 330 388
#     4  10  22  39  64 100 136 171 216 272 333 399
#     4  10  22  39  64 100 136 171 216 272 333 399
#     4  11  24  44  72  94 132 181 223 272 336 401
#     4  11  28  47  66  98 134 177 232 283 330 388
#
# _framework density 26.152422000000001
#
# number of rings (size 3 to 8) (size 9 to 14) (size 15 to 20)
#    0.000    1.500    0.000    3.000    0.000   18.000 
#    0.000    0.000    0.000    0.000    0.000    0.000 
#    0.000    0.000    0.000    0.000    0.000    0.000 
#
# Total GULP energy -179137.498971 kJ/mol
# GULP energy per Si atom -5598.046843 kJ/mol
# Density = 2.609290 g / cm^3
# Si number density = 26.152422 Si / 1000 Ang^3
#
#
#
# Elastic Constant Matrix: (Units=GPa)
#
#
# Indices 1 2 3 4 5 6 
#
# 1 84.9416 51.5740 10.9832 0.0000 0.0000 0.0000
# 2 51.5740 202.5070 75.0754 0.0000 0.0000 0.0000
# 3 10.9832 75.0754 74.9723 0.0000 0.0000 0.0000
# 4 0.0000 0.0000 0.0000 14.3909 0.0000 0.0000
# 5 0.0000 0.0000 0.0000 0.0000 31.9766 0.0000
# 6 0.0000 0.0000 0.0000 0.0000 0.0000 34.4880
#
#
#
# Elastic Compliance Matrix: (Units=1/GPa)
#
#
# Indices 1 2 3 4 5 6 
#
# 1 0.014204 -0.004526 0.002452 0.000000 0.000000 0.000000
# 2 -0.004526 0.009296 -0.008646 0.000000 0.000000 0.000000
# 3 0.002452 -0.008646 0.021637 0.000000 0.000000 0.000000
# 4 0.000000 0.000000 0.000000 0.069488 0.000000 0.000000
# 5 0.000000 0.000000 0.000000 0.000000 0.031273 0.000000
# 6 0.000000 0.000000 0.000000 0.000000 0.000000 0.028996
#
#
# Mechanical properties :
#
#
# Convention : Reuss Voigt Hill
#
# Bulk Modulus (GPa) = 42.20103 70.85401 56.52752
# Shear Modulus (GPa) = 24.48182 31.15700 27.81941
#
# Velocity S-wave (km/s) = 3.06293 3.45536 3.26504
# Velocity P-wave (km/s) = 5.35540 6.56284 5.98962
#
# Compressibility (1/GPa) = 0.02369610
#
# Stress axis : x y z
#
# Youngs Moduli (GPa) = 70.40237 107.57154 46.21762
#
# Poissons Ratio (x) = 0.48691 -0.11332
# Poissons Ratio (y) = 0.31867 0.39959
# Poissons Ratio (z) = -0.17261 0.93004
#
# Static dielectric constant tensor:
#      x y z
#    x 2.038430 0.000000 0.000000 
#    y 0.000000 2.072530 0.000000 
#    z 0.000000 0.000000 2.116530 
# 
# From -- ./inp_files/23452.got.cif
#   From: 2010.05.17/outbox.cif.g08.bks.cpg/sg60_12_cif.got.tgz:23452.got - 2010.06.03 14:59:27.
