data_PCOD9456397
_publ_section_title
;
Structure prediction by ZEFSAII (Michael W. Deem and Ramdas Pophale) SiO2 
 PCOD9456397
Probable space group: P B C N
;
_chemical_formula_sum "Si O2"
_cell_formula_units_Z 64
_cell_length_a 12.193946
_cell_length_b 17.899630
_cell_length_c 13.235228
_cell_angle_alpha 90.000000
_cell_angle_beta 90.000000
_cell_angle_gamma 90.000000
_cell_volume 2888.815120
_symmetry_space_group_name_H-M "P B C N"
_symmetry_group_IT_number 60
_symmetry_cell_setting 'orthorhombic'
loop_
_space_group_symop_operation_xyz
x,y,z
1/2-x,1/2-y,1/2+z
1/2+x,1/2-y,-z
-x,y,1/2-z
-x,-y,-z
1/2+x,1/2+y,1/2-z
1/2-x,1/2+y,z
x,-y,1/2+z
loop_
_atom_site_type_symbol
_atom_site_label
_atom_site_fract_x
_atom_site_fract_y
_atom_site_fract_z
Si Si1 0.680284 0.708775 0.096639
Si Si2 0.209865 0.186396 0.740886
Si Si3 0.430575 0.144859 0.972743
Si Si4 0.600420 0.453514 0.181158
Si Si5 0.400810 0.821203 0.689970
Si Si6 0.821215 0.390390 0.435369
Si Si7 0.718329 0.552990 0.484633
Si Si8 0.793606 0.907733 0.755409
O O1 0.751169 0.765884 0.164230
O O2 0.589133 0.767269 0.054890
O O3 0.639677 0.647140 0.179718
O O4 0.756790 0.664644 0.015541
O O5 0.119950 0.129204 0.779180
O O6 0.174100 0.251171 0.663582
O O7 0.293057 0.137059 0.677407
O O8 0.546605 0.113464 0.936302
O O9 0.315757 0.099438 0.958297
O O10 0.443228 0.138977 0.092611
O O11 0.500000 0.483199 0.250000
O O12 0.613600 0.452570 0.059795
O O13 0.695661 0.509701 0.214312
O O14 0.500000 0.787885 0.750000
O O15 0.330255 0.878456 0.754504
O O16 0.769431 0.472011 0.457610
O O17 0.687286 0.591771 0.376938
#
# Coordination Sequence:
#
# PCOD9456397 Si02
#       8
#     8   8   8   8   8   8   8   8
#     4  11  23  45  68 101 147 181 234 299 357 433
#     4  11  23  43  65  97 137 179 234 291 348 422
#     4  11  23  42  71 105 135 187 235 295 363 422
#     4  12  25  44  69  97 137 186 233 291 361 426
#     4  10  21  41  68 100 132 180 238 280 353 426
#     4  12  24  44  72 101 142 184 235 298 359 429
#     4  11  24  47  70 102 141 184 245 293 349 440
#     4  10  23  44  67  98 140 183 228 296 351 420
#
# _framework density 22.154411
#
# number of rings (size 3 to 8) (size 9 to 14) (size 15 to 20)
#    0.000    1.000    5.000    2.250    0.000    1.000 
#    4.500    0.000    0.000    0.000    0.000    0.000 
#    0.000    0.000    0.000    0.000    0.000    0.000 
#
# Total GULP energy -356330.995337 kJ/mol
# GULP energy per Si atom -5567.671802 kJ/mol
# Density = 2.210399 g / cm^3
# Si number density = 22.154411 Si / 1000 Ang^3
#
#
#
# Elastic Constant Matrix: (Units=GPa)
#
#
# Indices 1 2 3 4 5 6 
#
# 1 22.1988 11.6482 20.1670 0.0000 0.0000 0.0000
# 2 11.6482 112.4951 23.6827 0.0000 0.0000 0.0000
# 3 20.1670 23.6827 60.4760 0.0000 0.0000 0.0000
# 4 0.0000 0.0000 0.0000 44.9623 0.0000 0.0000
# 5 0.0000 0.0000 0.0000 0.0000 24.0374 0.0000
# 6 0.0000 0.0000 0.0000 0.0000 0.0000 9.8202
#
#
#
# Elastic Compliance Matrix: (Units=1/GPa)
#
#
# Indices 1 2 3 4 5 6 
#
# 1 0.065200 -0.002369 -0.020815 0.000000 0.000000 0.000000
# 2 -0.002369 0.009774 -0.003038 0.000000 0.000000 0.000000
# 3 -0.020815 -0.003038 0.024666 0.000000 0.000000 0.000000
# 4 0.000000 0.000000 0.000000 0.022241 0.000000 0.000000
# 5 0.000000 0.000000 0.000000 0.000000 0.041602 0.000000
# 6 0.000000 0.000000 0.000000 0.000000 0.000000 0.101831
#
#
# Mechanical properties :
#
#
# Convention : Reuss Voigt Hill
#
# Bulk Modulus (GPa) = 21.18750 34.01841 27.60295
# Shear Modulus (GPa) = 14.99303 25.07546 20.03424
#
# Velocity S-wave (km/s) = 2.60427 3.36795 3.01042
# Velocity P-wave (km/s) = 4.31593 5.52382 4.95680
#
# Compressibility (1/GPa) = 0.04719764
#
# Stress axis : x y z
#
# Youngs Moduli (GPa) = 15.33743 102.31172 40.54155
#
# Poissons Ratio (x) = 0.24239 0.84385
# Poissons Ratio (y) = 0.03634 0.12315
# Poissons Ratio (z) = 0.31924 0.31077
#
# Static dielectric constant tensor:
#      x y z
#    x 1.880410 0.000000 0.000000 
#    y 0.000000 1.791330 0.000000 
#    z 0.000000 0.000000 1.884900 
# 
# From -- ./inp_files/16375.got.cif
#   From: 2010.05.17/outbox.cif.g08.bks.cpg/sg60_9_cif.got.tgz:16375.got - 2010.06.03 14:59:27.
