data_PCOD9456195
_publ_section_title
;
Structure prediction by ZEFSAII (Michael W. Deem and Ramdas Pophale) SiO2 
 PCOD9456195
Probable space group: P B C N
;
_chemical_formula_sum "Si O2"
_cell_formula_units_Z 24
_cell_length_a 12.364831
_cell_length_b 9.345708
_cell_length_c 8.591149
_cell_angle_alpha 90.000000
_cell_angle_beta 90.000000
_cell_angle_gamma 90.000000
_cell_volume 992.776855
_symmetry_space_group_name_H-M "P B C N"
_symmetry_group_IT_number 60
_symmetry_cell_setting 'orthorhombic'
loop_
_space_group_symop_operation_xyz
x,y,z
1/2-x,1/2-y,1/2+z
1/2+x,1/2-y,-z
-x,y,1/2-z
-x,-y,-z
1/2+x,1/2+y,1/2-z
1/2-x,1/2+y,z
x,-y,1/2+z
loop_
_atom_site_type_symbol
_atom_site_label
_atom_site_fract_x
_atom_site_fract_y
_atom_site_fract_z
Si Si1 0.199020 0.643172 0.539785
Si Si2 0.058856 0.873857 0.089361
Si Si3 0.149815 0.355937 0.382279
O O1 0.315008 0.584908 0.605990
O O2 0.151494 0.521101 0.429515
O O3 0.237427 0.780013 0.440112
O O4 0.136239 0.669557 0.699538
O O5 0.064273 0.731202 0.985513
O O6 0.000000 0.847591 0.250000
O O7 0.000000 0.000000 0.000000
#
# Coordination Sequence:
#
# PCOD9456195 Si02
#       3
#     8   8   8
#     4  10  21  39  66  93 124 172 221 266 313 399
#     4  10  23  40  64  93 131 168 211 270 335 383
#     4  10  22  37  69  90 131 165 228 259 326 390
#
# _framework density 24.174617999999999
#
# number of rings (size 3 to 8) (size 9 to 14) (size 15 to 20)
#    2.000    0.000    0.000    4.000    4.667    0.000 
#    0.000    1.667    0.000    0.000    0.000    0.000 
#    0.000    0.000    0.000    0.000    0.000    0.000 
#
# Total GULP energy -134199.479522 kJ/mol
# GULP energy per Si atom -5591.644980 kJ/mol
# Density = 2.411960 g / cm^3
# Si number density = 24.174618 Si / 1000 Ang^3
#
#
#
# Elastic Constant Matrix: (Units=GPa)
#
#
# Indices 1 2 3 4 5 6 
#
# 1 62.2899 2.6923 23.0942 0.0000 0.0000 0.0000
# 2 2.6923 97.7467 32.5093 0.0000 0.0000 0.0000
# 3 23.0942 32.5093 134.3825 0.0000 0.0000 0.0000
# 4 0.0000 0.0000 0.0000 41.9927 0.0000 0.0000
# 5 0.0000 0.0000 0.0000 0.0000 52.1500 0.0000
# 6 0.0000 0.0000 0.0000 0.0000 0.0000 35.5041
#
#
#
# Elastic Compliance Matrix: (Units=1/GPa)
#
#
# Indices 1 2 3 4 5 6 
#
# 1 0.017174 0.000553 -0.003085 0.000000 0.000000 0.000000
# 2 0.000553 0.011143 -0.002791 0.000000 0.000000 0.000000
# 3 -0.003085 -0.002791 0.008647 0.000000 0.000000 0.000000
# 4 0.000000 0.000000 0.000000 0.023814 0.000000 0.000000
# 5 0.000000 0.000000 0.000000 0.000000 0.019175 0.000000
# 6 0.000000 0.000000 0.000000 0.000000 0.000000 0.028166
#
#
# Mechanical properties :
#
#
# Convention : Reuss Voigt Hill
#
# Bulk Modulus (GPa) = 37.99646 45.66787 41.83217
# Shear Modulus (GPa) = 39.20407 41.67092 40.43750
#
# Velocity S-wave (km/s) = 4.03141 4.15631 4.09433
# Velocity P-wave (km/s) = 6.11729 6.47804 6.30025
#
# Compressibility (1/GPa) = 0.02631824
#
# Stress axis : x y z
#
# Youngs Moduli (GPa) = 58.22786 89.73850 115.64971
#
# Poissons Ratio (x) = -0.04963 0.35680
# Poissons Ratio (y) = -0.03220 0.32276
# Poissons Ratio (z) = 0.17965 0.25045
#
# Static dielectric constant tensor:
#      x y z
#    x 2.088640 0.000000 0.000000 
#    y 0.000000 1.845880 0.000000 
#    z 0.000000 0.000000 1.839940 
# 
# From -- ./inp_files/4401.got.cif
#   From: 2010.05.17/outbox.cif.g08.bks.cpg/sg60_3_cif.got.tgz:4401.got - 2010.06.03 14:59:27.
