data_PCOD9456200
_publ_section_title
;
Structure prediction by ZEFSAII (Michael W. Deem and Ramdas Pophale) SiO2 
 PCOD9456200
Probable space group: P B C N
;
_chemical_formula_sum "Si O2"
_cell_formula_units_Z 32
_cell_length_a 15.326735
_cell_length_b 5.042067
_cell_length_c 15.637917
_cell_angle_alpha 90.000000
_cell_angle_beta 90.000000
_cell_angle_gamma 90.000000
_cell_volume 1208.473592
_symmetry_space_group_name_H-M "P B C N"
_symmetry_group_IT_number 60
_symmetry_cell_setting 'orthorhombic'
loop_
_space_group_symop_operation_xyz
x,y,z
1/2-x,1/2-y,1/2+z
1/2+x,1/2-y,-z
-x,y,1/2-z
-x,-y,-z
1/2+x,1/2+y,1/2-z
1/2-x,1/2+y,z
x,-y,1/2+z
loop_
_atom_site_type_symbol
_atom_site_label
_atom_site_fract_x
_atom_site_fract_y
_atom_site_fract_z
Si Si1 0.041059 0.678712 0.075862
Si Si2 0.868385 0.839274 0.177530
Si Si3 0.102156 0.661894 0.725093
Si Si4 0.305202 0.509035 0.003285
O O1 0.097157 0.480299 0.134508
O O2 0.102535 0.908045 0.038651
O O3 0.965505 0.803829 0.135574
O O4 0.000000 0.500000 0.000000
O O5 0.635596 0.544195 0.256311
O O6 0.849838 0.545462 0.211942
O O7 0.815951 0.961018 0.098931
O O8 0.000000 0.675224 0.750000
O O9 0.264498 0.787367 0.028260
#
# Coordination Sequence:
#
# PCOD9456200 Si02
#       4
#     8   8   8   8
#     4  11  24  44  74 104 135 179 233 289 345 409
#     4  11  23  43  68  95 132 179 228 276 333 410
#     4  10  21  39  67 100 129 167 228 286 331 396
#     4  12  26  44  65  99 140 179 221 279 346 407
#
# _framework density 26.479685
#
# number of rings (size 3 to 8) (size 9 to 14) (size 15 to 20)
#    0.000    1.000    0.000    9.000    0.000    8.000 
#    0.000    7.500    0.000    0.000    0.000    0.000 
#    0.000    0.000    0.000    0.000    0.000    0.000 
#
# Total GULP energy -179406.383873 kJ/mol
# GULP energy per Si atom -5606.449496 kJ/mol
# Density = 2.641942 g / cm^3
# Si number density = 26.479685 Si / 1000 Ang^3
#
#
#
# Elastic Constant Matrix: (Units=GPa)
#
#
# Indices 1 2 3 4 5 6 
#
# 1 101.2310 41.7645 34.6813 0.0000 0.0000 0.0000
# 2 41.7645 180.2359 43.2060 0.0000 0.0000 0.0000
# 3 34.6813 43.2060 91.7131 0.0000 0.0000 0.0000
# 4 0.0000 0.0000 0.0000 53.4131 0.0000 0.0000
# 5 0.0000 0.0000 0.0000 0.0000 46.9330 0.0000
# 6 0.0000 0.0000 0.0000 0.0000 0.0000 35.0875
#
#
#
# Elastic Compliance Matrix: (Units=1/GPa)
#
#
# Indices 1 2 3 4 5 6 
#
# 1 0.011894 -0.001892 -0.003607 0.000000 0.000000 0.000000
# 2 -0.001892 0.006555 -0.002373 0.000000 0.000000 0.000000
# 3 -0.003607 -0.002373 0.013385 0.000000 0.000000 0.000000
# 4 0.000000 0.000000 0.000000 0.018722 0.000000 0.000000
# 5 0.000000 0.000000 0.000000 0.000000 0.021307 0.000000
# 6 0.000000 0.000000 0.000000 0.000000 0.000000 0.028500
#
#
# Mechanical properties :
#
#
# Convention : Reuss Voigt Hill
#
# Bulk Modulus (GPa) = 62.14018 68.05373 65.09696
# Shear Modulus (GPa) = 41.16199 43.98860 42.57530
#
# Velocity S-wave (km/s) = 3.94696 4.08023 4.01415
# Velocity P-wave (km/s) = 6.65503 6.92487 6.79129
#
# Compressibility (1/GPa) = 0.01609265
#
# Stress axis : x y z
#
# Youngs Moduli (GPa) = 84.07274 152.54475 74.70841
#
# Poissons Ratio (x) = 0.28855 0.26946
# Poissons Ratio (y) = 0.15903 0.17728
# Poissons Ratio (z) = 0.30323 0.36198
#
# Static dielectric constant tensor:
#      x y z
#    x 2.091560 0.000000 0.000000 
#    y 0.000000 2.005230 0.000000 
#    z 0.000000 0.000000 2.086560 
# 
# From -- ./inp_files/17135.got.cif
#   From: 2010.05.17/outbox.cif.g08.bks.cpg/sg60_9_cif.got.tgz:17135.got - 2010.06.03 14:59:27.
