data_PCOD9456055
_publ_section_title
;
Structure prediction by ZEFSAII (Michael W. Deem and Ramdas Pophale) SiO2 
 PCOD9456055
Probable space group: P B C N
;
_chemical_formula_sum "Si O2"
_cell_formula_units_Z 40
_cell_length_a 8.004855
_cell_length_b 23.848126
_cell_length_c 9.122128
_cell_angle_alpha 90.000000
_cell_angle_beta 90.000000
_cell_angle_gamma 90.000000
_cell_volume 1741.421448
_symmetry_space_group_name_H-M "P B C N"
_symmetry_group_IT_number 60
_symmetry_cell_setting 'orthorhombic'
loop_
_space_group_symop_operation_xyz
x,y,z
1/2-x,1/2-y,1/2+z
1/2+x,1/2-y,-z
-x,y,1/2-z
-x,-y,-z
1/2+x,1/2+y,1/2-z
1/2-x,1/2+y,z
x,-y,1/2+z
loop_
_atom_site_type_symbol
_atom_site_label
_atom_site_fract_x
_atom_site_fract_y
_atom_site_fract_z
Si Si1 0.257125 0.224572 0.861324
Si Si2 0.135078 0.885200 0.455149
Si Si3 0.789516 0.078002 0.876681
Si Si4 0.628502 0.186945 0.947442
Si Si5 0.615524 0.964527 0.887822
O O1 0.135625 0.181972 0.949071
O O2 0.440954 0.206916 0.917099
O O3 0.262136 0.212349 0.688020
O O4 0.202266 0.286487 0.905467
O O5 0.180185 0.901121 0.288114
O O6 0.278258 0.912456 0.553448
O O7 0.951277 0.910359 0.476536
O O8 0.646308 0.119698 0.937528
O O9 0.750158 0.013278 0.856353
O O10 0.500000 0.950580 0.750000
O O11 0.500000 0.000000 0.000000
#
# Coordination Sequence:
#
# PCOD9456055 Si02
#       5
#     8   8   8   8   8
#     4  10  21  39  62  89 122 156 206 248 309 365
#     4  10  21  40  62  90 123 161 206 254 310 372
#     4  10  21  39  65  87 122 165 204 250 314 375
#     4  10  21  38  63  89 120 161 199 253 303 371
#     4  12  23  40  63  90 123 159 206 252 306 370
#
# _framework density 22.969740999999999
#
# number of rings (size 3 to 8) (size 9 to 14) (size 15 to 20)
#    0.000    1.600    2.000    3.000    2.800    2.400 
#    7.200    0.000    0.000    0.000    0.000    0.000 
#    0.000    0.000    0.000    0.000    0.000    0.000 
#
# Total GULP energy -223490.795504 kJ/mol
# GULP energy per Si atom -5587.269888 kJ/mol
# Density = 2.291746 g / cm^3
# Si number density = 22.969741 Si / 1000 Ang^3
#
#
#
# Elastic Constant Matrix: (Units=GPa)
#
#
# Indices 1 2 3 4 5 6 
#
# 1 85.4438 0.1096 16.5895 0.0000 0.0000 0.0000
# 2 0.1096 71.2795 2.0341 0.0000 0.0000 0.0000
# 3 16.5895 2.0341 52.8249 0.0000 0.0000 0.0000
# 4 0.0000 0.0000 0.0000 25.4490 0.0000 0.0000
# 5 0.0000 0.0000 0.0000 0.0000 33.8447 0.0000
# 6 0.0000 0.0000 0.0000 0.0000 0.0000 18.7042
#
#
#
# Elastic Compliance Matrix: (Units=1/GPa)
#
#
# Indices 1 2 3 4 5 6 
#
# 1 0.012464 0.000093 -0.003918 0.000000 0.000000 0.000000
# 2 0.000093 0.014045 -0.000570 0.000000 0.000000 0.000000
# 3 -0.003918 -0.000570 0.020183 0.000000 0.000000 0.000000
# 4 0.000000 0.000000 0.000000 0.039294 0.000000 0.000000
# 5 0.000000 0.000000 0.000000 0.000000 0.029547 0.000000
# 6 0.000000 0.000000 0.000000 0.000000 0.000000 0.053464
#
#
# Mechanical properties :
#
#
# Convention : Reuss Voigt Hill
#
# Bulk Modulus (GPa) = 26.38382 27.44605 26.91494
# Shear Modulus (GPa) = 26.25750 28.32057 27.28904
#
# Velocity S-wave (km/s) = 3.38470 3.51515 3.45054
# Velocity P-wave (km/s) = 5.17553 5.33383 5.25528
#
# Compressibility (1/GPa) = 0.03790201
#
# Stress axis : x y z
#
# Youngs Moduli (GPa) = 80.22996 71.19766 49.54708
#
# Poissons Ratio (x) = -0.00660 0.19412
# Poissons Ratio (y) = -0.00743 0.02824
# Poissons Ratio (z) = 0.31433 0.04058
#
# Static dielectric constant tensor:
#      x y z
#    x 1.881290 0.000000 0.000000 
#    y 0.000000 1.913560 0.000000 
#    z 0.000000 0.000000 1.752790 
# 
# From -- ./inp_files/3866.got.cif
#   From: 2010.05.17/outbox.cif.g08.bks.cpg/sg60_2_cif.got.tgz:3866.got - 2010.06.03 14:59:27.
