data_PCOD9456384
_publ_section_title
;
Structure prediction by ZEFSAII (Michael W. Deem and Ramdas Pophale) SiO2 
 PCOD9456384
Probable space group: P B C N
;
_chemical_formula_sum "Si O2"
_cell_formula_units_Z 60
_cell_length_a 5.583034
_cell_length_b 25.858201
_cell_length_c 17.355230
_cell_angle_alpha 90.000000
_cell_angle_beta 90.000000
_cell_angle_gamma 90.000000
_cell_volume 2505.526227
_symmetry_space_group_name_H-M "P B C N"
_symmetry_group_IT_number 60
_symmetry_cell_setting 'orthorhombic'
loop_
_space_group_symop_operation_xyz
x,y,z
1/2-x,1/2-y,1/2+z
1/2+x,1/2-y,-z
-x,y,1/2-z
-x,-y,-z
1/2+x,1/2+y,1/2-z
1/2-x,1/2+y,z
x,-y,1/2+z
loop_
_atom_site_type_symbol
_atom_site_label
_atom_site_fract_x
_atom_site_fract_y
_atom_site_fract_z
Si Si1 0.824083 0.118589 0.149657
Si Si2 0.000000 0.550156 0.250000
Si Si3 0.851429 0.828437 0.171043
Si Si4 0.400490 0.107381 0.512882
Si Si5 0.434787 0.732576 0.373445
Si Si6 0.713155 0.288499 0.451263
Si Si7 0.900116 0.023458 0.335907
Si Si8 0.383704 0.571490 0.916974
O O1 0.698456 0.089140 0.218797
O O2 0.884805 0.177763 0.164251
O O3 0.050897 0.081565 0.134555
O O4 0.649149 0.114308 0.077042
O O5 0.116762 0.517506 0.180448
O O6 0.992226 0.813390 0.092646
O O7 0.000000 0.824979 0.250000
O O8 0.657244 0.782302 0.172938
O O9 0.812346 0.889380 0.153669
O O10 0.413163 0.166038 0.546644
O O11 0.644036 0.076770 0.531144
O O12 0.145233 0.086798 0.546744
O O13 0.328953 0.727959 0.461149
O O14 0.709678 0.742093 0.395783
O O15 0.000000 0.012087 0.250000
O O16 0.052154 0.985740 0.389097
#
# Coordination Sequence:
#
# PCOD9456384 Si02
#       8
#     8   4   8   8   8   8   8   8
#     4  10  25  42  68  98 131 186 233 293 343 419
#     4  10  24  48  64  94 138 180 238 288 352 412
#     4  11  24  41  63 104 135 175 229 291 349 420
#     4  10  24  42  71 105 134 176 230 290 351 420
#     4  11  21  41  69  93 133 186 231 281 352 420
#     4  10  21  41  66  94 135 182 226 278 352 430
#     4  10  24  46  68  95 135 185 235 282 357 419
#     4  11  24  45  72 100 141 180 228 288 358 424
#
# _framework density 23.947063
#
# number of rings (size 3 to 8) (size 9 to 14) (size 15 to 20)
#    0.000    1.600    2.667    0.400    6.533    2.667 
#    4.800    0.000    0.000    0.000    0.000    0.000 
#    0.000    0.000    0.000    0.000    0.000    0.000 
#
# Total GULP energy -334458.533633 kJ/mol
# GULP energy per Si atom -5574.308894 kJ/mol
# Density = 2.389256 g / cm^3
# Si number density = 23.947063 Si / 1000 Ang^3
#
#
#
# Elastic Constant Matrix: (Units=GPa)
#
#
# Indices 1 2 3 4 5 6 
#
# 1 98.8078 34.6004 15.3301 0.0000 0.0000 0.0000
# 2 34.6004 77.8204 12.4171 0.0000 0.0000 0.0000
# 3 15.3301 12.4171 69.2146 0.0000 0.0000 0.0000
# 4 0.0000 0.0000 0.0000 20.8496 0.0000 0.0000
# 5 0.0000 0.0000 0.0000 0.0000 41.2643 0.0000
# 6 0.0000 0.0000 0.0000 0.0000 0.0000 19.2565
#
#
#
# Elastic Compliance Matrix: (Units=1/GPa)
#
#
# Indices 1 2 3 4 5 6 
#
# 1 0.012196 -0.005139 -0.001779 0.000000 0.000000 0.000000
# 2 -0.005139 0.015394 -0.001624 0.000000 0.000000 0.000000
# 3 -0.001779 -0.001624 0.015133 0.000000 0.000000 0.000000
# 4 0.000000 0.000000 0.000000 0.047963 0.000000 0.000000
# 5 0.000000 0.000000 0.000000 0.000000 0.024234 0.000000
# 6 0.000000 0.000000 0.000000 0.000000 0.000000 0.051931
#
#
# Mechanical properties :
#
#
# Convention : Reuss Voigt Hill
#
# Bulk Modulus (GPa) = 39.00153 41.17090 40.08621
# Shear Modulus (GPa) = 25.97667 28.50710 27.24188
#
# Velocity S-wave (km/s) = 3.29713 3.45399 3.37647
# Velocity P-wave (km/s) = 5.55128 5.75643 5.65479
#
# Compressibility (1/GPa) = 0.02564002
#
# Stress axis : x y z
#
# Youngs Moduli (GPa) = 81.99268 64.96069 66.07990
#
# Poissons Ratio (x) = 0.33382 0.11758
# Poissons Ratio (y) = 0.42134 0.10728
# Poissons Ratio (z) = 0.14590 0.10546
#
# Static dielectric constant tensor:
#      x y z
#    x 2.102300 0.000000 0.000000 
#    y 0.000000 1.989880 0.000000 
#    z 0.000000 0.000000 2.241950 
# 
# From -- ./inp_files/18788.got.cif
#   From: 2010.05.17/outbox.cif.g08.bks.cpg/sg60_10_cif.got.tgz:18788.got - 2010.06.03 14:59:27.
