data_PCOD9456071
_publ_section_title
;
Structure prediction by ZEFSAII (Michael W. Deem and Ramdas Pophale) SiO2 
 PCOD9456071
Probable space group: P B C N
;
_chemical_formula_sum "Si O2"
_cell_formula_units_Z 56
_cell_length_a 18.004607
_cell_length_b 8.977148
_cell_length_c 14.123836
_cell_angle_alpha 90.000000
_cell_angle_beta 90.000000
_cell_angle_gamma 90.000000
_cell_volume 2282.835919
_symmetry_space_group_name_H-M "P B C N"
_symmetry_group_IT_number 60
_symmetry_cell_setting 'orthorhombic'
loop_
_space_group_symop_operation_xyz
x,y,z
1/2-x,1/2-y,1/2+z
1/2+x,1/2-y,-z
-x,y,1/2-z
-x,-y,-z
1/2+x,1/2+y,1/2-z
1/2-x,1/2+y,z
x,-y,1/2+z
loop_
_atom_site_type_symbol
_atom_site_label
_atom_site_fract_x
_atom_site_fract_y
_atom_site_fract_z
Si Si1 0.377696 0.638756 0.740839
Si Si2 0.644543 0.712375 0.973017
Si Si3 0.727103 0.012801 0.987602
Si Si4 0.098078 0.807420 0.712329
Si Si5 0.284978 0.910795 0.231959
Si Si6 0.390022 0.896733 0.869145
Si Si7 0.478922 0.177127 0.900049
O O1 0.363634 0.716765 0.639889
O O2 0.414269 0.482330 0.714026
O O3 0.295351 0.598485 0.778612
O O4 0.414450 0.745787 0.817812
O O5 0.688204 0.564064 0.005854
O O6 0.563812 0.741269 0.016077
O O7 0.697833 0.846871 0.007921
O O8 0.668357 0.114413 0.045078
O O9 0.720686 0.033034 0.875020
O O10 0.182803 0.756478 0.721970
O O11 0.061272 0.741995 0.806621
O O12 0.062615 0.724511 0.621594
O O13 0.341849 0.011795 0.290754
O O14 0.458600 0.002206 0.900202
#
# Coordination Sequence:
#
# PCOD9456071 Si02
#       7
#     8   8   8   8   8   8   8
#     4  11  22  36  65  97 121 158 215 269 310 374
#     4  10  22  38  60  92 131 158 215 260 317 379
#     4  10  22  36  59  96 127 163 205 266 313 370
#     4  10  22  41  65  86 127 172 205 256 320 382
#     4  10  21  39  61  93 128 162 208 257 326 371
#     4  10  21  38  64  91 127 167 210 257 319 379
#     4   9  22  44  62  86 126 177 203 251 324 385
#
# _framework density 24.530888999999998
#
# number of rings (size 3 to 8) (size 9 to 14) (size 15 to 20)
#    0.000    2.000    1.429    0.857   14.000    0.571 
#    0.000    8.571    3.143    0.000    0.000    0.000 
#    0.000    0.000    0.000    0.000    0.000    0.000 
#
# Total GULP energy -313100.128508 kJ/mol
# GULP energy per Si atom -5591.073723 kJ/mol
# Density = 2.447506 g / cm^3
# Si number density = 24.530889 Si / 1000 Ang^3
#
#
#
# Elastic Constant Matrix: (Units=GPa)
#
#
# Indices 1 2 3 4 5 6 
#
# 1 56.8419 24.2915 18.8059 0.0000 0.0000 0.0000
# 2 24.2915 53.8352 8.0039 0.0000 0.0000 0.0000
# 3 18.8059 8.0039 68.2779 0.0000 0.0000 0.0000
# 4 0.0000 0.0000 0.0000 13.8353 0.0000 0.0000
# 5 0.0000 0.0000 0.0000 0.0000 29.1455 0.0000
# 6 0.0000 0.0000 0.0000 0.0000 0.0000 18.5385
#
#
#
# Elastic Compliance Matrix: (Units=1/GPa)
#
#
# Indices 1 2 3 4 5 6 
#
# 1 0.023563 -0.009839 -0.005337 0.000000 0.000000 0.000000
# 2 -0.009839 0.023013 0.000012 0.000000 0.000000 0.000000
# 3 -0.005337 0.000012 0.016114 0.000000 0.000000 0.000000
# 4 0.000000 0.000000 0.000000 0.072279 0.000000 0.000000
# 5 0.000000 0.000000 0.000000 0.000000 0.034311 0.000000
# 6 0.000000 0.000000 0.000000 0.000000 0.000000 0.053942
#
#
# Mechanical properties :
#
#
# Convention : Reuss Voigt Hill
#
# Bulk Modulus (GPa) = 30.89852 31.23972 31.06912
# Shear Modulus (GPa) = 18.91540 20.82746 19.87143
#
# Velocity S-wave (km/s) = 2.77985 2.91697 2.84924
# Velocity P-wave (km/s) = 4.78817 4.90994 4.84943
#
# Compressibility (1/GPa) = 0.03236401
#
# Stress axis : x y z
#
# Youngs Moduli (GPa) = 42.43985 43.45424 62.05605
#
# Poissons Ratio (x) = 0.42753 0.33117
# Poissons Ratio (y) = 0.41755 -0.00076
# Poissons Ratio (z) = 0.22648 -0.00053
#
# Static dielectric constant tensor:
#      x y z
#    x 2.075210 0.000000 0.000000 
#    y 0.000000 1.984600 0.000000 
#    z 0.000000 0.000000 1.919710 
# 
# From -- ./inp_files/17735.got.cif
#   From: 2010.05.17/outbox.cif.g08.bks.cpg/sg60_9_cif.got.tgz:17735.got - 2010.06.03 14:59:27.
