data_PCOD9456099
_publ_section_title
;
Structure prediction by ZEFSAII (Michael W. Deem and Ramdas Pophale) SiO2 
 PCOD9456099
Probable space group: P B C N
;
_chemical_formula_sum "Si O2"
_cell_formula_units_Z 40
_cell_length_a 16.001788
_cell_length_b 11.507063
_cell_length_c 8.338706
_cell_angle_alpha 90.000000
_cell_angle_beta 90.000000
_cell_angle_gamma 90.000000
_cell_volume 1535.435810
_symmetry_space_group_name_H-M "P B C N"
_symmetry_group_IT_number 60
_symmetry_cell_setting 'orthorhombic'
loop_
_space_group_symop_operation_xyz
x,y,z
1/2-x,1/2-y,1/2+z
1/2+x,1/2-y,-z
-x,y,1/2-z
-x,-y,-z
1/2+x,1/2+y,1/2-z
1/2-x,1/2+y,z
x,-y,1/2+z
loop_
_atom_site_type_symbol
_atom_site_label
_atom_site_fract_x
_atom_site_fract_y
_atom_site_fract_z
Si Si1 0.815683 0.528592 0.611050
Si Si2 0.872485 0.091334 0.542989
Si Si3 0.603993 0.349439 0.395644
Si Si4 0.542658 0.113761 0.421508
Si Si5 0.306073 0.821104 0.082765
O O1 0.717652 0.544681 0.601218
O O2 0.860550 0.583783 0.456292
O O3 0.840029 0.605870 0.764436
O O4 0.830067 0.391447 0.580415
O O5 0.911081 0.141234 0.705300
O O6 0.848461 0.195821 0.423389
O O7 0.911477 0.977116 0.465978
O O8 0.547071 0.248882 0.475364
O O9 0.704515 0.320701 0.413259
O O10 0.500000 0.113943 0.250000
O O11 0.500000 0.000000 0.500000
#
# Coordination Sequence:
#
# PCOD9456099 Si02
#       5
#     8   8   8   8   8
#     4  10  22  39  67 105 135 185 241 285 375 412
#     4  10  22  40  73 103 148 174 226 324 367 431
#     4  10  24  43  66 111 138 185 240 285 385 419
#     4  12  27  48  70  98 144 194 248 288 335 446
#     4  10  21  38  71 105 145 175 226 316 361 434
#
# _framework density 26.051234999999998
#
# number of rings (size 3 to 8) (size 9 to 14) (size 15 to 20)
#    0.000    1.600    2.000    1.200    8.400    3.200 
#    0.000    1.000    0.000    0.000    0.000    0.000 
#    0.000    0.000    0.000    0.000    0.000    0.000 
#
# Total GULP energy -223242.222730 kJ/mol
# GULP energy per Si atom -5581.055568 kJ/mol
# Density = 2.599194 g / cm^3
# Si number density = 26.051235 Si / 1000 Ang^3
#
#
#
# Elastic Constant Matrix: (Units=GPa)
#
#
# Indices 1 2 3 4 5 6 
#
# 1 97.1327 30.0915 24.1217 0.0000 0.0000 0.0000
# 2 30.0915 273.7163 78.3654 0.0000 0.0000 0.0000
# 3 24.1217 78.3654 94.6794 0.0000 0.0000 0.0000
# 4 0.0000 0.0000 0.0000 29.5503 0.0000 0.0000
# 5 0.0000 0.0000 0.0000 0.0000 30.6755 0.0000
# 6 0.0000 0.0000 0.0000 0.0000 0.0000 47.8513
#
#
#
# Elastic Compliance Matrix: (Units=1/GPa)
#
#
# Indices 1 2 3 4 5 6 
#
# 1 0.011050 -0.000536 -0.002372 0.000000 0.000000 0.000000
# 2 -0.000536 0.004814 -0.003848 0.000000 0.000000 0.000000
# 3 -0.002372 -0.003848 0.014351 0.000000 0.000000 0.000000
# 4 0.000000 0.000000 0.000000 0.033841 0.000000 0.000000
# 5 0.000000 0.000000 0.000000 0.000000 0.032599 0.000000
# 6 0.000000 0.000000 0.000000 0.000000 0.000000 0.020898
#
#
# Mechanical properties :
#
#
# Convention : Reuss Voigt Hill
#
# Bulk Modulus (GPa) = 59.86527 81.18728 70.52628
# Shear Modulus (GPa) = 36.59445 43.81207 40.20326
#
# Velocity S-wave (km/s) = 3.75201 4.10538 3.93267
# Velocity P-wave (km/s) = 6.46528 7.32832 6.91029
#
# Compressibility (1/GPa) = 0.01670418
#
# Stress axis : x y z
#
# Youngs Moduli (GPa) = 90.49623 207.72685 69.68048
#
# Poissons Ratio (x) = 0.11129 0.16527
# Poissons Ratio (y) = 0.04848 0.26813
# Poissons Ratio (z) = 0.21464 0.79934
#
# Static dielectric constant tensor:
#      x y z
#    x 2.132250 0.000000 0.000000 
#    y 0.000000 2.094410 0.000000 
#    z 0.000000 0.000000 2.061430 
# 
# From -- ./inp_files/7255.got.cif
#   From: 2010.05.17/outbox.cif.g08.bks.cpg/sg60_4_cif.got.tgz:7255.got - 2010.06.03 14:59:27.
