data_PCOD9456327
_publ_section_title
;
Structure prediction by ZEFSAII (Michael W. Deem and Ramdas Pophale) SiO2 
 PCOD9456327
Probable space group: P B C N
;
_chemical_formula_sum "Si O2"
_cell_formula_units_Z 52
_cell_length_a 14.731671
_cell_length_b 19.492426
_cell_length_c 8.291715
_cell_angle_alpha 90.000000
_cell_angle_beta 90.000000
_cell_angle_gamma 90.000000
_cell_volume 2381.015769
_symmetry_space_group_name_H-M "P B C N"
_symmetry_group_IT_number 60
_symmetry_cell_setting 'orthorhombic'
loop_
_space_group_symop_operation_xyz
x,y,z
1/2-x,1/2-y,1/2+z
1/2+x,1/2-y,-z
-x,y,1/2-z
-x,-y,-z
1/2+x,1/2+y,1/2-z
1/2-x,1/2+y,z
x,-y,1/2+z
loop_
_atom_site_type_symbol
_atom_site_label
_atom_site_fract_x
_atom_site_fract_y
_atom_site_fract_z
Si Si1 0.000000 0.538525 0.750000
Si Si2 0.680600 0.211030 0.294421
Si Si3 0.143099 0.780582 0.527420
Si Si4 0.956014 0.182479 0.932052
Si Si5 0.689430 0.567709 0.577484
Si Si6 0.116327 0.569284 0.047830
Si Si7 0.584139 0.465239 0.371661
O O1 0.070636 0.487613 0.660833
O O2 0.949532 0.579980 0.607290
O O3 0.787943 0.223112 0.323988
O O4 0.658390 0.222539 0.107016
O O5 0.627801 0.267217 0.403680
O O6 0.641545 0.138179 0.354187
O O7 0.035294 0.789170 0.546846
O O8 0.176649 0.851450 0.444141
O O9 0.000000 0.178221 0.750000
O O10 0.930307 0.104513 0.972494
O O11 0.787423 0.544599 0.520965
O O12 0.611423 0.530386 0.474425
O O13 0.670555 0.549574 0.760156
O O14 0.500000 0.476266 0.250000
#
# Coordination Sequence:
#
# PCOD9456327 Si02
#       7
#     4   8   8   8   8   8   8
#     4  10  22  46  62  98 122 164 210 266 308 390
#     4  10  21  42  63  89 119 166 207 257 310 366
#     4  10  21  41  60  87 124 159 215 253 304 378
#     4   9  18  38  61  84 120 166 199 243 309 375
#     4  11  21  39  60  95 126 161 201 259 306 377
#     4  10  23  41  67  90 128 160 210 261 320 369
#     4  11  20  36  64  88 130 166 196 247 315 374
#
# _framework density 21.839418999999999
#
# number of rings (size 3 to 8) (size 9 to 14) (size 15 to 20)
#    0.000    1.846    4.615    1.385    3.231    0.000 
#   13.846    0.000    0.000    0.000    0.000    0.000 
#    0.000    0.000    0.000    0.000    0.000    0.000 
#
# Total GULP energy -290310.428960 kJ/mol
# GULP energy per Si atom -5582.892865 kJ/mol
# Density = 2.178971 g / cm^3
# Si number density = 21.839419 Si / 1000 Ang^3
#
#
#
# Elastic Constant Matrix: (Units=GPa)
#
#
# Indices 1 2 3 4 5 6 
#
# 1 78.9632 7.1526 -6.5453 0.0000 0.0000 0.0000
# 2 7.1526 49.7954 8.9715 0.0000 0.0000 0.0000
# 3 -6.5453 8.9715 24.3573 0.0000 0.0000 0.0000
# 4 0.0000 0.0000 0.0000 21.5450 0.0000 0.0000
# 5 0.0000 0.0000 0.0000 0.0000 16.2137 0.0000
# 6 0.0000 0.0000 0.0000 0.0000 0.0000 17.1616
#
#
#
# Elastic Compliance Matrix: (Units=1/GPa)
#
#
# Indices 1 2 3 4 5 6 
#
# 1 0.013291 -0.002734 0.004579 0.000000 0.000000 0.000000
# 2 -0.002734 0.022072 -0.008864 0.000000 0.000000 0.000000
# 3 0.004579 -0.008864 0.045551 0.000000 0.000000 0.000000
# 4 0.000000 0.000000 0.000000 0.046415 0.000000 0.000000
# 5 0.000000 0.000000 0.000000 0.000000 0.061676 0.000000
# 6 0.000000 0.000000 0.000000 0.000000 0.000000 0.058270
#
#
# Mechanical properties :
#
#
# Convention : Reuss Voigt Hill
#
# Bulk Modulus (GPa) = 14.95340 19.14150 17.04745
# Shear Modulus (GPa) = 17.63014 20.55321 19.09167
#
# Velocity S-wave (km/s) = 2.84432 3.07107 2.95987
# Velocity P-wave (km/s) = 4.20104 4.62158 4.41632
#
# Compressibility (1/GPa) = 0.06687443
#
# Stress axis : x y z
#
# Youngs Moduli (GPa) = 75.23708 45.30636 21.95353
#
# Poissons Ratio (x) = 0.12387 -0.10052
# Poissons Ratio (y) = 0.20571 0.19460
# Poissons Ratio (z) = -0.34449 0.40161
#
# Static dielectric constant tensor:
#      x y z
#    x 1.849860 0.000000 0.000000 
#    y 0.000000 1.779110 0.000000 
#    z 0.000000 0.000000 1.813770 
# 
# From -- ./inp_files/6079.got.cif
#   From: 2010.05.17/outbox.cif.g08.bks.cpg/sg60_4_cif.got.tgz:6079.got - 2010.06.03 14:59:27.
