data_PCOD9456870
_publ_section_title
;
Structure prediction by ZEFSAII (Michael W. Deem and Ramdas Pophale) SiO2 
 PCOD9456870
Probable space group: P B C N
;
_chemical_formula_sum "Si O2"
_cell_formula_units_Z 48
_cell_length_a 16.583176
_cell_length_b 10.933595
_cell_length_c 11.249381
_cell_angle_alpha 90.000000
_cell_angle_beta 90.000000
_cell_angle_gamma 90.000000
_cell_volume 2039.667232
_symmetry_space_group_name_H-M "P B C N"
_symmetry_group_IT_number 60
_symmetry_cell_setting 'orthorhombic'
loop_
_space_group_symop_operation_xyz
x,y,z
1/2-x,1/2-y,1/2+z
1/2+x,1/2-y,-z
-x,y,1/2-z
-x,-y,-z
1/2+x,1/2+y,1/2-z
1/2-x,1/2+y,z
x,-y,1/2+z
loop_
_atom_site_type_symbol
_atom_site_label
_atom_site_fract_x
_atom_site_fract_y
_atom_site_fract_z
Si Si1 0.653064 0.707813 0.333559
Si Si2 0.850272 0.556250 0.971550
Si Si3 0.833636 0.953297 0.468427
Si Si4 0.821460 0.198024 0.751583
Si Si5 0.424206 0.520965 0.320835
Si Si6 0.093728 0.444616 0.778595
O O1 0.623577 0.807846 0.427839
O O2 0.675585 0.583620 0.402652
O O3 0.728045 0.765087 0.260444
O O4 0.591338 0.652181 0.239338
O O5 0.757230 0.566645 0.014657
O O6 0.892865 0.500078 0.088351
O O7 0.860396 0.488210 0.842920
O O8 0.844140 0.835109 0.385865
O O9 0.916452 0.958654 0.540821
O O10 0.874441 0.307167 0.703377
O O11 0.847106 0.071017 0.690633
O O12 0.500000 0.467542 0.250000
O O13 0.000000 0.452840 0.750000
#
# Coordination Sequence:
#
# PCOD9456870 Si02
#       6
#     8   8   8   8   8   8
#     4  10  22  42  64  94 131 178 232 282 344 425
#     4  11  25  42  67  98 134 182 239 285 346 430
#     4  10  22  40  67  95 129 178 233 290 347 428
#     4  10  22  41  65  96 131 181 233 276 352 424
#     4  11  24  40  68 103 139 177 230 305 369 419
#     4  12  25  44  67  98 140 183 228 288 352 415
#
# _framework density 23.533251
#
# number of rings (size 3 to 8) (size 9 to 14) (size 15 to 20)
#    0.000    1.333    1.667    3.000    4.667    7.333 
#    0.000    0.000    0.000    0.000    0.000    0.000 
#    0.000    0.000    0.000    0.000    0.000    0.000 
#
# Total GULP energy -267208.813619 kJ/mol
# GULP energy per Si atom -5566.850284 kJ/mol
# Density = 2.347969 g / cm^3
# Si number density = 23.533251 Si / 1000 Ang^3
#
#
#
# Elastic Constant Matrix: (Units=GPa)
#
#
# Indices 1 2 3 4 5 6 
#
# 1 71.2477 6.3220 40.1835 0.0000 0.0000 0.0000
# 2 6.3220 71.2888 21.5211 0.0000 0.0000 0.0000
# 3 40.1835 21.5211 55.9476 0.0000 0.0000 0.0000
# 4 0.0000 0.0000 0.0000 25.8562 0.0000 0.0000
# 5 0.0000 0.0000 0.0000 0.0000 25.7898 0.0000
# 6 0.0000 0.0000 0.0000 0.0000 0.0000 14.0414
#
#
#
# Elastic Compliance Matrix: (Units=1/GPa)
#
#
# Indices 1 2 3 4 5 6 
#
# 1 0.024353 0.003531 -0.018850 0.000000 0.000000 0.000000
# 2 0.003531 0.016382 -0.008838 0.000000 0.000000 0.000000
# 3 -0.018850 -0.008838 0.034812 0.000000 0.000000 0.000000
# 4 0.000000 0.000000 0.000000 0.038675 0.000000 0.000000
# 5 0.000000 0.000000 0.000000 0.000000 0.038775 0.000000
# 6 0.000000 0.000000 0.000000 0.000000 0.000000 0.071218
#
#
# Mechanical properties :
#
#
# Convention : Reuss Voigt Hill
#
# Bulk Modulus (GPa) = 36.71803 37.17081 36.94442
# Shear Modulus (GPa) = 17.75521 21.83463 19.79492
#
# Velocity S-wave (km/s) = 2.74975 3.04932 2.90340
# Velocity P-wave (km/s) = 5.07129 5.31292 5.19351
#
# Compressibility (1/GPa) = 0.02723458
#
# Stress axis : x y z
#
# Youngs Moduli (GPa) = 41.06204 61.04151 28.72583
#
# Poissons Ratio (x) = -0.21552 0.54147
# Poissons Ratio (y) = -0.14498 0.25387
# Poissons Ratio (z) = 0.77400 0.53946
#
# Static dielectric constant tensor:
#      x y z
#    x 1.945430 0.000000 0.000000 
#    y 0.000000 1.868550 0.000000 
#    z 0.000000 0.000000 2.198500 
# 
# From -- ./inp_files/12420.got.cif
#   From: 2010.05.17/outbox.cif.g08.bks.cpg/sg60_7_cif.got.tgz:12420.got - 2010.06.03 14:59:27.
