data_PCOD9456501
_publ_section_title
;
Structure prediction by ZEFSAII (Michael W. Deem and Ramdas Pophale) SiO2 
 PCOD9456501
Probable space group: P B C N
;
_chemical_formula_sum "Si O2"
_cell_formula_units_Z 56
_cell_length_a 17.815698
_cell_length_b 14.026937
_cell_length_c 9.036215
_cell_angle_alpha 90.000000
_cell_angle_beta 90.000000
_cell_angle_gamma 90.000000
_cell_volume 2258.147178
_symmetry_space_group_name_H-M "P B C N"
_symmetry_group_IT_number 60
_symmetry_cell_setting 'orthorhombic'
loop_
_space_group_symop_operation_xyz
x,y,z
1/2-x,1/2-y,1/2+z
1/2+x,1/2-y,-z
-x,y,1/2-z
-x,-y,-z
1/2+x,1/2+y,1/2-z
1/2-x,1/2+y,z
x,-y,1/2+z
loop_
_atom_site_type_symbol
_atom_site_label
_atom_site_fract_x
_atom_site_fract_y
_atom_site_fract_z
Si Si1 0.406231 0.775461 0.247355
Si Si2 0.000000 0.638164 0.250000
Si Si3 0.872618 0.653245 0.446602
Si Si4 0.273641 0.549821 0.434042
Si Si5 0.896880 0.567915 0.987091
Si Si6 0.000000 0.036474 0.750000
Si Si7 0.712556 0.628080 0.375645
Si Si8 0.070471 0.118699 0.458082
O O1 0.362962 0.831183 0.378216
O O2 0.355211 0.699726 0.157339
O O3 0.454743 0.710962 0.364249
O O4 0.428942 0.858437 0.134321
O O5 0.059569 0.696754 0.149534
O O6 0.052447 0.581432 0.367249
O O7 0.893515 0.540988 0.434326
O O8 0.792658 0.679214 0.379197
O O9 0.191535 0.586158 0.481740
O O10 0.278228 0.554344 0.258514
O O11 0.292322 0.442937 0.486576
O O12 0.340366 0.619722 0.484854
O O13 0.033537 0.095038 0.613681
O O14 0.055695 0.966472 0.840313
#
# Coordination Sequence:
#
# PCOD9456501 Si02
#       8
#     8   4   8   8   8   4   8   8
#     4  11  26  44  71 105 145 190 251 312 365 450
#     4  12  24  45  69  96 138 190 250 290 367 441
#     4  11  25  44  68 103 142 192 243 308 375 434
#     4  10  21  43  69 105 140 189 239 295 375 437
#     4  11  25  45  71 101 144 197 249 310 370 440
#     4  10  22  45  77 114 152 190 234 304 389 473
#     4  10  23  42  71 105 139 183 241 305 366 443
#     4  10  22  43  74 107 148 190 241 299 377 451
#
# _framework density 24.799092999999999
#
# number of rings (size 3 to 8) (size 9 to 14) (size 15 to 20)
#    0.000    1.429    1.429    3.000   10.000    2.286 
#    0.000    5.714    0.000    0.000    0.000    0.000 
#    0.000    0.000    0.000    0.000    0.000    0.000 
#
# Total GULP energy -312665.519141 kJ/mol
# GULP energy per Si atom -5583.312842 kJ/mol
# Density = 2.474265 g / cm^3
# Si number density = 24.799093 Si / 1000 Ang^3
#
#
#
# Elastic Constant Matrix: (Units=GPa)
#
#
# Indices 1 2 3 4 5 6 
#
# 1 71.8993 8.6355 39.4423 0.0000 0.0000 0.0000
# 2 8.6355 119.6741 46.1580 0.0000 0.0000 0.0000
# 3 39.4423 46.1580 143.2738 0.0000 0.0000 0.0000
# 4 0.0000 0.0000 0.0000 22.3646 0.0000 0.0000
# 5 0.0000 0.0000 0.0000 0.0000 38.6036 0.0000
# 6 0.0000 0.0000 0.0000 0.0000 0.0000 18.4946
#
#
#
# Elastic Compliance Matrix: (Units=1/GPa)
#
#
# Indices 1 2 3 4 5 6 
#
# 1 0.016425 0.000638 -0.004727 0.000000 0.000000 0.000000
# 2 0.000638 0.009566 -0.003258 0.000000 0.000000 0.000000
# 3 -0.004727 -0.003258 0.009331 0.000000 0.000000 0.000000
# 4 0.000000 0.000000 0.000000 0.044714 0.000000 0.000000
# 5 0.000000 0.000000 0.000000 0.000000 0.025904 0.000000
# 6 0.000000 0.000000 0.000000 0.000000 0.000000 0.054070
#
#
# Mechanical properties :
#
#
# Convention : Reuss Voigt Hill
#
# Bulk Modulus (GPa) = 48.47703 58.14654 53.31179
# Shear Modulus (GPa) = 27.53615 31.93330 29.73473
#
# Velocity S-wave (km/s) = 3.33584 3.59232 3.46645
# Velocity P-wave (km/s) = 5.86749 6.37999 6.12910
#
# Compressibility (1/GPa) = 0.02062833
#
# Stress axis : x y z
#
# Youngs Moduli (GPa) = 60.88288 104.53198 107.17501
#
# Poissons Ratio (x) = -0.06670 0.50664
# Poissons Ratio (y) = -0.03885 0.34914
# Poissons Ratio (z) = 0.28781 0.34053
#
# Static dielectric constant tensor:
#      x y z
#    x 2.236580 0.000000 0.000000 
#    y 0.000000 2.008410 0.000000 
#    z 0.000000 0.000000 2.128180 
# 
# From -- ./inp_files/7468.got.cif
#   From: 2010.05.17/outbox.cif.g08.bks.cpg/sg60_4_cif.got.tgz:7468.got - 2010.06.03 14:59:27.
