data_PCOD9456933
_publ_section_title
;
Structure prediction by ZEFSAII (Michael W. Deem and Ramdas Pophale) SiO2 
 PCOD9456933
Probable space group: P B C N
;
_chemical_formula_sum "Si O2"
_cell_formula_units_Z 28
_cell_length_a 7.604626
_cell_length_b 31.883977
_cell_length_c 5.538176
_cell_angle_alpha 90.000000
_cell_angle_beta 90.000000
_cell_angle_gamma 90.000000
_cell_volume 1342.817834
_symmetry_space_group_name_H-M "P B C N"
_symmetry_group_IT_number 60
_symmetry_cell_setting 'orthorhombic'
loop_
_space_group_symop_operation_xyz
x,y,z
1/2-x,1/2-y,1/2+z
1/2+x,1/2-y,-z
-x,y,1/2-z
-x,-y,-z
1/2+x,1/2+y,1/2-z
1/2-x,1/2+y,z
x,-y,1/2+z
loop_
_atom_site_type_symbol
_atom_site_label
_atom_site_fract_x
_atom_site_fract_y
_atom_site_fract_z
Si Si1 0.500000 0.231796 0.750000
Si Si2 0.105805 0.901414 0.508586
Si Si3 0.299307 0.982863 0.492623
Si Si4 0.843481 0.806701 0.055537
O O1 0.352703 0.202152 0.859623
O O2 0.392498 0.264800 0.588772
O O3 0.270513 0.932985 0.488712
O O4 0.154867 0.852886 0.558125
O O5 0.000000 0.914557 0.750000
O O6 0.000000 0.903729 0.250000
O O7 0.500000 0.000000 0.500000
O O8 0.220008 0.999872 0.242454
O O9 0.000000 0.808738 0.250000
#
# Coordination Sequence:
#
# PCOD9456933 Si02
#       4
#     4   8   8   8
#     4  12  22  42  68  98 132 186 230 288 350 418
#     4  11  24  42  67  99 135 176 226 285 346 410
#     4  10  22  41  64  92 129 171 217 275 335 408
#     4  11  24  41  67  99 138 177 234 285 348 417
#
# _framework density 20.851673999999999
#
# number of rings (size 3 to 8) (size 9 to 14) (size 15 to 20)
#    0.000    1.143    4.286    1.714    0.000    5.714 
#    0.000    8.571    0.000    0.000    0.000    0.000 
#    0.000    0.000    0.000    0.000    0.000    0.000 
#
# Total GULP energy -155960.491737 kJ/mol
# GULP energy per Si atom -5570.017562 kJ/mol
# Density = 2.080421 g / cm^3
# Si number density = 20.851674 Si / 1000 Ang^3
#
#
#
# Elastic Constant Matrix: (Units=GPa)
#
#
# Indices 1 2 3 4 5 6 
#
# 1 133.0934 48.4046 23.8127 0.0000 0.0000 0.0000
# 2 48.4046 137.5336 17.7707 0.0000 0.0000 0.0000
# 3 23.8127 17.7707 119.9090 0.0000 0.0000 0.0000
# 4 0.0000 0.0000 0.0000 41.2199 0.0000 0.0000
# 5 0.0000 0.0000 0.0000 0.0000 16.7143 0.0000
# 6 0.0000 0.0000 0.0000 0.0000 0.0000 47.6270
#
#
#
# Elastic Compliance Matrix: (Units=1/GPa)
#
#
# Indices 1 2 3 4 5 6 
#
# 1 0.008816 -0.002933 -0.001316 0.000000 0.000000 0.000000
# 2 -0.002933 0.008388 -0.000661 0.000000 0.000000 0.000000
# 3 -0.001316 -0.000661 0.008699 0.000000 0.000000 0.000000
# 4 0.000000 0.000000 0.000000 0.024260 0.000000 0.000000
# 5 0.000000 0.000000 0.000000 0.000000 0.059829 0.000000
# 6 0.000000 0.000000 0.000000 0.000000 0.000000 0.020996
#
#
# Mechanical properties :
#
#
# Convention : Reuss Voigt Hill
#
# Bulk Modulus (GPa) = 62.17335 63.39024 62.78179
# Shear Modulus (GPa) = 34.20705 41.14878 37.67791
#
# Velocity S-wave (km/s) = 4.05470 4.44712 4.25543
# Velocity P-wave (km/s) = 7.19739 7.53895 7.37015
#
# Compressibility (1/GPa) = 0.01608406
#
# Stress axis : x y z
#
# Youngs Moduli (GPa) = 113.43619 119.21168 114.95640
#
# Poissons Ratio (x) = 0.34959 0.15129
# Poissons Ratio (y) = 0.33266 0.07596
# Poissons Ratio (z) = 0.14929 0.07878
#
# Static dielectric constant tensor:
#      x y z
#    x 1.738250 0.000000 0.000000 
#    y 0.000000 1.723190 0.000000 
#    z 0.000000 0.000000 1.877130 
# 
# From -- ./inp_files/293.got.cif
#   From: 2010.05.17/outbox.cif.g08.bks.cpg/sg60_1_cif.got.tgz:293.got - 2010.06.03 14:59:27.
