data_PCOD9456942
_publ_section_title
;
Structure prediction by ZEFSAII (Michael W. Deem and Ramdas Pophale) SiO2 
 PCOD9456942
Probable space group: P B C N
;
_chemical_formula_sum "Si O2"
_cell_formula_units_Z 40
_cell_length_a 6.771729
_cell_length_b 9.876086
_cell_length_c 25.643706
_cell_angle_alpha 90.000000
_cell_angle_beta 90.000000
_cell_angle_gamma 90.000000
_cell_volume 1715.004334
_symmetry_space_group_name_H-M "P B C N"
_symmetry_group_IT_number 60
_symmetry_cell_setting 'orthorhombic'
loop_
_space_group_symop_operation_xyz
x,y,z
1/2-x,1/2-y,1/2+z
1/2+x,1/2-y,-z
-x,y,1/2-z
-x,-y,-z
1/2+x,1/2+y,1/2-z
1/2-x,1/2+y,z
x,-y,1/2+z
loop_
_atom_site_type_symbol
_atom_site_label
_atom_site_fract_x
_atom_site_fract_y
_atom_site_fract_z
Si Si1 0.841853 0.280201 0.557523
Si Si2 0.733629 0.471951 0.992087
Si Si3 0.309360 0.379146 0.110714
Si Si4 0.601168 0.490477 0.196775
Si Si5 0.410740 0.221814 0.840480
O O1 0.844746 0.426714 0.531455
O O2 0.134030 0.688375 0.643431
O O3 0.753138 0.179855 0.513473
O O4 0.694505 0.269620 0.606108
O O5 0.771545 0.518888 0.933244
O O6 0.451934 0.273349 0.080801
O O7 0.451301 0.458854 0.149816
O O8 0.500000 0.500000 0.000000
O O9 0.500000 0.442185 0.250000
O O10 0.800210 0.409570 0.182692
O O11 0.623390 0.652055 0.197821
#
# Coordination Sequence:
#
# PCOD9456942 Si02
#       5
#     8   8   8   8   8
#     4  10  22  43  67 103 152 188 242 293 361 438
#     4  10  22  41  65 104 149 193 243 291 354 439
#     4  10  25  42  72 107 143 192 246 298 367 435
#     4  11  28  50  74 103 143 187 249 313 376 434
#     4  11  25  49  74 107 145 184 246 306 367 456
#
# _framework density 23.323557000000001
#
# number of rings (size 3 to 8) (size 9 to 14) (size 15 to 20)
#    0.000    1.600    0.000    3.600   11.200    5.600 
#    3.600    0.000    0.000    0.000    0.000    0.000 
#    0.000    0.000    0.000    0.000    0.000    0.000 
#
# Total GULP energy -224039.443404 kJ/mol
# GULP energy per Si atom -5600.986085 kJ/mol
# Density = 2.327047 g / cm^3
# Si number density = 23.323557 Si / 1000 Ang^3
#
#
#
# Elastic Constant Matrix: (Units=GPa)
#
#
# Indices 1 2 3 4 5 6 
#
# 1 106.7919 51.9260 12.5065 0.0000 0.0000 0.0000
# 2 51.9260 115.1961 6.2098 0.0000 0.0000 0.0000
# 3 12.5065 6.2098 52.5253 0.0000 0.0000 0.0000
# 4 0.0000 0.0000 0.0000 29.6941 0.0000 0.0000
# 5 0.0000 0.0000 0.0000 0.0000 29.1644 0.0000
# 6 0.0000 0.0000 0.0000 0.0000 0.0000 34.3481
#
#
#
# Elastic Compliance Matrix: (Units=1/GPa)
#
#
# Indices 1 2 3 4 5 6 
#
# 1 0.012258 -0.005402 -0.002280 0.000000 0.000000 0.000000
# 2 -0.005402 0.011118 -0.000028 0.000000 0.000000 0.000000
# 3 -0.002280 -0.000028 0.019585 0.000000 0.000000 0.000000
# 4 0.000000 0.000000 0.000000 0.033677 0.000000 0.000000
# 5 0.000000 0.000000 0.000000 0.000000 0.034288 0.000000
# 6 0.000000 0.000000 0.000000 0.000000 0.000000 0.029114
#
#
# Mechanical properties :
#
#
# Convention : Reuss Voigt Hill
#
# Bulk Modulus (GPa) = 36.31186 46.19976 41.25581
# Shear Modulus (GPa) = 30.36936 32.23271 31.30103
#
# Velocity S-wave (km/s) = 3.61236 3.72153 3.66735
# Velocity P-wave (km/s) = 5.74469 6.19012 5.97156
#
# Compressibility (1/GPa) = 0.02753921
#
# Stress axis : x y z
#
# Youngs Moduli (GPa) = 81.58007 89.94753 51.06042
#
# Poissons Ratio (x) = 0.48594 0.11642
# Poissons Ratio (y) = 0.44074 0.00143
# Poissons Ratio (z) = 0.18600 0.00252
#
# Static dielectric constant tensor:
#      x y z
#    x 1.967960 0.000000 0.000000 
#    y 0.000000 1.901710 0.000000 
#    z 0.000000 0.000000 1.843230 
# 
# From -- ./inp_files/22789.got.cif
#   From: 2010.05.17/outbox.cif.g08.bks.cpg/sg60_12_cif.got.tgz:22789.got - 2010.06.03 14:59:27.
