data_PCOD9456116
_publ_section_title
;
Structure prediction by ZEFSAII (Michael W. Deem and Ramdas Pophale) SiO2 
 PCOD9456116
Probable space group: P B C N
;
_chemical_formula_sum "Si O2"
_cell_formula_units_Z 48
_cell_length_a 8.557962
_cell_length_b 14.710809
_cell_length_c 15.824537
_cell_angle_alpha 90.000000
_cell_angle_beta 90.000000
_cell_angle_gamma 90.000000
_cell_volume 1992.222876
_symmetry_space_group_name_H-M "P B C N"
_symmetry_group_IT_number 60
_symmetry_cell_setting 'orthorhombic'
loop_
_space_group_symop_operation_xyz
x,y,z
1/2-x,1/2-y,1/2+z
1/2+x,1/2-y,-z
-x,y,1/2-z
-x,-y,-z
1/2+x,1/2+y,1/2-z
1/2-x,1/2+y,z
x,-y,1/2+z
loop_
_atom_site_type_symbol
_atom_site_label
_atom_site_fract_x
_atom_site_fract_y
_atom_site_fract_z
Si Si1 0.330660 0.276000 0.061595
Si Si2 0.322961 0.264758 0.728567
Si Si3 0.838198 0.306810 0.602190
Si Si4 0.818035 0.930061 0.237505
Si Si5 0.843721 0.480247 0.074345
Si Si6 0.303655 0.971083 0.100361
O O1 0.221763 0.224497 0.130413
O O2 0.504119 0.247826 0.085656
O O3 0.301337 0.383267 0.078585
O O4 0.287791 0.263917 0.963081
O O5 0.500000 0.289071 0.750000
O O6 0.213354 0.307552 0.800670
O O7 0.288285 0.157986 0.745752
O O8 0.865466 0.410903 0.576743
O O9 0.756444 0.001439 0.307942
O O10 0.000000 0.911188 0.250000
O O11 0.785601 0.957655 0.142277
O O12 0.013096 0.442520 0.101237
O O13 0.796242 0.459763 0.978184
#
# Coordination Sequence:
#
# PCOD9456116 Si02
#       6
#     8   8   8   8   8   8
#     4  10  21  39  60  87 121 159 201 243 302 369
#     4  11  22  39  62  86 119 164 207 246 300 371
#     4  11  23  40  64  93 123 156 203 259 304 352
#     4  11  22  38  61  87 120 161 202 245 298 366
#     4  10  22  40  62  89 120 156 201 253 303 350
#     4   9  20  40  61  83 117 160 200 237 296 369
#
# _framework density 24.093688
#
# number of rings (size 3 to 8) (size 9 to 14) (size 15 to 20)
#    0.000    1.667    0.000    6.000    0.000    6.667 
#    0.000    3.333    0.000    0.000    0.000    0.000 
#    0.000    0.000    0.000    0.000    0.000    0.000 
#
# Total GULP energy -268429.387303 kJ/mol
# GULP energy per Si atom -5592.278902 kJ/mol
# Density = 2.403885 g / cm^3
# Si number density = 24.093688 Si / 1000 Ang^3
#
#
#
# Elastic Constant Matrix: (Units=GPa)
#
#
# Indices 1 2 3 4 5 6 
#
# 1 84.4722 12.8837 -5.3109 0.0000 0.0000 0.0000
# 2 12.8837 47.6180 5.3000 0.0000 0.0000 0.0000
# 3 -5.3109 5.3000 110.9186 0.0000 0.0000 0.0000
# 4 0.0000 0.0000 0.0000 28.3661 0.0000 0.0000
# 5 0.0000 0.0000 0.0000 0.0000 43.7634 0.0000
# 6 0.0000 0.0000 0.0000 0.0000 0.0000 24.8363
#
#
#
# Elastic Compliance Matrix: (Units=1/GPa)
#
#
# Indices 1 2 3 4 5 6 
#
# 1 0.012411 -0.003442 0.000759 0.000000 0.000000 0.000000
# 2 -0.003442 0.022068 -0.001219 0.000000 0.000000 0.000000
# 3 0.000759 -0.001219 0.009110 0.000000 0.000000 0.000000
# 4 0.000000 0.000000 0.000000 0.035253 0.000000 0.000000
# 5 0.000000 0.000000 0.000000 0.000000 0.022850 0.000000
# 6 0.000000 0.000000 0.000000 0.000000 0.000000 0.040264
#
#
# Mechanical properties :
#
#
# Convention : Reuss Voigt Hill
#
# Bulk Modulus (GPa) = 27.94635 29.86159 28.90397
# Shear Modulus (GPa) = 30.92348 34.73555 32.82952
#
# Velocity S-wave (km/s) = 3.58644 3.80107 3.69532
# Velocity P-wave (km/s) = 5.36417 5.62895 5.49815
#
# Compressibility (1/GPa) = 0.03578285
#
# Stress axis : x y z
#
# Youngs Moduli (GPa) = 80.57396 45.31534 109.76690
#
# Poissons Ratio (x) = 0.15599 -0.08328
# Poissons Ratio (y) = 0.27737 0.13384
# Poissons Ratio (z) = -0.06113 0.05525
#
# Static dielectric constant tensor:
#      x y z
#    x 1.850480 0.000000 0.000000 
#    y 0.000000 1.982090 0.000000 
#    z 0.000000 0.000000 2.049950 
# 
# From -- ./inp_files/15045.got.cif
#   From: 2010.05.17/outbox.cif.g08.bks.cpg/sg60_8_cif.got.tgz:15045.got - 2010.06.03 14:59:27.
