data_PCOD9456913
_publ_section_title
;
Structure prediction by ZEFSAII (Michael W. Deem and Ramdas Pophale) SiO2 
 PCOD9456913
Probable space group: P B C N
;
_chemical_formula_sum "Si O2"
_cell_formula_units_Z 48
_cell_length_a 8.178836
_cell_length_b 28.921665
_cell_length_c 9.442692
_cell_angle_alpha 90.000000
_cell_angle_beta 90.000000
_cell_angle_gamma 90.000000
_cell_volume 2233.626819
_symmetry_space_group_name_H-M "P B C N"
_symmetry_group_IT_number 60
_symmetry_cell_setting 'orthorhombic'
loop_
_space_group_symop_operation_xyz
x,y,z
1/2-x,1/2-y,1/2+z
1/2+x,1/2-y,-z
-x,y,1/2-z
-x,-y,-z
1/2+x,1/2+y,1/2-z
1/2-x,1/2+y,z
x,-y,1/2+z
loop_
_atom_site_type_symbol
_atom_site_label
_atom_site_fract_x
_atom_site_fract_y
_atom_site_fract_z
Si Si1 0.189394 0.487685 0.525614
Si Si2 0.145038 0.728661 0.554654
Si Si3 0.616185 0.897846 0.118478
Si Si4 0.275682 0.797189 0.353098
Si Si5 0.682752 0.553747 0.193595
Si Si6 0.881568 0.643213 0.124379
O O1 0.219943 0.440499 0.438182
O O2 0.296466 0.528205 0.456862
O O3 0.219483 0.476188 0.689141
O O4 0.000000 0.500000 0.500000
O O5 0.159456 0.776387 0.471860
O O6 0.247065 0.725334 0.699244
O O7 0.198625 0.687310 0.450113
O O8 0.958454 0.717233 0.596174
O O9 0.500000 0.910597 0.250000
O O10 0.719948 0.852493 0.158830
O O11 0.495867 0.882207 0.991554
O O12 0.500000 0.555686 0.250000
O O13 0.759225 0.604627 0.182355
O O14 0.000000 0.659352 0.250000
#
# Coordination Sequence:
#
# PCOD9456913 Si02
#       6
#     8   8   8   8   8   8
#     4  12  23  42  71  97 124 178 226 265 322 408
#     4  10  23  40  64  92 129 164 217 268 326 390
#     4  11  20  40  68  94 121 163 231 271 303 389
#     4  10  22  41  62  95 126 165 210 275 325 383
#     4  12  26  43  62  99 138 166 212 279 342 381
#     4  11  21  42  66  91 124 174 225 264 318 401
#
# _framework density 21.489713999999999
#
# number of rings (size 3 to 8) (size 9 to 14) (size 15 to 20)
#    0.000    1.000    6.667    2.000    4.667    0.000 
#    6.000    0.000    0.000    0.000    0.000    0.000 
#    0.000    0.000    0.000    0.000    0.000    0.000 
#
# Total GULP energy -268459.560883 kJ/mol
# GULP energy per Si atom -5592.907518 kJ/mol
# Density = 2.144080 g / cm^3
# Si number density = 21.489714 Si / 1000 Ang^3
#
#
#
# Elastic Constant Matrix: (Units=GPa)
#
#
# Indices 1 2 3 4 5 6 
#
# 1 41.2287 4.9102 6.6654 0.0000 0.0000 0.0000
# 2 4.9102 61.7277 5.5686 0.0000 0.0000 0.0000
# 3 6.6654 5.5686 92.9786 0.0000 0.0000 0.0000
# 4 0.0000 0.0000 0.0000 39.2980 0.0000 0.0000
# 5 0.0000 0.0000 0.0000 0.0000 25.6073 0.0000
# 6 0.0000 0.0000 0.0000 0.0000 0.0000 20.8542
#
#
#
# Elastic Compliance Matrix: (Units=1/GPa)
#
#
# Indices 1 2 3 4 5 6 
#
# 1 0.024741 -0.001818 -0.001665 0.000000 0.000000 0.000000
# 2 -0.001818 0.016422 -0.000853 0.000000 0.000000 0.000000
# 3 -0.001665 -0.000853 0.010926 0.000000 0.000000 0.000000
# 4 0.000000 0.000000 0.000000 0.025447 0.000000 0.000000
# 5 0.000000 0.000000 0.000000 0.000000 0.039051 0.000000
# 6 0.000000 0.000000 0.000000 0.000000 0.000000 0.047952
#
#
# Mechanical properties :
#
#
# Convention : Reuss Voigt Hill
#
# Bulk Modulus (GPa) = 23.03276 25.58038 24.30657
# Shear Modulus (GPa) = 26.64089 29.07130 27.85610
#
# Velocity S-wave (km/s) = 3.52476 3.68203 3.60426
# Velocity P-wave (km/s) = 5.22557 5.47776 5.35315
#
# Compressibility (1/GPa) = 0.04341643
#
# Stress axis : x y z
#
# Youngs Moduli (GPa) = 40.41938 60.89482 91.52817
#
# Poissons Ratio (x) = 0.11070 0.15237
# Poissons Ratio (y) = 0.07348 0.07809
# Poissons Ratio (z) = 0.06729 0.05196
#
# Static dielectric constant tensor:
#      x y z
#    x 1.775300 0.000000 0.000000 
#    y 0.000000 1.796430 0.000000 
#    z 0.000000 0.000000 1.823300 
# 
# From -- ./inp_files/4221.got.cif
#   From: 2010.05.17/outbox.cif.g08.bks.cpg/sg60_3_cif.got.tgz:4221.got - 2010.06.03 14:59:27.
