data_PCOD9456390
_publ_section_title
;
Structure prediction by ZEFSAII (Michael W. Deem and Ramdas Pophale) SiO2 
 PCOD9456390
Probable space group: P B C N
;
_chemical_formula_sum "Si O2"
_cell_formula_units_Z 48
_cell_length_a 12.093357
_cell_length_b 7.249432
_cell_length_c 23.014805
_cell_angle_alpha 90.000000
_cell_angle_beta 90.000000
_cell_angle_gamma 90.000000
_cell_volume 2017.707246
_symmetry_space_group_name_H-M "P B C N"
_symmetry_group_IT_number 60
_symmetry_cell_setting 'orthorhombic'
loop_
_space_group_symop_operation_xyz
x,y,z
1/2-x,1/2-y,1/2+z
1/2+x,1/2-y,-z
-x,y,1/2-z
-x,-y,-z
1/2+x,1/2+y,1/2-z
1/2-x,1/2+y,z
x,-y,1/2+z
loop_
_atom_site_type_symbol
_atom_site_label
_atom_site_fract_x
_atom_site_fract_y
_atom_site_fract_z
Si Si1 0.993988 0.941005 0.902456
Si Si2 0.895181 0.420813 0.967579
Si Si3 0.056432 0.687569 0.157304
Si Si4 0.093578 0.199894 0.293546
Si Si5 0.347759 0.500533 0.500307
Si Si6 0.345995 0.271172 0.277208
O O1 0.936607 0.100174 0.864764
O O2 0.905119 0.875346 0.950055
O O3 0.043967 0.795213 0.858237
O O4 0.096962 0.031778 0.937932
O O5 0.906280 0.431893 0.897746
O O6 0.782147 0.498174 0.993969
O O7 0.887399 0.204536 0.982911
O O8 0.000000 0.500000 0.000000
O O9 0.131291 0.678595 0.214662
O O10 0.928350 0.667567 0.177691
O O11 0.216755 0.278203 0.290875
O O12 0.000000 0.274985 0.250000
O O13 0.111955 0.982756 0.277656
#
# Coordination Sequence:
#
# PCOD9456390 Si02
#       6
#     8   8   8   8   8   8
#     4   9  20  41  66  87 125 176 207 259 324 376
#     4  11  26  41  65  98 128 171 218 267 324 388
#     4   9  20  43  65  88 132 167 208 266 320 377
#     4  11  22  41  65  95 125 168 209 265 321 376
#     4  10  24  41  66  93 131 170 217 265 324 385
#     4  10  21  41  67  91 127 169 211 264 320 378
#
# _framework density 23.789377999999999
#
# number of rings (size 3 to 8) (size 9 to 14) (size 15 to 20)
#    0.000    2.000    3.333    0.000   11.667    1.333 
#    3.000    0.000    0.000    0.000    0.000    0.000 
#    0.000    0.000    0.000    0.000    0.000    0.000 
#
# Total GULP energy -268427.340037 kJ/mol
# GULP energy per Si atom -5592.236251 kJ/mol
# Density = 2.373523 g / cm^3
# Si number density = 23.789378 Si / 1000 Ang^3
#
#
#
# Elastic Constant Matrix: (Units=GPa)
#
#
# Indices 1 2 3 4 5 6 
#
# 1 138.4779 2.4001 -0.8396 0.0000 0.0000 0.0000
# 2 2.4001 44.1276 -7.6753 0.0000 0.0000 0.0000
# 3 -0.8396 -7.6753 78.3288 0.0000 0.0000 0.0000
# 4 0.0000 0.0000 0.0000 19.3481 0.0000 0.0000
# 5 0.0000 0.0000 0.0000 0.0000 29.8407 0.0000
# 6 0.0000 0.0000 0.0000 0.0000 0.0000 39.9991
#
#
#
# Elastic Compliance Matrix: (Units=1/GPa)
#
#
# Indices 1 2 3 4 5 6 
#
# 1 0.007228 -0.000386 0.000040 0.000000 0.000000 0.000000
# 2 -0.000386 0.023075 0.002257 0.000000 0.000000 0.000000
# 3 0.000040 0.002257 0.012988 0.000000 0.000000 0.000000
# 4 0.000000 0.000000 0.000000 0.051685 0.000000 0.000000
# 5 0.000000 0.000000 0.000000 0.000000 0.033511 0.000000
# 6 0.000000 0.000000 0.000000 0.000000 0.000000 0.025001
#
#
# Mechanical properties :
#
#
# Convention : Reuss Voigt Hill
#
# Bulk Modulus (GPa) = 21.22586 27.63386 24.42986
# Shear Modulus (GPa) = 30.23493 35.64086 32.93789
#
# Velocity S-wave (km/s) = 3.56890 3.87484 3.72501
# Velocity P-wave (km/s) = 5.09161 5.62676 5.36586
#
# Compressibility (1/GPa) = 0.04711235
#
# Stress axis : x y z
#
# Youngs Moduli (GPa) = 138.34503 43.33673 76.99250
#
# Poissons Ratio (x) = 0.01674 -0.00305
# Poissons Ratio (y) = 0.05344 -0.17377
# Poissons Ratio (z) = -0.00548 -0.09781
#
# Static dielectric constant tensor:
#      x y z
#    x 1.872970 0.000000 0.000000 
#    y 0.000000 2.001400 0.000000 
#    z 0.000000 0.000000 1.926450 
# 
# From -- ./inp_files/24207.got.cif
#   From: 2010.05.17/outbox.cif.g08.bks.cpg/sg60_13_cif.got.tgz:24207.got - 2010.06.03 14:59:27.
