data_PCOD9456872
_publ_section_title
;
Structure prediction by ZEFSAII (Michael W. Deem and Ramdas Pophale) SiO2 
 PCOD9456872
Probable space group: P B C N
;
_chemical_formula_sum "Si O2"
_cell_formula_units_Z 60
_cell_length_a 15.754028
_cell_length_b 12.559043
_cell_length_c 14.706237
_cell_angle_alpha 90.000000
_cell_angle_beta 90.000000
_cell_angle_gamma 90.000000
_cell_volume 2909.710096
_symmetry_space_group_name_H-M "P B C N"
_symmetry_group_IT_number 60
_symmetry_cell_setting 'orthorhombic'
loop_
_space_group_symop_operation_xyz
x,y,z
1/2-x,1/2-y,1/2+z
1/2+x,1/2-y,-z
-x,y,1/2-z
-x,-y,-z
1/2+x,1/2+y,1/2-z
1/2-x,1/2+y,z
x,-y,1/2+z
loop_
_atom_site_type_symbol
_atom_site_label
_atom_site_fract_x
_atom_site_fract_y
_atom_site_fract_z
Si Si1 0.918387 0.260532 0.954742
Si Si2 0.443083 0.854333 0.842240
Si Si3 0.889971 0.415400 0.122738
Si Si4 0.309780 0.758673 0.722102
Si Si5 0.899337 0.013885 0.993669
Si Si6 0.857853 0.129925 0.322401
Si Si7 0.000000 0.733406 0.750000
Si Si8 0.194927 0.958651 0.323414
O O1 0.864779 0.286098 0.865408
O O2 0.015030 0.275797 0.917032
O O3 0.890988 0.142013 0.984532
O O4 0.897296 0.346491 0.031483
O O5 0.500000 0.852089 0.750000
O O6 0.348723 0.824687 0.807067
O O7 0.439940 0.973093 0.881730
O O8 0.934024 0.341319 0.198101
O O9 0.793663 0.443154 0.150528
O O10 0.215567 0.781906 0.686814
O O11 0.324459 0.639797 0.756919
O O12 0.860695 0.948868 0.908333
O O13 0.856264 0.966437 0.083246
O O14 0.000000 0.000000 0.000000
O O15 0.947591 0.189473 0.316405
O O16 0.835366 0.059972 0.234069
#
# Coordination Sequence:
#
# PCOD9456872 Si02
#       8
#     8   8   8   8   8   8   4   8
#     4  11  24  43  68 104 140 182 239 297 362 444
#     4  10  22  40  67  98 141 187 236 295 364 440
#     4  12  23  44  68 105 141 190 245 296 369 441
#     4  11  23  44  70 100 139 189 238 299 369 431
#     4  12  26  45  69 105 140 187 240 298 376 443
#     4  12  24  46  69 102 140 188 240 300 368 445
#     4  12  26  42  72 100 146 190 234 308 370 438
#     4  12  25  45  72 101 143 186 245 305 360 450
#
# _framework density 20.620609999999999
#
# number of rings (size 3 to 8) (size 9 to 14) (size 15 to 20)
#    0.000    0.533    4.667    4.400    0.000    0.000 
#    0.000    1.333    0.000    0.000    0.000    0.000 
#    0.000    0.000    0.000    0.000    0.000    0.000 
#
# Total GULP energy -334954.838950 kJ/mol
# GULP energy per Si atom -5582.580649 kJ/mol
# Density = 2.057368 g / cm^3
# Si number density = 20.620610 Si / 1000 Ang^3
#
#
#
# Elastic Constant Matrix: (Units=GPa)
#
#
# Indices 1 2 3 4 5 6 
#
# 1 68.3759 -13.0528 25.7207 0.0000 0.0000 0.0000
# 2 -13.0528 52.9150 -2.6764 0.0000 0.0000 0.0000
# 3 25.7207 -2.6764 78.7271 0.0000 0.0000 0.0000
# 4 0.0000 0.0000 0.0000 64.0660 0.0000 0.0000
# 5 0.0000 0.0000 0.0000 0.0000 21.7138 0.0000
# 6 0.0000 0.0000 0.0000 0.0000 0.0000 11.3600
#
#
#
# Elastic Compliance Matrix: (Units=1/GPa)
#
#
# Indices 1 2 3 4 5 6 
#
# 1 0.017493 0.004033 -0.005578 0.000000 0.000000 0.000000
# 2 0.004033 0.019861 -0.000642 0.000000 0.000000 0.000000
# 3 -0.005578 -0.000642 0.014503 0.000000 0.000000 0.000000
# 4 0.000000 0.000000 0.000000 0.015609 0.000000 0.000000
# 5 0.000000 0.000000 0.000000 0.000000 0.046054 0.000000
# 6 0.000000 0.000000 0.000000 0.000000 0.000000 0.088028
#
#
# Mechanical properties :
#
#
# Convention : Reuss Voigt Hill
#
# Bulk Modulus (GPa) = 21.06084 24.44454 22.75269
# Shear Modulus (GPa) = 22.54800 32.09639 27.32220
#
# Velocity S-wave (km/s) = 3.31035 3.94956 3.64400
# Velocity P-wave (km/s) = 4.98467 5.71654 5.36310
#
# Compressibility (1/GPa) = 0.04748148
#
# Stress axis : x y z
#
# Youngs Moduli (GPa) = 57.16511 50.35101 68.95291
#
# Poissons Ratio (x) = -0.20307 0.38462
# Poissons Ratio (y) = -0.23055 0.04430
# Poissons Ratio (z) = 0.31887 0.03235
#
# Static dielectric constant tensor:
#      x y z
#    x 1.771730 0.000000 0.000000 
#    y 0.000000 1.752060 0.000000 
#    z 0.000000 0.000000 1.708590 
# 
# From -- ./inp_files/17451.got.cif
#   From: 2010.05.17/outbox.cif.g08.bks.cpg/sg60_9_cif.got.tgz:17451.got - 2010.06.03 14:59:27.
