data_PCOD9456544
_publ_section_title
;
Structure prediction by ZEFSAII (Michael W. Deem and Ramdas Pophale) SiO2 
 PCOD9456544
Probable space group: P B C N
;
_chemical_formula_sum "Si O2"
_cell_formula_units_Z 40
_cell_length_a 11.109039
_cell_length_b 13.107859
_cell_length_c 14.050774
_cell_angle_alpha 90.000000
_cell_angle_beta 90.000000
_cell_angle_gamma 90.000000
_cell_volume 2046.013528
_symmetry_space_group_name_H-M "P B C N"
_symmetry_group_IT_number 60
_symmetry_cell_setting 'orthorhombic'
loop_
_space_group_symop_operation_xyz
x,y,z
1/2-x,1/2-y,1/2+z
1/2+x,1/2-y,-z
-x,y,1/2-z
-x,-y,-z
1/2+x,1/2+y,1/2-z
1/2-x,1/2+y,z
x,-y,1/2+z
loop_
_atom_site_type_symbol
_atom_site_label
_atom_site_fract_x
_atom_site_fract_y
_atom_site_fract_z
Si Si1 0.814031 0.421293 0.130791
Si Si2 0.034850 0.709224 0.552846
Si Si3 0.111838 0.933980 0.532027
Si Si4 0.295498 0.055426 0.651248
Si Si5 0.010938 0.390137 0.855045
O O1 0.778852 0.408080 0.240735
O O2 0.875360 0.534177 0.128955
O O3 0.919444 0.340421 0.105417
O O4 0.707276 0.415169 0.054243
O O5 0.062127 0.826645 0.569552
O O6 0.151662 0.646520 0.587721
O O7 0.011125 0.687888 0.441382
O O8 0.179765 0.000833 0.610368
O O9 0.000000 0.000000 0.500000
O O10 0.399202 0.968674 0.643145
O O11 0.000000 0.342939 0.750000
#
# Coordination Sequence:
#
# PCOD9456544 Si02
#       5
#     8   8   8   8   8
#     4  10  21  44  68  97 128 175 226 272 324 403
#     4  11  21  42  72  94 131 178 225 265 342 398
#     4  12  27  42  65 100 141 168 214 285 335 390
#     4  10  21  44  69  94 130 176 224 271 326 404
#     4   9  17  37  74  95 119 174 228 262 320 401
#
# _framework density 19.550214
#
# number of rings (size 3 to 8) (size 9 to 14) (size 15 to 20)
#    0.000    1.600    4.000    3.000    2.800    0.800 
#   18.000    0.000    0.000    0.000    0.000    0.000 
#    0.000    0.000    0.000    0.000    0.000    0.000 
#
# Total GULP energy -223337.176718 kJ/mol
# GULP energy per Si atom -5583.429418 kJ/mol
# Density = 1.950572 g / cm^3
# Si number density = 19.550214 Si / 1000 Ang^3
#
#
#
# Elastic Constant Matrix: (Units=GPa)
#
#
# Indices 1 2 3 4 5 6 
#
# 1 75.5025 46.1639 48.2970 0.0000 0.0000 0.0000
# 2 46.1639 104.8356 54.0865 0.0000 0.0000 0.0000
# 3 48.2970 54.0865 136.8440 0.0000 0.0000 0.0000
# 4 0.0000 0.0000 0.0000 6.3496 0.0000 0.0000
# 5 0.0000 0.0000 0.0000 0.0000 13.4326 0.0000
# 6 0.0000 0.0000 0.0000 0.0000 0.0000 19.3758
#
#
#
# Elastic Compliance Matrix: (Units=1/GPa)
#
#
# Indices 1 2 3 4 5 6 
#
# 1 0.020131 -0.006531 -0.004524 0.000000 0.000000 0.000000
# 2 -0.006531 0.014101 -0.003268 0.000000 0.000000 0.000000
# 3 -0.004524 -0.003268 0.010196 0.000000 0.000000 0.000000
# 4 0.000000 0.000000 0.000000 0.157490 0.000000 0.000000
# 5 0.000000 0.000000 0.000000 0.000000 0.074446 0.000000
# 6 0.000000 0.000000 0.000000 0.000000 0.000000 0.051611
#
#
# Mechanical properties :
#
#
# Convention : Reuss Voigt Hill
#
# Bulk Modulus (GPa) = 63.36217 68.25299 65.80758
# Shear Modulus (GPa) = 13.81669 19.07392 16.44530
#
# Velocity S-wave (km/s) = 2.66132 3.12691 2.90346
# Velocity P-wave (km/s) = 6.47486 6.92995 6.70627
#
# Compressibility (1/GPa) = 0.01578229
#
# Stress axis : x y z
#
# Youngs Moduli (GPa) = 49.67342 70.91827 98.07829
#
# Poissons Ratio (x) = 0.46316 0.44369
# Poissons Ratio (y) = 0.32441 0.32054
# Poissons Ratio (z) = 0.22471 0.23178
#
# Static dielectric constant tensor:
#      x y z
#    x 1.675180 0.000000 0.000000 
#    y 0.000000 1.706730 0.000000 
#    z 0.000000 0.000000 1.712090 
# 
# From -- ./inp_files/15829.got.cif
#   From: 2010.05.17/outbox.cif.g08.bks.cpg/sg60_8_cif.got.tgz:15829.got - 2010.06.03 14:59:27.
