data_PCOD9456487
_publ_section_title
;
Structure prediction by ZEFSAII (Michael W. Deem and Ramdas Pophale) SiO2 
 PCOD9456487
Probable space group: P B C N
;
_chemical_formula_sum "Si O2"
_cell_formula_units_Z 52
_cell_length_a 13.177555
_cell_length_b 8.032886
_cell_length_c 22.304898
_cell_angle_alpha 90.000000
_cell_angle_beta 90.000000
_cell_angle_gamma 90.000000
_cell_volume 2361.058147
_symmetry_space_group_name_H-M "P B C N"
_symmetry_group_IT_number 60
_symmetry_cell_setting 'orthorhombic'
loop_
_space_group_symop_operation_xyz
x,y,z
1/2-x,1/2-y,1/2+z
1/2+x,1/2-y,-z
-x,y,1/2-z
-x,-y,-z
1/2+x,1/2+y,1/2-z
1/2-x,1/2+y,z
x,-y,1/2+z
loop_
_atom_site_type_symbol
_atom_site_label
_atom_site_fract_x
_atom_site_fract_y
_atom_site_fract_z
Si Si1 0.448480 0.737232 0.904703
Si Si2 0.005524 0.892814 0.645553
Si Si3 0.500000 0.850041 0.250000
Si Si4 0.913191 0.221829 0.023481
Si Si5 0.395113 0.944037 0.656881
Si Si6 0.223574 0.891981 0.480771
Si Si7 0.289804 0.269588 0.616980
O O1 0.465072 0.579067 0.860689
O O2 0.496108 0.894036 0.870538
O O3 0.336059 0.719786 0.931603
O O4 0.519997 0.718603 0.963765
O O5 0.127128 0.883836 0.650453
O O6 0.963053 0.774879 0.697686
O O7 0.980304 0.809384 0.581547
O O8 0.583679 0.970895 0.279415
O O9 0.843896 0.385026 0.030453
O O10 0.834510 0.067232 0.020283
O O11 0.318559 0.790024 0.649165
O O12 0.335549 0.085470 0.620089
O O13 0.214984 0.821759 0.547951
#
# Coordination Sequence:
#
# PCOD9456487 Si02
#       7
#     8   8   4   8   8   8   8
#     4  11  21  38  64  96 130 167 210 278 338 394
#     4  10  21  43  64  86 128 171 217 269 319 384
#     4  10  26  46  60  88 126 178 232 270 312 378
#     4  11  21  36  59  96 132 161 209 268 336 396
#     4  11  24  39  65  96 131 169 226 265 320 393
#     4  11  21  35  59 100 134 163 202 257 347 403
#     4  11  19  36  62  95 125 167 214 262 317 398
#
# _framework density 22.024023
#
# number of rings (size 3 to 8) (size 9 to 14) (size 15 to 20)
#    0.000    1.231    4.615    2.769    0.000    3.692 
#    0.000    9.231    0.000    0.000    0.000    0.000 
#    0.000    0.000    0.000    0.000    0.000    0.000 
#
# Total GULP energy -290439.876868 kJ/mol
# GULP energy per Si atom -5585.382247 kJ/mol
# Density = 2.197389 g / cm^3
# Si number density = 22.024023 Si / 1000 Ang^3
#
#
#
# Elastic Constant Matrix: (Units=GPa)
#
#
# Indices 1 2 3 4 5 6 
#
# 1 49.0759 0.8519 19.6741 0.0000 0.0000 0.0000
# 2 0.8519 73.2449 31.4267 0.0000 0.0000 0.0000
# 3 19.6741 31.4267 90.9157 0.0000 0.0000 0.0000
# 4 0.0000 0.0000 0.0000 19.6182 0.0000 0.0000
# 5 0.0000 0.0000 0.0000 0.0000 20.4558 0.0000
# 6 0.0000 0.0000 0.0000 0.0000 0.0000 30.5606
#
#
#
# Elastic Compliance Matrix: (Units=1/GPa)
#
#
# Indices 1 2 3 4 5 6 
#
# 1 0.022598 0.002155 -0.005635 0.000000 0.000000 0.000000
# 2 0.002155 0.016236 -0.006079 0.000000 0.000000 0.000000
# 3 -0.005635 -0.006079 0.014320 0.000000 0.000000 0.000000
# 4 0.000000 0.000000 0.000000 0.050973 0.000000 0.000000
# 5 0.000000 0.000000 0.000000 0.000000 0.048886 0.000000
# 6 0.000000 0.000000 0.000000 0.000000 0.000000 0.032722
#
#
# Mechanical properties :
#
#
# Convention : Reuss Voigt Hill
#
# Bulk Modulus (GPa) = 29.38026 35.23801 32.30913
# Shear Modulus (GPa) = 23.12699 24.87918 24.00309
#
# Velocity S-wave (km/s) = 3.24401 3.36466 3.30488
# Velocity P-wave (km/s) = 5.23455 5.57934 5.40970
#
# Compressibility (1/GPa) = 0.03403646
#
# Stress axis : x y z
#
# Youngs Moduli (GPa) = 44.25118 61.59210 69.83328
#
# Poissons Ratio (x) = -0.13273 0.39352
# Poissons Ratio (y) = -0.09536 0.42449
# Poissons Ratio (z) = 0.24936 0.37439
#
# Static dielectric constant tensor:
#      x y z
#    x 1.859710 0.000000 0.000000 
#    y 0.000000 1.922950 0.000000 
#    z 0.000000 0.000000 1.767350 
# 
# From -- ./inp_files/22859.got.cif
#   From: 2010.05.17/outbox.cif.g08.bks.cpg/sg60_12_cif.got.tgz:22859.got - 2010.06.03 14:59:27.
