data_PCOD9456264
_publ_section_title
;
Structure prediction by ZEFSAII (Michael W. Deem and Ramdas Pophale) SiO2 
 PCOD9456264
Probable space group: P B C N
;
_chemical_formula_sum "Si O2"
_cell_formula_units_Z 40
_cell_length_a 10.683396
_cell_length_b 31.197524
_cell_length_c 5.131141
_cell_angle_alpha 90.000000
_cell_angle_beta 90.000000
_cell_angle_gamma 90.000000
_cell_volume 1710.186221
_symmetry_space_group_name_H-M "P B C N"
_symmetry_group_IT_number 60
_symmetry_cell_setting 'orthorhombic'
loop_
_space_group_symop_operation_xyz
x,y,z
1/2-x,1/2-y,1/2+z
1/2+x,1/2-y,-z
-x,y,1/2-z
-x,-y,-z
1/2+x,1/2+y,1/2-z
1/2-x,1/2+y,z
x,-y,1/2+z
loop_
_atom_site_type_symbol
_atom_site_label
_atom_site_fract_x
_atom_site_fract_y
_atom_site_fract_z
Si Si1 0.755890 0.651619 0.230535
Si Si2 0.500000 0.206810 0.250000
Si Si3 0.500000 0.968535 0.250000
Si Si4 0.760336 0.404753 0.235696
Si Si5 0.669995 0.262144 0.586182
Si Si6 0.140283 0.982678 0.465771
O O1 0.766621 0.632546 0.519591
O O2 0.886035 0.676153 0.174955
O O3 0.740007 0.614681 0.019088
O O4 0.655032 0.689141 0.182669
O O5 0.549383 0.237116 0.481555
O O6 0.381213 0.936004 0.265581
O O7 0.500000 0.000000 0.500000
O O8 0.648323 0.435481 0.143599
O O9 0.742498 0.239171 0.824561
O O10 0.202071 0.012785 0.247112
O O11 0.000000 0.000000 0.500000
#
# Coordination Sequence:
#
# PCOD9456264 Si02
#       6
#     8   4   4   8   8   8
#     4  11  23  39  63  96 125 160 208 266 318 367
#     4  10  22  43  66  88 130 174 206 256 330 389
#     4  12  24  39  62  92 124 166 208 252 316 391
#     4  12  23  40  62  93 126 156 207 270 317 370
#     4  10  22  40  64  92 123 169 217 255 314 402
#     4  10  21  40  64  86 117 168 209 245 310 387
#
# _framework density 23.389265000000002
#
# number of rings (size 3 to 8) (size 9 to 14) (size 15 to 20)
#    0.000    1.200    0.000    7.200    0.000    6.400 
#    0.000    6.000    0.000    7.200    0.000    0.000 
#    0.000    0.000    0.000    0.000    0.000    0.000 
#
# Total GULP energy -223659.380472 kJ/mol
# GULP energy per Si atom -5591.484512 kJ/mol
# Density = 2.333603 g / cm^3
# Si number density = 23.389265 Si / 1000 Ang^3
#
#
#
# Elastic Constant Matrix: (Units=GPa)
#
#
# Indices 1 2 3 4 5 6 
#
# 1 74.9444 18.5375 -1.7605 0.0000 0.0000 0.0000
# 2 18.5375 109.0188 14.1275 0.0000 0.0000 0.0000
# 3 -1.7605 14.1275 143.3106 0.0000 0.0000 0.0000
# 4 0.0000 0.0000 0.0000 51.3112 0.0000 0.0000
# 5 0.0000 0.0000 0.0000 0.0000 24.3992 0.0000
# 6 0.0000 0.0000 0.0000 0.0000 0.0000 57.8373
#
#
#
# Elastic Compliance Matrix: (Units=1/GPa)
#
#
# Indices 1 2 3 4 5 6 
#
# 1 0.013953 -0.002426 0.000411 0.000000 0.000000 0.000000
# 2 -0.002426 0.009713 -0.000987 0.000000 0.000000 0.000000
# 3 0.000411 -0.000987 0.007080 0.000000 0.000000 0.000000
# 4 0.000000 0.000000 0.000000 0.019489 0.000000 0.000000
# 5 0.000000 0.000000 0.000000 0.000000 0.040985 0.000000
# 6 0.000000 0.000000 0.000000 0.000000 0.000000 0.017290
#
#
# Mechanical properties :
#
#
# Convention : Reuss Voigt Hill
#
# Bulk Modulus (GPa) = 40.41842 43.23142 41.82492
# Shear Modulus (GPa) = 40.72920 46.46749 43.59835
#
# Velocity S-wave (km/s) = 4.17749 4.46208 4.32213
# Velocity P-wave (km/s) = 6.37078 6.71345 6.54436
#
# Compressibility (1/GPa) = 0.02474120
#
# Stress axis : x y z
#
# Youngs Moduli (GPa) = 71.66985 102.95324 141.23850
#
# Poissons Ratio (x) = 0.24974 -0.05798
# Poissons Ratio (y) = 0.17385 0.13945
# Poissons Ratio (z) = -0.02942 0.10165
#
# Static dielectric constant tensor:
#      x y z
#    x 2.105360 0.000000 0.000000 
#    y 0.000000 1.884000 0.000000 
#    z 0.000000 0.000000 1.993130 
# 
# From -- ./inp_files/864.got.cif
#   From: 2010.05.17/outbox.cif.g08.bks.cpg/sg60_1_cif.got.tgz:864.got - 2010.06.03 14:59:27.
