data_PCOD9456577
_publ_section_title
;
Structure prediction by ZEFSAII (Michael W. Deem and Ramdas Pophale) SiO2 
 PCOD9456577
Probable space group: P B C N
;
_chemical_formula_sum "Si O2"
_cell_formula_units_Z 52
_cell_length_a 16.241416
_cell_length_b 19.833739
_cell_length_c 7.978095
_cell_angle_alpha 90.000000
_cell_angle_beta 90.000000
_cell_angle_gamma 90.000000
_cell_volume 2569.967834
_symmetry_space_group_name_H-M "P B C N"
_symmetry_group_IT_number 60
_symmetry_cell_setting 'orthorhombic'
loop_
_space_group_symop_operation_xyz
x,y,z
1/2-x,1/2-y,1/2+z
1/2+x,1/2-y,-z
-x,y,1/2-z
-x,-y,-z
1/2+x,1/2+y,1/2-z
1/2-x,1/2+y,z
x,-y,1/2+z
loop_
_atom_site_type_symbol
_atom_site_label
_atom_site_fract_x
_atom_site_fract_y
_atom_site_fract_z
Si Si1 0.000000 0.301901 0.250000
Si Si2 0.818365 0.657922 0.722100
Si Si3 0.217976 0.780211 0.552137
Si Si4 0.960022 0.211257 0.572726
Si Si5 0.786443 0.049987 0.873940
Si Si6 0.811039 0.090413 0.231870
Si Si7 0.957079 0.071999 0.999420
O O1 0.916059 0.344329 0.243120
O O2 0.992831 0.255247 0.415784
O O3 0.796540 0.695667 0.550021
O O4 0.780925 0.707422 0.864390
O O5 0.770958 0.587754 0.742393
O O6 0.138574 0.782265 0.430506
O O7 0.202449 0.836211 0.694843
O O8 0.984342 0.134128 0.535823
O O9 0.000000 0.231093 0.750000
O O10 0.762378 0.074164 0.060289
O O11 0.882503 0.071929 0.862631
O O12 0.788099 0.969606 0.857269
O O13 0.905632 0.082571 0.171222
O O14 0.000000 0.000000 0.000000
#
# Coordination Sequence:
#
# PCOD9456577 Si02
#       7
#     4   8   8   8   8   8   8
#     4  10  26  46  62  86 128 164 222 280 322 382
#     4  11  23  41  63  91 122 169 214 273 328 375
#     4  11  23  38  64  87 125 164 213 263 321 387
#     4  11  23  38  60  91 126 169 212 255 316 389
#     4  10  22  36  60  88 128 166 209 255 314 389
#     4  10  22  39  58  93 127 171 210 254 314 393
#     4  10  22  32  56  91 138 168 203 244 311 392
#
# _framework density 20.233716999999999
#
# number of rings (size 3 to 8) (size 9 to 14) (size 15 to 20)
#    0.923    0.615    0.000    5.538    8.615    1.231 
#    0.000    0.000    0.000    3.692    0.000    0.000 
#    0.000    0.000    0.000    0.000    0.000    0.000 
#
# Total GULP energy -290490.727938 kJ/mol
# GULP energy per Si atom -5586.360153 kJ/mol
# Density = 2.018766 g / cm^3
# Si number density = 20.233717 Si / 1000 Ang^3
#
#
#
# Elastic Constant Matrix: (Units=GPa)
#
#
# Indices 1 2 3 4 5 6 
#
# 1 73.0422 17.9144 19.2968 0.0000 0.0000 0.0000
# 2 17.9144 62.8108 6.9722 0.0000 0.0000 0.0000
# 3 19.2968 6.9722 82.9195 0.0000 0.0000 0.0000
# 4 0.0000 0.0000 0.0000 28.0209 0.0000 0.0000
# 5 0.0000 0.0000 0.0000 0.0000 31.2804 0.0000
# 6 0.0000 0.0000 0.0000 0.0000 0.0000 18.2838
#
#
#
# Elastic Compliance Matrix: (Units=1/GPa)
#
#
# Indices 1 2 3 4 5 6 
#
# 1 0.015556 -0.004073 -0.003278 0.000000 0.000000 0.000000
# 2 -0.004073 0.017137 -0.000493 0.000000 0.000000 0.000000
# 3 -0.003278 -0.000493 0.012864 0.000000 0.000000 0.000000
# 4 0.000000 0.000000 0.000000 0.035688 0.000000 0.000000
# 5 0.000000 0.000000 0.000000 0.000000 0.031969 0.000000
# 6 0.000000 0.000000 0.000000 0.000000 0.000000 0.054693
#
#
# Mechanical properties :
#
#
# Convention : Reuss Voigt Hill
#
# Bulk Modulus (GPa) = 33.47870 34.12659 33.80265
# Shear Modulus (GPa) = 25.83311 27.15631 26.49471
#
# Velocity S-wave (km/s) = 3.57702 3.66749 3.62254
# Velocity P-wave (km/s) = 5.80017 5.90227 5.85144
#
# Compressibility (1/GPa) = 0.02986974
#
# Stress axis : x y z
#
# Youngs Moduli (GPa) = 64.28584 58.35262 77.73571
#
# Poissons Ratio (x) = 0.23766 0.25479
# Poissons Ratio (y) = 0.26182 0.03833
# Poissons Ratio (z) = 0.21070 0.02878
#
# Static dielectric constant tensor:
#      x y z
#    x 1.724630 0.000000 0.000000 
#    y 0.000000 1.669190 0.000000 
#    z 0.000000 0.000000 1.798020 
# 
# From -- ./inp_files/6097.got.cif
#   From: 2010.05.17/outbox.cif.g08.bks.cpg/sg60_4_cif.got.tgz:6097.got - 2010.06.03 14:59:27.
