data_PCOD9456549
_publ_section_title
;
Structure prediction by ZEFSAII (Michael W. Deem and Ramdas Pophale) SiO2 
 PCOD9456549
Probable space group: P B C N
;
_chemical_formula_sum "Si O2"
_cell_formula_units_Z 40
_cell_length_a 14.342983
_cell_length_b 9.124352
_cell_length_c 13.271877
_cell_angle_alpha 90.000000
_cell_angle_beta 90.000000
_cell_angle_gamma 90.000000
_cell_volume 1736.896192
_symmetry_space_group_name_H-M "P B C N"
_symmetry_group_IT_number 60
_symmetry_cell_setting 'orthorhombic'
loop_
_space_group_symop_operation_xyz
x,y,z
1/2-x,1/2-y,1/2+z
1/2+x,1/2-y,-z
-x,y,1/2-z
-x,-y,-z
1/2+x,1/2+y,1/2-z
1/2-x,1/2+y,z
x,-y,1/2+z
loop_
_atom_site_type_symbol
_atom_site_label
_atom_site_fract_x
_atom_site_fract_y
_atom_site_fract_z
Si Si1 0.803964 0.105652 0.710950
Si Si2 0.667186 0.973480 0.380777
Si Si3 0.500000 0.418872 0.250000
Si Si4 0.000000 0.589545 0.750000
Si Si5 0.590926 0.648605 0.130615
Si Si6 0.740270 0.755053 0.001116
O O1 0.730052 0.106507 0.797582
O O2 0.904212 0.168475 0.744546
O O3 0.769777 0.169042 0.605886
O O4 0.828992 0.933635 0.694779
O O5 0.568364 0.993764 0.326489
O O6 0.676633 0.854532 0.470441
O O7 0.715475 0.119181 0.421785
O O8 0.508311 0.530378 0.152963
O O9 0.941718 0.699344 0.677399
O O10 0.642243 0.671208 0.024733
#
# Coordination Sequence:
#
# PCOD9456549 Si02
#       6
#     8   8   4   4   8   8
#     4  10  21  44  69  97 141 173 235 284 339 411
#     4  12  26  42  73  99 142 191 223 284 357 404
#     4   7  18  40  71  90 123 188 209 286 339 392
#     4  11  22  44  67  94 145 184 219 288 357 390
#     4   9  19  43  67  96 134 175 225 290 336 409
#     4  12  24  43  70 109 135 184 236 282 346 419
#
# _framework density 23.029586999999999
#
# number of rings (size 3 to 8) (size 9 to 14) (size 15 to 20)
#    1.200    0.400    4.000    1.200    0.000    0.800 
#    3.600    4.000    0.000    0.000    0.000    0.000 
#    0.000    0.000    0.000    0.000    0.000    0.000 
#
# Total GULP energy -222832.538084 kJ/mol
# GULP energy per Si atom -5570.813452 kJ/mol
# Density = 2.297717 g / cm^3
# Si number density = 23.029587 Si / 1000 Ang^3
#
#
#
# Elastic Constant Matrix: (Units=GPa)
#
#
# Indices 1 2 3 4 5 6 
#
# 1 95.6516 19.2047 39.4904 0.0000 0.0000 0.0000
# 2 19.2047 62.3730 21.8800 0.0000 0.0000 0.0000
# 3 39.4904 21.8800 80.3115 0.0000 0.0000 0.0000
# 4 0.0000 0.0000 0.0000 34.1553 0.0000 0.0000
# 5 0.0000 0.0000 0.0000 0.0000 43.1818 0.0000
# 6 0.0000 0.0000 0.0000 0.0000 0.0000 18.7042
#
#
#
# Elastic Compliance Matrix: (Units=1/GPa)
#
#
# Indices 1 2 3 4 5 6 
#
# 1 0.013339 -0.001997 -0.006015 0.000000 0.000000 0.000000
# 2 -0.001997 0.018026 -0.003929 0.000000 0.000000 0.000000
# 3 -0.006015 -0.003929 0.016479 0.000000 0.000000 0.000000
# 4 0.000000 0.000000 0.000000 0.029278 0.000000 0.000000
# 5 0.000000 0.000000 0.000000 0.000000 0.023158 0.000000
# 6 0.000000 0.000000 0.000000 0.000000 0.000000 0.053464
#
#
# Mechanical properties :
#
#
# Convention : Reuss Voigt Hill
#
# Bulk Modulus (GPa) = 41.73206 44.38737 43.05972
# Shear Modulus (GPa) = 26.93776 29.72566 28.33171
#
# Velocity S-wave (km/s) = 3.42380 3.59661 3.51127
# Velocity P-wave (km/s) = 5.81294 6.04677 5.93101
#
# Compressibility (1/GPa) = 0.02396239
#
# Stress axis : x y z
#
# Youngs Moduli (GPa) = 74.96901 55.47630 60.68147
#
# Poissons Ratio (x) = 0.11079 0.36499
# Poissons Ratio (y) = 0.14972 0.23841
# Poissons Ratio (z) = 0.45093 0.21796
#
# Static dielectric constant tensor:
#      x y z
#    x 1.966080 0.000000 0.000000 
#    y 0.000000 1.896770 0.000000 
#    z 0.000000 0.000000 1.901170 
# 
# From -- ./inp_files/11729.got.cif
#   From: 2010.05.17/outbox.cif.g08.bks.cpg/sg60_6_cif.got.tgz:11729.got - 2010.06.03 14:59:27.
