data_PCOD9456906
_publ_section_title
;
Structure prediction by ZEFSAII (Michael W. Deem and Ramdas Pophale) SiO2 
 PCOD9456906
Probable space group: P B C N
;
_chemical_formula_sum "Si O2"
_cell_formula_units_Z 64
_cell_length_a 9.183614
_cell_length_b 14.058249
_cell_length_c 25.966497
_cell_angle_alpha 90.000000
_cell_angle_beta 90.000000
_cell_angle_gamma 90.000000
_cell_volume 3352.418418
_symmetry_space_group_name_H-M "P B C N"
_symmetry_group_IT_number 60
_symmetry_cell_setting 'orthorhombic'
loop_
_space_group_symop_operation_xyz
x,y,z
1/2-x,1/2-y,1/2+z
1/2+x,1/2-y,-z
-x,y,1/2-z
-x,-y,-z
1/2+x,1/2+y,1/2-z
1/2-x,1/2+y,z
x,-y,1/2+z
loop_
_atom_site_type_symbol
_atom_site_label
_atom_site_fract_x
_atom_site_fract_y
_atom_site_fract_z
Si Si1 0.094830 0.749215 0.567308
Si Si2 0.772982 0.911414 0.388645
Si Si3 0.321379 0.895631 0.871756
Si Si4 0.010123 0.610095 0.479893
Si Si5 0.196811 0.067555 0.024946
Si Si6 0.320792 0.796579 0.362871
Si Si7 0.007342 0.452015 0.189218
Si Si8 0.895808 0.950605 0.092084
O O1 0.225207 0.696723 0.598297
O O2 0.086974 0.687754 0.515279
O O3 0.098526 0.861102 0.557558
O O4 0.946503 0.729872 0.597227
O O5 0.662343 0.941373 0.342075
O O6 0.946415 0.925772 0.384355
O O7 0.752712 0.979485 0.439277
O O8 0.410977 0.885664 0.925143
O O9 0.269483 0.796499 0.847842
O O10 0.424311 0.959710 0.836592
O O11 0.176708 0.955721 0.884448
O O12 0.000000 0.500000 0.500000
O O13 0.839493 0.633343 0.481386
O O14 0.122811 0.043248 0.970326
O O15 0.408972 0.858036 0.321177
O O16 0.210337 0.866196 0.391315
O O17 0.000000 0.466589 0.250000
#
# Coordination Sequence:
#
# PCOD9456906 Si02
#       8
#     8   8   8   8   8   8   8   8
#     4  11  23  35  56  85 126 170 204 243 297 365
#     4  11  23  39  57  90 120 158 209 256 311 373
#     4  11  21  40  63  87 122 163 211 255 316 376
#     4  12  19  37  56  84 127 175 208 242 298 381
#     4  12  22  34  56  90 128 168 207 246 296 377
#     4  10  22  41  60  87 118 162 206 254 316 373
#     4  10  23  47  70  86 117 160 207 272 341 382
#     4  11  22  35  58  89 129 165 201 249 299 377
#
# _framework density 19.090696000000001
#
# number of rings (size 3 to 8) (size 9 to 14) (size 15 to 20)
#    0.000    1.000    5.000    2.625    3.500    0.000 
#    0.000    7.500    0.000    0.000    0.000    0.000 
#    0.000    0.000    0.000    0.000    0.000    0.000 
#
# Total GULP energy -356699.937908 kJ/mol
# GULP energy per Si atom -5573.436530 kJ/mol
# Density = 1.904724 g / cm^3
# Si number density = 19.090696 Si / 1000 Ang^3
#
#
#
# Elastic Constant Matrix: (Units=GPa)
#
#
# Indices 1 2 3 4 5 6 
#
# 1 97.5336 -5.4686 27.1330 0.0000 0.0000 0.0000
# 2 -5.4686 58.1609 5.2566 0.0000 0.0000 0.0000
# 3 27.1330 5.2566 82.7604 0.0000 0.0000 0.0000
# 4 0.0000 0.0000 0.0000 10.0713 0.0000 0.0000
# 5 0.0000 0.0000 0.0000 0.0000 14.4431 0.0000
# 6 0.0000 0.0000 0.0000 0.0000 0.0000 21.9777
#
#
#
# Elastic Compliance Matrix: (Units=1/GPa)
#
#
# Indices 1 2 3 4 5 6 
#
# 1 0.011397 0.001417 -0.003826 0.000000 0.000000 0.000000
# 2 0.001417 0.017469 -0.001574 0.000000 0.000000 0.000000
# 3 -0.003826 -0.001574 0.013438 0.000000 0.000000 0.000000
# 4 0.000000 0.000000 0.000000 0.099292 0.000000 0.000000
# 5 0.000000 0.000000 0.000000 0.000000 0.069237 0.000000
# 6 0.000000 0.000000 0.000000 0.000000 0.000000 0.045501
#
#
# Mechanical properties :
#
#
# Convention : Reuss Voigt Hill
#
# Bulk Modulus (GPa) = 29.12312 32.47745 30.80029
# Shear Modulus (GPa) = 18.13264 23.40068 20.76666
#
# Velocity S-wave (km/s) = 3.08525 3.50489 3.30174
# Velocity P-wave (km/s) = 5.28961 5.78171 5.54112
#
# Compressibility (1/GPa) = 0.03433698
#
# Stress axis : x y z
#
# Youngs Moduli (GPa) = 87.74361 57.24347 74.41811
#
# Poissons Ratio (x) = -0.08114 0.28476
# Poissons Ratio (y) = -0.12437 0.11716
# Poissons Ratio (z) = 0.33575 0.09012
#
# Static dielectric constant tensor:
#      x y z
#    x 1.991730 0.000000 0.000000 
#    y 0.000000 1.752030 0.000000 
#    z 0.000000 0.000000 1.649490 
# 
# From -- ./inp_files/24099.got.cif
#   From: 2010.05.17/outbox.cif.g08.bks.cpg/sg60_13_cif.got.tgz:24099.got - 2010.06.03 14:59:27.
