data_PCOD9456204
_publ_section_title
;
Structure prediction by ZEFSAII (Michael W. Deem and Ramdas Pophale) SiO2 
 PCOD9456204
Probable space group: P B C N
;
_chemical_formula_sum "Si O2"
_cell_formula_units_Z 40
_cell_length_a 5.300437
_cell_length_b 27.207557
_cell_length_c 13.428696
_cell_angle_alpha 90.000000
_cell_angle_beta 90.000000
_cell_angle_gamma 90.000000
_cell_volume 1936.578326
_symmetry_space_group_name_H-M "P B C N"
_symmetry_group_IT_number 60
_symmetry_cell_setting 'orthorhombic'
loop_
_space_group_symop_operation_xyz
x,y,z
1/2-x,1/2-y,1/2+z
1/2+x,1/2-y,-z
-x,y,1/2-z
-x,-y,-z
1/2+x,1/2+y,1/2-z
1/2-x,1/2+y,z
x,-y,1/2+z
loop_
_atom_site_type_symbol
_atom_site_label
_atom_site_fract_x
_atom_site_fract_y
_atom_site_fract_z
Si Si1 0.558352 0.374281 0.939261
Si Si2 0.182994 0.222746 0.962964
Si Si3 0.500000 0.684423 0.250000
Si Si4 0.500000 0.247635 0.250000
Si Si5 0.606146 0.038223 0.357627
Si Si6 0.803193 0.042284 0.968003
O O1 0.421261 0.347438 0.846952
O O2 0.700571 0.418741 0.884475
O O3 0.716151 0.331795 0.993005
O O4 0.408177 0.402931 0.025961
O O5 0.094092 0.223436 0.847841
O O6 0.444385 0.251926 0.980025
O O7 0.751685 0.715181 0.276915
O O8 0.500000 0.047542 0.250000
O O9 0.402387 0.042082 0.444916
O O10 0.703652 0.981944 0.366716
O O11 0.000000 0.000000 0.000000
#
# Coordination Sequence:
#
# PCOD9456204 Si02
#       6
#     8   8   4   4   8   8
#     4  11  23  37  65  96 125 175 221 274 337 410
#     4  12  25  43  66  95 140 178 221 290 344 403
#     4  12  24  38  72  95 128 171 234 278 336 402
#     4  12  24  46  60 101 130 181 228 280 342 406
#     4  10  21  39  67  95 130 167 223 282 336 406
#     4   9  21  40  58  94 131 164 213 271 344 395
#
# _framework density 20.654989
#
# number of rings (size 3 to 8) (size 9 to 14) (size 15 to 20)
#    0.000    1.200    4.000    1.200    7.000    2.400 
#    0.000    6.000    0.000    0.000    0.000    0.000 
#    0.000    0.000    0.000    0.000    0.000    0.000 
#
# Total GULP energy -222907.545182 kJ/mol
# GULP energy per Si atom -5572.688630 kJ/mol
# Density = 2.060798 g / cm^3
# Si number density = 20.654989 Si / 1000 Ang^3
#
#
#
# Elastic Constant Matrix: (Units=GPa)
#
#
# Indices 1 2 3 4 5 6 
#
# 1 49.2432 4.3021 -3.0964 0.0000 0.0000 0.0000
# 2 4.3021 94.5718 36.0137 0.0000 0.0000 0.0000
# 3 -3.0964 36.0137 85.8962 0.0000 0.0000 0.0000
# 4 0.0000 0.0000 0.0000 29.9739 0.0000 0.0000
# 5 0.0000 0.0000 0.0000 0.0000 32.0534 0.0000
# 6 0.0000 0.0000 0.0000 0.0000 0.0000 17.4135
#
#
#
# Elastic Compliance Matrix: (Units=1/GPa)
#
#
# Indices 1 2 3 4 5 6 
#
# 1 0.020518 -0.001446 0.001346 0.000000 0.000000 0.000000
# 2 -0.001446 0.012685 -0.005371 0.000000 0.000000 0.000000
# 3 0.001346 -0.005371 0.013942 0.000000 0.000000 0.000000
# 4 0.000000 0.000000 0.000000 0.033362 0.000000 0.000000
# 5 0.000000 0.000000 0.000000 0.000000 0.031198 0.000000
# 6 0.000000 0.000000 0.000000 0.000000 0.000000 0.057427
#
#
# Mechanical properties :
#
#
# Convention : Reuss Voigt Hill
#
# Bulk Modulus (GPa) = 27.62106 33.79446 30.70776
# Shear Modulus (GPa) = 26.02247 28.72093 27.37170
#
# Velocity S-wave (km/s) = 3.55331 3.73300 3.64426
# Velocity P-wave (km/s) = 5.49875 5.91416 5.71023
#
# Compressibility (1/GPa) = 0.03620425
#
# Stress axis : x y z
#
# Youngs Moduli (GPa) = 48.73695 78.83391 71.72478
#
# Poissons Ratio (x) = 0.11399 -0.09653
# Poissons Ratio (y) = 0.07047 0.38520
# Poissons Ratio (z) = -0.06559 0.42338
#
# Static dielectric constant tensor:
#      x y z
#    x 1.829690 0.000000 0.000000 
#    y 0.000000 1.425450 0.000000 
#    z 0.000000 0.000000 1.750330 
# 
# From -- ./inp_files/9134.got.cif
#   From: 2010.05.17/outbox.cif.g08.bks.cpg/sg60_5_cif.got.tgz:9134.got - 2010.06.03 14:59:27.
