data_PCOD9456887
_publ_section_title
;
Structure prediction by ZEFSAII (Michael W. Deem and Ramdas Pophale) SiO2 
 PCOD9456887
Probable space group: P B C N
;
_chemical_formula_sum "Si O2"
_cell_formula_units_Z 36
_cell_length_a 4.891964
_cell_length_b 21.440561
_cell_length_c 13.836564
_cell_angle_alpha 90.000000
_cell_angle_beta 90.000000
_cell_angle_gamma 90.000000
_cell_volume 1451.268113
_symmetry_space_group_name_H-M "P B C N"
_symmetry_group_IT_number 60
_symmetry_cell_setting 'orthorhombic'
loop_
_space_group_symop_operation_xyz
x,y,z
1/2-x,1/2-y,1/2+z
1/2+x,1/2-y,-z
-x,y,1/2-z
-x,-y,-z
1/2+x,1/2+y,1/2-z
1/2-x,1/2+y,z
x,-y,1/2+z
loop_
_atom_site_type_symbol
_atom_site_label
_atom_site_fract_x
_atom_site_fract_y
_atom_site_fract_z
Si Si1 0.528013 0.952511 0.138752
Si Si2 0.321257 0.678781 0.846917
Si Si3 0.741438 0.316611 0.682697
Si Si4 0.500000 0.500000 0.500000
Si Si5 0.859438 0.113744 0.002035
O O1 0.500000 0.972701 0.250000
O O2 0.619969 0.879846 0.145280
O O3 0.256690 0.944044 0.068581
O O4 0.757141 0.992875 0.088032
O O5 0.500000 0.671858 0.750000
O O6 0.175343 0.745173 0.848786
O O7 0.528009 0.668169 0.935281
O O8 0.500000 0.341126 0.750000
O O9 0.803128 0.356425 0.587958
O O10 0.000000 0.311533 0.750000
O O11 0.401706 0.429561 0.543107
#
# Coordination Sequence:
#
# PCOD9456887 Si02
#       5
#     8   8   8   4   8
#     4  11  22  43  72 103 140 188 246 312 368 446
#     4  10  22  40  70 105 141 181 243 298 368 448
#     4  11  28  46  69 108 154 198 242 305 378 449
#     4  10  26  44  68 102 144 182 268 292 378 436
#     4  11  25  45  72 103 142 195 243 307 366 444
#
# _framework density 24.805890000000002
#
# number of rings (size 3 to 8) (size 9 to 14) (size 15 to 20)
#    0.000    1.333    2.222    1.333   12.444    0.889 
#    4.000    0.000    0.000    0.000    0.000    0.000 
#    0.000    0.000    0.000    0.000    0.000    0.000 
#
# Total GULP energy -200506.249896 kJ/mol
# GULP energy per Si atom -5569.618053 kJ/mol
# Density = 2.474943 g / cm^3
# Si number density = 24.805890 Si / 1000 Ang^3
#
#
#
# Elastic Constant Matrix: (Units=GPa)
#
#
# Indices 1 2 3 4 5 6 
#
# 1 89.8179 -0.1274 52.6246 0.0000 0.0000 0.0000
# 2 -0.1274 74.7802 52.6803 0.0000 0.0000 0.0000
# 3 52.6246 52.6803 165.3298 0.0000 0.0000 0.0000
# 4 0.0000 0.0000 0.0000 41.7416 0.0000 0.0000
# 5 0.0000 0.0000 0.0000 0.0000 36.5458 0.0000
# 6 0.0000 0.0000 0.0000 0.0000 0.0000 47.3729
#
#
#
# Elastic Compliance Matrix: (Units=1/GPa)
#
#
# Indices 1 2 3 4 5 6 
#
# 1 0.014675 0.004275 -0.006033 0.000000 0.000000 0.000000
# 2 0.004275 0.018489 -0.007252 0.000000 0.000000 0.000000
# 3 -0.006033 -0.007252 0.010280 0.000000 0.000000 0.000000
# 4 0.000000 0.000000 0.000000 0.023957 0.000000 0.000000
# 5 0.000000 0.000000 0.000000 0.000000 0.027363 0.000000
# 6 0.000000 0.000000 0.000000 0.000000 0.000000 0.021109
#
#
# Mechanical properties :
#
#
# Convention : Reuss Voigt Hill
#
# Bulk Modulus (GPa) = 39.33466 60.03142 49.68304
# Shear Modulus (GPa) = 35.12080 40.11543 37.61811
#
# Velocity S-wave (km/s) = 3.76683 4.02577 3.89845
# Velocity P-wave (km/s) = 5.90000 6.77216 6.35107
#
# Compressibility (1/GPa) = 0.02542287
#
# Stress axis : x y z
#
# Youngs Moduli (GPa) = 68.14529 54.08747 97.28004
#
# Poissons Ratio (x) = -0.23123 0.58690
# Poissons Ratio (y) = -0.29133 0.70547
# Poissons Ratio (z) = 0.41113 0.39224
#
# Static dielectric constant tensor:
#      x y z
#    x 2.522320 0.000000 0.000000 
#    y 0.000000 2.149900 0.000000 
#    z 0.000000 0.000000 2.286720 
# 
# From -- ./inp_files/8956.got.cif
#   From: 2010.05.17/outbox.cif.g08.bks.cpg/sg60_5_cif.got.tgz:8956.got - 2010.06.03 14:59:27.
