data_PCOD9456863
_publ_section_title
;
Structure prediction by ZEFSAII (Michael W. Deem and Ramdas Pophale) SiO2 
 PCOD9456863
Probable space group: P B C N
;
_chemical_formula_sum "Si O2"
_cell_formula_units_Z 64
_cell_length_a 8.247970
_cell_length_b 11.270469
_cell_length_c 27.911910
_cell_angle_alpha 90.000000
_cell_angle_beta 90.000000
_cell_angle_gamma 90.000000
_cell_volume 2594.649012
_symmetry_space_group_name_H-M "P B C N"
_symmetry_group_IT_number 60
_symmetry_cell_setting 'orthorhombic'
loop_
_space_group_symop_operation_xyz
x,y,z
1/2-x,1/2-y,1/2+z
1/2+x,1/2-y,-z
-x,y,1/2-z
-x,-y,-z
1/2+x,1/2+y,1/2-z
1/2-x,1/2+y,z
x,-y,1/2+z
loop_
_atom_site_type_symbol
_atom_site_label
_atom_site_fract_x
_atom_site_fract_y
_atom_site_fract_z
Si Si1 0.174687 0.772337 0.562160
Si Si2 0.580419 0.107521 0.381877
Si Si3 0.253679 0.999770 0.914782
Si Si4 0.272995 0.389541 0.717165
Si Si5 0.170323 0.204838 0.870106
Si Si6 0.470243 0.638785 0.357194
Si Si7 0.394671 0.620094 0.498152
Si Si8 0.813399 0.865770 0.235145
O O1 0.291202 0.885900 0.574640
O O2 0.296566 0.673201 0.542619
O O3 0.083592 0.768214 0.613928
O O4 0.028602 0.791390 0.524719
O O5 0.429260 0.022013 0.391369
O O6 0.664139 0.091584 0.330638
O O7 0.502750 0.238742 0.377368
O O8 0.074900 0.974018 0.889861
O O9 0.244396 0.915891 0.960125
O O10 0.235750 0.140799 0.917441
O O11 0.452400 0.387986 0.693541
O O12 0.240834 0.509565 0.746694
O O13 0.249012 0.261453 0.743129
O O14 0.290827 0.310752 0.856530
O O15 0.192116 0.129259 0.822167
O O16 0.500000 0.500000 0.500000
O O17 0.000000 0.864912 0.250000
#
# Coordination Sequence:
#
# PCOD9456863 Si02
#       8
#     8   8   8   8   8   8   8   8
#     4  10  22  43  67  96 141 175 233 287 345 425
#     4  10  22  44  66  94 136 182 230 281 357 428
#     4  10  22  40  66  96 134 180 223 282 353 421
#     4  11  26  46  70 101 137 188 239 298 356 421
#     4  11  23  41  66  95 135 180 229 290 350 427
#     4   9  23  43  65  97 132 183 227 282 357 422
#     4  11  23  41  69 102 134 179 226 289 352 414
#     4  12  27  44  71 103 143 184 239 304 359 416
#
# _framework density 24.666149000000001
#
# number of rings (size 3 to 8) (size 9 to 14) (size 15 to 20)
#    0.000    1.500    1.250    2.250    7.000    3.000 
#    4.500    1.875    0.000    0.000    0.000    0.000 
#    0.000    0.000    0.000    0.000    0.000    0.000 
#
# Total GULP energy -356814.037574 kJ/mol
# GULP energy per Si atom -5575.219337 kJ/mol
# Density = 2.461001 g / cm^3
# Si number density = 24.666149 Si / 1000 Ang^3
#
#
#
# Elastic Constant Matrix: (Units=GPa)
#
#
# Indices 1 2 3 4 5 6 
#
# 1 78.3968 -0.6041 -1.7810 0.0000 0.0000 0.0000
# 2 -0.6041 76.2482 1.1736 0.0000 0.0000 0.0000
# 3 -1.7810 1.1736 35.8266 0.0000 0.0000 0.0000
# 4 0.0000 0.0000 0.0000 19.3266 0.0000 0.0000
# 5 0.0000 0.0000 0.0000 0.0000 32.7852 0.0000
# 6 0.0000 0.0000 0.0000 0.0000 0.0000 24.4124
#
#
#
# Elastic Compliance Matrix: (Units=1/GPa)
#
#
# Indices 1 2 3 4 5 6 
#
# 1 0.012771 0.000091 0.000632 0.000000 0.000000 0.000000
# 2 0.000091 0.013122 -0.000425 0.000000 0.000000 0.000000
# 3 0.000632 -0.000425 0.027958 0.000000 0.000000 0.000000
# 4 0.000000 0.000000 0.000000 0.051742 0.000000 0.000000
# 5 0.000000 0.000000 0.000000 0.000000 0.030502 0.000000
# 6 0.000000 0.000000 0.000000 0.000000 0.000000 0.040963
#
#
# Mechanical properties :
#
#
# Convention : Reuss Voigt Hill
#
# Bulk Modulus (GPa) = 18.36664 20.89430 19.63047
# Shear Modulus (GPa) = 25.69242 28.08371 26.88806
#
# Velocity S-wave (km/s) = 3.23089 3.37791 3.30522
# Velocity P-wave (km/s) = 4.62390 4.86856 4.74781
#
# Compressibility (1/GPa) = 0.05444654
#
# Stress axis : x y z
#
# Youngs Moduli (GPa) = 78.30437 76.20598 35.76851
#
# Poissons Ratio (x) = -0.00697 -0.02260
# Poissons Ratio (y) = -0.00716 0.01521
# Poissons Ratio (z) = -0.04948 0.03241
#
# Static dielectric constant tensor:
#      x y z
#    x 1.965610 0.000000 0.000000 
#    y 0.000000 2.289010 0.000000 
#    z 0.000000 0.000000 2.457760 
# 
# From -- ./inp_files/26025.got.cif
#   From: 2010.05.17/outbox.cif.g08.bks.cpg/sg60_14_cif.got.tgz:26025.got - 2010.06.03 14:59:27.
