data_PCOD9456540
_publ_section_title
;
Structure prediction by ZEFSAII (Michael W. Deem and Ramdas Pophale) SiO2 
 PCOD9456540
Probable space group: P B C N
;
_chemical_formula_sum "Si O2"
_cell_formula_units_Z 48
_cell_length_a 8.271208
_cell_length_b 24.666711
_cell_length_c 11.329356
_cell_angle_alpha 90.000000
_cell_angle_beta 90.000000
_cell_angle_gamma 90.000000
_cell_volume 2311.454834
_symmetry_space_group_name_H-M "P B C N"
_symmetry_group_IT_number 60
_symmetry_cell_setting 'orthorhombic'
loop_
_space_group_symop_operation_xyz
x,y,z
1/2-x,1/2-y,1/2+z
1/2+x,1/2-y,-z
-x,y,1/2-z
-x,-y,-z
1/2+x,1/2+y,1/2-z
1/2-x,1/2+y,z
x,-y,1/2+z
loop_
_atom_site_type_symbol
_atom_site_label
_atom_site_fract_x
_atom_site_fract_y
_atom_site_fract_z
Si Si1 0.738553 0.367915 0.437466
Si Si2 0.824811 0.672847 0.189195
Si Si3 0.858034 0.890474 0.067147
Si Si4 0.672712 0.570201 0.307058
Si Si5 0.314480 0.956721 0.227462
Si Si6 0.693964 0.296020 0.218975
O O1 0.823413 0.345765 0.553476
O O2 0.545018 0.373603 0.448879
O O3 0.783735 0.428501 0.398360
O O4 0.773573 0.326860 0.329425
O O5 0.718873 0.628000 0.253855
O O6 0.759418 0.733977 0.201051
O O7 0.000000 0.671627 0.250000
O O8 0.807893 0.928592 0.178086
O O9 0.776143 0.833246 0.103766
O O10 0.817540 0.921315 0.947429
O O11 0.500000 0.555653 0.250000
O O12 0.787462 0.520628 0.272708
O O13 0.500000 0.943541 0.250000
O O14 0.500000 0.296820 0.250000
#
# Coordination Sequence:
#
# PCOD9456540 Si02
#       6
#     8   8   8   8   8   8
#     4  10  21  44  68  90 131 174 217 258 326 398
#     4  11  24  40  64  99 134 167 215 272 323 371
#     4  10  22  44  68  92 130 171 219 260 320 403
#     4  12  25  41  66  96 127 169 220 265 323 390
#     4  11  26  43  66  95 126 170 214 273 334 383
#     4   8  19  41  65  92 127 174 207 261 320 380
#
# _framework density 20.766141000000001
#
# number of rings (size 3 to 8) (size 9 to 14) (size 15 to 20)
#    0.000    1.667    1.667    3.000    7.000    2.000 
#    0.000    3.333    0.000    0.000    0.000    0.000 
#    0.000    0.000    0.000    0.000    0.000    0.000 
#
# Total GULP energy -267816.065385 kJ/mol
# GULP energy per Si atom -5579.501362 kJ/mol
# Density = 2.071888 g / cm^3
# Si number density = 20.766141 Si / 1000 Ang^3
#
#
#
# Elastic Constant Matrix: (Units=GPa)
#
#
# Indices 1 2 3 4 5 6 
#
# 1 41.2627 3.6255 18.1081 0.0000 0.0000 0.0000
# 2 3.6255 102.3619 20.6657 0.0000 0.0000 0.0000
# 3 18.1081 20.6657 107.9869 0.0000 0.0000 0.0000
# 4 0.0000 0.0000 0.0000 11.5915 0.0000 0.0000
# 5 0.0000 0.0000 0.0000 0.0000 18.9541 0.0000
# 6 0.0000 0.0000 0.0000 0.0000 0.0000 16.3879
#
#
#
# Elastic Compliance Matrix: (Units=1/GPa)
#
#
# Indices 1 2 3 4 5 6 
#
# 1 0.026160 -0.000043 -0.004379 0.000000 0.000000 0.000000
# 2 -0.000043 0.010162 -0.001938 0.000000 0.000000 0.000000
# 3 -0.004379 -0.001938 0.010365 0.000000 0.000000 0.000000
# 4 0.000000 0.000000 0.000000 0.086270 0.000000 0.000000
# 5 0.000000 0.000000 0.000000 0.000000 0.052759 0.000000
# 6 0.000000 0.000000 0.000000 0.000000 0.000000 0.061021
#
#
# Mechanical properties :
#
#
# Convention : Reuss Voigt Hill
#
# Bulk Modulus (GPa) = 29.43762 37.37888 33.40825
# Shear Modulus (GPa) = 18.46529 23.33419 20.89974
#
# Velocity S-wave (km/s) = 2.98518 3.35575 3.17588
# Velocity P-wave (km/s) = 5.10767 5.74924 5.43792
#
# Compressibility (1/GPa) = 0.03397014
#
# Stress axis : x y z
#
# Youngs Moduli (GPa) = 38.22588 98.40643 96.47459
#
# Poissons Ratio (x) = 0.00419 0.42243
# Poissons Ratio (y) = 0.00163 0.18693
# Poissons Ratio (z) = 0.16738 0.19067
#
# Static dielectric constant tensor:
#      x y z
#    x 1.943870 0.000000 0.000000 
#    y 0.000000 1.730190 0.000000 
#    z 0.000000 0.000000 1.521180 
# 
# From -- ./inp_files/10086.got.cif
#   From: 2010.05.17/outbox.cif.g08.bks.cpg/sg60_6_cif.got.tgz:10086.got - 2010.06.03 14:59:27.
