data_PCOD9456570
_publ_section_title
;
Structure prediction by ZEFSAII (Michael W. Deem and Ramdas Pophale) SiO2 
 PCOD9456570
Probable space group: P B C N
;
_chemical_formula_sum "Si O2"
_cell_formula_units_Z 32
_cell_length_a 11.317882
_cell_length_b 14.888881
_cell_length_c 7.854983
_cell_angle_alpha 90.000000
_cell_angle_beta 90.000000
_cell_angle_gamma 90.000000
_cell_volume 1323.647885
_symmetry_space_group_name_H-M "P B C N"
_symmetry_group_IT_number 60
_symmetry_cell_setting 'orthorhombic'
loop_
_space_group_symop_operation_xyz
x,y,z
1/2-x,1/2-y,1/2+z
1/2+x,1/2-y,-z
-x,y,1/2-z
-x,-y,-z
1/2+x,1/2+y,1/2-z
1/2-x,1/2+y,z
x,-y,1/2+z
loop_
_atom_site_type_symbol
_atom_site_label
_atom_site_fract_x
_atom_site_fract_y
_atom_site_fract_z
Si Si1 0.364156 0.935534 0.698597
Si Si2 0.966728 0.895783 0.002423
Si Si3 0.829407 0.179361 0.177176
Si Si4 0.727103 0.881280 0.173076
O O1 0.500000 0.938154 0.750000
O O2 0.295419 0.870438 0.830405
O O3 0.337207 0.900200 0.509114
O O4 0.310296 0.035276 0.712318
O O5 0.893450 0.870925 0.832733
O O6 0.085564 0.837104 0.983595
O O7 0.868828 0.880915 0.146454
O O8 0.000000 0.000000 0.000000
O O9 0.814221 0.282665 0.224684
#
# Coordination Sequence:
#
# PCOD9456570 Si02
#       4
#     8   8   8   8
#     4  11  25  45  67 104 144 186 233 296 371 426
#     4  10  21  46  71  96 140 187 245 306 356 430
#     4  10  24  43  69 107 138 186 245 301 366 439
#     4  11  25  44  73 102 142 189 238 303 360 441
#
# _framework density 24.175612999999998
#
# number of rings (size 3 to 8) (size 9 to 14) (size 15 to 20)
#    0.000    1.500    2.500    0.750    7.000    4.000 
#    0.000    0.000    0.000    0.000    0.000    0.000 
#    0.000    0.000    0.000    0.000    0.000    0.000 
#
# Total GULP energy -179207.040594 kJ/mol
# GULP energy per Si atom -5600.220019 kJ/mol
# Density = 2.412059 g / cm^3
# Si number density = 24.175613 Si / 1000 Ang^3
#
#
#
# Elastic Constant Matrix: (Units=GPa)
#
#
# Indices 1 2 3 4 5 6 
#
# 1 117.8362 61.3003 17.8229 0.0000 0.0000 0.0000
# 2 61.3003 194.3740 20.0342 0.0000 0.0000 0.0000
# 3 17.8229 20.0342 76.9682 0.0000 0.0000 0.0000
# 4 0.0000 0.0000 0.0000 35.8441 0.0000 0.0000
# 5 0.0000 0.0000 0.0000 0.0000 13.7822 0.0000
# 6 0.0000 0.0000 0.0000 0.0000 0.0000 54.3301
#
#
#
# Elastic Compliance Matrix: (Units=1/GPa)
#
#
# Indices 1 2 3 4 5 6 
#
# 1 0.010337 -0.003096 -0.001588 0.000000 0.000000 0.000000
# 2 -0.003096 0.006214 -0.000900 0.000000 0.000000 0.000000
# 3 -0.001588 -0.000900 0.013594 0.000000 0.000000 0.000000
# 4 0.000000 0.000000 0.000000 0.027899 0.000000 0.000000
# 5 0.000000 0.000000 0.000000 0.000000 0.072557 0.000000
# 6 0.000000 0.000000 0.000000 0.000000 0.000000 0.018406
#
#
# Mechanical properties :
#
#
# Convention : Reuss Voigt Hill
#
# Bulk Modulus (GPa) = 52.69676 65.27702 58.98689
# Shear Modulus (GPa) = 30.02953 40.12600 35.07777
#
# Velocity S-wave (km/s) = 3.52823 4.07845 3.81327
# Velocity P-wave (km/s) = 6.20021 7.01699 6.62121
#
# Compressibility (1/GPa) = 0.01897650
#
# Stress axis : x y z
#
# Youngs Moduli (GPa) = 96.73667 160.92508 73.55962
#
# Poissons Ratio (x) = 0.49830 0.11679
# Poissons Ratio (y) = 0.29954 0.06624
# Poissons Ratio (z) = 0.15359 0.14490
#
# Static dielectric constant tensor:
#      x y z
#    x 1.972080 0.000000 0.000000 
#    y 0.000000 1.828670 0.000000 
#    z 0.000000 0.000000 2.158830 
# 
# From -- ./inp_files/4511.got.cif
#   From: 2010.05.17/outbox.cif.g08.bks.cpg/sg60_3_cif.got.tgz:4511.got - 2010.06.03 14:59:27.
