data_PCOD9456072
_publ_section_title
;
Structure prediction by ZEFSAII (Michael W. Deem and Ramdas Pophale) SiO2 
 PCOD9456072
Probable space group: P B C N
;
_chemical_formula_sum "Si O2"
_cell_formula_units_Z 52
_cell_length_a 8.967930
_cell_length_b 13.608123
_cell_length_c 18.998234
_cell_angle_alpha 90.000000
_cell_angle_beta 90.000000
_cell_angle_gamma 90.000000
_cell_volume 2318.481679
_symmetry_space_group_name_H-M "P B C N"
_symmetry_group_IT_number 60
_symmetry_cell_setting 'orthorhombic'
loop_
_space_group_symop_operation_xyz
x,y,z
1/2-x,1/2-y,1/2+z
1/2+x,1/2-y,-z
-x,y,1/2-z
-x,-y,-z
1/2+x,1/2+y,1/2-z
1/2-x,1/2+y,z
x,-y,1/2+z
loop_
_atom_site_type_symbol
_atom_site_label
_atom_site_fract_x
_atom_site_fract_y
_atom_site_fract_z
Si Si1 0.561422 0.847379 0.987005
Si Si2 0.148409 0.808968 0.431451
Si Si3 0.557099 0.466758 0.360780
Si Si4 0.500000 0.634505 0.250000
Si Si5 0.885106 0.467327 0.398239
Si Si6 0.791132 0.323574 0.685440
Si Si7 0.500000 0.671366 0.750000
Si Si8 0.500000 0.990201 0.750000
O O1 0.730997 0.842693 0.011893
O O2 0.460874 0.887985 0.051151
O O3 0.497244 0.744126 0.961978
O O4 0.552347 0.926980 0.924210
O O5 0.237642 0.715778 0.393361
O O6 0.084212 0.909512 0.394442
O O7 0.514197 0.567020 0.320507
O O8 0.706141 0.472515 0.406042
O O9 0.604340 0.397475 0.295148
O O10 0.350671 0.693307 0.265045
O O11 0.932886 0.454008 0.317076
O O12 0.915319 0.242187 0.699078
O O13 0.868084 0.423070 0.714296
#
# Coordination Sequence:
#
# PCOD9456072 Si02
#       8
#     8   8   8   4   8   8   4   4
#     4  11  26  43  66  95 131 176 225 270 337 402
#     4  11  24  44  64  91 137 177 219 279 328 400
#     4  10  22  38  62  92 130 168 214 270 326 389
#     4  11  22  35  63 103 128 158 220 273 326 393
#     4  11  24  42  69  95 125 177 225 268 333 407
#     4  10  21  38  64  92 128 170 212 270 332 390
#     4   8  20  38  58  89 131 168 204 270 334 380
#     4  11  20  41  69  90 129 170 210 271 332 391
#
# _framework density 22.428471999999999
#
# number of rings (size 3 to 8) (size 9 to 14) (size 15 to 20)
#    0.000    1.538    3.077    0.923    2.154    4.308 
#    0.000    0.000    0.000    0.000    0.000    0.000 
#    0.000    0.000    0.000    0.000    0.000    0.000 
#
# Total GULP energy -289619.206979 kJ/mol
# GULP energy per Si atom -5569.600134 kJ/mol
# Density = 2.237742 g / cm^3
# Si number density = 22.428472 Si / 1000 Ang^3
#
#
#
# Elastic Constant Matrix: (Units=GPa)
#
#
# Indices 1 2 3 4 5 6 
#
# 1 62.9846 -10.5739 18.2230 0.0000 0.0000 0.0000
# 2 -10.5739 23.9576 17.3728 0.0000 0.0000 0.0000
# 3 18.2230 17.3728 80.2929 0.0000 0.0000 0.0000
# 4 0.0000 0.0000 0.0000 21.5144 0.0000 0.0000
# 5 0.0000 0.0000 0.0000 0.0000 40.7067 0.0000
# 6 0.0000 0.0000 0.0000 0.0000 0.0000 14.0660
#
#
#
# Elastic Compliance Matrix: (Units=1/GPa)
#
#
# Indices 1 2 3 4 5 6 
#
# 1 0.020655 0.014844 -0.007900 0.000000 0.000000 0.000000
# 2 0.014844 0.060177 -0.016389 0.000000 0.000000 0.000000
# 3 -0.007900 -0.016389 0.017793 0.000000 0.000000 0.000000
# 4 0.000000 0.000000 0.000000 0.046480 0.000000 0.000000
# 5 0.000000 0.000000 0.000000 0.000000 0.024566 0.000000
# 6 0.000000 0.000000 0.000000 0.000000 0.000000 0.071094
#
#
# Mechanical properties :
#
#
# Convention : Reuss Voigt Hill
#
# Bulk Modulus (GPa) = 12.54143 24.14210 18.34176
# Shear Modulus (GPa) = 17.46832 24.73830 21.10331
#
# Velocity S-wave (km/s) = 2.79381 3.32473 3.07076
# Velocity P-wave (km/s) = 4.00138 5.05231 4.55724
#
# Compressibility (1/GPa) = 0.07973572
#
# Stress axis : x y z
#
# Youngs Moduli (GPa) = 48.41559 16.61768 56.20067
#
# Poissons Ratio (x) = -0.24668 0.44396
# Poissons Ratio (y) = -0.71870 0.92109
# Poissons Ratio (z) = 0.38246 0.27235
#
# Static dielectric constant tensor:
#      x y z
#    x 1.808400 0.000000 0.000000 
#    y 0.000000 1.795680 0.000000 
#    z 0.000000 0.000000 1.476460 
# 
# From -- ./inp_files/22180.got.cif
#   From: 2010.05.17/outbox.cif.g08.bks.cpg/sg60_12_cif.got.tgz:22180.got - 2010.06.03 14:59:27.
