data_PCOD9456307
_publ_section_title
;
Structure prediction by ZEFSAII (Michael W. Deem and Ramdas Pophale) SiO2 
 PCOD9456307
Probable space group: P B C N
;
_chemical_formula_sum "Si O2"
_cell_formula_units_Z 60
_cell_length_a 6.711589
_cell_length_b 25.558588
_cell_length_c 16.823887
_cell_angle_alpha 90.000000
_cell_angle_beta 90.000000
_cell_angle_gamma 90.000000
_cell_volume 2885.948346
_symmetry_space_group_name_H-M "P B C N"
_symmetry_group_IT_number 60
_symmetry_cell_setting 'orthorhombic'
loop_
_space_group_symop_operation_xyz
x,y,z
1/2-x,1/2-y,1/2+z
1/2+x,1/2-y,-z
-x,y,1/2-z
-x,-y,-z
1/2+x,1/2+y,1/2-z
1/2-x,1/2+y,z
x,-y,1/2+z
loop_
_atom_site_type_symbol
_atom_site_label
_atom_site_fract_x
_atom_site_fract_y
_atom_site_fract_z
Si Si1 0.638973 0.527698 0.328903
Si Si2 0.000000 0.707482 0.750000
Si Si3 0.490853 0.046749 0.661301
Si Si4 0.340703 0.374712 0.567245
Si Si5 0.265039 0.358644 0.131467
Si Si6 0.923094 0.933813 0.093002
Si Si7 0.038100 0.313589 0.986499
Si Si8 0.118911 0.225380 0.400660
O O1 0.500000 0.521836 0.250000
O O2 0.866042 0.506253 0.325900
O O3 0.648231 0.586823 0.357852
O O4 0.544792 0.486812 0.391779
O O5 0.830323 0.673159 0.795307
O O6 0.912470 0.744096 0.681117
O O7 0.500000 0.068813 0.750000
O O8 0.360332 0.088706 0.615383
O O9 0.705126 0.049112 0.622155
O O10 0.424624 0.409997 0.494886
O O11 0.466545 0.322623 0.586280
O O12 0.120621 0.357491 0.538245
O O13 0.483720 0.384075 0.142118
O O14 0.211389 0.327416 0.051085
O O15 0.916747 0.267772 0.029730
O O16 0.157082 0.295009 0.909664
#
# Coordination Sequence:
#
# PCOD9456307 Si02
#       8
#     8   4   8   8   8   8   8   8
#     4  11  26  44  66  99 144 185 230 281 351 422
#     4  10  24  44  70 102 144 178 238 286 358 422
#     4  11  21  41  65 100 138 177 222 286 345 409
#     4  12  25  43  72  99 136 187 231 288 349 420
#     4  10  21  40  68 104 130 174 223 295 352 397
#     4  11  23  43  72 101 135 180 237 282 347 418
#     4  11  22  44  69  99 133 176 229 289 343 408
#     4  11  24  45  70  99 138 179 230 292 348 419
#
# _framework density 20.790393000000002
#
# number of rings (size 3 to 8) (size 9 to 14) (size 15 to 20)
#    0.000    1.067    6.000    0.400    0.933    1.600 
#    0.000    2.000    0.000    0.000    0.000    0.000 
#    0.000    0.000    0.000    0.000    0.000    0.000 
#
# Total GULP energy -334436.434298 kJ/mol
# GULP energy per Si atom -5573.940572 kJ/mol
# Density = 2.074307 g / cm^3
# Si number density = 20.790393 Si / 1000 Ang^3
#
#
#
# Elastic Constant Matrix: (Units=GPa)
#
#
# Indices 1 2 3 4 5 6 
#
# 1 81.4418 37.6308 36.8755 0.0000 0.0000 0.0000
# 2 37.6308 108.2319 46.5911 0.0000 0.0000 0.0000
# 3 36.8755 46.5911 70.7243 0.0000 0.0000 0.0000
# 4 0.0000 0.0000 0.0000 36.9057 0.0000 0.0000
# 5 0.0000 0.0000 0.0000 0.0000 19.5916 0.0000
# 6 0.0000 0.0000 0.0000 0.0000 0.0000 15.6128
#
#
#
# Elastic Compliance Matrix: (Units=1/GPa)
#
#
# Indices 1 2 3 4 5 6 
#
# 1 0.016689 -0.002871 -0.006810 0.000000 0.000000 0.000000
# 2 -0.002871 0.013391 -0.007324 0.000000 0.000000 0.000000
# 3 -0.006810 -0.007324 0.022515 0.000000 0.000000 0.000000
# 4 0.000000 0.000000 0.000000 0.027096 0.000000 0.000000
# 5 0.000000 0.000000 0.000000 0.000000 0.051042 0.000000
# 6 0.000000 0.000000 0.000000 0.000000 0.000000 0.064050
#
#
# Mechanical properties :
#
#
# Convention : Reuss Voigt Hill
#
# Bulk Modulus (GPa) = 53.81084 55.84366 54.82725
# Shear Modulus (GPa) = 21.27759 23.70871 22.49315
#
# Velocity S-wave (km/s) = 3.20259 3.38060 3.29279
# Velocity P-wave (km/s) = 6.29398 6.49281 6.39417
#
# Compressibility (1/GPa) = 0.01858361
#
# Stress axis : x y z
#
# Youngs Moduli (GPa) = 59.92050 74.67946 44.41400
#
# Poissons Ratio (x) = 0.21439 0.30247
# Poissons Ratio (y) = 0.17202 0.32531
# Poissons Ratio (z) = 0.40808 0.54699
#
# Static dielectric constant tensor:
#      x y z
#    x 1.771230 0.000000 0.000000 
#    y 0.000000 1.765640 0.000000 
#    z 0.000000 0.000000 1.753030 
# 
# From -- ./inp_files/18814.got.cif
#   From: 2010.05.17/outbox.cif.g08.bks.cpg/sg60_10_cif.got.tgz:18814.got - 2010.06.03 14:59:27.
