data_PCOD9456007
_publ_section_title
;
Structure prediction by ZEFSAII (Michael W. Deem and Ramdas Pophale) SiO2 
 PCOD9456007
Probable space group: P B C N
;
_chemical_formula_sum "Si O2"
_cell_formula_units_Z 64
_cell_length_a 18.759093
_cell_length_b 9.401836
_cell_length_c 15.627602
_cell_angle_alpha 90.000000
_cell_angle_beta 90.000000
_cell_angle_gamma 90.000000
_cell_volume 2756.238850
_symmetry_space_group_name_H-M "P B C N"
_symmetry_group_IT_number 60
_symmetry_cell_setting 'orthorhombic'
loop_
_space_group_symop_operation_xyz
x,y,z
1/2-x,1/2-y,1/2+z
1/2+x,1/2-y,-z
-x,y,1/2-z
-x,-y,-z
1/2+x,1/2+y,1/2-z
1/2-x,1/2+y,z
x,-y,1/2+z
loop_
_atom_site_type_symbol
_atom_site_label
_atom_site_fract_x
_atom_site_fract_y
_atom_site_fract_z
Si Si1 0.001217 0.380164 0.351905
Si Si2 0.801600 0.140469 0.451834
Si Si3 0.116726 0.603116 0.170527
Si Si4 0.531729 0.341927 0.994176
Si Si5 0.419001 0.837210 0.851995
Si Si6 0.251088 0.786610 0.885684
Si Si7 0.247734 0.534391 0.774991
Si Si8 0.706019 0.337566 0.383539
O O1 0.929488 0.475058 0.366831
O O2 0.003860 0.252217 0.418987
O O3 0.000000 0.341734 0.250000
O O4 0.062689 0.497057 0.368497
O O5 0.884677 0.148863 0.469237
O O6 0.750572 0.217244 0.521386
O O7 0.777756 0.242458 0.374078
O O8 0.784153 0.974792 0.442710
O O9 0.074704 0.674025 0.249572
O O10 0.187168 0.539901 0.217576
O O11 0.142823 0.724130 0.105793
O O12 0.500000 0.500000 0.000000
O O13 0.533153 0.258749 0.085257
O O14 0.336632 0.803364 0.872281
O O15 0.218182 0.671684 0.822399
O O16 0.222454 0.936006 0.851320
O O17 0.306630 0.588128 0.708742
#
# Coordination Sequence:
#
# PCOD9456007 Si02
#       8
#     8   8   8   8   8   8   8   8
#     4  10  22  44  70  96 128 177 233 275 334 407
#     4  11  25  41  61  98 138 171 221 284 337 410
#     4  10  21  38  66  97 127 173 223 278 337 410
#     4  11  25  45  65  99 138 177 231 289 338 397
#     4   9  20  42  65  88 129 175 224 268 329 409
#     4  10  21  38  59  91 129 173 209 268 331 404
#     4  11  18  37  62  87 127 167 214 260 335 401
#     4  12  21  39  64  96 131 172 219 275 349 401
#
# _framework density 23.220050000000001
#
# number of rings (size 3 to 8) (size 9 to 14) (size 15 to 20)
#    0.000    1.500    3.750    1.875    1.750    0.000 
#    2.250    8.750    0.000    0.000    0.000    0.000 
#    0.000    0.000    0.000    0.000    0.000    0.000 
#
# Total GULP energy -356993.158458 kJ/mol
# GULP energy per Si atom -5578.018101 kJ/mol
# Density = 2.316720 g / cm^3
# Si number density = 23.220050 Si / 1000 Ang^3
#
#
#
# Elastic Constant Matrix: (Units=GPa)
#
#
# Indices 1 2 3 4 5 6 
#
# 1 66.3673 28.7106 12.8959 0.0000 0.0000 0.0000
# 2 28.7106 157.2102 50.2056 0.0000 0.0000 0.0000
# 3 12.8959 50.2056 62.7297 0.0000 0.0000 0.0000
# 4 0.0000 0.0000 0.0000 43.0890 0.0000 0.0000
# 5 0.0000 0.0000 0.0000 0.0000 23.5104 0.0000
# 6 0.0000 0.0000 0.0000 0.0000 0.0000 29.7101
#
#
#
# Elastic Compliance Matrix: (Units=1/GPa)
#
#
# Indices 1 2 3 4 5 6 
#
# 1 0.016440 -0.002583 -0.001312 0.000000 0.000000 0.000000
# 2 -0.002583 0.008951 -0.006633 0.000000 0.000000 0.000000
# 3 -0.001312 -0.006633 0.021520 0.000000 0.000000 0.000000
# 4 0.000000 0.000000 0.000000 0.023208 0.000000 0.000000
# 5 0.000000 0.000000 0.000000 0.000000 0.042534 0.000000
# 6 0.000000 0.000000 0.000000 0.000000 0.000000 0.033659
#
#
# Mechanical properties :
#
#
# Convention : Reuss Voigt Hill
#
# Bulk Modulus (GPa) = 38.67845 52.21462 45.44654
# Shear Modulus (GPa) = 28.41133 32.22823 30.31978
#
# Velocity S-wave (km/s) = 3.50175 3.72956 3.61745
# Velocity P-wave (km/s) = 5.74832 6.40951 6.08790
#
# Compressibility (1/GPa) = 0.02585419
#
# Stress axis : x y z
#
# Youngs Moduli (GPa) = 60.82652 111.72080 46.46912
#
# Poissons Ratio (x) = 0.28861 0.06098
# Poissons Ratio (y) = 0.15714 0.30822
# Poissons Ratio (z) = 0.07982 0.74102
#
# Static dielectric constant tensor:
#      x y z
#    x 1.899240 0.000000 0.000000 
#    y 0.000000 1.899560 0.000000 
#    z 0.000000 0.000000 2.103840 
# 
# From -- ./inp_files/21063.got.cif
#   From: 2010.05.17/outbox.cif.g08.bks.cpg/sg60_11_cif.got.tgz:21063.got - 2010.06.03 14:59:27.
