data_PCOD9456114
_publ_section_title
;
Structure prediction by ZEFSAII (Michael W. Deem and Ramdas Pophale) SiO2 
 PCOD9456114
Probable space group: P B C N
;
_chemical_formula_sum "Si O2"
_cell_formula_units_Z 40
_cell_length_a 12.929520
_cell_length_b 10.122510
_cell_length_c 14.465305
_cell_angle_alpha 90.000000
_cell_angle_beta 90.000000
_cell_angle_gamma 90.000000
_cell_volume 1893.207481
_symmetry_space_group_name_H-M "P B C N"
_symmetry_group_IT_number 60
_symmetry_cell_setting 'orthorhombic'
loop_
_space_group_symop_operation_xyz
x,y,z
1/2-x,1/2-y,1/2+z
1/2+x,1/2-y,-z
-x,y,1/2-z
-x,-y,-z
1/2+x,1/2+y,1/2-z
1/2-x,1/2+y,z
x,-y,1/2+z
loop_
_atom_site_type_symbol
_atom_site_label
_atom_site_fract_x
_atom_site_fract_y
_atom_site_fract_z
Si Si1 0.000000 0.286740 0.750000
Si Si2 0.848876 0.195215 0.905190
Si Si3 0.000000 0.786740 0.750000
Si Si4 0.690172 0.081942 0.156225
Si Si5 0.151124 0.304785 0.405190
Si Si6 0.309828 0.418058 0.656225
O O1 0.927560 0.205529 0.819443
O O2 0.923258 0.373027 0.687313
O O3 0.753354 0.293504 0.883385
O O4 0.814527 0.043918 0.909831
O O5 0.896479 0.250000 0.000000
O O6 0.072440 0.705529 0.819443
O O7 0.076742 0.873026 0.687313
O O8 0.753354 0.206497 0.116614
O O9 0.750000 0.039886 0.250000
O O10 0.685472 0.956082 0.090169
#
# Coordination Sequence:
#
# PCOD9456114 Si02
#       6
#     4   8   4   8   8   8
#     4  10  22  38  62  88 120 158 198 244 294 350
#     4  11  23  39  62  90 120 157 199 245 296 350
#     4  10  22  38  62  88 120 158 198 244 294 350
#     4  10  21  39  60  85 120 157 196 244 296 351
#     4  11  23  39  62  90 120 157 199 245 296 350
#     4  10  21  39  60  85 120 157 196 244 296 351
#
# _framework density 21.128166
#
# number of rings (size 3 to 8) (size 9 to 14) (size 15 to 20)
#    0.000    1.600    0.000    6.000    0.000    6.400 
#    0.000    0.000    0.000    0.000    0.000    0.000 
#    0.000    0.000    0.000    0.000    0.000    0.000 
#
# Total GULP energy -223585.485970 kJ/mol
# GULP energy per Si atom -5589.637149 kJ/mol
# Density = 2.108008 g / cm^3
# Si number density = 21.128166 Si / 1000 Ang^3
#
#
#
# Elastic Constant Matrix: (Units=GPa)
#
#
# Indices 1 2 3 4 5 6 
#
# 1 99.8996 61.6381 18.1227 0.0000 0.0000 0.0000
# 2 61.6381 101.2521 25.6525 0.0000 0.0000 0.0000
# 3 18.1227 25.6525 69.8316 0.0000 0.0000 0.0000
# 4 0.0000 0.0000 0.0000 20.5612 0.0000 0.0000
# 5 0.0000 0.0000 0.0000 0.0000 25.5486 0.0000
# 6 0.0000 0.0000 0.0000 0.0000 0.0000 -1.1201
#
#
#
# Elastic Compliance Matrix: (Units=1/GPa)
#
#
# Indices 1 2 3 4 5 6 
#
# 1 0.016057 -0.009614 -0.000635 0.000000 0.000000 0.000000
# 2 -0.009614 0.016646 -0.003620 0.000000 0.000000 0.000000
# 3 -0.000635 -0.003620 0.015815 0.000000 0.000000 0.000000
# 4 0.000000 0.000000 0.000000 0.048635 0.000000 0.000000
# 5 0.000000 0.000000 0.000000 0.000000 0.039141 0.000000
# 6 0.000000 0.000000 0.000000 0.000000 0.000000 -0.892747
#
#
# Mechanical properties :
#
#
# Convention : Reuss Voigt Hill
#
# Bulk Modulus (GPa) = 48.12456 53.53442 50.82949
# Shear Modulus (GPa) = -6.92724 20.03595 6.55435
#
# Velocity S-wave (km/s) = -1.81268 3.08280 1.76321
# Velocity P-wave (km/s) = 4.29486 6.16964 5.31556
#
# Compressibility (1/GPa) = 0.02077941
#
# Stress axis : x y z
#
# Youngs Moduli (GPa) = 62.27767 60.07450 63.23177
#
# Poissons Ratio (x) = 0.57755 0.04018
# Poissons Ratio (y) = 0.59873 0.22889
# Poissons Ratio (z) = 0.03958 0.21746
#
# Static dielectric constant tensor:
#      x y z
#    x 1.749990 0.000000 0.000000 
#    y 0.000000 1.728070 0.000000 
#    z 0.000000 0.000000 1.790970 
# 
# From -- ./inp_files/15884.got.cif
#   From: 2010.05.17/outbox.cif.g08.bks.cpg/sg60_8_cif.got.tgz:15884.got - 2010.06.03 14:59:27.
