data_PCOD9456918
_publ_section_title
;
Structure prediction by ZEFSAII (Michael W. Deem and Ramdas Pophale) SiO2 
 PCOD9456918
Probable space group: P B C N
;
_chemical_formula_sum "Si O2"
_cell_formula_units_Z 56
_cell_length_a 20.058141
_cell_length_b 4.981292
_cell_length_c 24.379650
_cell_angle_alpha 90.000000
_cell_angle_beta 90.000000
_cell_angle_gamma 90.000000
_cell_volume 2435.903879
_symmetry_space_group_name_H-M "P B C N"
_symmetry_group_IT_number 60
_symmetry_cell_setting 'orthorhombic'
loop_
_space_group_symop_operation_xyz
x,y,z
1/2-x,1/2-y,1/2+z
1/2+x,1/2-y,-z
-x,y,1/2-z
-x,-y,-z
1/2+x,1/2+y,1/2-z
1/2-x,1/2+y,z
x,-y,1/2+z
loop_
_atom_site_type_symbol
_atom_site_label
_atom_site_fract_x
_atom_site_fract_y
_atom_site_fract_z
Si Si1 0.300316 0.326954 0.557627
Si Si2 0.712072 0.203178 0.825367
Si Si3 0.923547 0.895981 0.492749
Si Si4 0.928167 0.194859 0.768159
Si Si5 0.630983 0.194363 0.722836
Si Si6 0.470634 0.829160 0.616487
Si Si7 0.566260 0.321209 0.613521
O O1 0.246316 0.566381 0.549642
O O2 0.327186 0.301213 0.620748
O O3 0.365628 0.390659 0.521583
O O4 0.777204 0.387886 0.831695
O O5 0.690769 0.268033 0.763562
O O6 0.907567 0.773382 0.552031
O O7 0.930781 0.701812 0.440320
O O8 0.000000 0.000000 0.500000
O O9 0.923408 0.884283 0.752888
O O10 0.000000 0.294337 0.750000
O O11 0.924772 0.259701 0.831949
O O12 0.879198 0.379138 0.732695
O O13 0.621977 0.270747 0.659752
O O14 0.532019 0.613982 0.617412
O O15 0.505405 0.115411 0.622830
#
# Coordination Sequence:
#
# PCOD9456918 Si02
#       7
#     8   8   8   8   8   8   8
#     4  10  23  44  68  93 127 169 222 278 333 393
#     4  10  22  41  63  90 120 161 216 269 322 387
#     4  10  24  43  66  97 131 176 226 276 330 395
#     4  12  21  35  57  88 125 159 203 249 327 395
#     4  12  22  37  60  87 125 165 199 260 324 392
#     4  11  22  37  58  87 127 166 206 261 317 381
#     4  11  22  38  56  88 129 165 202 259 321 388
#
# _framework density 22.989412999999999
#
# number of rings (size 3 to 8) (size 9 to 14) (size 15 to 20)
#    0.000    1.143    2.857    3.429    0.000    8.000 
#    0.000    1.429    0.000    0.000    0.000    0.000 
#    0.000    0.000    0.000    0.000    0.000    0.000 
#
# Total GULP energy -312488.381448 kJ/mol
# GULP energy per Si atom -5580.149669 kJ/mol
# Density = 2.293709 g / cm^3
# Si number density = 22.989413 Si / 1000 Ang^3
#
#
#
# Elastic Constant Matrix: (Units=GPa)
#
#
# Indices 1 2 3 4 5 6 
#
# 1 62.9439 17.3987 14.9266 0.0000 0.0000 0.0000
# 2 17.3987 80.0112 -1.9385 0.0000 0.0000 0.0000
# 3 14.9266 -1.9385 156.6367 0.0000 0.0000 0.0000
# 4 0.0000 0.0000 0.0000 20.6579 0.0000 0.0000
# 5 0.0000 0.0000 0.0000 0.0000 34.2281 0.0000
# 6 0.0000 0.0000 0.0000 0.0000 0.0000 17.6835
#
#
#
# Elastic Compliance Matrix: (Units=1/GPa)
#
#
# Indices 1 2 3 4 5 6 
#
# 1 0.017344 -0.003813 -0.001700 0.000000 0.000000 0.000000
# 2 -0.003813 0.013340 0.000528 0.000000 0.000000 0.000000
# 3 -0.001700 0.000528 0.006553 0.000000 0.000000 0.000000
# 4 0.000000 0.000000 0.000000 0.048408 0.000000 0.000000
# 5 0.000000 0.000000 0.000000 0.000000 0.029216 0.000000
# 6 0.000000 0.000000 0.000000 0.000000 0.000000 0.056550
#
#
# Mechanical properties :
#
#
# Convention : Reuss Voigt Hill
#
# Bulk Modulus (GPa) = 36.67236 40.04059 38.35648
# Shear Modulus (GPa) = 26.25106 32.46090 29.35598
#
# Velocity S-wave (km/s) = 3.38283 3.76173 3.57730
# Velocity P-wave (km/s) = 5.58968 6.02679 5.81235
#
# Compressibility (1/GPa) = 0.02726849
#
# Stress axis : x y z
#
# Youngs Moduli (GPa) = 57.65611 74.96171 152.60791
#
# Poissons Ratio (x) = 0.28581 0.25943
# Poissons Ratio (y) = 0.21983 -0.08064
# Poissons Ratio (z) = 0.09802 -0.03961
#
# Static dielectric constant tensor:
#      x y z
#    x 1.947060 0.000000 0.000000 
#    y 0.000000 1.861390 0.000000 
#    z 0.000000 0.000000 1.909530 
# 
# From -- ./inp_files/24571.got.cif
#   From: 2010.05.17/outbox.cif.g08.bks.cpg/sg60_13_cif.got.tgz:24571.got - 2010.06.03 14:59:27.
