data_PCOD9456475
_publ_section_title
;
Structure prediction by ZEFSAII (Michael W. Deem and Ramdas Pophale) SiO2 
 PCOD9456475
Probable space group: P B C N
;
_chemical_formula_sum "Si O2"
_cell_formula_units_Z 36
_cell_length_a 5.243218
_cell_length_b 24.714420
_cell_length_c 10.952064
_cell_angle_alpha 90.000000
_cell_angle_beta 90.000000
_cell_angle_gamma 90.000000
_cell_volume 1419.202315
_symmetry_space_group_name_H-M "P B C N"
_symmetry_group_IT_number 60
_symmetry_cell_setting 'orthorhombic'
loop_
_space_group_symop_operation_xyz
x,y,z
1/2-x,1/2-y,1/2+z
1/2+x,1/2-y,-z
-x,y,1/2-z
-x,-y,-z
1/2+x,1/2+y,1/2-z
1/2-x,1/2+y,z
x,-y,1/2+z
loop_
_atom_site_type_symbol
_atom_site_label
_atom_site_fract_x
_atom_site_fract_y
_atom_site_fract_z
Si Si1 0.786031 0.079284 0.401258
Si Si2 0.783376 0.431953 0.451029
Si Si3 0.000000 0.513227 0.250000
Si Si4 0.750543 0.801177 0.834595
Si Si5 0.250074 0.816382 0.165310
O O1 0.523959 0.058560 0.462129
O O2 0.732232 0.058451 0.263896
O O3 0.779123 0.144164 0.410298
O O4 0.019507 0.057425 0.479811
O O5 0.848225 0.468175 0.333726
O O6 0.771524 0.368756 0.417546
O O7 0.500000 0.806108 0.750000
O O8 0.735448 0.742519 0.898698
O O9 0.000000 0.800171 0.750000
O O10 0.500000 0.816382 0.250000
O O11 0.000000 0.821571 0.250000
#
# Coordination Sequence:
#
# PCOD9456475 Si02
#       5
#     8   8   4   8   8
#     4  12  27  45  72 105 137 187 245 291 360 427
#     4  12  27  45  72 105 137 187 245 291 360 427
#     4  12  28  50  72  96 154 188 238 304 350 422
#     4  10  21  42  71 101 140 184 226 290 365 422
#     4  10  21  42  71 101 140 184 226 290 365 422
#
# _framework density 25.366364999999998
#
# number of rings (size 3 to 8) (size 9 to 14) (size 15 to 20)
#    0.000    0.889    2.222    4.000    0.000    3.556 
#    0.000    0.000    0.000    0.000    0.000    0.000 
#    0.000    0.000    0.000    0.000    0.000    0.000 
#
# Total GULP energy -200968.390742 kJ/mol
# GULP energy per Si atom -5582.455298 kJ/mol
# Density = 2.530863 g / cm^3
# Si number density = 25.366365 Si / 1000 Ang^3
#
#
#
# Elastic Constant Matrix: (Units=GPa)
#
#
# Indices 1 2 3 4 5 6 
#
# 1 244.7237 33.7945 53.9011 0.0000 0.0000 0.0000
# 2 33.7945 234.8168 30.4365 0.0000 0.0000 0.0000
# 3 53.9011 30.4365 35.0955 0.0000 0.0000 0.0000
# 4 0.0000 0.0000 0.0000 39.7329 0.0000 0.0000
# 5 0.0000 0.0000 0.0000 0.0000 53.6644 0.0000
# 6 0.0000 0.0000 0.0000 0.0000 0.0000 -11.8227
#
#
#
# Elastic Compliance Matrix: (Units=1/GPa)
#
#
# Indices 1 2 3 4 5 6 
#
# 1 0.006206 0.000386 -0.009866 0.000000 0.000000 0.000000
# 2 0.000386 0.004822 -0.004774 0.000000 0.000000 0.000000
# 3 -0.009866 -0.004774 0.047786 0.000000 0.000000 0.000000
# 4 0.000000 0.000000 0.000000 0.025168 0.000000 0.000000
# 5 0.000000 0.000000 0.000000 0.000000 0.018634 0.000000
# 6 0.000000 0.000000 0.000000 0.000000 0.000000 -0.084583
#
#
# Mechanical properties :
#
#
# Convention : Reuss Voigt Hill
#
# Bulk Modulus (GPa) = 32.99712 83.43334 58.21523
# Shear Modulus (GPa) = 88.27069 42.74851 65.50960
#
# Velocity S-wave (km/s) = 5.90541 4.10963 5.08738
# Velocity P-wave (km/s) = 7.71589 7.44859 7.58342
#
# Compressibility (1/GPa) = 0.03030567
#
# Stress axis : x y z
#
# Youngs Moduli (GPa) = 161.13561 207.38499 20.92651
#
# Poissons Ratio (x) = -0.07997 0.20646
# Poissons Ratio (y) = -0.06214 0.09991
# Poissons Ratio (z) = 1.58973 0.99008
#
# Static dielectric constant tensor:
#      x y z
#    x 1.909890 0.000000 0.000000 
#    y 0.000000 2.028810 0.000000 
#    z 0.000000 0.000000 2.202180 
# 
# From -- ./inp_files/8944.got.cif
#   From: 2010.05.17/outbox.cif.g08.bks.cpg/sg60_5_cif.got.tgz:8944.got - 2010.06.03 14:59:27.
