data_PCOD9456207
_publ_section_title
;
Structure prediction by ZEFSAII (Michael W. Deem and Ramdas Pophale) SiO2 
 PCOD9456207
Probable space group: P B C N
;
_chemical_formula_sum "Si O2"
_cell_formula_units_Z 36
_cell_length_a 4.873957
_cell_length_b 24.149047
_cell_length_c 11.377058
_cell_angle_alpha 90.000000
_cell_angle_beta 90.000000
_cell_angle_gamma 90.000000
_cell_volume 1339.095844
_symmetry_space_group_name_H-M "P B C N"
_symmetry_group_IT_number 60
_symmetry_cell_setting 'orthorhombic'
loop_
_space_group_symop_operation_xyz
x,y,z
1/2-x,1/2-y,1/2+z
1/2+x,1/2-y,-z
-x,y,1/2-z
-x,-y,-z
1/2+x,1/2+y,1/2-z
1/2-x,1/2+y,z
x,-y,1/2+z
loop_
_atom_site_type_symbol
_atom_site_label
_atom_site_fract_x
_atom_site_fract_y
_atom_site_fract_z
Si Si1 0.379638 0.251388 0.419068
Si Si2 0.085929 0.024421 0.624785
Si Si3 0.751726 0.632678 0.097579
Si Si4 0.500000 0.035924 0.250000
Si Si5 0.741952 0.369334 0.064249
O O1 0.191515 0.246441 0.537304
O O2 0.319231 0.193974 0.355078
O O3 0.292345 0.310752 0.369303
O O4 0.000000 0.998660 0.750000
O O5 0.918920 0.081955 0.628222
O O6 0.401785 0.006456 0.645835
O O7 0.000000 0.000000 0.500000
O O8 0.818797 0.582020 0.180132
O O9 0.438253 0.634147 0.055845
O O10 0.947649 0.623936 0.981439
#
# Coordination Sequence:
#
# PCOD9456207 Si02
#       5
#     8   8   8   4   8
#     4   8  16  34  62  93 129 178 227 293 358 425
#     4  12  27  46  70 103 145 192 242 299 363 438
#     4  10  21  39  67  99 134 185 236 296 360 439
#     4  12  26  40  70  98 146 188 250 292 368 438
#     4  10  21  41  67  95 140 179 239 295 367 422
#
# _framework density 26.883807999999998
#
# number of rings (size 3 to 8) (size 9 to 14) (size 15 to 20)
#    0.000    1.778    2.222    1.333    3.111    1.778 
#    2.000    0.000    0.000    0.000    0.000    0.000 
#    0.000    0.000    0.000    0.000    0.000    0.000 
#
# Total GULP energy -200740.606491 kJ/mol
# GULP energy per Si atom -5576.127958 kJ/mol
# Density = 2.682262 g / cm^3
# Si number density = 26.883808 Si / 1000 Ang^3
#
#
#
# Elastic Constant Matrix: (Units=GPa)
#
#
# Indices 1 2 3 4 5 6 
#
# 1 99.8771 24.5494 19.9026 0.0000 0.0000 0.0000
# 2 24.5494 223.5814 32.0967 0.0000 0.0000 0.0000
# 3 19.9026 32.0967 99.1817 0.0000 0.0000 0.0000
# 4 0.0000 0.0000 0.0000 23.5718 0.0000 0.0000
# 5 0.0000 0.0000 0.0000 0.0000 25.0680 0.0000
# 6 0.0000 0.0000 0.0000 0.0000 0.0000 40.3712
#
#
#
# Elastic Compliance Matrix: (Units=1/GPa)
#
#
# Indices 1 2 3 4 5 6 
#
# 1 0.010599 -0.000900 -0.001836 0.000000 0.000000 0.000000
# 2 -0.000900 0.004767 -0.001362 0.000000 0.000000 0.000000
# 3 -0.001836 -0.001362 0.010892 0.000000 0.000000 0.000000
# 4 0.000000 0.000000 0.000000 0.042424 0.000000 0.000000
# 5 0.000000 0.000000 0.000000 0.000000 0.039892 0.000000
# 6 0.000000 0.000000 0.000000 0.000000 0.000000 0.024770
#
#
# Mechanical properties :
#
#
# Convention : Reuss Voigt Hill
#
# Bulk Modulus (GPa) = 55.36434 63.97085 59.66759
# Shear Modulus (GPa) = 33.88457 40.87497 37.37977
#
# Velocity S-wave (km/s) = 3.55407 3.90350 3.73288
# Velocity P-wave (km/s) = 6.12214 6.64555 6.38921
#
# Compressibility (1/GPa) = 0.01806217
#
# Stress axis : x y z
#
# Youngs Moduli (GPa) = 94.34515 209.77444 91.81373
#
# Poissons Ratio (x) = 0.18886 0.16853
# Poissons Ratio (y) = 0.08494 0.12505
# Poissons Ratio (z) = 0.17318 0.28572
#
# Static dielectric constant tensor:
#      x y z
#    x 1.171720 0.000000 0.000000 
#    y 0.000000 2.196880 0.000000 
#    z 0.000000 0.000000 2.048800 
# 
# From -- ./inp_files/8946.got.cif
#   From: 2010.05.17/outbox.cif.g08.bks.cpg/sg60_5_cif.got.tgz:8946.got - 2010.06.03 14:59:27.
