data_PCOD9456097
_publ_section_title
;
Structure prediction by ZEFSAII (Michael W. Deem and Ramdas Pophale) SiO2 
 PCOD9456097
Probable space group: P B C N
;
_chemical_formula_sum "Si O2"
_cell_formula_units_Z 52
_cell_length_a 8.080048
_cell_length_b 14.195085
_cell_length_c 20.074643
_cell_angle_alpha 90.000000
_cell_angle_beta 90.000000
_cell_angle_gamma 90.000000
_cell_volume 2302.500689
_symmetry_space_group_name_H-M "P B C N"
_symmetry_group_IT_number 60
_symmetry_cell_setting 'orthorhombic'
loop_
_space_group_symop_operation_xyz
x,y,z
1/2-x,1/2-y,1/2+z
1/2+x,1/2-y,-z
-x,y,1/2-z
-x,-y,-z
1/2+x,1/2+y,1/2-z
1/2-x,1/2+y,z
x,-y,1/2+z
loop_
_atom_site_type_symbol
_atom_site_label
_atom_site_fract_x
_atom_site_fract_y
_atom_site_fract_z
Si Si1 0.964301 0.980912 0.920521
Si Si2 0.464301 0.980912 0.420521
Si Si3 0.846588 0.641278 0.367516
Si Si4 0.666016 0.189123 0.933681
Si Si5 0.000000 0.250000 0.750000
Si Si6 0.653412 0.358722 0.132484
Si Si7 0.333984 0.310877 0.933681
O O1 0.796130 0.930205 0.895585
O O2 0.097234 0.901930 0.896334
O O3 0.992584 0.081665 0.887371
O O4 0.000000 0.000000 0.000000
O O5 0.597234 0.901930 0.396334
O O6 0.296130 0.930205 0.395585
O O7 0.500000 0.000000 0.500000
O O8 0.492584 0.081665 0.387371
O O9 0.794505 0.737693 0.403237
O O10 0.883154 0.680569 0.293755
O O11 0.500000 0.250000 0.948848
O O12 0.750000 0.152822 0.000000
O O13 0.116846 0.180569 0.793755
O O14 0.705495 0.262307 0.096763
#
# Coordination Sequence:
#
# PCOD9456097 Si02
#       7
#     8   8   8   8   4   8   8
#     4  11  23  44  76 115 144 185 248 330 402 438
#     4  11  23  44  76 115 144 185 248 330 402 438
#     4  11  26  46  69 106 148 201 256 301 376 465
#     4  10  21  38  68 108 147 184 235 318 389 440
#     4  12  32  48  70 100 154 224 254 290 364 468
#     4  11  26  46  69 106 148 201 256 301 376 465
#     4  10  21  38  68 108 147 184 235 318 389 440
#
# _framework density 22.584142
#
# number of rings (size 3 to 8) (size 9 to 14) (size 15 to 20)
#    0.000    1.231    0.000    6.462   10.769    1.231 
#    0.000    5.385    0.000    0.000    0.000    0.000 
#    0.000    0.000    0.000    0.000    0.000    0.000 
#
# Total GULP energy -289558.891266 kJ/mol
# GULP energy per Si atom -5568.440217 kJ/mol
# Density = 2.253274 g / cm^3
# Si number density = 22.584142 Si / 1000 Ang^3
#
#
#
# Elastic Constant Matrix: (Units=GPa)
#
#
# Indices 1 2 3 4 5 6 
#
# 1 88.2071 71.9001 34.5728 0.0000 0.0000 0.0000
# 2 71.9001 173.3890 35.1580 0.0000 0.0000 0.0000
# 3 34.5728 35.1580 95.2889 0.0000 0.0000 0.0000
# 4 0.0000 0.0000 0.0000 45.0069 0.0000 0.0000
# 5 0.0000 0.0000 0.0000 0.0000 23.7444 0.0000
# 6 0.0000 0.0000 0.0000 0.0000 0.0000 73.6553
#
#
#
# Elastic Compliance Matrix: (Units=1/GPa)
#
#
# Indices 1 2 3 4 5 6 
#
# 1 0.018567 -0.006846 -0.004211 0.000000 0.000000 0.000000
# 2 -0.006846 0.008758 -0.000748 0.000000 0.000000 0.000000
# 3 -0.004211 -0.000748 0.012298 0.000000 0.000000 0.000000
# 4 0.000000 0.000000 0.000000 0.022219 0.000000 0.000000
# 5 0.000000 0.000000 0.000000 0.000000 0.042115 0.000000
# 6 0.000000 0.000000 0.000000 0.000000 0.000000 0.013577
#
#
# Mechanical properties :
#
#
# Convention : Reuss Voigt Hill
#
# Bulk Modulus (GPa) = 62.44110 71.12741 66.78426
# Shear Modulus (GPa) = 34.13428 42.83159 38.48294
#
# Velocity S-wave (km/s) = 3.89193 4.35965 4.13241
# Velocity P-wave (km/s) = 6.92130 7.54353 7.23910
#
# Compressibility (1/GPa) = 0.01601509
#
# Stress axis : x y z
#
# Youngs Moduli (GPa) = 53.85757 114.18563 81.31404
#
# Poissons Ratio (x) = 0.78167 0.34240
# Poissons Ratio (y) = 0.36869 0.06078
# Poissons Ratio (z) = 0.22679 0.08535
#
# Static dielectric constant tensor:
#      x y z
#    x 1.983600 0.000000 0.000000 
#    y 0.000000 1.824010 0.000000 
#    z 0.000000 0.000000 1.838190 
# 
# From -- ./inp_files/22166.got.cif
#   From: 2010.05.17/outbox.cif.g08.bks.cpg/sg60_12_cif.got.tgz:22166.got - 2010.06.03 14:59:27.
