data_PCOD9456003
_publ_section_title
;
Structure prediction by ZEFSAII (Michael W. Deem and Ramdas Pophale) SiO2 
 PCOD9456003
Probable space group: P B C N
;
_chemical_formula_sum "Si O2"
_cell_formula_units_Z 64
_cell_length_a 22.375100
_cell_length_b 8.306313
_cell_length_c 13.999436
_cell_angle_alpha 90.000000
_cell_angle_beta 90.000000
_cell_angle_gamma 90.000000
_cell_volume 2601.859354
_symmetry_space_group_name_H-M "P B C N"
_symmetry_group_IT_number 60
_symmetry_cell_setting 'orthorhombic'
loop_
_space_group_symop_operation_xyz
x,y,z
1/2-x,1/2-y,1/2+z
1/2+x,1/2-y,-z
-x,y,1/2-z
-x,-y,-z
1/2+x,1/2+y,1/2-z
1/2-x,1/2+y,z
x,-y,1/2+z
loop_
_atom_site_type_symbol
_atom_site_label
_atom_site_fract_x
_atom_site_fract_y
_atom_site_fract_z
Si Si1 0.734582 0.456870 0.723695
Si Si2 0.730361 0.203525 0.871188
Si Si3 0.632755 0.423071 0.584351
Si Si4 0.559206 0.773043 0.310891
Si Si5 0.389672 0.087730 0.524498
Si Si6 0.365051 0.945102 0.335273
Si Si7 0.431585 0.413557 0.258933
Si Si8 0.859440 0.754894 0.400497
O O1 0.713779 0.290260 0.771119
O O2 0.734951 0.554894 0.822419
O O3 0.691823 0.494915 0.635334
O O4 0.801158 0.473812 0.684666
O O5 0.788823 0.287006 0.915764
O O6 0.674662 0.164874 0.939546
O O7 0.582339 0.532585 0.632638
O O8 0.630006 0.405654 0.471468
O O9 0.633259 0.234034 0.616482
O O10 0.500000 0.795629 0.250000
O O11 0.576046 0.588034 0.292827
O O12 0.559494 0.810818 0.422471
O O13 0.603353 0.904617 0.264030
O O14 0.392046 0.905628 0.564288
O O15 0.394898 0.066119 0.411261
O O16 0.500000 0.358605 0.250000
O O17 0.384708 0.299004 0.204365
#
# Coordination Sequence:
#
# PCOD9456003 Si02
#       8
#     8   8   8   8   8   8   8   8
#     4  12  20  38  61  85 121 158 193 237 297 358
#     4  12  21  36  61  86 118 156 192 240 295 354
#     4  10  21  38  59  85 123 159 194 250 306 359
#     4  10  21  41  63  84 115 158 204 253 306 359
#     4  11  23  39  60  89 122 158 200 246 301 364
#     4  10  21  39  60  87 121 159 198 244 303 363
#     4  10  22  41  63  85 115 160 208 254 305 359
#     4  11  23  38  59  89 121 157 199 248 304 359
#
# _framework density 24.597794
#
# number of rings (size 3 to 8) (size 9 to 14) (size 15 to 20)
#    0.000    1.250    5.000    1.500    0.000    1.500 
#    2.250    0.000    0.000    0.000    0.000    0.000 
#    0.000    0.000    0.000    0.000    0.000    0.000 
#
# Total GULP energy -356916.728918 kJ/mol
# GULP energy per Si atom -5576.823889 kJ/mol
# Density = 2.454181 g / cm^3
# Si number density = 24.597794 Si / 1000 Ang^3
#
#
#
# Elastic Constant Matrix: (Units=GPa)
#
#
# Indices 1 2 3 4 5 6 
#
# 1 66.1814 -2.7285 -13.2017 0.0000 0.0000 0.0000
# 2 -2.7285 23.1342 -13.5483 0.0000 0.0000 0.0000
# 3 -13.2017 -13.5483 57.3275 0.0000 0.0000 0.0000
# 4 0.0000 0.0000 0.0000 24.3697 0.0000 0.0000
# 5 0.0000 0.0000 0.0000 0.0000 24.4154 0.0000
# 6 0.0000 0.0000 0.0000 0.0000 0.0000 16.9532
#
#
#
# Elastic Compliance Matrix: (Units=1/GPa)
#
#
# Indices 1 2 3 4 5 6 
#
# 1 0.016280 0.004777 0.004878 0.000000 0.000000 0.000000
# 2 0.004777 0.051572 0.013288 0.000000 0.000000 0.000000
# 3 0.004878 0.013288 0.021707 0.000000 0.000000 0.000000
# 4 0.000000 0.000000 0.000000 0.041035 0.000000 0.000000
# 5 0.000000 0.000000 0.000000 0.000000 0.040958 0.000000
# 6 0.000000 0.000000 0.000000 0.000000 0.000000 0.058986
#
#
# Mechanical properties :
#
#
# Convention : Reuss Voigt Hill
#
# Bulk Modulus (GPa) = 7.38311 9.74290 8.56301
# Shear Modulus (GPa) = 21.75808 24.88909 23.32358
#
# Velocity S-wave (km/s) = 2.97737 3.18440 3.08262
# Velocity P-wave (km/s) = 3.85068 4.18211 4.01981
#
# Compressibility (1/GPa) = 0.13544431
#
# Stress axis : x y z
#
# Youngs Moduli (GPa) = 61.42521 19.39055 46.06738
#
# Poissons Ratio (x) = -0.09263 -0.22471
# Poissons Ratio (y) = -0.29342 -0.61214
# Poissons Ratio (z) = -0.29963 -0.25766
#
# Static dielectric constant tensor:
#      x y z
#    x 2.040000 0.000000 0.000000 
#    y 0.000000 2.323870 0.000000 
#    z 0.000000 0.000000 1.985990 
# 
# From -- ./inp_files/17943.got.cif
#   From: 2010.05.17/outbox.cif.g08.bks.cpg/sg60_9_cif.got.tgz:17943.got - 2010.06.03 14:59:27.
