data_PCOD9456252
_publ_section_title
;
Structure prediction by ZEFSAII (Michael W. Deem and Ramdas Pophale) SiO2 
 PCOD9456252
Probable space group: P B C N
;
_chemical_formula_sum "Si O2"
_cell_formula_units_Z 48
_cell_length_a 7.867430
_cell_length_b 20.491446
_cell_length_c 13.731352
_cell_angle_alpha 90.000000
_cell_angle_beta 90.000000
_cell_angle_gamma 90.000000
_cell_volume 2213.700146
_symmetry_space_group_name_H-M "P B C N"
_symmetry_group_IT_number 60
_symmetry_cell_setting 'orthorhombic'
loop_
_space_group_symop_operation_xyz
x,y,z
1/2-x,1/2-y,1/2+z
1/2+x,1/2-y,-z
-x,y,1/2-z
-x,-y,-z
1/2+x,1/2+y,1/2-z
1/2-x,1/2+y,z
x,-y,1/2+z
loop_
_atom_site_type_symbol
_atom_site_label
_atom_site_fract_x
_atom_site_fract_y
_atom_site_fract_z
Si Si1 0.688408 0.104812 0.219358
Si Si2 0.803324 0.160048 0.776709
Si Si3 0.129088 0.299266 0.040901
Si Si4 0.662558 0.270041 0.645375
Si Si5 0.824880 0.019910 0.813512
Si Si6 0.360304 0.056500 0.498067
O O1 0.500000 0.128413 0.250000
O O2 0.815094 0.165791 0.210913
O O3 0.736122 0.048697 0.295174
O O4 0.693661 0.070266 0.113133
O O5 0.783462 0.188455 0.884964
O O6 0.697337 0.206698 0.708539
O O7 0.740519 0.085491 0.769559
O O8 0.000000 0.160863 0.750000
O O9 0.059087 0.373545 0.031081
O O10 0.008701 0.245340 0.087752
O O11 0.192930 0.278036 0.936178
O O12 0.796325 0.036681 0.929112
O O13 0.000000 0.015132 0.750000
O O14 0.500000 0.000000 0.500000
#
# Coordination Sequence:
#
# PCOD9456252 Si02
#       6
#     8   8   8   8   8   8
#     4  11  23  40  65  95 131 171 220 280 338 406
#     4  10  21  40  63  86 124 168 210 264 327 397
#     4  10  23  40  62  92 127 171 218 266 333 403
#     4  11  23  40  61  92 127 166 218 269 332 396
#     4  10  23  41  63  96 131 167 220 279 337 404
#     4  10  21  41  66  93 127 174 223 271 341 416
#
# _framework density 21.683152
#
# number of rings (size 3 to 8) (size 9 to 14) (size 15 to 20)
#    0.000    1.667    1.667    2.000    2.333    4.667 
#    3.000    0.000    0.000    0.000    0.000    0.000 
#    0.000    0.000    0.000    0.000    0.000    0.000 
#
# Total GULP energy -267628.569272 kJ/mol
# GULP energy per Si atom -5575.595193 kJ/mol
# Density = 2.163380 g / cm^3
# Si number density = 21.683152 Si / 1000 Ang^3
#
#
#
# Elastic Constant Matrix: (Units=GPa)
#
#
# Indices 1 2 3 4 5 6 
#
# 1 60.4390 29.9250 16.4429 0.0000 0.0000 0.0000
# 2 29.9250 108.5488 19.5551 0.0000 0.0000 0.0000
# 3 16.4429 19.5551 80.0463 0.0000 0.0000 0.0000
# 4 0.0000 0.0000 0.0000 -43.7559 0.0000 0.0000
# 5 0.0000 0.0000 0.0000 0.0000 36.3379 0.0000
# 6 0.0000 0.0000 0.0000 0.0000 0.0000 15.4302
#
#
#
# Elastic Compliance Matrix: (Units=1/GPa)
#
#
# Indices 1 2 3 4 5 6 
#
# 1 0.019766 -0.004935 -0.002855 0.000000 0.000000 0.000000
# 2 -0.004935 0.010869 -0.001641 0.000000 0.000000 0.000000
# 3 -0.002855 -0.001641 0.013480 0.000000 0.000000 0.000000
# 4 0.000000 0.000000 0.000000 -0.022854 0.000000 0.000000
# 5 0.000000 0.000000 0.000000 0.000000 0.027519 0.000000
# 6 0.000000 0.000000 0.000000 0.000000 0.000000 0.064808
#
#
# Mechanical properties :
#
#
# Convention : Reuss Voigt Hill
#
# Bulk Modulus (GPa) = 39.59992 42.32000 40.95996
# Shear Modulus (GPa) = 35.49443 13.80984 24.65213
#
# Velocity S-wave (km/s) = 4.05032 2.52641 3.37549
# Velocity P-wave (km/s) = 6.33846 5.29813 5.84150
#
# Compressibility (1/GPa) = 0.02525258
#
# Stress axis : x y z
#
# Youngs Moduli (GPa) = 50.59299 92.00826 74.18304
#
# Poissons Ratio (x) = 0.45404 0.21177
# Poissons Ratio (y) = 0.24966 0.12177
# Poissons Ratio (z) = 0.14442 0.15103
#
# Static dielectric constant tensor:
#      x y z
#    x 1.775750 0.000000 0.000000 
#    y 0.000000 1.785020 0.000000 
#    z 0.000000 0.000000 1.980140 
# 
# From -- ./inp_files/14973.got.cif
#   From: 2010.05.17/outbox.cif.g08.bks.cpg/sg60_8_cif.got.tgz:14973.got - 2010.06.03 14:59:27.
