data_PCOD9456946
_publ_section_title
;
Structure prediction by ZEFSAII (Michael W. Deem and Ramdas Pophale) SiO2 
 PCOD9456946
Probable space group: P B C N
;
_chemical_formula_sum "Si O2"
_cell_formula_units_Z 44
_cell_length_a 8.293825
_cell_length_b 27.971478
_cell_length_c 9.003248
_cell_angle_alpha 90.000000
_cell_angle_beta 90.000000
_cell_angle_gamma 90.000000
_cell_volume 2088.668397
_symmetry_space_group_name_H-M "P B C N"
_symmetry_group_IT_number 60
_symmetry_cell_setting 'orthorhombic'
loop_
_space_group_symop_operation_xyz
x,y,z
1/2-x,1/2-y,1/2+z
1/2+x,1/2-y,-z
-x,y,1/2-z
-x,-y,-z
1/2+x,1/2+y,1/2-z
1/2-x,1/2+y,z
x,-y,1/2+z
loop_
_atom_site_type_symbol
_atom_site_label
_atom_site_fract_x
_atom_site_fract_y
_atom_site_fract_z
Si Si1 0.373638 0.035360 0.426935
Si Si2 0.889756 0.721725 0.605014
Si Si3 0.307316 0.640265 0.744924
Si Si4 0.189079 0.965739 0.219317
Si Si5 0.000000 0.620259 0.250000
Si Si6 0.684946 0.183738 0.063538
O O1 0.230760 0.040912 0.546348
O O2 0.471937 0.083077 0.384975
O O3 0.500000 0.000000 0.500000
O O4 0.292799 0.008884 0.286722
O O5 0.767588 0.679237 0.645326
O O6 0.801454 0.771216 0.575817
O O7 0.000000 0.728162 0.750000
O O8 0.008914 0.704625 0.476562
O O9 0.500000 0.643133 0.750000
O O10 0.261481 0.585905 0.786921
O O11 0.243918 0.653205 0.579131
O O12 0.000000 0.973287 0.250000
O O13 0.154929 0.653725 0.285675
#
# Coordination Sequence:
#
# PCOD9456946 Si02
#       6
#     8   8   8   8   4   8
#     4  12  24  44  67  96 133 180 223 275 331 400
#     4  10  24  40  66  91 125 173 209 268 328 390
#     4  10  22  41  65  93 122 166 215 265 328 397
#     4  11  24  43  68  97 133 170 221 279 337 393
#     4  12  26  40  66  98 134 172 230 272 332 400
#     4  11  24  42  63  94 132 165 222 268 332 394
#
# _framework density 21.066053
#
# number of rings (size 3 to 8) (size 9 to 14) (size 15 to 20)
#    0.000    1.091    3.636    1.636    8.909    1.455 
#    0.000    0.909    0.000    0.000    0.000    0.000 
#    0.000    0.000    0.000    0.000    0.000    0.000 
#
# Total GULP energy -245533.294049 kJ/mol
# GULP energy per Si atom -5580.302137 kJ/mol
# Density = 2.101811 g / cm^3
# Si number density = 21.066053 Si / 1000 Ang^3
#
#
#
# Elastic Constant Matrix: (Units=GPa)
#
#
# Indices 1 2 3 4 5 6 
#
# 1 79.4251 35.8602 25.5745 0.0000 0.0000 0.0000
# 2 35.8602 95.0456 16.3870 0.0000 0.0000 0.0000
# 3 25.5745 16.3870 63.4246 0.0000 0.0000 0.0000
# 4 0.0000 0.0000 0.0000 2.5873 0.0000 0.0000
# 5 0.0000 0.0000 0.0000 0.0000 21.8568 0.0000
# 6 0.0000 0.0000 0.0000 0.0000 0.0000 -6.6178
#
#
#
# Elastic Compliance Matrix: (Units=1/GPa)
#
#
# Indices 1 2 3 4 5 6 
#
# 1 0.016753 -0.005397 -0.005361 0.000000 0.000000 0.000000
# 2 -0.005397 0.012750 -0.001118 0.000000 0.000000 0.000000
# 3 -0.005361 -0.001118 0.018217 0.000000 0.000000 0.000000
# 4 0.000000 0.000000 0.000000 0.386503 0.000000 0.000000
# 5 0.000000 0.000000 0.000000 0.000000 0.045752 0.000000
# 6 0.000000 0.000000 0.000000 0.000000 0.000000 -0.151108
#
#
# Mechanical properties :
#
#
# Convention : Reuss Voigt Hill
#
# Bulk Modulus (GPa) = 41.72038 43.72653 42.72346
# Shear Modulus (GPa) = 13.86542 14.23684 14.05113
#
# Velocity S-wave (km/s) = 2.56830 2.60247 2.58544
# Velocity P-wave (km/s) = 5.35186 5.46191 5.40716
#
# Compressibility (1/GPa) = 0.02396910
#
# Stress axis : x y z
#
# Youngs Moduli (GPa) = 59.68989 78.43037 54.89256
#
# Poissons Ratio (x) = 0.42326 0.29428
# Poissons Ratio (y) = 0.32212 0.06138
# Poissons Ratio (z) = 0.32000 0.08770
#
# Static dielectric constant tensor:
#      x y z
#    x 1.701770 0.000000 0.000000 
#    y 0.000000 1.798450 0.000000 
#    z 0.000000 0.000000 1.804640 
# 
# From -- ./inp_files/4127.got.cif
#   From: 2010.05.17/outbox.cif.g08.bks.cpg/sg60_3_cif.got.tgz:4127.got - 2010.06.03 14:59:27.
