data_PCOD9456358
_publ_section_title
;
Structure prediction by ZEFSAII (Michael W. Deem and Ramdas Pophale) SiO2 
 PCOD9456358
Probable space group: P B C N
;
_chemical_formula_sum "Si O2"
_cell_formula_units_Z 64
_cell_length_a 12.725860
_cell_length_b 20.904786
_cell_length_c 9.176141
_cell_angle_alpha 90.000000
_cell_angle_beta 90.000000
_cell_angle_gamma 90.000000
_cell_volume 2441.141453
_symmetry_space_group_name_H-M "P B C N"
_symmetry_group_IT_number 60
_symmetry_cell_setting 'orthorhombic'
loop_
_space_group_symop_operation_xyz
x,y,z
1/2-x,1/2-y,1/2+z
1/2+x,1/2-y,-z
-x,y,1/2-z
-x,-y,-z
1/2+x,1/2+y,1/2-z
1/2-x,1/2+y,z
x,-y,1/2+z
loop_
_atom_site_type_symbol
_atom_site_label
_atom_site_fract_x
_atom_site_fract_y
_atom_site_fract_z
Si Si1 0.293866 0.227001 0.713371
Si Si2 0.560719 0.324210 0.609977
Si Si3 0.141322 0.036286 0.094559
Si Si4 0.455184 0.588648 0.608108
Si Si5 0.666454 0.104234 0.638165
Si Si6 0.486552 0.930249 0.925681
Si Si7 0.347538 0.697392 0.940938
Si Si8 0.723634 0.035871 0.146066
O O1 0.367395 0.271633 0.815763
O O2 0.291111 0.257143 0.556793
O O3 0.343994 0.156854 0.735435
O O4 0.177900 0.224500 0.782750
O O5 0.500000 0.354593 0.750000
O O6 0.619919 0.370958 0.497963
O O7 0.464927 0.302609 0.503881
O O8 0.212570 0.067366 0.220674
O O9 0.094827 0.973997 0.177731
O O10 0.044174 0.067311 0.008308
O O11 0.208996 0.998280 0.976964
O O12 0.500000 0.623922 0.750000
O O13 0.574107 0.108721 0.516855
O O14 0.777312 0.130852 0.564925
O O15 0.669745 0.032063 0.701600
O O16 0.500000 0.929556 0.750000
O O17 0.361792 0.918482 0.927554
O O18 0.500000 0.000000 0.000000
#
# Coordination Sequence:
#
# PCOD9456358 Si02
#       8
#     8   8   8   8   8   8   8   8
#     4   9  21  42  65  95 128 169 224 276 339 398
#     4  10  22  40  65  94 129 172 217 278 337 393
#     4  11  24  39  60  97 127 174 218 274 331 407
#     4  11  24  41  62  91 135 171 220 276 337 401
#     4   9  21  41  66  91 132 173 221 278 335 401
#     4  10  21  41  64  92 132 177 221 270 328 401
#     4   9  20  41  66  88 133 168 213 287 332 395
#     4  11  21  40  67  91 135 174 222 270 337 405
#
# _framework density 26.217241999999999
#
# number of rings (size 3 to 8) (size 9 to 14) (size 15 to 20)
#    0.750    1.250    1.250    2.250    1.750    2.000 
#    4.500   11.250    0.000    0.000    0.000    0.000 
#    0.000    0.000    0.000    0.000    0.000    0.000 
#
# Total GULP energy -356870.839562 kJ/mol
# GULP energy per Si atom -5576.106868 kJ/mol
# Density = 2.615757 g / cm^3
# Si number density = 26.217242 Si / 1000 Ang^3
#
#
#
# Elastic Constant Matrix: (Units=GPa)
#
#
# Indices 1 2 3 4 5 6 
#
# 1 90.6430 1.8502 10.2028 0.0000 0.0000 0.0000
# 2 1.8502 53.5490 9.4533 0.0000 0.0000 0.0000
# 3 10.2028 9.4533 115.0657 0.0000 0.0000 0.0000
# 4 0.0000 0.0000 0.0000 39.0163 0.0000 0.0000
# 5 0.0000 0.0000 0.0000 0.0000 46.3690 0.0000
# 6 0.0000 0.0000 0.0000 0.0000 0.0000 27.2202
#
#
#
# Elastic Compliance Matrix: (Units=1/GPa)
#
#
# Indices 1 2 3 4 5 6 
#
# 1 0.011146 -0.000214 -0.000971 0.000000 0.000000 0.000000
# 2 -0.000214 0.018953 -0.001538 0.000000 0.000000 0.000000
# 3 -0.000971 -0.001538 0.008903 0.000000 0.000000 0.000000
# 4 0.000000 0.000000 0.000000 0.025630 0.000000 0.000000
# 5 0.000000 0.000000 0.000000 0.000000 0.021566 0.000000
# 6 0.000000 0.000000 0.000000 0.000000 0.000000 0.036737
#
#
# Mechanical properties :
#
#
# Convention : Reuss Voigt Hill
#
# Bulk Modulus (GPa) = 29.79988 33.58556 31.69272
# Shear Modulus (GPa) = 35.82499 38.37119 37.09809
#
# Velocity S-wave (km/s) = 3.70059 3.82983 3.76576
# Velocity P-wave (km/s) = 5.44521 5.69167 5.56980
#
# Compressibility (1/GPa) = 0.03355719
#
# Stress axis : x y z
#
# Youngs Moduli (GPa) = 89.71888 52.76090 112.31999
#
# Poissons Ratio (x) = 0.01128 0.10903
# Poissons Ratio (y) = 0.01918 0.17277
# Poissons Ratio (z) = 0.08709 0.08116
#
# Static dielectric constant tensor:
#      x y z
#    x 2.324510 0.000000 0.000000 
#    y 0.000000 2.305780 0.000000 
#    z 0.000000 0.000000 2.034350 
# 
# From -- ./inp_files/6297.got.cif
#   From: 2010.05.17/outbox.cif.g08.bks.cpg/sg60_4_cif.got.tgz:6297.got - 2010.06.03 14:59:27.
