data_PCOD9456446
_publ_section_title
;
Structure prediction by ZEFSAII (Michael W. Deem and Ramdas Pophale) SiO2 
 PCOD9456446
Probable space group: P B C N
;
_chemical_formula_sum "Si O2"
_cell_formula_units_Z 40
_cell_length_a 9.126682
_cell_length_b 10.834006
_cell_length_c 15.847702
_cell_angle_alpha 90.000000
_cell_angle_beta 90.000000
_cell_angle_gamma 90.000000
_cell_volume 1566.997439
_symmetry_space_group_name_H-M "P B C N"
_symmetry_group_IT_number 60
_symmetry_cell_setting 'orthorhombic'
loop_
_space_group_symop_operation_xyz
x,y,z
1/2-x,1/2-y,1/2+z
1/2+x,1/2-y,-z
-x,y,1/2-z
-x,-y,-z
1/2+x,1/2+y,1/2-z
1/2-x,1/2+y,z
x,-y,1/2+z
loop_
_atom_site_type_symbol
_atom_site_label
_atom_site_fract_x
_atom_site_fract_y
_atom_site_fract_z
Si Si1 0.332496 0.732940 0.738051
Si Si2 0.180231 0.889437 0.064413
Si Si3 0.076056 0.767038 0.490611
Si Si4 0.934618 0.307222 0.159965
Si Si5 0.407664 0.059961 0.117200
O O1 0.500000 0.699128 0.750000
O O2 0.281371 0.647375 0.661016
O O3 0.237123 0.711946 0.821242
O O4 0.338967 0.870841 0.698463
O O5 0.261096 0.783843 0.008398
O O6 0.275251 0.012982 0.056873
O O7 0.006115 0.884301 0.051479
O O8 0.006408 0.768010 0.584614
O O9 0.003171 0.658476 0.433932
O O10 0.000000 0.267358 0.250000
O O11 0.984943 0.447715 0.141658
#
# Coordination Sequence:
#
# PCOD9456446 Si02
#       5
#     8   8   8   8   8
#     4  11  24  39  67  98 132 177 227 278 336 401
#     4  10  21  42  64  95 131 173 224 273 327 415
#     4  10  22  39  69  93 131 184 224 267 348 407
#     4  11  20  41  69  92 135 176 224 283 333 397
#     4  10  22  44  70  93 136 183 222 272 356 409
#
# _framework density 25.526524999999999
#
# number of rings (size 3 to 8) (size 9 to 14) (size 15 to 20)
#    0.000    1.600    4.000    3.000    5.600    0.000 
#    3.600    5.000    8.800    0.000    0.000    0.000 
#    0.000    0.000    0.000    0.000    0.000    0.000 
#
# Total GULP energy -223399.395489 kJ/mol
# GULP energy per Si atom -5584.984887 kJ/mol
# Density = 2.546842 g / cm^3
# Si number density = 25.526525 Si / 1000 Ang^3
#
#
#
# Elastic Constant Matrix: (Units=GPa)
#
#
# Indices 1 2 3 4 5 6 
#
# 1 128.1847 -5.6004 -10.5592 0.0000 0.0000 0.0000
# 2 -5.6004 64.7628 -13.4563 0.0000 0.0000 0.0000
# 3 -10.5592 -13.4563 76.2226 0.0000 0.0000 0.0000
# 4 0.0000 0.0000 0.0000 33.7954 0.0000 0.0000
# 5 0.0000 0.0000 0.0000 0.0000 51.6514 0.0000
# 6 0.0000 0.0000 0.0000 0.0000 0.0000 31.2889
#
#
#
# Elastic Compliance Matrix: (Units=1/GPa)
#
#
# Indices 1 2 3 4 5 6 
#
# 1 0.007947 0.000951 0.001269 0.000000 0.000000 0.000000
# 2 0.000951 0.016143 0.002982 0.000000 0.000000 0.000000
# 3 0.001269 0.002982 0.013822 0.000000 0.000000 0.000000
# 4 0.000000 0.000000 0.000000 0.029590 0.000000 0.000000
# 5 0.000000 0.000000 0.000000 0.000000 0.019361 0.000000
# 6 0.000000 0.000000 0.000000 0.000000 0.000000 0.031960
#
#
# Mechanical properties :
#
#
# Convention : Reuss Voigt Hill
#
# Bulk Modulus (GPa) = 20.69789 23.32647 22.01218
# Shear Modulus (GPa) = 40.15277 43.26621 41.70949
#
# Velocity S-wave (km/s) = 3.97039 4.12144 4.04662
# Velocity P-wave (km/s) = 5.39858 5.63971 5.52046
#
# Compressibility (1/GPa) = 0.04831410
#
# Stress axis : x y z
#
# Youngs Moduli (GPa) = 125.82879 61.94758 72.35049
#
# Poissons Ratio (x) = -0.05890 -0.09180
# Poissons Ratio (y) = -0.11965 -0.21572
# Poissons Ratio (z) = -0.15965 -0.18470
#
# Static dielectric constant tensor:
#      x y z
#    x 2.134750 0.000000 0.000000 
#    y 0.000000 2.078570 0.000000 
#    z 0.000000 0.000000 2.029550 
# 
# From -- ./inp_files/19020.got.cif
#   From: 2010.05.17/outbox.cif.g08.bks.cpg/sg60_10_cif.got.tgz:19020.got - 2010.06.03 14:59:27.
