data_PCOD9456987
_publ_section_title
;
Structure prediction by ZEFSAII (Michael W. Deem and Ramdas Pophale) SiO2 
 PCOD9456987
Probable space group: P B C N
;
_chemical_formula_sum "Si O2"
_cell_formula_units_Z 64
_cell_length_a 13.344446
_cell_length_b 10.409831
_cell_length_c 21.154796
_cell_angle_alpha 90.000000
_cell_angle_beta 90.000000
_cell_angle_gamma 90.000000
_cell_volume 2938.685224
_symmetry_space_group_name_H-M "P B C N"
_symmetry_group_IT_number 60
_symmetry_cell_setting 'orthorhombic'
loop_
_space_group_symop_operation_xyz
x,y,z
1/2-x,1/2-y,1/2+z
1/2+x,1/2-y,-z
-x,y,1/2-z
-x,-y,-z
1/2+x,1/2+y,1/2-z
1/2-x,1/2+y,z
x,-y,1/2+z
loop_
_atom_site_type_symbol
_atom_site_label
_atom_site_fract_x
_atom_site_fract_y
_atom_site_fract_z
Si Si1 0.787803 0.980879 0.501142
Si Si2 0.517669 0.489022 0.321438
Si Si3 0.792953 0.343179 0.107097
Si Si4 0.396769 0.966038 0.272903
Si Si5 0.730264 0.372591 0.312973
Si Si6 0.816533 0.242285 0.436713
Si Si7 0.626563 0.248296 0.191065
Si Si8 0.041787 0.156795 0.440828
O O1 0.753489 0.039408 0.568067
O O2 0.773640 0.102339 0.454821
O O3 0.724773 0.858478 0.479436
O O4 0.903652 0.935710 0.508032
O O5 0.500000 0.541576 0.250000
O O6 0.633966 0.455982 0.334443
O O7 0.457337 0.354995 0.321301
O O8 0.473002 0.579434 0.375207
O O9 0.848663 0.392334 0.169059
O O10 0.703385 0.254224 0.132827
O O11 0.874431 0.265767 0.067962
O O12 0.500000 0.905497 0.250000
O O13 0.315911 0.962283 0.216887
O O14 0.416895 0.108888 0.297566
O O15 0.781286 0.285949 0.366931
O O16 0.685745 0.289418 0.254752
O O17 0.934518 0.222922 0.450723
#
# Coordination Sequence:
#
# PCOD9456987 Si02
#       8
#     8   8   8   8   8   8   8   8
#     4  12  26  51  72 102 139 192 245 292 358 427
#     4  10  22  42  72 107 141 186 231 290 368 440
#     4  11  24  44  70 101 136 182 235 294 347 428
#     4  11  23  41  67 103 143 179 227 292 364 423
#     4  10  24  42  66 106 141 183 228 301 356 426
#     4  12  28  47  73 103 145 190 244 300 357 421
#     4  10  22  41  69 100 139 184 228 283 361 437
#     4  12  25  46  72 102 137 188 244 296 359 430
#
# _framework density 21.778445999999999
#
# number of rings (size 3 to 8) (size 9 to 14) (size 15 to 20)
#    0.000    1.000    2.500    3.750    7.000    2.000 
#    2.250    0.000    0.000    0.000    0.000    0.000 
#    0.000    0.000    0.000    0.000    0.000    0.000 
#
# Total GULP energy -357863.377262 kJ/mol
# GULP energy per Si atom -5591.615270 kJ/mol
# Density = 2.172888 g / cm^3
# Si number density = 21.778446 Si / 1000 Ang^3
#
#
#
# Elastic Constant Matrix: (Units=GPa)
#
#
# Indices 1 2 3 4 5 6 
#
# 1 136.9496 46.7266 29.3352 0.0000 0.0000 0.0000
# 2 46.7266 101.3725 39.3190 0.0000 0.0000 0.0000
# 3 29.3352 39.3190 61.5048 0.0000 0.0000 0.0000
# 4 0.0000 0.0000 0.0000 116.2408 0.0000 0.0000
# 5 0.0000 0.0000 0.0000 0.0000 34.1738 0.0000
# 6 0.0000 0.0000 0.0000 0.0000 0.0000 35.7046
#
#
#
# Elastic Compliance Matrix: (Units=1/GPa)
#
#
# Indices 1 2 3 4 5 6 
#
# 1 0.008874 -0.003256 -0.002151 0.000000 0.000000 0.000000
# 2 -0.003256 0.014312 -0.007596 0.000000 0.000000 0.000000
# 3 -0.002151 -0.007596 0.022141 0.000000 0.000000 0.000000
# 4 0.000000 0.000000 0.000000 0.008603 0.000000 0.000000
# 5 0.000000 0.000000 0.000000 0.000000 0.029262 0.000000
# 6 0.000000 0.000000 0.000000 0.000000 0.000000 0.028008
#
#
# Mechanical properties :
#
#
# Convention : Reuss Voigt Hill
#
# Bulk Modulus (GPa) = 51.75967 58.95428 55.35698
# Shear Modulus (GPa) = 34.80800 49.52026 42.16413
#
# Velocity S-wave (km/s) = 4.00218 4.77363 4.40483
# Velocity P-wave (km/s) = 6.72121 7.58368 7.16543
#
# Compressibility (1/GPa) = 0.01932006
#
# Stress axis : x y z
#
# Youngs Moduli (GPa) = 112.69397 69.87262 45.16519
#
# Poissons Ratio (x) = 0.22750 0.09714
# Poissons Ratio (y) = 0.36693 0.34309
# Poissons Ratio (z) = 0.24239 0.53077
#
# Static dielectric constant tensor:
#      x y z
#    x 1.787130 0.000000 0.000000 
#    y 0.000000 1.763270 0.000000 
#    z 0.000000 0.000000 1.808280 
# 
# From -- ./inp_files/24323.got.cif
#   From: 2010.05.17/outbox.cif.g08.bks.cpg/sg60_13_cif.got.tgz:24323.got - 2010.06.03 14:59:27.
