data_PCOD9456801
_publ_section_title
;
Structure prediction by ZEFSAII (Michael W. Deem and Ramdas Pophale) SiO2 
 PCOD9456801
Probable space group: P B C N
;
_chemical_formula_sum "Si O2"
_cell_formula_units_Z 60
_cell_length_a 16.389180
_cell_length_b 27.265487
_cell_length_c 5.833552
_cell_angle_alpha 90.000000
_cell_angle_beta 90.000000
_cell_angle_gamma 90.000000
_cell_volume 2606.775063
_symmetry_space_group_name_H-M "P B C N"
_symmetry_group_IT_number 60
_symmetry_cell_setting 'orthorhombic'
loop_
_space_group_symop_operation_xyz
x,y,z
1/2-x,1/2-y,1/2+z
1/2+x,1/2-y,-z
-x,y,1/2-z
-x,-y,-z
1/2+x,1/2+y,1/2-z
1/2-x,1/2+y,z
x,-y,1/2+z
loop_
_atom_site_type_symbol
_atom_site_label
_atom_site_fract_x
_atom_site_fract_y
_atom_site_fract_z
Si Si1 0.939826 0.903249 0.056134
Si Si2 0.291404 0.298804 0.884749
Si Si3 0.937348 0.795956 0.940556
Si Si4 0.841293 0.309853 0.947095
Si Si5 0.000000 0.284200 0.750000
Si Si6 0.805481 0.513215 0.826638
Si Si7 0.264807 0.618701 0.741650
Si Si8 0.377863 0.521147 0.222046
O O1 0.847335 0.903498 0.153134
O O2 0.000000 0.924917 0.250000
O O3 0.969380 0.847930 0.022630
O O4 0.919873 0.926523 0.808511
O O5 0.350211 0.306586 0.668590
O O6 0.200374 0.309612 0.801914
O O7 0.312493 0.243214 0.954603
O O8 0.302534 0.339175 0.078307
O O9 0.000000 0.777556 0.750000
O O10 0.938846 0.753946 0.127121
O O11 0.938919 0.313181 0.917056
O O12 0.798327 0.352455 0.093925
O O13 0.843885 0.505050 0.569771
O O14 0.781951 0.570805 0.853791
O O15 0.720127 0.482970 0.794147
O O16 0.402325 0.502022 0.473223
#
# Coordination Sequence:
#
# PCOD9456801 Si02
#       8
#     8   8   8   8   4   8   8   8
#     4  12  24  39  59  93 128 180 239 285 344 422
#     4  12  24  40  67  96 133 184 227 287 349 430
#     4  12  24  41  65  89 137 180 235 279 347 417
#     4  12  25  43  67  97 136 176 234 291 359 438
#     4  12  26  46  64 100 134 182 226 302 362 432
#     4  10  22  42  66  93 135 182 233 299 354 424
#     4  12  25  42  66  94 133 179 238 287 358 426
#     4  10  22  40  59  85 132 180 233 297 346 400
#
# _framework density 23.016943999999999
#
# number of rings (size 3 to 8) (size 9 to 14) (size 15 to 20)
#    0.000    0.533    7.333    2.400    5.600    1.600 
#    0.000    0.000    0.000    0.000    0.000    0.933 
#    0.000    0.000    0.000    0.000    0.000    0.000 
#
# Total GULP energy -334851.604271 kJ/mol
# GULP energy per Si atom -5580.860071 kJ/mol
# Density = 2.296456 g / cm^3
# Si number density = 23.016944 Si / 1000 Ang^3
#
#
#
# Elastic Constant Matrix: (Units=GPa)
#
#
# Indices 1 2 3 4 5 6 
#
# 1 69.5977 19.2851 17.9411 0.0000 0.0000 0.0000
# 2 19.2851 79.0254 25.8736 0.0000 0.0000 0.0000
# 3 17.9411 25.8736 94.4590 0.0000 0.0000 0.0000
# 4 0.0000 0.0000 0.0000 -12.4454 0.0000 0.0000
# 5 0.0000 0.0000 0.0000 0.0000 27.4801 0.0000
# 6 0.0000 0.0000 0.0000 0.0000 0.0000 14.8840
#
#
#
# Elastic Compliance Matrix: (Units=1/GPa)
#
#
# Indices 1 2 3 4 5 6 
#
# 1 0.015793 -0.003155 -0.002135 0.000000 0.000000 0.000000
# 2 -0.003155 0.014531 -0.003381 0.000000 0.000000 0.000000
# 3 -0.002135 -0.003381 0.011918 0.000000 0.000000 0.000000
# 4 0.000000 0.000000 0.000000 -0.080351 0.000000 0.000000
# 5 0.000000 0.000000 0.000000 0.000000 0.036390 0.000000
# 6 0.000000 0.000000 0.000000 0.000000 0.000000 0.067186
#
#
# Mechanical properties :
#
#
# Convention : Reuss Voigt Hill
#
# Bulk Modulus (GPa) = 40.16137 41.03130 40.59633
# Shear Modulus (GPa) = 54.87872 17.98256 36.43064
#
# Velocity S-wave (km/s) = 4.88820 2.79816 3.98273
# Velocity P-wave (km/s) = 7.02466 5.32023 6.23100
#
# Compressibility (1/GPa) = 0.02489955
#
# Stress axis : x y z
#
# Youngs Moduli (GPa) = 63.31928 68.81811 83.90448
#
# Poissons Ratio (x) = 0.21711 0.17918
# Poissons Ratio (y) = 0.19977 0.28368
# Poissons Ratio (z) = 0.13522 0.23268
#
# Static dielectric constant tensor:
#      x y z
#    x 1.939780 0.000000 0.000000 
#    y 0.000000 1.921270 0.000000 
#    z 0.000000 0.000000 2.002680 
# 
# From -- ./inp_files/1857.got.cif
#   From: 2010.05.17/outbox.cif.g08.bks.cpg/sg60_1_cif.got.tgz:1857.got - 2010.06.03 14:59:27.
