data_PCOD9456110
_publ_section_title
;
Structure prediction by ZEFSAII (Michael W. Deem and Ramdas Pophale) SiO2 
 PCOD9456110
Probable space group: P B C N
;
_chemical_formula_sum "Si O2"
_cell_formula_units_Z 52
_cell_length_a 19.407995
_cell_length_b 9.285693
_cell_length_c 15.275360
_cell_angle_alpha 90.000000
_cell_angle_beta 90.000000
_cell_angle_gamma 90.000000
_cell_volume 2752.874716
_symmetry_space_group_name_H-M "P B C N"
_symmetry_group_IT_number 60
_symmetry_cell_setting 'orthorhombic'
loop_
_space_group_symop_operation_xyz
x,y,z
1/2-x,1/2-y,1/2+z
1/2+x,1/2-y,-z
-x,y,1/2-z
-x,-y,-z
1/2+x,1/2+y,1/2-z
1/2-x,1/2+y,z
x,-y,1/2+z
loop_
_atom_site_type_symbol
_atom_site_label
_atom_site_fract_x
_atom_site_fract_y
_atom_site_fract_z
Si Si1 0.094875 0.240444 0.328517
Si Si2 0.988509 0.132840 0.934912
Si Si3 0.663070 0.665711 0.995940
Si Si4 0.529026 0.865466 0.448223
Si Si5 0.161192 0.373549 0.171190
Si Si6 0.261139 0.397648 0.591114
Si Si7 0.500000 0.487195 0.750000
O O1 0.144635 0.173118 0.401612
O O2 0.132671 0.358115 0.269280
O O3 0.029061 0.303635 0.381586
O O4 0.064894 0.118840 0.263546
O O5 0.997626 0.082294 0.836603
O O6 0.910224 0.185602 0.947320
O O7 0.040205 0.249485 0.974701
O O8 0.000000 0.000000 0.000000
O O9 0.694769 0.513492 0.964701
O O10 0.712653 0.797167 0.969383
O O11 0.596941 0.897363 0.393701
O O12 0.500000 0.000000 0.500000
O O13 0.194442 0.219714 0.144120
O O14 0.215048 0.501448 0.154290
#
# Coordination Sequence:
#
# PCOD9456110 Si02
#       7
#     8   8   8   8   8   8   4
#     4  11  21  37  66  89 119 154 202 262 313 361
#     4  11  20  38  64  90 118 155 202 255 306 369
#     4  10  21  39  59  86 119 160 202 241 304 368
#     4  11  22  40  63  91 127 159 194 262 328 363
#     4  11  21  40  61  89 120 161 207 246 307 371
#     4  10  23  39  61  81 121 171 198 245 295 369
#     4  12  20  36  62 100 112 158 198 252 328 358
#
# _framework density 18.889343
#
# number of rings (size 3 to 8) (size 9 to 14) (size 15 to 20)
#    0.000    1.231    4.615    3.692    0.000    1.231 
#    5.538    0.000    0.000    0.000    0.000    0.000 
#    0.000    0.000    0.000    0.000    0.000    0.000 
#
# Total GULP energy -290276.896443 kJ/mol
# GULP energy per Si atom -5582.248009 kJ/mol
# Density = 1.884635 g / cm^3
# Si number density = 18.889343 Si / 1000 Ang^3
#
#
#
# Elastic Constant Matrix: (Units=GPa)
#
#
# Indices 1 2 3 4 5 6 
#
# 1 64.8075 3.9596 16.5500 0.0000 0.0000 0.0000
# 2 3.9596 74.0824 18.8275 0.0000 0.0000 0.0000
# 3 16.5500 18.8275 106.9871 0.0000 0.0000 0.0000
# 4 0.0000 0.0000 0.0000 18.8583 0.0000 0.0000
# 5 0.0000 0.0000 0.0000 0.0000 27.9048 0.0000
# 6 0.0000 0.0000 0.0000 0.0000 0.0000 33.8079
#
#
#
# Elastic Compliance Matrix: (Units=1/GPa)
#
#
# Indices 1 2 3 4 5 6 
#
# 1 0.016069 -0.000238 -0.002444 0.000000 0.000000 0.000000
# 2 -0.000238 0.014134 -0.002450 0.000000 0.000000 0.000000
# 3 -0.002444 -0.002450 0.010156 0.000000 0.000000 0.000000
# 4 0.000000 0.000000 0.000000 0.053027 0.000000 0.000000
# 5 0.000000 0.000000 0.000000 0.000000 0.035836 0.000000
# 6 0.000000 0.000000 0.000000 0.000000 0.000000 0.029579
#
#
# Mechanical properties :
#
#
# Convention : Reuss Voigt Hill
#
# Bulk Modulus (GPa) = 33.22833 36.06123 34.64478
# Shear Modulus (GPa) = 27.91785 29.88355 28.90070
#
# Velocity S-wave (km/s) = 3.84861 3.98179 3.91577
# Velocity P-wave (km/s) = 6.11378 6.34601 6.23097
#
# Compressibility (1/GPa) = 0.03009480
#
# Stress axis : x y z
#
# Youngs Moduli (GPa) = 62.23187 70.75151 98.46203
#
# Poissons Ratio (x) = 0.01682 0.24063
# Poissons Ratio (y) = 0.01480 0.24128
# Poissons Ratio (z) = 0.15209 0.17338
#
# Static dielectric constant tensor:
#      x y z
#    x 1.682190 0.000000 0.000000 
#    y 0.000000 1.654330 0.000000 
#    z 0.000000 0.000000 1.637570 
# 
# From -- ./inp_files/17661.got.cif
#   From: 2010.05.17/outbox.cif.g08.bks.cpg/sg60_9_cif.got.tgz:17661.got - 2010.06.03 14:59:27.
