data_PCOD9456087
_publ_section_title
;
Structure prediction by ZEFSAII (Michael W. Deem and Ramdas Pophale) SiO2 
 PCOD9456087
Probable space group: P B C N
;
_chemical_formula_sum "Si O2"
_cell_formula_units_Z 64
_cell_length_a 31.516728
_cell_length_b 10.858856
_cell_length_c 9.448358
_cell_angle_alpha 90.000000
_cell_angle_beta 90.000000
_cell_angle_gamma 90.000000
_cell_volume 3233.564573
_symmetry_space_group_name_H-M "P B C N"
_symmetry_group_IT_number 60
_symmetry_cell_setting 'orthorhombic'
loop_
_space_group_symop_operation_xyz
x,y,z
1/2-x,1/2-y,1/2+z
1/2+x,1/2-y,-z
-x,y,1/2-z
-x,-y,-z
1/2+x,1/2+y,1/2-z
1/2-x,1/2+y,z
x,-y,1/2+z
loop_
_atom_site_type_symbol
_atom_site_label
_atom_site_fract_x
_atom_site_fract_y
_atom_site_fract_z
Si Si1 0.955365 0.136127 0.070108
Si Si2 0.135425 0.780531 0.452699
Si Si3 0.737396 0.638919 0.232248
Si Si4 0.050349 0.876647 0.592184
Si Si5 0.163909 0.610831 0.218679
Si Si6 0.327637 0.827392 0.225981
Si Si7 0.689965 0.489418 0.482268
Si Si8 0.368724 0.265671 0.989629
O O1 0.946048 0.112865 0.237309
O O2 0.919000 0.222515 0.006575
O O3 0.003908 0.181026 0.061768
O O4 0.951300 0.010157 0.981706
O O5 0.089837 0.807444 0.521622
O O6 0.134724 0.699845 0.312542
O O7 0.162411 0.701247 0.564477
O O8 0.161420 0.907928 0.437902
O O9 0.787047 0.643557 0.257652
O O10 0.719297 0.778387 0.238876
O O11 0.713485 0.558898 0.353901
O O12 0.724107 0.575165 0.084989
O O13 0.161490 0.467714 0.252991
O O14 0.150142 0.643952 0.060304
O O15 0.355756 0.739029 0.325031
O O16 0.656366 0.381825 0.443096
#
# Coordination Sequence:
#
# PCOD9456087 Si02
#       8
#     8   8   8   8   8   8   8   8
#     4  10  21  38  66 100 133 161 198 255 322 388
#     4  11  22  40  64  91 126 167 204 265 318 373
#     4  10  25  40  61  87 124 166 214 271 311 369
#     4  10  21  38  66 100 133 161 198 255 322 388
#     4  12  27  38  62  88 121 173 223 255 314 374
#     4  10  24  42  59  85 125 169 215 262 309 377
#     4  10  22  38  63  88 124 158 207 260 320 372
#     4  11  22  40  64  91 126 167 204 265 318 373
#
# _framework density 19.792399
#
# number of rings (size 3 to 8) (size 9 to 14) (size 15 to 20)
#    0.000    1.500    2.500    1.500    8.750    2.000 
#    0.000    0.000    0.000    4.500    0.000    0.000 
#    0.000    0.000    0.000    0.000    0.000    0.000 
#
# Total GULP energy -357338.420194 kJ/mol
# GULP energy per Si atom -5583.412816 kJ/mol
# Density = 1.974735 g / cm^3
# Si number density = 19.792399 Si / 1000 Ang^3
#
#
#
# Elastic Constant Matrix: (Units=GPa)
#
#
# Indices 1 2 3 4 5 6 
#
# 1 114.4793 19.1235 11.1953 0.0000 0.0000 0.0000
# 2 19.1235 78.3834 10.7582 0.0000 0.0000 0.0000
# 3 11.1953 10.7582 57.1153 0.0000 0.0000 0.0000
# 4 0.0000 0.0000 0.0000 28.1328 0.0000 0.0000
# 5 0.0000 0.0000 0.0000 0.0000 25.5698 0.0000
# 6 0.0000 0.0000 0.0000 0.0000 0.0000 16.3352
#
#
#
# Elastic Compliance Matrix: (Units=1/GPa)
#
#
# Indices 1 2 3 4 5 6 
#
# 1 0.009217 -0.002054 -0.001420 0.000000 0.000000 0.000000
# 2 -0.002054 0.013554 -0.002150 0.000000 0.000000 0.000000
# 3 -0.001420 -0.002150 0.018192 0.000000 0.000000 0.000000
# 4 0.000000 0.000000 0.000000 0.035546 0.000000 0.000000
# 5 0.000000 0.000000 0.000000 0.000000 0.039109 0.000000
# 6 0.000000 0.000000 0.000000 0.000000 0.000000 0.061217
#
#
# Mechanical properties :
#
#
# Convention : Reuss Voigt Hill
#
# Bulk Modulus (GPa) = 33.65332 36.90355 35.27844
# Shear Modulus (GPa) = 25.25408 27.93432 26.59420
#
# Velocity S-wave (km/s) = 3.57592 3.76089 3.66957
# Velocity P-wave (km/s) = 5.83863 6.12739 5.98475
#
# Compressibility (1/GPa) = 0.02971475
#
# Stress axis : x y z
#
# Youngs Moduli (GPa) = 108.49349 73.77875 54.96980
#
# Poissons Ratio (x) = 0.15153 0.07805
# Poissons Ratio (y) = 0.22283 0.11821
# Poissons Ratio (z) = 0.15404 0.15866
#
# Static dielectric constant tensor:
#      x y z
#    x 1.700210 0.000000 0.000000 
#    y 0.000000 1.688130 0.000000 
#    z 0.000000 0.000000 1.709060 
# 
# From -- ./inp_files/8497.got.cif
#   From: 2010.05.17/outbox.cif.g08.bks.cpg/sg60_5_cif.got.tgz:8497.got - 2010.06.03 14:59:27.
