data_PCOD9456333
_publ_section_title
;
Structure prediction by ZEFSAII (Michael W. Deem and Ramdas Pophale) SiO2 
 PCOD9456333
Probable space group: P B C N
;
_chemical_formula_sum "Si O2"
_cell_formula_units_Z 48
_cell_length_a 15.488695
_cell_length_b 9.248913
_cell_length_c 16.277085
_cell_angle_alpha 90.000000
_cell_angle_beta 90.000000
_cell_angle_gamma 90.000000
_cell_volume 2331.750902
_symmetry_space_group_name_H-M "P B C N"
_symmetry_group_IT_number 60
_symmetry_cell_setting 'orthorhombic'
loop_
_space_group_symop_operation_xyz
x,y,z
1/2-x,1/2-y,1/2+z
1/2+x,1/2-y,-z
-x,y,1/2-z
-x,-y,-z
1/2+x,1/2+y,1/2-z
1/2-x,1/2+y,z
x,-y,1/2+z
loop_
_atom_site_type_symbol
_atom_site_label
_atom_site_fract_x
_atom_site_fract_y
_atom_site_fract_z
Si Si1 0.664766 0.503617 0.804844
Si Si2 0.347863 0.811488 0.455514
Si Si3 0.724827 0.774119 0.210241
Si Si4 0.325371 0.523528 0.002293
Si Si5 0.896835 0.723651 0.103153
Si Si6 0.500000 0.000000 0.000000
Si Si7 0.000000 0.819000 0.250000
O O1 0.742044 0.609479 0.776069
O O2 0.681612 0.355483 0.758339
O O3 0.655839 0.480675 0.901308
O O4 0.579972 0.580996 0.772041
O O5 0.340442 0.836409 0.357462
O O6 0.268614 0.902007 0.493662
O O7 0.330143 0.640596 0.470322
O O8 0.439706 0.854544 0.492397
O O9 0.807765 0.718691 0.156609
O O10 0.387050 0.627596 0.948453
O O11 0.919560 0.593877 0.042360
O O12 0.972103 0.727625 0.171146
#
# Coordination Sequence:
#
# PCOD9456333 Si02
#       7
#     8   8   8   8   8   4   4
#     4  11  22  38  62  90 120 158 205 251 305 368
#     4  11  22  40  64  90 123 163 207 254 310 368
#     4  10  21  41  62  85 123 166 202 246 311 379
#     4  11  23  42  66  92 124 166 209 252 306 375
#     4  10  23  43  64  89 126 165 204 254 312 366
#     4  12  24  38  62  94 122 158 210 264 308 358
#     4  10  22  40  62  88 122 160 200 256 312 356
#
# _framework density 20.58539
#
# number of rings (size 3 to 8) (size 9 to 14) (size 15 to 20)
#    0.000    1.333    0.000    8.000    0.000    5.333 
#    0.000    1.667    0.000    2.000    0.000    0.000 
#    0.000    0.000    0.000    0.000    0.000    0.000 
#
# Total GULP energy -267203.699301 kJ/mol
# GULP energy per Si atom -5566.743735 kJ/mol
# Density = 2.053854 g / cm^3
# Si number density = 20.585390 Si / 1000 Ang^3
#
#
#
# Elastic Constant Matrix: (Units=GPa)
#
#
# Indices 1 2 3 4 5 6 
#
# 1 34.1643 6.8941 3.4274 0.0000 0.0000 0.0000
# 2 6.8941 67.8812 9.4735 0.0000 0.0000 0.0000
# 3 3.4274 9.4735 75.9640 0.0000 0.0000 0.0000
# 4 0.0000 0.0000 0.0000 9.4907 0.0000 0.0000
# 5 0.0000 0.0000 0.0000 0.0000 9.7886 0.0000
# 6 0.0000 0.0000 0.0000 0.0000 0.0000 23.6078
#
#
#
# Elastic Compliance Matrix: (Units=1/GPa)
#
#
# Indices 1 2 3 4 5 6 
#
# 1 0.029956 -0.002904 -0.000989 0.000000 0.000000 0.000000
# 2 -0.002904 0.015274 -0.001774 0.000000 0.000000 0.000000
# 3 -0.000989 -0.001774 0.013430 0.000000 0.000000 0.000000
# 4 0.000000 0.000000 0.000000 0.105366 0.000000 0.000000
# 5 0.000000 0.000000 0.000000 0.000000 0.102160 0.000000
# 6 0.000000 0.000000 0.000000 0.000000 0.000000 0.042359
#
#
# Mechanical properties :
#
#
# Convention : Reuss Voigt Hill
#
# Bulk Modulus (GPa) = 21.13053 24.17771 22.65412
# Shear Modulus (GPa) = 14.89625 19.12504 17.01065
#
# Velocity S-wave (km/s) = 2.69296 3.05135 2.87774
# Velocity P-wave (km/s) = 4.46727 4.91782 4.69795
#
# Compressibility (1/GPa) = 0.04732489
#
# Stress axis : x y z
#
# Youngs Moduli (GPa) = 33.38273 65.47016 74.46024
#
# Poissons Ratio (x) = 0.19014 0.07367
# Poissons Ratio (y) = 0.09695 0.13208
# Poissons Ratio (z) = 0.03303 0.11613
#
# Static dielectric constant tensor:
#      x y z
#    x 1.740630 0.000000 0.000000 
#    y 0.000000 1.757150 0.000000 
#    z 0.000000 0.000000 1.762410 
# 
# From -- ./inp_files/20556.got.cif
#   From: 2010.05.17/outbox.cif.g08.bks.cpg/sg60_11_cif.got.tgz:20556.got - 2010.06.03 14:59:27.
