data_PCOD9456243
_publ_section_title
;
Structure prediction by ZEFSAII (Michael W. Deem and Ramdas Pophale) SiO2 
 PCOD9456243
Probable space group: P B C N
;
_chemical_formula_sum "Si O2"
_cell_formula_units_Z 32
_cell_length_a 5.302238
_cell_length_b 9.117658
_cell_length_c 26.801555
_cell_angle_alpha 90.000000
_cell_angle_beta 90.000000
_cell_angle_gamma 90.000000
_cell_volume 1295.694180
_symmetry_space_group_name_H-M "P B C N"
_symmetry_group_IT_number 60
_symmetry_cell_setting 'orthorhombic'
loop_
_space_group_symop_operation_xyz
x,y,z
1/2-x,1/2-y,1/2+z
1/2+x,1/2-y,-z
-x,y,1/2-z
-x,-y,-z
1/2+x,1/2+y,1/2-z
1/2-x,1/2+y,z
x,-y,1/2+z
loop_
_atom_site_type_symbol
_atom_site_label
_atom_site_fract_x
_atom_site_fract_y
_atom_site_fract_z
Si Si1 0.894494 0.382582 0.038252
Si Si2 0.973856 0.698519 0.809687
Si Si3 0.473340 0.864499 0.846076
Si Si4 0.394986 0.710658 0.558830
O O1 0.619770 0.407648 0.061540
O O2 0.118265 0.339363 0.075103
O O3 0.850160 0.247813 0.999337
O O4 0.000000 0.500000 0.000000
O O5 0.701910 0.768174 0.823080
O O6 0.000000 0.700232 0.750000
O O7 0.203707 0.795809 0.831651
O O8 0.002622 0.530215 0.827503
O O9 0.512375 0.841330 0.905730
#
# Coordination Sequence:
#
# PCOD9456243 Si02
#       4
#     8   8   8   8
#     4  10  21  40  62  87 135 173 217 278 328 402
#     4  12  26  49  73 104 140 183 229 294 362 413
#     4  12  27  45  76 105 140 182 236 290 339 433
#     4  10  23  38  61  97 124 177 225 271 338 391
#
# _framework density 24.697185999999999
#
# number of rings (size 3 to 8) (size 9 to 14) (size 15 to 20)
#    0.000    1.000    0.000    6.000    7.000    0.000 
#    0.000    0.000    0.000    0.000    0.000    0.000 
#    0.000    0.000    0.000    0.000    0.000    0.000 
#
# Total GULP energy -179026.664531 kJ/mol
# GULP energy per Si atom -5594.583267 kJ/mol
# Density = 2.464097 g / cm^3
# Si number density = 24.697186 Si / 1000 Ang^3
#
#
#
# Elastic Constant Matrix: (Units=GPa)
#
#
# Indices 1 2 3 4 5 6 
#
# 1 145.3812 43.4632 22.9975 0.0000 0.0000 0.0000
# 2 43.4632 110.9608 -3.4665 0.0000 0.0000 0.0000
# 3 22.9975 -3.4665 104.3955 0.0000 0.0000 0.0000
# 4 0.0000 0.0000 0.0000 27.2407 0.0000 0.0000
# 5 0.0000 0.0000 0.0000 0.0000 38.7267 0.0000
# 6 0.0000 0.0000 0.0000 0.0000 0.0000 43.0316
#
#
#
# Elastic Compliance Matrix: (Units=1/GPa)
#
#
# Indices 1 2 3 4 5 6 
#
# 1 0.008152 -0.003253 -0.001904 0.000000 0.000000 0.000000
# 2 -0.003253 0.010319 0.001059 0.000000 0.000000 0.000000
# 3 -0.001904 0.001059 0.010034 0.000000 0.000000 0.000000
# 4 0.000000 0.000000 0.000000 0.036710 0.000000 0.000000
# 5 0.000000 0.000000 0.000000 0.000000 0.025822 0.000000
# 6 0.000000 0.000000 0.000000 0.000000 0.000000 0.023239
#
#
# Mechanical properties :
#
#
# Convention : Reuss Voigt Hill
#
# Bulk Modulus (GPa) = 49.23598 54.08066 51.65832
# Shear Modulus (GPa) = 38.68770 41.64936 40.16853
#
# Velocity S-wave (km/s) = 3.96217 4.11104 4.03729
# Velocity P-wave (km/s) = 6.39616 6.66927 6.53415
#
# Compressibility (1/GPa) = 0.02031035
#
# Stress axis : x y z
#
# Youngs Moduli (GPa) = 122.66872 96.90551 99.66590
#
# Poissons Ratio (x) = 0.31520 0.18975
# Poissons Ratio (y) = 0.39899 -0.10556
# Poissons Ratio (z) = 0.23354 -0.10264
#
# Static dielectric constant tensor:
#      x y z
#    x 2.010300 0.000000 0.000000 
#    y 0.000000 1.976450 0.000000 
#    z 0.000000 0.000000 1.985080 
# 
# From -- ./inp_files/25551.got.cif
#   From: 2010.05.17/outbox.cif.g08.bks.cpg/sg60_13_cif.got.tgz:25551.got - 2010.06.03 14:59:27.
