data_PCOD9456639
_publ_section_title
;
Structure prediction by ZEFSAII (Michael W. Deem and Ramdas Pophale) SiO2 
 PCOD9456639
Probable space group: P B C N
;
_chemical_formula_sum "Si O2"
_cell_formula_units_Z 48
_cell_length_a 11.427497
_cell_length_b 23.491673
_cell_length_c 8.566903
_cell_angle_alpha 90.000000
_cell_angle_beta 90.000000
_cell_angle_gamma 90.000000
_cell_volume 2299.793872
_symmetry_space_group_name_H-M "P B C N"
_symmetry_group_IT_number 60
_symmetry_cell_setting 'orthorhombic'
loop_
_space_group_symop_operation_xyz
x,y,z
1/2-x,1/2-y,1/2+z
1/2+x,1/2-y,-z
-x,y,1/2-z
-x,-y,-z
1/2+x,1/2+y,1/2-z
1/2-x,1/2+y,z
x,-y,1/2+z
loop_
_atom_site_type_symbol
_atom_site_label
_atom_site_fract_x
_atom_site_fract_y
_atom_site_fract_z
Si Si1 0.204355 0.418471 0.814380
Si Si2 0.865303 0.477615 0.009638
Si Si3 0.334392 0.137075 0.821883
Si Si4 0.862659 0.814521 0.716228
Si Si5 0.794129 0.229945 0.545327
Si Si6 0.551942 0.169114 0.010978
O O1 0.173024 0.448333 0.651219
O O2 0.318051 0.378624 0.807997
O O3 0.209843 0.467621 0.943618
O O4 0.099919 0.376339 0.866512
O O5 0.844764 0.429873 0.144096
O O6 0.000000 0.500000 0.000000
O O7 0.419693 0.161779 0.957865
O O8 0.381239 0.154001 0.652244
O O9 0.217255 0.172947 0.851540
O O10 0.811669 0.773648 0.582391
O O11 0.797593 0.790583 0.868502
O O12 0.000000 0.809998 0.750000
O O13 0.908939 0.268945 0.566527
#
# Coordination Sequence:
#
# PCOD9456639 Si02
#       6
#     8   8   8   8   8   8
#     4  11  24  41  62  91 132 175 222 274 347 397
#     4  12  23  37  62  96 134 169 223 286 335 398
#     4  11  21  38  62  91 132 168 220 273 337 399
#     4  11  24  46  68  98 139 182 226 282 338 414
#     4  11  21  39  66  95 135 173 221 274 340 400
#     4  10  22  37  59  92 125 174 210 272 341 401
#
# _framework density 20.871435999999999
#
# number of rings (size 3 to 8) (size 9 to 14) (size 15 to 20)
#    0.000    1.000    5.000    2.500    2.333    0.000 
#    0.000    3.333    0.000    0.000    0.000    0.000 
#    0.000    0.000    0.000    0.000    0.000    0.000 
#
# Total GULP energy -268185.882165 kJ/mol
# GULP energy per Si atom -5587.205878 kJ/mol
# Density = 2.082393 g / cm^3
# Si number density = 20.871436 Si / 1000 Ang^3
#
#
#
# Elastic Constant Matrix: (Units=GPa)
#
#
# Indices 1 2 3 4 5 6 
#
# 1 76.4208 34.3184 31.5573 0.0000 0.0000 0.0000
# 2 34.3184 140.9729 26.8427 0.0000 0.0000 0.0000
# 3 31.5573 26.8427 86.6539 0.0000 0.0000 0.0000
# 4 0.0000 0.0000 0.0000 46.8940 0.0000 0.0000
# 5 0.0000 0.0000 0.0000 0.0000 23.0749 0.0000
# 6 0.0000 0.0000 0.0000 0.0000 0.0000 32.0128
#
#
#
# Elastic Compliance Matrix: (Units=1/GPa)
#
#
# Indices 1 2 3 4 5 6 
#
# 1 0.016560 -0.003064 -0.005082 0.000000 0.000000 0.000000
# 2 -0.003064 0.008105 -0.001395 0.000000 0.000000 0.000000
# 3 -0.005082 -0.001395 0.013823 0.000000 0.000000 0.000000
# 4 0.000000 0.000000 0.000000 0.021325 0.000000 0.000000
# 5 0.000000 0.000000 0.000000 0.000000 0.043337 0.000000
# 6 0.000000 0.000000 0.000000 0.000000 0.000000 0.031237
#
#
# Mechanical properties :
#
#
# Convention : Reuss Voigt Hill
#
# Bulk Modulus (GPa) = 51.52769 54.38716 52.95742
# Shear Modulus (GPa) = 31.26243 34.48495 32.87369
#
# Velocity S-wave (km/s) = 3.87441 4.06920 3.97300
# Velocity P-wave (km/s) = 6.69003 6.94209 6.81723
#
# Compressibility (1/GPa) = 0.01940704
#
# Stress axis : x y z
#
# Youngs Moduli (GPa) = 60.38766 123.38061 72.34384
#
# Poissons Ratio (x) = 0.37800 0.36762
# Poissons Ratio (y) = 0.18501 0.10092
# Poissons Ratio (z) = 0.30687 0.17211
#
# Static dielectric constant tensor:
#      x y z
#    x 1.768060 0.000000 0.000000 
#    y 0.000000 1.804540 0.000000 
#    z 0.000000 0.000000 1.792250 
# 
# From -- ./inp_files/5096.got.cif
#   From: 2010.05.17/outbox.cif.g08.bks.cpg/sg60_3_cif.got.tgz:5096.got - 2010.06.03 14:59:27.
