data_PCOD9456580
_publ_section_title
;
Structure prediction by ZEFSAII (Michael W. Deem and Ramdas Pophale) SiO2 
 PCOD9456580
Probable space group: P B C N
;
_chemical_formula_sum "Si O2"
_cell_formula_units_Z 52
_cell_length_a 26.878822
_cell_length_b 12.744711
_cell_length_c 7.860686
_cell_angle_alpha 90.000000
_cell_angle_beta 90.000000
_cell_angle_gamma 90.000000
_cell_volume 2692.778751
_symmetry_space_group_name_H-M "P B C N"
_symmetry_group_IT_number 60
_symmetry_cell_setting 'orthorhombic'
loop_
_space_group_symop_operation_xyz
x,y,z
1/2-x,1/2-y,1/2+z
1/2+x,1/2-y,-z
-x,y,1/2-z
-x,-y,-z
1/2+x,1/2+y,1/2-z
1/2-x,1/2+y,z
x,-y,1/2+z
loop_
_atom_site_type_symbol
_atom_site_label
_atom_site_fract_x
_atom_site_fract_y
_atom_site_fract_z
Si Si1 0.811194 0.232266 0.606342
Si Si2 0.861449 0.823762 0.772207
Si Si3 0.203999 0.653593 0.888506
Si Si4 0.780648 0.438702 0.488697
Si Si5 0.500000 0.420625 0.250000
Si Si6 0.669749 0.552180 0.882390
Si Si7 0.564097 0.404815 0.557905
O O1 0.852246 0.221824 0.459802
O O2 0.756754 0.194488 0.541976
O O3 0.800011 0.355694 0.629188
O O4 0.824532 0.152498 0.757154
O O5 0.833019 0.750321 0.635910
O O6 0.918389 0.830505 0.711673
O O7 0.837618 0.939640 0.791782
O O8 0.211191 0.611738 0.695949
O O9 0.191680 0.548985 0.990893
O O10 0.721004 0.455815 0.489480
O O11 0.530283 0.364747 0.401841
O O12 0.461964 0.496296 0.352299
O O13 0.617303 0.564583 0.977873
#
# Coordination Sequence:
#
# PCOD9456580 Si02
#       7
#     8   8   8   8   4   8   8
#     4  10  22  34  51  78 111 155 205 226 263 311
#     4  11  21  35  54  82 106 153 189 228 277 331
#     4  10  22  33  51  74 112 152 198 231 261 301
#     4  10  22  35  51  76 117 157 196 233 247 307
#     4  10  24  38  54  86 108 144 170 232 306 358
#     4  11  21  35  58  78 113 159 192 227 273 329
#     4  11  22  36  58  79 113 145 180 228 288 355
#
# _framework density 19.310908000000001
#
# number of rings (size 3 to 8) (size 9 to 14) (size 15 to 20)
#    0.000    1.538    3.077    1.846    6.462    2.462 
#    0.000    0.000    0.000    0.000    0.000    0.000 
#    0.000   33.231    0.000    0.154    0.000    0.000 
#
# Total GULP energy -289888.631562 kJ/mol
# GULP energy per Si atom -5574.781376 kJ/mol
# Density = 1.926696 g / cm^3
# Si number density = 19.310908 Si / 1000 Ang^3
#
#
#
# Elastic Constant Matrix: (Units=GPa)
#
#
# Indices 1 2 3 4 5 6 
#
# 1 69.2790 23.8757 20.7020 0.0000 0.0000 0.0000
# 2 23.8757 105.1216 26.2288 0.0000 0.0000 0.0000
# 3 20.7020 26.2288 53.0388 0.0000 0.0000 0.0000
# 4 0.0000 0.0000 0.0000 22.1321 0.0000 0.0000
# 5 0.0000 0.0000 0.0000 0.0000 43.3956 0.0000
# 6 0.0000 0.0000 0.0000 0.0000 0.0000 15.8402
#
#
#
# Elastic Compliance Matrix: (Units=1/GPa)
#
#
# Indices 1 2 3 4 5 6 
#
# 1 0.016898 -0.002501 -0.005359 0.000000 0.000000 0.000000
# 2 -0.002501 0.011222 -0.004573 0.000000 0.000000 0.000000
# 3 -0.005359 -0.004573 0.023207 0.000000 0.000000 0.000000
# 4 0.000000 0.000000 0.000000 0.045183 0.000000 0.000000
# 5 0.000000 0.000000 0.000000 0.000000 0.023044 0.000000
# 6 0.000000 0.000000 0.000000 0.000000 0.000000 0.063131
#
#
# Mechanical properties :
#
#
# Convention : Reuss Voigt Hill
#
# Bulk Modulus (GPa) = 37.79141 41.00580 39.39861
# Shear Modulus (GPa) = 23.10850 26.71576 24.91213
#
# Velocity S-wave (km/s) = 3.46302 3.72352 3.59563
# Velocity P-wave (km/s) = 5.96678 6.30609 6.13878
#
# Compressibility (1/GPa) = 0.02646104
#
# Stress axis : x y z
#
# Youngs Moduli (GPa) = 59.18024 89.11167 43.08986
#
# Poissons Ratio (x) = 0.22285 0.23091
# Poissons Ratio (y) = 0.14800 0.19706
# Poissons Ratio (z) = 0.31713 0.40754
#
# Static dielectric constant tensor:
#      x y z
#    x 1.670810 0.000000 0.000000 
#    y 0.000000 1.746660 0.000000 
#    z 0.000000 0.000000 1.846170 
# 
# From -- ./inp_files/8129.got.cif
#   From: 2010.05.17/outbox.cif.g08.bks.cpg/sg60_5_cif.got.tgz:8129.got - 2010.06.03 14:59:27.
