data_PCOD9456361
_publ_section_title
;
Structure prediction by ZEFSAII (Michael W. Deem and Ramdas Pophale) SiO2 
 PCOD9456361
Probable space group: P B C N
;
_chemical_formula_sum "Si O2"
_cell_formula_units_Z 48
_cell_length_a 31.491231
_cell_length_b 7.706042
_cell_length_c 8.561928
_cell_angle_alpha 90.000000
_cell_angle_beta 90.000000
_cell_angle_gamma 90.000000
_cell_volume 2077.746602
_symmetry_space_group_name_H-M "P B C N"
_symmetry_group_IT_number 60
_symmetry_cell_setting 'orthorhombic'
loop_
_space_group_symop_operation_xyz
x,y,z
1/2-x,1/2-y,1/2+z
1/2+x,1/2-y,-z
-x,y,1/2-z
-x,-y,-z
1/2+x,1/2+y,1/2-z
1/2-x,1/2+y,z
x,-y,1/2+z
loop_
_atom_site_type_symbol
_atom_site_label
_atom_site_fract_x
_atom_site_fract_y
_atom_site_fract_z
Si Si1 0.292239 0.390143 0.615495
Si Si2 0.092767 0.399191 0.664180
Si Si3 0.146467 0.390565 0.964953
Si Si4 0.000000 0.512520 0.750000
Si Si5 0.295914 0.759322 0.469777
Si Si6 0.540365 0.709872 0.044233
Si Si7 0.000000 0.030766 0.750000
O O1 0.324347 0.262825 0.525514
O O2 0.303778 0.592610 0.583872
O O3 0.246677 0.349974 0.536441
O O4 0.291128 0.326920 0.796763
O O5 0.125257 0.350952 0.798766
O O6 0.108774 0.577331 0.588867
O O7 0.085550 0.269863 0.518930
O O8 0.045113 0.419629 0.728990
O O9 0.171535 0.576576 0.960958
O O10 0.989273 0.636018 0.604885
O O11 0.539899 0.581272 0.189702
O O12 0.515558 0.628150 0.900607
#
# Coordination Sequence:
#
# PCOD9456361 Si02
#       7
#     8   8   8   4   8   8   4
#     4  12  27  48  79 112 152 199 245 303 381 454
#     4  12  25  46  71 103 145 194 254 314 364 449
#     4  12  28  49  72 112 156 191 255 311 371 445
#     4  11  23  42  72 100 131 197 254 302 374 438
#     4  12  27  48  79 112 150 200 245 301 380 456
#     4  10  21  41  64  97 133 189 243 295 374 430
#     4   9  21  40  64  94 139 179 252 302 364 446
#
# _framework density 23.101949999999999
#
# number of rings (size 3 to 8) (size 9 to 14) (size 15 to 20)
#    0.000    0.667    5.000    2.000    7.000    0.000 
#    3.000    0.000    0.000    0.000    0.000    0.000 
#    0.000    0.000    0.000    0.000    0.000    0.000 
#
# Total GULP energy -268073.090359 kJ/mol
# GULP energy per Si atom -5584.856049 kJ/mol
# Density = 2.304937 g / cm^3
# Si number density = 23.101950 Si / 1000 Ang^3
#
#
#
# Elastic Constant Matrix: (Units=GPa)
#
#
# Indices 1 2 3 4 5 6 
#
# 1 88.9749 29.9220 11.2413 0.0000 0.0000 0.0000
# 2 29.9220 104.3145 14.4912 0.0000 0.0000 0.0000
# 3 11.2413 14.4912 83.3276 0.0000 0.0000 0.0000
# 4 0.0000 0.0000 0.0000 56.9833 0.0000 0.0000
# 5 0.0000 0.0000 0.0000 0.0000 39.5300 0.0000
# 6 0.0000 0.0000 0.0000 0.0000 0.0000 52.4026
#
#
#
# Elastic Compliance Matrix: (Units=1/GPa)
#
#
# Indices 1 2 3 4 5 6 
#
# 1 0.012535 -0.003444 -0.001092 0.000000 0.000000 0.000000
# 2 -0.003444 0.010770 -0.001408 0.000000 0.000000 0.000000
# 3 -0.001092 -0.001408 0.012393 0.000000 0.000000 0.000000
# 4 0.000000 0.000000 0.000000 0.017549 0.000000 0.000000
# 5 0.000000 0.000000 0.000000 0.000000 0.025297 0.000000
# 6 0.000000 0.000000 0.000000 0.000000 0.000000 0.019083
#
#
# Mechanical properties :
#
#
# Convention : Reuss Voigt Hill
#
# Bulk Modulus (GPa) = 42.00022 43.10288 42.55155
# Shear Modulus (GPa) = 42.57024 44.51401 43.54213
#
# Velocity S-wave (km/s) = 4.29734 4.39435 4.34612
# Velocity P-wave (km/s) = 6.54543 6.66673 6.60636
#
# Compressibility (1/GPa) = 0.02380940
#
# Stress axis : x y z
#
# Youngs Moduli (GPa) = 79.77472 92.85117 80.69013
#
# Poissons Ratio (x) = 0.31978 0.08813
# Poissons Ratio (y) = 0.27474 0.11364
# Poissons Ratio (z) = 0.08713 0.13077
#
# Static dielectric constant tensor:
#      x y z
#    x 1.841370 0.000000 0.000000 
#    y 0.000000 2.023520 0.000000 
#    z 0.000000 0.000000 1.892690 
# 
# From -- ./inp_files/8435.got.cif
#   From: 2010.05.17/outbox.cif.g08.bks.cpg/sg60_5_cif.got.tgz:8435.got - 2010.06.03 14:59:27.
