data_PCOD9456297
_publ_section_title
;
Structure prediction by ZEFSAII (Michael W. Deem and Ramdas Pophale) SiO2 
 PCOD9456297
Probable space group: P B C N
;
_chemical_formula_sum "Si O2"
_cell_formula_units_Z 40
_cell_length_a 10.386401
_cell_length_b 10.386520
_cell_length_c 15.394759
_cell_angle_alpha 90.000000
_cell_angle_beta 90.000000
_cell_angle_gamma 90.000000
_cell_volume 1660.764459
_symmetry_space_group_name_H-M "P B C N"
_symmetry_group_IT_number 60
_symmetry_cell_setting 'orthorhombic'
loop_
_space_group_symop_operation_xyz
x,y,z
1/2-x,1/2-y,1/2+z
1/2+x,1/2-y,-z
-x,y,1/2-z
-x,-y,-z
1/2+x,1/2+y,1/2-z
1/2-x,1/2+y,z
x,-y,1/2+z
loop_
_atom_site_type_symbol
_atom_site_label
_atom_site_fract_x
_atom_site_fract_y
_atom_site_fract_z
Si Si1 0.326911 0.686683 0.672623
Si Si2 0.514596 0.814661 0.950250
Si Si3 0.280781 0.036955 0.509671
Si Si4 0.678235 0.424722 0.772263
Si Si5 0.543397 0.607033 0.096981
O O1 0.464831 0.717011 0.629669
O O2 0.242635 0.634750 0.590466
O O3 0.303876 0.576195 0.743425
O O4 0.288350 0.825379 0.707502
O O5 0.519787 0.729763 0.037166
O O6 0.635984 0.913578 0.959666
O O7 0.381678 0.891225 0.945888
O O8 0.143903 0.020566 0.459675
O O9 0.592421 0.435726 0.861103
O O10 0.612870 0.365687 0.687912
#
# Coordination Sequence:
#
# PCOD9456297 Si02
#       5
#     8   8   8   8   8
#     4  11  22  41  66  90 131 165 218 264 324 385
#     4  10  21  40  67  97 126 167 223 268 321 386
#     4  10  21  40  66  98 126 170 216 270 321 386
#     4  11  24  43  62  96 131 175 211 271 327 386
#     4  10  24  41  65  92 132 172 218 265 326 387
#
# _framework density 24.085291999999999
#
# number of rings (size 3 to 8) (size 9 to 14) (size 15 to 20)
#    0.000    1.600    4.000    0.000    2.800    6.400 
#    3.600    0.000    0.000    0.000    0.000    0.000 
#    0.000    0.000    0.000    0.000    0.000    0.000 
#
# Total GULP energy -223036.567045 kJ/mol
# GULP energy per Si atom -5575.914176 kJ/mol
# Density = 2.403047 g / cm^3
# Si number density = 24.085292 Si / 1000 Ang^3
#
#
#
# Elastic Constant Matrix: (Units=GPa)
#
#
# Indices 1 2 3 4 5 6 
#
# 1 60.7108 13.5698 -10.7912 0.0000 0.0000 0.0000
# 2 13.5698 102.0622 1.9905 0.0000 0.0000 0.0000
# 3 -10.7912 1.9905 59.4630 0.0000 0.0000 0.0000
# 4 0.0000 0.0000 0.0000 5.5462 0.0000 0.0000
# 5 0.0000 0.0000 0.0000 0.0000 28.2363 0.0000
# 6 0.0000 0.0000 0.0000 0.0000 0.0000 36.2805
#
#
#
# Elastic Compliance Matrix: (Units=1/GPa)
#
#
# Indices 1 2 3 4 5 6 
#
# 1 0.017590 -0.002403 0.003273 0.000000 0.000000 0.000000
# 2 -0.002403 0.010133 -0.000775 0.000000 0.000000 0.000000
# 3 0.003273 -0.000775 0.017437 0.000000 0.000000 0.000000
# 4 0.000000 0.000000 0.000000 0.180304 0.000000 0.000000
# 5 0.000000 0.000000 0.000000 0.000000 0.035415 0.000000
# 6 0.000000 0.000000 0.000000 0.000000 0.000000 0.027563
#
#
# Mechanical properties :
#
#
# Convention : Reuss Voigt Hill
#
# Bulk Modulus (GPa) = 22.05092 25.75270 23.90181
# Shear Modulus (GPa) = 16.48158 28.51039 22.49598
#
# Velocity S-wave (km/s) = 2.61875 3.44426 3.05948
# Velocity P-wave (km/s) = 4.28007 5.15100 4.73560
#
# Compressibility (1/GPa) = 0.04534958
#
# Stress axis : x y z
#
# Youngs Moduli (GPa) = 56.84967 98.69232 57.34920
#
# Poissons Ratio (x) = 0.23711 -0.18768
# Poissons Ratio (y) = 0.13658 0.04446
# Poissons Ratio (z) = -0.18605 0.07651
#
# Static dielectric constant tensor:
#      x y z
#    x 2.000100 0.000000 0.000000 
#    y 0.000000 2.014830 0.000000 
#    z 0.000000 0.000000 1.930430 
# 
# From -- ./inp_files/19828.got.cif
#   From: 2010.05.17/outbox.cif.g08.bks.cpg/sg60_10_cif.got.tgz:19828.got - 2010.06.03 14:59:27.
