data_PCOD9456800
_publ_section_title
;
Structure prediction by ZEFSAII (Michael W. Deem and Ramdas Pophale) SiO2 
 PCOD9456800
Probable space group: P B C N
;
_chemical_formula_sum "Si O2"
_cell_formula_units_Z 44
_cell_length_a 8.373456
_cell_length_b 32.762201
_cell_length_c 8.093110
_cell_angle_alpha 90.000000
_cell_angle_beta 90.000000
_cell_angle_gamma 90.000000
_cell_volume 2220.205920
_symmetry_space_group_name_H-M "P B C N"
_symmetry_group_IT_number 60
_symmetry_cell_setting 'orthorhombic'
loop_
_space_group_symop_operation_xyz
x,y,z
1/2-x,1/2-y,1/2+z
1/2+x,1/2-y,-z
-x,y,1/2-z
-x,-y,-z
1/2+x,1/2+y,1/2-z
1/2-x,1/2+y,z
x,-y,1/2+z
loop_
_atom_site_type_symbol
_atom_site_label
_atom_site_fract_x
_atom_site_fract_y
_atom_site_fract_z
Si Si1 0.000000 0.813529 0.750000
Si Si2 0.795563 0.870581 0.968495
Si Si3 0.116357 0.553166 0.106398
Si Si4 0.500000 0.336090 0.250000
Si Si5 0.000000 0.524694 0.750000
Si Si6 0.206654 0.222978 0.541625
Si Si7 0.049900 0.692214 0.064718
O O1 0.133846 0.843491 0.677940
O O2 0.908512 0.787594 0.612571
O O3 0.923882 0.864389 0.111396
O O4 0.762293 0.916347 0.913922
O O5 0.630874 0.847282 0.016785
O O6 0.134809 0.507513 0.182588
O O7 0.000000 0.571639 0.250000
O O8 0.048553 0.548039 0.918136
O O9 0.364302 0.305225 0.185702
O O10 0.388822 0.210261 0.514656
O O11 0.177679 0.270687 0.572334
O O12 0.000000 0.681035 0.250000
#
# Coordination Sequence:
#
# PCOD9456800 Si02
#       7
#     4   8   8   4   4   8   8
#     4  10  22  40  59  79 118 168 192 253 305 362
#     4  11  23  40  61  88 120 154 209 252 313 364
#     4   9  18  37  64  97 123 156 198 253 298 373
#     4  10  24  42  53  87 122 162 194 255 313 362
#     4   8  18  36  64 100 126 158 192 248 312 370
#     4  11  23  38  58  78 120 155 207 249 304 356
#     4  12  24  38  60  86 110 160 210 257 303 366
#
# _framework density 19.817982000000001
#
# number of rings (size 3 to 8) (size 9 to 14) (size 15 to 20)
#    0.545    1.091    2.727    2.727    0.000    2.182 
#    3.273    0.000    0.000    3.273    0.000    0.000 
#    0.000    0.000    0.000    0.000    0.000    0.000 
#
# Total GULP energy -245244.577972 kJ/mol
# GULP energy per Si atom -5573.740408 kJ/mol
# Density = 1.977288 g / cm^3
# Si number density = 19.817982 Si / 1000 Ang^3
#
#
#
# Elastic Constant Matrix: (Units=GPa)
#
#
# Indices 1 2 3 4 5 6 
#
# 1 62.4527 17.6733 -7.1891 0.0000 0.0000 0.0000
# 2 17.6733 76.6628 21.5723 0.0000 0.0000 0.0000
# 3 -7.1891 21.5723 77.0615 0.0000 0.0000 0.0000
# 4 0.0000 0.0000 0.0000 17.1746 0.0000 0.0000
# 5 0.0000 0.0000 0.0000 0.0000 21.3088 0.0000
# 6 0.0000 0.0000 0.0000 0.0000 0.0000 25.2473
#
#
#
# Elastic Compliance Matrix: (Units=1/GPa)
#
#
# Indices 1 2 3 4 5 6 
#
# 1 0.017764 -0.004951 0.003043 0.000000 0.000000 0.000000
# 2 -0.004951 0.015540 -0.004812 0.000000 0.000000 0.000000
# 3 0.003043 -0.004812 0.014608 0.000000 0.000000 0.000000
# 4 0.000000 0.000000 0.000000 0.058226 0.000000 0.000000
# 5 0.000000 0.000000 0.000000 0.000000 0.046929 0.000000
# 6 0.000000 0.000000 0.000000 0.000000 0.000000 0.039608
#
#
# Mechanical properties :
#
#
# Convention : Reuss Voigt Hill
#
# Bulk Modulus (GPa) = 29.01032 31.14333 30.07682
# Shear Modulus (GPa) = 22.97749 25.02084 23.99916
#
# Velocity S-wave (km/s) = 3.40873 3.55707 3.48369
# Velocity P-wave (km/s) = 5.49206 5.71131 5.60276
#
# Compressibility (1/GPa) = 0.03447049
#
# Stress axis : x y z
#
# Youngs Moduli (GPa) = 56.29473 64.35134 68.45738
#
# Poissons Ratio (x) = 0.31863 -0.20833
# Poissons Ratio (y) = 0.27874 0.32942
# Poissons Ratio (z) = -0.17132 0.30966
#
# Static dielectric constant tensor:
#      x y z
#    x 1.721720 0.000000 0.000000 
#    y 0.000000 1.668920 0.000000 
#    z 0.000000 0.000000 1.756330 
# 
# From -- ./inp_files/4150.got.cif
#   From: 2010.05.17/outbox.cif.g08.bks.cpg/sg60_3_cif.got.tgz:4150.got - 2010.06.03 14:59:27.
