data_PCOD9456507
_publ_section_title
;
Structure prediction by ZEFSAII (Michael W. Deem and Ramdas Pophale) SiO2 
 PCOD9456507
Probable space group: P B C N
;
_chemical_formula_sum "Si O2"
_cell_formula_units_Z 28
_cell_length_a 9.263205
_cell_length_b 15.756189
_cell_length_c 7.309039
_cell_angle_alpha 90.000000
_cell_angle_beta 90.000000
_cell_angle_gamma 90.000000
_cell_volume 1066.774771
_symmetry_space_group_name_H-M "P B C N"
_symmetry_group_IT_number 60
_symmetry_cell_setting 'orthorhombic'
loop_
_space_group_symop_operation_xyz
x,y,z
1/2-x,1/2-y,1/2+z
1/2+x,1/2-y,-z
-x,y,1/2-z
-x,-y,-z
1/2+x,1/2+y,1/2-z
1/2-x,1/2+y,z
x,-y,1/2+z
loop_
_atom_site_type_symbol
_atom_site_label
_atom_site_fract_x
_atom_site_fract_y
_atom_site_fract_z
Si Si1 0.192795 0.120839 0.227315
Si Si2 0.433913 0.093979 0.497048
Si Si3 0.633745 0.560086 0.885823
Si Si4 0.000000 0.272818 0.250000
O O1 0.354593 0.115174 0.306661
O O2 0.104338 0.096423 0.413312
O O3 0.132713 0.212921 0.185578
O O4 0.169212 0.040431 0.097791
O O5 0.296545 0.094851 0.642406
O O6 0.533170 0.168134 0.575059
O O7 0.500000 0.000000 0.500000
O O8 0.500000 0.576778 0.750000
#
# Coordination Sequence:
#
# PCOD9456507 Si02
#       4
#     8   8   8   4
#     4  10  24  40  74  99 137 187 233 294 349 443
#     4  10  25  44  69  97 147 193 231 295 369 433
#     4  10  21  43  70  98 135 191 228 282 364 436
#     4  12  24  44  66 110 138 178 250 294 352 424
#
# _framework density 26.247340000000001
#
# number of rings (size 3 to 8) (size 9 to 14) (size 15 to 20)
#    1.714    0.000    1.429    2.571    0.000    4.571 
#    0.000    0.000    0.000    0.000    0.000    0.000 
#    0.000    0.000    0.000    0.000    0.000    0.000 
#
# Total GULP energy -156133.557678 kJ/mol
# GULP energy per Si atom -5576.198489 kJ/mol
# Density = 2.618760 g / cm^3
# Si number density = 26.247340 Si / 1000 Ang^3
#
#
#
# Elastic Constant Matrix: (Units=GPa)
#
#
# Indices 1 2 3 4 5 6 
#
# 1 106.6036 7.1574 -3.8729 0.0000 0.0000 0.0000
# 2 7.1574 156.9228 25.9589 0.0000 0.0000 0.0000
# 3 -3.8729 25.9589 68.1790 0.0000 0.0000 0.0000
# 4 0.0000 0.0000 0.0000 47.8988 0.0000 0.0000
# 5 0.0000 0.0000 0.0000 0.0000 42.7282 0.0000
# 6 0.0000 0.0000 0.0000 0.0000 0.0000 43.0701
#
#
#
# Elastic Compliance Matrix: (Units=1/GPa)
#
#
# Indices 1 2 3 4 5 6 
#
# 1 0.009445 -0.000554 0.000748 0.000000 0.000000 0.000000
# 2 -0.000554 0.006833 -0.002633 0.000000 0.000000 0.000000
# 3 0.000748 -0.002633 0.015712 0.000000 0.000000 0.000000
# 4 0.000000 0.000000 0.000000 0.020877 0.000000 0.000000
# 5 0.000000 0.000000 0.000000 0.000000 0.023404 0.000000
# 6 0.000000 0.000000 0.000000 0.000000 0.000000 0.023218
#
#
# Mechanical properties :
#
#
# Convention : Reuss Voigt Hill
#
# Bulk Modulus (GPa) = 36.88613 43.35470 40.12042
# Shear Modulus (GPa) = 44.08899 46.90354 45.49627
#
# Velocity S-wave (km/s) = 4.10292 4.23186 4.16789
# Velocity P-wave (km/s) = 6.04393 6.35860 6.20326
#
# Compressibility (1/GPa) = 0.02711046
#
# Stress axis : x y z
#
# Youngs Moduli (GPa) = 105.87682 146.33864 63.64411
#
# Poissons Ratio (x) = 0.08114 -0.04758
# Poissons Ratio (y) = 0.05871 0.16760
# Poissons Ratio (z) = -0.07916 0.38536
#
# Static dielectric constant tensor:
#      x y z
#    x 2.327650 0.000000 0.000000 
#    y 0.000000 2.035990 0.000000 
#    z 0.000000 0.000000 2.166700 
# 
# From -- ./inp_files/4453.got.cif
#   From: 2010.05.17/outbox.cif.g08.bks.cpg/sg60_3_cif.got.tgz:4453.got - 2010.06.03 14:59:27.
