data_PCOD9456365
_publ_section_title
;
Structure prediction by ZEFSAII (Michael W. Deem and Ramdas Pophale) SiO2 
 PCOD9456365
Probable space group: P B C N
;
_chemical_formula_sum "Si O2"
_cell_formula_units_Z 64
_cell_length_a 18.731375
_cell_length_b 9.473688
_cell_length_c 17.869904
_cell_angle_alpha 90.000000
_cell_angle_beta 90.000000
_cell_angle_gamma 90.000000
_cell_volume 3171.107434
_symmetry_space_group_name_H-M "P B C N"
_symmetry_group_IT_number 60
_symmetry_cell_setting 'orthorhombic'
loop_
_space_group_symop_operation_xyz
x,y,z
1/2-x,1/2-y,1/2+z
1/2+x,1/2-y,-z
-x,y,1/2-z
-x,-y,-z
1/2+x,1/2+y,1/2-z
1/2-x,1/2+y,z
x,-y,1/2+z
loop_
_atom_site_type_symbol
_atom_site_label
_atom_site_fract_x
_atom_site_fract_y
_atom_site_fract_z
Si Si1 0.951865 0.362385 0.486757
Si Si2 0.683208 0.981486 0.547746
Si Si3 0.288088 0.681395 0.689708
Si Si4 0.424021 0.190241 0.774820
Si Si5 0.366373 0.268016 0.632168
Si Si6 0.826596 0.962112 0.455960
Si Si7 0.910234 0.233188 0.055365
Si Si8 0.704071 0.964470 0.718552
O O1 0.882715 0.371494 0.539474
O O2 0.913891 0.353912 0.405793
O O3 0.000000 0.500000 0.500000
O O4 0.013567 0.245509 0.486539
O O5 0.744469 0.972256 0.484724
O O6 0.643475 0.133361 0.541299
O O7 0.716574 0.955833 0.629582
O O8 0.212599 0.721937 0.652712
O O9 0.333743 0.638662 0.617221
O O10 0.269253 0.545107 0.740364
O O11 0.309024 0.814906 0.740811
O O12 0.500000 0.130952 0.750000
O O13 0.402913 0.302531 0.710960
O O14 0.425226 0.257716 0.856528
O O15 0.364386 0.067765 0.774078
O O16 0.357783 0.390506 0.572107
O O17 0.870137 0.901495 0.524964
#
# Coordination Sequence:
#
# PCOD9456365 Si02
#       8
#     8   8   8   8   8   8   8   8
#     4  10  21  41  65  91 127 165 222 270 320 391
#     4  10  23  40  64  97 127 170 214 280 324 397
#     4  11  22  42  62  99 128 174 214 273 326 402
#     4  10  21  43  67  88 122 174 223 262 319 404
#     4  11  22  38  65  94 127 176 216 272 331 394
#     4  12  24  37  65  96 137 167 217 274 344 388
#     4  10  23  40  64  95 123 172 218 272 328 396
#     4  10  24  38  68  93 130 165 222 263 330 386
#
# _framework density 20.182224000000001
#
# number of rings (size 3 to 8) (size 9 to 14) (size 15 to 20)
#    0.000    1.500    3.750    0.750    5.250    1.500 
#    0.000    0.000    0.000    0.000    0.000    0.000 
#    0.000    0.000    0.000    0.000    0.000    0.000 
#
# Total GULP energy -356757.502964 kJ/mol
# GULP energy per Si atom -5574.335984 kJ/mol
# Density = 2.013629 g / cm^3
# Si number density = 20.182224 Si / 1000 Ang^3
#
#
#
# Elastic Constant Matrix: (Units=GPa)
#
#
# Indices 1 2 3 4 5 6 
#
# 1 75.9596 17.1707 26.2137 0.0000 0.0000 0.0000
# 2 17.1707 53.2950 52.0589 0.0000 0.0000 0.0000
# 3 26.2137 52.0589 110.0688 0.0000 0.0000 0.0000
# 4 0.0000 0.0000 0.0000 34.6009 0.0000 0.0000
# 5 0.0000 0.0000 0.0000 0.0000 28.6995 0.0000
# 6 0.0000 0.0000 0.0000 0.0000 0.0000 14.5479
#
#
#
# Elastic Compliance Matrix: (Units=1/GPa)
#
#
# Indices 1 2 3 4 5 6 
#
# 1 0.014509 -0.002415 -0.002313 0.000000 0.000000 0.000000
# 2 -0.002415 0.035278 -0.016110 0.000000 0.000000 0.000000
# 3 -0.002313 -0.016110 0.017256 0.000000 0.000000 0.000000
# 4 0.000000 0.000000 0.000000 0.028901 0.000000 0.000000
# 5 0.000000 0.000000 0.000000 0.000000 0.034844 0.000000
# 6 0.000000 0.000000 0.000000 0.000000 0.000000 0.068738
#
#
# Mechanical properties :
#
#
# Convention : Reuss Voigt Hill
#
# Bulk Modulus (GPa) = 39.42275 47.80109 43.61192
# Shear Modulus (GPa) = 20.02735 25.16167 22.59451
#
# Velocity S-wave (km/s) = 3.15354 3.53473 3.34956
# Velocity P-wave (km/s) = 5.73023 6.35573 6.05107
#
# Compressibility (1/GPa) = 0.02536606
#
# Stress axis : x y z
#
# Youngs Moduli (GPa) = 68.92229 28.34616 57.95167
#
# Poissons Ratio (x) = 0.06846 0.13406
# Poissons Ratio (y) = 0.16645 0.93362
# Poissons Ratio (z) = 0.15943 0.45666
#
# Static dielectric constant tensor:
#      x y z
#    x 1.733670 0.000000 0.000000 
#    y 0.000000 1.747770 0.000000 
#    z 0.000000 0.000000 1.749570 
# 
# From -- ./inp_files/21064.got.cif
#   From: 2010.05.17/outbox.cif.g08.bks.cpg/sg60_11_cif.got.tgz:21064.got - 2010.06.03 14:59:27.
