data_PCOD9456222
_publ_section_title
;
Structure prediction by ZEFSAII (Michael W. Deem and Ramdas Pophale) SiO2 
 PCOD9456222
Probable space group: P B C N
;
_chemical_formula_sum "Si O2"
_cell_formula_units_Z 40
_cell_length_a 11.929590
_cell_length_b 28.520051
_cell_length_c 5.418486
_cell_angle_alpha 90.000000
_cell_angle_beta 90.000000
_cell_angle_gamma 90.000000
_cell_volume 1843.545120
_symmetry_space_group_name_H-M "P B C N"
_symmetry_group_IT_number 60
_symmetry_cell_setting 'orthorhombic'
loop_
_space_group_symop_operation_xyz
x,y,z
1/2-x,1/2-y,1/2+z
1/2+x,1/2-y,-z
-x,y,1/2-z
-x,-y,-z
1/2+x,1/2+y,1/2-z
1/2-x,1/2+y,z
x,-y,1/2+z
loop_
_atom_site_type_symbol
_atom_site_label
_atom_site_fract_x
_atom_site_fract_y
_atom_site_fract_z
Si Si1 0.297354 0.656975 0.449440
Si Si2 0.049296 0.947338 0.497160
Si Si3 0.733395 0.898420 0.051865
Si Si4 0.000000 0.374433 0.250000
Si Si5 0.906673 0.286076 0.544821
Si Si6 0.500000 0.703711 0.250000
O O1 0.275913 0.632170 0.712938
O O2 0.222599 0.703689 0.415750
O O3 0.425570 0.671944 0.425965
O O4 0.256965 0.626605 0.211076
O O5 0.183518 0.943177 0.470432
O O6 0.000000 0.926414 0.750000
O O7 0.000000 0.000000 0.500000
O O8 0.000000 0.924819 0.250000
O O9 0.600426 0.902731 0.114344
O O10 0.944828 0.336785 0.435747
O O11 0.000000 0.277713 0.750000
O O12 0.917651 0.240059 0.382265
#
# Coordination Sequence:
#
# PCOD9456222 Si02
#       6
#     8   8   8   4   8   4
#     4  11  26  40  61  92 124 166 223 268 324 375
#     4  10  22  41  67  96 131 165 198 245 332 399
#     4  11  23  41  65  93 128 163 213 272 315 390
#     4   9  20  40  60  90 118 170 220 264 312 372
#     4  10  21  40  57  78 122 172 214 266 318 370
#     4  11  28  36  60  84 124 172 218 274 322 382
#
# _framework density 21.697323999999998
#
# number of rings (size 3 to 8) (size 9 to 14) (size 15 to 20)
#    0.000    1.600    2.000    1.200    9.800    0.000 
#    0.000    0.000    0.000    4.800    0.000    0.000 
#    0.000    0.000    0.000    0.000    0.000    0.000 
#
# Total GULP energy -222774.426356 kJ/mol
# GULP energy per Si atom -5569.360659 kJ/mol
# Density = 2.164794 g / cm^3
# Si number density = 21.697324 Si / 1000 Ang^3
#
#
#
# Elastic Constant Matrix: (Units=GPa)
#
#
# Indices 1 2 3 4 5 6 
#
# 1 122.3633 33.1039 5.8021 0.0000 0.0000 0.0000
# 2 33.1039 62.2041 11.1540 0.0000 0.0000 0.0000
# 3 5.8021 11.1540 111.7484 0.0000 0.0000 0.0000
# 4 0.0000 0.0000 0.0000 -1.4739 0.0000 0.0000
# 5 0.0000 0.0000 0.0000 0.0000 38.8408 0.0000
# 6 0.0000 0.0000 0.0000 0.0000 0.0000 -44.8855
#
#
#
# Elastic Compliance Matrix: (Units=1/GPa)
#
#
# Indices 1 2 3 4 5 6 
#
# 1 0.009547 -0.005083 0.000012 0.000000 0.000000 0.000000
# 2 -0.005083 0.019075 -0.001640 0.000000 0.000000 0.000000
# 3 0.000012 -0.001640 0.009112 0.000000 0.000000 0.000000
# 4 0.000000 0.000000 0.000000 -0.678468 0.000000 0.000000
# 5 0.000000 0.000000 0.000000 0.000000 0.025746 0.000000
# 6 0.000000 0.000000 0.000000 0.000000 0.000000 -0.022279
#
#
# Mechanical properties :
#
#
# Convention : Reuss Voigt Hill
#
# Bulk Modulus (GPa) = 41.13287 44.04841 42.59064
# Shear Modulus (GPa) = -8.12030 14.91335 3.39653
#
# Velocity S-wave (km/s) = -1.93666 2.62455 1.25252
# Velocity P-wave (km/s) = 3.74137 5.43413 4.66517
#
# Compressibility (1/GPa) = 0.02431146
#
# Stress axis : x y z
#
# Youngs Moduli (GPa) = 104.74587 52.42427 109.74821
#
# Poissons Ratio (x) = 0.26646 -0.00128
# Poissons Ratio (y) = 0.53240 0.17999
# Poissons Ratio (z) = -0.00122 0.08598
#
# Static dielectric constant tensor:
#      x y z
#    x 1.905040 0.000000 0.000000 
#    y 0.000000 1.900730 0.000000 
#    z 0.000000 0.000000 1.678640 
# 
# From -- ./inp_files/956.got.cif
#   From: 2010.05.17/outbox.cif.g08.bks.cpg/sg60_1_cif.got.tgz:956.got - 2010.06.03 14:59:27.
