data_PCOD9456702
_publ_section_title
;
Structure prediction by ZEFSAII (Michael W. Deem and Ramdas Pophale) SiO2 
 PCOD9456702
Probable space group: P B C N
;
_chemical_formula_sum "Si O2"
_cell_formula_units_Z 44
_cell_length_a 5.502852
_cell_length_b 18.152303
_cell_length_c 20.690773
_cell_angle_alpha 90.000000
_cell_angle_beta 90.000000
_cell_angle_gamma 90.000000
_cell_volume 2066.789663
_symmetry_space_group_name_H-M "P B C N"
_symmetry_group_IT_number 60
_symmetry_cell_setting 'orthorhombic'
loop_
_space_group_symop_operation_xyz
x,y,z
1/2-x,1/2-y,1/2+z
1/2+x,1/2-y,-z
-x,y,1/2-z
-x,-y,-z
1/2+x,1/2+y,1/2-z
1/2-x,1/2+y,z
x,-y,1/2+z
loop_
_atom_site_type_symbol
_atom_site_label
_atom_site_fract_x
_atom_site_fract_y
_atom_site_fract_z
Si Si1 0.637529 0.235511 0.536230
Si Si2 0.870724 0.804340 0.318564
Si Si3 0.191755 0.668227 0.360130
Si Si4 0.500000 0.710925 0.250000
Si Si5 0.040376 0.902251 0.430504
Si Si6 0.693610 0.044449 0.043794
O O1 0.375936 0.234489 0.502501
O O2 0.609922 0.294029 0.593498
O O3 0.737467 0.155022 0.556587
O O4 0.617183 0.769563 0.298996
O O5 0.890749 0.868896 0.370540
O O6 0.000000 0.823024 0.250000
O O7 0.002457 0.733926 0.350425
O O8 0.311318 0.660438 0.289469
O O9 0.094286 0.599499 0.401110
O O10 0.871298 0.913547 0.493432
O O11 0.150521 0.982542 0.419070
O O12 0.500000 0.000000 0.000000
#
# Coordination Sequence:
#
# PCOD9456702 Si02
#       6
#     8   8   8   4   8   8
#     4  11  22  37  65 101 128 170 221 279 337 392
#     4   9  21  41  65  96 123 167 225 274 328 392
#     4  10  22  38  64  91 130 170 222 277 332 404
#     4  10  22  40  68  88 128 166 226 286 328 394
#     4  10  23  37  62  95 134 169 217 269 338 406
#     4  11  23  40  60  95 138 177 211 274 341 412
#
# _framework density 21.289058000000001
#
# number of rings (size 3 to 8) (size 9 to 14) (size 15 to 20)
#    0.000    1.818    1.818    1.091    5.091    5.818 
#    1.636    0.000    0.000    0.000    0.000    0.000 
#    0.000    0.000    0.000    0.000    0.000    0.000 
#
# Total GULP energy -245319.328963 kJ/mol
# GULP energy per Si atom -5575.439295 kJ/mol
# Density = 2.124060 g / cm^3
# Si number density = 21.289058 Si / 1000 Ang^3
#
#
#
# Elastic Constant Matrix: (Units=GPa)
#
#
# Indices 1 2 3 4 5 6 
#
# 1 50.8574 16.9654 21.9565 0.0000 0.0000 0.0000
# 2 16.9654 104.7846 65.7393 0.0000 0.0000 0.0000
# 3 21.9565 65.7393 89.4922 0.0000 0.0000 0.0000
# 4 0.0000 0.0000 0.0000 42.6623 0.0000 0.0000
# 5 0.0000 0.0000 0.0000 0.0000 42.0606 0.0000
# 6 0.0000 0.0000 0.0000 0.0000 0.0000 18.2338
#
#
#
# Elastic Compliance Matrix: (Units=1/GPa)
#
#
# Indices 1 2 3 4 5 6 
#
# 1 0.021998 -0.000326 -0.005158 0.000000 0.000000 0.000000
# 2 -0.000326 0.017706 -0.012926 0.000000 0.000000 0.000000
# 3 -0.005158 -0.012926 0.021935 0.000000 0.000000 0.000000
# 4 0.000000 0.000000 0.000000 0.023440 0.000000 0.000000
# 5 0.000000 0.000000 0.000000 0.000000 0.023775 0.000000
# 6 0.000000 0.000000 0.000000 0.000000 0.000000 0.054843
#
#
# Mechanical properties :
#
#
# Convention : Reuss Voigt Hill
#
# Bulk Modulus (GPa) = 40.29158 50.49518 45.39338
# Shear Modulus (GPa) = 23.94739 29.95621 26.95180
#
# Velocity S-wave (km/s) = 3.35754 3.75523 3.56194
# Velocity P-wave (km/s) = 5.83077 6.52477 6.18751
#
# Compressibility (1/GPa) = 0.02481908
#
# Stress axis : x y z
#
# Youngs Moduli (GPa) = 45.45810 56.47841 45.58885
#
# Poissons Ratio (x) = 0.01840 0.23514
# Poissons Ratio (y) = 0.01481 0.58930
# Poissons Ratio (z) = 0.23447 0.73007
#
# Static dielectric constant tensor:
#      x y z
#    x 1.827880 0.000000 0.000000 
#    y 0.000000 1.777860 0.000000 
#    z 0.000000 0.000000 1.944700 
# 
# From -- ./inp_files/23600.got.cif
#   From: 2010.05.17/outbox.cif.g08.bks.cpg/sg60_12_cif.got.tgz:23600.got - 2010.06.03 14:59:27.
