data_PCOD9456346
_publ_section_title
;
Structure prediction by ZEFSAII (Michael W. Deem and Ramdas Pophale) SiO2 
 PCOD9456346
Probable space group: P B C N
;
_chemical_formula_sum "Si O2"
_cell_formula_units_Z 60
_cell_length_a 17.628047
_cell_length_b 12.066882
_cell_length_c 14.829952
_cell_angle_alpha 90.000000
_cell_angle_beta 90.000000
_cell_angle_gamma 90.000000
_cell_volume 3154.561590
_symmetry_space_group_name_H-M "P B C N"
_symmetry_group_IT_number 60
_symmetry_cell_setting 'orthorhombic'
loop_
_space_group_symop_operation_xyz
x,y,z
1/2-x,1/2-y,1/2+z
1/2+x,1/2-y,-z
-x,y,1/2-z
-x,-y,-z
1/2+x,1/2+y,1/2-z
1/2-x,1/2+y,z
x,-y,1/2+z
loop_
_atom_site_type_symbol
_atom_site_label
_atom_site_fract_x
_atom_site_fract_y
_atom_site_fract_z
Si Si1 0.443527 0.643857 0.665627
Si Si2 0.136719 0.071321 0.091686
Si Si3 0.500000 0.133325 0.750000
Si Si4 0.801668 0.507020 0.356380
Si Si5 0.341996 0.227961 0.732000
Si Si6 0.921631 0.234408 0.552052
Si Si7 0.821993 0.711595 0.225843
Si Si8 0.058835 0.552572 0.565214
O O1 0.500000 0.624604 0.750000
O O2 0.417744 0.527629 0.623257
O O3 0.495462 0.710555 0.594217
O O4 0.370232 0.710256 0.704597
O O5 0.221419 0.022906 0.096772
O O6 0.141240 0.169842 0.165424
O O7 0.111717 0.124923 0.996831
O O8 0.423860 0.201434 0.775598
O O9 0.524097 0.061641 0.835366
O O10 0.816029 0.382456 0.321656
O O11 0.815702 0.591987 0.274167
O O12 0.867120 0.522756 0.429455
O O13 0.266055 0.254202 0.788369
O O14 0.868233 0.278650 0.632921
O O15 0.924679 0.326635 0.474708
O O16 0.000000 0.500000 0.500000
#
# Coordination Sequence:
#
# PCOD9456346 Si02
#       8
#     8   8   4   8   8   8   8   8
#     4  10  22  39  65  90 129 170 209 251 323 383
#     4  11  21  40  64  89 132 163 210 266 311 377
#     4  10  22  40  64  86 128 160 204 268 314 376
#     4  10  21  41  67  84 129 171 206 263 317 382
#     4  10  21  41  63  91 119 168 213 249 321 383
#     4  11  23  40  61 100 129 157 221 266 307 385
#     4  10  22  41  64  90 122 171 210 254 320 383
#     4  11  24  40  63  96 126 164 212 264 319 381
#
# _framework density 19.020074000000001
#
# number of rings (size 3 to 8) (size 9 to 14) (size 15 to 20)
#    0.000    1.600    4.000    1.200    4.667    1.067 
#    1.200    1.333    0.000    0.000    0.000    0.000 
#    0.000    0.000    0.000    0.000    0.000    0.000 
#
# Total GULP energy -334459.474093 kJ/mol
# GULP energy per Si atom -5574.324568 kJ/mol
# Density = 1.897678 g / cm^3
# Si number density = 19.020074 Si / 1000 Ang^3
#
#
#
# Elastic Constant Matrix: (Units=GPa)
#
#
# Indices 1 2 3 4 5 6 
#
# 1 131.9414 18.1911 22.4982 0.0000 0.0000 0.0000
# 2 18.1911 53.0781 12.8642 0.0000 0.0000 0.0000
# 3 22.4982 12.8642 71.0083 0.0000 0.0000 0.0000
# 4 0.0000 0.0000 0.0000 13.2941 0.0000 0.0000
# 5 0.0000 0.0000 0.0000 0.0000 23.3505 0.0000
# 6 0.0000 0.0000 0.0000 0.0000 0.0000 31.9985
#
#
#
# Elastic Compliance Matrix: (Units=1/GPa)
#
#
# Indices 1 2 3 4 5 6 
#
# 1 0.008272 -0.002301 -0.002204 0.000000 0.000000 0.000000
# 2 -0.002301 0.020345 -0.002957 0.000000 0.000000 0.000000
# 3 -0.002204 -0.002957 0.015317 0.000000 0.000000 0.000000
# 4 0.000000 0.000000 0.000000 0.075221 0.000000 0.000000
# 5 0.000000 0.000000 0.000000 0.000000 0.042826 0.000000
# 6 0.000000 0.000000 0.000000 0.000000 0.000000 0.031251
#
#
# Mechanical properties :
#
#
# Convention : Reuss Voigt Hill
#
# Bulk Modulus (GPa) = 34.46999 40.34832 37.40915
# Shear Modulus (GPa) = 22.95403 27.22692 25.09047
#
# Velocity S-wave (km/s) = 3.47772 3.78760 3.63596
# Velocity P-wave (km/s) = 5.85562 6.35511 6.11047
#
# Compressibility (1/GPa) = 0.02901075
#
# Stress axis : x y z
#
# Youngs Moduli (GPa) = 120.88702 49.15121 65.28743
#
# Poissons Ratio (x) = 0.11309 0.14390
# Poissons Ratio (y) = 0.27815 0.19305
# Poissons Ratio (z) = 0.26645 0.14533
#
# Static dielectric constant tensor:
#      x y z
#    x 1.682670 0.000000 0.000000 
#    y 0.000000 1.697370 0.000000 
#    z 0.000000 0.000000 1.632150 
# 
# From -- ./inp_files/17464.got.cif
#   From: 2010.05.17/outbox.cif.g08.bks.cpg/sg60_9_cif.got.tgz:17464.got - 2010.06.03 14:59:27.
