data_PCOD9456876
_publ_section_title
;
Structure prediction by ZEFSAII (Michael W. Deem and Ramdas Pophale) SiO2 
 PCOD9456876
Probable space group: P B C N
;
_chemical_formula_sum "Si O2"
_cell_formula_units_Z 64
_cell_length_a 15.949336
_cell_length_b 11.689266
_cell_length_c 14.090335
_cell_angle_alpha 90.000000
_cell_angle_beta 90.000000
_cell_angle_gamma 90.000000
_cell_volume 2626.946133
_symmetry_space_group_name_H-M "P B C N"
_symmetry_group_IT_number 60
_symmetry_cell_setting 'orthorhombic'
loop_
_space_group_symop_operation_xyz
x,y,z
1/2-x,1/2-y,1/2+z
1/2+x,1/2-y,-z
-x,y,1/2-z
-x,-y,-z
1/2+x,1/2+y,1/2-z
1/2-x,1/2+y,z
x,-y,1/2+z
loop_
_atom_site_type_symbol
_atom_site_label
_atom_site_fract_x
_atom_site_fract_y
_atom_site_fract_z
Si Si1 0.858739 0.515438 0.762588
Si Si2 0.829678 0.025131 0.778557
Si Si3 0.341560 0.417010 0.906375
Si Si4 0.305960 0.768626 0.550991
Si Si5 0.382511 0.186465 0.580518
Si Si6 0.168188 0.488491 0.452918
Si Si7 0.598099 0.746211 0.765668
Si Si8 0.977580 0.902014 0.862400
O O1 0.765961 0.535001 0.807396
O O2 0.907201 0.601481 0.832004
O O3 0.859211 0.549844 0.651786
O O4 0.879331 0.379907 0.754590
O O5 0.857143 0.136899 0.716055
O O6 0.824009 0.918447 0.705534
O O7 0.899654 0.988072 0.853307
O O8 0.268843 0.495268 0.949090
O O9 0.438800 0.448263 0.912354
O O10 0.321605 0.296755 0.953416
O O11 0.209734 0.748916 0.583273
O O12 0.341341 0.894213 0.532950
O O13 0.365556 0.717148 0.630712
O O14 0.448709 0.288187 0.584224
O O15 0.376053 0.104967 0.487933
O O16 0.500000 0.733518 0.750000
O O17 0.000000 0.880005 0.750000
#
# Coordination Sequence:
#
# PCOD9456876 Si02
#       8
#     8   8   8   8   8   8   8   8
#     4  11  24  43  73  99 137 194 229 290 352 429
#     4  10  22  43  70 100 137 186 241 282 351 434
#     4   9  22  41  65 100 134 175 225 300 347 402
#     4  11  23  45  69  99 146 185 238 293 348 435
#     4  11  23  43  71 102 137 188 234 287 355 431
#     4  10  24  43  68 103 139 179 246 280 349 437
#     4  12  25  44  69 100 140 186 237 291 361 425
#     4  10  22  40  68 106 141 178 235 291 359 409
#
# _framework density 24.36289
#
# number of rings (size 3 to 8) (size 9 to 14) (size 15 to 20)
#    0.000    1.500    2.500    1.875    3.500    6.500 
#    0.000    5.625    0.000    0.000    0.000    0.000 
#    0.000    0.000    0.000    0.000    0.000    0.000 
#
# Total GULP energy -357112.189705 kJ/mol
# GULP energy per Si atom -5579.877964 kJ/mol
# Density = 2.430744 g / cm^3
# Si number density = 24.362890 Si / 1000 Ang^3
#
#
#
# Elastic Constant Matrix: (Units=GPa)
#
#
# Indices 1 2 3 4 5 6 
#
# 1 46.1271 -10.0186 3.1326 0.0000 0.0000 0.0000
# 2 -10.0186 60.5892 6.1042 0.0000 0.0000 0.0000
# 3 3.1326 6.1042 60.2621 0.0000 0.0000 0.0000
# 4 0.0000 0.0000 0.0000 28.0545 0.0000 0.0000
# 5 0.0000 0.0000 0.0000 0.0000 22.3038 0.0000
# 6 0.0000 0.0000 0.0000 0.0000 0.0000 8.0866
#
#
#
# Elastic Compliance Matrix: (Units=1/GPa)
#
#
# Indices 1 2 3 4 5 6 
#
# 1 0.022633 0.003901 -0.001572 0.000000 0.000000 0.000000
# 2 0.003901 0.017347 -0.001960 0.000000 0.000000 0.000000
# 3 -0.001572 -0.001960 0.016874 0.000000 0.000000 0.000000
# 4 0.000000 0.000000 0.000000 0.035645 0.000000 0.000000
# 5 0.000000 0.000000 0.000000 0.000000 0.044835 0.000000
# 6 0.000000 0.000000 0.000000 0.000000 0.000000 0.123662
#
#
# Mechanical properties :
#
#
# Convention : Reuss Voigt Hill
#
# Bulk Modulus (GPa) = 17.36318 18.37940 17.87129
# Shear Modulus (GPa) = 17.89188 22.87298 20.38243
#
# Velocity S-wave (km/s) = 2.71290 3.06738 2.89557
# Velocity P-wave (km/s) = 4.11771 4.48392 4.30471
#
# Compressibility (1/GPa) = 0.05759315
#
# Stress axis : x y z
#
# Youngs Moduli (GPa) = 44.18287 57.64661 59.26132
#
# Poissons Ratio (x) = -0.22487 0.09314
# Poissons Ratio (y) = -0.17235 0.11615
# Poissons Ratio (z) = 0.06944 0.11298
#
# Static dielectric constant tensor:
#      x y z
#    x 1.957490 0.000000 0.000000 
#    y 0.000000 2.007800 0.000000 
#    z 0.000000 0.000000 2.000590 
# 
# From -- ./inp_files/17484.got.cif
#   From: 2010.05.17/outbox.cif.g08.bks.cpg/sg60_9_cif.got.tgz:17484.got - 2010.06.03 14:59:27.
