data_PCOD9456016
_publ_section_title
;
Structure prediction by ZEFSAII (Michael W. Deem and Ramdas Pophale) SiO2 
 PCOD9456016
Probable space group: P B C N
;
_chemical_formula_sum "Si O2"
_cell_formula_units_Z 40
_cell_length_a 7.748216
_cell_length_b 11.291748
_cell_length_c 19.153200
_cell_angle_alpha 90.000000
_cell_angle_beta 90.000000
_cell_angle_gamma 90.000000
_cell_volume 1675.730754
_symmetry_space_group_name_H-M "P B C N"
_symmetry_group_IT_number 60
_symmetry_cell_setting 'orthorhombic'
loop_
_space_group_symop_operation_xyz
x,y,z
1/2-x,1/2-y,1/2+z
1/2+x,1/2-y,-z
-x,y,1/2-z
-x,-y,-z
1/2+x,1/2+y,1/2-z
1/2-x,1/2+y,z
x,-y,1/2+z
loop_
_atom_site_type_symbol
_atom_site_label
_atom_site_fract_x
_atom_site_fract_y
_atom_site_fract_z
Si Si1 0.146016 0.260066 0.533581
Si Si2 0.760542 0.259699 0.705396
Si Si3 0.665296 0.106138 0.074521
Si Si4 0.608308 0.322885 0.846120
Si Si5 0.566906 0.432424 0.121296
O O1 0.211812 0.204905 0.461800
O O2 0.312744 0.286544 0.580463
O O3 0.018215 0.372933 0.537868
O O4 0.042366 0.155817 0.573519
O O5 0.849278 0.358037 0.655913
O O6 0.747234 0.297568 0.785403
O O7 0.563367 0.253845 0.677514
O O8 0.855429 0.139032 0.686387
O O9 0.775075 0.986459 0.075692
O O10 0.548210 0.458679 0.852150
#
# Coordination Sequence:
#
# PCOD9456016 Si02
#       5
#     8   8   8   8   8
#     4  11  23  40  64  93 129 169 216 266 313 376
#     4   9  21  40  62  90 126 164 208 259 309 377
#     4  10  21  38  60  91 129 168 214 263 311 373
#     4  10  22  41  64  93 126 165 213 264 315 377
#     4  10  22  41  63  92 129 172 211 259 323 378
#
# _framework density 23.870183000000001
#
# number of rings (size 3 to 8) (size 9 to 14) (size 15 to 20)
#    0.000    2.000    0.000    3.000    0.000   12.800 
#    0.000   12.000    0.000    0.000    0.000    0.000 
#    0.000    0.000    0.000    0.000    0.000    0.000 
#
# Total GULP energy -223748.822177 kJ/mol
# GULP energy per Si atom -5593.720554 kJ/mol
# Density = 2.381585 g / cm^3
# Si number density = 23.870183 Si / 1000 Ang^3
#
#
#
# Elastic Constant Matrix: (Units=GPa)
#
#
# Indices 1 2 3 4 5 6 
#
# 1 77.5255 20.5349 14.2850 0.0000 0.0000 0.0000
# 2 20.5349 101.5111 19.5692 0.0000 0.0000 0.0000
# 3 14.2850 19.5692 99.2157 0.0000 0.0000 0.0000
# 4 0.0000 0.0000 0.0000 19.8222 0.0000 0.0000
# 5 0.0000 0.0000 0.0000 0.0000 51.0863 0.0000
# 6 0.0000 0.0000 0.0000 0.0000 0.0000 33.0775
#
#
#
# Elastic Compliance Matrix: (Units=1/GPa)
#
#
# Indices 1 2 3 4 5 6 
#
# 1 0.013840 -0.002511 -0.001497 0.000000 0.000000 0.000000
# 2 -0.002511 0.010696 -0.001748 0.000000 0.000000 0.000000
# 3 -0.001497 -0.001748 0.010639 0.000000 0.000000 0.000000
# 4 0.000000 0.000000 0.000000 0.050448 0.000000 0.000000
# 5 0.000000 0.000000 0.000000 0.000000 0.019575 0.000000
# 6 0.000000 0.000000 0.000000 0.000000 0.000000 0.030232
#
#
# Mechanical properties :
#
#
# Convention : Reuss Voigt Hill
#
# Bulk Modulus (GPa) = 42.26121 43.00339 42.63230
# Shear Modulus (GPa) = 32.29318 35.72140 34.00729
#
# Velocity S-wave (km/s) = 3.68212 3.87264 3.77858
# Velocity P-wave (km/s) = 5.98502 6.16856 6.07748
#
# Compressibility (1/GPa) = 0.02366236
#
# Stress axis : x y z
#
# Youngs Moduli (GPa) = 72.25424 93.49185 93.98987
#
# Poissons Ratio (x) = 0.23476 0.14074
# Poissons Ratio (y) = 0.18144 0.16431
# Poissons Ratio (z) = 0.10819 0.16344
#
# Static dielectric constant tensor:
#      x y z
#    x 1.952100 0.000000 0.000000 
#    y 0.000000 1.899610 0.000000 
#    z 0.000000 0.000000 1.885180 
# 
# From -- ./inp_files/22016.got.cif
#   From: 2010.05.17/outbox.cif.g08.bks.cpg/sg60_12_cif.got.tgz:22016.got - 2010.06.03 14:59:27.
