data_PCOD9456695
_publ_section_title
;
Structure prediction by ZEFSAII (Michael W. Deem and Ramdas Pophale) SiO2 
 PCOD9456695
Probable space group: P B C N
;
_chemical_formula_sum "Si O2"
_cell_formula_units_Z 48
_cell_length_a 10.179982
_cell_length_b 28.747831
_cell_length_c 8.573432
_cell_angle_alpha 90.000000
_cell_angle_beta 90.000000
_cell_angle_gamma 90.000000
_cell_volume 2509.035469
_symmetry_space_group_name_H-M "P B C N"
_symmetry_group_IT_number 60
_symmetry_cell_setting 'orthorhombic'
loop_
_space_group_symop_operation_xyz
x,y,z
1/2-x,1/2-y,1/2+z
1/2+x,1/2-y,-z
-x,y,1/2-z
-x,-y,-z
1/2+x,1/2+y,1/2-z
1/2-x,1/2+y,z
x,-y,1/2+z
loop_
_atom_site_type_symbol
_atom_site_label
_atom_site_fract_x
_atom_site_fract_y
_atom_site_fract_z
Si Si1 0.000011 0.551326 0.063280
Si Si2 0.155556 0.290870 0.062340
Si Si3 0.251651 0.610173 0.061913
Si Si4 0.655554 0.790872 0.062334
Si Si5 0.248369 0.110174 0.438098
Si Si6 0.999991 0.946794 0.436388
O O1 0.872411 0.579197 0.013731
O O2 0.000000 0.549732 0.250000
O O3 0.127629 0.579187 0.013736
O O4 0.000000 0.500000 0.000000
O O5 0.156343 0.290085 0.250003
O O6 0.000002 0.287550 0.013146
O O7 0.249999 0.249998 0.000005
O O8 0.220651 0.338660 0.002157
O O9 0.261028 0.612415 0.250006
O O10 0.220644 0.661337 0.997848
O O11 0.376426 0.583106 0.995636
O O12 0.123611 0.083098 0.504383
O O13 0.000000 0.949396 0.250000
O O14 0.000000 0.000000 0.500000
#
# Coordination Sequence:
#
# PCOD9456695 Si02
#       6
#     8   8   8   8   8   8
#     4  10  22  38  63  94 125 164 208 259 317 377
#     4  11  25  44  68  98 131 172 218 268 326 390
#     4  11  23  43  67  95 130 171 216 269 325 385
#     4  11  25  44  68  98 131 172 218 268 326 390
#     4  11  23  43  67  95 130 171 216 269 325 385
#     4  12  26  44  65  96 133 176 222 269 323 387
#
# _framework density 19.130856000000001
#
# number of rings (size 3 to 8) (size 9 to 14) (size 15 to 20)
#    0.000    1.000    1.667    4.500    2.333    7.333 
#    0.000    0.000    0.000    0.000    0.000    0.000 
#    0.000    0.000    0.000    0.000    0.000    0.000 
#
# Total GULP energy -268267.799251 kJ/mol
# GULP energy per Si atom -5588.912484 kJ/mol
# Density = 1.908731 g / cm^3
# Si number density = 19.130856 Si / 1000 Ang^3
#
#
#
# Elastic Constant Matrix: (Units=GPa)
#
#
# Indices 1 2 3 4 5 6 
#
# 1 222.9464 134.5967 70.4864 0.0000 0.0000 0.0000
# 2 134.5967 242.3603 65.0962 0.0000 0.0000 0.0000
# 3 70.4864 65.0962 88.6655 0.0000 0.0000 0.0000
# 4 0.0000 0.0000 0.0000 44.2523 0.0000 0.0000
# 5 0.0000 0.0000 0.0000 0.0000 144.0870 0.0000
# 6 0.0000 0.0000 0.0000 0.0000 0.0000 41.8188
#
#
#
# Elastic Compliance Matrix: (Units=1/GPa)
#
#
# Indices 1 2 3 4 5 6 
#
# 1 0.007597 -0.003235 -0.003664 0.000000 0.000000 0.000000
# 2 -0.003235 0.006517 -0.002213 0.000000 0.000000 0.000000
# 3 -0.003664 -0.002213 0.015816 0.000000 0.000000 0.000000
# 4 0.000000 0.000000 0.000000 0.022598 0.000000 0.000000
# 5 0.000000 0.000000 0.000000 0.000000 0.006940 0.000000
# 6 0.000000 0.000000 0.000000 0.000000 0.000000 0.023913
#
#
# Mechanical properties :
#
#
# Convention : Reuss Voigt Hill
#
# Bulk Modulus (GPa) = 85.42923 121.59231 103.51077
# Shear Modulus (GPa) = 47.39041 64.95115 56.17078
#
# Velocity S-wave (km/s) = 4.98252 5.83307 5.42449
# Velocity P-wave (km/s) = 8.82342 10.44330 9.66735
#
# Compressibility (1/GPa) = 0.01170559
#
# Stress axis : x y z
#
# Youngs Moduli (GPa) = 131.63550 153.44676 63.22640
#
# Poissons Ratio (x) = 0.49635 0.23168
# Poissons Ratio (y) = 0.42580 0.13993
# Poissons Ratio (z) = 0.48236 0.33959
#
# Static dielectric constant tensor:
#      x y z
#    x 1.004430 0.000000 0.000000 
#    y 0.000000 1.636990 0.000000 
#    z 0.000000 0.000000 1.649310 
# 
# From -- ./inp_files/4247.got.cif
#   From: 2010.05.17/outbox.cif.g08.bks.cpg/sg60_3_cif.got.tgz:4247.got - 2010.06.03 14:59:27.
