data_PCOD9456462
_publ_section_title
;
Structure prediction by ZEFSAII (Michael W. Deem and Ramdas Pophale) SiO2 
 PCOD9456462
Probable space group: P B C N
;
_chemical_formula_sum "Si O2"
_cell_formula_units_Z 48
_cell_length_a 10.428208
_cell_length_b 22.869716
_cell_length_c 8.093893
_cell_angle_alpha 90.000000
_cell_angle_beta 90.000000
_cell_angle_gamma 90.000000
_cell_volume 1930.313799
_symmetry_space_group_name_H-M "P B C N"
_symmetry_group_IT_number 60
_symmetry_cell_setting 'orthorhombic'
loop_
_space_group_symop_operation_xyz
x,y,z
1/2-x,1/2-y,1/2+z
1/2+x,1/2-y,-z
-x,y,1/2-z
-x,-y,-z
1/2+x,1/2+y,1/2-z
1/2-x,1/2+y,z
x,-y,1/2+z
loop_
_atom_site_type_symbol
_atom_site_label
_atom_site_fract_x
_atom_site_fract_y
_atom_site_fract_z
Si Si1 0.888505 0.077132 0.475075
Si Si2 0.754634 0.998766 0.732988
Si Si3 0.733991 0.811056 0.890687
Si Si4 0.000000 0.367048 0.750000
Si Si5 0.218495 0.687517 0.736717
Si Si6 0.000000 0.863077 0.250000
Si Si7 0.879191 0.422516 0.470778
O O1 0.872010 0.025593 0.343573
O O2 0.833249 0.135441 0.393512
O O3 0.008819 0.097697 0.582975
O O4 0.797454 0.052822 0.621219
O O5 0.714019 0.945586 0.616435
O O6 0.637655 0.023910 0.842968
O O7 0.672400 0.808846 0.074055
O O8 0.624953 0.826847 0.758572
O O9 0.798177 0.749608 0.850291
O O10 0.001124 0.405704 0.582561
O O11 0.371368 0.674753 0.753774
O O12 0.158356 0.635011 0.631286
#
# Coordination Sequence:
#
# PCOD9456462 Si02
#       7
#     8   8   8   4   8   4   8
#     4  10  21  42  67  99 133 176 216 283 331 402
#     4  10  21  43  67  93 142 173 225 272 343 397
#     4  11  23  44  68 100 134 180 218 287 332 404
#     4  12  25  42  70 100 134 178 237 264 352 398
#     4  11  24  45  72  97 142 169 226 281 345 398
#     4  10  21  42  68 104 128 172 223 270 346 406
#     4  11  23  43  66 101 132 182 219 289 328 407
#
# _framework density 24.866423000000001
#
# number of rings (size 3 to 8) (size 9 to 14) (size 15 to 20)
#    0.000    1.333    5.000    1.500    0.000    3.333 
#    0.000    0.000    0.000    0.000    0.000    0.000 
#    0.000    0.000    0.000    0.000    0.000    0.000 
#
# Total GULP energy -268188.714707 kJ/mol
# GULP energy per Si atom -5587.264890 kJ/mol
# Density = 2.480983 g / cm^3
# Si number density = 24.866423 Si / 1000 Ang^3
#
#
#
# Elastic Constant Matrix: (Units=GPa)
#
#
# Indices 1 2 3 4 5 6 
#
# 1 25.9368 16.7537 4.1623 0.0000 0.0000 0.0000
# 2 16.7537 177.8838 41.3312 0.0000 0.0000 0.0000
# 3 4.1623 41.3312 97.2935 0.0000 0.0000 0.0000
# 4 0.0000 0.0000 0.0000 43.4997 0.0000 0.0000
# 5 0.0000 0.0000 0.0000 0.0000 44.8538 0.0000
# 6 0.0000 0.0000 0.0000 0.0000 0.0000 26.0247
#
#
#
# Elastic Compliance Matrix: (Units=1/GPa)
#
#
# Indices 1 2 3 4 5 6 
#
# 1 0.041054 -0.003837 -0.000126 0.000000 0.000000 0.000000
# 2 -0.003837 0.006596 -0.002638 0.000000 0.000000 0.000000
# 3 -0.000126 -0.002638 0.011404 0.000000 0.000000 0.000000
# 4 0.000000 0.000000 0.000000 0.022989 0.000000 0.000000
# 5 0.000000 0.000000 0.000000 0.000000 0.022295 0.000000
# 6 0.000000 0.000000 0.000000 0.000000 0.000000 0.038425
#
#
# Mechanical properties :
#
#
# Convention : Reuss Voigt Hill
#
# Bulk Modulus (GPa) = 21.80953 47.28986 34.54969
# Shear Modulus (GPa) = 29.19721 38.80010 33.99865
#
# Velocity S-wave (km/s) = 3.43032 3.95440 3.70165
# Velocity P-wave (km/s) = 4.94765 6.31732 5.67396
#
# Compressibility (1/GPa) = 0.04585153
#
# Stress axis : x y z
#
# Youngs Moduli (GPa) = 24.35807 151.60780 87.68717
#
# Poissons Ratio (x) = 0.58177 0.01107
# Poissons Ratio (y) = 0.09347 0.23131
# Poissons Ratio (z) = 0.00307 0.39992
#
# Static dielectric constant tensor:
#      x y z
#    x 2.026280 0.000000 0.000000 
#    y 0.000000 1.973380 0.000000 
#    z 0.000000 0.000000 2.021960 
# 
# From -- ./inp_files/5124.got.cif
#   From: 2010.05.17/outbox.cif.g08.bks.cpg/sg60_3_cif.got.tgz:5124.got - 2010.06.03 14:59:27.
