data_PCOD9456783
_publ_section_title
;
Structure prediction by ZEFSAII (Michael W. Deem and Ramdas Pophale) SiO2 
 PCOD9456783
Probable space group: P B C N
;
_chemical_formula_sum "Si O2"
_cell_formula_units_Z 40
_cell_length_a 8.898313
_cell_length_b 12.038363
_cell_length_c 13.696498
_cell_angle_alpha 90.000000
_cell_angle_beta 90.000000
_cell_angle_gamma 90.000000
_cell_volume 1467.184233
_symmetry_space_group_name_H-M "P B C N"
_symmetry_group_IT_number 60
_symmetry_cell_setting 'orthorhombic'
loop_
_space_group_symop_operation_xyz
x,y,z
1/2-x,1/2-y,1/2+z
1/2+x,1/2-y,-z
-x,y,1/2-z
-x,-y,-z
1/2+x,1/2+y,1/2-z
1/2-x,1/2+y,z
x,-y,1/2+z
loop_
_atom_site_type_symbol
_atom_site_label
_atom_site_fract_x
_atom_site_fract_y
_atom_site_fract_z
Si Si1 0.500000 0.572618 0.750000
Si Si2 0.823805 0.488950 0.433451
Si Si3 0.253996 0.751234 0.251594
Si Si4 0.955075 0.682888 0.566030
Si Si5 0.500000 0.914423 0.750000
Si Si6 0.965154 0.900503 0.894486
O O1 0.360598 0.650699 0.718551
O O2 0.563673 0.483281 0.671178
O O3 0.877192 0.585382 0.506742
O O4 0.649980 0.513029 0.437496
O O5 0.875641 0.363715 0.446921
O O6 0.913860 0.517698 0.332989
O O7 0.366374 0.803418 0.331328
O O8 0.131358 0.663866 0.294439
O O9 0.356766 0.680267 0.175184
O O10 0.960734 0.811075 0.535296
#
# Coordination Sequence:
#
# PCOD9456783 Si02
#       6
#     4   8   8   8   4   8
#     4  11  22  39  66  98 122 171 206 261 316 376
#     4  10  25  40  63  92 128 165 211 264 322 373
#     4  10  22  39  65  96 125 160 217 251 318 389
#     4  11  23  41  64  94 126 168 211 270 319 382
#     4   9  22  41  66  90 126 173 200 261 316 388
#     4  11  22  41  64  92 127 166 211 261 317 387
#
# _framework density 27.263107000000002
#
# number of rings (size 3 to 8) (size 9 to 14) (size 15 to 20)
#    0.000    1.600    2.000    1.200   11.200    0.000 
#    3.600    1.000    0.000    0.000    0.000    0.000 
#    0.000    0.000    0.000    0.000    0.000    0.000 
#
# Total GULP energy -223162.887508 kJ/mol
# GULP energy per Si atom -5579.072188 kJ/mol
# Density = 2.720105 g / cm^3
# Si number density = 27.263107 Si / 1000 Ang^3
#
#
#
# Elastic Constant Matrix: (Units=GPa)
#
#
# Indices 1 2 3 4 5 6 
#
# 1 103.4818 34.1919 10.7553 0.0000 0.0000 0.0000
# 2 34.1919 161.9650 34.0044 0.0000 0.0000 0.0000
# 3 10.7553 34.0044 47.2980 0.0000 0.0000 0.0000
# 4 0.0000 0.0000 0.0000 41.7948 0.0000 0.0000
# 5 0.0000 0.0000 0.0000 0.0000 22.2449 0.0000
# 6 0.0000 0.0000 0.0000 0.0000 0.0000 53.1558
#
#
#
# Elastic Compliance Matrix: (Units=1/GPa)
#
#
# Indices 1 2 3 4 5 6 
#
# 1 0.010423 -0.002005 -0.000928 0.000000 0.000000 0.000000
# 2 -0.002005 0.007658 -0.005049 0.000000 0.000000 0.000000
# 3 -0.000928 -0.005049 0.024984 0.000000 0.000000 0.000000
# 4 0.000000 0.000000 0.000000 0.023926 0.000000 0.000000
# 5 0.000000 0.000000 0.000000 0.000000 0.044954 0.000000
# 6 0.000000 0.000000 0.000000 0.000000 0.000000 0.018813
#
#
# Mechanical properties :
#
#
# Convention : Reuss Voigt Hill
#
# Bulk Modulus (GPa) = 36.90313 52.29422 44.59867
# Shear Modulus (GPa) = 32.10151 39.02531 35.56341
#
# Velocity S-wave (km/s) = 3.43515 3.78753 3.61564
# Velocity P-wave (km/s) = 5.41285 6.19275 5.81589
#
# Compressibility (1/GPa) = 0.02709797
#
# Stress axis : x y z
#
# Youngs Moduli (GPa) = 95.94513 130.58863 40.02596
#
# Poissons Ratio (x) = 0.26188 0.03716
# Poissons Ratio (y) = 0.19241 0.20211
# Poissons Ratio (z) = 0.08906 0.65939
#
# Static dielectric constant tensor:
#      x y z
#    x 2.262670 0.000000 0.000000 
#    y 0.000000 2.099210 0.000000 
#    z 0.000000 0.000000 2.361470 
# 
# From -- ./inp_files/15876.got.cif
#   From: 2010.05.17/outbox.cif.g08.bks.cpg/sg60_8_cif.got.tgz:15876.got - 2010.06.03 14:59:27.
