data_PCOD9456109
_publ_section_title
;
Structure prediction by ZEFSAII (Michael W. Deem and Ramdas Pophale) SiO2 
 PCOD9456109
Probable space group: P B C N
;
_chemical_formula_sum "Si O2"
_cell_formula_units_Z 48
_cell_length_a 14.058093
_cell_length_b 8.144887
_cell_length_c 15.664328
_cell_angle_alpha 90.000000
_cell_angle_beta 90.000000
_cell_angle_gamma 90.000000
_cell_volume 1793.590289
_symmetry_space_group_name_H-M "P B C N"
_symmetry_group_IT_number 60
_symmetry_cell_setting 'orthorhombic'
loop_
_space_group_symop_operation_xyz
x,y,z
1/2-x,1/2-y,1/2+z
1/2+x,1/2-y,-z
-x,y,1/2-z
-x,-y,-z
1/2+x,1/2+y,1/2-z
1/2-x,1/2+y,z
x,-y,1/2+z
loop_
_atom_site_type_symbol
_atom_site_label
_atom_site_fract_x
_atom_site_fract_y
_atom_site_fract_z
Si Si1 0.635208 0.948071 0.576918
Si Si2 0.459703 0.921772 0.153295
Si Si3 0.971001 0.925561 0.590352
Si Si4 0.128584 0.086591 0.673982
Si Si5 0.799936 0.784986 0.509023
Si Si6 0.205681 0.415230 0.738005
O O1 0.523906 0.948249 0.599754
O O2 0.662147 0.101363 0.517713
O O3 0.689167 0.796869 0.533544
O O4 0.683749 0.982290 0.668537
O O5 0.500000 0.912430 0.250000
O O6 0.478423 0.748872 0.108556
O O7 0.353222 0.979039 0.168835
O O8 0.860197 0.884996 0.580931
O O9 0.000000 0.000000 0.500000
O O10 0.018224 0.047276 0.658558
O O11 0.172216 0.139580 0.581919
O O12 0.158918 0.236011 0.734197
O O13 0.185252 0.929300 0.710410
#
# Coordination Sequence:
#
# PCOD9456109 Si02
#       6
#     8   8   8   8   8   8
#     4  10  21  39  60  84 115 152 191 236 286 340
#     4   9  20  39  60  82 116 153 190 238 289 337
#     4   9  20  38  58  83 116 152 190 230 285 344
#     4  11  22  37  59  89 117 151 192 236 286 342
#     4  10  21  39  59  85 118 153 189 234 287 340
#     4  11  22  38  60  87 116 151 195 240 286 341
#
# _framework density 26.761966000000001
#
# number of rings (size 3 to 8) (size 9 to 14) (size 15 to 20)
#    0.000    2.000    0.000    3.000    0.000    5.333 
#    0.000   17.500    0.000    0.000    0.000    0.000 
#    0.000    0.000    0.000    0.000    0.000    0.000 
#
# Total GULP energy -268859.299215 kJ/mol
# GULP energy per Si atom -5601.235400 kJ/mol
# Density = 2.670105 g / cm^3
# Si number density = 26.761966 Si / 1000 Ang^3
#
#
#
# Elastic Constant Matrix: (Units=GPa)
#
#
# Indices 1 2 3 4 5 6 
#
# 1 71.5417 17.2328 37.0148 0.0000 0.0000 0.0000
# 2 17.2328 58.9456 -5.6381 0.0000 0.0000 0.0000
# 3 37.0148 -5.6381 120.6066 0.0000 0.0000 0.0000
# 4 0.0000 0.0000 0.0000 27.0573 0.0000 0.0000
# 5 0.0000 0.0000 0.0000 0.0000 37.6776 0.0000
# 6 0.0000 0.0000 0.0000 0.0000 0.0000 36.6847
#
#
#
# Elastic Compliance Matrix: (Units=1/GPa)
#
#
# Indices 1 2 3 4 5 6 
#
# 1 0.018500 -0.005978 -0.005957 0.000000 0.000000 0.000000
# 2 -0.005978 0.018973 0.002722 0.000000 0.000000 0.000000
# 3 -0.005957 0.002722 0.010247 0.000000 0.000000 0.000000
# 4 0.000000 0.000000 0.000000 0.036959 0.000000 0.000000
# 5 0.000000 0.000000 0.000000 0.000000 0.026541 0.000000
# 6 0.000000 0.000000 0.000000 0.000000 0.000000 0.027259
#
#
# Mechanical properties :
#
#
# Convention : Reuss Voigt Hill
#
# Bulk Modulus (GPa) = 34.13872 38.70143 36.42008
# Shear Modulus (GPa) = 29.99928 33.78289 31.89108
#
# Velocity S-wave (km/s) = 3.35172 3.55681 3.45578
# Velocity P-wave (km/s) = 5.26904 5.60005 5.43707
#
# Compressibility (1/GPa) = 0.02929225
#
# Stress axis : x y z
#
# Youngs Moduli (GPa) = 54.05367 52.70677 97.58980
#
# Poissons Ratio (x) = 0.31510 0.58137
# Poissons Ratio (y) = 0.32315 -0.26561
# Poissons Ratio (z) = 0.32201 -0.14345
#
# Static dielectric constant tensor:
#      x y z
#    x 2.025270 0.000000 0.000000 
#    y 0.000000 2.102710 0.000000 
#    z 0.000000 0.000000 2.069910 
# 
# From -- ./inp_files/20536.got.cif
#   From: 2010.05.17/outbox.cif.g08.bks.cpg/sg60_11_cif.got.tgz:20536.got - 2010.06.03 14:59:27.
