data_PCOD9456885
_publ_section_title
;
Structure prediction by ZEFSAII (Michael W. Deem and Ramdas Pophale) SiO2 
 PCOD9456885
Probable space group: P B C N
;
_chemical_formula_sum "Si O2"
_cell_formula_units_Z 64
_cell_length_a 30.719267
_cell_length_b 11.299181
_cell_length_c 9.049998
_cell_angle_alpha 90.000000
_cell_angle_beta 90.000000
_cell_angle_gamma 90.000000
_cell_volume 3141.277456
_symmetry_space_group_name_H-M "P B C N"
_symmetry_group_IT_number 60
_symmetry_cell_setting 'orthorhombic'
loop_
_space_group_symop_operation_xyz
x,y,z
1/2-x,1/2-y,1/2+z
1/2+x,1/2-y,-z
-x,y,1/2-z
-x,-y,-z
1/2+x,1/2+y,1/2-z
1/2-x,1/2+y,z
x,-y,1/2+z
loop_
_atom_site_type_symbol
_atom_site_label
_atom_site_fract_x
_atom_site_fract_y
_atom_site_fract_z
Si Si1 0.155850 0.026398 0.661794
Si Si2 0.241628 0.908075 0.817125
Si Si3 0.362386 0.829029 0.156508
Si Si4 0.543256 0.058619 0.847228
Si Si5 0.174933 0.238248 0.435349
Si Si6 0.800406 0.534193 0.435271
Si Si7 0.884537 0.845309 0.062211
Si Si8 0.041624 0.328626 0.833551
O O1 0.166833 0.131528 0.546497
O O2 0.131656 0.087904 0.795637
O O3 0.200138 0.972898 0.737036
O O4 0.123896 0.938238 0.571066
O O5 0.224343 0.785198 0.883003
O O6 0.274838 0.890580 0.685681
O O7 0.266392 0.980789 0.945798
O O8 0.411908 0.870274 0.178739
O O9 0.352599 0.737381 0.286286
O O10 0.327734 0.934315 0.149068
O O11 0.356881 0.766092 0.997776
O O12 0.500000 0.089711 0.750000
O O13 0.556012 0.925637 0.791224
O O14 0.533511 0.090606 0.019356
O O15 0.167854 0.370105 0.492796
O O16 0.928779 0.778581 0.108850
O O17 0.000000 0.276320 0.750000
#
# Coordination Sequence:
#
# PCOD9456885 Si02
#       8
#     8   8   8   8   8   8   8   8
#     4  12  24  45  66  93 125 189 231 275 333 400
#     4  12  25  45  60  92 131 179 232 277 338 397
#     4  11  26  45  65 106 138 171 229 285 345 415
#     4  10  22  41  70 101 144 176 216 273 352 432
#     4  12  27  42  69  91 134 182 230 282 346 398
#     4  12  28  42  64  97 133 173 230 292 341 401
#     4  11  24  44  70  94 136 174 233 280 334 409
#     4  10  22  40  69 104 137 176 217 276 347 415
#
# _framework density 20.373877
#
# number of rings (size 3 to 8) (size 9 to 14) (size 15 to 20)
#    0.000    0.750    5.000    1.500   10.500    1.000 
#    0.000    0.625    0.000    1.500    0.000    0.000 
#    0.000    0.000    0.000    0.000    0.000    0.000 
#
# Total GULP energy -356345.302932 kJ/mol
# GULP energy per Si atom -5567.895358 kJ/mol
# Density = 2.032751 g / cm^3
# Si number density = 20.373877 Si / 1000 Ang^3
#
#
#
# Elastic Constant Matrix: (Units=GPa)
#
#
# Indices 1 2 3 4 5 6 
#
# 1 67.2536 38.1215 38.4401 0.0000 0.0000 0.0000
# 2 38.1215 52.0215 23.8637 0.0000 0.0000 0.0000
# 3 38.4401 23.8637 109.4012 0.0000 0.0000 0.0000
# 4 0.0000 0.0000 0.0000 37.4389 0.0000 0.0000
# 5 0.0000 0.0000 0.0000 0.0000 28.9611 0.0000
# 6 0.0000 0.0000 0.0000 0.0000 0.0000 14.0185
#
#
#
# Elastic Compliance Matrix: (Units=1/GPa)
#
#
# Indices 1 2 3 4 5 6 
#
# 1 0.028687 -0.018221 -0.006105 0.000000 0.000000 0.000000
# 2 -0.018221 0.032934 -0.000781 0.000000 0.000000 0.000000
# 3 -0.006105 -0.000781 0.011456 0.000000 0.000000 0.000000
# 4 0.000000 0.000000 0.000000 0.026710 0.000000 0.000000
# 5 0.000000 0.000000 0.000000 0.000000 0.034529 0.000000
# 6 0.000000 0.000000 0.000000 0.000000 0.000000 0.071334
#
#
# Mechanical properties :
#
#
# Convention : Reuss Voigt Hill
#
# Bulk Modulus (GPa) = 43.74184 47.72521 45.73353
# Shear Modulus (GPa) = 18.97626 24.63376 21.80501
#
# Velocity S-wave (km/s) = 3.05520 3.48096 3.27501
# Velocity P-wave (km/s) = 5.82768 6.29537 6.06603
#
# Compressibility (1/GPa) = 0.02286141
#
# Stress axis : x y z
#
# Youngs Moduli (GPa) = 34.85894 30.36378 87.28844
#
# Poissons Ratio (x) = 0.55327 0.53290
# Poissons Ratio (y) = 0.63518 0.06821
# Poissons Ratio (z) = 0.21282 0.02373
#
# Static dielectric constant tensor:
#      x y z
#    x 1.778920 0.000000 0.000000 
#    y 0.000000 1.779120 0.000000 
#    z 0.000000 0.000000 1.782710 
# 
# From -- ./inp_files/8515.got.cif
#   From: 2010.05.17/outbox.cif.g08.bks.cpg/sg60_5_cif.got.tgz:8515.got - 2010.06.03 14:59:27.
