data_PCOD9456090
_publ_section_title
;
Structure prediction by ZEFSAII (Michael W. Deem and Ramdas Pophale) SiO2 
 PCOD9456090
Probable space group: P B C N
;
_chemical_formula_sum "Si O2"
_cell_formula_units_Z 56
_cell_length_a 19.701608
_cell_length_b 11.827026
_cell_length_c 11.555030
_cell_angle_alpha 90.000000
_cell_angle_beta 90.000000
_cell_angle_gamma 90.000000
_cell_volume 2692.454065
_symmetry_space_group_name_H-M "P B C N"
_symmetry_group_IT_number 60
_symmetry_cell_setting 'orthorhombic'
loop_
_space_group_symop_operation_xyz
x,y,z
1/2-x,1/2-y,1/2+z
1/2+x,1/2-y,-z
-x,y,1/2-z
-x,-y,-z
1/2+x,1/2+y,1/2-z
1/2-x,1/2+y,z
x,-y,1/2+z
loop_
_atom_site_type_symbol
_atom_site_label
_atom_site_fract_x
_atom_site_fract_y
_atom_site_fract_z
Si Si1 0.184159 0.415925 0.090438
Si Si2 0.039267 0.914004 0.852901
Si Si3 0.335982 0.355759 0.168982
Si Si4 0.923667 0.666072 0.721483
Si Si5 0.600246 0.440670 0.956074
Si Si6 0.307288 0.271516 0.420883
Si Si7 0.339480 0.842493 0.495821
O O1 0.257111 0.380687 0.140976
O O2 0.126305 0.370717 0.176401
O O3 0.178906 0.549516 0.072823
O O4 0.180920 0.355601 0.964590
O O5 0.072039 0.802347 0.798026
O O6 0.000000 0.978327 0.750000
O O7 0.974123 0.886988 0.934737
O O8 0.091239 0.984257 0.928155
O O9 0.374701 0.472506 0.142178
O O10 0.338072 0.305497 0.297667
O O11 0.360939 0.261042 0.078028
O O12 0.895250 0.624207 0.598791
O O13 0.000000 0.629024 0.750000
O O14 0.656136 0.347687 0.981760
O O15 0.227644 0.301192 0.426835
#
# Coordination Sequence:
#
# PCOD9456090 Si02
#       7
#     8   8   8   8   8   8   8
#     4  11  25  43  67  98 132 179 225 271 345 399
#     4  10  21  38  66  94 131 173 219 262 330 403
#     4  11  23  41  66 103 133 172 221 287 339 393
#     4  11  23  44  68  93 130 182 222 271 333 411
#     4  11  21  40  64 101 131 172 218 278 334 393
#     4  11  23  39  66  99 132 166 221 278 337 396
#     4  11  24  43  65  96 131 176 227 278 334 409
#
# _framework density 20.798870000000001
#
# number of rings (size 3 to 8) (size 9 to 14) (size 15 to 20)
#    0.000    1.143    4.286    2.571    2.000    0.571 
#    0.000    0.000    0.000    0.000    0.000    0.000 
#    0.000    0.000    0.000    0.000    0.000    0.000 
#
# Total GULP energy -312769.354790 kJ/mol
# GULP energy per Si atom -5585.167050 kJ/mol
# Density = 2.075153 g / cm^3
# Si number density = 20.798870 Si / 1000 Ang^3
#
#
#
# Elastic Constant Matrix: (Units=GPa)
#
#
# Indices 1 2 3 4 5 6 
#
# 1 82.6092 3.4616 7.1195 0.0000 0.0000 0.0000
# 2 3.4616 54.5784 3.7988 0.0000 0.0000 0.0000
# 3 7.1195 3.7988 75.4528 0.0000 0.0000 0.0000
# 4 0.0000 0.0000 0.0000 21.6105 0.0000 0.0000
# 5 0.0000 0.0000 0.0000 0.0000 36.2302 0.0000
# 6 0.0000 0.0000 0.0000 0.0000 0.0000 26.8880
#
#
#
# Elastic Compliance Matrix: (Units=1/GPa)
#
#
# Indices 1 2 3 4 5 6 
#
# 1 0.012231 -0.000698 -0.001119 0.000000 0.000000 0.000000
# 2 -0.000698 0.018427 -0.000862 0.000000 0.000000 0.000000
# 3 -0.001119 -0.000862 0.013402 0.000000 0.000000 0.000000
# 4 0.000000 0.000000 0.000000 0.046274 0.000000 0.000000
# 5 0.000000 0.000000 0.000000 0.000000 0.027601 0.000000
# 6 0.000000 0.000000 0.000000 0.000000 0.000000 0.037191
#
#
# Mechanical properties :
#
#
# Convention : Reuss Voigt Hill
#
# Bulk Modulus (GPa) = 25.83821 26.82223 26.33022
# Shear Modulus (GPa) = 28.83771 30.16312 29.50042
#
# Velocity S-wave (km/s) = 3.72762 3.81232 3.77021
# Velocity P-wave (km/s) = 5.56567 5.68352 5.62490
#
# Compressibility (1/GPa) = 0.03870238
#
# Stress axis : x y z
#
# Youngs Moduli (GPa) = 81.76039 54.26965 74.61418
#
# Poissons Ratio (x) = 0.03787 0.08349
# Poissons Ratio (y) = 0.05706 0.06431
# Poissons Ratio (z) = 0.09148 0.04677
#
# Static dielectric constant tensor:
#      x y z
#    x 1.738370 0.000000 0.000000 
#    y 0.000000 1.732960 0.000000 
#    z 0.000000 0.000000 1.787210 
# 
# From -- ./inp_files/12832.got.cif
#   From: 2010.05.17/outbox.cif.g08.bks.cpg/sg60_7_cif.got.tgz:12832.got - 2010.06.03 14:59:27.
