data_PCOD9456224
_publ_section_title
;
Structure prediction by ZEFSAII (Michael W. Deem and Ramdas Pophale) SiO2 
 PCOD9456224
Probable space group: P B C N
;
_chemical_formula_sum "Si O2"
_cell_formula_units_Z 60
_cell_length_a 18.263578
_cell_length_b 19.914961
_cell_length_c 9.401654
_cell_angle_alpha 90.000000
_cell_angle_beta 90.000000
_cell_angle_gamma 90.000000
_cell_volume 3419.554960
_symmetry_space_group_name_H-M "P B C N"
_symmetry_group_IT_number 60
_symmetry_cell_setting 'orthorhombic'
loop_
_space_group_symop_operation_xyz
x,y,z
1/2-x,1/2-y,1/2+z
1/2+x,1/2-y,-z
-x,y,1/2-z
-x,-y,-z
1/2+x,1/2+y,1/2-z
1/2-x,1/2+y,z
x,-y,1/2+z
loop_
_atom_site_type_symbol
_atom_site_label
_atom_site_fract_x
_atom_site_fract_y
_atom_site_fract_z
Si Si1 0.723467 0.579687 0.217192
Si Si2 0.121165 0.206363 0.284447
Si Si3 0.533604 0.442729 0.095525
Si Si4 0.021368 0.201785 0.027560
Si Si5 0.704658 0.553354 0.548339
Si Si6 0.500000 0.211570 0.250000
Si Si7 0.168982 0.303549 0.729569
Si Si8 0.241204 0.703342 0.915454
O O1 0.659165 0.634228 0.182202
O O2 0.708239 0.553390 0.376941
O O3 0.733207 0.516370 0.114227
O O4 0.794274 0.627171 0.220536
O O5 0.094427 0.206178 0.122016
O O6 0.175893 0.266466 0.319971
O O7 0.048975 0.216880 0.376807
O O8 0.500000 0.447886 0.250000
O O9 0.620837 0.445141 0.098343
O O10 0.500000 0.500000 0.000000
O O11 0.512448 0.373398 0.024357
O O12 0.019586 0.246839 0.889810
O O13 0.742127 0.623837 0.595363
O O14 0.418131 0.183385 0.212839
O O15 0.191135 0.246537 0.847236
O O16 0.211313 0.285708 0.579043
#
# Coordination Sequence:
#
# PCOD9456224 Si02
#       8
#     8   8   8   8   8   4   8   8
#     4  10  22  40  58  82 121 159 205 247 299 363
#     4  10  21  40  58  86 122 159 202 249 308 362
#     4  12  24  34  53  84 123 159 198 237 296 368
#     4  11  22  36  59  85 123 158 194 251 307 363
#     4  11  22  39  58  83 118 162 204 248 297 365
#     4  12  22  40  62  92 116 156 208 258 312 364
#     4  10  23  39  63  90 123 156 203 262 309 364
#     4  10  22  40  61  88 120 161 210 253 301 367
#
# _framework density 17.546143000000001
#
# number of rings (size 3 to 8) (size 9 to 14) (size 15 to 20)
#    0.000    1.333    3.333    2.400    5.600    2.133 
#    0.000    0.000    0.000    4.800    0.000    0.000 
#    0.000    0.000    0.000    0.000    0.000    0.000 
#
# Total GULP energy -334398.875058 kJ/mol
# GULP energy per Si atom -5573.314584 kJ/mol
# Density = 1.750621 g / cm^3
# Si number density = 17.546143 Si / 1000 Ang^3
#
#
#
# Elastic Constant Matrix: (Units=GPa)
#
#
# Indices 1 2 3 4 5 6 
#
# 1 103.3472 38.5094 27.9877 0.0000 0.0000 0.0000
# 2 38.5094 85.3383 37.5750 0.0000 0.0000 0.0000
# 3 27.9877 37.5750 81.5387 0.0000 0.0000 0.0000
# 4 0.0000 0.0000 0.0000 205.5167 0.0000 0.0000
# 5 0.0000 0.0000 0.0000 0.0000 25.2203 0.0000
# 6 0.0000 0.0000 0.0000 0.0000 0.0000 97.8504
#
#
#
# Elastic Compliance Matrix: (Units=1/GPa)
#
#
# Indices 1 2 3 4 5 6 
#
# 1 0.011891 -0.004477 -0.002018 0.000000 0.000000 0.000000
# 2 -0.004477 0.016387 -0.006015 0.000000 0.000000 0.000000
# 3 -0.002018 -0.006015 0.015729 0.000000 0.000000 0.000000
# 4 0.000000 0.000000 0.000000 0.004866 0.000000 0.000000
# 5 0.000000 0.000000 0.000000 0.000000 0.039651 0.000000
# 6 0.000000 0.000000 0.000000 0.000000 0.000000 0.010220
#
#
# Mechanical properties :
#
#
# Convention : Reuss Voigt Hill
#
# Bulk Modulus (GPa) = 52.67035 53.15203 52.91119
# Shear Modulus (GPa) = 38.43456 76.79429 57.61442
#
# Velocity S-wave (km/s) = 4.68534 6.62284 5.73648
# Velocity P-wave (km/s) = 7.70410 9.42556 8.60797
#
# Compressibility (1/GPa) = 0.01898601
#
# Stress axis : x y z
#
# Youngs Moduli (GPa) = 84.09719 61.02515 63.57864
#
# Poissons Ratio (x) = 0.27322 0.12832
# Poissons Ratio (y) = 0.37652 0.38240
# Poissons Ratio (z) = 0.16973 0.36704
#
# Static dielectric constant tensor:
#      x y z
#    x 1.635800 0.000000 0.000000 
#    y 0.000000 1.575500 0.000000 
#    z 0.000000 0.000000 1.620120 
# 
# From -- ./inp_files/6935.got.cif
#   From: 2010.05.17/outbox.cif.g08.bks.cpg/sg60_4_cif.got.tgz:6935.got - 2010.06.03 14:59:27.
