data_PCOD9456574
_publ_section_title
;
Structure prediction by ZEFSAII (Michael W. Deem and Ramdas Pophale) SiO2 
 PCOD9456574
Probable space group: P B C N
;
_chemical_formula_sum "Si O2"
_cell_formula_units_Z 28
_cell_length_a 5.294322
_cell_length_b 13.385107
_cell_length_c 15.259848
_cell_angle_alpha 90.000000
_cell_angle_beta 90.000000
_cell_angle_gamma 90.000000
_cell_volume 1081.390143
_symmetry_space_group_name_H-M "P B C N"
_symmetry_group_IT_number 60
_symmetry_cell_setting 'orthorhombic'
loop_
_space_group_symop_operation_xyz
x,y,z
1/2-x,1/2-y,1/2+z
1/2+x,1/2-y,-z
-x,y,1/2-z
-x,-y,-z
1/2+x,1/2+y,1/2-z
1/2-x,1/2+y,z
x,-y,1/2+z
loop_
_atom_site_type_symbol
_atom_site_label
_atom_site_fract_x
_atom_site_fract_y
_atom_site_fract_z
Si Si1 0.000000 0.100414 0.750000
Si Si2 0.399405 0.131328 0.480335
Si Si3 0.630786 0.773440 0.140655
Si Si4 0.910900 0.066714 0.394417
O O1 0.230932 0.170421 0.780890
O O2 0.939827 0.025956 0.829959
O O3 0.350477 0.235184 0.427568
O O4 0.464742 0.154990 0.579700
O O5 0.140991 0.072930 0.463811
O O6 0.633177 0.078723 0.433343
O O7 0.474259 0.671899 0.155984
#
# Coordination Sequence:
#
# PCOD9456574 Si02
#       4
#     4   8   8   8
#     4  12  28  44  76 118 150 202 242 322 408 430
#     4  10  21  48  76  96 153 197 256 307 363 449
#     4  10  23  48  76 107 145 210 245 316 372 451
#     4  10  24  46  68 111 147 190 253 315 358 468
#
# _framework density 25.892598
#
# number of rings (size 3 to 8) (size 9 to 14) (size 15 to 20)
#    1.714    0.000    2.857    0.000    4.000    3.429 
#   10.286    0.000    0.000    0.000    0.000    0.000 
#    0.000    0.000    0.000    0.000    0.000    0.000 
#
# Total GULP energy -156894.957666 kJ/mol
# GULP energy per Si atom -5603.391345 kJ/mol
# Density = 2.583366 g / cm^3
# Si number density = 25.892598 Si / 1000 Ang^3
#
#
#
# Elastic Constant Matrix: (Units=GPa)
#
#
# Indices 1 2 3 4 5 6 
#
# 1 192.9902 75.1418 54.3732 0.0000 0.0000 0.0000
# 2 75.1418 168.4264 43.3487 0.0000 0.0000 0.0000
# 3 54.3732 43.3487 87.3686 0.0000 0.0000 0.0000
# 4 0.0000 0.0000 0.0000 74.2718 0.0000 0.0000
# 5 0.0000 0.0000 0.0000 0.0000 42.6205 0.0000
# 6 0.0000 0.0000 0.0000 0.0000 0.0000 63.8888
#
#
#
# Elastic Compliance Matrix: (Units=1/GPa)
#
#
# Indices 1 2 3 4 5 6 
#
# 1 0.006975 -0.002287 -0.003206 0.000000 0.000000 0.000000
# 2 -0.002287 0.007556 -0.002326 0.000000 0.000000 0.000000
# 3 -0.003206 -0.002326 0.014595 0.000000 0.000000 0.000000
# 4 0.000000 0.000000 0.000000 0.013464 0.000000 0.000000
# 5 0.000000 0.000000 0.000000 0.000000 0.023463 0.000000
# 6 0.000000 0.000000 0.000000 0.000000 0.000000 0.015652
#
#
# Mechanical properties :
#
#
# Convention : Reuss Voigt Hill
#
# Bulk Modulus (GPa) = 74.13687 88.27916 81.20802
# Shear Modulus (GPa) = 49.09644 54.55100 51.82372
#
# Velocity S-wave (km/s) = 4.35921 4.59499 4.47865
# Velocity P-wave (km/s) = 7.35062 7.89432 7.62732
#
# Compressibility (1/GPa) = 0.01348856
#
# Stress axis : x y z
#
# Youngs Moduli (GPa) = 143.36196 132.34268 68.51509
#
# Poissons Ratio (x) = 0.30263 0.21969
# Poissons Ratio (y) = 0.32783 0.15936
# Poissons Ratio (z) = 0.45969 0.30782
#
# Static dielectric constant tensor:
#      x y z
#    x 1.998790 0.000000 0.000000 
#    y 0.000000 2.117590 0.000000 
#    z 0.000000 0.000000 2.101570 
# 
# From -- ./inp_files/18358.got.cif
#   From: 2010.05.17/outbox.cif.g08.bks.cpg/sg60_10_cif.got.tgz:18358.got - 2010.06.03 14:59:27.
