data_PCOD9456028
_publ_section_title
;
Structure prediction by ZEFSAII (Michael W. Deem and Ramdas Pophale) SiO2 
 PCOD9456028
Probable space group: P B C N
;
_chemical_formula_sum "Si O2"
_cell_formula_units_Z 60
_cell_length_a 9.215003
_cell_length_b 30.145972
_cell_length_c 10.860868
_cell_angle_alpha 90.000000
_cell_angle_beta 90.000000
_cell_angle_gamma 90.000000
_cell_volume 3017.097242
_symmetry_space_group_name_H-M "P B C N"
_symmetry_group_IT_number 60
_symmetry_cell_setting 'orthorhombic'
loop_
_space_group_symop_operation_xyz
x,y,z
1/2-x,1/2-y,1/2+z
1/2+x,1/2-y,-z
-x,y,1/2-z
-x,-y,-z
1/2+x,1/2+y,1/2-z
1/2-x,1/2+y,z
x,-y,1/2+z
loop_
_atom_site_type_symbol
_atom_site_label
_atom_site_fract_x
_atom_site_fract_y
_atom_site_fract_z
Si Si1 0.074613 0.526514 0.386636
Si Si2 0.183188 0.237579 0.835850
Si Si3 0.917213 0.871122 0.625310
Si Si4 0.972024 0.228952 0.045862
Si Si5 0.926235 0.971233 0.610345
Si Si6 0.000000 0.310527 0.750000
Si Si7 0.898041 0.372124 0.566168
Si Si8 0.629576 0.812781 0.333796
O O1 0.251034 0.519189 0.379116
O O2 0.053317 0.577686 0.428664
O O3 0.000000 0.519815 0.250000
O O4 0.000000 0.500000 0.500000
O O5 0.313830 0.250780 0.927603
O O6 0.143495 0.281026 0.759740
O O7 0.234238 0.197508 0.751594
O O8 0.037246 0.230051 0.910692
O O9 0.966030 0.823102 0.576170
O O10 0.940599 0.919569 0.564505
O O11 0.745842 0.869663 0.648195
O O12 0.000000 0.875795 0.750000
O O13 0.074278 0.263993 0.120112
O O14 0.000000 0.976275 0.750000
O O15 0.000000 0.000000 0.500000
O O16 0.986729 0.340272 0.870743
O O17 0.849781 0.348083 0.440965
O O18 0.500000 0.830535 0.250000
#
# Coordination Sequence:
#
# PCOD9456028 Si02
#       8
#     8   8   8   8   8   4   8   8
#     4  11  24  44  72 103 129 172 228 291 351 421
#     4  11  25  35  62  86 127 175 215 263 319 373
#     4  10  21  38  61  89 120 158 207 260 307 382
#     4  11  21  40  55  88 126 164 216 257 304 383
#     4  10  22  44  68  94 130 167 206 271 345 413
#     4  12  22  36  64  92 120 174 218 264 318 380
#     4  11  23  41  64  92 131 161 221 267 329 398
#     4  10  23  41  57  90 132 174 213 269 322 383
#
# _framework density 19.886662999999999
#
# number of rings (size 3 to 8) (size 9 to 14) (size 15 to 20)
#    0.000    1.333    3.333    2.000    3.733    0.533 
#    0.000    4.000    0.000    0.000    0.000    0.000 
#    0.000    0.000    0.000    0.000    0.000    0.000 
#
# Total GULP energy -334102.670347 kJ/mol
# GULP energy per Si atom -5568.377839 kJ/mol
# Density = 1.984140 g / cm^3
# Si number density = 19.886663 Si / 1000 Ang^3
#
#
#
# Elastic Constant Matrix: (Units=GPa)
#
#
# Indices 1 2 3 4 5 6 
#
# 1 98.4829 31.8965 59.9320 0.0000 0.0000 0.0000
# 2 31.8965 88.5211 42.8041 0.0000 0.0000 0.0000
# 3 59.9320 42.8041 104.2101 0.0000 0.0000 0.0000
# 4 0.0000 0.0000 0.0000 59.3215 0.0000 0.0000
# 5 0.0000 0.0000 0.0000 0.0000 42.6910 0.0000
# 6 0.0000 0.0000 0.0000 0.0000 0.0000 9.2297
#
#
#
# Elastic Compliance Matrix: (Units=1/GPa)
#
#
# Indices 1 2 3 4 5 6 
#
# 1 0.015806 -0.001622 -0.008424 0.000000 0.000000 0.000000
# 2 -0.001622 0.014263 -0.004926 0.000000 0.000000 0.000000
# 3 -0.008424 -0.004926 0.016464 0.000000 0.000000 0.000000
# 4 0.000000 0.000000 0.000000 0.016857 0.000000 0.000000
# 5 0.000000 0.000000 0.000000 0.000000 0.023424 0.000000
# 6 0.000000 0.000000 0.000000 0.000000 0.000000 0.108346
#
#
# Mechanical properties :
#
#
# Convention : Reuss Voigt Hill
#
# Bulk Modulus (GPa) = 60.27854 62.27549 61.27702
# Shear Modulus (GPa) = 21.67955 32.68721 27.18338
#
# Velocity S-wave (km/s) = 3.30533 4.05862 3.70119
# Velocity P-wave (km/s) = 6.70401 7.30386 7.01036
#
# Compressibility (1/GPa) = 0.01658965
#
# Stress axis : x y z
#
# Youngs Moduli (GPa) = 63.26855 70.11158 60.73939
#
# Poissons Ratio (x) = 0.11372 0.51165
# Poissons Ratio (y) = 0.10262 0.29918
# Poissons Ratio (z) = 0.53296 0.34535
#
# Static dielectric constant tensor:
#      x y z
#    x 1.732660 0.000000 0.000000 
#    y 0.000000 1.806930 0.000000 
#    z 0.000000 0.000000 1.774670 
# 
# From -- ./inp_files/10286.got.cif
#   From: 2010.05.17/outbox.cif.g08.bks.cpg/sg60_6_cif.got.tgz:10286.got - 2010.06.03 14:59:27.
