data_PCOD9456353
_publ_section_title
;
Structure prediction by ZEFSAII (Michael W. Deem and Ramdas Pophale) SiO2 
 PCOD9456353
Probable space group: P B C N
;
_chemical_formula_sum "Si O2"
_cell_formula_units_Z 40
_cell_length_a 13.884106
_cell_length_b 12.587548
_cell_length_c 9.739263
_cell_angle_alpha 90.000000
_cell_angle_beta 90.000000
_cell_angle_gamma 90.000000
_cell_volume 1702.100323
_symmetry_space_group_name_H-M "P B C N"
_symmetry_group_IT_number 60
_symmetry_cell_setting 'orthorhombic'
loop_
_space_group_symop_operation_xyz
x,y,z
1/2-x,1/2-y,1/2+z
1/2+x,1/2-y,-z
-x,y,1/2-z
-x,-y,-z
1/2+x,1/2+y,1/2-z
1/2-x,1/2+y,z
x,-y,1/2+z
loop_
_atom_site_type_symbol
_atom_site_label
_atom_site_fract_x
_atom_site_fract_y
_atom_site_fract_z
Si Si1 0.899880 0.723648 0.473222
Si Si2 0.427901 0.998076 0.123597
Si Si3 0.000000 0.130508 0.750000
Si Si4 0.655503 0.461254 0.766384
Si Si5 0.250531 0.403761 0.002509
Si Si6 0.000000 0.220581 0.250000
O O1 0.879114 0.613925 0.396048
O O2 0.964857 0.795534 0.373175
O O3 0.801881 0.789906 0.493866
O O4 0.956513 0.717323 0.618669
O O5 0.500000 0.992570 0.250000
O O6 0.500000 0.000000 0.000000
O O7 0.349609 0.909013 0.084601
O O8 0.085400 0.052033 0.796523
O O9 0.741055 0.440702 0.656160
O O10 0.589051 0.357987 0.787689
O O11 0.687344 0.512899 0.908576
#
# Coordination Sequence:
#
# PCOD9456353 Si02
#       6
#     8   8   4   8   8   4
#     4  10  21  41  67  98 133 176 225 270 341 407
#     4  12  27  48  67  96 138 181 224 284 349 408
#     4   9  16  34  63 100 130 174 209 280 335 402
#     4   9  17  34  63  96 138 165 222 275 336 389
#     4  10  21  41  63  97 131 181 223 278 329 406
#     4   9  18  34  63 104 130 172 219 278 333 406
#
# _framework density 23.500378000000001
#
# number of rings (size 3 to 8) (size 9 to 14) (size 15 to 20)
#    0.000    2.000    1.000    2.400    1.400    4.800 
#    7.200    6.000    0.000    0.000    0.000    0.000 
#    0.000    0.000    0.000    0.000    0.000    0.000 
#
# Total GULP energy -223390.780045 kJ/mol
# GULP energy per Si atom -5584.769501 kJ/mol
# Density = 2.344689 g / cm^3
# Si number density = 23.500378 Si / 1000 Ang^3
#
#
#
# Elastic Constant Matrix: (Units=GPa)
#
#
# Indices 1 2 3 4 5 6 
#
# 1 98.5748 37.0373 52.1741 0.0000 0.0000 0.0000
# 2 37.0373 101.1205 40.3960 0.0000 0.0000 0.0000
# 3 52.1741 40.3960 145.1922 0.0000 0.0000 0.0000
# 4 0.0000 0.0000 0.0000 21.4119 0.0000 0.0000
# 5 0.0000 0.0000 0.0000 0.0000 40.6307 0.0000
# 6 0.0000 0.0000 0.0000 0.0000 0.0000 23.3679
#
#
#
# Elastic Compliance Matrix: (Units=1/GPa)
#
#
# Indices 1 2 3 4 5 6 
#
# 1 0.013480 -0.003378 -0.003904 0.000000 0.000000 0.000000
# 2 -0.003378 0.011972 -0.002117 0.000000 0.000000 0.000000
# 3 -0.003904 -0.002117 0.008879 0.000000 0.000000 0.000000
# 4 0.000000 0.000000 0.000000 0.046703 0.000000 0.000000
# 5 0.000000 0.000000 0.000000 0.000000 0.024612 0.000000
# 6 0.000000 0.000000 0.000000 0.000000 0.000000 0.042794
#
#
# Mechanical properties :
#
#
# Convention : Reuss Voigt Hill
#
# Bulk Modulus (GPa) = 64.37715 67.12246 65.74981
# Shear Modulus (GPa) = 28.99956 31.43411 30.21684
#
# Velocity S-wave (km/s) = 3.51665 3.66129 3.58970
# Velocity P-wave (km/s) = 6.62893 6.81892 6.72459
#
# Compressibility (1/GPa) = 0.01553346
#
# Stress axis : x y z
#
# Youngs Moduli (GPa) = 74.18325 83.52755 112.61949
#
# Poissons Ratio (x) = 0.28213 0.43970
# Poissons Ratio (y) = 0.25057 0.23844
# Poissons Ratio (z) = 0.28963 0.17684
#
# Static dielectric constant tensor:
#      x y z
#    x 1.925700 0.000000 0.000000 
#    y 0.000000 2.020370 0.000000 
#    z 0.000000 0.000000 1.838980 
# 
# From -- ./inp_files/5697.got.cif
#   From: 2010.05.17/outbox.cif.g08.bks.cpg/sg60_3_cif.got.tgz:5697.got - 2010.06.03 14:59:27.
