data_PCOD9456174
_publ_section_title
;
Structure prediction by ZEFSAII (Michael W. Deem and Ramdas Pophale) SiO2 
 PCOD9456174
Probable space group: P B C N
;
_chemical_formula_sum "Si O2"
_cell_formula_units_Z 60
_cell_length_a 11.324787
_cell_length_b 8.347326
_cell_length_c 29.597030
_cell_angle_alpha 90.000000
_cell_angle_beta 90.000000
_cell_angle_gamma 90.000000
_cell_volume 2797.857234
_symmetry_space_group_name_H-M "P B C N"
_symmetry_group_IT_number 60
_symmetry_cell_setting 'orthorhombic'
loop_
_space_group_symop_operation_xyz
x,y,z
1/2-x,1/2-y,1/2+z
1/2+x,1/2-y,-z
-x,y,1/2-z
-x,-y,-z
1/2+x,1/2+y,1/2-z
1/2-x,1/2+y,z
x,-y,1/2+z
loop_
_atom_site_type_symbol
_atom_site_label
_atom_site_fract_x
_atom_site_fract_y
_atom_site_fract_z
Si Si1 0.100856 0.151444 0.190366
Si Si2 0.000000 0.709576 0.250000
Si Si3 0.369304 0.641616 0.084245
Si Si4 0.198865 0.291213 0.467362
Si Si5 0.372425 0.538134 0.812653
Si Si6 0.610726 0.498748 0.082406
Si Si7 0.299583 0.034724 0.735642
Si Si8 0.676576 0.949336 0.467603
O O1 0.126593 0.175282 0.137501
O O2 0.144327 0.300375 0.219611
O O3 0.182291 0.004169 0.206867
O O4 0.963086 0.109161 0.196019
O O5 0.060773 0.814946 0.288769
O O6 0.102152 0.599817 0.229185
O O7 0.471100 0.510783 0.074300
O O8 0.392911 0.809774 0.058535
O O9 0.247344 0.561981 0.067548
O O10 0.317412 0.378694 0.449539
O O11 0.149335 0.183160 0.426918
O O12 0.126983 0.429786 0.493857
O O13 0.230745 0.158953 0.504509
O O14 0.362934 0.550130 0.866232
O O15 0.248201 0.527110 0.786960
#
# Coordination Sequence:
#
# PCOD9456174 Si02
#       8
#     8   4   8   8   8   8   8   8
#     4  11  22  41  66  93 131 166 227 264 323 384
#     4  12  26  40  64  98 118 178 216 250 342 376
#     4  10  21  39  64  93 122 172 202 267 315 371
#     4   9  20  39  59  95 124 164 207 253 304 385
#     4  11  24  45  64  92 130 175 219 266 324 383
#     4  10  23  40  63  91 128 164 212 260 313 367
#     4  12  24  41  64  92 131 170 209 282 312 390
#     4   9  19  37  64  91 128 160 209 245 321 375
#
# _framework density 21.444983000000001
#
# number of rings (size 3 to 8) (size 9 to 14) (size 15 to 20)
#    0.000    1.600    2.667    0.800    3.733    6.400 
#    2.400    4.000    0.000    0.000    0.000    0.000 
#    0.000    0.000    0.000    0.000    0.000    0.000 
#
# Total GULP energy -334808.386877 kJ/mol
# GULP energy per Si atom -5580.139781 kJ/mol
# Density = 2.139617 g / cm^3
# Si number density = 21.444983 Si / 1000 Ang^3
#
#
#
# Elastic Constant Matrix: (Units=GPa)
#
#
# Indices 1 2 3 4 5 6 
#
# 1 41.5912 15.8738 26.1553 0.0000 0.0000 0.0000
# 2 15.8738 92.9337 39.5650 0.0000 0.0000 0.0000
# 3 26.1553 39.5650 97.9427 0.0000 0.0000 0.0000
# 4 0.0000 0.0000 0.0000 8.7586 0.0000 0.0000
# 5 0.0000 0.0000 0.0000 0.0000 26.6445 0.0000
# 6 0.0000 0.0000 0.0000 0.0000 0.0000 -8.7592
#
#
#
# Elastic Compliance Matrix: (Units=1/GPa)
#
#
# Indices 1 2 3 4 5 6 
#
# 1 0.029205 -0.002015 -0.006985 0.000000 0.000000 0.000000
# 2 -0.002015 0.013134 -0.004768 0.000000 0.000000 0.000000
# 3 -0.006985 -0.004768 0.014001 0.000000 0.000000 0.000000
# 4 0.000000 0.000000 0.000000 0.114173 0.000000 0.000000
# 5 0.000000 0.000000 0.000000 0.000000 0.037531 0.000000
# 6 0.000000 0.000000 0.000000 0.000000 0.000000 -0.114166
#
#
# Mechanical properties :
#
#
# Convention : Reuss Voigt Hill
#
# Bulk Modulus (GPa) = 34.71543 43.96175 39.33859
# Shear Modulus (GPa) = 38.16306 15.38702 26.77504
#
# Velocity S-wave (km/s) = 4.22308 2.68155 3.53731
# Velocity P-wave (km/s) = 6.32475 5.48925 5.92176
#
# Compressibility (1/GPa) = 0.02880564
#
# Stress axis : x y z
#
# Youngs Moduli (GPa) = 34.24032 76.13683 71.42118
#
# Poissons Ratio (x) = 0.15338 0.49890
# Poissons Ratio (y) = 0.06898 0.34052
# Poissons Ratio (z) = 0.23918 0.36300
#
# Static dielectric constant tensor:
#      x y z
#    x 1.807460 0.000000 0.000000 
#    y 0.000000 1.785530 0.000000 
#    z 0.000000 0.000000 1.779290 
# 
# From -- ./inp_files/26080.got.cif
#   From: 2010.05.17/outbox.cif.g08.bks.cpg/sg60_14_cif.got.tgz:26080.got - 2010.06.03 14:59:27.
