data_PCOD9456065
_publ_section_title
;
Structure prediction by ZEFSAII (Michael W. Deem and Ramdas Pophale) SiO2 
 PCOD9456065
Probable space group: P B C N
;
_chemical_formula_sum "Si O2"
_cell_formula_units_Z 60
_cell_length_a 19.627283
_cell_length_b 17.626923
_cell_length_c 8.608442
_cell_angle_alpha 90.000000
_cell_angle_beta 90.000000
_cell_angle_gamma 90.000000
_cell_volume 2978.250680
_symmetry_space_group_name_H-M "P B C N"
_symmetry_group_IT_number 60
_symmetry_cell_setting 'orthorhombic'
loop_
_space_group_symop_operation_xyz
x,y,z
1/2-x,1/2-y,1/2+z
1/2+x,1/2-y,-z
-x,y,1/2-z
-x,-y,-z
1/2+x,1/2+y,1/2-z
1/2-x,1/2+y,z
x,-y,1/2+z
loop_
_atom_site_type_symbol
_atom_site_label
_atom_site_fract_x
_atom_site_fract_y
_atom_site_fract_z
Si Si1 0.135141 0.317718 0.378987
Si Si2 0.310727 0.519510 0.395416
Si Si3 0.831721 0.269700 0.783027
Si Si4 0.000000 0.683339 0.750000
Si Si5 0.241232 0.110737 0.697031
Si Si6 0.684185 0.674325 0.257228
Si Si7 0.087126 0.775781 0.496727
Si Si8 0.042653 0.060315 0.906829
O O1 0.155015 0.317386 0.559788
O O2 0.062437 0.354664 0.341987
O O3 0.188201 0.348823 0.249249
O O4 0.135303 0.226126 0.349230
O O5 0.264746 0.452253 0.330808
O O6 0.276007 0.562806 0.541022
O O7 0.323973 0.585945 0.270136
O O8 0.382636 0.476942 0.409729
O O9 0.812779 0.180440 0.807641
O O10 0.761562 0.304449 0.717049
O O11 0.893185 0.268543 0.660110
O O12 0.040944 0.729307 0.616604
O O13 0.660362 0.700425 0.427602
O O14 0.049719 0.855021 0.470093
O O15 0.000000 0.067640 0.750000
O O16 0.000000 0.000000 0.000000
#
# Coordination Sequence:
#
# PCOD9456065 Si02
#       8
#     8   8   8   4   8   8   8   8
#     4  10  23  42  63  93 127 170 219 273 344 393
#     4  12  24  41  63  96 134 177 226 275 330 395
#     4  11  22  40  66  96 128 168 223 281 329 389
#     4  10  26  40  64  86 130 172 214 276 332 406
#     4  11  24  41  66  97 132 172 221 285 333 392
#     4  10  21  38  63  94 131 167 216 280 334 381
#     4  11  24  40  62  92 129 180 223 267 329 396
#     4  12  27  39  57  89 142 189 222 255 313 402
#
# _framework density 20.146053999999999
#
# number of rings (size 3 to 8) (size 9 to 14) (size 15 to 20)
#    0.000    1.067    2.667    4.000   12.133    0.000 
#    0.000    0.000    0.000    0.800    0.000    0.000 
#    0.000    0.000    0.000    0.000    0.000    0.000 
#
# Total GULP energy -334250.982312 kJ/mol
# GULP energy per Si atom -5570.849705 kJ/mol
# Density = 2.010020 g / cm^3
# Si number density = 20.146054 Si / 1000 Ang^3
#
#
#
# Elastic Constant Matrix: (Units=GPa)
#
#
# Indices 1 2 3 4 5 6 
#
# 1 70.2886 -1.3538 25.1503 0.0000 0.0000 0.0000
# 2 -1.3538 34.0854 5.8202 0.0000 0.0000 0.0000
# 3 25.1503 5.8202 77.9184 0.0000 0.0000 0.0000
# 4 0.0000 0.0000 0.0000 62.1313 0.0000 0.0000
# 5 0.0000 0.0000 0.0000 0.0000 34.4064 0.0000
# 6 0.0000 0.0000 0.0000 0.0000 0.0000 9.4381
#
#
#
# Elastic Compliance Matrix: (Units=1/GPa)
#
#
# Indices 1 2 3 4 5 6 
#
# 1 0.016165 0.001553 -0.005334 0.000000 0.000000 0.000000
# 2 0.001553 0.029866 -0.002732 0.000000 0.000000 0.000000
# 3 -0.005334 -0.002732 0.014760 0.000000 0.000000 0.000000
# 4 0.000000 0.000000 0.000000 0.016095 0.000000 0.000000
# 5 0.000000 0.000000 0.000000 0.000000 0.029064 0.000000
# 6 0.000000 0.000000 0.000000 0.000000 0.000000 0.105953
#
#
# Mechanical properties :
#
#
# Convention : Reuss Voigt Hill
#
# Bulk Modulus (GPa) = 20.93575 26.83620 23.88597
# Shear Modulus (GPa) = 20.75962 31.37354 26.06658
#
# Velocity S-wave (km/s) = 3.21355 3.95055 3.60096
# Velocity P-wave (km/s) = 4.91770 5.84456 5.40105
#
# Compressibility (1/GPa) = 0.04776519
#
# Stress axis : x y z
#
# Youngs Moduli (GPa) = 61.86016 33.48259 67.75220
#
# Poissons Ratio (x) = -0.05199 0.36138
# Poissons Ratio (y) = -0.09606 0.18511
# Poissons Ratio (z) = 0.32995 0.09148
#
# Static dielectric constant tensor:
#      x y z
#    x 1.706430 0.000000 0.000000 
#    y 0.000000 1.650140 0.000000 
#    z 0.000000 0.000000 1.791350 
# 
# From -- ./inp_files/6926.got.cif
#   From: 2010.05.17/outbox.cif.g08.bks.cpg/sg60_4_cif.got.tgz:6926.got - 2010.06.03 14:59:27.
