data_PCOD9456242
_publ_section_title
;
Structure prediction by ZEFSAII (Michael W. Deem and Ramdas Pophale) SiO2 
 PCOD9456242
Probable space group: P B C N
;
_chemical_formula_sum "Si O2"
_cell_formula_units_Z 44
_cell_length_a 14.366151
_cell_length_b 15.500560
_cell_length_c 9.209352
_cell_angle_alpha 90.000000
_cell_angle_beta 90.000000
_cell_angle_gamma 90.000000
_cell_volume 2050.769682
_symmetry_space_group_name_H-M "P B C N"
_symmetry_group_IT_number 60
_symmetry_cell_setting 'orthorhombic'
loop_
_space_group_symop_operation_xyz
x,y,z
1/2-x,1/2-y,1/2+z
1/2+x,1/2-y,-z
-x,y,1/2-z
-x,-y,-z
1/2+x,1/2+y,1/2-z
1/2-x,1/2+y,z
x,-y,1/2+z
loop_
_atom_site_type_symbol
_atom_site_label
_atom_site_fract_x
_atom_site_fract_y
_atom_site_fract_z
Si Si1 0.725617 0.591433 0.206078
Si Si2 0.568009 0.479635 0.868174
Si Si3 0.838284 0.155266 0.895838
Si Si4 0.500000 0.980419 0.750000
Si Si5 0.314951 0.911311 0.308954
Si Si6 0.390767 0.843279 0.606217
O O1 0.658257 0.580512 0.346669
O O2 0.750657 0.494349 0.154426
O O3 0.820049 0.632442 0.264183
O O4 0.683435 0.638151 0.066027
O O5 0.500000 0.441111 0.750000
O O6 0.605068 0.574781 0.833337
O O7 0.500000 0.500000 0.000000
O O8 0.740294 0.148059 0.807074
O O9 0.899357 0.240983 0.880407
O O10 0.476424 0.910572 0.621987
O O11 0.589612 0.042752 0.744570
O O12 0.341240 0.860913 0.453431
#
# Coordination Sequence:
#
# PCOD9456242 Si02
#       6
#     8   8   8   4   8   8
#     4  10  21  40  62  87 119 166 204 247 308 380
#     4  11  22  39  63  88 120 163 209 247 300 379
#     4  11  23  39  60  92 126 157 203 263 321 358
#     4  10  22  40  66  92 120 166 216 258 310 394
#     4  10  21  41  65  86 120 167 210 251 310 390
#     4  11  23  39  63  91 123 155 208 262 319 363
#
# _framework density 21.455359000000001
#
# number of rings (size 3 to 8) (size 9 to 14) (size 15 to 20)
#    0.000    1.455    1.818    4.909    3.818    1.455 
#    0.000    3.636    0.000    0.000    0.000    0.000 
#    0.000    0.000    0.000    0.000    0.000    0.000 
#
# Total GULP energy -244984.645128 kJ/mol
# GULP energy per Si atom -5567.832844 kJ/mol
# Density = 2.140653 g / cm^3
# Si number density = 21.455359 Si / 1000 Ang^3
#
#
#
# Elastic Constant Matrix: (Units=GPa)
#
#
# Indices 1 2 3 4 5 6 
#
# 1 78.0220 1.8811 11.0240 0.0000 0.0000 0.0000
# 2 1.8811 63.8938 -8.5550 0.0000 0.0000 0.0000
# 3 11.0240 -8.5550 58.0578 0.0000 0.0000 0.0000
# 4 0.0000 0.0000 0.0000 17.5163 0.0000 0.0000
# 5 0.0000 0.0000 0.0000 0.0000 37.1345 0.0000
# 6 0.0000 0.0000 0.0000 0.0000 0.0000 18.8797
#
#
#
# Elastic Compliance Matrix: (Units=1/GPa)
#
#
# Indices 1 2 3 4 5 6 
#
# 1 0.013204 -0.000739 -0.002616 0.000000 0.000000 0.000000
# 2 -0.000739 0.016007 0.002499 0.000000 0.000000 0.000000
# 3 -0.002616 0.002499 0.018089 0.000000 0.000000 0.000000
# 4 0.000000 0.000000 0.000000 0.057090 0.000000 0.000000
# 5 0.000000 0.000000 0.000000 0.000000 0.026929 0.000000
# 6 0.000000 0.000000 0.000000 0.000000 0.000000 0.052967
#
#
# Mechanical properties :
#
#
# Convention : Reuss Voigt Hill
#
# Bulk Modulus (GPa) = 21.93529 23.18599 22.56064
# Shear Modulus (GPa) = 24.85150 27.74766 26.29958
#
# Velocity S-wave (km/s) = 3.40706 3.60011 3.50491
# Velocity P-wave (km/s) = 5.07181 5.30200 5.18818
#
# Compressibility (1/GPa) = 0.04558864
#
# Stress axis : x y z
#
# Youngs Moduli (GPa) = 75.73258 62.47134 55.28161
#
# Poissons Ratio (x) = 0.04617 0.14462
# Poissons Ratio (y) = 0.05597 -0.13815
# Poissons Ratio (z) = 0.19813 -0.15612
#
# Static dielectric constant tensor:
#      x y z
#    x 1.882470 0.000000 0.000000 
#    y 0.000000 1.781130 0.000000 
#    z 0.000000 0.000000 1.831510 
# 
# From -- ./inp_files/5848.got.cif
#   From: 2010.05.17/outbox.cif.g08.bks.cpg/sg60_3_cif.got.tgz:5848.got - 2010.06.03 14:59:27.
