data_PCOD9456977
_publ_section_title
;
Structure prediction by ZEFSAII (Michael W. Deem and Ramdas Pophale) SiO2 
 PCOD9456977
Probable space group: P B C N
;
_chemical_formula_sum "Si O2"
_cell_formula_units_Z 48
_cell_length_a 13.641940
_cell_length_b 9.488856
_cell_length_c 16.823240
_cell_angle_alpha 90.000000
_cell_angle_beta 90.000000
_cell_angle_gamma 90.000000
_cell_volume 2177.707925
_symmetry_space_group_name_H-M "P B C N"
_symmetry_group_IT_number 60
_symmetry_cell_setting 'orthorhombic'
loop_
_space_group_symop_operation_xyz
x,y,z
1/2-x,1/2-y,1/2+z
1/2+x,1/2-y,-z
-x,y,1/2-z
-x,-y,-z
1/2+x,1/2+y,1/2-z
1/2-x,1/2+y,z
x,-y,1/2+z
loop_
_atom_site_type_symbol
_atom_site_label
_atom_site_fract_x
_atom_site_fract_y
_atom_site_fract_z
Si Si1 0.186227 0.041372 0.845687
Si Si2 0.903440 0.260920 0.544226
Si Si3 0.895326 0.568367 0.579146
Si Si4 0.718048 0.786735 0.934181
Si Si5 0.974986 0.850935 0.590005
Si Si6 0.843617 0.988556 0.340735
O O1 0.137013 0.184040 0.878230
O O2 0.300470 0.043369 0.866047
O O3 0.168750 0.024119 0.753116
O O4 0.131071 0.920083 0.896871
O O5 0.940880 0.416395 0.562640
O O6 0.811381 0.272676 0.483858
O O7 0.980862 0.161712 0.498684
O O8 0.850722 0.638568 0.499156
O O9 0.966218 0.686995 0.614905
O O10 0.669135 0.660674 0.885099
O O11 0.762622 0.905258 0.876524
O O12 0.051915 0.940786 0.640073
#
# Coordination Sequence:
#
# PCOD9456977 Si02
#       6
#     8   8   8   8   8   8
#     4  11  24  42  70 100 139 183 230 280 357 410
#     4  10  22  42  67 102 131 182 234 287 333 412
#     4  11  23  42  70 102 134 181 239 285 339 415
#     4  10  22  41  67  99 139 182 229 285 347 409
#     4  11  25  43  69  98 138 178 234 285 337 413
#     4  11  25  43  67 101 143 186 223 288 353 413
#
# _framework density 22.041526000000001
#
# number of rings (size 3 to 8) (size 9 to 14) (size 15 to 20)
#    0.000    1.333    1.667    3.500   11.667    0.000 
#    0.000    0.000    0.000    0.000    0.000    0.000 
#    0.000    0.000    0.000    0.000    0.000    0.000 
#
# Total GULP energy -268704.124918 kJ/mol
# GULP energy per Si atom -5598.002602 kJ/mol
# Density = 2.199136 g / cm^3
# Si number density = 22.041526 Si / 1000 Ang^3
#
#
#
# Elastic Constant Matrix: (Units=GPa)
#
#
# Indices 1 2 3 4 5 6 
#
# 1 68.5636 14.4645 44.2204 0.0000 0.0000 0.0000
# 2 14.4645 139.9191 43.5816 0.0000 0.0000 0.0000
# 3 44.2204 43.5816 117.6897 0.0000 0.0000 0.0000
# 4 0.0000 0.0000 0.0000 12.3183 0.0000 0.0000
# 5 0.0000 0.0000 0.0000 0.0000 21.3388 0.0000
# 6 0.0000 0.0000 0.0000 0.0000 0.0000 52.2840
#
#
#
# Elastic Compliance Matrix: (Units=1/GPa)
#
#
# Indices 1 2 3 4 5 6 
#
# 1 0.019261 0.000297 -0.007347 0.000000 0.000000 0.000000
# 2 0.000297 0.008083 -0.003105 0.000000 0.000000 0.000000
# 3 -0.007347 -0.003105 0.012407 0.000000 0.000000 0.000000
# 4 0.000000 0.000000 0.000000 0.081180 0.000000 0.000000
# 5 0.000000 0.000000 0.000000 0.000000 0.046863 0.000000
# 6 0.000000 0.000000 0.000000 0.000000 0.000000 0.019126
#
#
# Mechanical properties :
#
#
# Convention : Reuss Voigt Hill
#
# Bulk Modulus (GPa) = 51.43546 58.96727 55.20136
# Shear Modulus (GPa) = 23.39606 32.11528 27.75567
#
# Velocity S-wave (km/s) = 3.26153 3.82125 3.55243
# Velocity P-wave (km/s) = 6.12942 6.80295 6.47495
#
# Compressibility (1/GPa) = 0.01944184
#
# Stress axis : x y z
#
# Youngs Moduli (GPa) = 51.91887 123.71013 80.59743
#
# Poissons Ratio (x) = -0.03678 0.59216
# Poissons Ratio (y) = -0.01544 0.25026
# Poissons Ratio (z) = 0.38145 0.38413
#
# Static dielectric constant tensor:
#      x y z
#    x 1.848100 0.000000 0.000000 
#    y 0.000000 1.838410 0.000000 
#    z 0.000000 0.000000 1.761770 
# 
# From -- ./inp_files/20505.got.cif
#   From: 2010.05.17/outbox.cif.g08.bks.cpg/sg60_11_cif.got.tgz:20505.got - 2010.06.03 14:59:27.
