data_PCOD9456694
_publ_section_title
;
Structure prediction by ZEFSAII (Michael W. Deem and Ramdas Pophale) SiO2 
 PCOD9456694
Probable space group: P B C N
;
_chemical_formula_sum "Si O2"
_cell_formula_units_Z 64
_cell_length_a 16.880142
_cell_length_b 10.433675
_cell_length_c 14.334210
_cell_angle_alpha 90.000000
_cell_angle_beta 90.000000
_cell_angle_gamma 90.000000
_cell_volume 2524.568524
_symmetry_space_group_name_H-M "P B C N"
_symmetry_group_IT_number 60
_symmetry_cell_setting 'orthorhombic'
loop_
_space_group_symop_operation_xyz
x,y,z
1/2-x,1/2-y,1/2+z
1/2+x,1/2-y,-z
-x,y,1/2-z
-x,-y,-z
1/2+x,1/2+y,1/2-z
1/2-x,1/2+y,z
x,-y,1/2+z
loop_
_atom_site_type_symbol
_atom_site_label
_atom_site_fract_x
_atom_site_fract_y
_atom_site_fract_z
Si Si1 0.883258 0.540404 0.547171
Si Si2 0.796260 0.705762 0.641175
Si Si3 0.356446 0.152886 0.141147
Si Si4 0.714859 0.537302 0.021286
Si Si5 0.383226 0.201231 0.340144
Si Si6 0.930185 0.122365 0.434729
Si Si7 0.201075 0.708293 0.636892
Si Si8 0.476106 0.371197 0.120202
O O1 0.891130 0.658661 0.614388
O O2 0.896057 0.570056 0.439943
O O3 0.784403 0.555331 0.567127
O O4 0.906021 0.402444 0.581437
O O5 0.806439 0.851269 0.593675
O O6 0.696455 0.724918 0.635997
O O7 0.797906 0.678252 0.754008
O O8 0.371235 0.116921 0.247102
O O9 0.263674 0.173948 0.124732
O O10 0.395728 0.292708 0.132448
O O11 0.639470 0.460101 0.987206
O O12 0.763763 0.603543 0.935448
O O13 0.452316 0.302444 0.327514
O O14 0.884663 0.243639 0.394553
O O15 0.995472 0.146019 0.512948
O O16 0.963588 0.020113 0.361478
#
# Coordination Sequence:
#
# PCOD9456694 Si02
#       8
#     8   8   8   8   8   8   8   8
#     4  11  21  38  67  91 128 176 221 281 340 379
#     4  10  22  38  62  99 135 166 223 290 325 389
#     4  11  22  42  66  94 136 176 222 276 334 405
#     4  11  19  38  64  97 133 166 218 283 330 395
#     4  10  24  40  61 101 135 179 227 265 337 418
#     4  11  22  40  70  96 127 185 219 275 348 385
#     4  11  22  39  65 101 132 166 230 280 330 390
#     4  11  23  43  64  94 140 173 225 268 340 414
#
# _framework density 25.350867000000001
#
# number of rings (size 3 to 8) (size 9 to 14) (size 15 to 20)
#    0.000    1.250    3.750    2.625    1.750    1.500 
#    4.500    0.000    0.000    0.000    0.000    0.000 
#    0.000    0.000    0.000    0.000    0.000    0.000 
#
# Total GULP energy -357014.816506 kJ/mol
# GULP energy per Si atom -5578.356508 kJ/mol
# Density = 2.529317 g / cm^3
# Si number density = 25.350867 Si / 1000 Ang^3
#
#
#
# Elastic Constant Matrix: (Units=GPa)
#
#
# Indices 1 2 3 4 5 6 
#
# 1 61.5753 3.1456 4.3029 0.0000 0.0000 0.0000
# 2 3.1456 77.2692 49.3917 0.0000 0.0000 0.0000
# 3 4.3029 49.3917 134.3004 0.0000 0.0000 0.0000
# 4 0.0000 0.0000 0.0000 13.9537 0.0000 0.0000
# 5 0.0000 0.0000 0.0000 0.0000 30.5657 0.0000
# 6 0.0000 0.0000 0.0000 0.0000 0.0000 41.7958
#
#
#
# Elastic Compliance Matrix: (Units=1/GPa)
#
#
# Indices 1 2 3 4 5 6 
#
# 1 0.016288 -0.000431 -0.000363 0.000000 0.000000 0.000000
# 2 -0.000431 0.016931 -0.006213 0.000000 0.000000 0.000000
# 3 -0.000363 -0.006213 0.009743 0.000000 0.000000 0.000000
# 4 0.000000 0.000000 0.000000 0.071665 0.000000 0.000000
# 5 0.000000 0.000000 0.000000 0.000000 0.032716 0.000000
# 6 0.000000 0.000000 0.000000 0.000000 0.000000 0.023926
#
#
# Mechanical properties :
#
#
# Convention : Reuss Voigt Hill
#
# Bulk Modulus (GPa) = 34.54600 42.98057 38.76329
# Shear Modulus (GPa) = 25.65005 31.68335 28.66670
#
# Velocity S-wave (km/s) = 3.18433 3.53908 3.36638
# Velocity P-wave (km/s) = 5.21313 5.80441 5.51670
#
# Compressibility (1/GPa) = 0.02894691
#
# Stress axis : x y z
#
# Youngs Moduli (GPa) = 61.39606 59.06463 102.64296
#
# Poissons Ratio (x) = 0.02544 0.03730
# Poissons Ratio (y) = 0.02645 0.63770
# Poissons Ratio (z) = 0.02231 0.36695
#
# Static dielectric constant tensor:
#      x y z
#    x 2.084670 0.000000 0.000000 
#    y 0.000000 2.070410 0.000000 
#    z 0.000000 0.000000 2.047380 
# 
# From -- ./inp_files/17493.got.cif
#   From: 2010.05.17/outbox.cif.g08.bks.cpg/sg60_9_cif.got.tgz:17493.got - 2010.06.03 14:59:27.
