data_PCOD9456194
_publ_section_title
;
Structure prediction by ZEFSAII (Michael W. Deem and Ramdas Pophale) SiO2 
 PCOD9456194
Probable space group: P B C N
;
_chemical_formula_sum "Si O2"
_cell_formula_units_Z 60
_cell_length_a 9.112709
_cell_length_b 10.242554
_cell_length_c 28.242058
_cell_angle_alpha 90.000000
_cell_angle_beta 90.000000
_cell_angle_gamma 90.000000
_cell_volume 2636.040660
_symmetry_space_group_name_H-M "P B C N"
_symmetry_group_IT_number 60
_symmetry_cell_setting 'orthorhombic'
loop_
_space_group_symop_operation_xyz
x,y,z
1/2-x,1/2-y,1/2+z
1/2+x,1/2-y,-z
-x,y,1/2-z
-x,-y,-z
1/2+x,1/2+y,1/2-z
1/2-x,1/2+y,z
x,-y,1/2+z
loop_
_atom_site_type_symbol
_atom_site_label
_atom_site_fract_x
_atom_site_fract_y
_atom_site_fract_z
Si Si1 0.500000 0.485702 0.250000
Si Si2 0.719043 0.714333 0.769148
Si Si3 0.596388 0.816991 0.471210
Si Si4 0.759353 0.392107 0.686369
Si Si5 0.737404 0.910671 0.856086
Si Si6 0.477941 0.095797 0.687326
Si Si7 0.047651 0.821221 0.882669
Si Si8 0.357169 0.876878 0.545644
O O1 0.401687 0.391588 0.217839
O O2 0.380805 0.560183 0.281855
O O3 0.689821 0.765890 0.716382
O O4 0.726111 0.829760 0.807314
O O5 0.875566 0.644087 0.769876
O O6 0.486443 0.757437 0.430748
O O7 0.503907 0.835826 0.518881
O O8 0.724205 0.709227 0.475727
O O9 0.654898 0.964049 0.458787
O O10 0.701656 0.387240 0.632034
O O11 0.899998 0.485406 0.690206
O O12 0.649434 0.843014 0.898831
O O13 0.905380 0.912575 0.873730
O O14 0.652838 0.043692 0.847089
O O15 0.543568 0.217024 0.659887
#
# Coordination Sequence:
#
# PCOD9456194 Si02
#       8
#     4   8   8   8   8   8   8   8
#     4  12  24  40  56  88 124 172 214 280 324 410
#     4  11  24  40  62  88 124 170 220 272 338 397
#     4  10  22  44  71 101 141 184 229 290 354 423
#     4  12  25  40  61  92 125 169 223 275 339 402
#     4  10  21  39  66  92 123 174 220 266 339 412
#     4  11  22  40  62  87 122 165 210 277 329 399
#     4  10  22  41  62  92 130 170 216 277 338 410
#     4  10  22  43  71 103 140 182 231 284 356 416
#
# _framework density 22.761409
#
# number of rings (size 3 to 8) (size 9 to 14) (size 15 to 20)
#    0.000    1.333    1.333    4.800    0.000    6.400 
#    0.000    0.000    0.000    0.000    0.000    0.000 
#    0.000    0.000    0.000    0.000    0.000    0.000 
#
# Total GULP energy -334890.036981 kJ/mol
# GULP energy per Si atom -5581.500616 kJ/mol
# Density = 2.270960 g / cm^3
# Si number density = 22.761409 Si / 1000 Ang^3
#
#
#
# Elastic Constant Matrix: (Units=GPa)
#
#
# Indices 1 2 3 4 5 6 
#
# 1 86.2874 40.8381 28.7719 0.0000 0.0000 0.0000
# 2 40.8381 53.2877 8.4236 0.0000 0.0000 0.0000
# 3 28.7719 8.4236 52.6527 0.0000 0.0000 0.0000
# 4 0.0000 0.0000 0.0000 23.8699 0.0000 0.0000
# 5 0.0000 0.0000 0.0000 0.0000 33.0792 0.0000
# 6 0.0000 0.0000 0.0000 0.0000 0.0000 43.2045
#
#
#
# Elastic Compliance Matrix: (Units=1/GPa)
#
#
# Indices 1 2 3 4 5 6 
#
# 1 0.022082 -0.015405 -0.009602 0.000000 0.000000 0.000000
# 2 -0.015405 0.030000 0.003618 0.000000 0.000000 0.000000
# 3 -0.009602 0.003618 0.023660 0.000000 0.000000 0.000000
# 4 0.000000 0.000000 0.000000 0.041894 0.000000 0.000000
# 5 0.000000 0.000000 0.000000 0.000000 0.030230 0.000000
# 6 0.000000 0.000000 0.000000 0.000000 0.000000 0.023146
#
#
# Mechanical properties :
#
#
# Convention : Reuss Voigt Hill
#
# Bulk Modulus (GPa) = 30.33494 38.69944 34.51719
# Shear Modulus (GPa) = 22.24425 27.64367 24.94396
#
# Velocity S-wave (km/s) = 3.12954 3.48874 3.31401
# Velocity P-wave (km/s) = 5.13955 5.76781 5.46272
#
# Compressibility (1/GPa) = 0.03296529
#
# Stress axis : x y z
#
# Youngs Moduli (GPa) = 45.28639 33.33345 42.26463
#
# Poissons Ratio (x) = 0.51350 0.40582
# Poissons Ratio (y) = 0.69763 -0.15293
# Poissons Ratio (z) = 0.43484 -0.12062
#
# Static dielectric constant tensor:
#      x y z
#    x 1.924800 0.000000 0.000000 
#    y 0.000000 1.874030 0.000000 
#    z 0.000000 0.000000 1.905490 
# 
# From -- ./inp_files/25995.got.cif
#   From: 2010.05.17/outbox.cif.g08.bks.cpg/sg60_13_cif.got.tgz:25995.got - 2010.06.03 14:59:27.
