data_PCOD9456851
_publ_section_title
;
Structure prediction by ZEFSAII (Michael W. Deem and Ramdas Pophale) SiO2 
 PCOD9456851
Probable space group: P B C N
;
_chemical_formula_sum "Si O2"
_cell_formula_units_Z 56
_cell_length_a 15.810100
_cell_length_b 26.714109
_cell_length_c 5.025649
_cell_angle_alpha 90.000000
_cell_angle_beta 90.000000
_cell_angle_gamma 90.000000
_cell_volume 2122.596599
_symmetry_space_group_name_H-M "P B C N"
_symmetry_group_IT_number 60
_symmetry_cell_setting 'orthorhombic'
loop_
_space_group_symop_operation_xyz
x,y,z
1/2-x,1/2-y,1/2+z
1/2+x,1/2-y,-z
-x,y,1/2-z
-x,-y,-z
1/2+x,1/2+y,1/2-z
1/2-x,1/2+y,z
x,-y,1/2+z
loop_
_atom_site_type_symbol
_atom_site_label
_atom_site_fract_x
_atom_site_fract_y
_atom_site_fract_z
Si Si1 0.837028 0.137891 0.496168
Si Si2 0.661171 0.887986 0.058062
Si Si3 0.000000 0.868832 0.750000
Si Si4 0.916492 0.053981 0.837692
Si Si5 0.268435 0.970570 0.044282
Si Si6 0.580232 0.803471 0.390738
Si Si7 0.301546 0.737257 0.744653
Si Si8 0.500000 0.111964 0.250000
O O1 0.744899 0.124530 0.378719
O O2 0.873787 0.085324 0.598608
O O3 0.820358 0.178543 0.724032
O O4 0.916857 0.160595 0.341357
O O5 0.694562 0.922190 0.303790
O O6 0.634316 0.833613 0.170776
O O7 0.578509 0.911338 0.914173
O O8 0.957879 0.904245 0.527068
O O9 0.834380 0.030325 0.970453
O O10 0.000000 0.023316 0.750000
O O11 0.294263 0.014994 0.247674
O O12 0.500000 0.777786 0.250000
O O13 0.625585 0.769347 0.610412
O O14 0.545140 0.851557 0.545236
O O15 0.223531 0.751947 0.942157
#
# Coordination Sequence:
#
# PCOD9456851 Si02
#       8
#     8   8   4   8   8   8   8   4
#     4  10  22  40  65  96 141 187 229 281 340 404
#     4  10  22  45  70  96 138 180 230 285 356 421
#     4  10  22  40  68 100 134 196 230 272 334 416
#     4   9  22  42  64  95 136 184 232 275 343 409
#     4  11  27  43  69 106 135 178 226 289 352 421
#     4  10  23  42  65  98 131 182 233 289 340 411
#     4  12  26  42  65 100 136 180 237 284 341 399
#     4  10  22  42  76  96 124 182 234 282 352 414
#
# _framework density 26.382781999999999
#
# number of rings (size 3 to 8) (size 9 to 14) (size 15 to 20)
#    0.000    1.714    1.429    0.857   13.000    1.714 
#    3.857    0.714    0.000    0.000    0.000    0.000 
#    0.000    0.000    0.000    0.000    0.000    0.000 
#
# Total GULP energy -312828.049308 kJ/mol
# GULP energy per Si atom -5586.215166 kJ/mol
# Density = 2.632273 g / cm^3
# Si number density = 26.382782 Si / 1000 Ang^3
#
#
#
# Elastic Constant Matrix: (Units=GPa)
#
#
# Indices 1 2 3 4 5 6 
#
# 1 181.1202 30.4830 28.4844 0.0000 0.0000 0.0000
# 2 30.4830 68.4869 -9.6660 0.0000 0.0000 0.0000
# 3 28.4844 -9.6660 63.1171 0.0000 0.0000 0.0000
# 4 0.0000 0.0000 0.0000 32.3402 0.0000 0.0000
# 5 0.0000 0.0000 0.0000 0.0000 39.4038 0.0000
# 6 0.0000 0.0000 0.0000 0.0000 0.0000 35.6653
#
#
#
# Elastic Compliance Matrix: (Units=1/GPa)
#
#
# Indices 1 2 3 4 5 6 
#
# 1 0.006660 -0.003463 -0.003536 0.000000 0.000000 0.000000
# 2 -0.003463 0.016725 0.004124 0.000000 0.000000 0.000000
# 3 -0.003536 0.004124 0.018071 0.000000 0.000000 0.000000
# 4 0.000000 0.000000 0.000000 0.030921 0.000000 0.000000
# 5 0.000000 0.000000 0.000000 0.000000 0.025378 0.000000
# 6 0.000000 0.000000 0.000000 0.000000 0.000000 0.028038
#
#
# Mechanical properties :
#
#
# Convention : Reuss Voigt Hill
#
# Bulk Modulus (GPa) = 28.00664 45.70298 36.85481
# Shear Modulus (GPa) = 34.85615 39.04337 36.94976
#
# Velocity S-wave (km/s) = 3.63873 3.85110 3.74642
# Velocity P-wave (km/s) = 5.31906 6.09387 5.71960
#
# Compressibility (1/GPa) = 0.03570582
#
# Stress axis : x y z
#
# Youngs Moduli (GPa) = 150.14487 59.79068 55.33712
#
# Poissons Ratio (x) = 0.20709 0.19568
# Poissons Ratio (y) = 0.52003 -0.22823
# Poissons Ratio (z) = 0.53093 -0.24660
#
# Static dielectric constant tensor:
#      x y z
#    x 2.222450 0.000000 0.000000 
#    y 0.000000 2.030790 0.000000 
#    z 0.000000 0.000000 2.227800 
# 
# From -- ./inp_files/1500.got.cif
#   From: 2010.05.17/outbox.cif.g08.bks.cpg/sg60_1_cif.got.tgz:1500.got - 2010.06.03 14:59:27.
