data_PCOD9456296
_publ_section_title
;
Structure prediction by ZEFSAII (Michael W. Deem and Ramdas Pophale) SiO2 
 PCOD9456296
Probable space group: P B C N
;
_chemical_formula_sum "Si O2"
_cell_formula_units_Z 48
_cell_length_a 26.319551
_cell_length_b 14.292011
_cell_length_c 5.474887
_cell_angle_alpha 90.000000
_cell_angle_beta 90.000000
_cell_angle_gamma 90.000000
_cell_volume 2059.429729
_symmetry_space_group_name_H-M "P B C N"
_symmetry_group_IT_number 60
_symmetry_cell_setting 'orthorhombic'
loop_
_space_group_symop_operation_xyz
x,y,z
1/2-x,1/2-y,1/2+z
1/2+x,1/2-y,-z
-x,y,1/2-z
-x,-y,-z
1/2+x,1/2+y,1/2-z
1/2-x,1/2+y,z
x,-y,1/2+z
loop_
_atom_site_type_symbol
_atom_site_label
_atom_site_fract_x
_atom_site_fract_y
_atom_site_fract_z
Si Si1 0.420796 0.198357 0.387933
Si Si2 0.147225 0.025663 0.197638
Si Si3 0.697985 0.307211 0.608965
Si Si4 0.500000 0.732162 0.250000
Si Si5 0.946315 0.893539 0.353292
Si Si6 0.692928 0.808435 0.604387
Si Si7 0.000000 0.440743 0.750000
O O1 0.457870 0.204523 0.619538
O O2 0.421602 0.307760 0.303957
O O3 0.364689 0.156550 0.410337
O O4 0.452225 0.129346 0.217189
O O5 0.151273 0.125912 0.325088
O O6 0.171146 0.966398 0.424951
O O7 0.093132 0.978548 0.139578
O O8 0.752587 0.360979 0.623210
O O9 0.691885 0.257076 0.348685
O O10 0.699286 0.239239 0.839996
O O11 0.466293 0.663094 0.414487
O O12 0.000000 0.929613 0.250000
O O13 0.000000 0.500000 0.500000
#
# Coordination Sequence:
#
# PCOD9456296 Si02
#       7
#     8   8   8   4   8   8   4
#     4  11  22  43  69 101 134 186 235 289 351 442
#     4  12  26  40  62  95 143 186 222 288 350 397
#     4  10  22  45  63 105 130 179 241 295 345 409
#     4  10  21  40  66  97 142 184 246 280 331 448
#     4  10  23  39  63  95 137 193 236 270 339 434
#     4  10  23  41  76  91 130 181 246 290 344 421
#     4  12  27  44  68 101 138 170 222 294 365 412
#
# _framework density 23.307424999999999
#
# number of rings (size 3 to 8) (size 9 to 14) (size 15 to 20)
#    0.000    1.333    2.500    3.500    9.333    0.667 
#    0.000    1.667    0.000    0.000    0.000    0.000 
#    0.000    0.000    0.000    0.000    0.000    0.000 
#
# Total GULP energy -267296.404812 kJ/mol
# GULP energy per Si atom -5568.675100 kJ/mol
# Density = 2.325438 g / cm^3
# Si number density = 23.307425 Si / 1000 Ang^3
#
#
#
# Elastic Constant Matrix: (Units=GPa)
#
#
# Indices 1 2 3 4 5 6 
#
# 1 170.4681 31.5701 21.6314 0.0000 0.0000 0.0000
# 2 31.5701 46.5169 3.2667 0.0000 0.0000 0.0000
# 3 21.6314 3.2667 136.9875 0.0000 0.0000 0.0000
# 4 0.0000 0.0000 0.0000 31.5642 0.0000 0.0000
# 5 0.0000 0.0000 0.0000 0.0000 37.8200 0.0000
# 6 0.0000 0.0000 0.0000 0.0000 0.0000 23.2313
#
#
#
# Elastic Compliance Matrix: (Units=1/GPa)
#
#
# Indices 1 2 3 4 5 6 
#
# 1 0.006836 -0.004571 -0.000970 0.000000 0.000000 0.000000
# 2 -0.004571 0.024590 0.000135 0.000000 0.000000 0.000000
# 3 -0.000970 0.000135 0.007450 0.000000 0.000000 0.000000
# 4 0.000000 0.000000 0.000000 0.031682 0.000000 0.000000
# 5 0.000000 0.000000 0.000000 0.000000 0.026441 0.000000
# 6 0.000000 0.000000 0.000000 0.000000 0.000000 0.043045
#
#
# Mechanical properties :
#
#
# Convention : Reuss Voigt Hill
#
# Bulk Modulus (GPa) = 35.63307 51.87876 43.75591
# Shear Modulus (GPa) = 31.20879 38.35672 34.78275
#
# Velocity S-wave (km/s) = 3.66321 4.06111 3.86728
# Velocity P-wave (km/s) = 5.76313 6.65559 6.22537
#
# Compressibility (1/GPa) = 0.02806382
#
# Stress axis : x y z
#
# Youngs Moduli (GPa) = 146.28595 40.66619 134.22911
#
# Poissons Ratio (x) = 0.18590 0.13026
# Poissons Ratio (y) = 0.66871 -0.01818
# Poissons Ratio (z) = 0.14196 -0.00551
#
# Static dielectric constant tensor:
#      x y z
#    x 2.044390 0.000000 0.000000 
#    y 0.000000 1.899310 0.000000 
#    z 0.000000 0.000000 2.174420 
# 
# From -- ./inp_files/2558.got.cif
#   From: 2010.05.17/outbox.cif.g08.bks.cpg/sg60_2_cif.got.tgz:2558.got - 2010.06.03 14:59:27.
