data_PCOD9457447
_publ_section_title
;
Structure prediction by ZEFSAII (Michael W. Deem and Ramdas Pophale) SiO2 
 PCOD9457447
Probable space group: P B C N
;
_chemical_formula_sum "Si O2"
_cell_formula_units_Z 48
_cell_length_a 7.429479
_cell_length_b 21.707518
_cell_length_c 12.534526
_cell_angle_alpha 90.000000
_cell_angle_beta 90.000000
_cell_angle_gamma 90.000000
_cell_volume 2021.512564
_symmetry_space_group_name_H-M "P B C N"
_symmetry_group_IT_number 60
_symmetry_cell_setting 'orthorhombic'
loop_
_space_group_symop_operation_xyz
x,y,z
1/2-x,1/2-y,1/2+z
1/2+x,1/2-y,-z
-x,y,1/2-z
-x,-y,-z
1/2+x,1/2+y,1/2-z
1/2-x,1/2+y,z
x,-y,1/2+z
loop_
_atom_site_type_symbol
_atom_site_label
_atom_site_fract_x
_atom_site_fract_y
_atom_site_fract_z
Si Si1 0.852071 0.607854 0.466764
Si Si2 0.702727 0.516392 0.034712
Si Si3 0.219081 0.585741 0.256787
Si Si4 0.200373 0.168608 0.834300
Si Si5 0.807312 0.137333 0.898793
Si Si6 0.319838 0.192552 0.397064
O O1 0.841024 0.539189 0.515292
O O2 0.721649 0.593682 0.365423
O O3 0.826463 0.648978 0.570858
O O4 0.001403 0.651345 0.411258
O O5 0.710215 0.535167 0.159608
O O6 0.500000 0.500000 0.000000
O O7 0.752718 0.575643 0.960644
O O8 0.278581 0.649533 0.311964
O O9 0.000000 0.572855 0.250000
O O10 0.272409 0.152526 0.717123
O O11 0.155970 0.240559 0.848444
O O12 0.016945 0.133149 0.867153
O O13 0.775654 0.190464 0.987348
#
# Coordination Sequence:
#
# PCOD9457447 Si02
#       6
#     8   8   8   8   8   8
#     4  11  24  41  69  97 129 182 222 281 340 408
#     4  11  23  45  65  98 134 172 233 281 346 412
#     4   9  23  41  65  96 131 179 217 286 344 408
#     4  11  23  40  68  95 131 175 220 278 344 402
#     4  10  24  41  63  95 130 174 217 281 338 402
#     4  10  23  43  65  95 134 173 226 274 342 412
#
# _framework density 23.744596999999999
#
# number of rings (size 3 to 8) (size 9 to 14) (size 15 to 20)
#    0.000    1.667    1.667    1.000   11.667    7.333 
#    0.000    0.000    0.000    0.000    0.000    0.000 
#    0.000    0.000    0.000    0.000    0.000    0.000 
#
# Total GULP energy -267290.783199 kJ/mol
# GULP energy per Si atom -5568.557983 kJ/mol
# Density = 2.369055 g / cm^3
# Si number density = 23.744597 Si / 1000 Ang^3
#
#
#
# Elastic Constant Matrix: (Units=GPa)
#
#
# Indices 1 2 3 4 5 6 
#
# 1 35.5277 3.1982 -0.0222 0.0000 0.0000 0.0000
# 2 3.1982 117.0351 6.1151 0.0000 0.0000 0.0000
# 3 -0.0222 6.1151 157.5855 0.0000 0.0000 0.0000
# 4 0.0000 0.0000 0.0000 5.0545 0.0000 0.0000
# 5 0.0000 0.0000 0.0000 0.0000 33.0001 0.0000
# 6 0.0000 0.0000 0.0000 0.0000 0.0000 -88.4382
#
#
#
# Elastic Compliance Matrix: (Units=1/GPa)
#
#
# Indices 1 2 3 4 5 6 
#
# 1 0.028217 -0.000773 0.000034 0.000000 0.000000 0.000000
# 2 -0.000773 0.008583 -0.000333 0.000000 0.000000 0.000000
# 3 0.000034 -0.000333 0.006359 0.000000 0.000000 0.000000
# 4 0.000000 0.000000 0.000000 0.197845 0.000000 0.000000
# 5 0.000000 0.000000 0.000000 0.000000 0.030303 0.000000
# 6 0.000000 0.000000 0.000000 0.000000 0.000000 -0.011307
#
#
# Mechanical properties :
#
#
# Convention : Reuss Voigt Hill
#
# Bulk Modulus (GPa) = 24.38180 36.52560 30.45370
# Shear Modulus (GPa) = 18.12813 9.98043 14.05428
#
# Velocity S-wave (km/s) = 2.76608 2.05241 2.43553
# Velocity P-wave (km/s) = 4.52684 4.58613 4.55658
#
# Compressibility (1/GPa) = 0.04101420
#
# Stress axis : x y z
#
# Youngs Moduli (GPa) = 35.44011 116.50979 157.26500
#
# Poissons Ratio (x) = 0.09004 -0.00534
# Poissons Ratio (y) = 0.02739 0.05240
# Poissons Ratio (z) = -0.00120 0.03882
#
# Static dielectric constant tensor:
#      x y z
#    x 2.052310 0.000000 0.000000 
#    y 0.000000 1.902390 0.000000 
#    z 0.000000 0.000000 1.828960 
# 
# From -- ./inp_files/10110.got.cif
#   From: 2010.05.17/outbox.cif.g08.bks.cpg/sg60_6_cif.got.tgz:10110.got - 2010.06.03 14:59:27.
