data_PCOD9457668
_publ_section_title
;
Structure prediction by ZEFSAII (Michael W. Deem and Ramdas Pophale) SiO2 
 PCOD9457668
Probable space group: P B C N
;
_chemical_formula_sum "Si O2"
_cell_formula_units_Z 36
_cell_length_a 7.523246
_cell_length_b 22.405570
_cell_length_c 10.511678
_cell_angle_alpha 90.000000
_cell_angle_beta 90.000000
_cell_angle_gamma 90.000000
_cell_volume 1771.875930
_symmetry_space_group_name_H-M "P B C N"
_symmetry_group_IT_number 60
_symmetry_cell_setting 'orthorhombic'
loop_
_space_group_symop_operation_xyz
x,y,z
1/2-x,1/2-y,1/2+z
1/2+x,1/2-y,-z
-x,y,1/2-z
-x,-y,-z
1/2+x,1/2+y,1/2-z
1/2-x,1/2+y,z
x,-y,1/2+z
loop_
_atom_site_type_symbol
_atom_site_label
_atom_site_fract_x
_atom_site_fract_y
_atom_site_fract_z
Si Si1 0.500000 0.351042 0.750000
Si Si2 0.034280 0.069831 0.004363
Si Si3 0.242848 0.860890 0.150510
Si Si4 0.833807 0.724449 0.346506
Si Si5 0.879749 0.629210 0.562786
O O1 0.530228 0.394424 0.629513
O O2 0.332699 0.308555 0.719877
O O3 0.245342 0.081524 0.996499
O O4 0.927211 0.101114 0.889497
O O5 0.000000 0.000000 0.000000
O O6 0.210103 0.792064 0.115581
O O7 0.415199 0.887415 0.079251
O O8 0.701876 0.858860 0.201886
O O9 0.873041 0.687028 0.473403
O O10 0.000000 0.724415 0.250000
#
# Coordination Sequence:
#
# PCOD9457668 Si02
#       5
#     4   8   8   8   8
#     4  10  24  42  64 100 130 172 224 284 332 400
#     4  11  25  43  69  93 133 180 228 273 337 408
#     4  11  24  40  66  97 135 172 219 276 338 403
#     4  11  23  39  67  98 135 170 215 276 342 405
#     4  10  24  41  63  98 129 173 221 276 338 395
#
# _framework density 20.317449
#
# number of rings (size 3 to 8) (size 9 to 14) (size 15 to 20)
#    0.000    1.333    0.000    4.667   15.556    0.889 
#    0.000    0.000    0.000    0.000    0.000    0.000 
#    0.000    0.000    0.000    0.000    0.000    0.000 
#
# Total GULP energy -201229.147613 kJ/mol
# GULP energy per Si atom -5589.698545 kJ/mol
# Density = 2.027121 g / cm^3
# Si number density = 20.317449 Si / 1000 Ang^3
#
#
#
# Elastic Constant Matrix: (Units=GPa)
#
#
# Indices 1 2 3 4 5 6 
#
# 1 127.4717 42.9449 28.7869 0.0000 0.0000 0.0000
# 2 42.9449 135.6656 17.4921 0.0000 0.0000 0.0000
# 3 28.7869 17.4921 77.7142 0.0000 0.0000 0.0000
# 4 0.0000 0.0000 0.0000 4.6708 0.0000 0.0000
# 5 0.0000 0.0000 0.0000 0.0000 33.6280 0.0000
# 6 0.0000 0.0000 0.0000 0.0000 0.0000 7.1390
#
#
#
# Elastic Compliance Matrix: (Units=1/GPa)
#
#
# Indices 1 2 3 4 5 6 
#
# 1 0.009371 -0.002594 -0.002887 0.000000 0.000000 0.000000
# 2 -0.002594 0.008309 -0.000909 0.000000 0.000000 0.000000
# 3 -0.002887 -0.000909 0.014142 0.000000 0.000000 0.000000
# 4 0.000000 0.000000 0.000000 0.214094 0.000000 0.000000
# 5 0.000000 0.000000 0.000000 0.000000 0.029737 0.000000
# 6 0.000000 0.000000 0.000000 0.000000 0.000000 0.140075
#
#
# Mechanical properties :
#
#
# Convention : Reuss Voigt Hill
#
# Bulk Modulus (GPa) = 52.51918 57.69991 55.10955
# Shear Modulus (GPa) = 11.49804 25.86275 18.68039
#
# Velocity S-wave (km/s) = 2.38149 3.57169 3.03549
# Velocity P-wave (km/s) = 5.78510 6.74315 6.28242
#
# Compressibility (1/GPa) = 0.01904066
#
# Stress axis : x y z
#
# Youngs Moduli (GPa) = 106.71396 120.34455 70.71207
#
# Poissons Ratio (x) = 0.31218 0.20416
# Poissons Ratio (y) = 0.27682 0.06431
# Poissons Ratio (z) = 0.30811 0.10944
#
# Static dielectric constant tensor:
#      x y z
#    x 1.730100 0.000000 0.000000 
#    y 0.000000 1.650400 0.000000 
#    z 0.000000 0.000000 1.757390 
# 
# From -- ./inp_files/13721.got.cif
#   From: 2010.05.17/outbox.cif.g08.bks.cpg/sg60_7_cif.got.tgz:13721.got - 2010.06.03 14:59:27.
