data_PCOD9457226
_publ_section_title
;
Structure prediction by ZEFSAII (Michael W. Deem and Ramdas Pophale) SiO2 
 PCOD9457226
Probable space group: P B C N
;
_chemical_formula_sum "Si O2"
_cell_formula_units_Z 32
_cell_length_a 22.890146
_cell_length_b 5.299853
_cell_length_c 9.665130
_cell_angle_alpha 90.000000
_cell_angle_beta 90.000000
_cell_angle_gamma 90.000000
_cell_volume 1172.519533
_symmetry_space_group_name_H-M "P B C N"
_symmetry_group_IT_number 60
_symmetry_cell_setting 'orthorhombic'
loop_
_space_group_symop_operation_xyz
x,y,z
1/2-x,1/2-y,1/2+z
1/2+x,1/2-y,-z
-x,y,1/2-z
-x,-y,-z
1/2+x,1/2+y,1/2-z
1/2-x,1/2+y,z
x,-y,1/2+z
loop_
_atom_site_type_symbol
_atom_site_label
_atom_site_fract_x
_atom_site_fract_y
_atom_site_fract_z
Si Si1 0.765054 0.740486 0.301036
Si Si2 0.555861 0.326729 0.041093
Si Si3 0.938118 0.541804 0.783093
Si Si4 0.154914 0.075805 0.339103
O O1 0.761800 0.479165 0.379526
O O2 0.719533 0.698388 0.172687
O O3 0.827613 0.824353 0.248115
O O4 0.562476 0.073095 0.948302
O O5 0.500000 0.500000 0.000000
O O6 0.556076 0.217271 0.197504
O O7 0.616854 0.482700 0.031534
O O8 0.886647 0.719047 0.730269
O O9 0.000000 0.674798 0.750000
#
# Coordination Sequence:
#
# PCOD9457226 Si02
#       4
#     8   8   8   8
#     4   8  18  40  71 108 151 203 265 328 400 485
#     4  12  28  50  77 119 165 213 272 346 418 505
#     4  12  27  48  77 116 163 210 271 339 416 498
#     4  10  22  45  78 110 154 209 270 335 410 486
#
# _framework density 27.291654999999999
#
# number of rings (size 3 to 8) (size 9 to 14) (size 15 to 20)
#    1.500    0.000    2.500    2.250    3.500    0.000 
#    0.000    2.500    0.000    0.000    0.000    0.000 
#    0.000    0.000    0.000    0.000    0.000    0.000 
#
# Total GULP energy -178214.469447 kJ/mol
# GULP energy per Si atom -5569.202170 kJ/mol
# Density = 2.722954 g / cm^3
# Si number density = 27.291655 Si / 1000 Ang^3
#
#
#
# Elastic Constant Matrix: (Units=GPa)
#
#
# Indices 1 2 3 4 5 6 
#
# 1 136.1280 25.1846 64.0997 0.0000 0.0000 0.0000
# 2 25.1846 168.7512 43.5500 0.0000 0.0000 0.0000
# 3 64.0997 43.5500 66.4270 0.0000 0.0000 0.0000
# 4 0.0000 0.0000 0.0000 43.4800 0.0000 0.0000
# 5 0.0000 0.0000 0.0000 0.0000 -1.0675 0.0000
# 6 0.0000 0.0000 0.0000 0.0000 0.0000 45.8842
#
#
#
# Elastic Compliance Matrix: (Units=1/GPa)
#
#
# Indices 1 2 3 4 5 6 
#
# 1 0.013841 0.001662 -0.014446 0.000000 0.000000 0.000000
# 2 0.001662 0.007332 -0.006411 0.000000 0.000000 0.000000
# 3 -0.014446 -0.006411 0.033197 0.000000 0.000000 0.000000
# 4 0.000000 0.000000 0.000000 0.022999 0.000000 0.000000
# 5 0.000000 0.000000 0.000000 0.000000 -0.936740 0.000000
# 6 0.000000 0.000000 0.000000 0.000000 0.000000 0.021794
#
#
# Mechanical properties :
#
#
# Convention : Reuss Voigt Hill
#
# Bulk Modulus (GPa) = 62.57472 70.77497 66.67485
# Shear Modulus (GPa) = -6.29833 33.55745 13.62956
#
# Velocity S-wave (km/s) = -1.52079 3.51035 2.23716
# Velocity P-wave (km/s) = 4.46029 6.51300 5.58182
#
# Compressibility (1/GPa) = 0.01598089
#
# Stress axis : x y z
#
# Youngs Moduli (GPa) = 72.25153 136.38164 30.12338
#
# Poissons Ratio (x) = -0.22672 0.43515
# Poissons Ratio (y) = -0.12011 0.19313
# Poissons Ratio (z) = 1.04371 0.87438
#
# Static dielectric constant tensor:
#      x y z
#    x 1.878330 0.000000 0.000000 
#    y 0.000000 2.230040 0.000000 
#    z 0.000000 0.000000 2.152640 
# 
# From -- ./inp_files/17127.got.cif
#   From: 2010.05.17/outbox.cif.g08.bks.cpg/sg60_9_cif.got.tgz:17127.got - 2010.06.03 14:59:27.
