data_PCOD9457378
_publ_section_title
;
Structure prediction by ZEFSAII (Michael W. Deem and Ramdas Pophale) SiO2 
 PCOD9457378
Probable space group: P B C N
;
_chemical_formula_sum "Si O2"
_cell_formula_units_Z 40
_cell_length_a 20.876066
_cell_length_b 5.137887
_cell_length_c 14.046024
_cell_angle_alpha 90.000000
_cell_angle_beta 90.000000
_cell_angle_gamma 90.000000
_cell_volume 1506.560636
_symmetry_space_group_name_H-M "P B C N"
_symmetry_group_IT_number 60
_symmetry_cell_setting 'orthorhombic'
loop_
_space_group_symop_operation_xyz
x,y,z
1/2-x,1/2-y,1/2+z
1/2+x,1/2-y,-z
-x,y,1/2-z
-x,-y,-z
1/2+x,1/2+y,1/2-z
1/2-x,1/2+y,z
x,-y,1/2+z
loop_
_atom_site_type_symbol
_atom_site_label
_atom_site_fract_x
_atom_site_fract_y
_atom_site_fract_z
Si Si1 0.877082 0.529443 0.168293
Si Si2 0.296122 0.240399 0.673041
Si Si3 0.293116 0.308933 0.461244
Si Si4 0.442277 0.212979 0.994945
Si Si5 0.004877 0.883034 0.344996
O O1 0.848817 0.343398 0.248643
O O2 0.883905 0.397144 0.064044
O O3 0.947019 0.652112 0.185736
O O4 0.831705 0.766257 0.136471
O O5 0.256031 0.506857 0.681836
O O6 0.324991 0.263620 0.565592
O O7 0.261923 0.591025 0.459627
O O8 0.461815 0.452164 0.927357
O O9 0.438869 0.297239 0.104640
O O10 0.500000 0.000000 0.000000
O O11 0.000000 0.049345 0.250000
#
# Coordination Sequence:
#
# PCOD9457378 Si02
#       5
#     8   8   8   8   8
#     4  11  23  38  69  92 128 178 218 274 341 403
#     4  10  23  42  63 100 135 171 223 274 331 406
#     4  10  23  42  65  96 136 173 219 281 332 401
#     4   9  22  43  60  94 128 168 218 271 334 396
#     4  10  23  43  65  94 131 169 223 283 332 402
#
# _framework density 26.550540000000002
#
# number of rings (size 3 to 8) (size 9 to 14) (size 15 to 20)
#    0.000    2.000    0.000    1.200    8.400    3.200 
#    7.200    0.000    0.000    0.000    0.000    0.000 
#    0.000    0.000    0.000    0.000    0.000    0.000 
#
# Total GULP energy -223497.549548 kJ/mol
# GULP energy per Si atom -5587.438739 kJ/mol
# Density = 2.649011 g / cm^3
# Si number density = 26.550540 Si / 1000 Ang^3
#
#
#
# Elastic Constant Matrix: (Units=GPa)
#
#
# Indices 1 2 3 4 5 6 
#
# 1 57.4719 25.5608 32.2748 0.0000 0.0000 0.0000
# 2 25.5608 105.7930 0.2900 0.0000 0.0000 0.0000
# 3 32.2748 0.2900 130.8475 0.0000 0.0000 0.0000
# 4 0.0000 0.0000 0.0000 13.2295 0.0000 0.0000
# 5 0.0000 0.0000 0.0000 0.0000 37.6282 0.0000
# 6 0.0000 0.0000 0.0000 0.0000 0.0000 37.1067
#
#
#
# Elastic Compliance Matrix: (Units=1/GPa)
#
#
# Indices 1 2 3 4 5 6 
#
# 1 0.023058 -0.005555 -0.005675 0.000000 0.000000 0.000000
# 2 -0.005555 0.010791 0.001346 0.000000 0.000000 0.000000
# 3 -0.005675 0.001346 0.009039 0.000000 0.000000 0.000000
# 4 0.000000 0.000000 0.000000 0.075588 0.000000 0.000000
# 5 0.000000 0.000000 0.000000 0.000000 0.026576 0.000000
# 6 0.000000 0.000000 0.000000 0.000000 0.000000 0.026949
#
#
# Mechanical properties :
#
#
# Convention : Reuss Voigt Hill
#
# Bulk Modulus (GPa) = 43.25322 45.59597 44.42460
# Shear Modulus (GPa) = 25.06564 33.32534 29.19549
#
# Velocity S-wave (km/s) = 3.07591 3.54668 3.31965
# Velocity P-wave (km/s) = 5.37971 5.82945 5.60908
#
# Compressibility (1/GPa) = 0.02311967
#
# Stress axis : x y z
#
# Youngs Moduli (GPa) = 43.36964 92.66988 110.62788
#
# Poissons Ratio (x) = 0.51482 0.62782
# Poissons Ratio (y) = 0.24094 -0.14895
# Poissons Ratio (z) = 0.24613 -0.12477
#
# Static dielectric constant tensor:
#      x y z
#    x 2.300840 0.000000 0.000000 
#    y 0.000000 2.209560 0.000000 
#    z 0.000000 0.000000 2.177240 
# 
# From -- ./inp_files/17819.got.cif
#   From: 2010.05.17/outbox.cif.g08.bks.cpg/sg60_9_cif.got.tgz:17819.got - 2010.06.03 14:59:27.
