data_PCOD9457945
_publ_section_title
;
Structure prediction by ZEFSAII (Michael W. Deem and Ramdas Pophale) SiO2 
 PCOD9457945
Probable space group: P B C N
;
_chemical_formula_sum "Si O2"
_cell_formula_units_Z 28
_cell_length_a 14.209738
_cell_length_b 8.707754
_cell_length_c 7.677221
_cell_angle_alpha 90.000000
_cell_angle_beta 90.000000
_cell_angle_gamma 90.000000
_cell_volume 949.940195
_symmetry_space_group_name_H-M "P B C N"
_symmetry_group_IT_number 60
_symmetry_cell_setting 'orthorhombic'
loop_
_space_group_symop_operation_xyz
x,y,z
1/2-x,1/2-y,1/2+z
1/2+x,1/2-y,-z
-x,y,1/2-z
-x,-y,-z
1/2+x,1/2+y,1/2-z
1/2-x,1/2+y,z
x,-y,1/2+z
loop_
_atom_site_type_symbol
_atom_site_label
_atom_site_fract_x
_atom_site_fract_y
_atom_site_fract_z
Si Si1 0.000000 0.863604 0.250000
Si Si2 0.672593 0.845581 0.097071
Si Si3 0.188319 0.955549 0.109776
Si Si4 0.519512 0.867109 0.422676
O O1 0.914751 0.968837 0.308382
O O2 0.971152 0.754387 0.082426
O O3 0.668508 0.667147 0.041359
O O4 0.573181 0.840001 0.232804
O O5 0.750990 0.904278 0.953076
O O6 0.576712 0.970665 0.989318
O O7 0.256786 0.878166 0.245447
#
# Coordination Sequence:
#
# PCOD9457945 Si02
#       4
#     4   8   8   8
#     4  10  26  44  66 102 144 190 234 288 362 434
#     4  11  25  42  71 102 138 183 233 298 355 423
#     4  11  25  46  70 101 142 184 237 291 363 423
#     4  11  22  39  71 102 137 183 243 294 348 420
#
# _framework density 29.475541
#
# number of rings (size 3 to 8) (size 9 to 14) (size 15 to 20)
#    0.000    1.143    1.429    3.429   12.000    1.143 
#    0.000    0.000    0.000    0.000    0.000    0.000 
#    0.000    0.000    0.000    0.000    0.000    0.000 
#
# Total GULP energy -155996.928399 kJ/mol
# GULP energy per Si atom -5571.318871 kJ/mol
# Density = 2.940845 g / cm^3
# Si number density = 29.475541 Si / 1000 Ang^3
#
#
#
# Elastic Constant Matrix: (Units=GPa)
#
#
# Indices 1 2 3 4 5 6 
#
# 1 240.8046 32.3314 10.0552 0.0000 0.0000 0.0000
# 2 32.3314 131.5314 67.8344 0.0000 0.0000 0.0000
# 3 10.0552 67.8344 214.7201 0.0000 0.0000 0.0000
# 4 0.0000 0.0000 0.0000 122.2310 0.0000 0.0000
# 5 0.0000 0.0000 0.0000 0.0000 61.5077 0.0000
# 6 0.0000 0.0000 0.0000 0.0000 0.0000 116.9260
#
#
#
# Elastic Compliance Matrix: (Units=1/GPa)
#
#
# Indices 1 2 3 4 5 6 
#
# 1 0.004299 -0.001138 0.000158 0.000000 0.000000 0.000000
# 2 -0.001138 0.009384 -0.002911 0.000000 0.000000 0.000000
# 3 0.000158 -0.002911 0.005570 0.000000 0.000000 0.000000
# 4 0.000000 0.000000 0.000000 0.008181 0.000000 0.000000
# 5 0.000000 0.000000 0.000000 0.000000 0.016258 0.000000
# 6 0.000000 0.000000 0.000000 0.000000 0.000000 0.008552
#
#
# Mechanical properties :
#
#
# Convention : Reuss Voigt Hill
#
# Bulk Modulus (GPa) = 87.18516 89.72201 88.45358
# Shear Modulus (GPa) = 78.30824 91.92196 85.11510
#
# Velocity S-wave (km/s) = 5.15993 5.59049 5.37952
# Velocity P-wave (km/s) = 8.07111 8.49570 8.28613
#
# Compressibility (1/GPa) = 0.01146984
#
# Stress axis : x y z
#
# Youngs Moduli (GPa) = 232.61357 106.56446 179.54791
#
# Poissons Ratio (x) = 0.12131 -0.02843
# Poissons Ratio (y) = 0.26480 0.52271
# Poissons Ratio (z) = -0.03683 0.31024
#
# Static dielectric constant tensor:
#      x y z
#    x 2.524710 0.000000 0.000000 
#    y 0.000000 2.228020 0.000000 
#    z 0.000000 0.000000 2.448290 
# 
# From -- ./inp_files/10515.got.cif
#   From: 2010.05.17/outbox.cif.g08.bks.cpg/sg60_6_cif.got.tgz:10515.got - 2010.06.03 14:59:27.
