data_PCOD9457081
_publ_section_title
;
Structure prediction by ZEFSAII (Michael W. Deem and Ramdas Pophale) SiO2 
 PCOD9457081
Probable space group: P B C N
;
_chemical_formula_sum "Si O2"
_cell_formula_units_Z 52
_cell_length_a 13.593713
_cell_length_b 9.563283
_cell_length_c 18.956020
_cell_angle_alpha 90.000000
_cell_angle_beta 90.000000
_cell_angle_gamma 90.000000
_cell_volume 2464.292541
_symmetry_space_group_name_H-M "P B C N"
_symmetry_group_IT_number 60
_symmetry_cell_setting 'orthorhombic'
loop_
_space_group_symop_operation_xyz
x,y,z
1/2-x,1/2-y,1/2+z
1/2+x,1/2-y,-z
-x,y,1/2-z
-x,-y,-z
1/2+x,1/2+y,1/2-z
1/2-x,1/2+y,z
x,-y,1/2+z
loop_
_atom_site_type_symbol
_atom_site_label
_atom_site_fract_x
_atom_site_fract_y
_atom_site_fract_z
Si Si1 0.629940 0.044284 0.151521
Si Si2 0.759698 0.984712 0.394641
Si Si3 0.652203 0.740986 0.312578
Si Si4 0.315944 0.729481 0.355045
Si Si5 0.589120 0.605334 0.011497
Si Si6 0.000000 0.409536 0.250000
Si Si7 0.450223 0.099896 0.056964
O O1 0.671604 0.893668 0.124764
O O2 0.594270 0.002968 0.230154
O O3 0.707264 0.165359 0.138707
O O4 0.527375 0.092712 0.119691
O O5 0.729103 0.851940 0.346220
O O6 0.817016 0.942318 0.465539
O O7 0.827115 0.096721 0.352940
O O8 0.656741 0.052391 0.418109
O O9 0.663895 0.716958 0.228659
O O10 0.542559 0.811467 0.313312
O O11 0.381537 0.636767 0.407791
O O12 0.500000 0.500000 0.000000
O O13 0.556446 0.749950 0.977226
O O14 0.500000 0.000000 0.000000
#
# Coordination Sequence:
#
# PCOD9457081 Si02
#       7
#     8   8   8   8   8   4   8
#     4  11  24  43  74  99 144 184 241 299 365 435
#     4  12  26  48  74 108 148 195 246 310 375 442
#     4  11  24  46  73 103 147 195 243 301 374 439
#     4  11  26  47  70 110 141 195 241 307 370 442
#     4  12  30  46  73 112 149 192 250 313 369 448
#     4  10  22  42  74 104 140 192 242 292 372 444
#     4  12  25  47  74 102 140 192 244 292 368 437
#
# _framework density 21.101391
#
# number of rings (size 3 to 8) (size 9 to 14) (size 15 to 20)
#    0.000    0.615    4.615    2.769    8.615    0.000 
#    0.000    0.000    0.000    0.000    0.000    0.000 
#    0.000    0.000    0.000    0.000    0.000    0.000 
#
# Total GULP energy -290358.746679 kJ/mol
# GULP energy per Si atom -5583.822052 kJ/mol
# Density = 2.105336 g / cm^3
# Si number density = 21.101391 Si / 1000 Ang^3
#
#
#
# Elastic Constant Matrix: (Units=GPa)
#
#
# Indices 1 2 3 4 5 6 
#
# 1 123.8398 48.6530 31.0273 0.0000 0.0000 0.0000
# 2 48.6530 104.1297 35.0671 0.0000 0.0000 0.0000
# 3 31.0273 35.0671 107.6431 0.0000 0.0000 0.0000
# 4 0.0000 0.0000 0.0000 32.8635 0.0000 0.0000
# 5 0.0000 0.0000 0.0000 0.0000 45.7702 0.0000
# 6 0.0000 0.0000 0.0000 0.0000 0.0000 40.7611
#
#
#
# Elastic Compliance Matrix: (Units=1/GPa)
#
#
# Indices 1 2 3 4 5 6 
#
# 1 0.010114 -0.004205 -0.001545 0.000000 0.000000 0.000000
# 2 -0.004205 0.012535 -0.002871 0.000000 0.000000 0.000000
# 3 -0.001545 -0.002871 0.010671 0.000000 0.000000 0.000000
# 4 0.000000 0.000000 0.000000 0.030429 0.000000 0.000000
# 5 0.000000 0.000000 0.000000 0.000000 0.021848 0.000000
# 6 0.000000 0.000000 0.000000 0.000000 0.000000 0.024533
#
#
# Mechanical properties :
#
#
# Convention : Reuss Voigt Hill
#
# Bulk Modulus (GPa) = 62.20440 62.78971 62.49706
# Shear Modulus (GPa) = 37.66938 38.60332 38.13635
#
# Velocity S-wave (km/s) = 4.22970 4.28181 4.25584
# Velocity P-wave (km/s) = 7.30730 7.36655 7.33698
#
# Compressibility (1/GPa) = 0.01607603
#
# Stress axis : x y z
#
# Youngs Moduli (GPa) = 98.87013 79.77481 93.71318
#
# Poissons Ratio (x) = 0.33548 0.14482
# Poissons Ratio (y) = 0.41578 0.26910
# Poissons Ratio (z) = 0.15279 0.22907
#
# Static dielectric constant tensor:
#      x y z
#    x 6.124330 0.000000 0.000000 
#    y 0.000000 1.832900 0.000000 
#    z 0.000000 0.000000 1.981710 
# 
# From -- ./inp_files/22845.got.cif
#   From: 2010.05.17/outbox.cif.g08.bks.cpg/sg60_12_cif.got.tgz:22845.got - 2010.06.03 14:59:27.
