data_PCOD9457929
_publ_section_title
;
Structure prediction by ZEFSAII (Michael W. Deem and Ramdas Pophale) SiO2 
 PCOD9457929
Probable space group: P B C N
;
_chemical_formula_sum "Si O2"
_cell_formula_units_Z 32
_cell_length_a 9.013233
_cell_length_b 16.703921
_cell_length_c 8.991085
_cell_angle_alpha 90.000000
_cell_angle_beta 90.000000
_cell_angle_gamma 90.000000
_cell_volume 1353.664778
_symmetry_space_group_name_H-M "P B C N"
_symmetry_group_IT_number 60
_symmetry_cell_setting 'orthorhombic'
loop_
_space_group_symop_operation_xyz
x,y,z
1/2-x,1/2-y,1/2+z
1/2+x,1/2-y,-z
-x,y,1/2-z
-x,-y,-z
1/2+x,1/2+y,1/2-z
1/2-x,1/2+y,z
x,-y,1/2+z
loop_
_atom_site_type_symbol
_atom_site_label
_atom_site_fract_x
_atom_site_fract_y
_atom_site_fract_z
Si Si1 0.654564 0.438383 0.829314
Si Si2 0.092647 0.439902 0.107430
Si Si3 0.437918 0.339843 0.410499
Si Si4 0.735420 0.312124 0.589259
O O1 0.500000 0.456864 0.750000
O O2 0.771674 0.508676 0.827053
O O3 0.716340 0.359884 0.743929
O O4 0.624416 0.414743 0.999108
O O5 0.000000 0.411941 0.250000
O O6 0.159080 0.367709 0.012187
O O7 0.000000 0.500000 0.000000
O O8 0.500000 0.359606 0.250000
O O9 0.575247 0.307603 0.510499
O O10 0.312386 0.272833 0.392726
#
# Coordination Sequence:
#
# PCOD9457929 Si02
#       4
#     8   8   8   8
#     4  10  25  49  67 101 145 183 233 296 357 421
#     4  12  27  45  74 103 144 186 235 291 353 429
#     4  11  26  43  75 100 139 181 238 289 351 425
#     4  11  26  45  69 104 139 187 226 296 349 425
#
# _framework density 23.639529
#
# number of rings (size 3 to 8) (size 9 to 14) (size 15 to 20)
#    0.000    1.000    2.500    1.500   10.500    8.000 
#    0.000    0.000    0.000    0.000    0.000    0.000 
#    0.000    0.000    0.000    0.000    0.000    0.000 
#
# Total GULP energy -179624.999043 kJ/mol
# GULP energy per Si atom -5613.281220 kJ/mol
# Density = 2.358572 g / cm^3
# Si number density = 23.639529 Si / 1000 Ang^3
#
#
#
# Elastic Constant Matrix: (Units=GPa)
#
#
# Indices 1 2 3 4 5 6 
#
# 1 89.4083 21.1170 16.7945 0.0000 0.0000 0.0000
# 2 21.1170 51.2732 5.2258 0.0000 0.0000 0.0000
# 3 16.7945 5.2258 123.5718 0.0000 0.0000 0.0000
# 4 0.0000 0.0000 0.0000 26.4303 0.0000 0.0000
# 5 0.0000 0.0000 0.0000 0.0000 24.7671 0.0000
# 6 0.0000 0.0000 0.0000 0.0000 0.0000 25.4180
#
#
#
# Elastic Compliance Matrix: (Units=1/GPa)
#
#
# Indices 1 2 3 4 5 6 
#
# 1 0.012663 -0.005062 -0.001507 0.000000 0.000000 0.000000
# 2 -0.005062 0.021611 -0.000226 0.000000 0.000000 0.000000
# 3 -0.001507 -0.000226 0.008307 0.000000 0.000000 0.000000
# 4 0.000000 0.000000 0.000000 0.037835 0.000000 0.000000
# 5 0.000000 0.000000 0.000000 0.000000 0.040376 0.000000
# 6 0.000000 0.000000 0.000000 0.000000 0.000000 0.039342
#
#
# Mechanical properties :
#
#
# Convention : Reuss Voigt Hill
#
# Bulk Modulus (GPa) = 34.49267 38.94755 36.72011
# Shear Modulus (GPa) = 27.26453 30.06413 28.66433
#
# Velocity S-wave (km/s) = 3.39978 3.57006 3.48596
# Velocity P-wave (km/s) = 5.48034 5.78836 5.63646
#
# Compressibility (1/GPa) = 0.02899167
#
# Stress axis : x y z
#
# Youngs Moduli (GPa) = 78.96873 46.27246 120.38287
#
# Poissons Ratio (x) = 0.23422 0.18142
# Poissons Ratio (y) = 0.39972 0.02721
# Poissons Ratio (z) = 0.11900 0.01046
#
# Static dielectric constant tensor:
#      x y z
#    x 1.846010 0.000000 0.000000 
#    y 0.000000 1.836320 0.000000 
#    z 0.000000 0.000000 1.876950 
# 
# From -- ./inp_files/3575.got.cif
#   From: 2010.05.17/outbox.cif.g08.bks.cpg/sg60_2_cif.got.tgz:3575.got - 2010.06.03 14:59:27.
