data_PCOD9457921
_publ_section_title
;
Structure prediction by ZEFSAII (Michael W. Deem and Ramdas Pophale) SiO2 
 PCOD9457921
Probable space group: P B C N
;
_chemical_formula_sum "Si O2"
_cell_formula_units_Z 32
_cell_length_a 8.408679
_cell_length_b 19.098770
_cell_length_c 7.653289
_cell_angle_alpha 90.000000
_cell_angle_beta 90.000000
_cell_angle_gamma 90.000000
_cell_volume 1229.083209
_symmetry_space_group_name_H-M "P B C N"
_symmetry_group_IT_number 60
_symmetry_cell_setting 'orthorhombic'
loop_
_space_group_symop_operation_xyz
x,y,z
1/2-x,1/2-y,1/2+z
1/2+x,1/2-y,-z
-x,y,1/2-z
-x,-y,-z
1/2+x,1/2+y,1/2-z
1/2-x,1/2+y,z
x,-y,1/2+z
loop_
_atom_site_type_symbol
_atom_site_label
_atom_site_fract_x
_atom_site_fract_y
_atom_site_fract_z
Si Si1 0.439323 0.795000 0.956800
Si Si2 0.915213 0.157246 0.945526
Si Si3 0.338522 0.515118 0.651451
Si Si4 0.615227 0.065404 0.549421
O O1 0.500000 0.796024 0.750000
O O2 0.474437 0.717057 0.027350
O O3 0.538170 0.859389 0.037040
O O4 0.258296 0.810098 0.011932
O O5 0.880637 0.076058 0.988051
O O6 0.000000 0.151420 0.750000
O O7 0.500000 0.504731 0.750000
O O8 0.261648 0.444245 0.583300
O O9 0.201225 0.550539 0.768931
O O10 0.500000 0.000000 0.500000
#
# Coordination Sequence:
#
# PCOD9457921 Si02
#       4
#     8   8   8   8
#     4  11  25  46  74 110 151 199 259 314 384 471
#     4  10  25  47  74 107 151 200 252 316 389 454
#     4  11  25  46  72 106 153 196 252 321 385 458
#     4  12  24  44  76 108 146 200 254 317 391 461
#
# _framework density 26.035664000000001
#
# number of rings (size 3 to 8) (size 9 to 14) (size 15 to 20)
#    0.000    1.000    2.500    3.000   10.500    0.000 
#    0.000    0.000    0.000    0.000    0.000    0.000 
#    0.000    0.000    0.000    0.000    0.000    0.000 
#
# Total GULP energy -178533.567131 kJ/mol
# GULP energy per Si atom -5579.173973 kJ/mol
# Density = 2.597641 g / cm^3
# Si number density = 26.035664 Si / 1000 Ang^3
#
#
#
# Elastic Constant Matrix: (Units=GPa)
#
#
# Indices 1 2 3 4 5 6 
#
# 1 147.0866 39.2904 33.3351 0.0000 0.0000 0.0000
# 2 39.2904 117.7736 27.7675 0.0000 0.0000 0.0000
# 3 33.3351 27.7675 81.1022 0.0000 0.0000 0.0000
# 4 0.0000 0.0000 0.0000 20.3179 0.0000 0.0000
# 5 0.0000 0.0000 0.0000 0.0000 58.0687 0.0000
# 6 0.0000 0.0000 0.0000 0.0000 0.0000 0.4857
#
#
#
# Elastic Compliance Matrix: (Units=1/GPa)
#
#
# Indices 1 2 3 4 5 6 
#
# 1 0.007923 -0.002040 -0.002558 0.000000 0.000000 0.000000
# 2 -0.002040 0.009762 -0.002504 0.000000 0.000000 0.000000
# 3 -0.002558 -0.002504 0.014239 0.000000 0.000000 0.000000
# 4 0.000000 0.000000 0.000000 0.049218 0.000000 0.000000
# 5 0.000000 0.000000 0.000000 0.000000 0.017221 0.000000
# 6 0.000000 0.000000 0.000000 0.000000 0.000000 2.058906
#
#
# Mechanical properties :
#
#
# Convention : Reuss Voigt Hill
#
# Bulk Modulus (GPa) = 56.43361 60.74981 58.59171
# Shear Modulus (GPa) = 2.29634 32.14575 17.22104
#
# Velocity S-wave (km/s) = 0.94017 3.51762 2.57464
# Velocity P-wave (km/s) = 4.78551 6.31523 5.60282
#
# Compressibility (1/GPa) = 0.01771994
#
# Stress axis : x y z
#
# Youngs Moduli (GPa) = 126.20698 102.44038 70.23062
#
# Poissons Ratio (x) = 0.20900 0.17967
# Poissons Ratio (y) = 0.25749 0.17583
# Poissons Ratio (z) = 0.32287 0.25647
#
# Static dielectric constant tensor:
#      x y z
#    x 2.070200 0.000000 0.000000 
#    y 0.000000 2.020630 0.000000 
#    z 0.000000 0.000000 2.172440 
# 
# From -- ./inp_files/3586.got.cif
#   From: 2010.05.17/outbox.cif.g08.bks.cpg/sg60_2_cif.got.tgz:3586.got - 2010.06.03 14:59:27.
