data_PCOD9457237
_publ_section_title
;
Structure prediction by ZEFSAII (Michael W. Deem and Ramdas Pophale) SiO2 
 PCOD9457237
Probable space group: P B C N
;
_chemical_formula_sum "Si O2"
_cell_formula_units_Z 32
_cell_length_a 4.926139
_cell_length_b 27.306053
_cell_length_c 8.932485
_cell_angle_alpha 90.000000
_cell_angle_beta 90.000000
_cell_angle_gamma 90.000000
_cell_volume 1201.539041
_symmetry_space_group_name_H-M "P B C N"
_symmetry_group_IT_number 60
_symmetry_cell_setting 'orthorhombic'
loop_
_space_group_symop_operation_xyz
x,y,z
1/2-x,1/2-y,1/2+z
1/2+x,1/2-y,-z
-x,y,1/2-z
-x,-y,-z
1/2+x,1/2+y,1/2-z
1/2-x,1/2+y,z
x,-y,1/2+z
loop_
_atom_site_type_symbol
_atom_site_label
_atom_site_fract_x
_atom_site_fract_y
_atom_site_fract_z
Si Si1 0.500000 0.812918 0.750000
Si Si2 0.000000 0.889628 0.250000
Si Si3 0.961548 0.346091 0.064869
Si Si4 0.777394 0.944798 0.461139
Si Si5 0.500000 0.756447 0.250000
Si Si6 0.500000 0.023603 0.250000
O O1 0.420649 0.846135 0.610260
O O2 0.248356 0.778500 0.787260
O O3 0.814642 0.850864 0.154585
O O4 0.066325 0.933657 0.385818
O O5 0.069776 0.293118 0.113890
O O6 0.162223 0.392054 0.104273
O O7 0.705387 0.948403 0.635164
O O8 0.662647 0.990066 0.368227
#
# Coordination Sequence:
#
# PCOD9457237 Si02
#       6
#     4   4   8   8   4   4
#     4  12  30  44  76 117 150 201 258 326 375 467
#     4  12  23  44  80 104 146 212 250 310 396 465
#     4  12  25  48  72 107 153 200 252 315 397 458
#     4  11  23  45  72 103 149 199 246 325 380 470
#     4  12  25  48  76 110 152 201 257 320 381 462
#     4  10  22  46  68 109 150 190 263 318 386 462
#
# _framework density 26.63251
#
# number of rings (size 3 to 8) (size 9 to 14) (size 15 to 20)
#    0.000    0.500    5.000    3.000    3.500    1.000 
#    0.000    0.000    0.000    0.000    0.000    0.000 
#    0.000    0.000    0.000    0.000    0.000    0.000 
#
# Total GULP energy -178354.679277 kJ/mol
# GULP energy per Si atom -5573.583727 kJ/mol
# Density = 2.657189 g / cm^3
# Si number density = 26.632510 Si / 1000 Ang^3
#
#
#
# Elastic Constant Matrix: (Units=GPa)
#
#
# Indices 1 2 3 4 5 6 
#
# 1 62.4331 16.1583 8.1103 0.0000 0.0000 0.0000
# 2 16.1583 76.7767 41.8231 0.0000 0.0000 0.0000
# 3 8.1103 41.8231 253.3144 0.0000 0.0000 0.0000
# 4 0.0000 0.0000 0.0000 64.7605 0.0000 0.0000
# 5 0.0000 0.0000 0.0000 0.0000 31.8226 0.0000
# 6 0.0000 0.0000 0.0000 0.0000 0.0000 47.2330
#
#
#
# Elastic Compliance Matrix: (Units=1/GPa)
#
#
# Indices 1 2 3 4 5 6 
#
# 1 0.016940 -0.003593 0.000051 0.000000 0.000000 0.000000
# 2 -0.003593 0.015074 -0.002374 0.000000 0.000000 0.000000
# 3 0.000051 -0.002374 0.004338 0.000000 0.000000 0.000000
# 4 0.000000 0.000000 0.000000 0.015442 0.000000 0.000000
# 5 0.000000 0.000000 0.000000 0.000000 0.031424 0.000000
# 6 0.000000 0.000000 0.000000 0.000000 0.000000 0.021172
#
#
# Mechanical properties :
#
#
# Convention : Reuss Voigt Hill
#
# Bulk Modulus (GPa) = 40.78188 58.30084 49.54136
# Shear Modulus (GPa) = 40.19453 50.52539 45.35996
#
# Velocity S-wave (km/s) = 3.88909 4.36033 4.13144
# Velocity P-wave (km/s) = 5.95926 6.87666 6.43433
#
# Compressibility (1/GPa) = 0.02452069
#
# Stress axis : x y z
#
# Youngs Moduli (GPa) = 59.03039 66.33933 230.52370
#
# Poissons Ratio (x) = 0.23835 -0.01172
# Poissons Ratio (y) = 0.21209 0.54720
# Poissons Ratio (z) = -0.00300 0.15747
#
# Static dielectric constant tensor:
#      x y z
#    x 1.368520 0.000000 0.000000 
#    y 0.000000 2.114830 0.000000 
#    z 0.000000 0.000000 2.048410 
# 
# From -- ./inp_files/3087.got.cif
#   From: 2010.05.17/outbox.cif.g08.bks.cpg/sg60_2_cif.got.tgz:3087.got - 2010.06.03 14:59:27.
