data_PCOD9457099
_publ_section_title
;
Structure prediction by ZEFSAII (Michael W. Deem and Ramdas Pophale) SiO2 
 PCOD9457099
Probable space group: P B C N
;
_chemical_formula_sum "Si O2"
_cell_formula_units_Z 48
_cell_length_a 15.771159
_cell_length_b 9.522849
_cell_length_c 16.551474
_cell_angle_alpha 90.000000
_cell_angle_beta 90.000000
_cell_angle_gamma 90.000000
_cell_volume 2485.805727
_symmetry_space_group_name_H-M "P B C N"
_symmetry_group_IT_number 60
_symmetry_cell_setting 'orthorhombic'
loop_
_space_group_symop_operation_xyz
x,y,z
1/2-x,1/2-y,1/2+z
1/2+x,1/2-y,-z
-x,y,1/2-z
-x,-y,-z
1/2+x,1/2+y,1/2-z
1/2-x,1/2+y,z
x,-y,1/2+z
loop_
_atom_site_type_symbol
_atom_site_label
_atom_site_fract_x
_atom_site_fract_y
_atom_site_fract_z
Si Si1 0.910374 0.031627 0.706010
Si Si2 0.253016 0.587062 0.682066
Si Si3 0.167436 0.220798 0.924297
Si Si4 0.909256 0.473708 0.039472
Si Si5 0.345528 0.781507 0.325343
Si Si6 0.230434 0.662126 0.071704
O O1 0.838830 0.086505 0.767304
O O2 0.898229 0.128389 0.627050
O O3 0.000000 0.040356 0.750000
O O4 0.886427 0.870959 0.685316
O O5 0.179849 0.648476 0.739862
O O6 0.265660 0.678945 0.601948
O O7 0.236101 0.430475 0.652047
O O8 0.133449 0.376221 0.941488
O O9 0.256166 0.231818 0.874377
O O10 0.192719 0.145990 0.008295
O O11 0.905334 0.382547 0.121517
O O12 0.852522 0.387097 0.975669
O O13 0.000000 0.500000 0.000000
#
# Coordination Sequence:
#
# PCOD9457099 Si02
#       6
#     8   8   8   8   8   8
#     4  11  25  41  62  95 128 166 207 267 322 364
#     4  11  22  40  66  96 121 167 221 254 308 390
#     4  10  22  43  65  90 125 169 214 254 314 385
#     4  11  25  41  62  97 129 166 208 269 328 368
#     4  10  22  43  67  86 127 173 213 254 313 389
#     4  11  22  40  68  92 126 166 217 259 307 393
#
# _framework density 19.309633999999999
#
# number of rings (size 3 to 8) (size 9 to 14) (size 15 to 20)
#    0.000    1.333    3.333    3.000    7.000    2.667 
#    0.000    2.500    0.000    0.000    0.000    0.000 
#    0.000    0.000    0.000    0.000    0.000    0.000 
#
# Total GULP energy -268051.721460 kJ/mol
# GULP energy per Si atom -5584.410864 kJ/mol
# Density = 1.926568 g / cm^3
# Si number density = 19.309634 Si / 1000 Ang^3
#
#
#
# Elastic Constant Matrix: (Units=GPa)
#
#
# Indices 1 2 3 4 5 6 
#
# 1 80.7509 31.6660 38.0505 0.0000 0.0000 0.0000
# 2 31.6660 62.8686 27.9910 0.0000 0.0000 0.0000
# 3 38.0505 27.9910 89.8711 0.0000 0.0000 0.0000
# 4 0.0000 0.0000 0.0000 50.4311 0.0000 0.0000
# 5 0.0000 0.0000 0.0000 0.0000 21.3962 0.0000
# 6 0.0000 0.0000 0.0000 0.0000 0.0000 17.9269
#
#
#
# Elastic Compliance Matrix: (Units=1/GPa)
#
#
# Indices 1 2 3 4 5 6 
#
# 1 0.017425 -0.006376 -0.005392 0.000000 0.000000 0.000000
# 2 -0.006376 0.020800 -0.003779 0.000000 0.000000 0.000000
# 3 -0.005392 -0.003779 0.014587 0.000000 0.000000 0.000000
# 4 0.000000 0.000000 0.000000 0.019829 0.000000 0.000000
# 5 0.000000 0.000000 0.000000 0.000000 0.046737 0.000000
# 6 0.000000 0.000000 0.000000 0.000000 0.000000 0.055782
#
#
# Mechanical properties :
#
#
# Convention : Reuss Voigt Hill
#
# Bulk Modulus (GPa) = 46.04327 47.65616 46.84971
# Shear Modulus (GPa) = 23.42005 27.00305 25.21155
#
# Velocity S-wave (km/s) = 3.48640 3.74361 3.61729
# Velocity P-wave (km/s) = 6.33271 6.58936 6.46231
#
# Compressibility (1/GPa) = 0.02171870
#
# Stress axis : x y z
#
# Youngs Moduli (GPa) = 57.39002 48.07654 68.55551
#
# Poissons Ratio (x) = 0.30654 0.36962
# Poissons Ratio (y) = 0.36592 0.25906
# Poissons Ratio (z) = 0.30942 0.18167
#
# Static dielectric constant tensor:
#      x y z
#    x 1.640990 0.000000 0.000000 
#    y 0.000000 1.641070 0.000000 
#    z 0.000000 0.000000 1.703960 
# 
# From -- ./inp_files/20468.got.cif
#   From: 2010.05.17/outbox.cif.g08.bks.cpg/sg60_11_cif.got.tgz:20468.got - 2010.06.03 14:59:27.
