data_PCOD9457895
_publ_section_title
;
Structure prediction by ZEFSAII (Michael W. Deem and Ramdas Pophale) SiO2 
 PCOD9457895
Probable space group: P B C N
;
_chemical_formula_sum "Si O2"
_cell_formula_units_Z 20
_cell_length_a 11.280653
_cell_length_b 14.972575
_cell_length_c 5.063955
_cell_angle_alpha 90.000000
_cell_angle_beta 90.000000
_cell_angle_gamma 90.000000
_cell_volume 855.304142
_symmetry_space_group_name_H-M "P B C N"
_symmetry_group_IT_number 60
_symmetry_cell_setting 'orthorhombic'
loop_
_space_group_symop_operation_xyz
x,y,z
1/2-x,1/2-y,1/2+z
1/2+x,1/2-y,-z
-x,y,1/2-z
-x,-y,-z
1/2+x,1/2+y,1/2-z
1/2-x,1/2+y,z
x,-y,1/2+z
loop_
_atom_site_type_symbol
_atom_site_label
_atom_site_fract_x
_atom_site_fract_y
_atom_site_fract_z
Si Si1 0.342716 0.557374 0.961170
Si Si2 0.922651 0.373248 0.011753
Si Si3 0.500000 0.300474 0.750000
O O1 0.364155 0.475698 0.164544
O O2 0.206127 0.584997 0.999863
O O3 0.423624 0.638494 0.056627
O O4 0.000000 0.379145 0.750000
O O5 0.915390 0.268237 0.091608
O O6 0.000000 0.414436 0.250000
#
# Coordination Sequence:
#
# PCOD9457895 Si02
#       3
#     8   8   4
#     4  12  27  44  71 104 143 178 232 298 355 406
#     4  10  25  43  73  98 138 187 241 280 349 424
#     4  10  28  44  74  98 144 188 242 276 354 426
#
# _framework density 23.383493999999999
#
# number of rings (size 3 to 8) (size 9 to 14) (size 15 to 20)
#    1.200    0.000    0.000    3.600   11.200    4.800 
#    0.000    0.000    0.000    0.000    0.000    0.000 
#    0.000    0.000    0.000    0.000    0.000    0.000 
#
# Total GULP energy -112081.666710 kJ/mol
# GULP energy per Si atom -5604.083335 kJ/mol
# Density = 2.333027 g / cm^3
# Si number density = 23.383494 Si / 1000 Ang^3
#
#
#
# Elastic Constant Matrix: (Units=GPa)
#
#
# Indices 1 2 3 4 5 6 
#
# 1 110.7361 37.4879 20.6788 0.0000 0.0000 0.0000
# 2 37.4879 112.8135 15.5526 0.0000 0.0000 0.0000
# 3 20.6788 15.5526 122.4730 0.0000 0.0000 0.0000
# 4 0.0000 0.0000 0.0000 110.9228 0.0000 0.0000
# 5 0.0000 0.0000 0.0000 0.0000 36.2303 0.0000
# 6 0.0000 0.0000 0.0000 0.0000 0.0000 42.2398
#
#
#
# Elastic Compliance Matrix: (Units=1/GPa)
#
#
# Indices 1 2 3 4 5 6 
#
# 1 0.010386 -0.003267 -0.001339 0.000000 0.000000 0.000000
# 2 -0.003267 0.010050 -0.000725 0.000000 0.000000 0.000000
# 3 -0.001339 -0.000725 0.008483 0.000000 0.000000 0.000000
# 4 0.000000 0.000000 0.000000 0.009015 0.000000 0.000000
# 5 0.000000 0.000000 0.000000 0.000000 0.027601 0.000000
# 6 0.000000 0.000000 0.000000 0.000000 0.000000 0.023674
#
#
# Mechanical properties :
#
#
# Convention : Reuss Voigt Hill
#
# Bulk Modulus (GPa) = 54.76845 54.82898 54.79872
# Shear Modulus (GPa) = 47.18903 56.03213 51.61058
#
# Velocity S-wave (km/s) = 4.49714 4.90044 4.70311
# Velocity P-wave (km/s) = 7.10200 7.45102 7.27860
#
# Compressibility (1/GPa) = 0.01825869
#
# Stress axis : x y z
#
# Youngs Moduli (GPa) = 96.27951 99.50594 117.88095
#
# Poissons Ratio (x) = 0.32507 0.15782
# Poissons Ratio (y) = 0.31453 0.08542
# Poissons Ratio (z) = 0.12890 0.07210
#
# Static dielectric constant tensor:
#      x y z
#    x 1.804070 0.000000 0.000000 
#    y 0.000000 1.900180 0.000000 
#    z 0.000000 0.000000 1.910800 
# 
# From -- ./inp_files/139.got.cif
#   From: 2010.05.17/outbox.cif.g08.bks.cpg/sg60_1_cif.got.tgz:139.got - 2010.06.03 14:59:27.
