data_PCOD9457075
_publ_section_title
;
Structure prediction by ZEFSAII (Michael W. Deem and Ramdas Pophale) SiO2 
 PCOD9457075
Probable space group: P B C N
;
_chemical_formula_sum "Si O2"
_cell_formula_units_Z 40
_cell_length_a 22.158845
_cell_length_b 8.204371
_cell_length_c 9.617735
_cell_angle_alpha 90.000000
_cell_angle_beta 90.000000
_cell_angle_gamma 90.000000
_cell_volume 1748.498311
_symmetry_space_group_name_H-M "P B C N"
_symmetry_group_IT_number 60
_symmetry_cell_setting 'orthorhombic'
loop_
_space_group_symop_operation_xyz
x,y,z
1/2-x,1/2-y,1/2+z
1/2+x,1/2-y,-z
-x,y,1/2-z
-x,-y,-z
1/2+x,1/2+y,1/2-z
1/2-x,1/2+y,z
x,-y,1/2+z
loop_
_atom_site_type_symbol
_atom_site_label
_atom_site_fract_x
_atom_site_fract_y
_atom_site_fract_z
Si Si1 0.632903 0.337349 0.367517
Si Si2 0.501106 0.333367 0.411924
Si Si3 0.807176 0.831652 0.880512
Si Si4 0.379246 0.863940 0.908463
Si Si5 0.294916 0.831947 0.403861
O O1 0.569188 0.273721 0.427665
O O2 0.644752 0.527962 0.341395
O O3 0.639829 0.246683 0.222266
O O4 0.678331 0.295465 0.488369
O O5 0.500000 0.383339 0.250000
O O6 0.500000 0.500000 0.500000
O O7 0.449305 0.195447 0.431315
O O8 0.778142 0.756704 0.740659
O O9 0.844784 0.690092 0.953629
O O10 0.760749 0.893626 0.000270
O O11 0.348838 0.038466 0.876463
#
# Coordination Sequence:
#
# PCOD9457075 Si02
#       5
#     8   8   8   8   8
#     4  11  24  44  71 100 139 191 236 288 364 438
#     4  10  22  42  72 101 138 182 240 289 352 439
#     4  12  25  45  71 100 144 193 240 293 363 441
#     4  11  24  44  68 104 144 183 240 302 356 423
#     4  12  27  44  70 105 145 188 239 307 360 423
#
# _framework density 22.876773
#
# number of rings (size 3 to 8) (size 9 to 14) (size 15 to 20)
#    0.000    0.800    2.000    4.800    2.800    5.600 
#    0.000    4.000    0.000    0.000    0.000    0.000 
#    0.000    0.000    0.000    0.000    0.000    0.000 
#
# Total GULP energy -222956.497842 kJ/mol
# GULP energy per Si atom -5573.912446 kJ/mol
# Density = 2.282470 g / cm^3
# Si number density = 22.876773 Si / 1000 Ang^3
#
#
#
# Elastic Constant Matrix: (Units=GPa)
#
#
# Indices 1 2 3 4 5 6 
#
# 1 143.5507 20.0032 19.4897 0.0000 0.0000 0.0000
# 2 20.0032 50.7936 -5.8946 0.0000 0.0000 0.0000
# 3 19.4897 -5.8946 81.6798 0.0000 0.0000 0.0000
# 4 0.0000 0.0000 0.0000 34.0714 0.0000 0.0000
# 5 0.0000 0.0000 0.0000 0.0000 -3.2728 0.0000
# 6 0.0000 0.0000 0.0000 0.0000 0.0000 21.1589
#
#
#
# Elastic Compliance Matrix: (Units=1/GPa)
#
#
# Indices 1 2 3 4 5 6 
#
# 1 0.007704 -0.003275 -0.002075 0.000000 0.000000 0.000000
# 2 -0.003275 0.021246 0.002315 0.000000 0.000000 0.000000
# 3 -0.002075 0.002315 0.012905 0.000000 0.000000 0.000000
# 4 0.000000 0.000000 0.000000 0.029350 0.000000 0.000000
# 5 0.000000 0.000000 0.000000 0.000000 -0.305553 0.000000
# 6 0.000000 0.000000 0.000000 0.000000 0.000000 0.047261
#
#
# Mechanical properties :
#
#
# Convention : Reuss Voigt Hill
#
# Bulk Modulus (GPa) = 27.94431 38.13564 33.03997
# Shear Modulus (GPa) = -29.57026 26.55322 -1.50852
#
# Velocity S-wave (km/s) = -3.59916 3.41061 -0.81292
# Velocity P-wave (km/s) = 2.24283 5.67590 3.68684
#
# Compressibility (1/GPa) = 0.03578546
#
# Stress axis : x y z
#
# Youngs Moduli (GPa) = 129.79965 47.06812 77.48931
#
# Poissons Ratio (x) = 0.15414 0.16076
# Poissons Ratio (y) = 0.42506 -0.17936
# Poissons Ratio (z) = 0.26929 -0.10895
#
# Static dielectric constant tensor:
#      x y z
#    x 2.096210 0.000000 0.000000 
#    y 0.000000 1.876640 0.000000 
#    z 0.000000 0.000000 2.059000 
# 
# From -- ./inp_files/7740.got.cif
#   From: 2010.05.17/outbox.cif.g08.bks.cpg/sg60_4_cif.got.tgz:7740.got - 2010.06.03 14:59:27.
