data_PCOD9457538
_publ_section_title
;
Structure prediction by ZEFSAII (Michael W. Deem and Ramdas Pophale) SiO2 
 PCOD9457538
Probable space group: P B C N
;
_chemical_formula_sum "Si O2"
_cell_formula_units_Z 28
_cell_length_a 5.167574
_cell_length_b 19.856460
_cell_length_c 10.326034
_cell_angle_alpha 90.000000
_cell_angle_beta 90.000000
_cell_angle_gamma 90.000000
_cell_volume 1059.551524
_symmetry_space_group_name_H-M "P B C N"
_symmetry_group_IT_number 60
_symmetry_cell_setting 'orthorhombic'
loop_
_space_group_symop_operation_xyz
x,y,z
1/2-x,1/2-y,1/2+z
1/2+x,1/2-y,-z
-x,y,1/2-z
-x,-y,-z
1/2+x,1/2+y,1/2-z
1/2-x,1/2+y,z
x,-y,1/2+z
loop_
_atom_site_type_symbol
_atom_site_label
_atom_site_fract_x
_atom_site_fract_y
_atom_site_fract_z
Si Si1 0.778762 0.832460 0.934705
Si Si2 0.500000 0.416643 0.250000
Si Si3 0.281113 0.812685 0.114467
Si Si4 0.176564 0.483075 0.623733
O O1 0.772449 0.765693 0.846087
O O2 0.760170 0.905377 0.871368
O O3 0.530134 0.826094 0.027602
O O4 0.037213 0.826380 0.019815
O O5 0.731799 0.363413 0.267785
O O6 0.572706 0.468416 0.364603
O O7 0.000000 0.496934 0.750000
O O8 0.000000 0.500000 0.500000
#
# Coordination Sequence:
#
# PCOD9457538 Si02
#       4
#     8   4   8   8
#     4  10  23  46  70 106 147 197 259 312 380 459
#     4  12  26  42  76 106 156 200 256 318 398 456
#     4  10  23  44  73 103 149 199 252 320 378 455
#     4  12  27  46  74 110 153 198 253 319 388 464
#
# _framework density 26.426272000000001
#
# number of rings (size 3 to 8) (size 9 to 14) (size 15 to 20)
#    0.000    1.143    2.857    1.714    6.000    2.286 
#    0.000    0.000    0.000    0.000    0.000    0.000 
#    0.000    0.000    0.000    0.000    0.000    0.000 
#
# Total GULP energy -156791.467444 kJ/mol
# GULP energy per Si atom -5599.695266 kJ/mol
# Density = 2.636613 g / cm^3
# Si number density = 26.426272 Si / 1000 Ang^3
#
#
#
# Elastic Constant Matrix: (Units=GPa)
#
#
# Indices 1 2 3 4 5 6 
#
# 1 187.6664 35.9943 54.5771 0.0000 0.0000 0.0000
# 2 35.9943 295.6347 55.8508 0.0000 0.0000 0.0000
# 3 54.5771 55.8508 118.3645 0.0000 0.0000 0.0000
# 4 0.0000 0.0000 0.0000 28.1879 0.0000 0.0000
# 5 0.0000 0.0000 0.0000 0.0000 51.3675 0.0000
# 6 0.0000 0.0000 0.0000 0.0000 0.0000 18.8578
#
#
#
# Elastic Compliance Matrix: (Units=1/GPa)
#
#
# Indices 1 2 3 4 5 6 
#
# 1 0.006169 -0.000235 -0.002734 0.000000 0.000000 0.000000
# 2 -0.000235 0.003723 -0.001648 0.000000 0.000000 0.000000
# 3 -0.002734 -0.001648 0.010487 0.000000 0.000000 0.000000
# 4 0.000000 0.000000 0.000000 0.035476 0.000000 0.000000
# 5 0.000000 0.000000 0.000000 0.000000 0.019468 0.000000
# 6 0.000000 0.000000 0.000000 0.000000 0.000000 0.053029
#
#
# Mechanical properties :
#
#
# Convention : Reuss Voigt Hill
#
# Bulk Modulus (GPa) = 89.72828 99.38998 94.55913
# Shear Modulus (GPa) = 35.38622 50.03221 42.70921
#
# Velocity S-wave (km/s) = 3.66328 4.35590 4.02452
# Velocity P-wave (km/s) = 7.20560 7.93665 7.57995
#
# Compressibility (1/GPa) = 0.01114476
#
# Stress axis : x y z
#
# Youngs Moduli (GPa) = 162.11169 268.63575 95.35909
#
# Poissons Ratio (x) = 0.06303 0.26067
# Poissons Ratio (y) = 0.03803 0.15718
# Poissons Ratio (z) = 0.44315 0.44279
#
# Static dielectric constant tensor:
#      x y z
#    x 2.085730 0.000000 0.000000 
#    y 0.000000 2.071090 0.000000 
#    z 0.000000 0.000000 2.169140 
# 
# From -- ./inp_files/8784.got.cif
#   From: 2010.05.17/outbox.cif.g08.bks.cpg/sg60_5_cif.got.tgz:8784.got - 2010.06.03 14:59:27.
