data_PCOD9457235
_publ_section_title
;
Structure prediction by ZEFSAII (Michael W. Deem and Ramdas Pophale) SiO2 
 PCOD9457235
Probable space group: P B C N
;
_chemical_formula_sum "Si O2"
_cell_formula_units_Z 28
_cell_length_a 9.189371
_cell_length_b 9.683514
_cell_length_c 14.300071
_cell_angle_alpha 90.000000
_cell_angle_beta 90.000000
_cell_angle_gamma 90.000000
_cell_volume 1272.497577
_symmetry_space_group_name_H-M "P B C N"
_symmetry_group_IT_number 60
_symmetry_cell_setting 'orthorhombic'
loop_
_space_group_symop_operation_xyz
x,y,z
1/2-x,1/2-y,1/2+z
1/2+x,1/2-y,-z
-x,y,1/2-z
-x,-y,-z
1/2+x,1/2+y,1/2-z
1/2-x,1/2+y,z
x,-y,1/2+z
loop_
_atom_site_type_symbol
_atom_site_label
_atom_site_fract_x
_atom_site_fract_y
_atom_site_fract_z
Si Si1 0.500000 0.719937 0.750000
Si Si2 0.342145 0.444240 0.730591
Si Si3 0.669028 0.444261 0.987207
Si Si4 0.652491 0.162053 0.099084
O O1 0.367370 0.608327 0.749729
O O2 0.498855 0.805776 0.846502
O O3 0.500000 0.379717 0.750000
O O4 0.309046 0.426418 0.622666
O O5 0.240224 0.378885 0.807376
O O6 0.682518 0.302552 0.043795
O O7 0.794065 0.544455 0.028137
O O8 0.500000 0.500000 0.000000
#
# Coordination Sequence:
#
# PCOD9457235 Si02
#       4
#     4   8   8   8
#     4  10  22  46  68 102 150 186 238 310 360 430
#     4  10  22  46  74  98 155 188 235 314 363 428
#     4  12  24  45  74 108 150 198 242 307 373 443
#     4  12  24  45  77 106 148 197 242 306 378 431
#
# _framework density 22.003972000000001
#
# number of rings (size 3 to 8) (size 9 to 14) (size 15 to 20)
#    0.857    0.000    8.571    0.000    4.000    0.000 
#    2.571    5.714    0.000    0.000    0.000    0.000 
#    0.000    0.000    0.000    0.000    0.000    0.000 
#
# Total GULP energy -155889.676307 kJ/mol
# GULP energy per Si atom -5567.488440 kJ/mol
# Density = 2.195389 g / cm^3
# Si number density = 22.003972 Si / 1000 Ang^3
#
#
#
# Elastic Constant Matrix: (Units=GPa)
#
#
# Indices 1 2 3 4 5 6 
#
# 1 35.6385 31.7954 29.3330 0.0000 0.0000 0.0000
# 2 31.7954 88.9764 71.2322 0.0000 0.0000 0.0000
# 3 29.3330 71.2322 243.6183 0.0000 0.0000 0.0000
# 4 0.0000 0.0000 0.0000 40.8052 0.0000 0.0000
# 5 0.0000 0.0000 0.0000 0.0000 49.0499 0.0000
# 6 0.0000 0.0000 0.0000 0.0000 0.0000 46.1039
#
#
#
# Elastic Compliance Matrix: (Units=1/GPa)
#
#
# Indices 1 2 3 4 5 6 
#
# 1 0.041329 -0.014081 -0.000859 0.000000 0.000000 0.000000
# 2 -0.014081 0.019471 -0.003998 0.000000 0.000000 0.000000
# 3 -0.000859 -0.003998 0.005377 0.000000 0.000000 0.000000
# 4 0.000000 0.000000 0.000000 0.024507 0.000000 0.000000
# 5 0.000000 0.000000 0.000000 0.000000 0.020387 0.000000
# 6 0.000000 0.000000 0.000000 0.000000 0.000000 0.021690
#
#
# Mechanical properties :
#
#
# Convention : Reuss Voigt Hill
#
# Bulk Modulus (GPa) = 35.33353 70.32829 52.83091
# Shear Modulus (GPa) = 27.76667 42.91665 35.34166
#
# Velocity S-wave (km/s) = 3.55617 4.42113 4.01203
# Velocity P-wave (km/s) = 5.74059 7.62187 6.74712
#
# Compressibility (1/GPa) = 0.02830173
#
# Stress axis : x y z
#
# Youngs Moduli (GPa) = 24.19591 51.35753 185.97205
#
# Poissons Ratio (x) = 0.72317 0.15976
# Poissons Ratio (y) = 0.34071 0.74348
# Poissons Ratio (z) = 0.02079 0.20532
#
# Static dielectric constant tensor:
#      x y z
#    x 2.045760 0.000000 0.000000 
#    y 0.000000 1.845770 0.000000 
#    z 0.000000 0.000000 1.810420 
# 
# From -- ./inp_files/15527.got.cif
#   From: 2010.05.17/outbox.cif.g08.bks.cpg/sg60_8_cif.got.tgz:15527.got - 2010.06.03 14:59:27.
