data_PCOD9457024
_publ_section_title
;
Structure prediction by ZEFSAII (Michael W. Deem and Ramdas Pophale) SiO2 
 PCOD9457024
Probable space group: P B C N
;
_chemical_formula_sum "Si O2"
_cell_formula_units_Z 40
_cell_length_a 7.831173
_cell_length_b 24.592917
_cell_length_c 9.552504
_cell_angle_alpha 90.000000
_cell_angle_beta 90.000000
_cell_angle_gamma 90.000000
_cell_volume 1839.730000
_symmetry_space_group_name_H-M "P B C N"
_symmetry_group_IT_number 60
_symmetry_cell_setting 'orthorhombic'
loop_
_space_group_symop_operation_xyz
x,y,z
1/2-x,1/2-y,1/2+z
1/2+x,1/2-y,-z
-x,y,1/2-z
-x,-y,-z
1/2+x,1/2+y,1/2-z
1/2-x,1/2+y,z
x,-y,1/2+z
loop_
_atom_site_type_symbol
_atom_site_label
_atom_site_fract_x
_atom_site_fract_y
_atom_site_fract_z
Si Si1 0.565923 0.401175 0.907683
Si Si2 0.827456 0.084055 0.840959
Si Si3 0.904907 0.218444 0.525606
Si Si4 0.117963 0.479333 0.626957
Si Si5 0.240482 0.294937 0.189001
O O1 0.500000 0.401697 0.750000
O O2 0.731721 0.439177 0.922181
O O3 0.405808 0.419481 0.003220
O O4 0.615406 0.340619 0.955839
O O5 0.725559 0.139871 0.816115
O O6 0.000000 0.086835 0.750000
O O7 0.714123 0.032032 0.810271
O O8 0.770209 0.224569 0.652771
O O9 0.893646 0.263322 0.405489
O O10 0.084370 0.217552 0.605368
O O11 0.000000 0.454856 0.750000
O O12 0.000000 0.500000 0.500000
#
# Coordination Sequence:
#
# PCOD9457024 Si02
#       5
#     8   8   8   8   8
#     4  11  23  43  67  94 126 177 221 258 319 395
#     4  11  21  45  70  88 127 178 220 253 315 405
#     4  10  23  41  65  94 129 164 215 261 318 383
#     4  12  26  42  64 100 132 161 214 279 331 371
#     4  10  22  42  65  97 124 168 213 262 317 383
#
# _framework density 21.742319999999999
#
# number of rings (size 3 to 8) (size 9 to 14) (size 15 to 20)
#    0.000    1.200    4.000    3.600    5.600    1.600 
#    3.600    0.000    0.000    0.000    0.000    0.000 
#    0.000    0.000    0.000    0.000    0.000    0.000 
#
# Total GULP energy -223747.395396 kJ/mol
# GULP energy per Si atom -5593.684885 kJ/mol
# Density = 2.169283 g / cm^3
# Si number density = 21.742320 Si / 1000 Ang^3
#
#
#
# Elastic Constant Matrix: (Units=GPa)
#
#
# Indices 1 2 3 4 5 6 
#
# 1 68.2985 32.4032 8.9848 0.0000 0.0000 0.0000
# 2 32.4032 57.9902 -16.0445 0.0000 0.0000 0.0000
# 3 8.9848 -16.0445 99.7934 0.0000 0.0000 0.0000
# 4 0.0000 0.0000 0.0000 21.7376 0.0000 0.0000
# 5 0.0000 0.0000 0.0000 0.0000 41.2483 0.0000
# 6 0.0000 0.0000 0.0000 0.0000 0.0000 21.4170
#
#
#
# Elastic Compliance Matrix: (Units=1/GPa)
#
#
# Indices 1 2 3 4 5 6 
#
# 1 0.021361 -0.013049 -0.004021 0.000000 0.000000 0.000000
# 2 -0.013049 0.026018 0.005358 0.000000 0.000000 0.000000
# 3 -0.004021 0.005358 0.011244 0.000000 0.000000 0.000000
# 4 0.000000 0.000000 0.000000 0.046003 0.000000 0.000000
# 5 0.000000 0.000000 0.000000 0.000000 0.024243 0.000000
# 6 0.000000 0.000000 0.000000 0.000000 0.000000 0.046692
#
#
# Mechanical properties :
#
#
# Convention : Reuss Voigt Hill
#
# Bulk Modulus (GPa) = 28.40943 30.75212 29.58078
# Shear Modulus (GPa) = 23.72829 30.26315 26.99572
#
# Velocity S-wave (km/s) = 3.30713 3.73487 3.52749
# Velocity P-wave (km/s) = 5.26095 5.72482 5.49778
#
# Compressibility (1/GPa) = 0.03519957
#
# Stress axis : x y z
#
# Youngs Moduli (GPa) = 46.81360 38.43510 88.93501
#
# Poissons Ratio (x) = 0.50153 0.35762
# Poissons Ratio (y) = 0.61085 -0.47650
# Poissons Ratio (z) = 0.18824 -0.20593
#
# Static dielectric constant tensor:
#      x y z
#    x 1.855680 0.000000 0.000000 
#    y 0.000000 1.763180 0.000000 
#    z 0.000000 0.000000 1.839520 
# 
# From -- ./inp_files/3882.got.cif
#   From: 2010.05.17/outbox.cif.g08.bks.cpg/sg60_2_cif.got.tgz:3882.got - 2010.06.03 14:59:27.
