data_PCOD9457581
_publ_section_title
;
Structure prediction by ZEFSAII (Michael W. Deem and Ramdas Pophale) SiO2 
 PCOD9457581
Probable space group: P B C N
;
_chemical_formula_sum "Si O2"
_cell_formula_units_Z 40
_cell_length_a 15.693621
_cell_length_b 12.879879
_cell_length_c 7.483790
_cell_angle_alpha 90.000000
_cell_angle_beta 90.000000
_cell_angle_gamma 90.000000
_cell_volume 1512.712988
_symmetry_space_group_name_H-M "P B C N"
_symmetry_group_IT_number 60
_symmetry_cell_setting 'orthorhombic'
loop_
_space_group_symop_operation_xyz
x,y,z
1/2-x,1/2-y,1/2+z
1/2+x,1/2-y,-z
-x,y,1/2-z
-x,-y,-z
1/2+x,1/2+y,1/2-z
1/2-x,1/2+y,z
x,-y,1/2+z
loop_
_atom_site_type_symbol
_atom_site_label
_atom_site_fract_x
_atom_site_fract_y
_atom_site_fract_z
Si Si1 0.582745 0.825673 0.873856
Si Si2 0.080287 0.095433 0.619722
Si Si3 0.868414 0.884519 0.732560
Si Si4 0.631566 0.147960 0.758825
Si Si5 0.807667 0.451550 0.611248
O O1 0.500000 0.833451 0.750000
O O2 0.620213 0.709553 0.847833
O O3 0.648465 0.904127 0.786668
O O4 0.566142 0.847622 0.086344
O O5 0.055300 0.107133 0.411891
O O6 0.000000 0.094963 0.750000
O O7 0.126632 0.985483 0.645513
O O8 0.859610 0.769139 0.806690
O O9 0.784973 0.901442 0.608412
O O10 0.633399 0.089846 0.949321
O O11 0.700280 0.074752 0.653273
#
# Coordination Sequence:
#
# PCOD9457581 Si02
#       5
#     8   8   8   8   8
#     4  10  25  48  71 101 144 187 235 293 348 420
#     4  10  23  46  70 102 141 180 232 291 353 420
#     4  11  26  41  72 102 138 180 232 288 355 418
#     4  11  26  45  67 105 135 186 236 282 358 413
#     4  12  25  44  71  99 146 180 237 291 351 418
#
# _framework density 26.442557999999998
#
# number of rings (size 3 to 8) (size 9 to 14) (size 15 to 20)
#    0.000    1.200    2.000    1.800   11.200    1.600 
#    0.000    0.000    0.000    0.000    0.000    0.000 
#    0.000    0.000    0.000    0.000    0.000    0.000 
#
# Total GULP energy -222883.949910 kJ/mol
# GULP energy per Si atom -5572.098748 kJ/mol
# Density = 2.638237 g / cm^3
# Si number density = 26.442558 Si / 1000 Ang^3
#
#
#
# Elastic Constant Matrix: (Units=GPa)
#
#
# Indices 1 2 3 4 5 6 
#
# 1 27.9364 20.0899 3.7931 0.0000 0.0000 0.0000
# 2 20.0899 209.6114 65.4500 0.0000 0.0000 0.0000
# 3 3.7931 65.4500 154.6011 0.0000 0.0000 0.0000
# 4 0.0000 0.0000 0.0000 48.6763 0.0000 0.0000
# 5 0.0000 0.0000 0.0000 0.0000 21.1040 0.0000
# 6 0.0000 0.0000 0.0000 0.0000 0.0000 25.2853
#
#
#
# Elastic Compliance Matrix: (Units=1/GPa)
#
#
# Indices 1 2 3 4 5 6 
#
# 1 0.038513 -0.003914 0.000712 0.000000 0.000000 0.000000
# 2 -0.003914 0.005895 -0.002400 0.000000 0.000000 0.000000
# 3 0.000712 -0.002400 0.007467 0.000000 0.000000 0.000000
# 4 0.000000 0.000000 0.000000 0.020544 0.000000 0.000000
# 5 0.000000 0.000000 0.000000 0.000000 0.047384 0.000000
# 6 0.000000 0.000000 0.000000 0.000000 0.000000 0.039549
#
#
# Mechanical properties :
#
#
# Convention : Reuss Voigt Hill
#
# Bulk Modulus (GPa) = 24.58664 63.42387 44.00526
# Shear Modulus (GPa) = 27.15737 39.20086 33.17912
#
# Velocity S-wave (km/s) = 3.20821 3.85449 3.54610
# Velocity P-wave (km/s) = 4.80019 6.62171 5.78312
#
# Compressibility (1/GPa) = 0.04067249
#
# Stress axis : x y z
#
# Youngs Moduli (GPa) = 25.96503 169.63232 133.92821
#
# Poissons Ratio (x) = 0.66386 -0.09534
# Poissons Ratio (y) = 0.10162 0.32138
# Poissons Ratio (z) = -0.01848 0.40706
#
# Static dielectric constant tensor:
#      x y z
#    x 2.013580 0.000000 0.000000 
#    y 0.000000 2.069160 0.000000 
#    z 0.000000 0.000000 2.186990 
# 
# From -- ./inp_files/6521.got.cif
#   From: 2010.05.17/outbox.cif.g08.bks.cpg/sg60_4_cif.got.tgz:6521.got - 2010.06.03 14:59:27.
