data_PCOD9457444
_publ_section_title
;
Structure prediction by ZEFSAII (Michael W. Deem and Ramdas Pophale) SiO2 
 PCOD9457444
Probable space group: P B C N
;
_chemical_formula_sum "Si O2"
_cell_formula_units_Z 40
_cell_length_a 11.427672
_cell_length_b 16.369333
_cell_length_c 9.451220
_cell_angle_alpha 90.000000
_cell_angle_beta 90.000000
_cell_angle_gamma 90.000000
_cell_volume 1767.977049
_symmetry_space_group_name_H-M "P B C N"
_symmetry_group_IT_number 60
_symmetry_cell_setting 'orthorhombic'
loop_
_space_group_symop_operation_xyz
x,y,z
1/2-x,1/2-y,1/2+z
1/2+x,1/2-y,-z
-x,y,1/2-z
-x,-y,-z
1/2+x,1/2+y,1/2-z
1/2-x,1/2+y,z
x,-y,1/2+z
loop_
_atom_site_type_symbol
_atom_site_label
_atom_site_fract_x
_atom_site_fract_y
_atom_site_fract_z
Si Si1 0.907995 0.406782 0.912621
Si Si2 0.765751 0.444756 0.374082
Si Si3 0.437267 0.434504 0.603088
Si Si4 0.828409 0.652732 0.124863
Si Si5 0.278254 0.660025 0.890574
O O1 0.888055 0.502558 0.871482
O O2 0.838578 0.357935 0.791302
O O3 0.037764 0.370490 0.919233
O O4 0.836627 0.386008 0.051548
O O5 0.672318 0.513777 0.340838
O O6 0.754586 0.411028 0.533274
O O7 0.729524 0.370969 0.271001
O O8 0.500000 0.406279 0.750000
O O9 0.500000 0.500000 0.500000
O O10 0.385973 0.369353 0.490347
O O11 0.781840 0.742937 0.097367
#
# Coordination Sequence:
#
# PCOD9457444 Si02
#       5
#     8   8   8   8   8
#     4  10  23  43  65  92 132 177 222 265 338 405
#     4  11  23  43  67  95 131 173 227 266 330 408
#     4  11  23  42  67  94 125 173 218 268 327 399
#     4  11  24  42  65  96 133 175 215 285 334 396
#     4  11  24  42  64 101 129 170 222 283 337 391
#
# _framework density 22.624728000000001
#
# number of rings (size 3 to 8) (size 9 to 14) (size 15 to 20)
#    0.000    1.200    2.000    4.200    2.800    7.200 
#    3.600    0.000    0.000    0.000    0.000    0.000 
#    0.000    0.000    0.000    0.000    0.000    0.000 
#
# Total GULP energy -222849.599989 kJ/mol
# GULP energy per Si atom -5571.240000 kJ/mol
# Density = 2.257323 g / cm^3
# Si number density = 22.624728 Si / 1000 Ang^3
#
#
#
# Elastic Constant Matrix: (Units=GPa)
#
#
# Indices 1 2 3 4 5 6 
#
# 1 50.8174 7.4707 0.1476 0.0000 0.0000 0.0000
# 2 7.4707 99.8386 -9.5774 0.0000 0.0000 0.0000
# 3 0.1476 -9.5774 71.2568 0.0000 0.0000 0.0000
# 4 0.0000 0.0000 0.0000 18.1119 0.0000 0.0000
# 5 0.0000 0.0000 0.0000 0.0000 20.8172 0.0000
# 6 0.0000 0.0000 0.0000 0.0000 0.0000 19.1111
#
#
#
# Elastic Compliance Matrix: (Units=1/GPa)
#
#
# Indices 1 2 3 4 5 6 
#
# 1 0.019901 -0.001513 -0.000245 0.000000 0.000000 0.000000
# 2 -0.001513 0.010262 0.001382 0.000000 0.000000 0.000000
# 3 -0.000245 0.001382 0.014220 0.000000 0.000000 0.000000
# 4 0.000000 0.000000 0.000000 0.055212 0.000000 0.000000
# 5 0.000000 0.000000 0.000000 0.000000 0.048037 0.000000
# 6 0.000000 0.000000 0.000000 0.000000 0.000000 0.052326
#
#
# Mechanical properties :
#
#
# Convention : Reuss Voigt Hill
#
# Bulk Modulus (GPa) = 22.91795 24.22162 23.56978
# Shear Modulus (GPa) = 23.22850 26.53282 24.88066
#
# Velocity S-wave (km/s) = 3.20767 3.42824 3.31979
# Velocity P-wave (km/s) = 4.88574 5.13804 5.01348
#
# Compressibility (1/GPa) = 0.04363392
#
# Stress axis : x y z
#
# Youngs Moduli (GPa) = 50.24775 97.44721 70.32317
#
# Poissons Ratio (x) = 0.14740 0.01720
# Poissons Ratio (y) = 0.07601 -0.09722
# Poissons Ratio (z) = 0.01229 -0.13471
#
# Static dielectric constant tensor:
#      x y z
#    x 2.033700 0.000000 0.000000 
#    y 0.000000 1.812770 0.000000 
#    z 0.000000 0.000000 1.822660 
# 
# From -- ./inp_files/4781.got.cif
#   From: 2010.05.17/outbox.cif.g08.bks.cpg/sg60_3_cif.got.tgz:4781.got - 2010.06.03 14:59:27.
