data_PCOD9457893
_publ_section_title
;
Structure prediction by ZEFSAII (Michael W. Deem and Ramdas Pophale) SiO2 
 PCOD9457893
Probable space group: P B C N
;
_chemical_formula_sum "Si O2"
_cell_formula_units_Z 48
_cell_length_a 13.045367
_cell_length_b 10.284917
_cell_length_c 16.537022
_cell_angle_alpha 90.000000
_cell_angle_beta 90.000000
_cell_angle_gamma 90.000000
_cell_volume 2218.780789
_symmetry_space_group_name_H-M "P B C N"
_symmetry_group_IT_number 60
_symmetry_cell_setting 'orthorhombic'
loop_
_space_group_symop_operation_xyz
x,y,z
1/2-x,1/2-y,1/2+z
1/2+x,1/2-y,-z
-x,y,1/2-z
-x,-y,-z
1/2+x,1/2+y,1/2-z
1/2-x,1/2+y,z
x,-y,1/2+z
loop_
_atom_site_type_symbol
_atom_site_label
_atom_site_fract_x
_atom_site_fract_y
_atom_site_fract_z
Si Si1 0.995637 0.653565 0.996892
Si Si2 0.190565 0.806418 0.440100
Si Si3 0.096144 0.040771 0.797758
Si Si4 0.308321 0.147430 0.094611
Si Si5 0.394459 0.754587 0.339669
Si Si6 0.793241 0.386531 0.306533
O O1 0.025211 0.697636 0.906592
O O2 0.084193 0.701373 0.059085
O O3 0.000000 0.500000 0.000000
O O4 0.884163 0.698838 0.023629
O O5 0.120588 0.893849 0.382923
O O6 0.240428 0.881908 0.515079
O O7 0.284150 0.752914 0.386086
O O8 0.195619 0.061233 0.743214
O O9 0.000000 0.098640 0.750000
O O10 0.078682 0.889707 0.813475
O O11 0.248166 0.258966 0.145166
O O12 0.325972 0.011898 0.141258
O O13 0.376232 0.841829 0.260219
#
# Coordination Sequence:
#
# PCOD9457893 Si02
#       6
#     8   8   8   8   8   8
#     4  11  25  42  68 100 133 177 230 279 339 409
#     4  10  25  43  68  97 138 177 227 283 337 402
#     4  11  24  42  68  99 136 177 230 278 343 403
#     4  11  24  42  70  98 134 180 227 278 341 404
#     4  10  25  43  68  98 140 179 223 284 343 403
#     4  11  23  44  67  99 137 181 220 282 342 405
#
# _framework density 21.633503000000001
#
# number of rings (size 3 to 8) (size 9 to 14) (size 15 to 20)
#    0.000    1.333    1.667    2.000   14.000    2.000 
#    0.000    3.333    0.000    0.000    0.000    0.000 
#    0.000    0.000    0.000    0.000    0.000    0.000 
#
# Total GULP energy -268496.971223 kJ/mol
# GULP energy per Si atom -5593.686900 kJ/mol
# Density = 2.158426 g / cm^3
# Si number density = 21.633503 Si / 1000 Ang^3
#
#
#
# Elastic Constant Matrix: (Units=GPa)
#
#
# Indices 1 2 3 4 5 6 
#
# 1 58.1947 13.6311 34.1295 0.0000 0.0000 0.0000
# 2 13.6311 82.1323 46.4691 0.0000 0.0000 0.0000
# 3 34.1295 46.4691 130.5850 0.0000 0.0000 0.0000
# 4 0.0000 0.0000 0.0000 33.2575 0.0000 0.0000
# 5 0.0000 0.0000 0.0000 0.0000 31.5046 0.0000
# 6 0.0000 0.0000 0.0000 0.0000 0.0000 21.9552
#
#
#
# Elastic Compliance Matrix: (Units=1/GPa)
#
#
# Indices 1 2 3 4 5 6 
#
# 1 0.020308 -0.000460 -0.005144 0.000000 0.000000 0.000000
# 2 -0.000460 0.015255 -0.005308 0.000000 0.000000 0.000000
# 3 -0.005144 -0.005308 0.010891 0.000000 0.000000 0.000000
# 4 0.000000 0.000000 0.000000 0.030068 0.000000 0.000000
# 5 0.000000 0.000000 0.000000 0.000000 0.031741 0.000000
# 6 0.000000 0.000000 0.000000 0.000000 0.000000 0.045547
#
#
# Mechanical properties :
#
#
# Convention : Reuss Voigt Hill
#
# Bulk Modulus (GPa) = 40.60117 51.04127 45.82122
# Shear Modulus (GPa) = 27.19658 29.12229 28.15944
#
# Velocity S-wave (km/s) = 3.54948 3.67299 3.61176
# Velocity P-wave (km/s) = 5.96715 6.45234 6.21448
#
# Compressibility (1/GPa) = 0.02462983
#
# Stress axis : x y z
#
# Youngs Moduli (GPa) = 49.24104 65.55133 91.81655
#
# Poissons Ratio (x) = 0.03016 0.47231
# Poissons Ratio (y) = 0.02265 0.48740
# Poissons Ratio (z) = 0.25330 0.34797
#
# Static dielectric constant tensor:
#      x y z
#    x 1.819030 0.000000 0.000000 
#    y 0.000000 1.737200 0.000000 
#    z 0.000000 0.000000 1.813870 
# 
# From -- ./inp_files/20491.got.cif
#   From: 2010.05.17/outbox.cif.g08.bks.cpg/sg60_11_cif.got.tgz:20491.got - 2010.06.03 14:59:27.
