data_PCOD9457326
_publ_section_title
;
Structure prediction by ZEFSAII (Michael W. Deem and Ramdas Pophale) SiO2 
 PCOD9457326
Probable space group: P B C N
;
_chemical_formula_sum "Si O2"
_cell_formula_units_Z 48
_cell_length_a 23.531588
_cell_length_b 5.143273
_cell_length_c 17.971491
_cell_angle_alpha 90.000000
_cell_angle_beta 90.000000
_cell_angle_gamma 90.000000
_cell_volume 2175.078435
_symmetry_space_group_name_H-M "P B C N"
_symmetry_group_IT_number 60
_symmetry_cell_setting 'orthorhombic'
loop_
_space_group_symop_operation_xyz
x,y,z
1/2-x,1/2-y,1/2+z
1/2+x,1/2-y,-z
-x,y,1/2-z
-x,-y,-z
1/2+x,1/2+y,1/2-z
1/2-x,1/2+y,z
x,-y,1/2+z
loop_
_atom_site_type_symbol
_atom_site_label
_atom_site_fract_x
_atom_site_fract_y
_atom_site_fract_z
Si Si1 0.441071 0.587443 0.717981
Si Si2 0.612057 0.091397 0.722782
Si Si3 0.722209 0.766406 0.734719
Si Si4 0.093252 0.535508 0.441734
Si Si5 0.715278 0.265389 0.054590
Si Si6 0.973803 0.796835 0.442514
O O1 0.500000 0.482517 0.750000
O O2 0.396102 0.378349 0.746601
O O3 0.444743 0.586457 0.629524
O O4 0.433801 0.879539 0.749021
O O5 0.666890 0.935113 0.750663
O O6 0.613120 0.114332 0.632791
O O7 0.769992 0.972354 0.761028
O O8 0.721232 0.736101 0.644708
O O9 0.147973 0.716182 0.460651
O O10 0.072428 0.372562 0.512850
O O11 0.032217 0.655538 0.417493
O O12 0.755512 0.029864 0.027428
O O13 0.000000 0.000000 0.500000
#
# Coordination Sequence:
#
# PCOD9457326 Si02
#       6
#     8   8   8   8   8   8
#     4  12  24  40  61  91 127 163 208 250 311 370
#     4  11  23  39  64  94 124 163 206 263 307 367
#     4   9  17  33  57  88 119 152 202 256 308 355
#     4  10  23  40  64  94 127 168 212 261 320 373
#     4   9  19  34  59  91 120 156 208 266 309 359
#     4  11  25  41  63  92 130 172 207 257 314 388
#
# _framework density 22.068168
#
# number of rings (size 3 to 8) (size 9 to 14) (size 15 to 20)
#    0.000    1.667    1.667    2.500    7.000    2.667 
#    0.000    0.000    0.000    6.000    0.000    0.000 
#    0.000    0.000    0.000    0.000    0.000    0.000 
#
# Total GULP energy -267629.380484 kJ/mol
# GULP energy per Si atom -5575.612093 kJ/mol
# Density = 2.201794 g / cm^3
# Si number density = 22.068168 Si / 1000 Ang^3
#
#
#
# Elastic Constant Matrix: (Units=GPa)
#
#
# Indices 1 2 3 4 5 6 
#
# 1 65.5055 -6.5540 5.7651 0.0000 0.0000 0.0000
# 2 -6.5540 67.0653 0.7639 0.0000 0.0000 0.0000
# 3 5.7651 0.7639 59.7473 0.0000 0.0000 0.0000
# 4 0.0000 0.0000 0.0000 177.8503 0.0000 0.0000
# 5 0.0000 0.0000 0.0000 0.0000 12.5700 0.0000
# 6 0.0000 0.0000 0.0000 0.0000 0.0000 26.0785
#
#
#
# Elastic Compliance Matrix: (Units=1/GPa)
#
#
# Indices 1 2 3 4 5 6 
#
# 1 0.015554 0.001537 -0.001520 0.000000 0.000000 0.000000
# 2 0.001537 0.015065 -0.000341 0.000000 0.000000 0.000000
# 3 -0.001520 -0.000341 0.016888 0.000000 0.000000 0.000000
# 4 0.000000 0.000000 0.000000 0.005623 0.000000 0.000000
# 5 0.000000 0.000000 0.000000 0.000000 0.079555 0.000000
# 6 0.000000 0.000000 0.000000 0.000000 0.000000 0.038346
#
#
# Mechanical properties :
#
#
# Convention : Reuss Voigt Hill
#
# Bulk Modulus (GPa) = 21.34085 21.36314 21.35200
# Shear Modulus (GPa) = 26.69551 56.12264 41.40907
#
# Velocity S-wave (km/s) = 3.48182 5.04844 4.33646
# Velocity P-wave (km/s) = 5.08484 6.60937 5.89658
#
# Compressibility (1/GPa) = 0.04685848
#
# Stress axis : x y z
#
# Youngs Moduli (GPa) = 64.29415 66.37924 59.21285
#
# Poissons Ratio (x) = -0.10204 0.09003
# Poissons Ratio (y) = -0.09884 0.02019
# Poissons Ratio (z) = 0.09776 0.02263
#
# Static dielectric constant tensor:
#      x y z
#    x 2.192960 0.000000 0.000000 
#    y 0.000000 1.851660 0.000000 
#    z 0.000000 0.000000 1.781540 
# 
# From -- ./inp_files/21127.got.cif
#   From: 2010.05.17/outbox.cif.g08.bks.cpg/sg60_11_cif.got.tgz:21127.got - 2010.06.03 14:59:27.
