data_PCOD9457710
_publ_section_title
;
Structure prediction by ZEFSAII (Michael W. Deem and Ramdas Pophale) SiO2 
 PCOD9457710
Probable space group: P B C N
;
_chemical_formula_sum "Si O2"
_cell_formula_units_Z 56
_cell_length_a 11.145014
_cell_length_b 14.125399
_cell_length_c 16.189338
_cell_angle_alpha 90.000000
_cell_angle_beta 90.000000
_cell_angle_gamma 90.000000
_cell_volume 2548.651373
_symmetry_space_group_name_H-M "P B C N"
_symmetry_group_IT_number 60
_symmetry_cell_setting 'orthorhombic'
loop_
_space_group_symop_operation_xyz
x,y,z
1/2-x,1/2-y,1/2+z
1/2+x,1/2-y,-z
-x,y,1/2-z
-x,-y,-z
1/2+x,1/2+y,1/2-z
1/2-x,1/2+y,z
x,-y,1/2+z
loop_
_atom_site_type_symbol
_atom_site_label
_atom_site_fract_x
_atom_site_fract_y
_atom_site_fract_z
Si Si1 0.339241 0.587377 0.326989
Si Si2 0.957853 0.030229 0.909482
Si Si3 0.680901 0.797253 0.210030
Si Si4 0.720774 0.967226 0.315376
Si Si5 0.552073 0.275396 0.157139
Si Si6 0.000718 0.421697 0.393878
Si Si7 0.128828 0.397457 0.945819
O O1 0.460436 0.532686 0.347910
O O2 0.351979 0.687770 0.281900
O O3 0.260176 0.521306 0.267192
O O4 0.264606 0.608013 0.411602
O O5 0.819647 0.013958 0.885060
O O6 0.986153 0.140123 0.890803
O O7 0.000000 0.000000 0.000000
O O8 0.709232 0.856149 0.292291
O O9 0.807225 0.802856 0.161937
O O10 0.574662 0.849207 0.161295
O O11 0.586617 0.989783 0.341738
O O12 0.500000 0.269552 0.250000
O O13 0.553827 0.174922 0.111418
O O14 0.912984 0.374251 0.461442
O O15 0.094166 0.492482 0.436291
#
# Coordination Sequence:
#
# PCOD9457710 Si02
#       7
#     8   8   8   8   8   8   8
#     4  11  24  45  69 103 134 188 235 289 353 429
#     4  12  25  43  69  99 142 179 232 297 357 421
#     4  11  24  42  70  97 141 180 234 291 344 430
#     4  12  24  42  69  97 134 183 231 283 352 424
#     4  11  22  44  72  98 133 186 240 286 351 430
#     4  11  24  43  65 102 139 180 227 297 358 414
#     4  10  24  42  70  98 138 176 233 292 354 420
#
# _framework density 21.972404999999998
#
# number of rings (size 3 to 8) (size 9 to 14) (size 15 to 20)
#    0.000    0.857    4.286    1.714    6.000    3.429 
#    0.000    0.000    0.000    0.000    0.000    0.000 
#    0.000    0.000    0.000    0.000    0.000    0.000 
#
# Total GULP energy -312877.942448 kJ/mol
# GULP energy per Si atom -5587.106115 kJ/mol
# Density = 2.192239 g / cm^3
# Si number density = 21.972405 Si / 1000 Ang^3
#
#
#
# Elastic Constant Matrix: (Units=GPa)
#
#
# Indices 1 2 3 4 5 6 
#
# 1 107.9614 17.7124 29.7044 0.0000 0.0000 0.0000
# 2 17.7124 103.0947 26.2796 0.0000 0.0000 0.0000
# 3 29.7044 26.2796 112.2544 0.0000 0.0000 0.0000
# 4 0.0000 0.0000 0.0000 27.9820 0.0000 0.0000
# 5 0.0000 0.0000 0.0000 0.0000 40.2128 0.0000
# 6 0.0000 0.0000 0.0000 0.0000 0.0000 8.9154
#
#
#
# Elastic Compliance Matrix: (Units=1/GPa)
#
#
# Indices 1 2 3 4 5 6 
#
# 1 0.010110 -0.001122 -0.002413 0.000000 0.000000 0.000000
# 2 -0.001122 0.010440 -0.002147 0.000000 0.000000 0.000000
# 3 -0.002413 -0.002147 0.010049 0.000000 0.000000 0.000000
# 4 0.000000 0.000000 0.000000 0.035737 0.000000 0.000000
# 5 0.000000 0.000000 0.000000 0.000000 0.024868 0.000000
# 6 0.000000 0.000000 0.000000 0.000000 0.000000 0.112165
#
#
# Mechanical properties :
#
#
# Convention : Reuss Voigt Hill
#
# Bulk Modulus (GPa) = 51.98580 52.30038 52.14309
# Shear Modulus (GPa) = 22.60950 32.06297 27.33623
#
# Velocity S-wave (km/s) = 3.21128 3.82414 3.53103
# Velocity P-wave (km/s) = 6.12051 6.58431 6.35664
#
# Compressibility (1/GPa) = 0.01923602
#
# Stress axis : x y z
#
# Youngs Moduli (GPa) = 98.90712 95.78615 99.50793
#
# Poissons Ratio (x) = 0.10748 0.24009
# Poissons Ratio (y) = 0.11098 0.21366
# Poissons Ratio (z) = 0.23864 0.20567
#
# Static dielectric constant tensor:
#      x y z
#    x 1.852370 0.000000 0.000000 
#    y 0.000000 1.781780 0.000000 
#    z 0.000000 0.000000 1.877020 
# 
# From -- ./inp_files/16185.got.cif
#   From: 2010.05.17/outbox.cif.g08.bks.cpg/sg60_9_cif.got.tgz:16185.got - 2010.06.03 14:59:27.
