data_PCOD9457134
_publ_section_title
;
Structure prediction by ZEFSAII (Michael W. Deem and Ramdas Pophale) SiO2 
 PCOD9457134
Probable space group: P B C N
;
_chemical_formula_sum "Si O2"
_cell_formula_units_Z 32
_cell_length_a 7.289237
_cell_length_b 23.293056
_cell_length_c 8.796814
_cell_angle_alpha 90.000000
_cell_angle_beta 90.000000
_cell_angle_gamma 90.000000
_cell_volume 1493.598783
_symmetry_space_group_name_H-M "P B C N"
_symmetry_group_IT_number 60
_symmetry_cell_setting 'orthorhombic'
loop_
_space_group_symop_operation_xyz
x,y,z
1/2-x,1/2-y,1/2+z
1/2+x,1/2-y,-z
-x,y,1/2-z
-x,-y,-z
1/2+x,1/2+y,1/2-z
1/2-x,1/2+y,z
x,-y,1/2+z
loop_
_atom_site_type_symbol
_atom_site_label
_atom_site_fract_x
_atom_site_fract_y
_atom_site_fract_z
Si Si1 0.561548 0.160127 0.079343
Si Si2 0.500000 0.336091 0.250000
Si Si3 0.331986 0.761274 0.362257
Si Si4 0.500000 0.516445 0.250000
Si Si5 0.172416 0.924744 0.038622
O O1 0.500000 0.145088 0.250000
O O2 0.736638 0.202584 0.088763
O O3 0.407257 0.198421 0.997165
O O4 0.629999 0.105265 0.983173
O O5 0.675357 0.297106 0.222332
O O6 0.535929 0.376938 0.393110
O O7 0.500000 0.750046 0.250000
O O8 0.396383 0.553638 0.375837
O O9 0.645612 0.476662 0.341948
#
# Coordination Sequence:
#
# PCOD9457134 Si02
#       5
#     8   4   8   4   8
#     4  12  25  40  68 103 139 186 225 273 344 422
#     4  11  22  44  72  98 138 182 220 279 350 412
#     4  12  24  45  64 105 148 179 225 274 339 430
#     4   9  22  44  72  92 134 172 244 301 346 390
#     4  10  22  43  70  97 127 185 226 286 349 397
#
# _framework density 21.424764
#
# number of rings (size 3 to 8) (size 9 to 14) (size 15 to 20)
#    0.000    1.000    3.750    3.000    5.250    0.000 
#    0.000    1.250    0.000    0.000    0.000    0.000 
#    0.000    0.000    0.000    0.000    0.000    0.000 
#
# Total GULP energy -178983.113522 kJ/mol
# GULP energy per Si atom -5593.222298 kJ/mol
# Density = 2.137600 g / cm^3
# Si number density = 21.424764 Si / 1000 Ang^3
#
#
#
# Elastic Constant Matrix: (Units=GPa)
#
#
# Indices 1 2 3 4 5 6 
#
# 1 97.9537 30.3861 35.2157 0.0000 0.0000 0.0000
# 2 30.3861 77.1208 38.6342 0.0000 0.0000 0.0000
# 3 35.2157 38.6342 122.5432 0.0000 0.0000 0.0000
# 4 0.0000 0.0000 0.0000 70.8458 0.0000 0.0000
# 5 0.0000 0.0000 0.0000 0.0000 38.9046 0.0000
# 6 0.0000 0.0000 0.0000 0.0000 0.0000 17.5973
#
#
#
# Elastic Compliance Matrix: (Units=1/GPa)
#
#
# Indices 1 2 3 4 5 6 
#
# 1 0.012179 -0.003617 -0.002360 0.000000 0.000000 0.000000
# 2 -0.003617 0.016473 -0.004154 0.000000 0.000000 0.000000
# 3 -0.002360 -0.004154 0.010148 0.000000 0.000000 0.000000
# 4 0.000000 0.000000 0.000000 0.014115 0.000000 0.000000
# 5 0.000000 0.000000 0.000000 0.000000 0.025704 0.000000
# 6 0.000000 0.000000 0.000000 0.000000 0.000000 0.056827
#
#
# Mechanical properties :
#
#
# Convention : Reuss Voigt Hill
#
# Bulk Modulus (GPa) = 53.93960 56.23218 55.08589
# Shear Modulus (GPa) = 30.88591 38.36166 34.62378
#
# Velocity S-wave (km/s) = 3.80096 4.23605 4.02439
# Velocity P-wave (km/s) = 6.67038 7.08723 6.88196
#
# Compressibility (1/GPa) = 0.01853926
#
# Stress axis : x y z
#
# Youngs Moduli (GPa) = 82.10745 60.70694 98.53990
#
# Poissons Ratio (x) = 0.21955 0.23253
# Poissons Ratio (y) = 0.29694 0.40934
# Poissons Ratio (z) = 0.19376 0.25218
#
# Static dielectric constant tensor:
#      x y z
#    x 1.743650 0.000000 0.000000 
#    y 0.000000 1.776330 0.000000 
#    z 0.000000 0.000000 1.827050 
# 
# From -- ./inp_files/3647.got.cif
#   From: 2010.05.17/outbox.cif.g08.bks.cpg/sg60_2_cif.got.tgz:3647.got - 2010.06.03 14:59:27.
