data_PCOD9457450
_publ_section_title
;
Structure prediction by ZEFSAII (Michael W. Deem and Ramdas Pophale) SiO2 
 PCOD9457450
Probable space group: P B C N
;
_chemical_formula_sum "Si O2"
_cell_formula_units_Z 48
_cell_length_a 7.066412
_cell_length_b 14.414959
_cell_length_c 21.341321
_cell_angle_alpha 90.000000
_cell_angle_beta 90.000000
_cell_angle_gamma 90.000000
_cell_volume 2173.870478
_symmetry_space_group_name_H-M "P B C N"
_symmetry_group_IT_number 60
_symmetry_cell_setting 'orthorhombic'
loop_
_space_group_symop_operation_xyz
x,y,z
1/2-x,1/2-y,1/2+z
1/2+x,1/2-y,-z
-x,y,1/2-z
-x,-y,-z
1/2+x,1/2+y,1/2-z
1/2-x,1/2+y,z
x,-y,1/2+z
loop_
_atom_site_type_symbol
_atom_site_label
_atom_site_fract_x
_atom_site_fract_y
_atom_site_fract_z
Si Si1 0.245070 0.713673 0.848588
Si Si2 0.620885 0.789709 0.912743
Si Si3 0.045124 0.344995 0.045211
Si Si4 0.126364 0.488435 0.620399
Si Si5 0.175027 0.397602 0.796951
Si Si6 0.792016 0.919232 0.260170
O O1 0.465933 0.736191 0.868939
O O2 0.198918 0.814583 0.821093
O O3 0.190378 0.643504 0.792131
O O4 0.131269 0.680615 0.909362
O O5 0.782840 0.720172 0.933698
O O6 0.715976 0.885449 0.886247
O O7 0.508197 0.823866 0.974100
O O8 0.104499 0.451072 0.058402
O O9 0.214989 0.562157 0.670239
O O10 0.924767 0.453438 0.646671
O O11 0.291368 0.475477 0.762822
O O12 0.000000 0.369668 0.750000
O O13 0.000000 0.880266 0.250000
#
# Coordination Sequence:
#
# PCOD9457450 Si02
#       6
#     8   8   8   8   8   8
#     4  11  23  42  67  94 132 175 221 279 331 399
#     4  11  25  45  67 101 132 178 230 277 329 402
#     4  12  23  44  70  95 132 181 228 274 336 401
#     4  10  23  43  66  93 135 174 216 278 347 397
#     4   9  20  39  59  90 131 169 210 270 339 390
#     4  11  22  39  63  97 130 169 221 275 336 410
#
# _framework density 22.080431000000001
#
# number of rings (size 3 to 8) (size 9 to 14) (size 15 to 20)
#    0.000    1.333    3.333    2.000    2.333    2.667 
#    0.000    0.833    0.000    0.000    0.000    0.000 
#    0.000    0.000    0.000    0.000    0.000    0.000 
#
# Total GULP energy -267377.080010 kJ/mol
# GULP energy per Si atom -5570.355834 kJ/mol
# Density = 2.203018 g / cm^3
# Si number density = 22.080431 Si / 1000 Ang^3
#
#
#
# Elastic Constant Matrix: (Units=GPa)
#
#
# Indices 1 2 3 4 5 6 
#
# 1 42.2228 16.6601 13.5667 0.0000 0.0000 0.0000
# 2 16.6601 94.5816 37.1231 0.0000 0.0000 0.0000
# 3 13.5667 37.1231 103.3303 0.0000 0.0000 0.0000
# 4 0.0000 0.0000 0.0000 32.6742 0.0000 0.0000
# 5 0.0000 0.0000 0.0000 0.0000 21.0438 0.0000
# 6 0.0000 0.0000 0.0000 0.0000 0.0000 19.6507
#
#
#
# Elastic Compliance Matrix: (Units=1/GPa)
#
#
# Indices 1 2 3 4 5 6 
#
# 1 0.025819 -0.003745 -0.002044 0.000000 0.000000 0.000000
# 2 -0.003745 0.012852 -0.004125 0.000000 0.000000 0.000000
# 3 -0.002044 -0.004125 0.011428 0.000000 0.000000 0.000000
# 4 0.000000 0.000000 0.000000 0.030605 0.000000 0.000000
# 5 0.000000 0.000000 0.000000 0.000000 0.047520 0.000000
# 6 0.000000 0.000000 0.000000 0.000000 0.000000 0.050889
#
#
# Mechanical properties :
#
#
# Convention : Reuss Voigt Hill
#
# Bulk Modulus (GPa) = 33.03779 41.64828 37.34303
# Shear Modulus (GPa) = 23.91972 26.19271 25.05622
#
# Velocity S-wave (km/s) = 3.29492 3.44792 3.37229
# Velocity P-wave (km/s) = 5.42866 5.89524 5.66675
#
# Compressibility (1/GPa) = 0.03026837
#
# Stress axis : x y z
#
# Youngs Moduli (GPa) = 38.73172 77.80962 87.50247
#
# Poissons Ratio (x) = 0.29143 0.17887
# Poissons Ratio (y) = 0.14507 0.36099
# Poissons Ratio (z) = 0.07918 0.32100
#
# Static dielectric constant tensor:
#      x y z
#    x 1.955690 0.000000 0.000000 
#    y 0.000000 1.826710 0.000000 
#    z 0.000000 0.000000 1.889780 
# 
# From -- ./inp_files/23927.got.cif
#   From: 2010.05.17/outbox.cif.g08.bks.cpg/sg60_12_cif.got.tgz:23927.got - 2010.06.03 14:59:27.
