data_PCOD9457990
_publ_section_title
;
Structure prediction by ZEFSAII (Michael W. Deem and Ramdas Pophale) SiO2 
 PCOD9457990
Probable space group: P B C N
;
_chemical_formula_sum "Si O2"
_cell_formula_units_Z 36
_cell_length_a 7.862043
_cell_length_b 19.317894
_cell_length_c 10.072927
_cell_angle_alpha 90.000000
_cell_angle_beta 90.000000
_cell_angle_gamma 90.000000
_cell_volume 1529.857148
_symmetry_space_group_name_H-M "P B C N"
_symmetry_group_IT_number 60
_symmetry_cell_setting 'orthorhombic'
loop_
_space_group_symop_operation_xyz
x,y,z
1/2-x,1/2-y,1/2+z
1/2+x,1/2-y,-z
-x,y,1/2-z
-x,-y,-z
1/2+x,1/2+y,1/2-z
1/2-x,1/2+y,z
x,-y,1/2+z
loop_
_atom_site_type_symbol
_atom_site_label
_atom_site_fract_x
_atom_site_fract_y
_atom_site_fract_z
Si Si1 0.500000 0.744913 0.250000
Si Si2 0.500000 0.227207 0.250000
Si Si3 0.382861 0.886999 0.565098
Si Si4 0.528404 0.336268 0.019572
Si Si5 0.814320 0.628278 0.853130
Si Si6 0.500000 0.008973 0.750000
O O1 0.524367 0.699057 0.119375
O O2 0.653431 0.798502 0.281794
O O3 0.625315 0.172339 0.321386
O O4 0.442753 0.275370 0.372549
O O5 0.696005 0.617997 0.497564
O O6 0.535199 0.871621 0.462764
O O7 0.444425 0.958021 0.632490
O O8 0.366800 0.376233 0.078300
O O9 0.846208 0.564446 0.753815
#
# Coordination Sequence:
#
# PCOD9457990 Si02
#       6
#     4   4   8   8   8   4
#     4  11  26  43  72 113 150 187 244 316 388 459
#     4  11  26  43  72 113 150 187 244 316 388 459
#     4  11  26  47  74 106 153 200 248 319 368 459
#     4  12  28  43  76 115 148 194 254 306 398 452
#     4  11  26  47  74 106 153 200 248 319 368 459
#     4  10  26  50  74 106 150 208 266 300 382 424
#
# _framework density 23.531607999999999
#
# number of rings (size 3 to 8) (size 9 to 14) (size 15 to 20)
#    0.000    0.889    2.222    2.000   18.667    0.889 
#    0.000    2.222    0.000    0.000    0.000    0.000 
#    0.000    0.000    0.000    0.000    0.000    0.000 
#
# Total GULP energy -201192.213871 kJ/mol
# GULP energy per Si atom -5588.672608 kJ/mol
# Density = 2.347805 g / cm^3
# Si number density = 23.531608 Si / 1000 Ang^3
#
#
#
# Elastic Constant Matrix: (Units=GPa)
#
#
# Indices 1 2 3 4 5 6 
#
# 1 205.0327 62.1519 80.6788 0.0000 0.0000 0.0000
# 2 62.1519 129.1660 73.6777 0.0000 0.0000 0.0000
# 3 80.6788 73.6777 155.9944 0.0000 0.0000 0.0000
# 4 0.0000 0.0000 0.0000 28.8195 0.0000 0.0000
# 5 0.0000 0.0000 0.0000 0.0000 53.2619 0.0000
# 6 0.0000 0.0000 0.0000 0.0000 0.0000 10.9982
#
#
#
# Elastic Compliance Matrix: (Units=1/GPa)
#
#
# Indices 1 2 3 4 5 6 
#
# 1 0.006362 -0.001621 -0.002525 0.000000 0.000000 0.000000
# 2 -0.001621 0.011010 -0.004362 0.000000 0.000000 0.000000
# 3 -0.002525 -0.004362 0.009776 0.000000 0.000000 0.000000
# 4 0.000000 0.000000 0.000000 0.034699 0.000000 0.000000
# 5 0.000000 0.000000 0.000000 0.000000 0.018775 0.000000
# 6 0.000000 0.000000 0.000000 0.000000 0.000000 0.090924
#
#
# Mechanical properties :
#
#
# Convention : Reuss Voigt Hill
#
# Bulk Modulus (GPa) = 98.68475 102.57885 100.63180
# Shear Modulus (GPa) = 26.04986 36.86157 31.45572
#
# Velocity S-wave (km/s) = 3.33079 3.96216 3.66012
# Velocity P-wave (km/s) = 7.53793 8.03854 7.79226
#
# Compressibility (1/GPa) = 0.01013328
#
# Stress axis : x y z
#
# Youngs Moduli (GPa) = 157.17894 90.82648 102.28800
#
# Poissons Ratio (x) = 0.14725 0.25825
# Poissons Ratio (y) = 0.25482 0.44615
# Poissons Ratio (z) = 0.39684 0.39615
#
# Static dielectric constant tensor:
#      x y z
#    x 2.053910 0.000000 0.000000 
#    y 0.000000 1.891690 0.000000 
#    z 0.000000 0.000000 1.942140 
# 
# From -- ./inp_files/10799.got.cif
#   From: 2010.05.17/outbox.cif.g08.bks.cpg/sg60_6_cif.got.tgz:10799.got - 2010.06.03 14:59:27.
