data_PCOD9457488
_publ_section_title
;
Structure prediction by ZEFSAII (Michael W. Deem and Ramdas Pophale) SiO2 
 PCOD9457488
Probable space group: P B C N
;
_chemical_formula_sum "Si O2"
_cell_formula_units_Z 48
_cell_length_a 25.683019
_cell_length_b 5.489433
_cell_length_c 13.932255
_cell_angle_alpha 90.000000
_cell_angle_beta 90.000000
_cell_angle_gamma 90.000000
_cell_volume 1964.241925
_symmetry_space_group_name_H-M "P B C N"
_symmetry_group_IT_number 60
_symmetry_cell_setting 'orthorhombic'
loop_
_space_group_symop_operation_xyz
x,y,z
1/2-x,1/2-y,1/2+z
1/2+x,1/2-y,-z
-x,y,1/2-z
-x,-y,-z
1/2+x,1/2+y,1/2-z
1/2-x,1/2+y,z
x,-y,1/2+z
loop_
_atom_site_type_symbol
_atom_site_label
_atom_site_fract_x
_atom_site_fract_y
_atom_site_fract_z
Si Si1 0.040936 0.298718 0.963808
Si Si2 0.047320 0.036584 0.302310
Si Si3 0.278951 0.663790 0.125420
Si Si4 0.619105 0.835597 0.055554
Si Si5 0.225913 0.158792 0.357621
Si Si6 0.104578 0.997889 0.110025
O O1 0.098567 0.394481 0.935722
O O2 0.022608 0.182402 0.864030
O O3 0.000000 0.500000 0.000000
O O4 0.057129 0.125183 0.051899
O O5 0.076915 0.189699 0.381784
O O6 0.000000 0.171716 0.250000
O O7 0.088162 0.966900 0.219845
O O8 0.248043 0.417640 0.093094
O O9 0.276067 0.663271 0.241819
O O10 0.340262 0.639378 0.102271
O O11 0.673572 0.764796 0.098216
O O12 0.614489 0.753738 0.945538
O O13 0.266446 0.375102 0.385376
#
# Coordination Sequence:
#
# PCOD9457488 Si02
#       6
#     8   8   8   8   8   8
#     4  11  26  46  70 107 143 189 249 310 371 452
#     4  11  24  45  71 100 140 188 238 304 371 438
#     4  10  23  43  71 107 145 192 249 305 369 452
#     4  11  25  43  70 103 143 187 242 301 370 445
#     4  10  23  43  72 104 146 191 244 305 369 443
#     4  11  25  44  71 103 144 190 242 304 373 452
#
# _framework density 24.436910999999998
#
# number of rings (size 3 to 8) (size 9 to 14) (size 15 to 20)
#    0.000    1.333    1.667    2.000    7.000    8.667 
#    0.000    0.000    0.000    0.000    0.000    0.000 
#    0.000    0.000    0.000    0.000    0.000    0.000 
#
# Total GULP energy -268365.237421 kJ/mol
# GULP energy per Si atom -5590.942446 kJ/mol
# Density = 2.438129 g / cm^3
# Si number density = 24.436911 Si / 1000 Ang^3
#
#
#
# Elastic Constant Matrix: (Units=GPa)
#
#
# Indices 1 2 3 4 5 6 
#
# 1 119.5020 22.8396 21.3813 0.0000 0.0000 0.0000
# 2 22.8396 71.2860 29.2833 0.0000 0.0000 0.0000
# 3 21.3813 29.2833 112.9139 0.0000 0.0000 0.0000
# 4 0.0000 0.0000 0.0000 20.8985 0.0000 0.0000
# 5 0.0000 0.0000 0.0000 0.0000 43.2890 0.0000
# 6 0.0000 0.0000 0.0000 0.0000 0.0000 42.9300
#
#
#
# Elastic Compliance Matrix: (Units=1/GPa)
#
#
# Indices 1 2 3 4 5 6 
#
# 1 0.009029 -0.002452 -0.001074 0.000000 0.000000 0.000000
# 2 -0.002452 0.016366 -0.003780 0.000000 0.000000 0.000000
# 3 -0.001074 -0.003780 0.010040 0.000000 0.000000 0.000000
# 4 0.000000 0.000000 0.000000 0.047850 0.000000 0.000000
# 5 0.000000 0.000000 0.000000 0.000000 0.023101 0.000000
# 6 0.000000 0.000000 0.000000 0.000000 0.000000 0.023294
#
#
# Mechanical properties :
#
#
# Convention : Reuss Voigt Hill
#
# Bulk Modulus (GPa) = 48.02230 50.07893 49.05061
# Shear Modulus (GPa) = 33.06165 36.77000 34.91583
#
# Velocity S-wave (km/s) = 3.68222 3.88324 3.78407
# Velocity P-wave (km/s) = 6.14594 6.37524 6.26164
#
# Compressibility (1/GPa) = 0.02082366
#
# Stress axis : x y z
#
# Youngs Moduli (GPa) = 110.75717 61.10090 99.60128
#
# Poissons Ratio (x) = 0.14980 0.10696
# Poissons Ratio (y) = 0.27154 0.37652
# Poissons Ratio (z) = 0.11894 0.23098
#
# Static dielectric constant tensor:
#      x y z
#    x 1.944090 0.000000 0.000000 
#    y 0.000000 2.029040 0.000000 
#    z 0.000000 0.000000 1.929570 
# 
# From -- ./inp_files/18070.got.cif
#   From: 2010.05.17/outbox.cif.g08.bks.cpg/sg60_10_cif.got.tgz:18070.got - 2010.06.03 14:59:27.
