data_PCOD9457528
_publ_section_title
;
Structure prediction by ZEFSAII (Michael W. Deem and Ramdas Pophale) SiO2 
 PCOD9457528
Probable space group: P B C N
;
_chemical_formula_sum "Si O2"
_cell_formula_units_Z 64
_cell_length_a 8.727075
_cell_length_b 11.305180
_cell_length_c 28.586446
_cell_angle_alpha 90.000000
_cell_angle_beta 90.000000
_cell_angle_gamma 90.000000
_cell_volume 2820.371744
_symmetry_space_group_name_H-M "P B C N"
_symmetry_group_IT_number 60
_symmetry_cell_setting 'orthorhombic'
loop_
_space_group_symop_operation_xyz
x,y,z
1/2-x,1/2-y,1/2+z
1/2+x,1/2-y,-z
-x,y,1/2-z
-x,-y,-z
1/2+x,1/2+y,1/2-z
1/2-x,1/2+y,z
x,-y,1/2+z
loop_
_atom_site_type_symbol
_atom_site_label
_atom_site_fract_x
_atom_site_fract_y
_atom_site_fract_z
Si Si1 0.925047 0.127479 0.631849
Si Si2 0.169530 0.585903 0.270099
Si Si3 0.487821 0.105456 0.368569
Si Si4 0.171749 0.438483 0.441236
Si Si5 0.951406 0.781245 0.957802
Si Si6 0.323850 0.343943 0.266898
Si Si7 0.677884 0.466305 0.886236
Si Si8 0.794963 0.898835 0.481988
O O1 0.000305 0.254710 0.622921
O O2 0.824735 0.087987 0.588006
O O3 0.820566 0.148245 0.676920
O O4 0.047441 0.026654 0.644792
O O5 0.131022 0.585115 0.325877
O O6 0.248774 0.467000 0.252124
O O7 0.242321 0.713024 0.255564
O O8 0.000000 0.586805 0.250000
O O9 0.660233 0.057213 0.361828
O O10 0.419751 0.039686 0.413351
O O11 0.067293 0.322809 0.443099
O O12 0.213966 0.493500 0.490985
O O13 0.887464 0.851352 0.912992
O O14 0.812243 0.716678 0.983900
O O15 0.047827 0.866814 0.991795
O O16 0.500000 0.341978 0.250000
O O17 0.694235 0.561175 0.928532
#
# Coordination Sequence:
#
# PCOD9457528 Si02
#       8
#     8   8   8   8   8   8   8   8
#     4  11  25  44  69  95 134 171 223 278 330 402
#     4  10  23  46  71 104 141 180 223 274 339 403
#     4  11  25  44  68  96 133 172 220 282 330 398
#     4  12  24  44  65  93 124 177 223 274 336 392
#     4  12  26  41  65  90 128 174 223 280 337 403
#     4  10  23  44  71 103 141 180 221 275 337 407
#     4  12  26  44  62  97 128 174 222 279 339 393
#     4  12  26  43  61  92 129 173 223 274 340 401
#
# _framework density 22.692043999999999
#
# number of rings (size 3 to 8) (size 9 to 14) (size 15 to 20)
#    0.000    0.750    3.750    3.000    7.000    0.500 
#    0.000    0.000    0.000    0.000    0.000    0.000 
#    0.000    0.000    0.000    0.000    0.000    0.000 
#
# Total GULP energy -358032.680157 kJ/mol
# GULP energy per Si atom -5594.260627 kJ/mol
# Density = 2.264040 g / cm^3
# Si number density = 22.692044 Si / 1000 Ang^3
#
#
#
# Elastic Constant Matrix: (Units=GPa)
#
#
# Indices 1 2 3 4 5 6 
#
# 1 55.7079 40.6219 -14.7845 0.0000 0.0000 0.0000
# 2 40.6219 164.2956 5.5733 0.0000 0.0000 0.0000
# 3 -14.7845 5.5733 26.6714 0.0000 0.0000 0.0000
# 4 0.0000 0.0000 0.0000 177.4389 0.0000 0.0000
# 5 0.0000 0.0000 0.0000 0.0000 26.3307 0.0000
# 6 0.0000 0.0000 0.0000 0.0000 0.0000 49.5566
#
#
#
# Elastic Compliance Matrix: (Units=1/GPa)
#
#
# Indices 1 2 3 4 5 6 
#
# 1 0.027933 -0.007485 0.017048 0.000000 0.000000 0.000000
# 2 -0.007485 0.008136 -0.005849 0.000000 0.000000 0.000000
# 3 0.017048 -0.005849 0.048165 0.000000 0.000000 0.000000
# 4 0.000000 0.000000 0.000000 0.005636 0.000000 0.000000
# 5 0.000000 0.000000 0.000000 0.000000 0.037978 0.000000
# 6 0.000000 0.000000 0.000000 0.000000 0.000000 0.020179
#
#
# Mechanical properties :
#
#
# Convention : Reuss Voigt Hill
#
# Bulk Modulus (GPa) = 10.90962 34.38848 22.64905
# Shear Modulus (GPa) = 29.21366 65.01618 47.11492
#
# Velocity S-wave (km/s) = 3.59192 5.35852 4.56156
# Velocity P-wave (km/s) = 4.69262 7.31248 6.14382
#
# Compressibility (1/GPa) = 0.09166223
#
# Stress axis : x y z
#
# Youngs Moduli (GPa) = 35.80008 122.91688 20.76178
#
# Poissons Ratio (x) = 0.91999 -0.35394
# Poissons Ratio (y) = 0.26795 0.12143
# Poissons Ratio (z) = -0.61031 0.71893
#
# Static dielectric constant tensor:
#      x y z
#    x 1.867870 0.000000 0.000000 
#    y 0.000000 1.856060 0.000000 
#    z 0.000000 0.000000 1.871200 
# 
# From -- ./inp_files/26029.got.cif
#   From: 2010.05.17/outbox.cif.g08.bks.cpg/sg60_14_cif.got.tgz:26029.got - 2010.06.03 14:59:27.
