data_PCOD9457178
_publ_section_title
;
Structure prediction by ZEFSAII (Michael W. Deem and Ramdas Pophale) SiO2 
 PCOD9457178
Probable space group: P B C N
;
_chemical_formula_sum "Si O2"
_cell_formula_units_Z 56
_cell_length_a 30.935718
_cell_length_b 5.427416
_cell_length_c 15.661151
_cell_angle_alpha 90.000000
_cell_angle_beta 90.000000
_cell_angle_gamma 90.000000
_cell_volume 2629.523084
_symmetry_space_group_name_H-M "P B C N"
_symmetry_group_IT_number 60
_symmetry_cell_setting 'orthorhombic'
loop_
_space_group_symop_operation_xyz
x,y,z
1/2-x,1/2-y,1/2+z
1/2+x,1/2-y,-z
-x,y,1/2-z
-x,-y,-z
1/2+x,1/2+y,1/2-z
1/2-x,1/2+y,z
x,-y,1/2+z
loop_
_atom_site_type_symbol
_atom_site_label
_atom_site_fract_x
_atom_site_fract_y
_atom_site_fract_z
Si Si1 0.439236 0.084483 0.009368
Si Si2 0.516492 0.689079 0.429123
Si Si3 0.369404 0.735421 0.794231
Si Si4 0.459649 0.694728 0.694491
Si Si5 0.226230 0.194876 0.495931
Si Si6 0.723318 0.287288 0.298975
Si Si7 0.637639 0.762025 0.098385
O O1 0.452901 0.177361 0.102939
O O2 0.439927 0.795268 0.028535
O O3 0.475618 0.126693 0.936266
O O4 0.396027 0.203538 0.978205
O O5 0.500000 0.500000 0.500000
O O6 0.526320 0.578017 0.337732
O O7 0.414081 0.713158 0.741682
O O8 0.324536 0.718896 0.741177
O O9 0.369685 0.497628 0.855542
O O10 0.369021 0.999601 0.841468
O O11 0.500000 0.790000 0.750000
O O12 0.260139 0.413932 0.476522
O O13 0.218579 0.210864 0.597953
O O14 0.184820 0.262016 0.441337
O O15 0.749477 0.539046 0.275587
#
# Coordination Sequence:
#
# PCOD9457178 Si02
#       7
#     8   8   8   8   8   8   8
#     4  10  23  42  70  93 129 180 228 280 331 403
#     4   9  21  41  66  92 121 176 221 277 334 392
#     4  12  28  43  66 106 140 180 226 279 346 409
#     4  11  25  42  66  96 137 179 225 284 341 404
#     4  10  22  44  70  99 129 178 229 274 337 408
#     4  10  22  45  73  99 136 177 221 282 346 403
#     4  12  27  43  67 100 140 178 227 281 330 409
#
# _framework density 21.296637
#
# number of rings (size 3 to 8) (size 9 to 14) (size 15 to 20)
#    0.000    1.429    0.000    3.429   12.000    4.000 
#    7.714    0.000    0.000    0.000    0.000    0.000 
#    0.000    0.000    0.000    0.000    0.000    0.000 
#
# Total GULP energy -312433.061429 kJ/mol
# GULP energy per Si atom -5579.161811 kJ/mol
# Density = 2.124816 g / cm^3
# Si number density = 21.296637 Si / 1000 Ang^3
#
#
#
# Elastic Constant Matrix: (Units=GPa)
#
#
# Indices 1 2 3 4 5 6 
#
# 1 122.9102 19.0374 70.9912 0.0000 0.0000 0.0000
# 2 19.0374 93.0388 32.8313 0.0000 0.0000 0.0000
# 3 70.9912 32.8313 75.2172 0.0000 0.0000 0.0000
# 4 0.0000 0.0000 0.0000 54.0794 0.0000 0.0000
# 5 0.0000 0.0000 0.0000 0.0000 56.4058 0.0000
# 6 0.0000 0.0000 0.0000 0.0000 0.0000 30.7308
#
#
#
# Elastic Compliance Matrix: (Units=1/GPa)
#
#
# Indices 1 2 3 4 5 6 
#
# 1 0.018487 0.002807 -0.018673 0.000000 0.000000 0.000000
# 2 0.002807 0.013131 -0.008381 0.000000 0.000000 0.000000
# 3 -0.018673 -0.008381 0.034577 0.000000 0.000000 0.000000
# 4 0.000000 0.000000 0.000000 0.018491 0.000000 0.000000
# 5 0.000000 0.000000 0.000000 0.000000 0.017729 0.000000
# 6 0.000000 0.000000 0.000000 0.000000 0.000000 0.032541
#
#
# Mechanical properties :
#
#
# Convention : Reuss Voigt Hill
#
# Bulk Modulus (GPa) = 56.49497 59.65399 58.07448
# Shear Modulus (GPa) = 26.40625 39.46362 32.93493
#
# Velocity S-wave (km/s) = 3.52508 4.30937 3.93680
# Velocity P-wave (km/s) = 6.56913 7.26861 6.92770
#
# Compressibility (1/GPa) = 0.01770069
#
# Stress axis : x y z
#
# Youngs Moduli (GPa) = 54.09330 76.15444 28.92121
#
# Poissons Ratio (x) = -0.21373 0.54005
# Poissons Ratio (y) = -0.15182 0.24237
# Poissons Ratio (z) = 1.01008 0.63821
#
# Static dielectric constant tensor:
#      x y z
#    x 1.900660 0.000000 0.000000 
#    y 0.000000 2.038190 0.000000 
#    z 0.000000 0.000000 1.742390 
# 
# From -- ./inp_files/18162.got.cif
#   From: 2010.05.17/outbox.cif.g08.bks.cpg/sg60_10_cif.got.tgz:18162.got - 2010.06.03 14:59:27.
