data_PCOD9457953
_publ_section_title
;
Structure prediction by ZEFSAII (Michael W. Deem and Ramdas Pophale) SiO2 
 PCOD9457953
Probable space group: P B C N
;
_chemical_formula_sum "Si O2"
_cell_formula_units_Z 56
_cell_length_a 6.039326
_cell_length_b 13.505076
_cell_length_c 30.788589
_cell_angle_alpha 90.000000
_cell_angle_beta 90.000000
_cell_angle_gamma 90.000000
_cell_volume 2511.165245
_symmetry_space_group_name_H-M "P B C N"
_symmetry_group_IT_number 60
_symmetry_cell_setting 'orthorhombic'
loop_
_space_group_symop_operation_xyz
x,y,z
1/2-x,1/2-y,1/2+z
1/2+x,1/2-y,-z
-x,y,1/2-z
-x,-y,-z
1/2+x,1/2+y,1/2-z
1/2-x,1/2+y,z
x,-y,1/2+z
loop_
_atom_site_type_symbol
_atom_site_label
_atom_site_fract_x
_atom_site_fract_y
_atom_site_fract_z
Si Si1 0.749694 0.178954 0.768652
Si Si2 0.114833 0.534420 0.208753
Si Si3 0.298238 0.076704 0.363799
Si Si4 0.512887 0.558794 0.571689
Si Si5 0.699419 0.931514 0.985127
Si Si6 0.594006 0.691248 0.340983
Si Si7 0.376640 0.782639 0.581881
O O1 0.500000 0.212823 0.750000
O O2 0.727633 0.061241 0.770964
O O3 0.716538 0.218921 0.817303
O O4 0.000000 0.200244 0.750000
O O5 0.289393 0.599914 0.183251
O O6 0.000000 0.586382 0.250000
O O7 0.930862 0.514087 0.172062
O O8 0.456382 0.140523 0.394917
O O9 0.161213 0.162347 0.338556
O O10 0.147650 0.002960 0.392223
O O11 0.650146 0.575047 0.527482
O O12 0.312750 0.490109 0.554916
O O13 0.444612 0.668617 0.586028
O O14 0.641509 0.823106 0.966969
O O15 0.500000 0.000000 0.000000
O O16 0.649362 0.703023 0.391608
#
# Coordination Sequence:
#
# PCOD9457953 Si02
#       7
#     8   8   8   8   8   8   8
#     4  11  28  46  74 108 143 190 249 302 375 452
#     4  10  26  45  71 100 140 186 234 300 364 437
#     4  11  25  45  67 107 138 189 242 301 369 454
#     4  11  26  43  73  95 143 184 238 302 370 450
#     4  11  24  46  64 101 139 182 238 299 361 456
#     4  11  26  43  70  97 149 179 243 291 369 430
#     4  11  26  43  67 102 136 186 236 295 373 438
#
# _framework density 22.300405000000001
#
# number of rings (size 3 to 8) (size 9 to 14) (size 15 to 20)
#    0.000    1.143    2.857    0.429   16.000    1.143 
#    0.000    0.000    0.000    0.000    0.000    0.000 
#    0.000    0.000    0.000    0.000    0.000    0.000 
#
# Total GULP energy -312297.702694 kJ/mol
# GULP energy per Si atom -5576.744691 kJ/mol
# Density = 2.224965 g / cm^3
# Si number density = 22.300405 Si / 1000 Ang^3
#
#
#
# Elastic Constant Matrix: (Units=GPa)
#
#
# Indices 1 2 3 4 5 6 
#
# 1 87.9263 15.2204 27.6673 0.0000 0.0000 0.0000
# 2 15.2204 85.1970 13.1976 0.0000 0.0000 0.0000
# 3 27.6673 13.1976 81.7820 0.0000 0.0000 0.0000
# 4 0.0000 0.0000 0.0000 45.9725 0.0000 0.0000
# 5 0.0000 0.0000 0.0000 0.0000 21.8624 0.0000
# 6 0.0000 0.0000 0.0000 0.0000 0.0000 11.2981
#
#
#
# Elastic Compliance Matrix: (Units=1/GPa)
#
#
# Indices 1 2 3 4 5 6 
#
# 1 0.012958 -0.001678 -0.004113 0.000000 0.000000 0.000000
# 2 -0.001678 0.012256 -0.001410 0.000000 0.000000 0.000000
# 3 -0.004113 -0.001410 0.013847 0.000000 0.000000 0.000000
# 4 0.000000 0.000000 0.000000 0.021752 0.000000 0.000000
# 5 0.000000 0.000000 0.000000 0.000000 0.045741 0.000000
# 6 0.000000 0.000000 0.000000 0.000000 0.000000 0.088510
#
#
# Mechanical properties :
#
#
# Convention : Reuss Voigt Hill
#
# Bulk Modulus (GPa) = 40.55425 40.78622 40.67023
# Shear Modulus (GPa) = 22.96905 29.08128 26.02516
#
# Velocity S-wave (km/s) = 3.21282 3.61511 3.41988
# Velocity P-wave (km/s) = 5.65578 5.97951 5.81989
#
# Compressibility (1/GPa) = 0.02465833
#
# Stress axis : x y z
#
# Youngs Moduli (GPa) = 77.17364 81.59485 72.21976
#
# Poissons Ratio (x) = 0.13690 0.29704
# Poissons Ratio (y) = 0.12948 0.10184
# Poissons Ratio (z) = 0.31741 0.11506
#
# Static dielectric constant tensor:
#      x y z
#    x 1.903000 0.000000 0.000000 
#    y 0.000000 1.851460 0.000000 
#    z 0.000000 0.000000 2.228870 
# 
# From -- ./inp_files/25682.got.cif
#   From: 2010.05.17/outbox.cif.g08.bks.cpg/sg60_13_cif.got.tgz:25682.got - 2010.06.03 14:59:27.
