data_PCOD9457267
_publ_section_title
;
Structure prediction by ZEFSAII (Michael W. Deem and Ramdas Pophale) SiO2 
 PCOD9457267
Probable space group: P B C N
;
_chemical_formula_sum "Si O2"
_cell_formula_units_Z 48
_cell_length_a 9.130169
_cell_length_b 17.257728
_cell_length_c 12.122504
_cell_angle_alpha 90.000000
_cell_angle_beta 90.000000
_cell_angle_gamma 90.000000
_cell_volume 1910.094140
_symmetry_space_group_name_H-M "P B C N"
_symmetry_group_IT_number 60
_symmetry_cell_setting 'orthorhombic'
loop_
_space_group_symop_operation_xyz
x,y,z
1/2-x,1/2-y,1/2+z
1/2+x,1/2-y,-z
-x,y,1/2-z
-x,-y,-z
1/2+x,1/2+y,1/2-z
1/2-x,1/2+y,z
x,-y,1/2+z
loop_
_atom_site_type_symbol
_atom_site_label
_atom_site_fract_x
_atom_site_fract_y
_atom_site_fract_z
Si Si1 0.693593 0.432529 0.324920
Si Si2 0.874461 0.916114 0.084604
Si Si3 0.000000 0.194308 0.250000
Si Si4 0.777813 0.070693 0.171831
Si Si5 0.000000 0.348995 0.750000
Si Si6 0.187724 0.698645 0.046770
Si Si7 0.605474 0.181584 0.915961
O O1 0.548425 0.417185 0.395739
O O2 0.680355 0.387995 0.206226
O O3 0.699041 0.520937 0.285248
O O4 0.840621 0.401349 0.377726
O O5 0.814072 0.004429 0.082219
O O6 0.810387 0.864701 0.987204
O O7 0.895190 0.138760 0.179132
O O8 0.903920 0.252823 0.321974
O O9 0.611951 0.100545 0.175503
O O10 0.891423 0.304319 0.833516
O O11 0.261587 0.780437 0.015744
O O12 0.051355 0.680532 0.968777
#
# Coordination Sequence:
#
# PCOD9457267 Si02
#       7
#     8   8   4   8   4   8   8
#     4   9  20  45  75 105 142 187 232 303 371 449
#     4   9  20  44  77 101 142 185 244 283 380 442
#     4  12  22  49  75 112 144 188 242 304 368 455
#     4  10  22  47  74 105 145 196 231 305 373 442
#     4  12  28  47  67  96 154 186 254 310 366 429
#     4  12  28  46  65 110 142 201 243 311 369 446
#     4  12  27  43  73 105 144 186 248 301 371 445
#
# _framework density 25.129653000000001
#
# number of rings (size 3 to 8) (size 9 to 14) (size 15 to 20)
#    1.000    0.333    3.333    2.000    4.667    3.333 
#    0.000    1.667    0.000    0.000    0.000    0.000 
#    0.000    0.000    0.000    0.000    0.000    0.000 
#
# Total GULP energy -268299.431820 kJ/mol
# GULP energy per Si atom -5589.571496 kJ/mol
# Density = 2.507246 g / cm^3
# Si number density = 25.129653 Si / 1000 Ang^3
#
#
#
# Elastic Constant Matrix: (Units=GPa)
#
#
# Indices 1 2 3 4 5 6 
#
# 1 116.8064 20.1729 27.8338 0.0000 0.0000 0.0000
# 2 20.1729 64.5298 24.8232 0.0000 0.0000 0.0000
# 3 27.8338 24.8232 62.5990 0.0000 0.0000 0.0000
# 4 0.0000 0.0000 0.0000 24.8408 0.0000 0.0000
# 5 0.0000 0.0000 0.0000 0.0000 44.3845 0.0000
# 6 0.0000 0.0000 0.0000 0.0000 0.0000 73.8039
#
#
#
# Elastic Compliance Matrix: (Units=1/GPa)
#
#
# Indices 1 2 3 4 5 6 
#
# 1 0.009718 -0.001623 -0.003677 0.000000 0.000000 0.000000
# 2 -0.001623 0.018557 -0.006637 0.000000 0.000000 0.000000
# 3 -0.003677 -0.006637 0.020242 0.000000 0.000000 0.000000
# 4 0.000000 0.000000 0.000000 0.040256 0.000000 0.000000
# 5 0.000000 0.000000 0.000000 0.000000 0.022530 0.000000
# 6 0.000000 0.000000 0.000000 0.000000 0.000000 0.013549
#
#
# Mechanical properties :
#
#
# Convention : Reuss Voigt Hill
#
# Bulk Modulus (GPa) = 40.58173 43.28835 41.93504
# Shear Modulus (GPa) = 31.85897 40.01284 35.93590
#
# Velocity S-wave (km/s) = 3.56446 3.99464 3.78566
# Velocity P-wave (km/s) = 5.75539 6.20802 5.98599
#
# Compressibility (1/GPa) = 0.02464163
#
# Stress axis : x y z
#
# Youngs Moduli (GPa) = 102.90431 53.88717 49.40338
#
# Poissons Ratio (x) = 0.08748 0.18166
# Poissons Ratio (y) = 0.16705 0.32789
# Poissons Ratio (z) = 0.37839 0.35765
#
# Static dielectric constant tensor:
#      x y z
#    x 2.211530 0.000000 0.000000 
#    y 0.000000 1.952650 0.000000 
#    z 0.000000 0.000000 2.198160 
# 
# From -- ./inp_files/15078.got.cif
#   From: 2010.05.17/outbox.cif.g08.bks.cpg/sg60_8_cif.got.tgz:15078.got - 2010.06.03 14:59:27.
