data_PCOD9457650
_publ_section_title
;
Structure prediction by ZEFSAII (Michael W. Deem and Ramdas Pophale) SiO2 
 PCOD9457650
Probable space group: P B C N
;
_chemical_formula_sum "Si O2"
_cell_formula_units_Z 64
_cell_length_a 10.681911
_cell_length_b 31.502548
_cell_length_c 8.509455
_cell_angle_alpha 90.000000
_cell_angle_beta 90.000000
_cell_angle_gamma 90.000000
_cell_volume 2863.494697
_symmetry_space_group_name_H-M "P B C N"
_symmetry_group_IT_number 60
_symmetry_cell_setting 'orthorhombic'
loop_
_space_group_symop_operation_xyz
x,y,z
1/2-x,1/2-y,1/2+z
1/2+x,1/2-y,-z
-x,y,1/2-z
-x,-y,-z
1/2+x,1/2+y,1/2-z
1/2-x,1/2+y,z
x,-y,1/2+z
loop_
_atom_site_type_symbol
_atom_site_label
_atom_site_fract_x
_atom_site_fract_y
_atom_site_fract_z
Si Si1 0.399740 0.043664 0.108839
Si Si2 0.860324 0.196514 0.817488
Si Si3 0.635497 0.699108 0.327186
Si Si4 0.948305 0.046648 0.526855
Si Si5 0.699547 0.394807 0.812370
Si Si6 0.691556 0.038436 0.723362
Si Si7 0.190007 0.102427 0.562170
Si Si8 0.749842 0.248843 0.075747
O O1 0.500000 0.046266 0.250000
O O2 0.328389 0.088384 0.117093
O O3 0.317451 0.003806 0.171540
O O4 0.412309 0.036731 0.918774
O O5 0.829080 0.150152 0.879881
O O6 0.754517 0.210615 0.690968
O O7 0.000000 0.196303 0.750000
O O8 0.853047 0.232209 0.953729
O O9 0.500000 0.699767 0.250000
O O10 0.660330 0.651036 0.378107
O O11 0.744457 0.710654 0.200919
O O12 0.642009 0.735703 0.457780
O O13 0.900109 0.070978 0.372719
O O14 0.824133 0.041307 0.632406
O O15 0.061910 0.075852 0.587467
O O16 0.000000 0.000000 0.500000
O O17 0.709970 0.395745 0.624890
O O18 0.700216 0.078110 0.843066
#
# Coordination Sequence:
#
# PCOD9457650 Si02
#       8
#     8   8   8   8   8   8   8   8
#     4  11  24  45  66  89 127 180 228 272 327 386
#     4  11  23  42  68  96 132 176 222 276 351 408
#     4  11  22  43  70  98 134 177 219 275 354 404
#     4  11  23  39  61 105 142 178 213 271 339 412
#     4  11  24  40  68  97 133 179 222 274 332 420
#     4  11  24  38  64  94 128 170 224 269 316 395
#     4  12  23  39  66 102 138 173 213 276 346 414
#     4  10  24  40  66  99 130 170 227 279 326 421
#
# _framework density 22.350313
#
# number of rings (size 3 to 8) (size 9 to 14) (size 15 to 20)
#    0.000    1.000    1.250    6.375    5.250    2.000 
#    0.000    3.750    0.000    0.750    0.000    0.000 
#    0.000    0.000    0.000    0.000    0.000    0.000 
#
# Total GULP energy -356749.570280 kJ/mol
# GULP energy per Si atom -5574.212036 kJ/mol
# Density = 2.229944 g / cm^3
# Si number density = 22.350313 Si / 1000 Ang^3
#
#
#
# Elastic Constant Matrix: (Units=GPa)
#
#
# Indices 1 2 3 4 5 6 
#
# 1 40.9403 45.0901 16.7981 0.0000 0.0000 0.0000
# 2 45.0901 144.3779 45.8664 0.0000 0.0000 0.0000
# 3 16.7981 45.8664 91.9593 0.0000 0.0000 0.0000
# 4 0.0000 0.0000 0.0000 47.5062 0.0000 0.0000
# 5 0.0000 0.0000 0.0000 0.0000 42.3468 0.0000
# 6 0.0000 0.0000 0.0000 0.0000 0.0000 30.7702
#
#
#
# Elastic Compliance Matrix: (Units=1/GPa)
#
#
# Indices 1 2 3 4 5 6 
#
# 1 0.037342 -0.011283 -0.001194 0.000000 0.000000 0.000000
# 2 -0.011283 0.011640 -0.003744 0.000000 0.000000 0.000000
# 3 -0.001194 -0.003744 0.012960 0.000000 0.000000 0.000000
# 4 0.000000 0.000000 0.000000 0.021050 0.000000 0.000000
# 5 0.000000 0.000000 0.000000 0.000000 0.023615 0.000000
# 6 0.000000 0.000000 0.000000 0.000000 0.000000 0.032499
#
#
# Mechanical properties :
#
#
# Convention : Reuss Voigt Hill
#
# Bulk Modulus (GPa) = 33.89865 54.75408 44.32636
# Shear Modulus (GPa) = 27.56633 35.42615 31.49624
#
# Velocity S-wave (km/s) = 3.51576 3.98558 3.75801
# Velocity P-wave (km/s) = 5.62855 6.76247 6.22140
#
# Compressibility (1/GPa) = 0.02949970
#
# Stress axis : x y z
#
# Youngs Moduli (GPa) = 26.77928 85.91392 77.16052
#
# Poissons Ratio (x) = 0.96937 0.09210
# Poissons Ratio (y) = 0.30215 0.28892
# Poissons Ratio (z) = 0.03197 0.32169
#
# Static dielectric constant tensor:
#      x y z
#    x 1.860330 0.000000 0.000000 
#    y 0.000000 1.762430 0.000000 
#    z 0.000000 0.000000 1.953560 
# 
# From -- ./inp_files/5317.got.cif
#   From: 2010.05.17/outbox.cif.g08.bks.cpg/sg60_3_cif.got.tgz:5317.got - 2010.06.03 14:59:27.
