data_PCOD9457360
_publ_section_title
;
Structure prediction by ZEFSAII (Michael W. Deem and Ramdas Pophale) SiO2 
 PCOD9457360
Probable space group: P B C N
;
_chemical_formula_sum "Si O2"
_cell_formula_units_Z 36
_cell_length_a 22.506292
_cell_length_b 13.079309
_cell_length_c 5.050961
_cell_angle_alpha 90.000000
_cell_angle_beta 90.000000
_cell_angle_gamma 90.000000
_cell_volume 1486.834961
_symmetry_space_group_name_H-M "P B C N"
_symmetry_group_IT_number 60
_symmetry_cell_setting 'orthorhombic'
loop_
_space_group_symop_operation_xyz
x,y,z
1/2-x,1/2-y,1/2+z
1/2+x,1/2-y,-z
-x,y,1/2-z
-x,-y,-z
1/2+x,1/2+y,1/2-z
1/2-x,1/2+y,z
x,-y,1/2+z
loop_
_atom_site_type_symbol
_atom_site_label
_atom_site_fract_x
_atom_site_fract_y
_atom_site_fract_z
Si Si1 0.317204 0.063276 0.841651
Si Si2 0.000000 0.574938 0.250000
Si Si3 0.222093 0.794002 0.469223
Si Si4 0.608853 0.223001 0.328004
Si Si5 0.429323 0.444668 0.195169
O O1 0.248759 0.097705 0.878209
O O2 0.357276 0.155641 0.951690
O O3 0.329138 0.970718 0.044315
O O4 0.943403 0.649407 0.231490
O O5 0.000000 0.500000 0.500000
O O6 0.261200 0.719759 0.274922
O O7 0.156592 0.760773 0.389783
O O8 0.582153 0.331641 0.416033
O O9 0.500000 0.453535 0.250000
O O10 0.404987 0.474347 0.483183
#
# Coordination Sequence:
#
# PCOD9457360 Si02
#       5
#     8   4   8   8   8
#     4  11  23  41  66 101 141 180 228 285 347 422
#     4  12  28  46  70 108 146 192 236 284 362 448
#     4  10  23  41  65  94 131 182 236 284 343 402
#     4  11  24  46  71 103 144 191 232 297 357 434
#     4  10  23  42  65  96 131 177 234 288 339 401
#
# _framework density 24.212505
#
# number of rings (size 3 to 8) (size 9 to 14) (size 15 to 20)
#    0.000    1.333    1.111    4.000    0.000   12.444 
#    0.000    0.000    0.000    0.000    0.000    0.000 
#    0.000    0.000    0.000    0.000    0.000    0.000 
#
# Total GULP energy -201210.673440 kJ/mol
# GULP energy per Si atom -5589.185373 kJ/mol
# Density = 2.415740 g / cm^3
# Si number density = 24.212505 Si / 1000 Ang^3
#
#
#
# Elastic Constant Matrix: (Units=GPa)
#
#
# Indices 1 2 3 4 5 6 
#
# 1 108.7018 13.8376 15.6282 0.0000 0.0000 0.0000
# 2 13.8376 79.0239 22.5631 0.0000 0.0000 0.0000
# 3 15.6282 22.5631 87.6526 0.0000 0.0000 0.0000
# 4 0.0000 0.0000 0.0000 35.5398 0.0000 0.0000
# 5 0.0000 0.0000 0.0000 0.0000 21.8659 0.0000
# 6 0.0000 0.0000 0.0000 0.0000 0.0000 57.2092
#
#
#
# Elastic Compliance Matrix: (Units=1/GPa)
#
#
# Indices 1 2 3 4 5 6 
#
# 1 0.009560 -0.001282 -0.001375 0.000000 0.000000 0.000000
# 2 -0.001282 0.013830 -0.003332 0.000000 0.000000 0.000000
# 3 -0.001375 -0.003332 0.012511 0.000000 0.000000 0.000000
# 4 0.000000 0.000000 0.000000 0.028137 0.000000 0.000000
# 5 0.000000 0.000000 0.000000 0.000000 0.045733 0.000000
# 6 0.000000 0.000000 0.000000 0.000000 0.000000 0.017480
#
#
# Mechanical properties :
#
#
# Convention : Reuss Voigt Hill
#
# Bulk Modulus (GPa) = 41.79540 42.15957 41.97749
# Shear Modulus (GPa) = 33.96668 37.81295 35.88981
#
# Velocity S-wave (km/s) = 3.74954 3.95614 3.85422
# Velocity P-wave (km/s) = 6.00373 6.19016 6.09766
#
# Compressibility (1/GPa) = 0.02392608
#
# Stress axis : x y z
#
# Youngs Moduli (GPa) = 104.59966 72.30635 79.92733
#
# Poissons Ratio (x) = 0.09267 0.10987
# Poissons Ratio (y) = 0.13405 0.26628
# Poissons Ratio (z) = 0.14379 0.24089
#
# Static dielectric constant tensor:
#      x y z
#    x 2.005590 0.000000 0.000000 
#    y 0.000000 1.941830 0.000000 
#    z 0.000000 0.000000 1.882210 
# 
# From -- ./inp_files/2274.got.cif
#   From: 2010.05.17/outbox.cif.g08.bks.cpg/sg60_2_cif.got.tgz:2274.got - 2010.06.03 14:59:27.
