data_PCOD9457805
_publ_section_title
;
Structure prediction by ZEFSAII (Michael W. Deem and Ramdas Pophale) SiO2 
 PCOD9457805
Probable space group: P B C N
;
_chemical_formula_sum "Si O2"
_cell_formula_units_Z 44
_cell_length_a 18.660887
_cell_length_b 9.224241
_cell_length_c 10.340079
_cell_angle_alpha 90.000000
_cell_angle_beta 90.000000
_cell_angle_gamma 90.000000
_cell_volume 1779.863845
_symmetry_space_group_name_H-M "P B C N"
_symmetry_group_IT_number 60
_symmetry_cell_setting 'orthorhombic'
loop_
_space_group_symop_operation_xyz
x,y,z
1/2-x,1/2-y,1/2+z
1/2+x,1/2-y,-z
-x,y,1/2-z
-x,-y,-z
1/2+x,1/2+y,1/2-z
1/2-x,1/2+y,z
x,-y,1/2+z
loop_
_atom_site_type_symbol
_atom_site_label
_atom_site_fract_x
_atom_site_fract_y
_atom_site_fract_z
Si Si1 0.932177 0.436718 0.081654
Si Si2 0.151013 0.094643 0.990476
Si Si3 0.185043 0.111852 0.706415
Si Si4 0.700555 0.085383 0.393754
Si Si5 0.998719 0.826098 0.994880
Si Si6 0.500000 0.148339 0.250000
O O1 0.861481 0.448433 0.995496
O O2 0.952834 0.267603 0.102624
O O3 0.936882 0.537412 0.207656
O O4 0.000000 0.500000 0.000000
O O5 0.150171 0.059596 0.839185
O O6 0.086551 0.201521 0.024857
O O7 0.231021 0.146841 0.023375
O O8 0.183366 0.283075 0.701035
O O9 0.145250 0.046069 0.581718
O O10 0.264997 0.047160 0.686245
O O11 0.017367 0.755369 0.132961
O O12 0.000000 0.000000 0.000000
#
# Coordination Sequence:
#
# PCOD9457805 Si02
#       6
#     8   8   8   8   8   4
#     4  10  24  46  68 110 149 201 254 315 383 463
#     4  10  26  44  74 104 149 195 253 319 382 462
#     4  10  25  45  74 106 149 188 262 313 391 463
#     4  10  25  44  73 105 145 196 253 313 388 459
#     4  11  25  46  73 109 153 198 256 317 393 465
#     4  10  26  44  76 100 156 198 254 312 386 462
#
# _framework density 24.720991999999999
#
# number of rings (size 3 to 8) (size 9 to 14) (size 15 to 20)
#    1.091    0.727    0.000    1.091   15.273    3.636 
#    3.273    0.000    0.000    0.000    0.000    0.000 
#    0.000    0.000    0.000    0.000    0.000    0.000 
#
# Total GULP energy -245749.142610 kJ/mol
# GULP energy per Si atom -5585.207787 kJ/mol
# Density = 2.466473 g / cm^3
# Si number density = 24.720992 Si / 1000 Ang^3
#
#
#
# Elastic Constant Matrix: (Units=GPa)
#
#
# Indices 1 2 3 4 5 6 
#
# 1 121.1159 27.2737 10.9936 0.0000 0.0000 0.0000
# 2 27.2737 159.2674 55.9482 0.0000 0.0000 0.0000
# 3 10.9936 55.9482 96.1755 0.0000 0.0000 0.0000
# 4 0.0000 0.0000 0.0000 41.5682 0.0000 0.0000
# 5 0.0000 0.0000 0.0000 0.0000 20.6371 0.0000
# 6 0.0000 0.0000 0.0000 0.0000 0.0000 41.6064
#
#
#
# Elastic Compliance Matrix: (Units=1/GPa)
#
#
# Indices 1 2 3 4 5 6 
#
# 1 0.008590 -0.001415 -0.000159 0.000000 0.000000 0.000000
# 2 -0.001415 0.008125 -0.004565 0.000000 0.000000 0.000000
# 3 -0.000159 -0.004565 0.013071 0.000000 0.000000 0.000000
# 4 0.000000 0.000000 0.000000 0.024057 0.000000 0.000000
# 5 0.000000 0.000000 0.000000 0.000000 0.048456 0.000000
# 6 0.000000 0.000000 0.000000 0.000000 0.000000 0.024035
#
#
# Mechanical properties :
#
#
# Convention : Reuss Voigt Hill
#
# Bulk Modulus (GPa) = 57.11470 62.77666 59.94568
# Shear Modulus (GPa) = 34.61496 39.58523 37.10010
#
# Velocity S-wave (km/s) = 3.74602 4.00594 3.87816
# Velocity P-wave (km/s) = 6.47025 6.84441 6.65996
#
# Compressibility (1/GPa) = 0.01750863
#
# Stress axis : x y z
#
# Youngs Moduli (GPa) = 116.41934 123.08384 76.50462
#
# Poissons Ratio (x) = 0.17419 0.01213
# Poissons Ratio (y) = 0.16476 0.34921
# Poissons Ratio (z) = 0.01846 0.56182
#
# Static dielectric constant tensor:
#      x y z
#    x 2.143800 0.000000 0.000000 
#    y 0.000000 1.980260 0.000000 
#    z 0.000000 0.000000 2.030480 
# 
# From -- ./inp_files/17269.got.cif
#   From: 2010.05.17/outbox.cif.g08.bks.cpg/sg60_9_cif.got.tgz:17269.got - 2010.06.03 14:59:27.
