data_PCOD9457310
_publ_section_title
;
Structure prediction by ZEFSAII (Michael W. Deem and Ramdas Pophale) SiO2 
 PCOD9457310
Probable space group: P B C N
;
_chemical_formula_sum "Si O2"
_cell_formula_units_Z 48
_cell_length_a 27.678405
_cell_length_b 5.288214
_cell_length_c 14.471455
_cell_angle_alpha 90.000000
_cell_angle_beta 90.000000
_cell_angle_gamma 90.000000
_cell_volume 2118.177155
_symmetry_space_group_name_H-M "P B C N"
_symmetry_group_IT_number 60
_symmetry_cell_setting 'orthorhombic'
loop_
_space_group_symop_operation_xyz
x,y,z
1/2-x,1/2-y,1/2+z
1/2+x,1/2-y,-z
-x,y,1/2-z
-x,-y,-z
1/2+x,1/2+y,1/2-z
1/2-x,1/2+y,z
x,-y,1/2+z
loop_
_atom_site_type_symbol
_atom_site_label
_atom_site_fract_x
_atom_site_fract_y
_atom_site_fract_z
Si Si1 0.907091 0.448663 0.301542
Si Si2 0.781092 0.824781 0.405362
Si Si3 0.956190 0.374045 0.121251
Si Si4 0.350297 0.446938 0.251325
Si Si5 0.545843 0.741585 0.473269
Si Si6 0.631023 0.398097 0.545186
O O1 0.949469 0.382497 0.229703
O O2 0.887316 0.723253 0.275294
O O3 0.928484 0.440711 0.403568
O O4 0.868272 0.220156 0.287834
O O5 0.754541 0.560039 0.420232
O O6 0.802077 0.864530 0.302051
O O7 0.826357 0.836714 0.475287
O O8 0.901104 0.326642 0.087502
O O9 0.996209 0.179850 0.081641
O O10 0.969111 0.631962 0.069711
O O11 0.348614 0.465345 0.362428
O O12 0.589167 0.551344 0.492508
#
# Coordination Sequence:
#
# PCOD9457310 Si02
#       6
#     8   8   8   8   8   8
#     4  11  22  41  67  99 136 187 219 273 333 401
#     4  12  28  46  73 102 129 175 232 293 356 415
#     4  10  23  39  65 104 141 181 232 270 337 412
#     4  11  24  44  70  95 137 173 226 280 346 406
#     4  11  21  40  66  99 143 185 227 277 327 418
#     4  11  24  44  71  98 139 184 225 286 353 412
#
# _framework density 22.660993000000001
#
# number of rings (size 3 to 8) (size 9 to 14) (size 15 to 20)
#    0.000    1.000    3.333    3.000    2.333    1.333 
#    0.000    1.667    0.000    0.000    0.000    0.000 
#    0.000    0.000    0.000    0.000    0.000    0.000 
#
# Total GULP energy -268108.964196 kJ/mol
# GULP energy per Si atom -5585.603421 kJ/mol
# Density = 2.260942 g / cm^3
# Si number density = 22.660993 Si / 1000 Ang^3
#
#
#
# Elastic Constant Matrix: (Units=GPa)
#
#
# Indices 1 2 3 4 5 6 
#
# 1 85.3851 -8.8995 15.1454 0.0000 0.0000 0.0000
# 2 -8.8995 44.5765 1.6680 0.0000 0.0000 0.0000
# 3 15.1454 1.6680 71.0890 0.0000 0.0000 0.0000
# 4 0.0000 0.0000 0.0000 21.5598 0.0000 0.0000
# 5 0.0000 0.0000 0.0000 0.0000 49.1930 0.0000
# 6 0.0000 0.0000 0.0000 0.0000 0.0000 33.1165
#
#
#
# Elastic Compliance Matrix: (Units=1/GPa)
#
#
# Indices 1 2 3 4 5 6 
#
# 1 0.012463 0.002590 -0.002716 0.000000 0.000000 0.000000
# 2 0.002590 0.022991 -0.001091 0.000000 0.000000 0.000000
# 3 -0.002716 -0.001091 0.014671 0.000000 0.000000 0.000000
# 4 0.000000 0.000000 0.000000 0.046383 0.000000 0.000000
# 5 0.000000 0.000000 0.000000 0.000000 0.020328 0.000000
# 6 0.000000 0.000000 0.000000 0.000000 0.000000 0.030196
#
#
# Mechanical properties :
#
#
# Convention : Reuss Voigt Hill
#
# Bulk Modulus (GPa) = 20.96835 24.09759 22.53297
# Shear Modulus (GPa) = 30.23622 33.64964 31.94293
#
# Velocity S-wave (km/s) = 3.65675 3.85764 3.75854
# Velocity P-wave (km/s) = 5.20598 5.52258 5.36662
#
# Compressibility (1/GPa) = 0.04769093
#
# Stress axis : x y z
#
# Youngs Moduli (GPa) = 80.23528 43.49480 68.16112
#
# Poissons Ratio (x) = -0.11265 0.18513
# Poissons Ratio (y) = -0.20780 0.07438
# Poissons Ratio (z) = 0.21792 0.04746
#
# Static dielectric constant tensor:
#      x y z
#    x 1.855060 0.000000 0.000000 
#    y 0.000000 1.902920 0.000000 
#    z 0.000000 0.000000 1.850790 
# 
# From -- ./inp_files/18038.got.cif
#   From: 2010.05.17/outbox.cif.g08.bks.cpg/sg60_10_cif.got.tgz:18038.got - 2010.06.03 14:59:27.
