data_PCOD9457491
_publ_section_title
;
Structure prediction by ZEFSAII (Michael W. Deem and Ramdas Pophale) SiO2 
 PCOD9457491
Probable space group: P B C N
;
_chemical_formula_sum "Si O2"
_cell_formula_units_Z 40
_cell_length_a 11.224815
_cell_length_b 8.343751
_cell_length_c 18.356589
_cell_angle_alpha 90.000000
_cell_angle_beta 90.000000
_cell_angle_gamma 90.000000
_cell_volume 1719.224183
_symmetry_space_group_name_H-M "P B C N"
_symmetry_group_IT_number 60
_symmetry_cell_setting 'orthorhombic'
loop_
_space_group_symop_operation_xyz
x,y,z
1/2-x,1/2-y,1/2+z
1/2+x,1/2-y,-z
-x,y,1/2-z
-x,-y,-z
1/2+x,1/2+y,1/2-z
1/2-x,1/2+y,z
x,-y,1/2+z
loop_
_atom_site_type_symbol
_atom_site_label
_atom_site_fract_x
_atom_site_fract_y
_atom_site_fract_z
Si Si1 0.600075 0.942200 0.554720
Si Si2 0.407514 0.506209 0.617437
Si Si3 0.208927 0.290330 0.201594
Si Si4 0.388958 0.097127 0.281078
Si Si5 0.359152 0.572775 0.953940
O O1 0.567176 0.942024 0.638883
O O2 0.624523 0.760027 0.533417
O O3 0.500000 0.000000 0.500000
O O4 0.721030 0.041434 0.557265
O O5 0.366328 0.338274 0.654400
O O6 0.319056 0.636672 0.654112
O O7 0.551765 0.525865 0.612773
O O8 0.384034 0.514412 0.530600
O O9 0.269636 0.199099 0.270148
O O10 0.134651 0.438097 0.233447
O O11 0.500000 0.195299 0.250000
#
# Coordination Sequence:
#
# PCOD9457491 Si02
#       5
#     8   8   8   8   8
#     4  12  29  47  74 103 147 187 244 302 358 429
#     4  10  23  43  73 110 142 189 234 292 361 431
#     4  10  23  44  73 103 148 181 239 298 360 427
#     4  11  25  44  69 102 139 185 236 287 362 423
#     4  11  26  44  73 104 145 189 243 291 362 428
#
# _framework density 23.266307999999999
#
# number of rings (size 3 to 8) (size 9 to 14) (size 15 to 20)
#    0.000    1.200    0.000    3.600   16.800    1.600 
#    0.000    4.000    0.000    0.000    0.000    0.000 
#    0.000    0.000    0.000    0.000    0.000    0.000 
#
# Total GULP energy -223422.337262 kJ/mol
# GULP energy per Si atom -5585.558432 kJ/mol
# Density = 2.321335 g / cm^3
# Si number density = 23.266308 Si / 1000 Ang^3
#
#
#
# Elastic Constant Matrix: (Units=GPa)
#
#
# Indices 1 2 3 4 5 6 
#
# 1 148.3689 48.1169 59.8291 0.0000 0.0000 0.0000
# 2 48.1169 96.7194 12.8854 0.0000 0.0000 0.0000
# 3 59.8291 12.8854 117.3203 0.0000 0.0000 0.0000
# 4 0.0000 0.0000 0.0000 47.4709 0.0000 0.0000
# 5 0.0000 0.0000 0.0000 0.0000 51.6112 0.0000
# 6 0.0000 0.0000 0.0000 0.0000 0.0000 60.4225
#
#
#
# Elastic Compliance Matrix: (Units=1/GPa)
#
#
# Indices 1 2 3 4 5 6 
#
# 1 0.010025 -0.004370 -0.004633 0.000000 0.000000 0.000000
# 2 -0.004370 0.012398 0.000867 0.000000 0.000000 0.000000
# 3 -0.004633 0.000867 0.010791 0.000000 0.000000 0.000000
# 4 0.000000 0.000000 0.000000 0.021066 0.000000 0.000000
# 5 0.000000 0.000000 0.000000 0.000000 0.019376 0.000000
# 6 0.000000 0.000000 0.000000 0.000000 0.000000 0.016550
#
#
# Mechanical properties :
#
#
# Convention : Reuss Voigt Hill
#
# Bulk Modulus (GPa) = 59.02352 67.11903 63.07128
# Shear Modulus (GPa) = 44.59325 48.00605 46.29965
#
# Velocity S-wave (km/s) = 4.38270 4.54732 4.46577
# Velocity P-wave (km/s) = 7.14384 7.51542 7.33199
#
# Compressibility (1/GPa) = 0.01694240
#
# Stress axis : x y z
#
# Youngs Moduli (GPa) = 99.74723 80.65900 92.67075
#
# Poissons Ratio (x) = 0.35251 0.42930
# Poissons Ratio (y) = 0.43593 -0.08035
# Poissons Ratio (z) = 0.46209 -0.06993
#
# Static dielectric constant tensor:
#      x y z
#    x 2.027480 0.000000 0.000000 
#    y 0.000000 1.837000 0.000000 
#    z 0.000000 0.000000 2.067940 
# 
# From -- ./inp_files/19869.got.cif
#   From: 2010.05.17/outbox.cif.g08.bks.cpg/sg60_10_cif.got.tgz:19869.got - 2010.06.03 14:59:27.
