data_PCOD9457588
_publ_section_title
;
Structure prediction by ZEFSAII (Michael W. Deem and Ramdas Pophale) SiO2 
 PCOD9457588
Probable space group: P B C N
;
_chemical_formula_sum "Si O2"
_cell_formula_units_Z 32
_cell_length_a 9.308407
_cell_length_b 9.182628
_cell_length_c 13.453170
_cell_angle_alpha 90.000000
_cell_angle_beta 90.000000
_cell_angle_gamma 90.000000
_cell_volume 1149.918299
_symmetry_space_group_name_H-M "P B C N"
_symmetry_group_IT_number 60
_symmetry_cell_setting 'orthorhombic'
loop_
_space_group_symop_operation_xyz
x,y,z
1/2-x,1/2-y,1/2+z
1/2+x,1/2-y,-z
-x,y,1/2-z
-x,-y,-z
1/2+x,1/2+y,1/2-z
1/2-x,1/2+y,z
x,-y,1/2+z
loop_
_atom_site_type_symbol
_atom_site_label
_atom_site_fract_x
_atom_site_fract_y
_atom_site_fract_z
Si Si1 0.957755 0.962635 0.634826
Si Si2 0.256918 0.217411 0.825968
Si Si3 0.710435 0.659426 0.898718
Si Si4 0.552322 0.136884 0.060626
O O1 0.830850 0.084071 0.622733
O O2 0.000000 0.978518 0.750000
O O3 0.106606 0.016694 0.583895
O O4 0.897686 0.797167 0.627915
O O5 0.276131 0.170178 0.711761
O O6 0.142537 0.350869 0.836793
O O7 0.591080 0.781852 0.909633
O O8 0.827811 0.687854 0.981577
O O9 0.500000 0.000000 0.000000
#
# Coordination Sequence:
#
# PCOD9457588 Si02
#       4
#     8   8   8   8
#     4   9  21  43  68 104 144 193 248 304 375 461
#     4  10  23  46  72 101 153 199 246 314 387 456
#     4  10  25  48  70 111 151 196 258 317 394 469
#     4  11  26  45  74 109 147 198 259 322 385 476
#
# _framework density 27.828064000000001
#
# number of rings (size 3 to 8) (size 9 to 14) (size 15 to 20)
#    0.000    2.000    0.000    2.250   14.000    3.000 
#    0.000    0.000    0.000    0.000    0.000    0.000 
#    0.000    0.000    0.000    0.000    0.000    0.000 
#
# Total GULP energy -178622.011072 kJ/mol
# GULP energy per Si atom -5581.937846 kJ/mol
# Density = 2.776473 g / cm^3
# Si number density = 27.828064 Si / 1000 Ang^3
#
#
#
# Elastic Constant Matrix: (Units=GPa)
#
#
# Indices 1 2 3 4 5 6 
#
# 1 118.5239 53.0223 5.7891 0.0000 0.0000 0.0000
# 2 53.0223 102.1073 39.5200 0.0000 0.0000 0.0000
# 3 5.7891 39.5200 109.7809 0.0000 0.0000 0.0000
# 4 0.0000 0.0000 0.0000 44.5529 0.0000 0.0000
# 5 0.0000 0.0000 0.0000 0.0000 60.1885 0.0000
# 6 0.0000 0.0000 0.0000 0.0000 0.0000 60.9770
#
#
#
# Elastic Compliance Matrix: (Units=1/GPa)
#
#
# Indices 1 2 3 4 5 6 
#
# 1 0.011275 -0.006535 0.001758 0.000000 0.000000 0.000000
# 2 -0.006535 0.015167 -0.005115 0.000000 0.000000 0.000000
# 3 0.001758 -0.005115 0.010858 0.000000 0.000000 0.000000
# 4 0.000000 0.000000 0.000000 0.022445 0.000000 0.000000
# 5 0.000000 0.000000 0.000000 0.000000 0.016614 0.000000
# 6 0.000000 0.000000 0.000000 0.000000 0.000000 0.016400
#
#
# Mechanical properties :
#
#
# Convention : Reuss Voigt Hill
#
# Bulk Modulus (GPa) = 57.09505 58.56386 57.82945
# Shear Modulus (GPa) = 42.23601 48.61572 45.42586
#
# Velocity S-wave (km/s) = 3.90006 4.18425 4.04465
# Velocity P-wave (km/s) = 6.39079 6.66592 6.52981
#
# Compressibility (1/GPa) = 0.01751465
#
# Stress axis : x y z
#
# Youngs Moduli (GPa) = 88.69326 65.93219 92.09946
#
# Poissons Ratio (x) = 0.43088 -0.16192
# Poissons Ratio (y) = 0.57963 0.47112
# Poissons Ratio (z) = -0.15593 0.33727
#
# Static dielectric constant tensor:
#      x y z
#    x 2.199390 0.000000 0.000000 
#    y 0.000000 2.370410 0.000000 
#    z 0.000000 0.000000 2.373970 
# 
# From -- ./inp_files/14445.got.cif
#   From: 2010.05.17/outbox.cif.g08.bks.cpg/sg60_8_cif.got.tgz:14445.got - 2010.06.03 14:59:27.
