data_PCOD9457748
_publ_section_title
;
Structure prediction by ZEFSAII (Michael W. Deem and Ramdas Pophale) SiO2 
 PCOD9457748
Probable space group: P B C N
;
_chemical_formula_sum "Si O2"
_cell_formula_units_Z 48
_cell_length_a 13.315275
_cell_length_b 19.073947
_cell_length_c 9.104661
_cell_angle_alpha 90.000000
_cell_angle_beta 90.000000
_cell_angle_gamma 90.000000
_cell_volume 2312.354909
_symmetry_space_group_name_H-M "P B C N"
_symmetry_group_IT_number 60
_symmetry_cell_setting 'orthorhombic'
loop_
_space_group_symop_operation_xyz
x,y,z
1/2-x,1/2-y,1/2+z
1/2+x,1/2-y,-z
-x,y,1/2-z
-x,-y,-z
1/2+x,1/2+y,1/2-z
1/2-x,1/2+y,z
x,-y,1/2+z
loop_
_atom_site_type_symbol
_atom_site_label
_atom_site_fract_x
_atom_site_fract_y
_atom_site_fract_z
Si Si1 0.771788 0.038402 0.815663
Si Si2 0.298446 0.857998 0.439337
Si Si3 0.932043 0.544583 0.393512
Si Si4 0.877473 0.898596 0.851612
Si Si5 0.543838 0.623708 0.916360
Si Si6 0.583594 0.730981 0.142908
O O1 0.733654 0.085955 0.682963
O O2 0.845917 0.087684 0.911745
O O3 0.670449 0.000933 0.873849
O O4 0.841738 0.971353 0.781851
O O5 0.396717 0.884990 0.525462
O O6 0.208676 0.861316 0.553451
O O7 0.323690 0.782952 0.372413
O O8 0.000000 0.556768 0.250000
O O9 0.000000 0.500000 0.500000
O O10 0.896294 0.841663 0.727026
O O11 0.966588 0.912327 0.968722
O O12 0.500000 0.621726 0.750000
O O13 0.549970 0.702798 0.982896
O O14 0.500000 0.765816 0.250000
#
# Coordination Sequence:
#
# PCOD9457748 Si02
#       6
#     8   8   8   8   8   8
#     4  11  24  40  71 100 135 179 229 288 339 410
#     4  11  24  42  69 100 134 186 231 277 350 409
#     4  11  24  43  66  99 135 177 233 283 340 399
#     4  10  24  44  66 104 138 177 232 282 352 406
#     4  11  23  43  70 102 141 177 229 284 352 415
#     4  10  26  44  66  99 142 186 225 281 343 410
#
# _framework density 20.75806
#
# number of rings (size 3 to 8) (size 9 to 14) (size 15 to 20)
#    0.000    1.333    3.333    0.500    9.333    2.667 
#    0.000    5.000    0.000    0.000    0.000    0.000 
#    0.000    0.000    0.000    0.000    0.000    0.000 
#
# Total GULP energy -267675.619954 kJ/mol
# GULP energy per Si atom -5576.575416 kJ/mol
# Density = 2.071081 g / cm^3
# Si number density = 20.758060 Si / 1000 Ang^3
#
#
#
# Elastic Constant Matrix: (Units=GPa)
#
#
# Indices 1 2 3 4 5 6 
#
# 1 96.7501 36.9221 37.9275 0.0000 0.0000 0.0000
# 2 36.9221 85.0628 50.2571 0.0000 0.0000 0.0000
# 3 37.9275 50.2571 93.2534 0.0000 0.0000 0.0000
# 4 0.0000 0.0000 0.0000 21.0059 0.0000 0.0000
# 5 0.0000 0.0000 0.0000 0.0000 42.3284 0.0000
# 6 0.0000 0.0000 0.0000 0.0000 0.0000 23.4629
#
#
#
# Elastic Compliance Matrix: (Units=1/GPa)
#
#
# Indices 1 2 3 4 5 6 
#
# 1 0.013048 -0.003709 -0.003308 0.000000 0.000000 0.000000
# 2 -0.003709 0.018302 -0.008355 0.000000 0.000000 0.000000
# 3 -0.003308 -0.008355 0.016572 0.000000 0.000000 0.000000
# 4 0.000000 0.000000 0.000000 0.047606 0.000000 0.000000
# 5 0.000000 0.000000 0.000000 0.000000 0.023625 0.000000
# 6 0.000000 0.000000 0.000000 0.000000 0.000000 0.042621
#
#
# Mechanical properties :
#
#
# Convention : Reuss Voigt Hill
#
# Bulk Modulus (GPa) = 58.21477 58.36440 58.28959
# Shear Modulus (GPa) = 25.22147 27.35673 26.28910
#
# Velocity S-wave (km/s) = 3.48950 3.63421 3.56259
# Velocity P-wave (km/s) = 6.65888 6.76665 6.71298
#
# Compressibility (1/GPa) = 0.01717777
#
# Stress axis : x y z
#
# Youngs Moduli (GPa) = 76.63906 54.63743 60.34400
#
# Poissons Ratio (x) = 0.20267 0.19961
# Poissons Ratio (y) = 0.28428 0.50418
# Poissons Ratio (z) = 0.25351 0.45650
#
# Static dielectric constant tensor:
#      x y z
#    x 1.684080 0.000000 0.000000 
#    y 0.000000 1.716340 0.000000 
#    z 0.000000 0.000000 1.785050 
# 
# From -- ./inp_files/5898.got.cif
#   From: 2010.05.17/outbox.cif.g08.bks.cpg/sg60_3_cif.got.tgz:5898.got - 2010.06.03 14:59:27.
