data_PCOD9457296
_publ_section_title
;
Structure prediction by ZEFSAII (Michael W. Deem and Ramdas Pophale) SiO2 
 PCOD9457296
Probable space group: P B C N
;
_chemical_formula_sum "Si O2"
_cell_formula_units_Z 64
_cell_length_a 8.839250
_cell_length_b 15.493833
_cell_length_c 22.551053
_cell_angle_alpha 90.000000
_cell_angle_beta 90.000000
_cell_angle_gamma 90.000000
_cell_volume 3088.453831
_symmetry_space_group_name_H-M "P B C N"
_symmetry_group_IT_number 60
_symmetry_cell_setting 'orthorhombic'
loop_
_space_group_symop_operation_xyz
x,y,z
1/2-x,1/2-y,1/2+z
1/2+x,1/2-y,-z
-x,y,1/2-z
-x,-y,-z
1/2+x,1/2+y,1/2-z
1/2-x,1/2+y,z
x,-y,1/2+z
loop_
_atom_site_type_symbol
_atom_site_label
_atom_site_fract_x
_atom_site_fract_y
_atom_site_fract_z
Si Si1 0.819941 0.111998 0.759972
Si Si2 0.339096 0.667356 0.616083
Si Si3 0.915214 0.351902 0.916847
Si Si4 0.963028 0.674012 0.961494
Si Si5 0.350588 0.897843 0.353599
Si Si6 0.579669 0.629660 0.466229
Si Si7 0.924334 0.023873 0.587329
Si Si8 0.907464 0.524463 0.303538
O O1 0.784923 0.172641 0.816211
O O2 0.739461 0.146949 0.700259
O O3 0.000000 0.106453 0.750000
O O4 0.745917 0.018541 0.777700
O O5 0.436785 0.752533 0.602632
O O6 0.200110 0.659324 0.569701
O O7 0.439922 0.581093 0.614163
O O8 0.744420 0.356796 0.940132
O O9 0.912839 0.414798 0.860719
O O10 0.017152 0.373045 0.974877
O O11 0.984134 0.775174 0.975833
O O12 0.088157 0.649974 0.912028
O O13 0.227954 0.967500 0.375857
O O14 0.493942 0.942172 0.323688
O O15 0.475928 0.573142 0.423169
O O16 0.598226 0.572432 0.524785
O O17 0.000000 0.567441 0.250000
#
# Coordination Sequence:
#
# PCOD9457296 Si02
#       8
#     8   8   8   8   8   8   8   8
#     4  11  22  42  70  91 126 175 221 271 328 394
#     4  11  23  41  68  95 132 178 217 267 332 397
#     4  11  23  41  67  95 136 169 218 275 329 389
#     4  11  23  42  64 100 132 172 216 277 334 386
#     4  11  23  41  67  93 129 169 221 269 331 388
#     4  10  23  38  62  95 136 165 212 267 331 391
#     4  11  21  41  61  96 130 173 212 263 325 400
#     4  10  24  45  65  95 131 167 223 273 323 398
#
# _framework density 20.722344
#
# number of rings (size 3 to 8) (size 9 to 14) (size 15 to 20)
#    0.000    1.250    5.000    0.750    0.000    3.000 
#    2.250    1.250    0.000    0.000    0.000    0.000 
#    0.000    0.000    0.000    0.000    0.000    0.000 
#
# Total GULP energy -357040.294983 kJ/mol
# GULP energy per Si atom -5578.754609 kJ/mol
# Density = 2.067518 g / cm^3
# Si number density = 20.722344 Si / 1000 Ang^3
#
#
#
# Elastic Constant Matrix: (Units=GPa)
#
#
# Indices 1 2 3 4 5 6 
#
# 1 68.8652 6.5711 12.4176 0.0000 0.0000 0.0000
# 2 6.5711 23.2060 2.6396 0.0000 0.0000 0.0000
# 3 12.4176 2.6396 117.4041 0.0000 0.0000 0.0000
# 4 0.0000 0.0000 0.0000 17.0639 0.0000 0.0000
# 5 0.0000 0.0000 0.0000 0.0000 13.2995 0.0000
# 6 0.0000 0.0000 0.0000 0.0000 0.0000 11.2673
#
#
#
# Elastic Compliance Matrix: (Units=1/GPa)
#
#
# Indices 1 2 3 4 5 6 
#
# 1 0.015188 -0.004129 -0.001514 0.000000 0.000000 0.000000
# 2 -0.004129 0.044325 -0.000560 0.000000 0.000000 0.000000
# 3 -0.001514 -0.000560 0.008690 0.000000 0.000000 0.000000
# 4 0.000000 0.000000 0.000000 0.058603 0.000000 0.000000
# 5 0.000000 0.000000 0.000000 0.000000 0.075191 0.000000
# 6 0.000000 0.000000 0.000000 0.000000 0.000000 0.088753
#
#
# Mechanical properties :
#
#
# Convention : Reuss Voigt Hill
#
# Bulk Modulus (GPa) = 17.92138 28.08134 23.00136
# Shear Modulus (GPa) = 15.53981 20.84925 18.19453
#
# Velocity S-wave (km/s) = 2.74141 3.17539 2.96635
# Velocity P-wave (km/s) = 4.32291 5.19853 4.78081
#
# Compressibility (1/GPa) = 0.05579928
#
# Stress axis : x y z
#
# Youngs Moduli (GPa) = 65.84148 22.56058 115.07127
#
# Poissons Ratio (x) = 0.09314 0.17417
# Poissons Ratio (y) = 0.27183 0.06443
# Poissons Ratio (z) = 0.09966 0.01263
#
# Static dielectric constant tensor:
#      x y z
#    x 1.751190 0.000000 0.000000 
#    y 0.000000 1.737560 0.000000 
#    z 0.000000 0.000000 1.848160 
# 
# From -- ./inp_files/24087.got.cif
#   From: 2010.05.17/outbox.cif.g08.bks.cpg/sg60_13_cif.got.tgz:24087.got - 2010.06.03 14:59:27.
