data_PCOD9457481
_publ_section_title
;
Structure prediction by ZEFSAII (Michael W. Deem and Ramdas Pophale) SiO2 
 PCOD9457481
Probable space group: P B C N
;
_chemical_formula_sum "Si O2"
_cell_formula_units_Z 40
_cell_length_a 8.166886
_cell_length_b 13.744605
_cell_length_c 16.170782
_cell_angle_alpha 90.000000
_cell_angle_beta 90.000000
_cell_angle_gamma 90.000000
_cell_volume 1815.180340
_symmetry_space_group_name_H-M "P B C N"
_symmetry_group_IT_number 60
_symmetry_cell_setting 'orthorhombic'
loop_
_space_group_symop_operation_xyz
x,y,z
1/2-x,1/2-y,1/2+z
1/2+x,1/2-y,-z
-x,y,1/2-z
-x,-y,-z
1/2+x,1/2+y,1/2-z
1/2-x,1/2+y,z
x,-y,1/2+z
loop_
_atom_site_type_symbol
_atom_site_label
_atom_site_fract_x
_atom_site_fract_y
_atom_site_fract_z
Si Si1 0.108904 0.130914 0.170465
Si Si2 0.331523 0.283882 0.940566
Si Si3 0.459177 0.108440 0.529623
Si Si4 0.190330 0.790402 0.268709
Si Si5 0.356560 0.029783 0.696632
O O1 0.209854 0.222919 0.204679
O O2 0.000000 0.100067 0.250000
O O3 0.988980 0.158996 0.096010
O O4 0.237753 0.046318 0.153176
O O5 0.402438 0.189551 0.987899
O O6 0.233095 0.246894 0.860041
O O7 0.210552 0.351233 0.992676
O O8 0.440542 0.097060 0.628010
O O9 0.500000 0.000000 0.500000
O O10 0.252774 0.899918 0.255445
O O11 0.000000 0.784119 0.250000
O O12 0.500000 0.979963 0.750000
#
# Coordination Sequence:
#
# PCOD9457481 Si02
#       5
#     8   8   8   8   8
#     4  10  23  43  70 105 137 187 242 305 360 443
#     4  11  27  50  70 106 156 189 249 304 382 445
#     4  12  30  47  73 108 152 199 243 314 382 445
#     4  11  23  43  75 103 138 191 244 309 367 443
#     4  12  24  45  73 105 145 190 255 301 370 453
#
# _framework density 22.036377000000002
#
# number of rings (size 3 to 8) (size 9 to 14) (size 15 to 20)
#    0.000    0.800    4.000    1.800   14.000    2.400 
#    0.000    0.000    0.000    0.000    0.000    0.000 
#    0.000    0.000    0.000    0.000    0.000    0.000 
#
# Total GULP energy -223877.175675 kJ/mol
# GULP energy per Si atom -5596.929392 kJ/mol
# Density = 2.198622 g / cm^3
# Si number density = 22.036377 Si / 1000 Ang^3
#
#
#
# Elastic Constant Matrix: (Units=GPa)
#
#
# Indices 1 2 3 4 5 6 
#
# 1 157.7348 61.7144 39.2164 0.0000 0.0000 0.0000
# 2 61.7144 117.2752 22.8365 0.0000 0.0000 0.0000
# 3 39.2164 22.8365 56.9440 0.0000 0.0000 0.0000
# 4 0.0000 0.0000 0.0000 16.2597 0.0000 0.0000
# 5 0.0000 0.0000 0.0000 0.0000 29.4547 0.0000
# 6 0.0000 0.0000 0.0000 0.0000 0.0000 56.1895
#
#
#
# Elastic Compliance Matrix: (Units=1/GPa)
#
#
# Indices 1 2 3 4 5 6 
#
# 1 0.008996 -0.003826 -0.004661 0.000000 0.000000 0.000000
# 2 -0.003826 0.010877 -0.001727 0.000000 0.000000 0.000000
# 3 -0.004661 -0.001727 0.021463 0.000000 0.000000 0.000000
# 4 0.000000 0.000000 0.000000 0.061502 0.000000 0.000000
# 5 0.000000 0.000000 0.000000 0.000000 0.033950 0.000000
# 6 0.000000 0.000000 0.000000 0.000000 0.000000 0.017797
#
#
# Mechanical properties :
#
#
# Convention : Reuss Voigt Hill
#
# Bulk Modulus (GPa) = 47.82828 64.38763 56.10795
# Shear Modulus (GPa) = 27.47530 34.25989 30.86759
#
# Velocity S-wave (km/s) = 3.53486 3.94724 3.74673
# Velocity P-wave (km/s) = 6.19771 7.07506 6.65087
#
# Compressibility (1/GPa) = 0.02090813
#
# Stress axis : x y z
#
# Youngs Moduli (GPa) = 111.16654 91.93959 46.59104
#
# Poissons Ratio (x) = 0.35178 0.21714
# Poissons Ratio (y) = 0.42535 0.08046
# Poissons Ratio (z) = 0.51811 0.15877
#
# Static dielectric constant tensor:
#      x y z
#    x 1.793340 0.000000 0.000000 
#    y 0.000000 1.822100 0.000000 
#    z 0.000000 0.000000 1.798660 
# 
# From -- ./inp_files/19011.got.cif
#   From: 2010.05.17/outbox.cif.g08.bks.cpg/sg60_10_cif.got.tgz:19011.got - 2010.06.03 14:59:27.
