data_PCOD9457179
_publ_section_title
;
Structure prediction by ZEFSAII (Michael W. Deem and Ramdas Pophale) SiO2 
 PCOD9457179
Probable space group: P B C N
;
_chemical_formula_sum "Si O2"
_cell_formula_units_Z 24
_cell_length_a 4.907694
_cell_length_b 19.303232
_cell_length_c 11.544413
_cell_angle_alpha 90.000000
_cell_angle_beta 90.000000
_cell_angle_gamma 90.000000
_cell_volume 1093.652529
_symmetry_space_group_name_H-M "P B C N"
_symmetry_group_IT_number 60
_symmetry_cell_setting 'orthorhombic'
loop_
_space_group_symop_operation_xyz
x,y,z
1/2-x,1/2-y,1/2+z
1/2+x,1/2-y,-z
-x,y,1/2-z
-x,-y,-z
1/2+x,1/2+y,1/2-z
1/2-x,1/2+y,z
x,-y,1/2+z
loop_
_atom_site_type_symbol
_atom_site_label
_atom_site_fract_x
_atom_site_fract_y
_atom_site_fract_z
Si Si1 0.766592 0.897969 0.328686
Si Si2 0.500000 0.528759 0.250000
Si Si3 0.056037 0.295312 0.979608
Si Si4 0.500000 0.873346 0.750000
O O1 0.500000 0.907712 0.250000
O O2 0.681407 0.855113 0.439606
O O3 0.000000 0.861623 0.250000
O O4 0.896209 0.974299 0.347585
O O5 0.748031 0.577656 0.217780
O O6 0.940648 0.326576 0.861180
O O7 0.806315 0.256848 0.042185
#
# Coordination Sequence:
#
# PCOD9457179 Si02
#       4
#     8   4   8   4
#     4  10  22  44  70  99 136 185 224 279 357 409
#     4  10  22  45  70 103 136 174 234 288 350 414
#     4  12  28  44  70 101 143 188 230 290 343 424
#     4  12  26  45  68 107 132 180 238 292 342 408
#
# _framework density 21.944811000000001
#
# number of rings (size 3 to 8) (size 9 to 14) (size 15 to 20)
#    1.000    0.000    1.667    4.000    7.000    2.667 
#    0.000    0.000    0.000    0.000    0.000    0.000 
#    0.000    0.000    0.000    0.000    0.000    0.000 
#
# Total GULP energy -134067.296958 kJ/mol
# GULP energy per Si atom -5586.137373 kJ/mol
# Density = 2.189486 g / cm^3
# Si number density = 21.944811 Si / 1000 Ang^3
#
#
#
# Elastic Constant Matrix: (Units=GPa)
#
#
# Indices 1 2 3 4 5 6 
#
# 1 126.2731 30.8252 11.3679 0.0000 0.0000 0.0000
# 2 30.8252 96.5688 39.9682 0.0000 0.0000 0.0000
# 3 11.3679 39.9682 87.1594 0.0000 0.0000 0.0000
# 4 0.0000 0.0000 0.0000 2.7622 0.0000 0.0000
# 5 0.0000 0.0000 0.0000 0.0000 18.7631 0.0000
# 6 0.0000 0.0000 0.0000 0.0000 0.0000 15.0476
#
#
#
# Elastic Compliance Matrix: (Units=1/GPa)
#
#
# Indices 1 2 3 4 5 6 
#
# 1 0.008591 -0.002812 0.000169 0.000000 0.000000 0.000000
# 2 -0.002812 0.013702 -0.005916 0.000000 0.000000 0.000000
# 3 0.000169 -0.005916 0.014164 0.000000 0.000000 0.000000
# 4 0.000000 0.000000 0.000000 0.362036 0.000000 0.000000
# 5 0.000000 0.000000 0.000000 0.000000 0.053296 0.000000
# 6 0.000000 0.000000 0.000000 0.000000 0.000000 0.066456
#
#
# Mechanical properties :
#
#
# Convention : Reuss Voigt Hill
#
# Bulk Modulus (GPa) = 51.71239 52.70266 52.20753
# Shear Modulus (GPa) = 9.22834 22.50389 15.86612
#
# Velocity S-wave (km/s) = 2.05290 3.20578 2.69178
# Velocity P-wave (km/s) = 5.40695 6.14580 5.78817
#
# Compressibility (1/GPa) = 0.01933773
#
# Stress axis : x y z
#
# Youngs Moduli (GPa) = 116.40620 72.98403 70.60061
#
# Poissons Ratio (x) = 0.20524 -0.01194
# Poissons Ratio (y) = 0.32735 0.41769
# Poissons Ratio (z) = -0.01969 0.43180
#
# Static dielectric constant tensor:
#      x y z
#    x 1.790400 0.000000 0.000000 
#    y 0.000000 1.832630 0.000000 
#    z 0.000000 0.000000 1.702540 
# 
# From -- ./inp_files/8720.got.cif
#   From: 2010.05.17/outbox.cif.g08.bks.cpg/sg60_5_cif.got.tgz:8720.got - 2010.06.03 14:59:27.
