data_PCOD9457801
_publ_section_title
;
Structure prediction by ZEFSAII (Michael W. Deem and Ramdas Pophale) SiO2 
 PCOD9457801
Probable space group: P B C N
;
_chemical_formula_sum "Si O2"
_cell_formula_units_Z 32
_cell_length_a 10.330872
_cell_length_b 25.541919
_cell_length_c 4.872556
_cell_angle_alpha 90.000000
_cell_angle_beta 90.000000
_cell_angle_gamma 90.000000
_cell_volume 1285.722793
_symmetry_space_group_name_H-M "P B C N"
_symmetry_group_IT_number 60
_symmetry_cell_setting 'orthorhombic'
loop_
_space_group_symop_operation_xyz
x,y,z
1/2-x,1/2-y,1/2+z
1/2+x,1/2-y,-z
-x,y,1/2-z
-x,-y,-z
1/2+x,1/2+y,1/2-z
1/2-x,1/2+y,z
x,-y,1/2+z
loop_
_atom_site_type_symbol
_atom_site_label
_atom_site_fract_x
_atom_site_fract_y
_atom_site_fract_z
Si Si1 0.702911 0.422572 0.362495
Si Si2 0.786008 0.783887 0.886757
Si Si3 0.000000 0.000000 0.000000
Si Si4 0.146102 0.605594 0.151438
Si Si5 0.500000 0.667486 0.750000
O O1 0.609746 0.470248 0.268531
O O2 0.771610 0.431126 0.648360
O O3 0.611909 0.371310 0.361821
O O4 0.819072 0.413063 0.151270
O O5 0.708680 0.750601 0.114845
O O6 0.922811 0.799122 0.024472
O O7 0.705646 0.836323 0.824501
O O8 0.000000 0.954226 0.750000
O O9 0.000000 0.605474 0.250000
#
# Coordination Sequence:
#
# PCOD9457801 Si02
#       5
#     8   8   4   8   4
#     4  11  24  44  75 109 136 185 228 303 361 417
#     4  11  25  43  65 100 136 187 244 305 349 410
#     4  12  24  42  76 116 140 166 238 296 360 426
#     4  11  25  47  70 100 147 197 233 282 370 439
#     4  10  24  46  66 102 140 174 242 304 348 416
#
# _framework density 24.888722000000001
#
# number of rings (size 3 to 8) (size 9 to 14) (size 15 to 20)
#    0.000    1.000    1.250    5.250    5.250    5.000 
#    4.500    0.000    0.000   15.000    0.000    0.000 
#    0.000    0.000    0.000    0.000    0.000    0.000 
#
# Total GULP energy -178862.172399 kJ/mol
# GULP energy per Si atom -5589.442887 kJ/mol
# Density = 2.483207 g / cm^3
# Si number density = 24.888722 Si / 1000 Ang^3
#
#
#
# Elastic Constant Matrix: (Units=GPa)
#
#
# Indices 1 2 3 4 5 6 
#
# 1 183.9498 51.0964 27.8635 0.0000 0.0000 0.0000
# 2 51.0964 91.6626 18.4006 0.0000 0.0000 0.0000
# 3 27.8635 18.4006 136.7528 0.0000 0.0000 0.0000
# 4 0.0000 0.0000 0.0000 31.3649 0.0000 0.0000
# 5 0.0000 0.0000 0.0000 0.0000 38.3437 0.0000
# 6 0.0000 0.0000 0.0000 0.0000 0.0000 5.6267
#
#
#
# Elastic Compliance Matrix: (Units=1/GPa)
#
#
# Indices 1 2 3 4 5 6 
#
# 1 0.006530 -0.003467 -0.000864 0.000000 0.000000 0.000000
# 2 -0.003467 0.013053 -0.001050 0.000000 0.000000 0.000000
# 3 -0.000864 -0.001050 0.007630 0.000000 0.000000 0.000000
# 4 0.000000 0.000000 0.000000 0.031883 0.000000 0.000000
# 5 0.000000 0.000000 0.000000 0.000000 0.026080 0.000000
# 6 0.000000 0.000000 0.000000 0.000000 0.000000 0.177723
#
#
# Mechanical properties :
#
#
# Convention : Reuss Voigt Hill
#
# Bulk Modulus (GPa) = 60.78550 67.45403 64.11976
# Shear Modulus (GPa) = 17.91191 36.06737 26.98964
#
# Velocity S-wave (km/s) = 2.68559 3.81089 3.29661
# Velocity P-wave (km/s) = 5.83888 6.82092 6.34892
#
# Compressibility (1/GPa) = 0.01645129
#
# Stress axis : x y z
#
# Youngs Moduli (GPa) = 153.13697 76.61181 131.06517
#
# Poissons Ratio (x) = 0.26559 0.11325
# Poissons Ratio (y) = 0.53088 0.13761
# Poissons Ratio (z) = 0.13232 0.08044
#
# Static dielectric constant tensor:
#      x y z
#    x 2.040540 0.000000 0.000000 
#    y 0.000000 1.929990 0.000000 
#    z 0.000000 0.000000 2.333950 
# 
# From -- ./inp_files/719.got.cif
#   From: 2010.05.17/outbox.cif.g08.bks.cpg/sg60_1_cif.got.tgz:719.got - 2010.06.03 14:59:27.
