data_PCOD9457706
_publ_section_title
;
Structure prediction by ZEFSAII (Michael W. Deem and Ramdas Pophale) SiO2 
 PCOD9457706
Probable space group: P B C N
;
_chemical_formula_sum "Si O2"
_cell_formula_units_Z 48
_cell_length_a 8.475080
_cell_length_b 27.560853
_cell_length_c 9.500051
_cell_angle_alpha 90.000000
_cell_angle_beta 90.000000
_cell_angle_gamma 90.000000
_cell_volume 2219.026036
_symmetry_space_group_name_H-M "P B C N"
_symmetry_group_IT_number 60
_symmetry_cell_setting 'orthorhombic'
loop_
_space_group_symop_operation_xyz
x,y,z
1/2-x,1/2-y,1/2+z
1/2+x,1/2-y,-z
-x,y,1/2-z
-x,-y,-z
1/2+x,1/2+y,1/2-z
1/2-x,1/2+y,z
x,-y,1/2+z
loop_
_atom_site_type_symbol
_atom_site_label
_atom_site_fract_x
_atom_site_fract_y
_atom_site_fract_z
Si Si1 0.000000 0.838202 0.750000
Si Si2 0.238066 0.771133 0.911515
Si Si3 0.746484 0.896638 0.925584
Si Si4 0.000000 0.666625 0.250000
Si Si5 0.811132 0.910335 0.254365
Si Si6 0.879119 0.497788 0.870441
Si Si7 0.815448 0.195678 0.789983
O O1 0.903457 0.803541 0.646414
O O2 0.893604 0.871228 0.850680
O O3 0.389472 0.798523 0.844929
O O4 0.230099 0.717652 0.845961
O O5 0.230582 0.770811 0.078901
O O6 0.599829 0.867590 0.856119
O O7 0.739336 0.953352 0.887361
O O8 0.756904 0.898238 0.094710
O O9 0.713403 0.953425 0.326863
O O10 0.780169 0.859429 0.332557
O O11 0.000000 0.920553 0.250000
O O12 0.000000 0.484556 0.750000
O O13 0.000000 0.500000 0.000000
O O14 0.000000 0.196209 0.750000
#
# Coordination Sequence:
#
# PCOD9457706 Si02
#       7
#     4   8   8   4   8   8   8
#     4  10  24  42  70 108 140 190 232 296 358 432
#     4  11  25  44  73 103 146 186 244 294 359 427
#     4  11  24  46  72 102 144 185 240 294 362 429
#     4  10  24  44  74 106 138 190 240 296 362 418
#     4  11  27  47  72 103 146 189 242 298 360 429
#     4  12  26  46  72 106 141 185 242 296 362 433
#     4  11  26  45  71 104 148 187 242 293 357 429
#
# _framework density 21.631112000000002
#
# number of rings (size 3 to 8) (size 9 to 14) (size 15 to 20)
#    0.000    1.000    3.333    2.000   10.500    2.000 
#    1.500    0.000    0.000    0.000    0.000    0.000 
#    0.000    0.000    0.000    0.000    0.000    0.000 
#
# Total GULP energy -268378.708285 kJ/mol
# GULP energy per Si atom -5591.223089 kJ/mol
# Density = 2.158188 g / cm^3
# Si number density = 21.631112 Si / 1000 Ang^3
#
#
#
# Elastic Constant Matrix: (Units=GPa)
#
#
# Indices 1 2 3 4 5 6 
#
# 1 79.9802 32.1483 16.9551 0.0000 0.0000 0.0000
# 2 32.1483 115.2777 -3.4346 0.0000 0.0000 0.0000
# 3 16.9551 -3.4346 89.6187 0.0000 0.0000 0.0000
# 4 0.0000 0.0000 0.0000 28.3893 0.0000 0.0000
# 5 0.0000 0.0000 0.0000 0.0000 19.7235 0.0000
# 6 0.0000 0.0000 0.0000 0.0000 0.0000 -7.0646
#
#
#
# Elastic Compliance Matrix: (Units=1/GPa)
#
#
# Indices 1 2 3 4 5 6 
#
# 1 0.014830 -0.004224 -0.002968 0.000000 0.000000 0.000000
# 2 -0.004224 0.009888 0.001178 0.000000 0.000000 0.000000
# 3 -0.002968 0.001178 0.011765 0.000000 0.000000 0.000000
# 4 0.000000 0.000000 0.000000 0.035225 0.000000 0.000000
# 5 0.000000 0.000000 0.000000 0.000000 0.050701 0.000000
# 6 0.000000 0.000000 0.000000 0.000000 0.000000 -0.141551
#
#
# Mechanical properties :
#
#
# Convention : Reuss Voigt Hill
#
# Bulk Modulus (GPa) = 40.89049 41.80158 41.34603
# Shear Modulus (GPa) = 4821.89944 24.15684 2423.02814
#
# Velocity S-wave (km/s) = 47.26510 3.34543 33.50508
# Velocity P-wave (km/s) = 54.75032 5.85570 38.93511
#
# Compressibility (1/GPa) = 0.02445556
#
# Stress axis : x y z
#
# Youngs Moduli (GPa) = 67.43027 101.13439 84.99801
#
# Poissons Ratio (x) = 0.42721 0.25224
# Poissons Ratio (y) = 0.28484 -0.10014
# Poissons Ratio (z) = 0.20011 -0.11915
#
# Static dielectric constant tensor:
#      x y z
#    x 1.829610 0.000000 0.000000 
#    y 0.000000 1.911520 0.000000 
#    z 0.000000 0.000000 1.845530 
# 
# From -- ./inp_files/4255.got.cif
#   From: 2010.05.17/outbox.cif.g08.bks.cpg/sg60_3_cif.got.tgz:4255.got - 2010.06.03 14:59:27.
