data_PCOD9457982
_publ_section_title
;
Structure prediction by ZEFSAII (Michael W. Deem and Ramdas Pophale) SiO2 
 PCOD9457982
Probable space group: P B C N
;
_chemical_formula_sum "Si O2"
_cell_formula_units_Z 32
_cell_length_a 8.566972
_cell_length_b 15.477178
_cell_length_c 9.218494
_cell_angle_alpha 90.000000
_cell_angle_beta 90.000000
_cell_angle_gamma 90.000000
_cell_volume 1222.303632
_symmetry_space_group_name_H-M "P B C N"
_symmetry_group_IT_number 60
_symmetry_cell_setting 'orthorhombic'
loop_
_space_group_symop_operation_xyz
x,y,z
1/2-x,1/2-y,1/2+z
1/2+x,1/2-y,-z
-x,y,1/2-z
-x,-y,-z
1/2+x,1/2+y,1/2-z
1/2-x,1/2+y,z
x,-y,1/2+z
loop_
_atom_site_type_symbol
_atom_site_label
_atom_site_fract_x
_atom_site_fract_y
_atom_site_fract_z
Si Si1 0.000000 0.862277 0.250000
Si Si2 0.000000 0.488443 0.250000
Si Si3 0.000000 0.865932 0.750000
Si Si4 0.273491 0.232908 0.409057
Si Si5 0.428057 0.876301 0.517782
Si Si6 0.000000 0.000000 0.000000
O O1 0.869444 0.799555 0.187740
O O2 0.949702 0.923646 0.381836
O O3 0.906439 0.554041 0.354477
O O4 0.910292 0.428216 0.134327
O O5 0.139486 0.810055 0.813904
O O6 0.951624 0.926617 0.882286
O O7 0.183871 0.294290 0.522396
O O8 0.395648 0.162154 0.469922
#
# Coordination Sequence:
#
# PCOD9457982 Si02
#       6
#     4   4   4   8   8   4
#     4  11  27  48  77 109 152 198 252 309 377 448
#     4  10  26  48  74 110 152 198 248 310 378 448
#     4  11  27  48  77 109 152 198 252 309 377 448
#     4  12  28  50  80 114 152 202 256 314 376 450
#     4  11  27  48  77 109 152 198 252 309 377 448
#     4  10  26  48  74 110 152 198 248 310 378 448
#
# _framework density 26.180071999999999
#
# number of rings (size 3 to 8) (size 9 to 14) (size 15 to 20)
#    0.000    1.000    0.000    3.000    0.000   30.000 
#    0.000    0.000    0.000    0.000    0.000    0.000 
#    0.000    0.000    0.000    0.000    0.000    0.000 
#
# Total GULP energy -178527.304089 kJ/mol
# GULP energy per Si atom -5578.978253 kJ/mol
# Density = 2.612049 g / cm^3
# Si number density = 26.180072 Si / 1000 Ang^3
#
#
#
# Elastic Constant Matrix: (Units=GPa)
#
#
# Indices 1 2 3 4 5 6 
#
# 1 129.0888 72.9876 21.7693 0.0000 0.0000 0.0000
# 2 72.9876 187.7487 59.7468 0.0000 0.0000 0.0000
# 3 21.7693 59.7468 146.7331 0.0000 0.0000 0.0000
# 4 0.0000 0.0000 0.0000 70.0618 0.0000 0.0000
# 5 0.0000 0.0000 0.0000 0.0000 32.6048 0.0000
# 6 0.0000 0.0000 0.0000 0.0000 0.0000 -52.7905
#
#
#
# Elastic Compliance Matrix: (Units=1/GPa)
#
#
# Indices 1 2 3 4 5 6 
#
# 1 0.009931 -0.003897 0.000113 0.000000 0.000000 0.000000
# 2 -0.003897 0.007648 -0.002536 0.000000 0.000000 0.000000
# 3 0.000113 -0.002536 0.007831 0.000000 0.000000 0.000000
# 4 0.000000 0.000000 0.000000 0.014273 0.000000 0.000000
# 5 0.000000 0.000000 0.000000 0.000000 0.030670 0.000000
# 6 0.000000 0.000000 0.000000 0.000000 0.000000 -0.018943
#
#
# Mechanical properties :
#
#
# Convention : Reuss Voigt Hill
#
# Bulk Modulus (GPa) = 78.30258 85.84202 82.07230
# Shear Modulus (GPa) = 73.19988 30.57967 51.88978
#
# Velocity S-wave (km/s) = 5.29347 3.42138 4.45683
# Velocity P-wave (km/s) = 8.20581 6.96190 7.60932
#
# Compressibility (1/GPa) = 0.01277097
#
# Stress axis : x y z
#
# Youngs Moduli (GPa) = 100.69812 130.75084 127.69890
#
# Poissons Ratio (x) = 0.50949 -0.01447
# Poissons Ratio (y) = 0.39238 0.32385
# Poissons Ratio (z) = -0.01141 0.33159
#
# Static dielectric constant tensor:
#      x y z
#    x 2.081540 0.000000 0.000000 
#    y 0.000000 1.987330 0.000000 
#    z 0.000000 0.000000 2.083610 
# 
# From -- ./inp_files/4585.got.cif
#   From: 2010.05.17/outbox.cif.g08.bks.cpg/sg60_3_cif.got.tgz:4585.got - 2010.06.03 14:59:27.
