data_PCOD9457045
_publ_section_title
;
Structure prediction by ZEFSAII (Michael W. Deem and Ramdas Pophale) SiO2 
 PCOD9457045
Probable space group: P B C N
;
_chemical_formula_sum "Si O2"
_cell_formula_units_Z 60
_cell_length_a 21.137865
_cell_length_b 10.737661
_cell_length_c 12.087665
_cell_angle_alpha 90.000000
_cell_angle_beta 90.000000
_cell_angle_gamma 90.000000
_cell_volume 2743.552176
_symmetry_space_group_name_H-M "P B C N"
_symmetry_group_IT_number 60
_symmetry_cell_setting 'orthorhombic'
loop_
_space_group_symop_operation_xyz
x,y,z
1/2-x,1/2-y,1/2+z
1/2+x,1/2-y,-z
-x,y,1/2-z
-x,-y,-z
1/2+x,1/2+y,1/2-z
1/2-x,1/2+y,z
x,-y,1/2+z
loop_
_atom_site_type_symbol
_atom_site_label
_atom_site_fract_x
_atom_site_fract_y
_atom_site_fract_z
Si Si1 0.401778 0.411165 0.558959
Si Si2 0.500000 0.823556 0.750000
Si Si3 0.877548 0.189844 0.849384
Si Si4 0.946892 0.526254 0.590047
Si Si5 0.309561 0.404999 0.361794
Si Si6 0.655581 0.657581 0.216637
Si Si7 0.320814 0.140772 0.954080
Si Si8 0.973320 0.183826 0.131232
O O1 0.391894 0.551164 0.604765
O O2 0.368562 0.389547 0.443627
O O3 0.368936 0.331439 0.658573
O O4 0.474578 0.367802 0.549136
O O5 0.446580 0.745730 0.683631
O O6 0.457783 0.918324 0.822433
O O7 0.830029 0.179461 0.743969
O O8 0.843614 0.271486 0.945041
O O9 0.874253 0.534145 0.550683
O O10 0.962705 0.667954 0.627180
O O11 0.000000 0.500000 0.500000
O O12 0.299886 0.540686 0.304806
O O13 0.251946 0.395575 0.449940
O O14 0.678301 0.784902 0.163437
O O15 0.595628 0.626143 0.136790
O O16 0.000000 0.148934 0.250000
#
# Coordination Sequence:
#
# PCOD9457045 Si02
#       8
#     8   4   8   8   8   8   8   8
#     4  10  22  42  68 100 134 178 231 284 345 408
#     4  12  26  46  70 110 142 170 238 296 372 412
#     4  11  26  45  70 107 142 175 236 303 345 429
#     4  11  23  44  65  98 138 185 229 282 358 418
#     4  11  25  41  67  98 135 190 230 279 352 410
#     4   9  21  41  63  94 129 173 234 276 335 411
#     4  11  24  47  66  94 145 188 227 295 344 423
#     4   9  19  38  67  92 128 173 221 285 339 403
#
# _framework density 21.869458000000002
#
# number of rings (size 3 to 8) (size 9 to 14) (size 15 to 20)
#    0.000    1.600    3.333    0.000    8.400    1.600 
#    2.400    0.000    0.000    0.000    0.000    0.000 
#    0.000    0.000    0.000    0.000    0.000    0.000 
#
# Total GULP energy -334431.870292 kJ/mol
# GULP energy per Si atom -5573.864505 kJ/mol
# Density = 2.181968 g / cm^3
# Si number density = 21.869458 Si / 1000 Ang^3
#
#
#
# Elastic Constant Matrix: (Units=GPa)
#
#
# Indices 1 2 3 4 5 6 
#
# 1 60.1902 -1.1900 -6.9555 0.0000 0.0000 0.0000
# 2 -1.1900 33.5151 10.5747 0.0000 0.0000 0.0000
# 3 -6.9555 10.5747 82.1337 0.0000 0.0000 0.0000
# 4 0.0000 0.0000 0.0000 17.7141 0.0000 0.0000
# 5 0.0000 0.0000 0.0000 0.0000 39.1016 0.0000
# 6 0.0000 0.0000 0.0000 0.0000 0.0000 9.5745
#
#
#
# Elastic Compliance Matrix: (Units=1/GPa)
#
#
# Indices 1 2 3 4 5 6 
#
# 1 0.016779 0.000154 0.001401 0.000000 0.000000 0.000000
# 2 0.000154 0.031102 -0.003991 0.000000 0.000000 0.000000
# 3 0.001401 -0.003991 0.012808 0.000000 0.000000 0.000000
# 4 0.000000 0.000000 0.000000 0.056452 0.000000 0.000000
# 5 0.000000 0.000000 0.000000 0.000000 0.025574 0.000000
# 6 0.000000 0.000000 0.000000 0.000000 0.000000 0.104444
#
#
# Mechanical properties :
#
#
# Convention : Reuss Voigt Hill
#
# Bulk Modulus (GPa) = 17.91610 20.07749 18.99680
# Shear Modulus (GPa) = 18.47488 24.83871 21.65680
#
# Velocity S-wave (km/s) = 2.90966 3.37378 3.15028
# Velocity P-wave (km/s) = 4.41568 4.93731 4.68376
#
# Compressibility (1/GPa) = 0.05581573
#
# Stress axis : x y z
#
# Youngs Moduli (GPa) = 59.59851 32.15220 78.07738
#
# Poissons Ratio (x) = -0.00494 -0.10940
# Poissons Ratio (y) = -0.00916 0.31164
# Poissons Ratio (z) = -0.08351 0.12833
#
# Static dielectric constant tensor:
#      x y z
#    x 2.014160 0.000000 0.000000 
#    y 0.000000 1.817180 0.000000 
#    z 0.000000 0.000000 1.726280 
# 
# From -- ./inp_files/12883.got.cif
#   From: 2010.05.17/outbox.cif.g08.bks.cpg/sg60_7_cif.got.tgz:12883.got - 2010.06.03 14:59:27.
