data_PCOD9457013
_publ_section_title
;
Structure prediction by ZEFSAII (Michael W. Deem and Ramdas Pophale) SiO2 
 PCOD9457013
Probable space group: P B C N
;
_chemical_formula_sum "Si O2"
_cell_formula_units_Z 64
_cell_length_a 16.295779
_cell_length_b 13.972718
_cell_length_c 12.724093
_cell_angle_alpha 90.000000
_cell_angle_beta 90.000000
_cell_angle_gamma 90.000000
_cell_volume 2897.229209
_symmetry_space_group_name_H-M "P B C N"
_symmetry_group_IT_number 60
_symmetry_cell_setting 'orthorhombic'
loop_
_space_group_symop_operation_xyz
x,y,z
1/2-x,1/2-y,1/2+z
1/2+x,1/2-y,-z
-x,y,1/2-z
-x,-y,-z
1/2+x,1/2+y,1/2-z
1/2-x,1/2+y,z
x,-y,1/2+z
loop_
_atom_site_type_symbol
_atom_site_label
_atom_site_fract_x
_atom_site_fract_y
_atom_site_fract_z
Si Si1 0.165384 0.612522 0.508329
Si Si2 0.213973 0.754462 0.344608
Si Si3 0.827890 0.397029 0.022826
Si Si4 0.001251 0.351340 0.125659
Si Si5 0.273320 0.391732 0.679569
Si Si6 0.990083 0.930512 0.370658
Si Si7 0.688079 0.608952 0.839783
Si Si8 0.551526 0.638966 0.423594
O O1 0.156301 0.693567 0.420920
O O2 0.190507 0.509763 0.461505
O O3 0.238719 0.643516 0.585832
O O4 0.082079 0.602632 0.573769
O O5 0.272058 0.825387 0.409892
O O6 0.264788 0.673623 0.281174
O O7 0.174120 0.818537 0.254494
O O8 0.920428 0.381914 0.062221
O O9 0.803534 0.380007 0.900511
O O10 0.000000 0.373829 0.250000
O O11 0.010809 0.237181 0.111120
O O12 0.284575 0.504560 0.702338
O O13 0.356007 0.363046 0.618311
O O14 0.896494 0.904990 0.401941
O O15 0.000000 0.904560 0.250000
O O16 0.049257 0.878607 0.451509
O O17 0.996013 0.045396 0.380362
#
# Coordination Sequence:
#
# PCOD9457013 Si02
#       8
#     8   8   8   8   8   8   8   8
#     4  11  26  47  68 101 138 180 234 289 346 410
#     4  12  23  41  73 100 130 182 228 284 342 419
#     4  11  25  44  70  99 136 180 230 288 343 406
#     4  12  25  44  70  97 135 182 234 281 344 416
#     4  10  23  44  65  98 135 179 226 278 350 420
#     4  10  23  39  64  99 140 176 220 283 349 410
#     4  10  23  43  64  96 137 178 225 277 350 412
#     4  10  22  42  63  99 138 176 225 279 340 417
#
# _framework density 22.090071999999999
#
# number of rings (size 3 to 8) (size 9 to 14) (size 15 to 20)
#    0.000    1.250    0.000    5.250    7.000    2.000 
#    6.750    0.625    0.000    0.000    0.000    0.000 
#    0.000    0.000    0.000    0.000    0.000    0.000 
#
# Total GULP energy -358118.584794 kJ/mol
# GULP energy per Si atom -5595.602887 kJ/mol
# Density = 2.203979 g / cm^3
# Si number density = 22.090072 Si / 1000 Ang^3
#
#
#
# Elastic Constant Matrix: (Units=GPa)
#
#
# Indices 1 2 3 4 5 6 
#
# 1 56.9703 12.3616 24.1285 0.0000 0.0000 0.0000
# 2 12.3616 109.6469 47.8395 0.0000 0.0000 0.0000
# 3 24.1285 47.8395 104.6841 0.0000 0.0000 0.0000
# 4 0.0000 0.0000 0.0000 44.1294 0.0000 0.0000
# 5 0.0000 0.0000 0.0000 0.0000 25.4915 0.0000
# 6 0.0000 0.0000 0.0000 0.0000 0.0000 25.4053
#
#
#
# Elastic Compliance Matrix: (Units=1/GPa)
#
#
# Indices 1 2 3 4 5 6 
#
# 1 0.019460 -0.000296 -0.004350 0.000000 0.000000 0.000000
# 2 -0.000296 0.011396 -0.005140 0.000000 0.000000 0.000000
# 3 -0.004350 -0.005140 0.012904 0.000000 0.000000 0.000000
# 4 0.000000 0.000000 0.000000 0.022661 0.000000 0.000000
# 5 0.000000 0.000000 0.000000 0.000000 0.039229 0.000000
# 6 0.000000 0.000000 0.000000 0.000000 0.000000 0.039362
#
#
# Mechanical properties :
#
#
# Convention : Reuss Voigt Hill
#
# Bulk Modulus (GPa) = 41.34217 48.88448 45.11332
# Shear Modulus (GPa) = 28.96122 31.47002 30.21562
#
# Velocity S-wave (km/s) = 3.62477 3.77851 3.70244
# Velocity P-wave (km/s) = 6.02283 6.41980 6.22448
#
# Compressibility (1/GPa) = 0.02418838
#
# Stress axis : x y z
#
# Youngs Moduli (GPa) = 51.38863 87.75007 77.49582
#
# Poissons Ratio (x) = 0.02597 0.33710
# Poissons Ratio (y) = 0.01521 0.39830
# Poissons Ratio (z) = 0.22354 0.45100
#
# Static dielectric constant tensor:
#      x y z
#    x 1.798180 0.000000 0.000000 
#    y 0.000000 1.816060 0.000000 
#    z 0.000000 0.000000 1.820040 
# 
# From -- ./inp_files/12530.got.cif
#   From: 2010.05.17/outbox.cif.g08.bks.cpg/sg60_7_cif.got.tgz:12530.got - 2010.06.03 14:59:27.
