data_PCOD9457021
_publ_section_title
;
Structure prediction by ZEFSAII (Michael W. Deem and Ramdas Pophale) SiO2 
 PCOD9457021
Probable space group: P B C N
;
_chemical_formula_sum "Si O2"
_cell_formula_units_Z 64
_cell_length_a 13.751566
_cell_length_b 11.971181
_cell_length_c 18.244461
_cell_angle_alpha 90.000000
_cell_angle_beta 90.000000
_cell_angle_gamma 90.000000
_cell_volume 3003.448519
_symmetry_space_group_name_H-M "P B C N"
_symmetry_group_IT_number 60
_symmetry_cell_setting 'orthorhombic'
loop_
_space_group_symop_operation_xyz
x,y,z
1/2-x,1/2-y,1/2+z
1/2+x,1/2-y,-z
-x,y,1/2-z
-x,-y,-z
1/2+x,1/2+y,1/2-z
1/2-x,1/2+y,z
x,-y,1/2+z
loop_
_atom_site_type_symbol
_atom_site_label
_atom_site_fract_x
_atom_site_fract_y
_atom_site_fract_z
Si Si1 0.618265 0.288478 0.551032
Si Si2 0.397539 0.093070 0.057566
Si Si3 0.895018 0.672944 0.102491
Si Si4 0.550178 0.436233 0.932089
Si Si5 0.438234 0.408153 0.321673
Si Si6 0.786624 0.636630 0.960657
Si Si7 0.226509 0.171299 0.144187
Si Si8 0.284579 0.600724 0.311002
O O1 0.625143 0.167811 0.514291
O O2 0.505549 0.318177 0.560044
O O3 0.675639 0.368652 0.491873
O O4 0.662854 0.317503 0.630037
O O5 0.509878 0.104317 0.078386
O O6 0.337640 0.145856 0.124816
O O7 0.349866 0.973645 0.045745
O O8 0.920534 0.791975 0.137564
O O9 0.825295 0.603243 0.157488
O O10 0.834905 0.701164 0.028960
O O11 0.507012 0.507234 0.865612
O O12 0.659870 0.406939 0.908951
O O13 0.500000 0.500000 0.000000
O O14 0.500000 0.382185 0.250000
O O15 0.338812 0.480464 0.312297
O O16 0.789842 0.703840 0.885259
O O17 0.207225 0.147821 0.228864
#
# Coordination Sequence:
#
# PCOD9457021 Si02
#       8
#     8   8   8   8   8   8   8   8
#     4   9  21  38  64  93 131 176 231 281 344 414
#     4  11  23  41  66  96 136 185 233 291 341 418
#     4  11  25  42  69  98 134 181 232 277 347 422
#     4  11  20  37  65  97 125 167 226 284 336 405
#     4  11  23  43  70  96 131 176 222 283 344 413
#     4  10  22  42  64  97 136 180 232 295 344 405
#     4  11  23  39  64 101 136 178 235 287 349 413
#     4  10  24  43  64 100 139 176 225 287 353 416
#
# _framework density 21.308838000000002
#
# number of rings (size 3 to 8) (size 9 to 14) (size 15 to 20)
#    0.000    1.500    1.250    3.375    1.750   10.000 
#    0.000    1.250    0.000    1.500    0.000    0.000 
#    0.000    0.000    0.000    0.000    0.000    0.000 
#
# Total GULP energy -357042.504111 kJ/mol
# GULP energy per Si atom -5578.789127 kJ/mol
# Density = 2.126034 g / cm^3
# Si number density = 21.308838 Si / 1000 Ang^3
#
#
#
# Elastic Constant Matrix: (Units=GPa)
#
#
# Indices 1 2 3 4 5 6 
#
# 1 121.8397 17.8640 14.3651 0.0000 0.0000 0.0000
# 2 17.8640 73.1785 29.5240 0.0000 0.0000 0.0000
# 3 14.3651 29.5240 100.4181 0.0000 0.0000 0.0000
# 4 0.0000 0.0000 0.0000 18.1443 0.0000 0.0000
# 5 0.0000 0.0000 0.0000 0.0000 19.8647 0.0000
# 6 0.0000 0.0000 0.0000 0.0000 0.0000 21.4931
#
#
#
# Elastic Compliance Matrix: (Units=1/GPa)
#
#
# Indices 1 2 3 4 5 6 
#
# 1 0.008554 -0.001809 -0.000692 0.000000 0.000000 0.000000
# 2 -0.001809 0.015887 -0.004412 0.000000 0.000000 0.000000
# 3 -0.000692 -0.004412 0.011355 0.000000 0.000000 0.000000
# 4 0.000000 0.000000 0.000000 0.055114 0.000000 0.000000
# 5 0.000000 0.000000 0.000000 0.000000 0.050341 0.000000
# 6 0.000000 0.000000 0.000000 0.000000 0.000000 0.046527
#
#
# Mechanical properties :
#
#
# Convention : Reuss Voigt Hill
#
# Bulk Modulus (GPa) = 45.51736 46.54920 46.03328
# Shear Modulus (GPa) = 23.93192 27.47930 25.70561
#
# Velocity S-wave (km/s) = 3.35490 3.59496 3.47700
# Velocity P-wave (km/s) = 6.03443 6.25492 6.14566
#
# Compressibility (1/GPa) = 0.02196964
#
# Stress axis : x y z
#
# Youngs Moduli (GPa) = 116.89997 62.94483 88.07046
#
# Poissons Ratio (x) = 0.11388 0.06093
# Poissons Ratio (y) = 0.21149 0.38858
# Poissons Ratio (z) = 0.08087 0.27772
#
# Static dielectric constant tensor:
#      x y z
#    x 1.806960 0.000000 0.000000 
#    y 0.000000 1.789940 0.000000 
#    z 0.000000 0.000000 1.749100 
# 
# From -- ./inp_files/20659.got.cif
#   From: 2010.05.17/outbox.cif.g08.bks.cpg/sg60_11_cif.got.tgz:20659.got - 2010.06.03 14:59:27.
