data_PCOD9457651
_publ_section_title
;
Structure prediction by ZEFSAII (Michael W. Deem and Ramdas Pophale) SiO2 
 PCOD9457651
Probable space group: P B C N
;
_chemical_formula_sum "Si O2"
_cell_formula_units_Z 28
_cell_length_a 11.604806
_cell_length_b 10.372214
_cell_length_c 11.863667
_cell_angle_alpha 90.000000
_cell_angle_beta 90.000000
_cell_angle_gamma 90.000000
_cell_volume 1428.000308
_symmetry_space_group_name_H-M "P B C N"
_symmetry_group_IT_number 60
_symmetry_cell_setting 'orthorhombic'
loop_
_space_group_symop_operation_xyz
x,y,z
1/2-x,1/2-y,1/2+z
1/2+x,1/2-y,-z
-x,y,1/2-z
-x,-y,-z
1/2+x,1/2+y,1/2-z
1/2-x,1/2+y,z
x,-y,1/2+z
loop_
_atom_site_type_symbol
_atom_site_label
_atom_site_fract_x
_atom_site_fract_y
_atom_site_fract_z
Si Si1 0.160944 0.783456 0.738525
Si Si2 0.968967 0.131025 0.062126
Si Si3 0.000000 0.549944 0.750000
Si Si4 0.579758 0.800097 0.847464
O O1 0.078962 0.826739 0.635910
O O2 0.108531 0.643352 0.772400
O O3 0.290613 0.787773 0.697288
O O4 0.134180 0.873311 0.846378
O O5 0.938128 0.233636 0.966251
O O6 0.000000 0.000000 0.000000
O O7 0.037924 0.449247 0.653217
O O8 0.500000 0.736973 0.750000
#
# Coordination Sequence:
#
# PCOD9457651 Si02
#       4
#     8   8   4   8
#     4  10  24  44  63 101 133 174 229 287 339 411
#     4  10  24  42  66  96 136 177 228 281 346 409
#     4   8  22  42  64  94 130 164 228 272 336 412
#     4  10  24  40  67  98 123 186 221 274 357 394
#
# _framework density 19.607839999999999
#
# number of rings (size 3 to 8) (size 9 to 14) (size 15 to 20)
#    0.857    1.714    0.000    0.000   12.000    4.571 
#    5.143    0.000    0.000    0.000    0.000    0.000 
#    0.000    0.000    0.000    0.000    0.000    0.000 
#
# Total GULP energy -156021.952428 kJ/mol
# GULP energy per Si atom -5572.212587 kJ/mol
# Density = 1.956321 g / cm^3
# Si number density = 19.607840 Si / 1000 Ang^3
#
#
#
# Elastic Constant Matrix: (Units=GPa)
#
#
# Indices 1 2 3 4 5 6 
#
# 1 125.2011 40.8221 80.1698 0.0000 0.0000 0.0000
# 2 40.8221 123.0342 56.4345 0.0000 0.0000 0.0000
# 3 80.1698 56.4345 160.3763 0.0000 0.0000 0.0000
# 4 0.0000 0.0000 0.0000 32.9896 0.0000 0.0000
# 5 0.0000 0.0000 0.0000 0.0000 12.9800 0.0000
# 6 0.0000 0.0000 0.0000 0.0000 0.0000 2.2920
#
#
#
# Elastic Compliance Matrix: (Units=1/GPa)
#
#
# Indices 1 2 3 4 5 6 
#
# 1 0.011964 -0.001462 -0.005466 0.000000 0.000000 0.000000
# 2 -0.001462 0.009871 -0.002742 0.000000 0.000000 0.000000
# 3 -0.005466 -0.002742 0.009933 0.000000 0.000000 0.000000
# 4 0.000000 0.000000 0.000000 0.030313 0.000000 0.000000
# 5 0.000000 0.000000 0.000000 0.000000 0.077042 0.000000
# 6 0.000000 0.000000 0.000000 0.000000 0.000000 0.436309
#
#
# Mechanical properties :
#
#
# Convention : Reuss Voigt Hill
#
# Bulk Modulus (GPa) = 80.47641 84.82936 82.65289
# Shear Modulus (GPa) = 8.34843 25.06465 16.70654
#
# Velocity S-wave (km/s) = 2.06566 3.57921 2.92213
# Velocity P-wave (km/s) = 6.84261 7.77418 7.32322
#
# Compressibility (1/GPa) = 0.01242600
#
# Stress axis : x y z
#
# Youngs Moduli (GPa) = 83.58391 101.30718 100.67691
#
# Poissons Ratio (x) = 0.14815 0.55030
# Poissons Ratio (y) = 0.12223 0.27610
# Poissons Ratio (z) = 0.45687 0.27783
#
# Static dielectric constant tensor:
#      x y z
#    x 1.669010 0.000000 0.000000 
#    y 0.000000 1.738450 0.000000 
#    z 0.000000 0.000000 1.686570 
# 
# From -- ./inp_files/10528.got.cif
#   From: 2010.05.17/outbox.cif.g08.bks.cpg/sg60_6_cif.got.tgz:10528.got - 2010.06.03 14:59:27.
