data_PCOD9457697
_publ_section_title
;
Structure prediction by ZEFSAII (Michael W. Deem and Ramdas Pophale) SiO2 
 PCOD9457697
Probable space group: P B C N
;
_chemical_formula_sum "Si O2"
_cell_formula_units_Z 36
_cell_length_a 18.502378
_cell_length_b 9.364409
_cell_length_c 8.662973
_cell_angle_alpha 90.000000
_cell_angle_beta 90.000000
_cell_angle_gamma 90.000000
_cell_volume 1500.979925
_symmetry_space_group_name_H-M "P B C N"
_symmetry_group_IT_number 60
_symmetry_cell_setting 'orthorhombic'
loop_
_space_group_symop_operation_xyz
x,y,z
1/2-x,1/2-y,1/2+z
1/2+x,1/2-y,-z
-x,y,1/2-z
-x,-y,-z
1/2+x,1/2+y,1/2-z
1/2-x,1/2+y,z
x,-y,1/2+z
loop_
_atom_site_type_symbol
_atom_site_label
_atom_site_fract_x
_atom_site_fract_y
_atom_site_fract_z
Si Si1 0.500000 0.545239 0.250000
Si Si2 0.055803 0.559927 0.376759
Si Si3 0.091189 0.859538 0.471691
Si Si4 0.728756 0.591028 0.351535
Si Si5 0.312306 0.860795 0.346135
O O1 0.468042 0.634872 0.108488
O O2 0.439524 0.443911 0.325700
O O3 0.104226 0.693661 0.432152
O O4 0.108957 0.432224 0.328475
O O5 0.000000 0.617149 0.250000
O O6 0.000000 0.500000 0.500000
O O7 0.160987 0.938064 0.537758
O O8 0.790313 0.641560 0.473399
O O9 0.699256 0.709845 0.234044
O O10 0.759583 0.463285 0.251618
#
# Coordination Sequence:
#
# PCOD9457697 Si02
#       5
#     4   8   8   8   8
#     4  10  24  42  68 104 142 190 238 294 376 430
#     4  12  26  46  72 101 144 188 243 298 364 444
#     4  11  23  44  68 103 142 187 235 302 360 442
#     4  12  25  46  73 105 148 188 252 298 379 435
#     4  12  27  48  74 109 145 201 240 314 367 447
#
# _framework density 23.984331000000001
#
# number of rings (size 3 to 8) (size 9 to 14) (size 15 to 20)
#    0.000    0.444    1.111    8.000    4.667    0.000 
#    4.000    0.000    0.000    0.000    0.000    0.000 
#    0.000    0.000    0.000    0.000    0.000    0.000 
#
# Total GULP energy -201697.031471 kJ/mol
# GULP energy per Si atom -5602.695319 kJ/mol
# Density = 2.392974 g / cm^3
# Si number density = 23.984331 Si / 1000 Ang^3
#
#
#
# Elastic Constant Matrix: (Units=GPa)
#
#
# Indices 1 2 3 4 5 6 
#
# 1 82.7687 11.4412 -11.8249 0.0000 0.0000 0.0000
# 2 11.4412 73.0628 15.1172 0.0000 0.0000 0.0000
# 3 -11.8249 15.1172 80.1896 0.0000 0.0000 0.0000
# 4 0.0000 0.0000 0.0000 35.5126 0.0000 0.0000
# 5 0.0000 0.0000 0.0000 0.0000 59.0666 0.0000
# 6 0.0000 0.0000 0.0000 0.0000 0.0000 29.9709
#
#
#
# Elastic Compliance Matrix: (Units=1/GPa)
#
#
# Indices 1 2 3 4 5 6 
#
# 1 0.012761 -0.002485 0.002350 0.000000 0.000000 0.000000
# 2 -0.002485 0.014726 -0.003143 0.000000 0.000000 0.000000
# 3 0.002350 -0.003143 0.013409 0.000000 0.000000 0.000000
# 4 0.000000 0.000000 0.000000 0.028159 0.000000 0.000000
# 5 0.000000 0.000000 0.000000 0.000000 0.016930 0.000000
# 6 0.000000 0.000000 0.000000 0.000000 0.000000 0.033366
#
#
# Mechanical properties :
#
#
# Convention : Reuss Voigt Hill
#
# Bulk Modulus (GPa) = 29.11822 29.49867 29.30844
# Shear Modulus (GPa) = 36.40259 39.66253 38.03256
#
# Velocity S-wave (km/s) = 3.90008 4.07096 3.98644
# Velocity P-wave (km/s) = 5.69629 5.86710 5.78232
#
# Compressibility (1/GPa) = 0.03434276
#
# Stress axis : x y z
#
# Youngs Moduli (GPa) = 78.36336 67.90645 74.57437
#
# Poissons Ratio (x) = 0.16872 -0.17526
# Poissons Ratio (y) = 0.19470 0.23435
# Poissons Ratio (z) = -0.18417 0.21340
#
# Static dielectric constant tensor:
#      x y z
#    x 1.916160 0.000000 0.000000 
#    y 0.000000 1.881250 0.000000 
#    z 0.000000 0.000000 1.903070 
# 
# From -- ./inp_files/7185.got.cif
#   From: 2010.05.17/outbox.cif.g08.bks.cpg/sg60_4_cif.got.tgz:7185.got - 2010.06.03 14:59:27.
