data_PCOD9457012
_publ_section_title
;
Structure prediction by ZEFSAII (Michael W. Deem and Ramdas Pophale) SiO2 
 PCOD9457012
Probable space group: P B C N
;
_chemical_formula_sum "Si O2"
_cell_formula_units_Z 52
_cell_length_a 10.864139
_cell_length_b 9.123082
_cell_length_c 25.087594
_cell_angle_alpha 90.000000
_cell_angle_beta 90.000000
_cell_angle_gamma 90.000000
_cell_volume 2486.542603
_symmetry_space_group_name_H-M "P B C N"
_symmetry_group_IT_number 60
_symmetry_cell_setting 'orthorhombic'
loop_
_space_group_symop_operation_xyz
x,y,z
1/2-x,1/2-y,1/2+z
1/2+x,1/2-y,-z
-x,y,1/2-z
-x,-y,-z
1/2+x,1/2+y,1/2-z
1/2-x,1/2+y,z
x,-y,1/2+z
loop_
_atom_site_type_symbol
_atom_site_label
_atom_site_fract_x
_atom_site_fract_y
_atom_site_fract_z
Si Si1 0.270488 0.947255 0.379974
Si Si2 0.000367 0.576492 0.442576
Si Si3 0.500000 0.134122 0.750000
Si Si4 0.644375 0.064616 0.848451
Si Si5 0.011001 0.077157 0.943228
Si Si6 0.144778 0.170202 0.316233
Si Si7 0.378566 0.405435 0.646397
O O1 0.144785 0.938909 0.414478
O O2 0.321277 0.788546 0.362375
O O3 0.372338 0.031429 0.413960
O O4 0.239246 0.039761 0.326311
O O5 0.987650 0.750237 0.448130
O O6 0.000000 0.500000 0.500000
O O7 0.896690 0.516845 0.402202
O O8 0.538539 0.050460 0.803320
O O9 0.379471 0.233603 0.763787
O O10 0.657391 0.236277 0.861887
O O11 0.768369 0.992685 0.826588
O O12 0.911220 0.995603 0.906553
O O13 0.000000 0.000000 0.000000
O O14 0.009259 0.102468 0.324150
#
# Coordination Sequence:
#
# PCOD9457012 Si02
#       7
#     8   8   4   8   8   8   8
#     4  11  22  44  66  94 141 178 229 283 347 431
#     4  12  25  41  68 100 136 188 228 284 362 418
#     4  10  22  42  72 102 136 184 234 294 348 422
#     4  11  23  44  67  97 142 178 232 289 348 418
#     4  11  25  41  67  98 135 185 234 285 347 421
#     4  10  22  42  68  97 132 180 229 286 346 412
#     4  10  22  42  63  95 136 173 228 286 342 410
#
# _framework density 20.912572000000001
#
# number of rings (size 3 to 8) (size 9 to 14) (size 15 to 20)
#    0.000    1.231    4.615    1.846    4.308    2.462 
#    0.000    0.000    0.000    5.538    0.000    0.000 
#    0.000    0.000    0.000    0.000    0.000    0.000 
#
# Total GULP energy -290272.609599 kJ/mol
# GULP energy per Si atom -5582.165569 kJ/mol
# Density = 2.086497 g / cm^3
# Si number density = 20.912572 Si / 1000 Ang^3
#
#
#
# Elastic Constant Matrix: (Units=GPa)
#
#
# Indices 1 2 3 4 5 6 
#
# 1 101.8374 35.9886 15.8334 0.0000 0.0000 0.0000
# 2 35.9886 133.3547 26.6903 0.0000 0.0000 0.0000
# 3 15.8334 26.6903 87.3142 0.0000 0.0000 0.0000
# 4 0.0000 0.0000 0.0000 27.6667 0.0000 0.0000
# 5 0.0000 0.0000 0.0000 0.0000 27.0127 0.0000
# 6 0.0000 0.0000 0.0000 0.0000 0.0000 42.8650
#
#
#
# Elastic Compliance Matrix: (Units=1/GPa)
#
#
# Indices 1 2 3 4 5 6 
#
# 1 0.010963 -0.002728 -0.001154 0.000000 0.000000 0.000000
# 2 -0.002728 0.008666 -0.002154 0.000000 0.000000 0.000000
# 3 -0.001154 -0.002154 0.012321 0.000000 0.000000 0.000000
# 4 0.000000 0.000000 0.000000 0.036145 0.000000 0.000000
# 5 0.000000 0.000000 0.000000 0.000000 0.037020 0.000000
# 6 0.000000 0.000000 0.000000 0.000000 0.000000 0.023329
#
#
# Mechanical properties :
#
#
# Convention : Reuss Voigt Hill
#
# Bulk Modulus (GPa) = 50.30864 53.28121 51.79492
# Shear Modulus (GPa) = 33.98091 35.77512 34.87801
#
# Velocity S-wave (km/s) = 4.03538 4.14055 4.08830
# Velocity P-wave (km/s) = 6.76914 6.95645 6.86344
#
# Compressibility (1/GPa) = 0.01987730
#
# Stress axis : x y z
#
# Youngs Moduli (GPa) = 91.21640 115.39225 81.16374
#
# Poissons Ratio (x) = 0.31474 0.09368
# Poissons Ratio (y) = 0.24880 0.17486
# Poissons Ratio (z) = 0.10529 0.24861
#
# Static dielectric constant tensor:
#      x y z
#    x 1.789360 0.000000 0.000000 
#    y 0.000000 1.743150 0.000000 
#    z 0.000000 0.000000 1.785630 
# 
# From -- ./inp_files/25293.got.cif
#   From: 2010.05.17/outbox.cif.g08.bks.cpg/sg60_13_cif.got.tgz:25293.got - 2010.06.03 14:59:27.
