data_PCOD9457770
_publ_section_title
;
Structure prediction by ZEFSAII (Michael W. Deem and Ramdas Pophale) SiO2 
 PCOD9457770
Probable space group: P B C N
;
_chemical_formula_sum "Si O2"
_cell_formula_units_Z 28
_cell_length_a 4.930667
_cell_length_b 21.347515
_cell_length_c 10.431841
_cell_angle_alpha 90.000000
_cell_angle_beta 90.000000
_cell_angle_gamma 90.000000
_cell_volume 1098.029376
_symmetry_space_group_name_H-M "P B C N"
_symmetry_group_IT_number 60
_symmetry_cell_setting 'orthorhombic'
loop_
_space_group_symop_operation_xyz
x,y,z
1/2-x,1/2-y,1/2+z
1/2+x,1/2-y,-z
-x,y,1/2-z
-x,-y,-z
1/2+x,1/2+y,1/2-z
1/2-x,1/2+y,z
x,-y,1/2+z
loop_
_atom_site_type_symbol
_atom_site_label
_atom_site_fract_x
_atom_site_fract_y
_atom_site_fract_z
Si Si1 0.082575 0.732255 0.068115
Si Si2 0.254453 0.008505 0.656119
Si Si3 0.351385 0.899072 0.469555
Si Si4 0.000000 0.167309 0.750000
O O1 0.181729 0.782280 0.172274
O O2 0.265613 0.754584 0.949341
O O3 0.117369 0.657979 0.069732
O O4 0.500000 0.988216 0.750000
O O5 0.220038 0.956854 0.545469
O O6 0.000000 0.011881 0.750000
O O7 0.371258 0.071990 0.589415
O O8 0.174336 0.872530 0.351539
#
# Coordination Sequence:
#
# PCOD9457770 Si02
#       4
#     8   8   8   4
#     4  10  24  44  72 110 145 199 255 314 392 460
#     4  11  28  50  79 115 157 214 262 327 395 470
#     4  10  26  51  79 115 164 201 271 325 401 472
#     4  10  24  50  82 114 156 208 256 330 396 474
#
# _framework density 25.500229999999998
#
# number of rings (size 3 to 8) (size 9 to 14) (size 15 to 20)
#    0.000    1.714    0.000    0.000    8.000   14.857 
#   10.286    0.000    0.000    0.000    0.000    0.000 
#    0.000    0.000    0.000    0.000    0.000    0.000 
#
# Total GULP energy -156529.937740 kJ/mol
# GULP energy per Si atom -5590.354919 kJ/mol
# Density = 2.544219 g / cm^3
# Si number density = 25.500230 Si / 1000 Ang^3
#
#
#
# Elastic Constant Matrix: (Units=GPa)
#
#
# Indices 1 2 3 4 5 6 
#
# 1 153.3463 78.6520 64.5637 0.0000 0.0000 0.0000
# 2 78.6520 242.1482 89.7211 0.0000 0.0000 0.0000
# 3 64.5637 89.7211 140.5105 0.0000 0.0000 0.0000
# 4 0.0000 0.0000 0.0000 57.7321 0.0000 0.0000
# 5 0.0000 0.0000 0.0000 0.0000 51.7726 0.0000
# 6 0.0000 0.0000 0.0000 0.0000 0.0000 13.2728
#
#
#
# Elastic Compliance Matrix: (Units=1/GPa)
#
#
# Indices 1 2 3 4 5 6 
#
# 1 0.008613 -0.001744 -0.002844 0.000000 0.000000 0.000000
# 2 -0.001744 0.005763 -0.002878 0.000000 0.000000 0.000000
# 3 -0.002844 -0.002878 0.010262 0.000000 0.000000 0.000000
# 4 0.000000 0.000000 0.000000 0.017321 0.000000 0.000000
# 5 0.000000 0.000000 0.000000 0.000000 0.019315 0.000000
# 6 0.000000 0.000000 0.000000 0.000000 0.000000 0.075342
#
#
# Mechanical properties :
#
#
# Convention : Reuss Voigt Hill
#
# Bulk Modulus (GPa) = 103.04253 111.31985 107.18119
# Shear Modulus (GPa) = 32.30311 44.76002 38.53156
#
# Velocity S-wave (km/s) = 3.56304 4.19415 3.89141
# Velocity P-wave (km/s) = 7.57781 8.19779 7.89389
#
# Compressibility (1/GPa) = 0.00970473
#
# Stress axis : x y z
#
# Youngs Moduli (GPa) = 116.10252 173.53285 97.44930
#
# Poissons Ratio (x) = 0.30260 0.27716
# Poissons Ratio (y) = 0.20246 0.28050
# Poissons Ratio (z) = 0.33022 0.49949
#
# Static dielectric constant tensor:
#      x y z
#    x 2.039700 0.000000 0.000000 
#    y 0.000000 2.060930 0.000000 
#    z 0.000000 0.000000 2.077260 
# 
# From -- ./inp_files/8763.got.cif
#   From: 2010.05.17/outbox.cif.g08.bks.cpg/sg60_5_cif.got.tgz:8763.got - 2010.06.03 14:59:27.
