data_PCOD9457401
_publ_section_title
;
Structure prediction by ZEFSAII (Michael W. Deem and Ramdas Pophale) SiO2 
 PCOD9457401
Probable space group: P B C N
;
_chemical_formula_sum "Si O2"
_cell_formula_units_Z 64
_cell_length_a 7.886522
_cell_length_b 22.845990
_cell_length_c 14.947927
_cell_angle_alpha 90.000000
_cell_angle_beta 90.000000
_cell_angle_gamma 90.000000
_cell_volume 2693.248767
_symmetry_space_group_name_H-M "P B C N"
_symmetry_group_IT_number 60
_symmetry_cell_setting 'orthorhombic'
loop_
_space_group_symop_operation_xyz
x,y,z
1/2-x,1/2-y,1/2+z
1/2+x,1/2-y,-z
-x,y,1/2-z
-x,-y,-z
1/2+x,1/2+y,1/2-z
1/2-x,1/2+y,z
x,-y,1/2+z
loop_
_atom_site_type_symbol
_atom_site_label
_atom_site_fract_x
_atom_site_fract_y
_atom_site_fract_z
Si Si1 0.875343 0.422729 0.450250
Si Si2 0.739006 0.193183 0.980405
Si Si3 0.696367 0.730135 0.640360
Si Si4 0.307261 0.769148 0.673851
Si Si5 0.924883 0.124202 0.534010
Si Si6 0.356274 0.386751 0.673817
Si Si7 0.772138 0.515994 0.583170
Si Si8 0.808036 0.020083 0.783402
O O1 0.905149 0.355247 0.477041
O O2 0.769546 0.455312 0.529249
O O3 0.785228 0.438034 0.354833
O O4 0.060982 0.450725 0.449430
O O5 0.707708 0.245777 0.912394
O O6 0.892274 0.152092 0.947571
O O7 0.777356 0.222449 0.074657
O O8 0.501544 0.752845 0.652438
O O9 0.760729 0.732873 0.741062
O O10 0.694084 0.667308 0.592845
O O11 0.284471 0.837500 0.693560
O O12 0.906563 0.126742 0.427755
O O13 0.886522 0.057893 0.561843
O O14 0.500000 0.379502 0.750000
O O15 0.311343 0.455202 0.674443
O O16 0.787130 0.511215 0.689407
O O17 0.000000 0.037013 0.750000
#
# Coordination Sequence:
#
# PCOD9457401 Si02
#       8
#     8   8   8   8   8   8   8   8
#     4  11  26  45  67 100 133 178 230 272 348 403
#     4  11  24  40  71  97 134 178 225 278 340 405
#     4  10  23  42  67  97 135 180 218 278 342 399
#     4  10  23  43  63  99 136 174 226 273 339 405
#     4  11  23  43  69  94 140 173 230 283 337 402
#     4  11  23  42  67  99 131 175 226 282 334 405
#     4  11  26  45  68  97 139 178 224 285 332 409
#     4  11  25  44  70  98 135 175 225 278 342 401
#
# _framework density 23.763124000000001
#
# number of rings (size 3 to 8) (size 9 to 14) (size 15 to 20)
#    0.000    1.250    2.500    1.875    8.750    1.000 
#    4.500    0.000    0.000    0.000    0.000    0.000 
#    0.000    0.000    0.000    0.000    0.000    0.000 
#
# Total GULP energy -357653.031475 kJ/mol
# GULP energy per Si atom -5588.328617 kJ/mol
# Density = 2.370904 g / cm^3
# Si number density = 23.763124 Si / 1000 Ang^3
#
#
#
# Elastic Constant Matrix: (Units=GPa)
#
#
# Indices 1 2 3 4 5 6 
#
# 1 20.9139 -2.2895 -17.2223 0.0000 0.0000 0.0000
# 2 -2.2895 47.7022 4.9184 0.0000 0.0000 0.0000
# 3 -17.2223 4.9184 110.3644 0.0000 0.0000 0.0000
# 4 0.0000 0.0000 0.0000 19.2028 0.0000 0.0000
# 5 0.0000 0.0000 0.0000 0.0000 27.0060 0.0000
# 6 0.0000 0.0000 0.0000 0.0000 0.0000 29.8502
#
#
#
# Elastic Compliance Matrix: (Units=1/GPa)
#
#
# Indices 1 2 3 4 5 6 
#
# 1 0.055013 0.001763 0.008506 0.000000 0.000000 0.000000
# 2 0.001763 0.021117 -0.000666 0.000000 0.000000 0.000000
# 3 0.008506 -0.000666 0.010418 0.000000 0.000000 0.000000
# 4 0.000000 0.000000 0.000000 0.052076 0.000000 0.000000
# 5 0.000000 0.000000 0.000000 0.000000 0.037029 0.000000
# 6 0.000000 0.000000 0.000000 0.000000 0.000000 0.033501
#
#
# Mechanical properties :
#
#
# Convention : Reuss Voigt Hill
#
# Bulk Modulus (GPa) = 9.45586 16.64374 13.04980
# Shear Modulus (GPa) = 22.20277 28.11672 25.15974
#
# Velocity S-wave (km/s) = 3.06001 3.44351 3.25741
# Velocity P-wave (km/s) = 4.05866 4.77803 4.43296
#
# Compressibility (1/GPa) = 0.10575452
#
# Stress axis : x y z
#
# Youngs Moduli (GPa) = 18.17759 47.35593 95.98824
#
# Poissons Ratio (x) = -0.08350 -0.81649
# Poissons Ratio (y) = -0.03205 0.06392
# Poissons Ratio (z) = -0.15462 0.03153
#
# Static dielectric constant tensor:
#      x y z
#    x 2.006320 0.000000 0.000000 
#    y 0.000000 1.919820 0.000000 
#    z 0.000000 0.000000 1.918650 
# 
# From -- ./inp_files/15429.got.cif
#   From: 2010.05.17/outbox.cif.g08.bks.cpg/sg60_8_cif.got.tgz:15429.got - 2010.06.03 14:59:27.
