data_PCOD9457781
_publ_section_title
;
Structure prediction by ZEFSAII (Michael W. Deem and Ramdas Pophale) SiO2 
 PCOD9457781
Probable space group: P B C N
;
_chemical_formula_sum "Si O2"
_cell_formula_units_Z 36
_cell_length_a 5.007097
_cell_length_b 25.089794
_cell_length_c 10.661298
_cell_angle_alpha 90.000000
_cell_angle_beta 90.000000
_cell_angle_gamma 90.000000
_cell_volume 1339.347228
_symmetry_space_group_name_H-M "P B C N"
_symmetry_group_IT_number 60
_symmetry_cell_setting 'orthorhombic'
loop_
_space_group_symop_operation_xyz
x,y,z
1/2-x,1/2-y,1/2+z
1/2+x,1/2-y,-z
-x,y,1/2-z
-x,-y,-z
1/2+x,1/2+y,1/2-z
1/2-x,1/2+y,z
x,-y,1/2+z
loop_
_atom_site_type_symbol
_atom_site_label
_atom_site_fract_x
_atom_site_fract_y
_atom_site_fract_z
Si Si1 0.500000 0.157563 0.750000
Si Si2 0.182188 0.216517 0.969594
Si Si3 0.243706 0.422202 0.061759
Si Si4 0.864994 0.367081 0.861230
Si Si5 0.846541 0.974113 0.866078
O O1 0.327019 0.193785 0.845698
O O2 0.289367 0.118678 0.677375
O O3 0.399977 0.254715 0.036763
O O4 0.151210 0.166885 0.063761
O O5 0.131994 0.480095 0.103373
O O6 0.505609 0.447270 0.989383
O O7 0.074214 0.390101 0.960339
O O8 0.753172 0.420391 0.801519
O O9 0.000000 0.334244 0.750000
O O10 0.000000 0.001595 0.750000
#
# Coordination Sequence:
#
# PCOD9457781 Si02
#       5
#     4   8   8   8   8
#     4  10  26  50  78 106 154 196 258 320 388 470
#     4  11  29  51  78 110 146 198 258 325 387 451
#     4  10  24  45  67 109 143 201 238 305 372 464
#     4  11  24  43  72 101 147 185 246 307 382 451
#     4  11  23  41  72 106 151 191 248 301 374 454
#
# _framework density 26.878765000000001
#
# number of rings (size 3 to 8) (size 9 to 14) (size 15 to 20)
#    0.000    1.333    2.222    0.667   10.889    7.111 
#    4.000    0.000    0.000    0.000    0.000    0.000 
#    0.000    0.000    0.000    0.000    0.000    0.000 
#
# Total GULP energy -200862.518889 kJ/mol
# GULP energy per Si atom -5579.514414 kJ/mol
# Density = 2.681759 g / cm^3
# Si number density = 26.878765 Si / 1000 Ang^3
#
#
#
# Elastic Constant Matrix: (Units=GPa)
#
#
# Indices 1 2 3 4 5 6 
#
# 1 84.5314 21.2274 9.6820 0.0000 0.0000 0.0000
# 2 21.2274 118.3245 15.8535 0.0000 0.0000 0.0000
# 3 9.6820 15.8535 109.2372 0.0000 0.0000 0.0000
# 4 0.0000 0.0000 0.0000 24.3832 0.0000 0.0000
# 5 0.0000 0.0000 0.0000 0.0000 32.5757 0.0000
# 6 0.0000 0.0000 0.0000 0.0000 0.0000 50.3826
#
#
#
# Elastic Compliance Matrix: (Units=1/GPa)
#
#
# Indices 1 2 3 4 5 6 
#
# 1 0.012455 -0.002128 -0.000795 0.000000 0.000000 0.000000
# 2 -0.002128 0.008982 -0.001115 0.000000 0.000000 0.000000
# 3 -0.000795 -0.001115 0.009387 0.000000 0.000000 0.000000
# 4 0.000000 0.000000 0.000000 0.041012 0.000000 0.000000
# 5 0.000000 0.000000 0.000000 0.000000 0.030698 0.000000
# 6 0.000000 0.000000 0.000000 0.000000 0.000000 0.019848
#
#
# Mechanical properties :
#
#
# Convention : Reuss Voigt Hill
#
# Bulk Modulus (GPa) = 43.95928 45.06879 44.51404
# Shear Modulus (GPa) = 36.22109 39.15699 37.68904
#
# Velocity S-wave (km/s) = 3.67491 3.82095 3.74864
# Velocity P-wave (km/s) = 5.86488 6.02246 5.94419
#
# Compressibility (1/GPa) = 0.02274833
#
# Stress axis : x y z
#
# Youngs Moduli (GPa) = 80.28673 111.32776 106.53385
#
# Poissons Ratio (x) = 0.23690 0.08471
# Poissons Ratio (y) = 0.17085 0.11879
# Poissons Ratio (z) = 0.06384 0.12413
#
# Static dielectric constant tensor:
#      x y z
#    x 2.290690 0.000000 0.000000 
#    y 0.000000 2.136470 0.000000 
#    z 0.000000 0.000000 2.210550 
# 
# From -- ./inp_files/9008.got.cif
#   From: 2010.05.17/outbox.cif.g08.bks.cpg/sg60_5_cif.got.tgz:9008.got - 2010.06.03 14:59:27.
