data_PCOD9457846
_publ_section_title
;
Structure prediction by ZEFSAII (Michael W. Deem and Ramdas Pophale) SiO2 
 PCOD9457846
Probable space group: P B C N
;
_chemical_formula_sum "Si O2"
_cell_formula_units_Z 24
_cell_length_a 8.753967
_cell_length_b 21.595305
_cell_length_c 5.351954
_cell_angle_alpha 90.000000
_cell_angle_beta 90.000000
_cell_angle_gamma 90.000000
_cell_volume 1011.757935
_symmetry_space_group_name_H-M "P B C N"
_symmetry_group_IT_number 60
_symmetry_cell_setting 'orthorhombic'
loop_
_space_group_symop_operation_xyz
x,y,z
1/2-x,1/2-y,1/2+z
1/2+x,1/2-y,-z
-x,y,1/2-z
-x,-y,-z
1/2+x,1/2+y,1/2-z
1/2-x,1/2+y,z
x,-y,1/2+z
loop_
_atom_site_type_symbol
_atom_site_label
_atom_site_fract_x
_atom_site_fract_y
_atom_site_fract_z
Si Si1 0.604179 0.276425 0.997948
Si Si2 0.930458 0.069755 0.001278
Si Si3 0.824751 0.646713 0.191058
O O1 0.500000 0.274655 0.750000
O O2 0.734707 0.327962 0.938285
O O3 0.500000 0.280470 0.250000
O O4 0.679258 0.208250 0.020573
O O5 0.000000 0.095891 0.750000
O O6 0.756029 0.088788 0.049154
O O7 0.000000 0.097889 0.250000
O O8 0.000000 0.000000 0.000000
O O9 0.000000 0.631988 0.250000
#
# Coordination Sequence:
#
# PCOD9457846 Si02
#       3
#     8   8   8
#     4  11  25  43  65 104 152 192 225 277 370 448
#     4  10  24  47  70  94 132 190 241 284 350 420
#     4  11  24  42  70 108 143 182 236 299 349 422
#
# _framework density 23.721087000000001
#
# number of rings (size 3 to 8) (size 9 to 14) (size 15 to 20)
#    0.000    1.333    0.000    5.000    0.000   17.333 
#    0.000    6.667    0.000    0.000    0.000    7.000 
#    0.000    0.000    0.000    0.000    0.000    0.000 
#
# Total GULP energy -133726.876034 kJ/mol
# GULP energy per Si atom -5571.953168 kJ/mol
# Density = 2.366710 g / cm^3
# Si number density = 23.721087 Si / 1000 Ang^3
#
#
#
# Elastic Constant Matrix: (Units=GPa)
#
#
# Indices 1 2 3 4 5 6 
#
# 1 215.3582 62.4378 79.2898 0.0000 0.0000 0.0000
# 2 62.4378 147.8619 9.1897 0.0000 0.0000 0.0000
# 3 79.2898 9.1897 205.0071 0.0000 0.0000 0.0000
# 4 0.0000 0.0000 0.0000 0.3401 0.0000 0.0000
# 5 0.0000 0.0000 0.0000 0.0000 45.7111 0.0000
# 6 0.0000 0.0000 0.0000 0.0000 0.0000 76.4610
#
#
#
# Elastic Compliance Matrix: (Units=1/GPa)
#
#
# Indices 1 2 3 4 5 6 
#
# 1 0.006204 -0.002478 -0.002289 0.000000 0.000000 0.000000
# 2 -0.002478 0.007771 0.000610 0.000000 0.000000 0.000000
# 3 -0.002289 0.000610 0.005736 0.000000 0.000000 0.000000
# 4 0.000000 0.000000 0.000000 2.940376 0.000000 0.000000
# 5 0.000000 0.000000 0.000000 0.000000 0.021877 0.000000
# 6 0.000000 0.000000 0.000000 0.000000 0.000000 0.013079
#
#
# Mechanical properties :
#
#
# Convention : Reuss Voigt Hill
#
# Bulk Modulus (GPa) = 87.72867 96.67356 92.20111
# Shear Modulus (GPa) = 1.66270 52.32309 26.99289
#
# Velocity S-wave (km/s) = 0.83813 4.70165 3.37698
# Velocity P-wave (km/s) = 6.16444 8.38551 7.35925
#
# Compressibility (1/GPa) = 0.01139878
#
# Stress axis : x y z
#
# Youngs Moduli (GPa) = 161.17670 128.67669 174.34717
#
# Poissons Ratio (x) = 0.31882 0.39901
# Poissons Ratio (y) = 0.39935 -0.10634
# Poissons Ratio (z) = 0.36886 -0.07848
#
# Static dielectric constant tensor:
#      x y z
#    x 1.043270 0.000000 0.000000 
#    y 0.000000 4.120740 0.000000 
#    z 0.000000 0.000000 1.952500 
# 
# From -- ./inp_files/233.got.cif
#   From: 2010.05.17/outbox.cif.g08.bks.cpg/sg60_1_cif.got.tgz:233.got - 2010.06.03 14:59:27.
