data_PCOD9457515
_publ_section_title
;
Structure prediction by ZEFSAII (Michael W. Deem and Ramdas Pophale) SiO2 
 PCOD9457515
Probable space group: P B C N
;
_chemical_formula_sum "Si O2"
_cell_formula_units_Z 64
_cell_length_a 14.170325
_cell_length_b 21.844134
_cell_length_c 9.353497
_cell_angle_alpha 90.000000
_cell_angle_beta 90.000000
_cell_angle_gamma 90.000000
_cell_volume 2895.267227
_symmetry_space_group_name_H-M "P B C N"
_symmetry_group_IT_number 60
_symmetry_cell_setting 'orthorhombic'
loop_
_space_group_symop_operation_xyz
x,y,z
1/2-x,1/2-y,1/2+z
1/2+x,1/2-y,-z
-x,y,1/2-z
-x,-y,-z
1/2+x,1/2+y,1/2-z
1/2-x,1/2+y,z
x,-y,1/2+z
loop_
_atom_site_type_symbol
_atom_site_label
_atom_site_fract_x
_atom_site_fract_y
_atom_site_fract_z
Si Si1 0.341945 0.251109 0.025732
Si Si2 0.463288 0.301002 0.597892
Si Si3 0.147149 0.974850 0.982423
Si Si4 0.535940 0.592776 0.595408
Si Si5 0.592259 0.081156 0.672614
Si Si6 0.586145 0.872861 0.859965
Si Si7 0.315039 0.796627 0.214625
Si Si8 0.727903 0.024193 0.255031
O O1 0.357808 0.190599 0.121233
O O2 0.277264 0.296890 0.116165
O O3 0.445135 0.276177 0.985429
O O4 0.297164 0.231221 0.873201
O O5 0.500000 0.326365 0.750000
O O6 0.420686 0.353516 0.499238
O O7 0.390763 0.247488 0.636848
O O8 0.208398 0.942286 0.862342
O O9 0.107713 0.036210 0.905238
O O10 0.058148 0.934026 0.022413
O O11 0.208843 0.995192 0.118637
O O12 0.500000 0.613126 0.750000
O O13 0.500000 0.055815 0.750000
O O14 0.558410 0.107616 0.520940
O O15 0.637091 0.137988 0.758808
O O16 0.670958 0.028868 0.671354
O O17 0.500000 0.866665 0.750000
O O18 0.654567 0.927086 0.812995
#
# Coordination Sequence:
#
# PCOD9457515 Si02
#       8
#     8   8   8   8   8   8   8   8
#     4  10  24  44  67  99 132 174 224 275 337 399
#     4  10  24  44  69  99 133 177 223 277 337 401
#     4  11  26  44  65 104 137 177 224 279 332 398
#     4  11  25  43  68  96 143 178 219 277 342 393
#     4  11  25  45  68  96 137 175 219 282 338 396
#     4  11  26  45  68  98 136 175 222 280 336 400
#     4  10  23  44  68  96 134 174 221 278 338 397
#     4  12  25  44  70  98 135 175 232 271 332 399
#
# _framework density 22.105041
#
# number of rings (size 3 to 8) (size 9 to 14) (size 15 to 20)
#    0.000    1.250    2.500    2.250    7.000    5.500 
#    0.000    0.000    0.000    0.000    0.000    0.000 
#    0.000    0.000    0.000    0.000    0.000    0.000 
#
# Total GULP energy -358117.502821 kJ/mol
# GULP energy per Si atom -5595.585982 kJ/mol
# Density = 2.205473 g / cm^3
# Si number density = 22.105041 Si / 1000 Ang^3
#
#
#
# Elastic Constant Matrix: (Units=GPa)
#
#
# Indices 1 2 3 4 5 6 
#
# 1 80.7918 6.6251 42.8940 0.0000 0.0000 0.0000
# 2 6.6251 58.4296 23.5960 0.0000 0.0000 0.0000
# 3 42.8940 23.5960 82.6608 0.0000 0.0000 0.0000
# 4 0.0000 0.0000 0.0000 26.5846 0.0000 0.0000
# 5 0.0000 0.0000 0.0000 0.0000 45.6553 0.0000
# 6 0.0000 0.0000 0.0000 0.0000 0.0000 62.7405
#
#
#
# Elastic Compliance Matrix: (Units=1/GPa)
#
#
# Indices 1 2 3 4 5 6 
#
# 1 0.017264 0.001877 -0.009495 0.000000 0.000000 0.000000
# 2 0.001877 0.019549 -0.006554 0.000000 0.000000 0.000000
# 3 -0.009495 -0.006554 0.018895 0.000000 0.000000 0.000000
# 4 0.000000 0.000000 0.000000 0.037616 0.000000 0.000000
# 5 0.000000 0.000000 0.000000 0.000000 0.021903 0.000000
# 6 0.000000 0.000000 0.000000 0.000000 0.000000 0.015939
#
#
# Mechanical properties :
#
#
# Convention : Reuss Voigt Hill
#
# Bulk Modulus (GPa) = 36.54360 40.90139 38.72250
# Shear Modulus (GPa) = 29.65046 36.91389 33.28218
#
# Velocity S-wave (km/s) = 3.66641 4.09091 3.88446
# Velocity P-wave (km/s) = 5.87291 6.39198 6.13794
#
# Compressibility (1/GPa) = 0.02736457
#
# Stress axis : x y z
#
# Youngs Moduli (GPa) = 57.92256 51.15455 52.92295
#
# Poissons Ratio (x) = -0.09600 0.50248
# Poissons Ratio (y) = -0.10870 0.34686
# Poissons Ratio (z) = 0.54995 0.33527
#
# Static dielectric constant tensor:
#      x y z
#    x 1.786120 0.000000 0.000000 
#    y 0.000000 1.788810 0.000000 
#    z 0.000000 0.000000 -0.132550 
# 
# From -- ./inp_files/6298.got.cif
#   From: 2010.05.17/outbox.cif.g08.bks.cpg/sg60_4_cif.got.tgz:6298.got - 2010.06.03 14:59:27.
