data_PCOD9457596
_publ_section_title
;
Structure prediction by ZEFSAII (Michael W. Deem and Ramdas Pophale) SiO2 
 PCOD9457596
Probable space group: P B C N
;
_chemical_formula_sum "Si O2"
_cell_formula_units_Z 28
_cell_length_a 10.073696
_cell_length_b 9.338964
_cell_length_c 13.931799
_cell_angle_alpha 90.000000
_cell_angle_beta 90.000000
_cell_angle_gamma 90.000000
_cell_volume 1310.674174
_symmetry_space_group_name_H-M "P B C N"
_symmetry_group_IT_number 60
_symmetry_cell_setting 'orthorhombic'
loop_
_space_group_symop_operation_xyz
x,y,z
1/2-x,1/2-y,1/2+z
1/2+x,1/2-y,-z
-x,y,1/2-z
-x,-y,-z
1/2+x,1/2+y,1/2-z
1/2-x,1/2+y,z
x,-y,1/2+z
loop_
_atom_site_type_symbol
_atom_site_label
_atom_site_fract_x
_atom_site_fract_y
_atom_site_fract_z
Si Si1 0.159038 0.877742 0.107438
Si Si2 0.356245 0.820692 0.280959
Si Si3 0.641669 0.918673 0.004425
Si Si4 0.500000 0.459922 0.750000
O O1 0.250130 0.855630 0.201073
O O2 0.031023 0.951126 0.154678
O O3 0.132085 0.727651 0.056510
O O4 0.242176 0.982350 0.038505
O O5 0.500000 0.883525 0.250000
O O6 0.326826 0.873983 0.386749
O O7 0.381058 0.649909 0.274802
O O8 0.500000 0.000000 0.000000
#
# Coordination Sequence:
#
# PCOD9457596 Si02
#       4
#     8   8   8   4
#     4  12  26  47  75 110 146 196 250 307 374 444
#     4  10  23  47  69 105 154 184 247 309 364 445
#     4  12  26  46  77 109 148 200 248 304 379 446
#     4  10  24  48  72 104 152 190 242 308 368 434
#
# _framework density 21.363050000000001
#
# number of rings (size 3 to 8) (size 9 to 14) (size 15 to 20)
#    0.857    0.000    5.714    0.000    4.000    5.714 
#    0.000    0.000    0.000    0.000    0.000    0.000 
#    0.000    0.000    0.000    0.000    0.000    0.000 
#
# Total GULP energy -156554.386212 kJ/mol
# GULP energy per Si atom -5591.228079 kJ/mol
# Density = 2.131443 g / cm^3
# Si number density = 21.363050 Si / 1000 Ang^3
#
#
#
# Elastic Constant Matrix: (Units=GPa)
#
#
# Indices 1 2 3 4 5 6 
#
# 1 33.3501 26.1995 36.5655 0.0000 0.0000 0.0000
# 2 26.1995 146.9475 80.7739 0.0000 0.0000 0.0000
# 3 36.5655 80.7739 189.9346 0.0000 0.0000 0.0000
# 4 0.0000 0.0000 0.0000 2956.5928 0.0000 0.0000
# 5 0.0000 0.0000 0.0000 0.0000 41.8561 0.0000
# 6 0.0000 0.0000 0.0000 0.0000 0.0000 -71.9374
#
#
#
# Elastic Compliance Matrix: (Units=1/GPa)
#
#
# Indices 1 2 3 4 5 6 
#
# 1 0.039520 -0.003738 -0.006019 0.000000 0.000000 0.000000
# 2 -0.003738 0.009235 -0.003208 0.000000 0.000000 0.000000
# 3 -0.006019 -0.003208 0.007788 0.000000 0.000000 0.000000
# 4 0.000000 0.000000 0.000000 0.000338 0.000000 0.000000
# 5 0.000000 0.000000 0.000000 0.000000 0.023891 0.000000
# 6 0.000000 0.000000 0.000000 0.000000 0.000000 -0.013901
#
#
# Mechanical properties :
#
#
# Convention : Reuss Voigt Hill
#
# Bulk Modulus (GPa) = 32.66433 73.03442 52.84937
# Shear Modulus (GPa) = 48.54154 600.41520 324.47837
#
# Velocity S-wave (km/s) = 4.77195 16.78283 12.33764
# Velocity P-wave (km/s) = 6.75909 20.24383 15.09135
#
# Compressibility (1/GPa) = 0.03061443
#
# Stress axis : x y z
#
# Youngs Moduli (GPa) = 25.30352 108.28639 128.40566
#
# Poissons Ratio (x) = 0.40475 0.77284
# Poissons Ratio (y) = 0.09458 0.41189
# Poissons Ratio (z) = 0.15229 0.34735
#
# Static dielectric constant tensor:
#      x y z
#    x 1.690770 0.000000 0.000000 
#    y 0.000000 1.770050 0.000000 
#    z 0.000000 0.000000 1.702510 
# 
# From -- ./inp_files/15513.got.cif
#   From: 2010.05.17/outbox.cif.g08.bks.cpg/sg60_8_cif.got.tgz:15513.got - 2010.06.03 14:59:27.
