data_PCOD9457925
_publ_section_title
;
Structure prediction by ZEFSAII (Michael W. Deem and Ramdas Pophale) SiO2 
 PCOD9457925
Probable space group: P B C N
;
_chemical_formula_sum "Si O2"
_cell_formula_units_Z 24
_cell_length_a 8.258626
_cell_length_b 21.440565
_cell_length_c 5.445185
_cell_angle_alpha 90.000000
_cell_angle_beta 90.000000
_cell_angle_gamma 90.000000
_cell_volume 964.176771
_symmetry_space_group_name_H-M "P B C N"
_symmetry_group_IT_number 60
_symmetry_cell_setting 'orthorhombic'
loop_
_space_group_symop_operation_xyz
x,y,z
1/2-x,1/2-y,1/2+z
1/2+x,1/2-y,-z
-x,y,1/2-z
-x,-y,-z
1/2+x,1/2+y,1/2-z
1/2-x,1/2+y,z
x,-y,1/2+z
loop_
_atom_site_type_symbol
_atom_site_label
_atom_site_fract_x
_atom_site_fract_y
_atom_site_fract_z
Si Si1 0.814168 0.524887 0.510069
Si Si2 0.401477 0.217985 0.494922
Si Si3 0.679117 0.352527 0.199677
O O1 0.740121 0.509949 0.245981
O O2 0.794156 0.597141 0.574499
O O3 0.000000 0.500000 0.500000
O O4 0.500000 0.202534 0.250000
O O5 0.256092 0.170478 0.544222
O O6 0.341454 0.288681 0.453890
O O7 0.500000 0.215521 0.750000
O O8 0.500000 0.378107 0.250000
#
# Coordination Sequence:
#
# PCOD9457925 Si02
#       3
#     8   8   8
#     4  10  25  48  71 107 146 209 258 310 380 459
#     4  11  26  47  75 118 157 209 249 326 412 469
#     4  11  25  48  77 115 159 196 266 325 388 465
#
# _framework density 24.891705000000002
#
# number of rings (size 3 to 8) (size 9 to 14) (size 15 to 20)
#    0.000    1.333    0.000    4.000    4.667   12.000 
#   12.000    0.000    0.000    0.000    0.000    0.000 
#    0.000    0.000    0.000    0.000    0.000    0.000 
#
# Total GULP energy -134396.024945 kJ/mol
# GULP energy per Si atom -5599.834373 kJ/mol
# Density = 2.483505 g / cm^3
# Si number density = 24.891705 Si / 1000 Ang^3
#
#
#
# Elastic Constant Matrix: (Units=GPa)
#
#
# Indices 1 2 3 4 5 6 
#
# 1 124.5043 54.5766 52.0979 0.0000 0.0000 0.0000
# 2 54.5766 138.3833 59.5176 0.0000 0.0000 0.0000
# 3 52.0979 59.5176 212.1677 0.0000 0.0000 0.0000
# 4 0.0000 0.0000 0.0000 40.0663 0.0000 0.0000
# 5 0.0000 0.0000 0.0000 0.0000 29.3657 0.0000
# 6 0.0000 0.0000 0.0000 0.0000 0.0000 39.1579
#
#
#
# Elastic Compliance Matrix: (Units=1/GPa)
#
#
# Indices 1 2 3 4 5 6 
#
# 1 0.010143 -0.003331 -0.001556 0.000000 0.000000 0.000000
# 2 -0.003331 0.009312 -0.001794 0.000000 0.000000 0.000000
# 3 -0.001556 -0.001794 0.005599 0.000000 0.000000 0.000000
# 4 0.000000 0.000000 0.000000 0.024959 0.000000 0.000000
# 5 0.000000 0.000000 0.000000 0.000000 0.034053 0.000000
# 6 0.000000 0.000000 0.000000 0.000000 0.000000 0.025538
#
#
# Mechanical properties :
#
#
# Convention : Reuss Voigt Hill
#
# Bulk Modulus (GPa) = 85.53833 89.71553 87.62693
# Shear Modulus (GPa) = 39.41258 42.30886 40.86072
#
# Velocity S-wave (km/s) = 3.98347 4.12724 4.05599
# Velocity P-wave (km/s) = 7.45628 7.67025 7.56402
#
# Compressibility (1/GPa) = 0.01169067
#
# Stress axis : x y z
#
# Youngs Moduli (GPa) = 98.58815 107.39190 178.61291
#
# Poissons Ratio (x) = 0.35772 0.27797
# Poissons Ratio (y) = 0.32840 0.32047
# Poissons Ratio (z) = 0.15343 0.19268
#
# Static dielectric constant tensor:
#      x y z
#    x 2.088490 0.000000 0.000000 
#    y 0.000000 1.951690 0.000000 
#    z 0.000000 0.000000 1.966540 
# 
# From -- ./inp_files/217.got.cif
#   From: 2010.05.17/outbox.cif.g08.bks.cpg/sg60_1_cif.got.tgz:217.got - 2010.06.03 14:59:27.
