data_PCOD9457052
_publ_section_title
;
Structure prediction by ZEFSAII (Michael W. Deem and Ramdas Pophale) SiO2 
 PCOD9457052
Probable space group: P B C N
;
_chemical_formula_sum "Si O2"
_cell_formula_units_Z 32
_cell_length_a 8.245814
_cell_length_b 32.585209
_cell_length_c 5.347945
_cell_angle_alpha 90.000000
_cell_angle_beta 90.000000
_cell_angle_gamma 90.000000
_cell_volume 1436.947752
_symmetry_space_group_name_H-M "P B C N"
_symmetry_group_IT_number 60
_symmetry_cell_setting 'orthorhombic'
loop_
_space_group_symop_operation_xyz
x,y,z
1/2-x,1/2-y,1/2+z
1/2+x,1/2-y,-z
-x,y,1/2-z
-x,-y,-z
1/2+x,1/2+y,1/2-z
1/2-x,1/2+y,z
x,-y,1/2+z
loop_
_atom_site_type_symbol
_atom_site_label
_atom_site_fract_x
_atom_site_fract_y
_atom_site_fract_z
Si Si1 0.688127 0.481944 0.498169
Si Si2 0.885440 0.401261 0.498481
Si Si3 0.103091 0.228673 0.999383
Si Si4 0.815268 0.315041 0.669016
O O1 0.500000 0.500000 0.500000
O O2 0.762911 0.500681 0.250024
O O3 0.739423 0.434503 0.493239
O O4 0.798237 0.356767 0.519035
O O5 0.000000 0.406251 0.750000
O O6 0.000000 0.403516 0.250000
O O7 0.212420 0.190090 0.078166
O O8 0.000000 0.234474 0.250000
O O9 0.198849 0.271582 0.972308
O O10 0.000000 0.221710 0.750000
O O11 0.000000 0.315108 0.750000
#
# Coordination Sequence:
#
# PCOD9457052 Si02
#       4
#     8   8   8   8
#     4  10  22  43  69  95 135 180 215 280 358 419
#     4  11  24  41  69 105 134 180 236 289 341 415
#     4  11  23  40  65  98 135 189 235 281 349 411
#     4  10  22  42  68  95 142 183 233 290 340 405
#
# _framework density 22.269425999999999
#
# number of rings (size 3 to 8) (size 9 to 14) (size 15 to 20)
#    0.000    1.500    0.000    5.250    0.000    9.000 
#    4.500    0.000   11.000    0.000    0.000    0.000 
#    0.000    0.000    0.000    0.000    0.000    0.000 
#
# Total GULP energy -178232.490067 kJ/mol
# GULP energy per Si atom -5569.765315 kJ/mol
# Density = 2.221874 g / cm^3
# Si number density = 22.269426 Si / 1000 Ang^3
#
#
#
# Elastic Constant Matrix: (Units=GPa)
#
#
# Indices 1 2 3 4 5 6 
#
# 1 95.1533 68.6944 55.9321 0.0000 0.0000 0.0000
# 2 68.6944 142.7818 53.9621 0.0000 0.0000 0.0000
# 3 55.9321 53.9621 195.9581 0.0000 0.0000 0.0000
# 4 0.0000 0.0000 0.0000 32.4562 0.0000 0.0000
# 5 0.0000 0.0000 0.0000 0.0000 5.6565 0.0000
# 6 0.0000 0.0000 0.0000 0.0000 0.0000 13.0316
#
#
#
# Elastic Compliance Matrix: (Units=1/GPa)
#
#
# Indices 1 2 3 4 5 6 
#
# 1 0.017548 -0.007310 -0.002996 0.000000 0.000000 0.000000
# 2 -0.007310 0.010863 -0.000905 0.000000 0.000000 0.000000
# 3 -0.002996 -0.000905 0.006207 0.000000 0.000000 0.000000
# 4 0.000000 0.000000 0.000000 0.030811 0.000000 0.000000
# 5 0.000000 0.000000 0.000000 0.000000 0.176788 0.000000
# 6 0.000000 0.000000 0.000000 0.000000 0.000000 0.076737
#
#
# Mechanical properties :
#
#
# Convention : Reuss Voigt Hill
#
# Bulk Modulus (GPa) = 81.99077 87.89673 84.94375
# Shear Modulus (GPa) = 14.47428 27.24915 20.86171
#
# Velocity S-wave (km/s) = 2.55220 3.50181 3.06402
# Velocity P-wave (km/s) = 6.75148 7.47701 7.12349
#
# Compressibility (1/GPa) = 0.01219649
#
# Stress axis : x y z
#
# Youngs Moduli (GPa) = 56.98724 92.05765 161.10077
#
# Poissons Ratio (x) = 0.67298 0.48259
# Poissons Ratio (y) = 0.41660 0.14576
# Poissons Ratio (z) = 0.17071 0.08329
#
# Static dielectric constant tensor:
#      x y z
#    x 1.867840 0.000000 0.000000 
#    y 0.000000 1.896070 0.000000 
#    z 0.000000 0.000000 1.926790 
# 
# From -- ./inp_files/434.got.cif
#   From: 2010.05.17/outbox.cif.g08.bks.cpg/sg60_1_cif.got.tgz:434.got - 2010.06.03 14:59:27.
