data_PCOD9457702
_publ_section_title
;
Structure prediction by ZEFSAII (Michael W. Deem and Ramdas Pophale) SiO2 
 PCOD9457702
Probable space group: P B C N
;
_chemical_formula_sum "Si O2"
_cell_formula_units_Z 56
_cell_length_a 5.692435
_cell_length_b 15.818054
_cell_length_c 29.396125
_cell_angle_alpha 90.000000
_cell_angle_beta 90.000000
_cell_angle_gamma 90.000000
_cell_volume 2646.922463
_symmetry_space_group_name_H-M "P B C N"
_symmetry_group_IT_number 60
_symmetry_cell_setting 'orthorhombic'
loop_
_space_group_symop_operation_xyz
x,y,z
1/2-x,1/2-y,1/2+z
1/2+x,1/2-y,-z
-x,y,1/2-z
-x,-y,-z
1/2+x,1/2+y,1/2-z
1/2-x,1/2+y,z
x,-y,1/2+z
loop_
_atom_site_type_symbol
_atom_site_label
_atom_site_fract_x
_atom_site_fract_y
_atom_site_fract_z
Si Si1 0.178258 0.095760 0.672992
Si Si2 0.302125 0.498284 0.365905
Si Si3 0.451686 0.926648 0.695942
Si Si4 0.872881 0.234184 0.476575
Si Si5 0.915262 0.394584 0.416986
Si Si6 0.246819 0.766418 0.723747
Si Si7 0.883338 0.961888 0.954276
O O1 0.214606 0.120016 0.620530
O O2 0.255838 0.174783 0.701683
O O3 0.919553 0.057042 0.674604
O O4 0.330928 0.014070 0.683605
O O5 0.467418 0.531670 0.406926
O O6 0.169199 0.573564 0.339121
O O7 0.137389 0.430683 0.390745
O O8 0.500000 0.931332 0.750000
O O9 0.285084 0.845476 0.689859
O O10 0.612462 0.266418 0.492579
O O11 0.951338 0.306278 0.441120
O O12 0.833305 0.137123 0.461613
O O13 0.834403 0.474343 0.447145
O O14 0.500000 0.765470 0.750000
O O15 0.000000 0.779879 0.750000
O O16 0.000000 0.000000 0.000000
#
# Coordination Sequence:
#
# PCOD9457702 Si02
#       7
#     8   8   8   8   8   8   8
#     4  10  24  42  70  98 141 182 236 293 360 423
#     4  10  24  42  69 103 138 195 234 298 367 428
#     4  10  24  44  69  99 142 184 239 294 360 435
#     4  12  27  44  72 103 134 186 233 287 359 425
#     4  10  24  44  65 102 137 178 240 291 353 429
#     4  11  27  44  71 107 139 187 240 294 363 432
#     4  11  23  45  71  99 145 187 239 300 360 440
#
# _framework density 21.156647
#
# number of rings (size 3 to 8) (size 9 to 14) (size 15 to 20)
#    0.000    1.429    1.429    1.286   14.000    5.714 
#    0.000    0.000    0.000    0.000    0.000    0.000 
#    0.000    0.000    0.000    0.000    0.000    0.000 
#
# Total GULP energy -311773.871310 kJ/mol
# GULP energy per Si atom -5567.390559 kJ/mol
# Density = 2.110849 g / cm^3
# Si number density = 21.156647 Si / 1000 Ang^3
#
#
#
# Elastic Constant Matrix: (Units=GPa)
#
#
# Indices 1 2 3 4 5 6 
#
# 1 54.9559 15.6241 16.6522 0.0000 0.0000 0.0000
# 2 15.6241 150.0071 18.4744 0.0000 0.0000 0.0000
# 3 16.6522 18.4744 37.8061 0.0000 0.0000 0.0000
# 4 0.0000 0.0000 0.0000 62.6213 0.0000 0.0000
# 5 0.0000 0.0000 0.0000 0.0000 28.3501 0.0000
# 6 0.0000 0.0000 0.0000 0.0000 0.0000 33.3724
#
#
#
# Elastic Compliance Matrix: (Units=1/GPa)
#
#
# Indices 1 2 3 4 5 6 
#
# 1 0.021176 -0.001125 -0.008778 0.000000 0.000000 0.000000
# 2 -0.001125 0.007153 -0.003000 0.000000 0.000000 0.000000
# 3 -0.008778 -0.003000 0.031783 0.000000 0.000000 0.000000
# 4 0.000000 0.000000 0.000000 0.015969 0.000000 0.000000
# 5 0.000000 0.000000 0.000000 0.000000 0.035273 0.000000
# 6 0.000000 0.000000 0.000000 0.000000 0.000000 0.029965
#
#
# Mechanical properties :
#
#
# Convention : Reuss Voigt Hill
#
# Bulk Modulus (GPa) = 29.14832 38.25228 33.70030
# Shear Modulus (GPa) = 28.00193 37.67000 32.83596
#
# Velocity S-wave (km/s) = 3.64201 4.22421 3.94387
# Velocity P-wave (km/s) = 5.61186 6.47392 6.05824
#
# Compressibility (1/GPa) = 0.03430729
#
# Stress axis : x y z
#
# Youngs Moduli (GPa) = 47.22365 139.80235 31.46337
#
# Poissons Ratio (x) = 0.15722 0.27617
# Poissons Ratio (y) = 0.05311 0.09439
# Poissons Ratio (z) = 0.41451 0.41941
#
# Static dielectric constant tensor:
#      x y z
#    x 1.866690 0.000000 0.000000 
#    y 0.000000 2.879590 0.000000 
#    z 0.000000 0.000000 2.406620 
# 
# From -- ./inp_files/25700.got.cif
#   From: 2010.05.17/outbox.cif.g08.bks.cpg/sg60_13_cif.got.tgz:25700.got - 2010.06.03 14:59:27.
