data_PCOD9457496
_publ_section_title
;
Structure prediction by ZEFSAII (Michael W. Deem and Ramdas Pophale) SiO2 
 PCOD9457496
Probable space group: P B C N
;
_chemical_formula_sum "Si O2"
_cell_formula_units_Z 40
_cell_length_a 8.290434
_cell_length_b 24.794911
_cell_length_c 7.734263
_cell_angle_alpha 90.000000
_cell_angle_beta 90.000000
_cell_angle_gamma 90.000000
_cell_volume 1589.859535
_symmetry_space_group_name_H-M "P B C N"
_symmetry_group_IT_number 60
_symmetry_cell_setting 'orthorhombic'
loop_
_space_group_symop_operation_xyz
x,y,z
1/2-x,1/2-y,1/2+z
1/2+x,1/2-y,-z
-x,y,1/2-z
-x,-y,-z
1/2+x,1/2+y,1/2-z
1/2-x,1/2+y,z
x,-y,1/2+z
loop_
_atom_site_type_symbol
_atom_site_label
_atom_site_fract_x
_atom_site_fract_y
_atom_site_fract_z
Si Si1 0.667603 0.212157 0.136929
Si Si2 0.397211 0.433000 0.495910
Si Si3 0.208297 0.173925 0.034370
Si Si4 0.229993 0.965320 0.874143
Si Si5 0.963726 0.385180 0.449433
O O1 0.500000 0.216656 0.250000
O O2 0.803478 0.190577 0.266629
O O3 0.712134 0.270646 0.067945
O O4 0.647787 0.167419 0.987400
O O5 0.413655 0.369668 0.462013
O O6 0.281648 0.469630 0.375878
O O7 0.581576 0.452267 0.497560
O O8 0.323894 0.442808 0.688553
O O9 0.369405 0.137475 0.024371
O O10 0.387363 0.935651 0.947794
O O11 0.000000 0.395410 0.250000
#
# Coordination Sequence:
#
# PCOD9457496 Si02
#       5
#     8   8   8   8   8
#     4  10  23  44  65  99 141 179 235 284 347 424
#     4  10  23  44  70  93 132 176 224 291 338 418
#     4  11  23  43  67  96 134 180 221 288 340 407
#     4  10  23  45  66  98 131 173 231 277 351 418
#     4  11  24  42  66 101 138 178 227 283 345 414
#
# _framework density 25.159452999999999
#
# number of rings (size 3 to 8) (size 9 to 14) (size 15 to 20)
#    0.000    1.600    2.000    1.200    2.800    5.600 
#    7.200    0.000    0.000    0.000    0.000    0.000 
#    0.000    0.000    0.000    0.000    0.000    0.000 
#
# Total GULP energy -223584.842997 kJ/mol
# GULP energy per Si atom -5589.621075 kJ/mol
# Density = 2.510219 g / cm^3
# Si number density = 25.159453 Si / 1000 Ang^3
#
#
#
# Elastic Constant Matrix: (Units=GPa)
#
#
# Indices 1 2 3 4 5 6 
#
# 1 64.4328 5.5673 22.2908 0.0000 0.0000 0.0000
# 2 5.5673 128.3384 40.5883 0.0000 0.0000 0.0000
# 3 22.2908 40.5883 111.8247 0.0000 0.0000 0.0000
# 4 0.0000 0.0000 0.0000 37.9927 0.0000 0.0000
# 5 0.0000 0.0000 0.0000 0.0000 24.2160 0.0000
# 6 0.0000 0.0000 0.0000 0.0000 0.0000 24.1866
#
#
#
# Elastic Compliance Matrix: (Units=1/GPa)
#
#
# Indices 1 2 3 4 5 6 
#
# 1 0.016685 0.000371 -0.003461 0.000000 0.000000 0.000000
# 2 0.000371 0.008811 -0.003272 0.000000 0.000000 0.000000
# 3 -0.003461 -0.003272 0.010820 0.000000 0.000000 0.000000
# 4 0.000000 0.000000 0.000000 0.026321 0.000000 0.000000
# 5 0.000000 0.000000 0.000000 0.000000 0.041295 0.000000
# 6 0.000000 0.000000 0.000000 0.000000 0.000000 0.041345
#
#
# Mechanical properties :
#
#
# Convention : Reuss Voigt Hill
#
# Bulk Modulus (GPa) = 42.38665 49.05429 45.72047
# Shear Modulus (GPa) = 30.14513 33.02235 31.58374
#
# Velocity S-wave (km/s) = 3.46520 3.62681 3.54693
# Velocity P-wave (km/s) = 5.73533 6.08917 5.91489
#
# Compressibility (1/GPa) = 0.02359233
#
# Stress axis : x y z
#
# Youngs Moduli (GPa) = 59.93335 113.50018 92.42214
#
# Poissons Ratio (x) = -0.04207 0.31983
# Poissons Ratio (y) = -0.02221 0.30239
# Poissons Ratio (z) = 0.20740 0.37135
#
# Static dielectric constant tensor:
#      x y z
#    x 2.115040 0.000000 0.000000 
#    y 0.000000 2.101420 0.000000 
#    z 0.000000 0.000000 2.001760 
# 
# From -- ./inp_files/3819.got.cif
#   From: 2010.05.17/outbox.cif.g08.bks.cpg/sg60_2_cif.got.tgz:3819.got - 2010.06.03 14:59:27.
