data_PCOD9457660
_publ_section_title
;
Structure prediction by ZEFSAII (Michael W. Deem and Ramdas Pophale) SiO2 
 PCOD9457660
Probable space group: P B C N
;
_chemical_formula_sum "Si O2"
_cell_formula_units_Z 36
_cell_length_a 14.993494
_cell_length_b 6.194608
_cell_length_c 14.609161
_cell_angle_alpha 90.000000
_cell_angle_beta 90.000000
_cell_angle_gamma 90.000000
_cell_volume 1356.881604
_symmetry_space_group_name_H-M "P B C N"
_symmetry_group_IT_number 60
_symmetry_cell_setting 'orthorhombic'
loop_
_space_group_symop_operation_xyz
x,y,z
1/2-x,1/2-y,1/2+z
1/2+x,1/2-y,-z
-x,y,1/2-z
-x,-y,-z
1/2+x,1/2+y,1/2-z
1/2-x,1/2+y,z
x,-y,1/2+z
loop_
_atom_site_type_symbol
_atom_site_label
_atom_site_fract_x
_atom_site_fract_y
_atom_site_fract_z
Si Si1 0.000000 0.849247 0.750000
Si Si2 0.461249 0.932549 0.097596
Si Si3 0.895981 0.069046 0.502683
Si Si4 0.719939 0.693229 0.657259
Si Si5 0.641967 0.331201 0.339225
O O1 0.972198 0.698060 0.664221
O O2 0.079080 0.991371 0.709763
O O3 0.418614 0.120237 0.155368
O O4 0.384155 0.772695 0.063595
O O5 0.500000 0.000000 0.000000
O O6 0.872113 0.146614 0.603132
O O7 0.842054 0.888406 0.445975
O O8 0.000000 0.000000 0.500000
O O9 0.761545 0.450357 0.632881
O O10 0.720298 0.698553 0.767356
#
# Coordination Sequence:
#
# PCOD9457660 Si02
#       5
#     4   8   8   8   8
#     4  10  24  40  72 116 150 192 252 324 402 474
#     4  11  23  39  73 113 153 189 253 334 400 472
#     4  11  25  48  80 118 151 201 275 341 406 473
#     4  12  32  53  77 112 164 217 270 328 412 503
#     4  11  25  45  73 106 152 204 256 321 404 483
#
# _framework density 26.531424000000001
#
# number of rings (size 3 to 8) (size 9 to 14) (size 15 to 20)
#    0.000    0.889    2.222    3.333   12.444    1.778 
#    0.000    0.000    0.000    0.000    0.000    0.000 
#    0.000    0.000    0.000    0.000    0.000    0.000 
#
# Total GULP energy -200619.529070 kJ/mol
# GULP energy per Si atom -5572.764696 kJ/mol
# Density = 2.647104 g / cm^3
# Si number density = 26.531424 Si / 1000 Ang^3
#
#
#
# Elastic Constant Matrix: (Units=GPa)
#
#
# Indices 1 2 3 4 5 6 
#
# 1 42.1649 29.8536 15.3086 0.0000 0.0000 0.0000
# 2 29.8536 156.5525 28.2467 0.0000 0.0000 0.0000
# 3 15.3086 28.2467 135.6203 0.0000 0.0000 0.0000
# 4 0.0000 0.0000 0.0000 50.7061 0.0000 0.0000
# 5 0.0000 0.0000 0.0000 0.0000 39.6584 0.0000
# 6 0.0000 0.0000 0.0000 0.0000 0.0000 24.2436
#
#
#
# Elastic Compliance Matrix: (Units=1/GPa)
#
#
# Indices 1 2 3 4 5 6 
#
# 1 0.027997 -0.004955 -0.002128 0.000000 0.000000 0.000000
# 2 -0.004955 0.007514 -0.001006 0.000000 0.000000 0.000000
# 3 -0.002128 -0.001006 0.007823 0.000000 0.000000 0.000000
# 4 0.000000 0.000000 0.000000 0.019721 0.000000 0.000000
# 5 0.000000 0.000000 0.000000 0.000000 0.025215 0.000000
# 6 0.000000 0.000000 0.000000 0.000000 0.000000 0.041248
#
#
# Mechanical properties :
#
#
# Convention : Reuss Voigt Hill
#
# Bulk Modulus (GPa) = 36.82332 53.46172 45.14252
# Shear Modulus (GPa) = 32.31034 40.31690 36.31362
#
# Velocity S-wave (km/s) = 3.49350 3.90242 3.70361
# Velocity P-wave (km/s) = 5.49382 6.36390 5.94480
#
# Compressibility (1/GPa) = 0.02715671
#
# Stress axis : x y z
#
# Youngs Moduli (GPa) = 35.71774 133.08559 127.82451
#
# Poissons Ratio (x) = 0.65943 0.27205
# Poissons Ratio (y) = 0.17698 0.12855
# Poissons Ratio (z) = 0.07602 0.13384
#
# Static dielectric constant tensor:
#      x y z
#    x 2.177020 0.000000 0.000000 
#    y 0.000000 2.279870 0.000000 
#    z 0.000000 0.000000 2.149300 
# 
# From -- ./inp_files/17594.got.cif
#   From: 2010.05.17/outbox.cif.g08.bks.cpg/sg60_9_cif.got.tgz:17594.got - 2010.06.03 14:59:27.
