data_PCOD9457690
_publ_section_title
;
Structure prediction by ZEFSAII (Michael W. Deem and Ramdas Pophale) SiO2 
 PCOD9457690
Probable space group: P B C N
;
_chemical_formula_sum "Si O2"
_cell_formula_units_Z 36
_cell_length_a 11.567853
_cell_length_b 21.675287
_cell_length_c 5.603393
_cell_angle_alpha 90.000000
_cell_angle_beta 90.000000
_cell_angle_gamma 90.000000
_cell_volume 1404.975338
_symmetry_space_group_name_H-M "P B C N"
_symmetry_group_IT_number 60
_symmetry_cell_setting 'orthorhombic'
loop_
_space_group_symop_operation_xyz
x,y,z
1/2-x,1/2-y,1/2+z
1/2+x,1/2-y,-z
-x,y,1/2-z
-x,-y,-z
1/2+x,1/2+y,1/2-z
1/2-x,1/2+y,z
x,-y,1/2+z
loop_
_atom_site_type_symbol
_atom_site_label
_atom_site_fract_x
_atom_site_fract_y
_atom_site_fract_z
Si Si1 0.000000 0.610747 0.250000
Si Si2 0.131730 0.169653 0.224977
Si Si3 0.689633 0.900039 0.073573
Si Si4 0.668335 0.196309 0.942672
Si Si5 0.117374 0.034909 0.685946
O O1 0.920319 0.573530 0.435764
O O2 0.088582 0.656148 0.383923
O O3 0.137355 0.232226 0.068623
O O4 0.200239 0.187560 0.466533
O O5 0.000000 0.151924 0.250000
O O6 0.206349 0.116111 0.104499
O O7 0.650866 0.835100 0.186591
O O8 0.755039 0.936790 0.280107
O O9 0.000000 0.073586 0.750000
O O10 0.110853 0.012259 0.412814
#
# Coordination Sequence:
#
# PCOD9457690 Si02
#       5
#     4   8   8   8   8
#     4  10  24  42  66  92 138 176 220 270 348 402
#     4  11  24  36  62  97 134 177 228 268 328 406
#     4  11  24  42  68  95 133 179 224 277 338 416
#     4  11  23  41  60  95 138 179 217 274 332 398
#     4  10  25  47  73 101 137 176 228 296 359 406
#
# _framework density 25.623227
#
# number of rings (size 3 to 8) (size 9 to 14) (size 15 to 20)
#    0.000    1.333    2.222    2.000   12.444    0.889 
#    0.000    1.111    0.000    0.000    0.000    0.000 
#    0.000    0.000    0.000    0.000    0.000    0.000 
#
# Total GULP energy -201302.938934 kJ/mol
# GULP energy per Si atom -5591.748304 kJ/mol
# Density = 2.556491 g / cm^3
# Si number density = 25.623227 Si / 1000 Ang^3
#
#
#
# Elastic Constant Matrix: (Units=GPa)
#
#
# Indices 1 2 3 4 5 6 
#
# 1 170.8562 11.5945 38.9611 0.0000 0.0000 0.0000
# 2 11.5945 18.2455 20.6499 0.0000 0.0000 0.0000
# 3 38.9611 20.6499 102.0824 0.0000 0.0000 0.0000
# 4 0.0000 0.0000 0.0000 35.5937 0.0000 0.0000
# 5 0.0000 0.0000 0.0000 0.0000 44.7213 0.0000
# 6 0.0000 0.0000 0.0000 0.0000 0.0000 25.1389
#
#
#
# Elastic Compliance Matrix: (Units=1/GPa)
#
#
# Indices 1 2 3 4 5 6 
#
# 1 0.006451 -0.001703 -0.002118 0.000000 0.000000 0.000000
# 2 -0.001703 0.071531 -0.013820 0.000000 0.000000 0.000000
# 3 -0.002118 -0.013820 0.013400 0.000000 0.000000 0.000000
# 4 0.000000 0.000000 0.000000 0.028095 0.000000 0.000000
# 5 0.000000 0.000000 0.000000 0.000000 0.022361 0.000000
# 6 0.000000 0.000000 0.000000 0.000000 0.000000 0.039779
#
#
# Mechanical properties :
#
#
# Convention : Reuss Voigt Hill
#
# Bulk Modulus (GPa) = 17.82489 48.17723 33.00106
# Shear Modulus (GPa) = 21.22260 35.75605 28.48932
#
# Velocity S-wave (km/s) = 2.88107 3.73963 3.33807
# Velocity P-wave (km/s) = 4.24724 6.12286 5.26918
#
# Compressibility (1/GPa) = 0.05610134
#
# Stress axis : x y z
#
# Youngs Moduli (GPa) = 155.00616 13.97996 74.62760
#
# Poissons Ratio (x) = 0.02380 0.15805
# Poissons Ratio (y) = 0.26394 1.03134
# Poissons Ratio (z) = 0.32827 0.19320
#
# Static dielectric constant tensor:
#      x y z
#    x 2.067190 0.000000 0.000000 
#    y 0.000000 2.045730 0.000000 
#    z 0.000000 0.000000 2.076270 
# 
# From -- ./inp_files/748.got.cif
#   From: 2010.05.17/outbox.cif.g08.bks.cpg/sg60_1_cif.got.tgz:748.got - 2010.06.03 14:59:27.
