data_PCOD9457271
_publ_section_title
;
Structure prediction by ZEFSAII (Michael W. Deem and Ramdas Pophale) SiO2 
 PCOD9457271
Probable space group: P B C N
;
_chemical_formula_sum "Si O2"
_cell_formula_units_Z 40
_cell_length_a 8.063630
_cell_length_b 12.244548
_cell_length_c 16.105374
_cell_angle_alpha 90.000000
_cell_angle_beta 90.000000
_cell_angle_gamma 90.000000
_cell_volume 1590.172228
_symmetry_space_group_name_H-M "P B C N"
_symmetry_group_IT_number 60
_symmetry_cell_setting 'orthorhombic'
loop_
_space_group_symop_operation_xyz
x,y,z
1/2-x,1/2-y,1/2+z
1/2+x,1/2-y,-z
-x,y,1/2-z
-x,-y,-z
1/2+x,1/2+y,1/2-z
1/2-x,1/2+y,z
x,-y,1/2+z
loop_
_atom_site_type_symbol
_atom_site_label
_atom_site_fract_x
_atom_site_fract_y
_atom_site_fract_z
Si Si1 0.638917 0.743114 0.626396
Si Si2 0.966933 0.360804 0.162029
Si Si3 0.655104 0.920923 0.483480
Si Si4 0.752514 0.562842 0.211880
Si Si5 0.564664 0.522143 0.874975
O O1 0.816379 0.688417 0.611721
O O2 0.627978 0.829836 0.552890
O O3 0.671342 0.816905 0.708144
O O4 0.505551 0.646603 0.633276
O O5 0.895484 0.480291 0.183105
O O6 0.000000 0.304548 0.250000
O O7 0.124788 0.361898 0.104766
O O8 0.827740 0.982995 0.460396
O O9 0.500000 0.000000 0.500000
O O10 0.601117 0.549887 0.145034
O O11 0.681886 0.519175 0.299018
#
# Coordination Sequence:
#
# PCOD9457271 Si02
#       5
#     8   8   8   8   8
#     4  11  25  46  75 102 152 203 240 320 401 440
#     4  11  23  46  69 103 145 186 262 306 369 483
#     4  12  24  47  71 109 152 199 249 324 391 461
#     4  10  22  48  69 107 143 194 259 309 382 458
#     4  10  24  46  71 109 152 192 266 314 373 488
#
# _framework density 25.154509000000001
#
# number of rings (size 3 to 8) (size 9 to 14) (size 15 to 20)
#    0.000    1.200    4.000    1.200    2.800    0.800 
#   28.800    0.000    0.000    0.000    0.000    0.000 
#    0.000    0.000    0.000    0.000    0.000    0.000 
#
# Total GULP energy -223379.270195 kJ/mol
# GULP energy per Si atom -5584.481755 kJ/mol
# Density = 2.509726 g / cm^3
# Si number density = 25.154509 Si / 1000 Ang^3
#
#
#
# Elastic Constant Matrix: (Units=GPa)
#
#
# Indices 1 2 3 4 5 6 
#
# 1 123.0864 41.1946 28.0253 0.0000 0.0000 0.0000
# 2 41.1946 88.0391 7.8067 0.0000 0.0000 0.0000
# 3 28.0253 7.8067 105.4172 0.0000 0.0000 0.0000
# 4 0.0000 0.0000 0.0000 27.8086 0.0000 0.0000
# 5 0.0000 0.0000 0.0000 0.0000 55.8160 0.0000
# 6 0.0000 0.0000 0.0000 0.0000 0.0000 -0.1635
#
#
#
# Elastic Compliance Matrix: (Units=1/GPa)
#
#
# Indices 1 2 3 4 5 6 
#
# 1 0.010190 -0.004558 -0.002371 0.000000 0.000000 0.000000
# 2 -0.004558 0.013472 0.000214 0.000000 0.000000 0.000000
# 3 -0.002371 0.000214 0.010101 0.000000 0.000000 0.000000
# 4 0.000000 0.000000 0.000000 0.035960 0.000000 0.000000
# 5 0.000000 0.000000 0.000000 0.000000 0.017916 0.000000
# 6 0.000000 0.000000 0.000000 0.000000 0.000000 -6.116130
#
#
# Mechanical properties :
#
#
# Convention : Reuss Voigt Hill
#
# Bulk Modulus (GPa) = 49.18248 52.28843 50.73546
# Shear Modulus (GPa) = -0.83218 32.65996 15.91389
#
# Velocity S-wave (km/s) = -0.57580 3.60720 2.51797
# Velocity P-wave (km/s) = 4.37636 6.17910 5.35415
#
# Compressibility (1/GPa) = 0.02033244
#
# Stress axis : x y z
#
# Youngs Moduli (GPa) = 98.13877 74.22708 99.00281
#
# Poissons Ratio (x) = 0.33830 0.23478
# Poissons Ratio (y) = 0.44728 -0.02118
# Poissons Ratio (z) = 0.23273 -0.01588
#
# Static dielectric constant tensor:
#      x y z
#    x 2.066430 0.000000 0.000000 
#    y 0.000000 2.008860 0.000000 
#    z 0.000000 0.000000 2.123360 
# 
# From -- ./inp_files/19032.got.cif
#   From: 2010.05.17/outbox.cif.g08.bks.cpg/sg60_10_cif.got.tgz:19032.got - 2010.06.03 14:59:27.
