data_PCOD9457712
_publ_section_title
;
Structure prediction by ZEFSAII (Michael W. Deem and Ramdas Pophale) SiO2 
 PCOD9457712
Probable space group: P B C N
;
_chemical_formula_sum "Si O2"
_cell_formula_units_Z 28
_cell_length_a 10.451938
_cell_length_b 13.336403
_cell_length_c 7.797191
_cell_angle_alpha 90.000000
_cell_angle_beta 90.000000
_cell_angle_gamma 90.000000
_cell_volume 1086.860257
_symmetry_space_group_name_H-M "P B C N"
_symmetry_group_IT_number 60
_symmetry_cell_setting 'orthorhombic'
loop_
_space_group_symop_operation_xyz
x,y,z
1/2-x,1/2-y,1/2+z
1/2+x,1/2-y,-z
-x,y,1/2-z
-x,-y,-z
1/2+x,1/2+y,1/2-z
1/2-x,1/2+y,z
x,-y,1/2+z
loop_
_atom_site_type_symbol
_atom_site_label
_atom_site_fract_x
_atom_site_fract_y
_atom_site_fract_z
Si Si1 0.500000 0.351686 0.250000
Si Si2 0.721961 0.590693 0.957826
Si Si3 0.589316 0.916073 0.913342
Si Si4 0.768264 0.270430 0.158215
O O1 0.421008 0.412847 0.110973
O O2 0.617186 0.297373 0.150509
O O3 0.783103 0.484300 0.923355
O O4 0.799133 0.670609 0.834592
O O5 0.635528 0.818267 0.017650
O O6 0.500000 0.891323 0.750000
O O7 0.223463 0.849489 0.862557
O O8 0.500000 0.000000 0.000000
#
# Coordination Sequence:
#
# PCOD9457712 Si02
#       4
#     4   8   8   8
#     4   8  22  46  60  96 140 166 244 266 350 422
#     4  10  24  43  68 103 133 183 231 287 354 405
#     4  12  25  43  71 102 139 180 238 281 347 423
#     4  10  24  42  71  99 139 188 221 300 348 407
#
# _framework density 25.762283
#
# number of rings (size 3 to 8) (size 9 to 14) (size 15 to 20)
#    1.714    0.000    2.857    0.000   10.000    1.143 
#    0.000    0.000    3.143    0.000    0.000    0.000 
#    0.000    0.000    0.000    0.000    0.000    0.000 
#
# Total GULP energy -155875.326786 kJ/mol
# GULP energy per Si atom -5566.975957 kJ/mol
# Density = 2.570365 g / cm^3
# Si number density = 25.762283 Si / 1000 Ang^3
#
#
#
# Elastic Constant Matrix: (Units=GPa)
#
#
# Indices 1 2 3 4 5 6 
#
# 1 118.0985 17.1763 -14.0421 0.0000 0.0000 0.0000
# 2 17.1763 117.2544 21.3429 0.0000 0.0000 0.0000
# 3 -14.0421 21.3429 39.5887 0.0000 0.0000 0.0000
# 4 0.0000 0.0000 0.0000 40.9863 0.0000 0.0000
# 5 0.0000 0.0000 0.0000 0.0000 38.8792 0.0000
# 6 0.0000 0.0000 0.0000 0.0000 0.0000 10.6823
#
#
#
# Elastic Compliance Matrix: (Units=1/GPa)
#
#
# Indices 1 2 3 4 5 6 
#
# 1 0.009317 -0.002180 0.004480 0.000000 0.000000 0.000000
# 2 -0.002180 0.009967 -0.006147 0.000000 0.000000 0.000000
# 3 0.004480 -0.006147 0.030163 0.000000 0.000000 0.000000
# 4 0.000000 0.000000 0.000000 0.024398 0.000000 0.000000
# 5 0.000000 0.000000 0.000000 0.000000 0.025721 0.000000
# 6 0.000000 0.000000 0.000000 0.000000 0.000000 0.093613
#
#
# Mechanical properties :
#
#
# Convention : Reuss Voigt Hill
#
# Bulk Modulus (GPa) = 23.95014 35.98842 29.96928
# Shear Modulus (GPa) = 23.27857 34.80719 29.04288
#
# Velocity S-wave (km/s) = 3.00924 3.67971 3.36123
# Velocity P-wave (km/s) = 4.62502 5.66157 5.16934
#
# Compressibility (1/GPa) = 0.04175341
#
# Stress axis : x y z
#
# Youngs Moduli (GPa) = 107.32676 100.33440 33.15360
#
# Poissons Ratio (x) = 0.21877 -0.14854
# Poissons Ratio (y) = 0.23401 0.20378
# Poissons Ratio (z) = -0.48086 0.61671
#
# Static dielectric constant tensor:
#      x y z
#    x 2.020070 0.000000 0.000000 
#    y 0.000000 2.093830 0.000000 
#    z 0.000000 0.000000 2.661520 
# 
# From -- ./inp_files/4460.got.cif
#   From: 2010.05.17/outbox.cif.g08.bks.cpg/sg60_3_cif.got.tgz:4460.got - 2010.06.03 14:59:27.
