data_PCOD9457095
_publ_section_title
;
Structure prediction by ZEFSAII (Michael W. Deem and Ramdas Pophale) SiO2 
 PCOD9457095
Probable space group: P B C N
;
_chemical_formula_sum "Si O2"
_cell_formula_units_Z 60
_cell_length_a 17.320089
_cell_length_b 16.716737
_cell_length_c 8.989553
_cell_angle_alpha 90.000000
_cell_angle_beta 90.000000
_cell_angle_gamma 90.000000
_cell_volume 2602.793578
_symmetry_space_group_name_H-M "P B C N"
_symmetry_group_IT_number 60
_symmetry_cell_setting 'orthorhombic'
loop_
_space_group_symop_operation_xyz
x,y,z
1/2-x,1/2-y,1/2+z
1/2+x,1/2-y,-z
-x,y,1/2-z
-x,-y,-z
1/2+x,1/2+y,1/2-z
1/2-x,1/2+y,z
x,-y,1/2+z
loop_
_atom_site_type_symbol
_atom_site_label
_atom_site_fract_x
_atom_site_fract_y
_atom_site_fract_z
Si Si1 0.941544 0.682222 0.544028
Si Si2 0.824842 0.534029 0.237061
Si Si3 0.869238 0.824875 0.049691
Si Si4 0.937875 0.009939 0.627326
Si Si5 0.500000 0.762957 0.750000
Si Si6 0.588178 0.342114 0.717582
Si Si7 0.931860 0.436846 0.464152
Si Si8 0.219671 0.604750 0.958831
O O1 0.920126 0.770258 0.601542
O O2 0.868025 0.629101 0.576849
O O3 0.951901 0.686293 0.367054
O O4 0.023021 0.642436 0.591027
O O5 0.879864 0.478545 0.339902
O O6 0.878602 0.576651 0.110900
O O7 0.780163 0.585891 0.362891
O O8 0.771213 0.474899 0.140355
O O9 0.777847 0.822983 0.083147
O O10 0.935101 0.782740 0.149390
O O11 0.884422 0.918415 0.076558
O O12 0.878670 0.810863 0.873376
O O13 0.888013 0.929727 0.659501
O O14 0.000000 0.037793 0.750000
O O15 0.000000 0.000000 0.500000
O O16 0.500000 0.364026 0.750000
O O17 0.000000 0.500000 0.500000
#
# Coordination Sequence:
#
# PCOD9457095 Si02
#       8
#     8   8   8   8   4   8   8   8
#     4  12  25  42  68 101 140 181 222 285 342 425
#     4  10  22  43  63 107 133 177 231 284 344 415
#     4  12  26  46  68  99 132 177 236 289 340 414
#     4  11  20  39  69  94 117 157 220 289 322 386
#     4  12  26  44  72 100 134 182 250 272 348 416
#     4  11  24  42  65  98 127 169 226 275 343 402
#     4  11  21  38  74  99 137 180 235 279 331 406
#     4  11  27  42  67  99 143 178 221 288 363 400
#
# _framework density 23.052154000000002
#
# number of rings (size 3 to 8) (size 9 to 14) (size 15 to 20)
#    0.000    0.800    7.333    1.200    3.733    1.067 
#    0.000    0.000    0.000    0.000    0.000    0.000 
#    0.000    0.000    0.000    0.000    0.000    0.000 
#
# Total GULP energy -334614.223840 kJ/mol
# GULP energy per Si atom -5576.903731 kJ/mol
# Density = 2.299969 g / cm^3
# Si number density = 23.052154 Si / 1000 Ang^3
#
#
#
# Elastic Constant Matrix: (Units=GPa)
#
#
# Indices 1 2 3 4 5 6 
#
# 1 92.5475 0.9499 16.1781 0.0000 0.0000 0.0000
# 2 0.9499 51.3181 -3.5801 0.0000 0.0000 0.0000
# 3 16.1781 -3.5801 106.0728 0.0000 0.0000 0.0000
# 4 0.0000 0.0000 0.0000 18.7608 0.0000 0.0000
# 5 0.0000 0.0000 0.0000 0.0000 15.4348 0.0000
# 6 0.0000 0.0000 0.0000 0.0000 0.0000 -11.2055
#
#
#
# Elastic Compliance Matrix: (Units=1/GPa)
#
#
# Indices 1 2 3 4 5 6 
#
# 1 0.011107 -0.000325 -0.001705 0.000000 0.000000 0.000000
# 2 -0.000325 0.019542 0.000709 0.000000 0.000000 0.000000
# 3 -0.001705 0.000709 0.009711 0.000000 0.000000 0.000000
# 4 0.000000 0.000000 0.000000 0.053303 0.000000 0.000000
# 5 0.000000 0.000000 0.000000 0.000000 0.064789 0.000000
# 6 0.000000 0.000000 0.000000 0.000000 0.000000 -0.089242
#
#
# Mechanical properties :
#
#
# Convention : Reuss Voigt Hill
#
# Bulk Modulus (GPa) = 26.51176 30.78156 28.64666
# Shear Modulus (GPa) = 59.22550 20.35739 39.79144
#
# Velocity S-wave (km/s) = 5.07422 2.97493 4.15920
# Velocity P-wave (km/s) = 6.77171 5.01819 5.95979
#
# Compressibility (1/GPa) = 0.03771911
#
# Stress axis : x y z
#
# Youngs Moduli (GPa) = 90.03629 51.17239 102.97127
#
# Poissons Ratio (x) = 0.01661 0.17556
# Poissons Ratio (y) = 0.02922 -0.07301
# Poissons Ratio (z) = 0.15350 -0.03628
#
# Static dielectric constant tensor:
#      x y z
#    x 1.962410 0.000000 0.000000 
#    y 0.000000 2.030640 0.000000 
#    z 0.000000 0.000000 1.874120 
# 
# From -- ./inp_files/6913.got.cif
#   From: 2010.05.17/outbox.cif.g08.bks.cpg/sg60_4_cif.got.tgz:6913.got - 2010.06.03 14:59:27.
