data_PCOD9457408
_publ_section_title
;
Structure prediction by ZEFSAII (Michael W. Deem and Ramdas Pophale) SiO2 
 PCOD9457408
Probable space group: P B C N
;
_chemical_formula_sum "Si O2"
_cell_formula_units_Z 60
_cell_length_a 18.126350
_cell_length_b 17.671356
_cell_length_c 9.027352
_cell_angle_alpha 90.000000
_cell_angle_beta 90.000000
_cell_angle_gamma 90.000000
_cell_volume 2891.615970
_symmetry_space_group_name_H-M "P B C N"
_symmetry_group_IT_number 60
_symmetry_cell_setting 'orthorhombic'
loop_
_space_group_symop_operation_xyz
x,y,z
1/2-x,1/2-y,1/2+z
1/2+x,1/2-y,-z
-x,y,1/2-z
-x,-y,-z
1/2+x,1/2+y,1/2-z
1/2-x,1/2+y,z
x,-y,1/2+z
loop_
_atom_site_type_symbol
_atom_site_label
_atom_site_fract_x
_atom_site_fract_y
_atom_site_fract_z
Si Si1 0.905251 0.631649 0.137913
Si Si2 0.762476 0.094539 0.212357
Si Si3 0.147665 0.238956 0.684803
Si Si4 0.294132 0.237938 0.864155
Si Si5 0.585869 0.418501 0.271019
Si Si6 0.578998 0.850368 0.305226
Si Si7 0.000000 0.498749 0.750000
Si Si8 0.668549 0.527928 0.491877
O O1 0.823449 0.602314 0.174314
O O2 0.910281 0.697916 0.260066
O O3 0.962692 0.562075 0.139975
O O4 0.908057 0.667375 0.976105
O O5 0.803441 0.174222 0.183763
O O6 0.775686 0.070517 0.381965
O O7 0.792121 0.033213 0.096519
O O8 0.210891 0.223243 0.808423
O O9 0.191260 0.265626 0.539005
O O10 0.106666 0.161048 0.655783
O O11 0.352760 0.182166 0.786832
O O12 0.500000 0.426579 0.250000
O O13 0.615758 0.484219 0.377358
O O14 0.623832 0.422419 0.109385
O O15 0.500000 0.818426 0.250000
O O16 0.564692 0.941620 0.292794
#
# Coordination Sequence:
#
# PCOD9457408 Si02
#       8
#     8   8   8   8   8   8   4   8
#     4  11  25  43  68 102 140 181 228 281 346 407
#     4  10  23  42  69 100 134 180 232 284 336 409
#     4  11  26  41  74  97 139 179 234 284 337 417
#     4  11  23  47  65 100 136 179 231 284 337 405
#     4  11  24  43  67  98 136 175 224 281 348 407
#     4  10  26  43  70  99 137 186 226 281 350 410
#     4  10  26  46  68 100 148 176 232 280 352 420
#     4  10  23  43  68 100 130 174 228 282 346 399
#
# _framework density 20.749644
#
# number of rings (size 3 to 8) (size 9 to 14) (size 15 to 20)
#    0.400    1.067    1.333    2.400   10.267    1.067 
#    0.000    0.667    0.000    0.000    0.000    0.000 
#    0.000    0.000    0.000    0.000    0.000    0.000 
#
# Total GULP energy -334777.938478 kJ/mol
# GULP energy per Si atom -5579.632308 kJ/mol
# Density = 2.070242 g / cm^3
# Si number density = 20.749644 Si / 1000 Ang^3
#
#
#
# Elastic Constant Matrix: (Units=GPa)
#
#
# Indices 1 2 3 4 5 6 
#
# 1 71.3012 31.2292 17.9995 0.0000 0.0000 0.0000
# 2 31.2292 87.2274 26.4936 0.0000 0.0000 0.0000
# 3 17.9995 26.4936 118.9757 0.0000 0.0000 0.0000
# 4 0.0000 0.0000 0.0000 14.3587 0.0000 0.0000
# 5 0.0000 0.0000 0.0000 0.0000 23.6932 0.0000
# 6 0.0000 0.0000 0.0000 0.0000 0.0000 8.8353
#
#
#
# Elastic Compliance Matrix: (Units=1/GPa)
#
#
# Indices 1 2 3 4 5 6 
#
# 1 0.016816 -0.005628 -0.001291 0.000000 0.000000 0.000000
# 2 -0.005628 0.014180 -0.002306 0.000000 0.000000 0.000000
# 3 -0.001291 -0.002306 0.009114 0.000000 0.000000 0.000000
# 4 0.000000 0.000000 0.000000 0.069644 0.000000 0.000000
# 5 0.000000 0.000000 0.000000 0.000000 0.042206 0.000000
# 6 0.000000 0.000000 0.000000 0.000000 0.000000 0.113182
#
#
# Mechanical properties :
#
#
# Convention : Reuss Voigt Hill
#
# Bulk Modulus (GPa) = 46.16959 47.66098 46.91529
# Shear Modulus (GPa) = 17.19319 22.82956 20.01138
#
# Velocity S-wave (km/s) = 2.88167 3.32058 3.10888
# Velocity P-wave (km/s) = 5.77677 6.14175 5.96206
#
# Compressibility (1/GPa) = 0.02165928
#
# Stress axis : x y z
#
# Youngs Moduli (GPa) = 59.46701 70.52274 109.72299
#
# Poissons Ratio (x) = 0.39693 0.14162
# Poissons Ratio (y) = 0.33471 0.25303
# Poissons Ratio (z) = 0.07675 0.16263
#
# Static dielectric constant tensor:
#      x y z
#    x 1.715760 0.000000 0.000000 
#    y 0.000000 1.763030 0.000000 
#    z 0.000000 0.000000 1.731850 
# 
# From -- ./inp_files/6907.got.cif
#   From: 2010.05.17/outbox.cif.g08.bks.cpg/sg60_4_cif.got.tgz:6907.got - 2010.06.03 14:59:27.
