data_PCOD9457711
_publ_section_title
;
Structure prediction by ZEFSAII (Michael W. Deem and Ramdas Pophale) SiO2 
 PCOD9457711
Probable space group: P B C N
;
_chemical_formula_sum "Si O2"
_cell_formula_units_Z 56
_cell_length_a 8.291442
_cell_length_b 14.222266
_cell_length_c 20.345006
_cell_angle_alpha 90.000000
_cell_angle_beta 90.000000
_cell_angle_gamma 90.000000
_cell_volume 2399.146048
_symmetry_space_group_name_H-M "P B C N"
_symmetry_group_IT_number 60
_symmetry_cell_setting 'orthorhombic'
loop_
_space_group_symop_operation_xyz
x,y,z
1/2-x,1/2-y,1/2+z
1/2+x,1/2-y,-z
-x,y,1/2-z
-x,-y,-z
1/2+x,1/2+y,1/2-z
1/2-x,1/2+y,z
x,-y,1/2+z
loop_
_atom_site_type_symbol
_atom_site_label
_atom_site_fract_x
_atom_site_fract_y
_atom_site_fract_z
Si Si1 0.795973 0.025923 0.170518
Si Si2 0.270348 0.842458 0.038604
Si Si3 0.684951 0.519529 0.518244
Si Si4 0.500000 0.382353 0.250000
Si Si5 0.856812 0.702323 0.554032
Si Si6 0.321561 0.763516 0.663884
Si Si7 0.455191 0.728467 0.319014
Si Si8 0.000000 0.417996 0.750000
O O1 0.774226 0.012329 0.092742
O O2 0.861959 0.130621 0.186794
O O3 0.635281 0.020799 0.214113
O O4 0.923609 0.949532 0.195299
O O5 0.456570 0.814832 0.039495
O O6 0.161365 0.792681 0.094780
O O7 0.272066 0.954867 0.035773
O O8 0.193830 0.803747 0.971738
O O9 0.500000 0.500000 0.500000
O O10 0.744025 0.626688 0.518611
O O11 0.635563 0.315528 0.281998
O O12 0.853965 0.705389 0.632880
O O13 0.425189 0.851047 0.691751
O O14 0.135828 0.794976 0.656439
O O15 0.500000 0.773659 0.250000
#
# Coordination Sequence:
#
# PCOD9457711 Si02
#       8
#     8   8   8   4   8   8   8   4
#     4  12  25  43  72 103 149 184 248 305 371 437
#     4  11  24  46  68 105 142 191 235 306 363 438
#     4  12  27  46  71 106 144 193 243 304 363 442
#     4  11  24  44  62 105 140 188 238 313 358 435
#     4  11  26  44  75 103 143 190 244 298 368 440
#     4  10  24  42  71  98 140 190 244 296 370 438
#     4  11  22  46  72 100 139 191 239 296 366 432
#     4  11  24  44  70 107 138 198 242 301 368 443
#
# _framework density 23.341640000000002
#
# number of rings (size 3 to 8) (size 9 to 14) (size 15 to 20)
#    0.000    0.857    3.571    2.143    6.000    3.429 
#    2.571    0.000    0.000    0.000    0.000    0.000 
#    0.000    0.000    0.000    0.000    0.000    0.000 
#
# Total GULP energy -312778.509962 kJ/mol
# GULP energy per Si atom -5585.330535 kJ/mol
# Density = 2.328851 g / cm^3
# Si number density = 23.341640 Si / 1000 Ang^3
#
#
#
# Elastic Constant Matrix: (Units=GPa)
#
#
# Indices 1 2 3 4 5 6 
#
# 1 75.6965 8.2277 -4.4657 0.0000 0.0000 0.0000
# 2 8.2277 45.3386 -13.1005 0.0000 0.0000 0.0000
# 3 -4.4657 -13.1005 75.4561 0.0000 0.0000 0.0000
# 4 0.0000 0.0000 0.0000 31.5705 0.0000 0.0000
# 5 0.0000 0.0000 0.0000 0.0000 34.4613 0.0000
# 6 0.0000 0.0000 0.0000 0.0000 0.0000 27.0525
#
#
#
# Elastic Compliance Matrix: (Units=1/GPa)
#
#
# Indices 1 2 3 4 5 6 
#
# 1 0.013488 -0.002334 0.000393 0.000000 0.000000 0.000000
# 2 -0.002334 0.023625 0.003964 0.000000 0.000000 0.000000
# 3 0.000393 0.003964 0.013964 0.000000 0.000000 0.000000
# 4 0.000000 0.000000 0.000000 0.031675 0.000000 0.000000
# 5 0.000000 0.000000 0.000000 0.000000 0.029018 0.000000
# 6 0.000000 0.000000 0.000000 0.000000 0.000000 0.036965
#
#
# Mechanical properties :
#
#
# Convention : Reuss Voigt Hill
#
# Bulk Modulus (GPa) = 18.14163 19.75714 18.94938
# Shear Modulus (GPa) = 30.66279 32.33883 31.50081
#
# Velocity S-wave (km/s) = 3.62837 3.72621 3.67761
# Velocity P-wave (km/s) = 5.03413 5.19573 5.11557
#
# Compressibility (1/GPa) = 0.05512185
#
# Stress axis : x y z
#
# Youngs Moduli (GPa) = 74.14257 42.32786 71.61193
#
# Poissons Ratio (x) = 0.09880 -0.02814
# Poissons Ratio (y) = 0.17305 -0.28384
# Poissons Ratio (z) = -0.02914 -0.16777
#
# Static dielectric constant tensor:
#      x y z
#    x 1.811760 0.000000 0.000000 
#    y 0.000000 1.854950 0.000000 
#    z 0.000000 0.000000 1.996970 
# 
# From -- ./inp_files/22242.got.cif
#   From: 2010.05.17/outbox.cif.g08.bks.cpg/sg60_12_cif.got.tgz:22242.got - 2010.06.03 14:59:27.
