data_PCOD9457066
_publ_section_title
;
Structure prediction by ZEFSAII (Michael W. Deem and Ramdas Pophale) SiO2 
 PCOD9457066
Probable space group: P B C N
;
_chemical_formula_sum "Si O2"
_cell_formula_units_Z 64
_cell_length_a 24.571342
_cell_length_b 8.706323
_cell_length_c 13.895924
_cell_angle_alpha 90.000000
_cell_angle_beta 90.000000
_cell_angle_gamma 90.000000
_cell_volume 2972.699993
_symmetry_space_group_name_H-M "P B C N"
_symmetry_group_IT_number 60
_symmetry_cell_setting 'orthorhombic'
loop_
_space_group_symop_operation_xyz
x,y,z
1/2-x,1/2-y,1/2+z
1/2+x,1/2-y,-z
-x,y,1/2-z
-x,-y,-z
1/2+x,1/2+y,1/2-z
1/2-x,1/2+y,z
x,-y,1/2+z
loop_
_atom_site_type_symbol
_atom_site_label
_atom_site_fract_x
_atom_site_fract_y
_atom_site_fract_z
Si Si1 0.007636 0.320587 0.636979
Si Si2 0.387271 0.390694 0.704540
Si Si3 0.676237 0.229336 0.622737
Si Si4 0.182210 0.856440 0.523624
Si Si5 0.725679 0.063839 0.047587
Si Si6 0.571109 0.321557 0.513117
Si Si7 0.411063 0.384494 0.378246
Si Si8 0.480618 0.837821 0.141044
O O1 0.051009 0.201881 0.594375
O O2 0.030293 0.487797 0.608779
O O3 0.000000 0.309119 0.750000
O O4 0.946685 0.268539 0.606254
O O5 0.353677 0.282950 0.779752
O O6 0.348902 0.427330 0.614286
O O7 0.407472 0.530354 0.774135
O O8 0.433860 0.288501 0.653251
O O9 0.731439 0.328264 0.605932
O O10 0.632494 0.272849 0.539189
O O11 0.689780 0.048584 0.614390
O O12 0.193166 0.674577 0.524707
O O13 0.148644 0.870841 0.423659
O O14 0.238061 0.946214 0.513007
O O15 0.561669 0.491054 0.552007
O O16 0.529871 0.219849 0.576111
O O17 0.500000 0.855843 0.250000
#
# Coordination Sequence:
#
# PCOD9457066 Si02
#       8
#     8   8   8   8   8   8   8   8
#     4  11  27  37  63 100 129 170 223 263 319 405
#     4  11  24  42  73  97 136 180 219 268 346 398
#     4  10  22  42  70  92 131 174 216 280 332 387
#     4  11  24  44  68  97 129 174 221 277 336 396
#     4  10  23  44  66  95 130 167 228 278 329 390
#     4  11  22  42  66  91 135 177 209 266 343 387
#     4  11  24  42  65  96 131 181 213 275 328 403
#     4  11  22  42  63  97 135 164 220 262 324 403
#
# _framework density 21.529250999999999
#
# number of rings (size 3 to 8) (size 9 to 14) (size 15 to 20)
#    0.000    1.250    5.000    1.500    7.000    1.000 
#    0.000    0.000    0.000    0.000    0.000    0.000 
#    0.000    0.000    0.000    0.000    0.000    0.000 
#
# Total GULP energy -356987.782263 kJ/mol
# GULP energy per Si atom -5577.934098 kJ/mol
# Density = 2.148025 g / cm^3
# Si number density = 21.529251 Si / 1000 Ang^3
#
#
#
# Elastic Constant Matrix: (Units=GPa)
#
#
# Indices 1 2 3 4 5 6 
#
# 1 63.6244 19.6717 21.2347 0.0000 0.0000 0.0000
# 2 19.6717 76.5215 29.2567 0.0000 0.0000 0.0000
# 3 21.2347 29.2567 77.6412 0.0000 0.0000 0.0000
# 4 0.0000 0.0000 0.0000 -757.1471 0.0000 0.0000
# 5 0.0000 0.0000 0.0000 0.0000 24.7147 0.0000
# 6 0.0000 0.0000 0.0000 0.0000 0.0000 22.8117
#
#
#
# Elastic Compliance Matrix: (Units=1/GPa)
#
#
# Indices 1 2 3 4 5 6 
#
# 1 0.017941 -0.003197 -0.003702 0.000000 0.000000 0.000000
# 2 -0.003197 0.015837 -0.005094 0.000000 0.000000 0.000000
# 3 -0.003702 -0.005094 0.015812 0.000000 0.000000 0.000000
# 4 0.000000 0.000000 0.000000 -0.001321 0.000000 0.000000
# 5 0.000000 0.000000 0.000000 0.000000 0.040462 0.000000
# 6 0.000000 0.000000 0.000000 0.000000 0.000000 0.043837
#
#
# Mechanical properties :
#
#
# Convention : Reuss Voigt Hill
#
# Bulk Modulus (GPa) = 39.05455 39.79038 39.42246
# Shear Modulus (GPa) = 30.28672 -132.08254 -50.89791
#
# Velocity S-wave (km/s) = 3.75476 -7.84114 -4.86750
# Velocity P-wave (km/s) = 6.08089 7.96592 3.63858
#
# Compressibility (1/GPa) = 0.02560521
#
# Stress axis : x y z
#
# Youngs Moduli (GPa) = 55.73745 63.14145 63.24434
#
# Poissons Ratio (x) = 0.20184 0.23415
# Poissons Ratio (y) = 0.17818 0.32214
# Poissons Ratio (z) = 0.20636 0.32162
#
# Static dielectric constant tensor:
#      x y z
#    x 1.823460 0.000000 0.000000 
#    y 0.000000 1.865250 0.000000 
#    z 0.000000 0.000000 1.829190 
# 
# From -- ./inp_files/17952.got.cif
#   From: 2010.05.17/outbox.cif.g08.bks.cpg/sg60_9_cif.got.tgz:17952.got - 2010.06.03 14:59:27.
