data_PCOD9457155
_publ_section_title
;
Structure prediction by ZEFSAII (Michael W. Deem and Ramdas Pophale) SiO2 
 PCOD9457155
Probable space group: P B C N
;
_chemical_formula_sum "Si O2"
_cell_formula_units_Z 56
_cell_length_a 21.419499
_cell_length_b 11.899170
_cell_length_c 8.325742
_cell_angle_alpha 90.000000
_cell_angle_beta 90.000000
_cell_angle_gamma 90.000000
_cell_volume 2122.017331
_symmetry_space_group_name_H-M "P B C N"
_symmetry_group_IT_number 60
_symmetry_cell_setting 'orthorhombic'
loop_
_space_group_symop_operation_xyz
x,y,z
1/2-x,1/2-y,1/2+z
1/2+x,1/2-y,-z
-x,y,1/2-z
-x,-y,-z
1/2+x,1/2+y,1/2-z
1/2-x,1/2+y,z
x,-y,1/2+z
loop_
_atom_site_type_symbol
_atom_site_label
_atom_site_fract_x
_atom_site_fract_y
_atom_site_fract_z
Si Si1 0.603467 0.112931 0.604638
Si Si2 0.000000 0.448203 0.750000
Si Si3 0.537219 0.260135 0.064830
Si Si4 0.820892 0.449941 0.403097
Si Si5 0.726743 0.368213 0.885159
Si Si6 0.094953 0.164037 0.264949
Si Si7 0.325929 0.240982 0.327871
Si Si8 0.500000 0.464387 0.250000
O O1 0.630047 0.049000 0.449917
O O2 0.588301 0.244697 0.594458
O O3 0.552340 0.033524 0.687568
O O4 0.658508 0.108316 0.739622
O O5 0.001262 0.355347 0.894916
O O6 0.599589 0.259797 0.179883
O O7 0.502043 0.375836 0.103797
O O8 0.564014 0.269302 0.886458
O O9 0.755120 0.508670 0.383051
O O10 0.821283 0.367687 0.554406
O O11 0.666886 0.358786 0.771867
O O12 0.781950 0.285250 0.823099
O O13 0.703703 0.337732 0.062546
O O14 0.058539 0.047104 0.270248
#
# Coordination Sequence:
#
# PCOD9457155 Si02
#       8
#     8   4   8   8   8   8   8   4
#     4  12  23  42  68 102 141 174 229 289 342 421
#     4  11  21  38  70 100 129 189 218 278 362 395
#     4  10  22  44  66  91 140 177 227 283 343 413
#     4  12  23  43  66  98 139 175 226 287 351 407
#     4  11  24  40  70  95 135 183 221 287 347 409
#     4  11  24  44  62 101 133 175 232 286 339 417
#     4  11  23  45  64  99 135 172 234 282 342 414
#     4  11  25  42  68  92 135 185 232 278 348 421
#
# _framework density 26.389983999999998
#
# number of rings (size 3 to 8) (size 9 to 14) (size 15 to 20)
#    0.000    0.857    5.714    1.714    0.000    6.857 
#    0.000    4.286    0.000    0.000    0.000    0.000 
#    0.000    0.000    0.000    0.000    0.000    0.000 
#
# Total GULP energy -313804.852456 kJ/mol
# GULP energy per Si atom -5603.658080 kJ/mol
# Density = 2.632992 g / cm^3
# Si number density = 26.389984 Si / 1000 Ang^3
#
#
#
# Elastic Constant Matrix: (Units=GPa)
#
#
# Indices 1 2 3 4 5 6 
#
# 1 111.0644 69.4161 20.9748 0.0000 0.0000 0.0000
# 2 69.4161 181.5818 12.0877 0.0000 0.0000 0.0000
# 3 20.9748 12.0877 57.2363 0.0000 0.0000 0.0000
# 4 0.0000 0.0000 0.0000 46.2055 0.0000 0.0000
# 5 0.0000 0.0000 0.0000 0.0000 35.5303 0.0000
# 6 0.0000 0.0000 0.0000 0.0000 0.0000 51.2549
#
#
#
# Elastic Compliance Matrix: (Units=1/GPa)
#
#
# Indices 1 2 3 4 5 6 
#
# 1 0.012533 -0.004549 -0.003632 0.000000 0.000000 0.000000
# 2 -0.004549 0.007237 0.000139 0.000000 0.000000 0.000000
# 3 -0.003632 0.000139 0.018773 0.000000 0.000000 0.000000
# 4 0.000000 0.000000 0.000000 0.021642 0.000000 0.000000
# 5 0.000000 0.000000 0.000000 0.000000 0.028145 0.000000
# 6 0.000000 0.000000 0.000000 0.000000 0.000000 0.019510
#
#
# Mechanical properties :
#
#
# Convention : Reuss Voigt Hill
#
# Bulk Modulus (GPa) = 44.52782 61.64886 53.08834
# Shear Modulus (GPa) = 38.04808 43.09173 40.56990
#
# Velocity S-wave (km/s) = 3.80117 4.04528 3.92512
# Velocity P-wave (km/s) = 6.01455 6.72536 6.37986
#
# Compressibility (1/GPa) = 0.02245787
#
# Stress axis : x y z
#
# Youngs Moduli (GPa) = 79.78837 138.17669 53.26763
#
# Poissons Ratio (x) = 0.62863 0.19347
# Poissons Ratio (y) = 0.36299 -0.00739
# Poissons Ratio (z) = 0.28980 -0.01918
#
# Static dielectric constant tensor:
#      x y z
#    x 2.111230 0.000000 0.000000 
#    y 0.000000 2.033990 0.000000 
#    z 0.000000 0.000000 2.129950 
# 
# From -- ./inp_files/12853.got.cif
#   From: 2010.05.17/outbox.cif.g08.bks.cpg/sg60_7_cif.got.tgz:12853.got - 2010.06.03 14:59:27.
