data_PCOD9457350
_publ_section_title
;
Structure prediction by ZEFSAII (Michael W. Deem and Ramdas Pophale) SiO2 
 PCOD9457350
Probable space group: P B C N
;
_chemical_formula_sum "Si O2"
_cell_formula_units_Z 48
_cell_length_a 7.584481
_cell_length_b 25.257059
_cell_length_c 12.303025
_cell_angle_alpha 90.000000
_cell_angle_beta 90.000000
_cell_angle_gamma 90.000000
_cell_volume 2356.788189
_symmetry_space_group_name_H-M "P B C N"
_symmetry_group_IT_number 60
_symmetry_cell_setting 'orthorhombic'
loop_
_space_group_symop_operation_xyz
x,y,z
1/2-x,1/2-y,1/2+z
1/2+x,1/2-y,-z
-x,y,1/2-z
-x,-y,-z
1/2+x,1/2+y,1/2-z
1/2-x,1/2+y,z
x,-y,1/2+z
loop_
_atom_site_type_symbol
_atom_site_label
_atom_site_fract_x
_atom_site_fract_y
_atom_site_fract_z
Si Si1 0.569228 0.048895 0.856132
Si Si2 0.757404 0.975816 0.025779
Si Si3 0.052491 0.928541 0.876118
Si Si4 0.651418 0.204835 0.592355
Si Si5 0.710672 0.837652 0.333248
Si Si6 0.021527 0.818650 0.984826
O O1 0.500000 0.020267 0.750000
O O2 0.393387 0.061288 0.925026
O O3 0.678910 0.099674 0.818619
O O4 0.680202 0.009811 0.927566
O O5 0.912719 0.943379 0.971349
O O6 0.814256 0.021981 0.109334
O O7 0.000000 0.928679 0.750000
O O8 0.087063 0.868012 0.911151
O O9 0.457028 0.178039 0.591084
O O10 0.706118 0.192015 0.717602
O O11 0.602641 0.265683 0.567892
O O12 0.810687 0.187151 0.511156
O O13 0.886883 0.826455 0.398336
#
# Coordination Sequence:
#
# PCOD9457350 Si02
#       6
#     8   8   8   8   8   8
#     4  11  20  39  69  92 127 166 213 266 322 391
#     4  10  23  41  62  94 132 169 210 268 325 395
#     4  11  24  41  62  94 130 172 213 268 334 389
#     4  11  24  41  67  95 131 171 222 273 330 386
#     4  11  23  43  65  99 126 173 222 268 328 393
#     4  12  24  43  67  93 136 174 219 277 327 396
#
# _framework density 20.366702
#
# number of rings (size 3 to 8) (size 9 to 14) (size 15 to 20)
#    0.000    1.000    5.000    2.500    2.333    0.000 
#    0.000    0.000    0.000    0.000    0.000    0.000 
#    0.000    0.000    0.000    0.000    0.000    0.000 
#
# Total GULP energy -267445.887642 kJ/mol
# GULP energy per Si atom -5571.789326 kJ/mol
# Density = 2.032035 g / cm^3
# Si number density = 20.366702 Si / 1000 Ang^3
#
#
#
# Elastic Constant Matrix: (Units=GPa)
#
#
# Indices 1 2 3 4 5 6 
#
# 1 46.4835 8.9698 -9.6495 0.0000 0.0000 0.0000
# 2 8.9698 87.3333 30.2001 0.0000 0.0000 0.0000
# 3 -9.6495 30.2001 75.8484 0.0000 0.0000 0.0000
# 4 0.0000 0.0000 0.0000 44.1526 0.0000 0.0000
# 5 0.0000 0.0000 0.0000 0.0000 24.7979 0.0000
# 6 0.0000 0.0000 0.0000 0.0000 0.0000 17.8805
#
#
#
# Elastic Compliance Matrix: (Units=1/GPa)
#
#
# Indices 1 2 3 4 5 6 
#
# 1 0.023215 -0.003949 0.004526 0.000000 0.000000 0.000000
# 2 -0.003949 0.013951 -0.006057 0.000000 0.000000 0.000000
# 3 0.004526 -0.006057 0.016172 0.000000 0.000000 0.000000
# 4 0.000000 0.000000 0.000000 0.022649 0.000000 0.000000
# 5 0.000000 0.000000 0.000000 0.000000 0.040326 0.000000
# 6 0.000000 0.000000 0.000000 0.000000 0.000000 0.055927
#
#
# Mechanical properties :
#
#
# Convention : Reuss Voigt Hill
#
# Bulk Modulus (GPa) = 23.59837 29.85622 26.72730
# Shear Modulus (GPa) = 25.33892 29.37585 27.35738
#
# Velocity S-wave (km/s) = 3.53106 3.80194 3.66900
# Velocity P-wave (km/s) = 5.31379 5.82788 5.57676
#
# Compressibility (1/GPa) = 0.04237581
#
# Stress axis : x y z
#
# Youngs Moduli (GPa) = 43.07621 71.68171 61.83651
#
# Poissons Ratio (x) = 0.28310 -0.27987
# Poissons Ratio (y) = 0.17013 0.37455
# Poissons Ratio (z) = -0.19496 0.43418
#
# Static dielectric constant tensor:
#      x y z
#    x 1.780680 0.000000 0.000000 
#    y 0.000000 1.752070 0.000000 
#    z 0.000000 0.000000 1.693920 
# 
# From -- ./inp_files/10124.got.cif
#   From: 2010.05.17/outbox.cif.g08.bks.cpg/sg60_6_cif.got.tgz:10124.got - 2010.06.03 14:59:27.
