data_PCOD9457901
_publ_section_title
;
Structure prediction by ZEFSAII (Michael W. Deem and Ramdas Pophale) SiO2 
 PCOD9457901
Probable space group: P B C N
;
_chemical_formula_sum "Si O2"
_cell_formula_units_Z 40
_cell_length_a 13.403806
_cell_length_b 6.826678
_cell_length_c 17.604634
_cell_angle_alpha 90.000000
_cell_angle_beta 90.000000
_cell_angle_gamma 90.000000
_cell_volume 1610.885056
_symmetry_space_group_name_H-M "P B C N"
_symmetry_group_IT_number 60
_symmetry_cell_setting 'orthorhombic'
loop_
_space_group_symop_operation_xyz
x,y,z
1/2-x,1/2-y,1/2+z
1/2+x,1/2-y,-z
-x,y,1/2-z
-x,-y,-z
1/2+x,1/2+y,1/2-z
1/2-x,1/2+y,z
x,-y,1/2+z
loop_
_atom_site_type_symbol
_atom_site_label
_atom_site_fract_x
_atom_site_fract_y
_atom_site_fract_z
Si Si1 0.062019 0.841264 0.451090
Si Si2 0.106854 0.942641 0.795608
Si Si3 0.890847 0.719865 0.370255
Si Si4 0.167703 0.560789 0.743247
Si Si5 0.674303 0.661101 0.403941
O O1 0.102371 0.951485 0.376810
O O2 0.137867 0.768639 0.514433
O O3 0.990349 0.676679 0.415928
O O4 0.000000 0.000000 0.500000
O O5 0.217959 0.006775 0.763773
O O6 0.000000 0.975280 0.750000
O O7 0.117692 0.705384 0.803620
O O8 0.613021 0.136417 0.284604
O O9 0.792322 0.635289 0.408837
O O10 0.873889 0.953214 0.380076
O O11 0.157482 0.695971 0.667334
#
# Coordination Sequence:
#
# PCOD9457901 Si02
#       5
#     8   8   8   8   8
#     4  10  25  44  75 107 149 195 244 321 382 448
#     4  12  26  48  75 109 151 196 257 315 381 457
#     4  11  21  44  75 101 145 198 245 309 389 430
#     4  12  24  46  76 106 146 202 250 311 376 464
#     4  11  20  42  73 103 147 193 247 309 375 446
#
# _framework density 24.831068999999999
#
# number of rings (size 3 to 8) (size 9 to 14) (size 15 to 20)
#    0.000    0.800    4.000    3.600    0.000    4.000 
#    3.600    0.000    0.000    0.000    0.000    0.000 
#    0.000    0.000    0.000    0.000    0.000    0.000 
#
# Total GULP energy -223170.585822 kJ/mol
# GULP energy per Si atom -5579.264646 kJ/mol
# Density = 2.477455 g / cm^3
# Si number density = 24.831069 Si / 1000 Ang^3
#
#
#
# Elastic Constant Matrix: (Units=GPa)
#
#
# Indices 1 2 3 4 5 6 
#
# 1 110.9571 30.8466 51.9365 0.0000 0.0000 0.0000
# 2 30.8466 88.3349 10.0518 0.0000 0.0000 0.0000
# 3 51.9365 10.0518 109.3289 0.0000 0.0000 0.0000
# 4 0.0000 0.0000 0.0000 34.2090 0.0000 0.0000
# 5 0.0000 0.0000 0.0000 0.0000 64.4116 0.0000
# 6 0.0000 0.0000 0.0000 0.0000 0.0000 43.0559
#
#
#
# Elastic Compliance Matrix: (Units=1/GPa)
#
#
# Indices 1 2 3 4 5 6 
#
# 1 0.012737 -0.003799 -0.005702 0.000000 0.000000 0.000000
# 2 -0.003799 0.012573 0.000649 0.000000 0.000000 0.000000
# 3 -0.005702 0.000649 0.011796 0.000000 0.000000 0.000000
# 4 0.000000 0.000000 0.000000 0.029232 0.000000 0.000000
# 5 0.000000 0.000000 0.000000 0.000000 0.015525 0.000000
# 6 0.000000 0.000000 0.000000 0.000000 0.000000 0.023226
#
#
# Mechanical properties :
#
#
# Convention : Reuss Voigt Hill
#
# Bulk Modulus (GPa) = 51.53978 54.92119 53.23048
# Shear Modulus (GPa) = 38.68148 42.72103 40.70126
#
# Velocity S-wave (km/s) = 3.95116 4.15235 4.05300
# Velocity P-wave (km/s) = 6.45111 6.71977 6.58681
#
# Compressibility (1/GPa) = 0.01940249
#
# Stress axis : x y z
#
# Youngs Moduli (GPa) = 78.50849 79.53311 84.77724
#
# Poissons Ratio (x) = 0.30216 0.48337
# Poissons Ratio (y) = 0.29826 -0.05500
# Poissons Ratio (z) = 0.44763 -0.05160
#
# Static dielectric constant tensor:
#      x y z
#    x 2.060240 0.000000 0.000000 
#    y 0.000000 2.147180 0.000000 
#    z 0.000000 0.000000 2.042020 
# 
# From -- ./inp_files/22533.got.cif
#   From: 2010.05.17/outbox.cif.g08.bks.cpg/sg60_12_cif.got.tgz:22533.got - 2010.06.03 14:59:27.
