data_PCOD9457912
_publ_section_title
;
Structure prediction by ZEFSAII (Michael W. Deem and Ramdas Pophale) SiO2 
 PCOD9457912
Probable space group: P B C N
;
_chemical_formula_sum "Si O2"
_cell_formula_units_Z 56
_cell_length_a 13.219923
_cell_length_b 8.471326
_cell_length_c 20.455696
_cell_angle_alpha 90.000000
_cell_angle_beta 90.000000
_cell_angle_gamma 90.000000
_cell_volume 2290.839070
_symmetry_space_group_name_H-M "P B C N"
_symmetry_group_IT_number 60
_symmetry_cell_setting 'orthorhombic'
loop_
_space_group_symop_operation_xyz
x,y,z
1/2-x,1/2-y,1/2+z
1/2+x,1/2-y,-z
-x,y,1/2-z
-x,-y,-z
1/2+x,1/2+y,1/2-z
1/2-x,1/2+y,z
x,-y,1/2+z
loop_
_atom_site_type_symbol
_atom_site_label
_atom_site_fract_x
_atom_site_fract_y
_atom_site_fract_z
Si Si1 0.633128 0.471629 0.974156
Si Si2 0.395523 0.955289 0.361621
Si Si3 0.107481 0.484236 0.631592
Si Si4 0.457146 0.595562 0.393805
Si Si5 0.816366 0.967752 0.213803
Si Si6 0.759882 0.235927 0.307823
Si Si7 0.651710 0.896462 0.498757
O O1 0.573181 0.455325 0.905791
O O2 0.581129 0.572896 0.031728
O O3 0.740281 0.553935 0.969583
O O4 0.641578 0.291654 0.999666
O O5 0.497337 0.041330 0.337239
O O6 0.430308 0.772805 0.371661
O O7 0.297264 0.966295 0.316242
O O8 0.360085 0.030231 0.430212
O O9 0.188364 0.345295 0.638738
O O10 0.164686 0.633442 0.663863
O O11 0.081062 0.526800 0.556531
O O12 0.396575 0.485502 0.343845
O O13 0.818974 0.812454 0.256908
O O14 0.822507 0.111414 0.264782
#
# Coordination Sequence:
#
# PCOD9457912 Si02
#       7
#     8   8   8   8   8   8   8
#     4  11  25  42  71 109 153 186 234 298 381 449
#     4  12  25  45  79 109 142 197 252 314 374 454
#     4  11  25  48  70 107 150 194 252 300 385 441
#     4  11  24  45  69 111 144 189 243 302 371 441
#     4  11  23  48  76 102 147 189 257 305 369 432
#     4  10  25  46  73 101 149 202 242 314 356 440
#     4  12  24  45  72 109 152 194 234 310 378 448
#
# _framework density 24.44519
#
# number of rings (size 3 to 8) (size 9 to 14) (size 15 to 20)
#    0.000    0.857    4.286    2.143    2.000    2.286 
#    2.571    1.429    0.000    0.000    0.000    0.000 
#    0.000    0.000    0.000    0.000    0.000    0.000 
#
# Total GULP energy -313505.155388 kJ/mol
# GULP energy per Si atom -5598.306346 kJ/mol
# Density = 2.438955 g / cm^3
# Si number density = 24.445190 Si / 1000 Ang^3
#
#
#
# Elastic Constant Matrix: (Units=GPa)
#
#
# Indices 1 2 3 4 5 6 
#
# 1 117.8563 20.9450 28.7205 0.0000 0.0000 0.0000
# 2 20.9450 46.6278 15.9629 0.0000 0.0000 0.0000
# 3 28.7205 15.9629 93.7368 0.0000 0.0000 0.0000
# 4 0.0000 0.0000 0.0000 39.7402 0.0000 0.0000
# 5 0.0000 0.0000 0.0000 0.0000 26.0500 0.0000
# 6 0.0000 0.0000 0.0000 0.0000 0.0000 24.2007
#
#
#
# Elastic Compliance Matrix: (Units=1/GPa)
#
#
# Indices 1 2 3 4 5 6 
#
# 1 0.009691 -0.003543 -0.002366 0.000000 0.000000 0.000000
# 2 -0.003543 0.024070 -0.003013 0.000000 0.000000 0.000000
# 3 -0.002366 -0.003013 0.011906 0.000000 0.000000 0.000000
# 4 0.000000 0.000000 0.000000 0.025163 0.000000 0.000000
# 5 0.000000 0.000000 0.000000 0.000000 0.038388 0.000000
# 6 0.000000 0.000000 0.000000 0.000000 0.000000 0.041321
#
#
# Mechanical properties :
#
#
# Convention : Reuss Voigt Hill
#
# Bulk Modulus (GPa) = 35.94269 43.27529 39.60899
# Shear Modulus (GPa) = 28.14392 30.83769 29.49080
#
# Velocity S-wave (km/s) = 3.39677 3.55562 3.47710
# Velocity P-wave (km/s) = 5.48811 5.88200 5.68847
#
# Compressibility (1/GPa) = 0.02782207
#
# Stress axis : x y z
#
# Youngs Moduli (GPa) = 103.18683 41.54608 83.98967
#
# Poissons Ratio (x) = 0.14721 0.19871
# Poissons Ratio (y) = 0.36562 0.25309
# Poissons Ratio (z) = 0.24413 0.12519
#
# Static dielectric constant tensor:
#      x y z
#    x 2.085560 0.000000 0.000000 
#    y 0.000000 1.922030 0.000000 
#    z 0.000000 0.000000 1.929780 
# 
# From -- ./inp_files/22926.got.cif
#   From: 2010.05.17/outbox.cif.g08.bks.cpg/sg60_12_cif.got.tgz:22926.got - 2010.06.03 14:59:27.
