data_PCOD9457324
_publ_section_title
;
Structure prediction by ZEFSAII (Michael W. Deem and Ramdas Pophale) SiO2 
 PCOD9457324
Probable space group: P B C N
;
_chemical_formula_sum "Si O2"
_cell_formula_units_Z 32
_cell_length_a 10.593036
_cell_length_b 25.949564
_cell_length_c 5.194707
_cell_angle_alpha 90.000000
_cell_angle_beta 90.000000
_cell_angle_gamma 90.000000
_cell_volume 1427.945297
_symmetry_space_group_name_H-M "P B C N"
_symmetry_group_IT_number 60
_symmetry_cell_setting 'orthorhombic'
loop_
_space_group_symop_operation_xyz
x,y,z
1/2-x,1/2-y,1/2+z
1/2+x,1/2-y,-z
-x,y,1/2-z
-x,-y,-z
1/2+x,1/2+y,1/2-z
1/2-x,1/2+y,z
x,-y,1/2+z
loop_
_atom_site_type_symbol
_atom_site_label
_atom_site_fract_x
_atom_site_fract_y
_atom_site_fract_z
Si Si1 0.256371 0.370845 0.455441
Si Si2 0.640965 0.522353 0.548408
Si Si3 0.377918 0.850652 0.944408
Si Si4 0.412370 0.732228 0.996709
O O1 0.352742 0.417062 0.396584
O O2 0.218985 0.378016 0.753341
O O3 0.314298 0.313857 0.465908
O O4 0.146420 0.371863 0.235177
O O5 0.500000 0.500000 0.500000
O O6 0.705278 0.507348 0.281562
O O7 0.500000 0.852803 0.750000
O O8 0.354559 0.789473 0.984770
O O9 0.500000 0.727767 0.250000
O O10 0.500000 0.728018 0.750000
#
# Coordination Sequence:
#
# PCOD9457324 Si02
#       4
#     8   8   8   8
#     4  12  23  39  69  91 131 182 214 268 353 390
#     4  10  23  40  63  92 132 158 212 276 339 409
#     4  11  23  42  62  94 131 177 231 272 309 399
#     4  11  23  37  62  97 139 168 218 270 330 409
#
# _framework density 22.409822999999999
#
# number of rings (size 3 to 8) (size 9 to 14) (size 15 to 20)
#    0.000    1.000    0.000    8.250    7.000    0.000 
#    0.000    0.000    0.000   15.000    0.000    0.000 
#    0.000    0.000    0.000    0.000    0.000    0.000 
#
# Total GULP energy -178239.791200 kJ/mol
# GULP energy per Si atom -5569.993475 kJ/mol
# Density = 2.235882 g / cm^3
# Si number density = 22.409823 Si / 1000 Ang^3
#
#
#
# Elastic Constant Matrix: (Units=GPa)
#
#
# Indices 1 2 3 4 5 6 
#
# 1 42.0696 35.6489 23.4105 0.0000 0.0000 0.0000
# 2 35.6489 65.9009 18.3327 0.0000 0.0000 0.0000
# 3 23.4105 18.3327 214.9558 0.0000 0.0000 0.0000
# 4 0.0000 0.0000 0.0000 27.1695 0.0000 0.0000
# 5 0.0000 0.0000 0.0000 0.0000 32.4928 0.0000
# 6 0.0000 0.0000 0.0000 0.0000 0.0000 32.1085
#
#
#
# Elastic Compliance Matrix: (Units=1/GPa)
#
#
# Indices 1 2 3 4 5 6 
#
# 1 0.045625 -0.023865 -0.002934 0.000000 0.000000 0.000000
# 2 -0.023865 0.028026 0.000209 0.000000 0.000000 0.000000
# 3 -0.002934 0.000209 0.004954 0.000000 0.000000 0.000000
# 4 0.000000 0.000000 0.000000 0.036806 0.000000 0.000000
# 5 0.000000 0.000000 0.000000 0.000000 0.030776 0.000000
# 6 0.000000 0.000000 0.000000 0.000000 0.000000 0.031144
#
#
# Mechanical properties :
#
#
# Convention : Reuss Voigt Hill
#
# Bulk Modulus (GPa) = 39.33025 53.07892 46.20458
# Shear Modulus (GPa) = 20.92186 34.72311 27.82248
#
# Velocity S-wave (km/s) = 3.05880 3.94059 3.52736
# Velocity P-wave (km/s) = 5.48303 6.66643 6.10348
#
# Compressibility (1/GPa) = 0.02542572
#
# Stress axis : x y z
#
# Youngs Moduli (GPa) = 21.91788 35.68161 201.86512
#
# Poissons Ratio (x) = 0.85152 0.59220
# Poissons Ratio (y) = 0.52306 -0.04216
# Poissons Ratio (z) = 0.06430 -0.00745
#
# Static dielectric constant tensor:
#      x y z
#    x 1.887070 0.000000 0.000000 
#    y 0.000000 1.831070 0.000000 
#    z 0.000000 0.000000 1.891250 
# 
# From -- ./inp_files/644.got.cif
#   From: 2010.05.17/outbox.cif.g08.bks.cpg/sg60_1_cif.got.tgz:644.got - 2010.06.03 14:59:27.
