data_PCOD9457361
_publ_section_title
;
Structure prediction by ZEFSAII (Michael W. Deem and Ramdas Pophale) SiO2 
 PCOD9457361
Probable space group: P B C N
;
_chemical_formula_sum "Si O2"
_cell_formula_units_Z 56
_cell_length_a 8.536776
_cell_length_b 18.259947
_cell_length_c 13.883575
_cell_angle_alpha 90.000000
_cell_angle_beta 90.000000
_cell_angle_gamma 90.000000
_cell_volume 2164.186628
_symmetry_space_group_name_H-M "P B C N"
_symmetry_group_IT_number 60
_symmetry_cell_setting 'orthorhombic'
loop_
_space_group_symop_operation_xyz
x,y,z
1/2-x,1/2-y,1/2+z
1/2+x,1/2-y,-z
-x,y,1/2-z
-x,-y,-z
1/2+x,1/2+y,1/2-z
1/2-x,1/2+y,z
x,-y,1/2+z
loop_
_atom_site_type_symbol
_atom_site_label
_atom_site_fract_x
_atom_site_fract_y
_atom_site_fract_z
Si Si1 0.161734 0.051209 0.895955
Si Si2 0.000000 0.449703 0.750000
Si Si3 0.703395 0.282099 0.610515
Si Si4 0.996429 0.420226 0.100275
Si Si5 0.177442 0.915573 0.034606
Si Si6 0.274291 0.658596 0.191117
Si Si7 0.535542 0.194275 0.460367
Si Si8 0.000000 0.950924 0.750000
O O1 0.313649 0.100163 0.874699
O O2 0.995663 0.087958 0.920435
O O3 0.122912 0.001116 0.804356
O O4 0.199999 0.996209 0.985992
O O5 0.005116 0.503173 0.842114
O O6 0.142847 0.393915 0.738039
O O7 0.685619 0.357867 0.551689
O O8 0.679246 0.287574 0.723567
O O9 0.572515 0.232460 0.561111
O O10 0.887986 0.268056 0.590062
O O11 0.182336 0.399820 0.110945
O O12 0.990170 0.391045 0.988955
O O13 0.192254 0.697592 0.102597
O O14 0.414902 0.602237 0.173615
#
# Coordination Sequence:
#
# PCOD9457361 Si02
#       8
#     8   4   8   8   8   8   8   4
#     4  11  23  38  67 104 138 178 224 295 365 425
#     4  12  22  46  73 105 144 184 240 304 370 454
#     4  11  24  50  70 104 140 191 251 295 358 448
#     4  11  25  43  68 101 146 183 237 296 377 434
#     4  10  23  41  66 100 139 178 232 294 360 430
#     4  12  25  45  74 102 141 188 241 297 367 438
#     4  11  28  45  74 101 140 200 239 302 368 431
#     4  12  24  40  65 109 136 178 236 292 356 444
#
# _framework density 25.875774
#
# number of rings (size 3 to 8) (size 9 to 14) (size 15 to 20)
#    0.000    0.857    4.286    1.286   12.000    0.000 
#    5.143    0.000    0.000    0.000    0.000    0.000 
#    0.000    0.000    0.000    0.000    0.000    0.000 
#
# Total GULP energy -312364.587470 kJ/mol
# GULP energy per Si atom -5577.939062 kJ/mol
# Density = 2.581688 g / cm^3
# Si number density = 25.875774 Si / 1000 Ang^3
#
#
#
# Elastic Constant Matrix: (Units=GPa)
#
#
# Indices 1 2 3 4 5 6 
#
# 1 186.1383 13.4649 16.1311 0.0000 0.0000 0.0000
# 2 13.4649 17.5038 8.4992 0.0000 0.0000 0.0000
# 3 16.1311 8.4992 68.9128 0.0000 0.0000 0.0000
# 4 0.0000 0.0000 0.0000 41.4486 0.0000 0.0000
# 5 0.0000 0.0000 0.0000 0.0000 39.1824 0.0000
# 6 0.0000 0.0000 0.0000 0.0000 0.0000 20.0003
#
#
#
# Elastic Compliance Matrix: (Units=1/GPa)
#
#
# Indices 1 2 3 4 5 6 
#
# 1 0.005735 -0.004000 -0.000849 0.000000 0.000000 0.000000
# 2 -0.004000 0.063559 -0.006903 0.000000 0.000000 0.000000
# 3 -0.000849 -0.006903 0.015561 0.000000 0.000000 0.000000
# 4 0.000000 0.000000 0.000000 0.024126 0.000000 0.000000
# 5 0.000000 0.000000 0.000000 0.000000 0.025522 0.000000
# 6 0.000000 0.000000 0.000000 0.000000 0.000000 0.049999
#
#
# Mechanical properties :
#
#
# Convention : Reuss Voigt Hill
#
# Bulk Modulus (GPa) = 16.29930 38.74949 27.52439
# Shear Modulus (GPa) = 21.88604 35.75691 28.82147
#
# Velocity S-wave (km/s) = 2.91144 3.72138 3.34104
# Velocity P-wave (km/s) = 4.19699 5.78555 5.05407
#
# Compressibility (1/GPa) = 0.06135233
#
# Stress axis : x y z
#
# Youngs Moduli (GPa) = 174.35986 15.73347 64.26234
#
# Poissons Ratio (x) = 0.06293 0.05457
# Poissons Ratio (y) = 0.69736 0.44358
# Poissons Ratio (z) = 0.14807 0.10860
#
# Static dielectric constant tensor:
#      x y z
#    x 2.116720 0.000000 0.000000 
#    y 0.000000 2.107320 0.000000 
#    z 0.000000 0.000000 2.009520 
# 
# From -- ./inp_files/15307.got.cif
#   From: 2010.05.17/outbox.cif.g08.bks.cpg/sg60_8_cif.got.tgz:15307.got - 2010.06.03 14:59:27.
