data_PCOD9457196
_publ_section_title
;
Structure prediction by ZEFSAII (Michael W. Deem and Ramdas Pophale) SiO2 
 PCOD9457196
Probable space group: P B C N
;
_chemical_formula_sum "Si O2"
_cell_formula_units_Z 60
_cell_length_a 19.975017
_cell_length_b 13.691042
_cell_length_c 9.662321
_cell_angle_alpha 90.000000
_cell_angle_beta 90.000000
_cell_angle_gamma 90.000000
_cell_volume 2642.439920
_symmetry_space_group_name_H-M "P B C N"
_symmetry_group_IT_number 60
_symmetry_cell_setting 'orthorhombic'
loop_
_space_group_symop_operation_xyz
x,y,z
1/2-x,1/2-y,1/2+z
1/2+x,1/2-y,-z
-x,y,1/2-z
-x,-y,-z
1/2+x,1/2+y,1/2-z
1/2-x,1/2+y,z
x,-y,1/2+z
loop_
_atom_site_type_symbol
_atom_site_label
_atom_site_fract_x
_atom_site_fract_y
_atom_site_fract_z
Si Si1 0.631772 0.554561 0.238470
Si Si2 0.000000 0.161948 0.250000
Si Si3 0.575536 0.978052 0.648955
Si Si4 0.029230 0.346992 0.074964
Si Si5 0.673007 0.969076 0.907395
Si Si6 0.777404 0.275444 0.039301
Si Si7 0.310752 0.430051 0.042728
Si Si8 0.829689 0.269688 0.340972
O O1 0.557926 0.588477 0.203456
O O2 0.636062 0.471002 0.351179
O O3 0.656055 0.655952 0.308423
O O4 0.677318 0.523871 0.108647
O O5 0.003759 0.240249 0.121710
O O6 0.541109 0.881116 0.583370
O O7 0.614624 0.963476 0.792359
O O8 0.522703 0.068225 0.626561
O O9 0.635530 0.001636 0.546036
O O10 0.103878 0.335782 0.144457
O O11 0.704019 0.863801 0.939682
O O12 0.737948 0.039675 0.895444
O O13 0.821233 0.183002 0.991978
O O14 0.705288 0.235983 0.990798
O O15 0.788929 0.297933 0.200774
#
# Coordination Sequence:
#
# PCOD9457196 Si02
#       8
#     8   4   8   8   8   8   8   8
#     4  10  23  43  69  98 133 181 237 297 364 424
#     4  10  22  44  76  96 136 200 244 292 370 446
#     4  11  26  44  73 106 144 192 241 302 370 445
#     4  10  23  44  73  98 140 189 242 288 360 441
#     4  12  26  44  69 109 144 187 242 300 373 450
#     4  11  26  40  72 100 145 183 238 297 373 431
#     4  11  24  44  66 103 142 179 235 306 362 441
#     4  10  23  44  68 103 135 187 234 291 363 442
#
# _framework density 22.706288000000001
#
# number of rings (size 3 to 8) (size 9 to 14) (size 15 to 20)
#    0.000    1.333    1.333    2.400   14.933    2.133 
#    2.400    0.000    0.000    0.000    0.000    0.000 
#    0.000    0.000    0.000    0.000    0.000    0.000 
#
# Total GULP energy -334298.838183 kJ/mol
# GULP energy per Si atom -5571.647303 kJ/mol
# Density = 2.265461 g / cm^3
# Si number density = 22.706288 Si / 1000 Ang^3
#
#
#
# Elastic Constant Matrix: (Units=GPa)
#
#
# Indices 1 2 3 4 5 6 
#
# 1 108.6030 24.9512 27.2900 0.0000 0.0000 0.0000
# 2 24.9512 77.3991 40.9068 0.0000 0.0000 0.0000
# 3 27.2900 40.9068 65.1328 0.0000 0.0000 0.0000
# 4 0.0000 0.0000 0.0000 4.5908 0.0000 0.0000
# 5 0.0000 0.0000 0.0000 0.0000 28.4565 0.0000
# 6 0.0000 0.0000 0.0000 0.0000 0.0000 17.1351
#
#
#
# Elastic Compliance Matrix: (Units=1/GPa)
#
#
# Indices 1 2 3 4 5 6 
#
# 1 0.010418 -0.001574 -0.003377 0.000000 0.000000 0.000000
# 2 -0.001574 0.019577 -0.011636 0.000000 0.000000 0.000000
# 3 -0.003377 -0.011636 0.024076 0.000000 0.000000 0.000000
# 4 0.000000 0.000000 0.000000 0.217828 0.000000 0.000000
# 5 0.000000 0.000000 0.000000 0.000000 0.035141 0.000000
# 6 0.000000 0.000000 0.000000 0.000000 0.000000 0.058360
#
#
# Mechanical properties :
#
#
# Convention : Reuss Voigt Hill
#
# Bulk Modulus (GPa) = 47.85097 48.60346 48.22721
# Shear Modulus (GPa) = 12.32925 20.56892 16.44908
#
# Velocity S-wave (km/s) = 2.33274 3.01303 2.69444
# Velocity P-wave (km/s) = 5.32684 5.79277 5.56468
#
# Compressibility (1/GPa) = 0.02089822
#
# Stress axis : x y z
#
# Youngs Moduli (GPa) = 95.98856 51.07942 41.53496
#
# Poissons Ratio (x) = 0.08039 0.14024
# Poissons Ratio (y) = 0.15107 0.48331
# Poissons Ratio (z) = 0.32411 0.59437
#
# Static dielectric constant tensor:
#      x y z
#    x 1.992660 0.000000 0.000000 
#    y 0.000000 1.900070 0.000000 
#    z 0.000000 0.000000 1.886920 
# 
# From -- ./inp_files/7951.got.cif
#   From: 2010.05.17/outbox.cif.g08.bks.cpg/sg60_4_cif.got.tgz:7951.got - 2010.06.03 14:59:27.
