data_PCOD9457727
_publ_section_title
;
Structure prediction by ZEFSAII (Michael W. Deem and Ramdas Pophale) SiO2 
 PCOD9457727
Probable space group: P B C N
;
_chemical_formula_sum "Si O2"
_cell_formula_units_Z 40
_cell_length_a 15.904689
_cell_length_b 9.086160
_cell_length_c 12.238446
_cell_angle_alpha 90.000000
_cell_angle_beta 90.000000
_cell_angle_gamma 90.000000
_cell_volume 1768.609027
_symmetry_space_group_name_H-M "P B C N"
_symmetry_group_IT_number 60
_symmetry_cell_setting 'orthorhombic'
loop_
_space_group_symop_operation_xyz
x,y,z
1/2-x,1/2-y,1/2+z
1/2+x,1/2-y,-z
-x,y,1/2-z
-x,-y,-z
1/2+x,1/2+y,1/2-z
1/2-x,1/2+y,z
x,-y,1/2+z
loop_
_atom_site_type_symbol
_atom_site_label
_atom_site_fract_x
_atom_site_fract_y
_atom_site_fract_z
Si Si1 0.571610 0.626944 0.001976
Si Si2 0.254226 0.556747 0.005201
Si Si3 0.849629 0.309243 0.583653
Si Si4 0.021314 0.630404 0.586297
Si Si5 0.616680 0.870033 0.825931
O O1 0.661451 0.543029 0.995371
O O2 0.550330 0.744869 0.100712
O O3 0.500000 0.500000 0.000000
O O4 0.574814 0.743527 0.901279
O O5 0.183098 0.470739 0.940179
O O6 0.274442 0.698542 0.934658
O O7 0.209261 0.598764 0.120309
O O8 0.910252 0.276733 0.482166
O O9 0.883663 0.306854 0.704584
O O10 0.069123 0.528627 0.674166
O O11 0.000000 0.500000 0.500000
#
# Coordination Sequence:
#
# PCOD9457727 Si02
#       5
#     8   8   8   8   8
#     4  11  21  41  67  91 132 168 211 270 328 376
#     4  11  23  42  65  97 132 168 216 277 320 386
#     4  11  23  41  68  93 130 171 222 265 327 390
#     4   9  21  41  65  91 129 169 206 272 325 381
#     4  10  24  43  69  92 129 178 218 264 328 394
#
# _framework density 22.616644000000001
#
# number of rings (size 3 to 8) (size 9 to 14) (size 15 to 20)
#    0.000    1.600    4.000    0.000    2.800    3.200 
#    0.000    0.000   17.600    0.000    0.000    0.000 
#    0.000    0.000    0.000    0.000    0.000    0.000 
#
# Total GULP energy -222695.233669 kJ/mol
# GULP energy per Si atom -5567.380842 kJ/mol
# Density = 2.256517 g / cm^3
# Si number density = 22.616644 Si / 1000 Ang^3
#
#
#
# Elastic Constant Matrix: (Units=GPa)
#
#
# Indices 1 2 3 4 5 6 
#
# 1 113.7285 43.1150 19.5638 0.0000 0.0000 0.0000
# 2 43.1150 136.2615 15.9983 0.0000 0.0000 0.0000
# 3 19.5638 15.9983 66.0241 0.0000 0.0000 0.0000
# 4 0.0000 0.0000 0.0000 8.6729 0.0000 0.0000
# 5 0.0000 0.0000 0.0000 0.0000 31.0577 0.0000
# 6 0.0000 0.0000 0.0000 0.0000 0.0000 72.9667
#
#
#
# Elastic Compliance Matrix: (Units=1/GPa)
#
#
# Indices 1 2 3 4 5 6 
#
# 1 0.010330 -0.002994 -0.002335 0.000000 0.000000 0.000000
# 2 -0.002994 0.008422 -0.001153 0.000000 0.000000 0.000000
# 3 -0.002335 -0.001153 0.016117 0.000000 0.000000 0.000000
# 4 0.000000 0.000000 0.000000 0.115302 0.000000 0.000000
# 5 0.000000 0.000000 0.000000 0.000000 0.032198 0.000000
# 6 0.000000 0.000000 0.000000 0.000000 0.000000 0.013705
#
#
# Mechanical properties :
#
#
# Convention : Reuss Voigt Hill
#
# Bulk Modulus (GPa) = 45.65609 52.59649 49.12629
# Shear Modulus (GPa) = 23.11170 38.36193 30.73682
#
# Velocity S-wave (km/s) = 3.20017 4.12294 3.69051
# Velocity P-wave (km/s) = 5.82113 6.78019 6.31888
#
# Compressibility (1/GPa) = 0.02190288
#
# Stress axis : x y z
#
# Youngs Moduli (GPa) = 96.80778 118.74106 62.04456
#
# Poissons Ratio (x) = 0.35555 0.14489
# Poissons Ratio (y) = 0.28987 0.07156
# Poissons Ratio (z) = 0.22607 0.13696
#
# Static dielectric constant tensor:
#      x y z
#    x 2.308840 0.000000 0.000000 
#    y 0.000000 1.883460 0.000000 
#    z 0.000000 0.000000 1.898190 
# 
# From -- ./inp_files/12286.got.cif
#   From: 2010.05.17/outbox.cif.g08.bks.cpg/sg60_7_cif.got.tgz:12286.got - 2010.06.03 14:59:27.
