data_PCOD9457288
_publ_section_title
;
Structure prediction by ZEFSAII (Michael W. Deem and Ramdas Pophale) SiO2 
 PCOD9457288
Probable space group: P B C N
;
_chemical_formula_sum "Si O2"
_cell_formula_units_Z 32
_cell_length_a 17.507896
_cell_length_b 13.577657
_cell_length_c 5.517535
_cell_angle_alpha 90.000000
_cell_angle_beta 90.000000
_cell_angle_gamma 90.000000
_cell_volume 1311.607490
_symmetry_space_group_name_H-M "P B C N"
_symmetry_group_IT_number 60
_symmetry_cell_setting 'orthorhombic'
loop_
_space_group_symop_operation_xyz
x,y,z
1/2-x,1/2-y,1/2+z
1/2+x,1/2-y,-z
-x,y,1/2-z
-x,-y,-z
1/2+x,1/2+y,1/2-z
1/2-x,1/2+y,z
x,-y,1/2+z
loop_
_atom_site_type_symbol
_atom_site_label
_atom_site_fract_x
_atom_site_fract_y
_atom_site_fract_z
Si Si1 0.128244 0.252948 0.679033
Si Si2 0.293778 0.552097 0.603418
Si Si3 0.874627 0.524027 0.368105
Si Si4 0.517790 0.335290 0.001282
O O1 0.182973 0.166014 0.594534
O O2 0.154193 0.363485 0.654044
O O3 0.049812 0.245819 0.523261
O O4 0.097640 0.218656 0.945577
O O5 0.321725 0.497471 0.357418
O O6 0.202563 0.540902 0.617936
O O7 0.915771 0.504357 0.620646
O O8 0.500000 0.385174 0.750000
O O9 0.500000 0.394360 0.250000
#
# Coordination Sequence:
#
# PCOD9457288 Si02
#       4
#     8   8   8   8
#     4   9  22  40  64  78 134 147 190 262 278 345
#     4  10  23  37  58  92 117 157 200 228 303 358
#     4  10  23  37  58  92 117 157 200 228 303 358
#     4   8  20  36  60  88 104 166 200 224 312 330
#
# _framework density 24.397544
#
# number of rings (size 3 to 8) (size 9 to 14) (size 15 to 20)
#    1.500    1.000    0.000    0.000    7.000    8.000 
#    0.000   10.000    0.000    0.000    0.000    0.000 
#    0.000    0.000    0.000    0.000    0.000    0.000 
#
# Total GULP energy -178232.974381 kJ/mol
# GULP energy per Si atom -5569.780449 kJ/mol
# Density = 2.434201 g / cm^3
# Si number density = 24.397544 Si / 1000 Ang^3
#
#
#
# Elastic Constant Matrix: (Units=GPa)
#
#
# Indices 1 2 3 4 5 6 
#
# 1 62.1110 20.0485 -12.5497 0.0000 0.0000 0.0000
# 2 20.0485 124.3101 43.9471 0.0000 0.0000 0.0000
# 3 -12.5497 43.9471 224.9669 0.0000 0.0000 0.0000
# 4 0.0000 0.0000 0.0000 7.6043 0.0000 0.0000
# 5 0.0000 0.0000 0.0000 0.0000 11.3730 0.0000
# 6 0.0000 0.0000 0.0000 0.0000 0.0000 -82.1526
#
#
#
# Elastic Compliance Matrix: (Units=1/GPa)
#
#
# Indices 1 2 3 4 5 6 
#
# 1 0.017533 -0.003409 0.001644 0.000000 0.000000 0.000000
# 2 -0.003409 0.009304 -0.002008 0.000000 0.000000 0.000000
# 3 0.001644 -0.002008 0.004929 0.000000 0.000000 0.000000
# 4 0.000000 0.000000 0.000000 0.131504 0.000000 0.000000
# 5 0.000000 0.000000 0.000000 0.000000 0.087928 0.000000
# 6 0.000000 0.000000 0.000000 0.000000 0.000000 -0.012172
#
#
# Mechanical properties :
#
#
# Convention : Reuss Voigt Hill
#
# Bulk Modulus (GPa) = 41.28725 57.14222 49.21474
# Shear Modulus (GPa) = 19.63533 11.36110 15.49822
#
# Velocity S-wave (km/s) = 2.83999 2.16027 2.52312
# Velocity P-wave (km/s) = 5.26436 5.44927 5.35761
#
# Compressibility (1/GPa) = 0.02422055
#
# Stress axis : x y z
#
# Youngs Moduli (GPa) = 57.03632 107.48138 202.88067
#
# Poissons Ratio (x) = 0.36639 -0.33353
# Poissons Ratio (y) = 0.19443 0.40732
# Poissons Ratio (z) = -0.09377 0.21579
#
# Static dielectric constant tensor:
#      x y z
#    x 1.962390 0.000000 0.000000 
#    y 0.000000 1.842560 0.000000 
#    z 0.000000 0.000000 2.156490 
# 
# From -- ./inp_files/2265.got.cif
#   From: 2010.05.17/outbox.cif.g08.bks.cpg/sg60_2_cif.got.tgz:2265.got - 2010.06.03 14:59:27.
