data_PCOD9457264
_publ_section_title
;
Structure prediction by ZEFSAII (Michael W. Deem and Ramdas Pophale) SiO2 
 PCOD9457264
Probable space group: P B C N
;
_chemical_formula_sum "Si O2"
_cell_formula_units_Z 40
_cell_length_a 7.396046
_cell_length_b 14.266278
_cell_length_c 15.877520
_cell_angle_alpha 90.000000
_cell_angle_beta 90.000000
_cell_angle_gamma 90.000000
_cell_volume 1675.301413
_symmetry_space_group_name_H-M "P B C N"
_symmetry_group_IT_number 60
_symmetry_cell_setting 'orthorhombic'
loop_
_space_group_symop_operation_xyz
x,y,z
1/2-x,1/2-y,1/2+z
1/2+x,1/2-y,-z
-x,y,1/2-z
-x,-y,-z
1/2+x,1/2+y,1/2-z
1/2-x,1/2+y,z
x,-y,1/2+z
loop_
_atom_site_type_symbol
_atom_site_label
_atom_site_fract_x
_atom_site_fract_y
_atom_site_fract_z
Si Si1 0.286478 0.085076 0.921337
Si Si2 0.623230 0.579546 0.867553
Si Si3 0.312291 0.721495 0.356993
Si Si4 0.500000 0.577901 0.250000
Si Si5 0.000000 0.757098 0.250000
Si Si6 0.115878 0.392630 0.979344
O O1 0.340166 0.166718 0.855092
O O2 0.069461 0.075923 0.918233
O O3 0.351520 0.977889 0.914549
O O4 0.404030 0.118362 0.002341
O O5 0.630605 0.497386 0.797409
O O6 0.601080 0.676100 0.816683
O O7 0.785309 0.579480 0.933414
O O8 0.462820 0.650522 0.326685
O O9 0.150686 0.697591 0.294037
O O10 0.224764 0.696531 0.446508
#
# Coordination Sequence:
#
# PCOD9457264 Si02
#       6
#     8   8   8   4   4   8
#     4  10  24  42  63 100 129 162 230 272 327 395
#     4  10  22  47  68  91 136 180 217 279 335 393
#     4  11  25  42  67 101 133 178 227 272 341 402
#     4  11  24  42  67  96 136 180 223 270 343 402
#     4   9  24  44  61  98 138 168 221 280 331 396
#     4  11  24  43  71  98 131 181 221 283 335 394
#
# _framework density 23.876301000000002
#
# number of rings (size 3 to 8) (size 9 to 14) (size 15 to 20)
#    0.000    1.600    2.000    0.600    8.400    3.200 
#    0.000    1.000    0.000    0.000    0.000    0.000 
#    0.000    0.000    0.000    0.000    0.000    0.000 
#
# Total GULP energy -222824.231650 kJ/mol
# GULP energy per Si atom -5570.605791 kJ/mol
# Density = 2.382196 g / cm^3
# Si number density = 23.876301 Si / 1000 Ang^3
#
#
#
# Elastic Constant Matrix: (Units=GPa)
#
#
# Indices 1 2 3 4 5 6 
#
# 1 42.6070 17.0096 22.7321 0.0000 0.0000 0.0000
# 2 17.0096 75.9231 13.1319 0.0000 0.0000 0.0000
# 3 22.7321 13.1319 59.8196 0.0000 0.0000 0.0000
# 4 0.0000 0.0000 0.0000 2.6588 0.0000 0.0000
# 5 0.0000 0.0000 0.0000 0.0000 45.6136 0.0000
# 6 0.0000 0.0000 0.0000 0.0000 0.0000 73.6651
#
#
#
# Elastic Compliance Matrix: (Units=1/GPa)
#
#
# Indices 1 2 3 4 5 6 
#
# 1 0.031259 -0.005144 -0.010750 0.000000 0.000000 0.000000
# 2 -0.005144 0.014538 -0.001237 0.000000 0.000000 0.000000
# 3 -0.010750 -0.001237 0.021073 0.000000 0.000000 0.000000
# 4 0.000000 0.000000 0.000000 0.376112 0.000000 0.000000
# 5 0.000000 0.000000 0.000000 0.000000 0.021923 0.000000
# 6 0.000000 0.000000 0.000000 0.000000 0.000000 0.013575
#
#
# Mechanical properties :
#
#
# Convention : Reuss Voigt Hill
#
# Bulk Modulus (GPa) = 30.66566 31.56634 31.11600
# Shear Modulus (GPa) = 9.54908 32.75256 21.15082
#
# Velocity S-wave (km/s) = 2.00202 3.70775 2.97955
# Velocity P-wave (km/s) = 4.26797 5.61955 4.98973
#
# Compressibility (1/GPa) = 0.03260976
#
# Stress axis : x y z
#
# Youngs Moduli (GPa) = 31.99071 68.78748 47.45326
#
# Poissons Ratio (x) = 0.35384 0.51010
# Poissons Ratio (y) = 0.16456 0.05868
# Poissons Ratio (z) = 0.34389 0.08506
#
# Static dielectric constant tensor:
#      x y z
#    x 1.996390 0.000000 0.000000 
#    y 0.000000 1.871990 0.000000 
#    z 0.000000 0.000000 11.240960 
# 
# From -- ./inp_files/19182.got.cif
#   From: 2010.05.17/outbox.cif.g08.bks.cpg/sg60_10_cif.got.tgz:19182.got - 2010.06.03 14:59:27.
