data_PCOD9457043
_publ_section_title
;
Structure prediction by ZEFSAII (Michael W. Deem and Ramdas Pophale) SiO2 
 PCOD9457043
Probable space group: P B C N
;
_chemical_formula_sum "Si O2"
_cell_formula_units_Z 48
_cell_length_a 12.737145
_cell_length_b 17.008254
_cell_length_c 9.469438
_cell_angle_alpha 90.000000
_cell_angle_beta 90.000000
_cell_angle_gamma 90.000000
_cell_volume 2051.426828
_symmetry_space_group_name_H-M "P B C N"
_symmetry_group_IT_number 60
_symmetry_cell_setting 'orthorhombic'
loop_
_space_group_symop_operation_xyz
x,y,z
1/2-x,1/2-y,1/2+z
1/2+x,1/2-y,-z
-x,y,1/2-z
-x,-y,-z
1/2+x,1/2+y,1/2-z
1/2-x,1/2+y,z
x,-y,1/2+z
loop_
_atom_site_type_symbol
_atom_site_label
_atom_site_fract_x
_atom_site_fract_y
_atom_site_fract_z
Si Si1 0.401404 0.676449 0.090924
Si Si2 0.791203 0.908200 0.664330
Si Si3 0.780499 0.328238 0.374487
Si Si4 0.585988 0.082689 0.358403
Si Si5 0.242157 0.574782 0.903086
Si Si6 0.940708 0.238117 0.888700
O O1 0.379647 0.630405 0.236110
O O2 0.375020 0.767811 0.117005
O O3 0.314767 0.638747 0.983734
O O4 0.513135 0.683661 0.012516
O O5 0.752099 0.866970 0.521863
O O6 0.687721 0.908267 0.761024
O O7 0.812962 0.998433 0.625019
O O8 0.792048 0.388714 0.246402
O O9 0.679954 0.272846 0.350740
O O10 0.500000 0.046428 0.250000
O O11 0.640704 0.049856 0.501615
O O12 0.542216 0.168403 0.405136
O O13 0.000000 0.211371 0.750000
#
# Coordination Sequence:
#
# PCOD9457043 Si02
#       6
#     8   8   8   8   8   8
#     4  11  23  42  66  98 132 180 240 289 352 428
#     4  11  24  42  64  99 140 181 227 290 363 424
#     4  12  21  41  70  95 131 182 236 289 348 420
#     4  10  22  42  67  97 137 177 226 292 353 416
#     4  11  23  43  66  96 142 188 222 283 368 428
#     4  11  21  39  68  99 130 172 235 297 345 411
#
# _framework density 23.398347000000001
#
# number of rings (size 3 to 8) (size 9 to 14) (size 15 to 20)
#    0.000    1.000    5.000    5.000    0.000    1.333 
#    0.000    9.167    0.000    0.000    0.000    0.000 
#    0.000    0.000    0.000    0.000    0.000    0.000 
#
# Total GULP energy -267946.410488 kJ/mol
# GULP energy per Si atom -5582.216885 kJ/mol
# Density = 2.334509 g / cm^3
# Si number density = 23.398347 Si / 1000 Ang^3
#
#
#
# Elastic Constant Matrix: (Units=GPa)
#
#
# Indices 1 2 3 4 5 6 
#
# 1 59.4825 -31.4147 11.4992 0.0000 0.0000 0.0000
# 2 -31.4147 64.8293 24.5559 0.0000 0.0000 0.0000
# 3 11.4992 24.5559 144.1405 0.0000 0.0000 0.0000
# 4 0.0000 0.0000 0.0000 72.8992 0.0000 0.0000
# 5 0.0000 0.0000 0.0000 0.0000 69.4185 0.0000
# 6 0.0000 0.0000 0.0000 0.0000 0.0000 18.8108
#
#
#
# Elastic Compliance Matrix: (Units=1/GPa)
#
#
# Indices 1 2 3 4 5 6 
#
# 1 0.024876 0.013689 -0.004317 0.000000 0.000000 0.000000
# 2 0.013689 0.024022 -0.005185 0.000000 0.000000 0.000000
# 3 -0.004317 -0.005185 0.008165 0.000000 0.000000 0.000000
# 4 0.000000 0.000000 0.000000 0.013718 0.000000 0.000000
# 5 0.000000 0.000000 0.000000 0.000000 0.014405 0.000000
# 6 0.000000 0.000000 0.000000 0.000000 0.000000 0.053161
#
#
# Mechanical properties :
#
#
# Convention : Reuss Voigt Hill
#
# Bulk Modulus (GPa) = 15.28121 30.85923 23.07022
# Shear Modulus (GPa) = 32.94141 49.81316 41.37728
#
# Velocity S-wave (km/s) = 3.75621 4.61903 4.20978
# Velocity P-wave (km/s) = 5.03559 6.45480 5.78885
#
# Compressibility (1/GPa) = 0.06543985
#
# Stress axis : x y z
#
# Youngs Moduli (GPa) = 40.19946 41.62777 122.46953
#
# Poissons Ratio (x) = -0.56986 0.52866
# Poissons Ratio (y) = -0.55030 0.63495
# Poissons Ratio (z) = 0.17353 0.21582
#
# Static dielectric constant tensor:
#      x y z
#    x 1.798270 0.000000 0.000000 
#    y 0.000000 1.931650 0.000000 
#    z 0.000000 0.000000 1.975240 
# 
# From -- ./inp_files/6031.got.cif
#   From: 2010.05.17/outbox.cif.g08.bks.cpg/sg60_4_cif.got.tgz:6031.got - 2010.06.03 14:59:27.
