data_PCOD9457501
_publ_section_title
;
Structure prediction by ZEFSAII (Michael W. Deem and Ramdas Pophale) SiO2 
 PCOD9457501
Probable space group: P B C N
;
_chemical_formula_sum "Si O2"
_cell_formula_units_Z 48
_cell_length_a 5.175281
_cell_length_b 16.840301
_cell_length_c 22.801743
_cell_angle_alpha 90.000000
_cell_angle_beta 90.000000
_cell_angle_gamma 90.000000
_cell_volume 1987.246916
_symmetry_space_group_name_H-M "P B C N"
_symmetry_group_IT_number 60
_symmetry_cell_setting 'orthorhombic'
loop_
_space_group_symop_operation_xyz
x,y,z
1/2-x,1/2-y,1/2+z
1/2+x,1/2-y,-z
-x,y,1/2-z
-x,-y,-z
1/2+x,1/2+y,1/2-z
1/2-x,1/2+y,z
x,-y,1/2+z
loop_
_atom_site_type_symbol
_atom_site_label
_atom_site_fract_x
_atom_site_fract_y
_atom_site_fract_z
Si Si1 0.289597 0.902178 0.851020
Si Si2 0.580320 0.361947 0.313699
Si Si3 0.580904 0.923907 0.182991
Si Si4 0.749137 0.446805 0.512298
Si Si5 0.301789 0.300255 0.659250
Si Si6 0.858459 0.277070 0.468365
O O1 0.243736 0.916874 0.920207
O O2 0.564745 0.860827 0.842363
O O3 0.063056 0.846668 0.825546
O O4 0.305890 0.988751 0.822554
O O5 0.500000 0.395411 0.250000
O O6 0.296927 0.364362 0.343090
O O7 0.705617 0.275838 0.304369
O O8 0.797257 0.414650 0.345291
O O9 0.500000 0.905767 0.250000
O O10 0.500000 0.500000 0.500000
O O11 0.766845 0.367553 0.473635
O O12 0.000000 0.500000 0.500000
O O13 0.340094 0.261552 0.595228
O O14 0.649701 0.229984 0.508022
#
# Coordination Sequence:
#
# PCOD9457501 Si02
#       6
#     8   8   8   8   8   8
#     4  12  25  43  64  99 134 170 225 270 332 395
#     4  10  23  44  68  96 126 166 220 269 329 398
#     4  10  23  44  67  93 129 169 212 272 332 390
#     4  12  26  41  63  96 133 175 222 274 320 398
#     4  12  24  42  67  97 131 175 216 277 331 394
#     4  12  23  44  63  91 137 176 214 267 334 387
#
# _framework density 24.154019999999999
#
# number of rings (size 3 to 8) (size 9 to 14) (size 15 to 20)
#    0.000    0.667    3.333    4.000    4.667    0.667 
#    0.000    1.667    0.000    0.000    0.000    0.000 
#    0.000    0.000    0.000    0.000    0.000    0.000 
#
# Total GULP energy -268638.277226 kJ/mol
# GULP energy per Si atom -5596.630776 kJ/mol
# Density = 2.409904 g / cm^3
# Si number density = 24.154020 Si / 1000 Ang^3
#
#
#
# Elastic Constant Matrix: (Units=GPa)
#
#
# Indices 1 2 3 4 5 6 
#
# 1 182.1980 44.1984 5.3516 0.0000 0.0000 0.0000
# 2 44.1984 128.4585 9.5769 0.0000 0.0000 0.0000
# 3 5.3516 9.5769 48.5883 0.0000 0.0000 0.0000
# 4 0.0000 0.0000 0.0000 38.3309 0.0000 0.0000
# 5 0.0000 0.0000 0.0000 0.0000 15.3243 0.0000
# 6 0.0000 0.0000 0.0000 0.0000 0.0000 63.1778
#
#
#
# Elastic Compliance Matrix: (Units=1/GPa)
#
#
# Indices 1 2 3 4 5 6 
#
# 1 0.005992 -0.002042 -0.000257 0.000000 0.000000 0.000000
# 2 -0.002042 0.008597 -0.001470 0.000000 0.000000 0.000000
# 3 -0.000257 -0.001470 0.020899 0.000000 0.000000 0.000000
# 4 0.000000 0.000000 0.000000 0.026089 0.000000 0.000000
# 5 0.000000 0.000000 0.000000 0.000000 0.065256 0.000000
# 6 0.000000 0.000000 0.000000 0.000000 0.000000 0.015828
#
#
# Mechanical properties :
#
#
# Convention : Reuss Voigt Hill
#
# Bulk Modulus (GPa) = 35.77934 53.05538 44.41736
# Shear Modulus (GPa) = 31.34498 43.37445 37.35972
#
# Velocity S-wave (km/s) = 3.60629 4.24222 3.93711
# Velocity P-wave (km/s) = 5.67323 6.78295 6.25276
#
# Compressibility (1/GPa) = 0.02794909
#
# Stress axis : x y z
#
# Youngs Moduli (GPa) = 166.90246 116.32153 47.84895
#
# Poissons Ratio (x) = 0.23756 0.01232
# Poissons Ratio (y) = 0.34086 0.07031
# Poissons Ratio (z) = 0.04296 0.17094
#
# Static dielectric constant tensor:
#      x y z
#    x 2.071240 0.000000 0.000000 
#    y 0.000000 1.894080 0.000000 
#    z 0.000000 0.000000 2.103190 
# 
# From -- ./inp_files/25665.got.cif
#   From: 2010.05.17/outbox.cif.g08.bks.cpg/sg60_13_cif.got.tgz:25665.got - 2010.06.03 14:59:27.
