data_PCOD9457910
_publ_section_title
;
Structure prediction by ZEFSAII (Michael W. Deem and Ramdas Pophale) SiO2 
 PCOD9457910
Probable space group: P B C N
;
_chemical_formula_sum "Si O2"
_cell_formula_units_Z 36
_cell_length_a 17.703322
_cell_length_b 8.576225
_cell_length_c 8.364265
_cell_angle_alpha 90.000000
_cell_angle_beta 90.000000
_cell_angle_gamma 90.000000
_cell_volume 1269.926889
_symmetry_space_group_name_H-M "P B C N"
_symmetry_group_IT_number 60
_symmetry_cell_setting 'orthorhombic'
loop_
_space_group_symop_operation_xyz
x,y,z
1/2-x,1/2-y,1/2+z
1/2+x,1/2-y,-z
-x,y,1/2-z
-x,-y,-z
1/2+x,1/2+y,1/2-z
1/2-x,1/2+y,z
x,-y,1/2+z
loop_
_atom_site_type_symbol
_atom_site_label
_atom_site_fract_x
_atom_site_fract_y
_atom_site_fract_z
Si Si1 0.648388 0.716665 0.201705
Si Si2 0.282084 0.418110 0.227555
Si Si3 0.031920 0.833769 0.562557
Si Si4 0.500000 0.872504 0.750000
Si Si5 0.144307 0.381290 0.587727
O O1 0.668227 0.536660 0.169491
O O2 0.728048 0.803397 0.175928
O O3 0.618557 0.700260 0.381759
O O4 0.605231 0.827577 0.078456
O O5 0.336092 0.294032 0.145101
O O6 0.219225 0.514371 0.121600
O O7 0.000000 0.826035 0.750000
O O8 0.023629 0.728250 0.404620
O O9 0.000000 0.000000 0.500000
O O10 0.575679 0.955036 0.812593
#
# Coordination Sequence:
#
# PCOD9457910 Si02
#       5
#     8   8   8   4   8
#     4  11  24  45  76 108 149 199 256 313 382 459
#     4  10  25  45  74 110 150 203 254 316 385 468
#     4  12  25  44  71 107 150 193 246 308 376 444
#     4  12  26  44  72 112 150 196 248 316 380 448
#     4  11  24  47  75 109 153 200 258 319 387 461
#
# _framework density 28.348088000000001
#
# number of rings (size 3 to 8) (size 9 to 14) (size 15 to 20)
#    0.000    0.889    3.333    2.667    0.000    8.889 
#    2.000    2.222    0.000    0.000    0.000    0.000 
#    0.000    0.000    0.000    0.000    0.000    0.000 
#
# Total GULP energy -200579.349735 kJ/mol
# GULP energy per Si atom -5571.648604 kJ/mol
# Density = 2.828357 g / cm^3
# Si number density = 28.348088 Si / 1000 Ang^3
#
#
#
# Elastic Constant Matrix: (Units=GPa)
#
#
# Indices 1 2 3 4 5 6 
#
# 1 96.2729 11.3198 60.6404 0.0000 0.0000 0.0000
# 2 11.3198 134.4576 45.6459 0.0000 0.0000 0.0000
# 3 60.6404 45.6459 141.3047 0.0000 0.0000 0.0000
# 4 0.0000 0.0000 0.0000 13.1326 0.0000 0.0000
# 5 0.0000 0.0000 0.0000 0.0000 54.0034 0.0000
# 6 0.0000 0.0000 0.0000 0.0000 0.0000 16.2110
#
#
#
# Elastic Compliance Matrix: (Units=1/GPa)
#
#
# Indices 1 2 3 4 5 6 
#
# 1 0.014352 0.000991 -0.006479 0.000000 0.000000 0.000000
# 2 0.000991 0.008422 -0.003146 0.000000 0.000000 0.000000
# 3 -0.006479 -0.003146 0.010874 0.000000 0.000000 0.000000
# 4 0.000000 0.000000 0.000000 0.076147 0.000000 0.000000
# 5 0.000000 0.000000 0.000000 0.000000 0.018517 0.000000
# 6 0.000000 0.000000 0.000000 0.000000 0.000000 0.061687
#
#
# Mechanical properties :
#
#
# Convention : Reuss Voigt Hill
#
# Bulk Modulus (GPa) = 61.05175 67.47192 64.26183
# Shear Modulus (GPa) = 23.50450 33.63133 28.56792
#
# Velocity S-wave (km/s) = 2.88260 3.44811 3.17796
# Velocity P-wave (km/s) = 5.71510 6.30123 6.01531
#
# Compressibility (1/GPa) = 0.01637955
#
# Stress axis : x y z
#
# Youngs Moduli (GPa) = 69.67818 118.73922 91.96530
#
# Poissons Ratio (x) = -0.11771 0.59586
# Poissons Ratio (y) = -0.06907 0.28932
# Poissons Ratio (z) = 0.45146 0.37355
#
# Static dielectric constant tensor:
#      x y z
#    x 3.146060 0.000000 0.000000 
#    y 0.000000 2.190090 0.000000 
#    z 0.000000 0.000000 3.167890 
# 
# From -- ./inp_files/7187.got.cif
#   From: 2010.05.17/outbox.cif.g08.bks.cpg/sg60_4_cif.got.tgz:7187.got - 2010.06.03 14:59:27.
