data_PCOD9457511
_publ_section_title
;
Structure prediction by ZEFSAII (Michael W. Deem and Ramdas Pophale) SiO2 
 PCOD9457511
Probable space group: P B C N
;
_chemical_formula_sum "Si O2"
_cell_formula_units_Z 32
_cell_length_a 7.951647
_cell_length_b 13.747062
_cell_length_c 12.752874
_cell_angle_alpha 90.000000
_cell_angle_beta 90.000000
_cell_angle_gamma 90.000000
_cell_volume 1394.039412
_symmetry_space_group_name_H-M "P B C N"
_symmetry_group_IT_number 60
_symmetry_cell_setting 'orthorhombic'
loop_
_space_group_symop_operation_xyz
x,y,z
1/2-x,1/2-y,1/2+z
1/2+x,1/2-y,-z
-x,y,1/2-z
-x,-y,-z
1/2+x,1/2+y,1/2-z
1/2-x,1/2+y,z
x,-y,1/2+z
loop_
_atom_site_type_symbol
_atom_site_label
_atom_site_fract_x
_atom_site_fract_y
_atom_site_fract_z
Si Si1 0.870107 0.728524 0.433349
Si Si2 0.532279 0.165211 0.872503
Si Si3 0.038942 0.915731 0.370731
Si Si4 0.207429 0.516721 0.032519
O O1 0.703917 0.775957 0.387660
O O2 0.849034 0.614834 0.407808
O O3 0.897580 0.726336 0.559633
O O4 0.017162 0.800177 0.394116
O O5 0.500000 0.150275 0.750000
O O6 0.572148 0.066290 0.937531
O O7 0.216916 0.954303 0.416642
O O8 0.000000 0.930651 0.250000
O O9 0.881492 0.971350 0.422879
#
# Coordination Sequence:
#
# PCOD9457511 Si02
#       4
#     8   8   8   8
#     4  11  23  46  69 104 141 180 241 292 346 421
#     4  11  26  45  72 105 145 185 238 294 349 426
#     4  10  23  45  68 100 143 190 237 295 352 415
#     4  10  23  44  68 103 140 184 239 295 342 427
#
# _framework density 22.954874
#
# number of rings (size 3 to 8) (size 9 to 14) (size 15 to 20)
#    0.000    1.500    2.500    0.750    7.000    2.000 
#    4.500    0.000    0.000    0.000    0.000    0.000 
#    0.000    0.000    0.000    0.000    0.000    0.000 
#
# Total GULP energy -178225.317793 kJ/mol
# GULP energy per Si atom -5569.541181 kJ/mol
# Density = 2.290263 g / cm^3
# Si number density = 22.954874 Si / 1000 Ang^3
#
#
#
# Elastic Constant Matrix: (Units=GPa)
#
#
# Indices 1 2 3 4 5 6 
#
# 1 122.4468 32.0130 40.8562 0.0000 0.0000 0.0000
# 2 32.0130 111.3964 -3.4436 0.0000 0.0000 0.0000
# 3 40.8562 -3.4436 90.0351 0.0000 0.0000 0.0000
# 4 0.0000 0.0000 0.0000 51.1068 0.0000 0.0000
# 5 0.0000 0.0000 0.0000 0.0000 31.8263 0.0000
# 6 0.0000 0.0000 0.0000 0.0000 0.0000 20.6427
#
#
#
# Elastic Compliance Matrix: (Units=1/GPa)
#
#
# Indices 1 2 3 4 5 6 
#
# 1 0.010664 -0.003218 -0.004962 0.000000 0.000000 0.000000
# 2 -0.003218 0.009959 0.001841 0.000000 0.000000 0.000000
# 3 -0.004962 0.001841 0.013429 0.000000 0.000000 0.000000
# 4 0.000000 0.000000 0.000000 0.019567 0.000000 0.000000
# 5 0.000000 0.000000 0.000000 0.000000 0.031421 0.000000
# 6 0.000000 0.000000 0.000000 0.000000 0.000000 0.048443
#
#
# Mechanical properties :
#
#
# Convention : Reuss Voigt Hill
#
# Bulk Modulus (GPa) = 46.78690 51.41440 49.10065
# Shear Modulus (GPa) = 32.61913 37.67869 35.14891
#
# Velocity S-wave (km/s) = 3.77372 4.05584 3.91732
# Velocity P-wave (km/s) = 6.27808 6.66182 6.47279
#
# Compressibility (1/GPa) = 0.02137350
#
# Stress axis : x y z
#
# Youngs Moduli (GPa) = 93.77513 100.41532 74.46623
#
# Poissons Ratio (x) = 0.32313 0.36951
# Poissons Ratio (y) = 0.30176 -0.13710
# Poissons Ratio (z) = 0.46532 -0.18488
#
# Static dielectric constant tensor:
#      x y z
#    x 2.012760 0.000000 0.000000 
#    y 0.000000 1.925200 0.000000 
#    z 0.000000 0.000000 1.877240 
# 
# From -- ./inp_files/9579.got.cif
#   From: 2010.05.17/outbox.cif.g08.bks.cpg/sg60_5_cif.got.tgz:9579.got - 2010.06.03 14:59:27.
