data_PCOD9457813
_publ_section_title
;
Structure prediction by ZEFSAII (Michael W. Deem and Ramdas Pophale) SiO2 
 PCOD9457813
Probable space group: P B C N
;
_chemical_formula_sum "Si O2"
_cell_formula_units_Z 60
_cell_length_a 19.484903
_cell_length_b 25.996943
_cell_length_c 5.735985
_cell_angle_alpha 90.000000
_cell_angle_beta 90.000000
_cell_angle_gamma 90.000000
_cell_volume 2905.551229
_symmetry_space_group_name_H-M "P B C N"
_symmetry_group_IT_number 60
_symmetry_cell_setting 'orthorhombic'
loop_
_space_group_symop_operation_xyz
x,y,z
1/2-x,1/2-y,1/2+z
1/2+x,1/2-y,-z
-x,y,1/2-z
-x,-y,-z
1/2+x,1/2+y,1/2-z
1/2-x,1/2+y,z
x,-y,1/2+z
loop_
_atom_site_type_symbol
_atom_site_label
_atom_site_fract_x
_atom_site_fract_y
_atom_site_fract_z
Si Si1 0.430959 0.312676 0.603285
Si Si2 0.210984 0.185836 0.291866
Si Si3 0.596542 0.469662 0.460812
Si Si4 0.243281 0.470980 0.045338
Si Si5 0.079282 0.711755 0.309864
Si Si6 0.500000 0.387313 0.250000
Si Si7 0.170163 0.633630 0.547250
Si Si8 0.316306 0.203153 0.932136
O O1 0.500000 0.308944 0.750000
O O2 0.366559 0.330990 0.755563
O O3 0.413535 0.255994 0.504148
O O4 0.447784 0.351084 0.391957
O O5 0.256326 0.161228 0.493987
O O6 0.255371 0.173866 0.063540
O O7 0.214489 0.247644 0.303321
O O8 0.586830 0.496819 0.716852
O O9 0.676641 0.453236 0.455508
O O10 0.542993 0.423482 0.425302
O O11 0.235291 0.499678 0.296014
O O12 0.187975 0.425364 0.042839
O O13 0.114225 0.657492 0.374016
O O14 0.126875 0.729200 0.097049
O O15 0.000000 0.707602 0.250000
O O16 0.146987 0.658975 0.787272
#
# Coordination Sequence:
#
# PCOD9457813 Si02
#       8
#     8   8   8   8   8   4   8   8
#     4  12  27  39  58  93 144 190 226 283 327 402
#     4  11  22  37  60  93 135 170 231 273 332 403
#     4  10  24  46  70  92 131 181 239 302 353 403
#     4  10  25  46  72 102 134 173 233 301 361 417
#     4  11  24  42  62  95 139 177 221 258 344 427
#     4  12  28  38  62  96 130 190 240 282 340 394
#     4  11  25  39  71  95 128 182 215 291 351 418
#     4  11  21  38  64  94 128 177 221 275 330 410
#
# _framework density 20.650126
#
# number of rings (size 3 to 8) (size 9 to 14) (size 15 to 20)
#    0.000    1.067    3.333    2.000    9.333    1.067 
#    0.000    0.000    0.000    0.800    0.000    0.000 
#    0.000    0.000    0.000    0.000    0.000    0.000 
#
# Total GULP energy -334764.761816 kJ/mol
# GULP energy per Si atom -5579.412697 kJ/mol
# Density = 2.060313 g / cm^3
# Si number density = 20.650126 Si / 1000 Ang^3
#
#
#
# Elastic Constant Matrix: (Units=GPa)
#
#
# Indices 1 2 3 4 5 6 
#
# 1 88.6893 14.8972 19.3707 0.0000 0.0000 0.0000
# 2 14.8972 65.5136 13.7615 0.0000 0.0000 0.0000
# 3 19.3707 13.7615 75.8025 0.0000 0.0000 0.0000
# 4 0.0000 0.0000 0.0000 19.2948 0.0000 0.0000
# 5 0.0000 0.0000 0.0000 0.0000 21.6210 0.0000
# 6 0.0000 0.0000 0.0000 0.0000 0.0000 25.2749
#
#
#
# Elastic Compliance Matrix: (Units=1/GPa)
#
#
# Indices 1 2 3 4 5 6 
#
# 1 0.012242 -0.002211 -0.002727 0.000000 0.000000 0.000000
# 2 -0.002211 0.016268 -0.002388 0.000000 0.000000 0.000000
# 3 -0.002727 -0.002388 0.014323 0.000000 0.000000 0.000000
# 4 0.000000 0.000000 0.000000 0.051827 0.000000 0.000000
# 5 0.000000 0.000000 0.000000 0.000000 0.046251 0.000000
# 6 0.000000 0.000000 0.000000 0.000000 0.000000 0.039565
#
#
# Mechanical properties :
#
#
# Convention : Reuss Voigt Hill
#
# Bulk Modulus (GPa) = 35.48548 36.22936 35.85742
# Shear Modulus (GPa) = 24.44708 25.36988 24.90848
#
# Velocity S-wave (km/s) = 3.44447 3.50888 3.47683
# Velocity P-wave (km/s) = 5.74810 5.83085 5.78962
#
# Compressibility (1/GPa) = 0.02818054
#
# Stress axis : x y z
#
# Youngs Moduli (GPa) = 81.68395 61.46866 69.81939
#
# Poissons Ratio (x) = 0.13590 0.19040
# Poissons Ratio (y) = 0.18060 0.16676
# Poissons Ratio (z) = 0.22276 0.14681
#
# Static dielectric constant tensor:
#      x y z
#    x 1.711790 0.000000 0.000000 
#    y 0.000000 1.729340 0.000000 
#    z 0.000000 0.000000 1.949780 
# 
# From -- ./inp_files/2170.got.cif
#   From: 2010.05.17/outbox.cif.g08.bks.cpg/sg60_2_cif.got.tgz:2170.got - 2010.06.03 14:59:27.
