data_PCOD9457167
_publ_section_title
;
Structure prediction by ZEFSAII (Michael W. Deem and Ramdas Pophale) SiO2 
 PCOD9457167
Probable space group: P B C N
;
_chemical_formula_sum "Si O2"
_cell_formula_units_Z 48
_cell_length_a 12.583722
_cell_length_b 22.327152
_cell_length_c 7.970917
_cell_angle_alpha 90.000000
_cell_angle_beta 90.000000
_cell_angle_gamma 90.000000
_cell_volume 2239.498269
_symmetry_space_group_name_H-M "P B C N"
_symmetry_group_IT_number 60
_symmetry_cell_setting 'orthorhombic'
loop_
_space_group_symop_operation_xyz
x,y,z
1/2-x,1/2-y,1/2+z
1/2+x,1/2-y,-z
-x,y,1/2-z
-x,-y,-z
1/2+x,1/2+y,1/2-z
1/2-x,1/2+y,z
x,-y,1/2+z
loop_
_atom_site_type_symbol
_atom_site_label
_atom_site_fract_x
_atom_site_fract_y
_atom_site_fract_z
Si Si1 0.270092 0.177667 0.413649
Si Si2 0.439391 0.054529 0.080844
Si Si3 0.499380 0.170394 0.564160
Si Si4 0.609342 0.267230 0.326622
Si Si5 0.708423 0.564227 0.313080
Si Si6 0.421971 0.461857 0.384080
O O1 0.378627 0.158885 0.507144
O O2 0.179416 0.192756 0.548773
O O3 0.310327 0.235931 0.307352
O O4 0.229654 0.124270 0.293431
O O5 0.500000 0.075288 0.250000
O O6 0.321591 0.038242 0.133137
O O7 0.439309 0.107906 0.947567
O O8 0.500000 0.000000 0.000000
O O9 0.500000 0.196185 0.750000
O O10 0.559490 0.213457 0.436682
O O11 0.500000 0.294283 0.250000
O O12 0.649991 0.511861 0.209058
O O13 0.644826 0.577458 0.485489
O O14 0.500000 0.431334 0.250000
O O15 0.500000 0.500000 0.500000
#
# Coordination Sequence:
#
# PCOD9457167 Si02
#       6
#     8   8   8   8   8   8
#     4  11  22  43  70  98 136 181 227 282 349 408
#     4  12  22  38  61 104 141 173 221 274 345 428
#     4  11  22  41  64  98 142 177 219 285 340 403
#     4  10  22  44  68  99 134 174 229 287 339 401
#     4  11  21  41  69  96 134 181 226 275 349 417
#     4   9  21  43  65  91 132 174 220 282 333 394
#
# _framework density 21.433371000000001
#
# number of rings (size 3 to 8) (size 9 to 14) (size 15 to 20)
#    0.000    1.333    3.333    3.000    0.000    0.000 
#    3.000   15.000    0.000    0.000    0.000    0.000 
#    0.000    0.000    0.000    0.000    0.000    0.000 
#
# Total GULP energy -268155.444295 kJ/mol
# GULP energy per Si atom -5586.571756 kJ/mol
# Density = 2.138459 g / cm^3
# Si number density = 21.433371 Si / 1000 Ang^3
#
#
#
# Elastic Constant Matrix: (Units=GPa)
#
#
# Indices 1 2 3 4 5 6 
#
# 1 156.3873 35.2676 64.3410 0.0000 0.0000 0.0000
# 2 35.2676 62.0691 21.1046 0.0000 0.0000 0.0000
# 3 64.3410 21.1046 113.2004 0.0000 0.0000 0.0000
# 4 0.0000 0.0000 0.0000 36.1171 0.0000 0.0000
# 5 0.0000 0.0000 0.0000 0.0000 61.9817 0.0000
# 6 0.0000 0.0000 0.0000 0.0000 0.0000 165.4980
#
#
#
# Elastic Compliance Matrix: (Units=1/GPa)
#
#
# Indices 1 2 3 4 5 6 
#
# 1 0.009050 -0.003623 -0.004468 0.000000 0.000000 0.000000
# 2 -0.003623 0.018652 -0.001418 0.000000 0.000000 0.000000
# 3 -0.004468 -0.001418 0.011638 0.000000 0.000000 0.000000
# 4 0.000000 0.000000 0.000000 0.027688 0.000000 0.000000
# 5 0.000000 0.000000 0.000000 0.000000 0.016134 0.000000
# 6 0.000000 0.000000 0.000000 0.000000 0.000000 0.006042
#
#
# Mechanical properties :
#
#
# Convention : Reuss Voigt Hill
#
# Bulk Modulus (GPa) = 49.21042 63.67594 56.44318
# Shear Modulus (GPa) = 43.47996 66.78227 55.13112
#
# Velocity S-wave (km/s) = 4.50890 5.58800 5.07720
# Velocity P-wave (km/s) = 7.07930 8.45030 7.79500
#
# Compressibility (1/GPa) = 0.02032090
#
# Stress axis : x y z
#
# Youngs Moduli (GPa) = 110.50079 53.61424 85.92547
#
# Poissons Ratio (x) = 0.19423 0.38394
# Poissons Ratio (y) = 0.40032 0.12186
# Poissons Ratio (z) = 0.49375 0.07604
#
# Static dielectric constant tensor:
#      x y z
#    x 1.781090 0.000000 0.000000 
#    y 0.000000 1.740870 0.000000 
#    z 0.000000 0.000000 1.534730 
# 
# From -- ./inp_files/5069.got.cif
#   From: 2010.05.17/outbox.cif.g08.bks.cpg/sg60_3_cif.got.tgz:5069.got - 2010.06.03 14:59:27.
