data_PCOD9457894
_publ_section_title
;
Structure prediction by ZEFSAII (Michael W. Deem and Ramdas Pophale) SiO2 
 PCOD9457894
Probable space group: P B C N
;
_chemical_formula_sum "Si O2"
_cell_formula_units_Z 32
_cell_length_a 5.154731
_cell_length_b 9.379999
_cell_length_c 27.357766
_cell_angle_alpha 90.000000
_cell_angle_beta 90.000000
_cell_angle_gamma 90.000000
_cell_volume 1322.785511
_symmetry_space_group_name_H-M "P B C N"
_symmetry_group_IT_number 60
_symmetry_cell_setting 'orthorhombic'
loop_
_space_group_symop_operation_xyz
x,y,z
1/2-x,1/2-y,1/2+z
1/2+x,1/2-y,-z
-x,y,1/2-z
-x,-y,-z
1/2+x,1/2+y,1/2-z
1/2-x,1/2+y,z
x,-y,1/2+z
loop_
_atom_site_type_symbol
_atom_site_label
_atom_site_fract_x
_atom_site_fract_y
_atom_site_fract_z
Si Si1 0.954781 0.864161 0.304081
Si Si2 0.206352 0.114952 0.144752
Si Si3 0.440459 0.164212 0.984099
Si Si4 0.215343 0.460195 0.384856
O O1 0.219406 0.875326 0.334997
O O2 0.000000 0.810023 0.250000
O O3 0.842601 0.023836 0.305527
O O4 0.764380 0.772950 0.338243
O O5 0.466805 0.058405 0.120339
O O6 0.967910 0.062575 0.111630
O O7 0.326149 0.143364 0.929860
O O8 0.708948 0.253954 0.986979
O O9 0.500000 0.000000 0.000000
#
# Coordination Sequence:
#
# PCOD9457894 Si02
#       4
#     8   8   8   8
#     4  10  26  45  74 102 148 192 250 302 373 445
#     4  10  25  43  71 101 144 188 242 300 368 437
#     4  12  28  51  83 113 156 201 261 320 394 467
#     4  10  26  46  73 106 148 190 250 301 383 438
#
# _framework density 24.191374
#
# number of rings (size 3 to 8) (size 9 to 14) (size 15 to 20)
#    1.500    0.000    0.000    2.250   10.500    0.000 
#    0.000    0.000    0.000    0.000    0.000    0.000 
#    0.000    0.000    0.000    0.000    0.000    0.000 
#
# Total GULP energy -178736.738405 kJ/mol
# GULP energy per Si atom -5585.523075 kJ/mol
# Density = 2.413631 g / cm^3
# Si number density = 24.191374 Si / 1000 Ang^3
#
#
#
# Elastic Constant Matrix: (Units=GPa)
#
#
# Indices 1 2 3 4 5 6 
#
# 1 208.0595 56.0516 27.5160 0.0000 0.0000 0.0000
# 2 56.0516 124.2072 26.3253 0.0000 0.0000 0.0000
# 3 27.5160 26.3253 97.1992 0.0000 0.0000 0.0000
# 4 0.0000 0.0000 0.0000 9.1931 0.0000 0.0000
# 5 0.0000 0.0000 0.0000 0.0000 26.1053 0.0000
# 6 0.0000 0.0000 0.0000 0.0000 0.0000 23.4572
#
#
#
# Elastic Compliance Matrix: (Units=1/GPa)
#
#
# Indices 1 2 3 4 5 6 
#
# 1 0.005553 -0.002305 -0.000948 0.000000 0.000000 0.000000
# 2 -0.002305 0.009498 -0.001920 0.000000 0.000000 0.000000
# 3 -0.000948 -0.001920 0.011076 0.000000 0.000000 0.000000
# 4 0.000000 0.000000 0.000000 0.108778 0.000000 0.000000
# 5 0.000000 0.000000 0.000000 0.000000 0.038306 0.000000
# 6 0.000000 0.000000 0.000000 0.000000 0.000000 0.042631
#
#
# Mechanical properties :
#
#
# Convention : Reuss Voigt Hill
#
# Bulk Modulus (GPa) = 63.36269 72.13908 67.75088
# Shear Modulus (GPa) = 21.60315 33.05598 27.32956
#
# Velocity S-wave (km/s) = 2.99157 3.70054 3.36478
# Velocity P-wave (km/s) = 6.17914 6.93856 6.56983
#
# Compressibility (1/GPa) = 0.01578216
#
# Stress axis : x y z
#
# Youngs Moduli (GPa) = 180.09632 105.28385 90.28196
#
# Poissons Ratio (x) = 0.24267 0.08555
# Poissons Ratio (y) = 0.41510 0.17334
# Poissons Ratio (z) = 0.17066 0.20214
#
# Static dielectric constant tensor:
#      x y z
#    x 1.934960 0.000000 0.000000 
#    y 0.000000 1.991100 0.000000 
#    z 0.000000 0.000000 1.989250 
# 
# From -- ./inp_files/25579.got.cif
#   From: 2010.05.17/outbox.cif.g08.bks.cpg/sg60_13_cif.got.tgz:25579.got - 2010.06.03 14:59:27.
