data_PCOD9457523
_publ_section_title
;
Structure prediction by ZEFSAII (Michael W. Deem and Ramdas Pophale) SiO2 
 PCOD9457523
Probable space group: P B C N
;
_chemical_formula_sum "Si O2"
_cell_formula_units_Z 28
_cell_length_a 11.655131
_cell_length_b 8.192759
_cell_length_c 10.915364
_cell_angle_alpha 90.000000
_cell_angle_beta 90.000000
_cell_angle_gamma 90.000000
_cell_volume 1042.282778
_symmetry_space_group_name_H-M "P B C N"
_symmetry_group_IT_number 60
_symmetry_cell_setting 'orthorhombic'
loop_
_space_group_symop_operation_xyz
x,y,z
1/2-x,1/2-y,1/2+z
1/2+x,1/2-y,-z
-x,y,1/2-z
-x,-y,-z
1/2+x,1/2+y,1/2-z
1/2-x,1/2+y,z
x,-y,1/2+z
loop_
_atom_site_type_symbol
_atom_site_label
_atom_site_fract_x
_atom_site_fract_y
_atom_site_fract_z
Si Si1 0.341534 0.122492 0.296827
Si Si2 0.347088 0.942169 0.534432
Si Si3 0.623469 0.586663 0.059722
Si Si4 0.500000 0.419528 0.250000
O O1 0.206712 0.132269 0.323285
O O2 0.393232 0.298316 0.268461
O O3 0.393926 0.053653 0.423716
O O4 0.365852 0.016201 0.176141
O O5 0.384189 0.756976 0.510247
O O6 0.209777 0.961600 0.508696
O O7 0.509105 0.522250 0.125076
#
# Coordination Sequence:
#
# PCOD9457523 Si02
#       4
#     8   8   8   4
#     4  10  24  45  70 104 140 188 228 303 341 432
#     4  10  23  44  70  97 150 178 233 295 359 395
#     4  10  23  44  69 105 141 189 227 305 341 423
#     4  12  24  46  74 108 140 188 248 278 366 424
#
# _framework density 26.864114000000001
#
# number of rings (size 3 to 8) (size 9 to 14) (size 15 to 20)
#    1.714    0.000    2.857    0.000    8.000    3.429 
#    0.000    0.000    0.000    0.000    0.000    0.000 
#    0.000    0.000    0.000    0.000    0.000    0.000 
#
# Total GULP energy -156505.304622 kJ/mol
# GULP energy per Si atom -5589.475165 kJ/mol
# Density = 2.680297 g / cm^3
# Si number density = 26.864114 Si / 1000 Ang^3
#
#
#
# Elastic Constant Matrix: (Units=GPa)
#
#
# Indices 1 2 3 4 5 6 
#
# 1 75.0796 14.5289 2.2299 0.0000 0.0000 0.0000
# 2 14.5289 108.9616 36.1757 0.0000 0.0000 0.0000
# 3 2.2299 36.1757 225.9128 0.0000 0.0000 0.0000
# 4 0.0000 0.0000 0.0000 36.8867 0.0000 0.0000
# 5 0.0000 0.0000 0.0000 0.0000 42.7525 0.0000
# 6 0.0000 0.0000 0.0000 0.0000 0.0000 -25.6043
#
#
#
# Elastic Compliance Matrix: (Units=1/GPa)
#
#
# Indices 1 2 3 4 5 6 
#
# 1 0.013678 -0.001879 0.000166 0.000000 0.000000 0.000000
# 2 -0.001879 0.009951 -0.001575 0.000000 0.000000 0.000000
# 3 0.000166 -0.001575 0.004677 0.000000 0.000000 0.000000
# 4 0.000000 0.000000 0.000000 0.027110 0.000000 0.000000
# 5 0.000000 0.000000 0.000000 0.000000 0.023390 0.000000
# 6 0.000000 0.000000 0.000000 0.000000 0.000000 -0.039056
#
#
# Mechanical properties :
#
#
# Convention : Reuss Voigt Hill
#
# Bulk Modulus (GPa) = 46.01931 57.31365 51.66648
# Shear Modulus (GPa) = 93.33662 34.60830 63.97246
#
# Velocity S-wave (km/s) = 5.90080 3.59314 4.88519
# Velocity P-wave (km/s) = 7.97455 6.21251 7.14803
#
# Compressibility (1/GPa) = 0.02173001
#
# Stress axis : x y z
#
# Youngs Moduli (GPa) = 73.11084 100.49293 213.81039
#
# Poissons Ratio (x) = 0.18881 -0.03546
# Poissons Ratio (y) = 0.13737 0.33673
# Poissons Ratio (z) = -0.01213 0.15827
#
# Static dielectric constant tensor:
#      x y z
#    x 2.351650 0.000000 0.000000 
#    y 0.000000 2.048590 0.000000 
#    z 0.000000 0.000000 2.246250 
# 
# From -- ./inp_files/11472.got.cif
#   From: 2010.05.17/outbox.cif.g08.bks.cpg/sg60_6_cif.got.tgz:11472.got - 2010.06.03 14:59:27.
