data_PCOD9457997
_publ_section_title
;
Structure prediction by ZEFSAII (Michael W. Deem and Ramdas Pophale) SiO2 
 PCOD9457997
Probable space group: P B C N
;
_chemical_formula_sum "Si O2"
_cell_formula_units_Z 64
_cell_length_a 7.600656
_cell_length_b 12.145053
_cell_length_c 27.710733
_cell_angle_alpha 90.000000
_cell_angle_beta 90.000000
_cell_angle_gamma 90.000000
_cell_volume 2557.988015
_symmetry_space_group_name_H-M "P B C N"
_symmetry_group_IT_number 60
_symmetry_cell_setting 'orthorhombic'
loop_
_space_group_symop_operation_xyz
x,y,z
1/2-x,1/2-y,1/2+z
1/2+x,1/2-y,-z
-x,y,1/2-z
-x,-y,-z
1/2+x,1/2+y,1/2-z
1/2-x,1/2+y,z
x,-y,1/2+z
loop_
_atom_site_type_symbol
_atom_site_label
_atom_site_fract_x
_atom_site_fract_y
_atom_site_fract_z
Si Si1 0.516132 0.942807 0.947754
Si Si2 0.807095 0.201320 0.230782
Si Si3 0.406524 0.089436 0.350318
Si Si4 0.345571 0.711827 0.672101
Si Si5 0.117846 0.020153 0.602036
Si Si6 0.034983 0.791568 0.928719
Si Si7 0.338770 0.294207 0.031784
Si Si8 0.042693 0.348639 0.344832
O O1 0.365777 0.941086 0.906193
O O2 0.561955 0.818813 0.959855
O O3 0.684158 0.992514 0.917997
O O4 0.500000 0.000000 0.000000
O O5 0.732543 0.116375 0.191500
O O6 0.679100 0.242644 0.273350
O O7 0.840116 0.309127 0.198915
O O8 0.000000 0.166334 0.250000
O O9 0.532814 0.195409 0.351505
O O10 0.494006 0.975229 0.334610
O O11 0.399418 0.589655 0.652322
O O12 0.143469 0.713696 0.655202
O O13 0.066397 0.109674 0.561629
O O14 0.018990 0.904251 0.598638
O O15 0.124051 0.700502 0.893938
O O16 0.857222 0.732788 0.949214
O O17 0.149270 0.819700 0.975523
#
# Coordination Sequence:
#
# PCOD9457997 Si02
#       8
#     8   8   8   8   8   8   8   8
#     4  11  22  38  70 109 152 202 249 310 389 477
#     4  10  27  48  70 109 146 195 265 333 389 471
#     4  12  23  48  79 108 152 206 255 322 403 478
#     4  11  22  45  76 106 142 189 256 308 402 471
#     4  11  21  42  68 106 147 196 242 314 386 461
#     4  11  24  41  69 101 151 197 244 316 375 455
#     4  11  21  40  64 103 144 197 254 292 375 456
#     4  11  24  48  70 108 148 192 248 326 391 461
#
# _framework density 25.019662
#
# number of rings (size 3 to 8) (size 9 to 14) (size 15 to 20)
#    0.000    1.000    3.750    3.000    0.000    5.000 
#    4.500    0.000    0.000    0.000    0.000    0.000 
#    0.000    0.000    0.000    0.000    0.000    0.000 
#
# Total GULP energy -357290.327641 kJ/mol
# GULP energy per Si atom -5582.661369 kJ/mol
# Density = 2.496272 g / cm^3
# Si number density = 25.019662 Si / 1000 Ang^3
#
#
#
# Elastic Constant Matrix: (Units=GPa)
#
#
# Indices 1 2 3 4 5 6 
#
# 1 63.4981 44.7212 56.0120 0.0000 0.0000 0.0000
# 2 44.7212 180.0933 50.6657 0.0000 0.0000 0.0000
# 3 56.0120 50.6657 172.6434 0.0000 0.0000 0.0000
# 4 0.0000 0.0000 0.0000 15.1729 0.0000 0.0000
# 5 0.0000 0.0000 0.0000 0.0000 35.4981 0.0000
# 6 0.0000 0.0000 0.0000 0.0000 0.0000 25.0785
#
#
#
# Elastic Compliance Matrix: (Units=1/GPa)
#
#
# Indices 1 2 3 4 5 6 
#
# 1 0.024701 -0.004228 -0.006773 0.000000 0.000000 0.000000
# 2 -0.004228 0.006776 -0.000617 0.000000 0.000000 0.000000
# 3 -0.006773 -0.000617 0.008171 0.000000 0.000000 0.000000
# 4 0.000000 0.000000 0.000000 0.065907 0.000000 0.000000
# 5 0.000000 0.000000 0.000000 0.000000 0.028171 0.000000
# 6 0.000000 0.000000 0.000000 0.000000 0.000000 0.039875
#
#
# Mechanical properties :
#
#
# Convention : Reuss Voigt Hill
#
# Bulk Modulus (GPa) = 60.93255 79.89251 70.41253
# Shear Modulus (GPa) = 24.71494 32.80565 28.76029
#
# Velocity S-wave (km/s) = 3.14637 3.62497 3.39412
# Velocity P-wave (km/s) = 6.13240 7.03717 6.60030
#
# Compressibility (1/GPa) = 0.01641159
#
# Stress axis : x y z
#
# Youngs Moduli (GPa) = 40.48419 147.57559 122.38834
#
# Poissons Ratio (x) = 0.62400 0.82894
# Poissons Ratio (y) = 0.17118 0.07549
# Poissons Ratio (z) = 0.27420 0.09102
#
# Static dielectric constant tensor:
#      x y z
#    x 2.081370 0.000000 0.000000 
#    y 0.000000 1.979800 0.000000 
#    z 0.000000 0.000000 2.059260 
# 
# From -- ./inp_files/25999.got.cif
#   From: 2010.05.17/outbox.cif.g08.bks.cpg/sg60_13_cif.got.tgz:25999.got - 2010.06.03 14:59:27.
