data_PCOD9457468
_publ_section_title
;
Structure prediction by ZEFSAII (Michael W. Deem and Ramdas Pophale) SiO2 
 PCOD9457468
Probable space group: P B C N
;
_chemical_formula_sum "Si O2"
_cell_formula_units_Z 40
_cell_length_a 5.007099
_cell_length_b 29.179589
_cell_length_c 12.981381
_cell_angle_alpha 90.000000
_cell_angle_beta 90.000000
_cell_angle_gamma 90.000000
_cell_volume 1896.645851
_symmetry_space_group_name_H-M "P B C N"
_symmetry_group_IT_number 60
_symmetry_cell_setting 'orthorhombic'
loop_
_space_group_symop_operation_xyz
x,y,z
1/2-x,1/2-y,1/2+z
1/2+x,1/2-y,-z
-x,y,1/2-z
-x,-y,-z
1/2+x,1/2+y,1/2-z
1/2-x,1/2+y,z
x,-y,1/2+z
loop_
_atom_site_type_symbol
_atom_site_label
_atom_site_fract_x
_atom_site_fract_y
_atom_site_fract_z
Si Si1 0.500000 0.327938 0.250000
Si Si2 0.000000 0.260250 0.250000
Si Si3 0.370722 0.370503 0.461240
Si Si4 0.630856 0.955585 0.951606
Si Si5 0.379178 0.579970 0.358770
Si Si6 0.212909 0.225069 0.040529
O O1 0.246906 0.294832 0.263547
O O2 0.504314 0.358998 0.352682
O O3 0.081656 0.229453 0.152758
O O4 0.185121 0.415598 0.464043
O O5 0.578656 0.381931 0.552875
O O6 0.219551 0.325518 0.501763
O O7 0.422819 0.936023 0.867789
O O8 0.918974 0.960551 0.897405
O O9 0.500000 0.000000 0.000000
O O10 0.500000 0.595090 0.250000
O O11 0.479600 0.255048 0.032850
#
# Coordination Sequence:
#
# PCOD9457468 Si02
#       6
#     4   4   8   8   8   8
#     4  12  24  44  64  98 135 189 220 300 336 426
#     4  12  24  42  64  92 143 175 240 278 354 404
#     4  10  26  40  71  96 141 173 242 276 360 410
#     4  10  23  44  69 100 137 176 228 293 350 422
#     4  10  23  43  68  99 136 179 224 287 352 416
#     4  12  24  41  63  98 132 183 222 281 341 411
#
# _framework density 21.089860000000002
#
# number of rings (size 3 to 8) (size 9 to 14) (size 15 to 20)
#    1.200    0.000    4.000    1.200    7.000    0.000 
#    1.800    4.000    0.000    0.000    0.000    0.000 
#    0.000    0.000    0.000    0.000    0.000    0.000 
#
# Total GULP energy -223033.954316 kJ/mol
# GULP energy per Si atom -5575.848858 kJ/mol
# Density = 2.104186 g / cm^3
# Si number density = 21.089860 Si / 1000 Ang^3
#
#
#
# Elastic Constant Matrix: (Units=GPa)
#
#
# Indices 1 2 3 4 5 6 
#
# 1 86.9988 12.6435 -1.9657 0.0000 0.0000 0.0000
# 2 12.6435 103.7895 39.6926 0.0000 0.0000 0.0000
# 3 -1.9657 39.6926 142.2663 0.0000 0.0000 0.0000
# 4 0.0000 0.0000 0.0000 17.1690 0.0000 0.0000
# 5 0.0000 0.0000 0.0000 0.0000 26.0282 0.0000
# 6 0.0000 0.0000 0.0000 0.0000 0.0000 29.7818
#
#
#
# Elastic Compliance Matrix: (Units=1/GPa)
#
#
# Indices 1 2 3 4 5 6 
#
# 1 0.011752 -0.001672 0.000629 0.000000 0.000000 0.000000
# 2 -0.001672 0.011024 -0.003099 0.000000 0.000000 0.000000
# 3 0.000629 -0.003099 0.007902 0.000000 0.000000 0.000000
# 4 0.000000 0.000000 0.000000 0.058245 0.000000 0.000000
# 5 0.000000 0.000000 0.000000 0.000000 0.038420 0.000000
# 6 0.000000 0.000000 0.000000 0.000000 0.000000 0.033578
#
#
# Mechanical properties :
#
#
# Convention : Reuss Voigt Hill
#
# Bulk Modulus (GPa) = 44.65532 48.19950 46.42741
# Shear Modulus (GPa) = 28.30165 33.44140 30.87152
#
# Velocity S-wave (km/s) = 3.66725 3.98636 3.83013
# Velocity P-wave (km/s) = 6.25711 6.64018 6.45149
#
# Compressibility (1/GPa) = 0.02239375
#
# Stress axis : x y z
#
# Youngs Moduli (GPa) = 85.09457 90.71421 126.54520
#
# Poissons Ratio (x) = 0.15168 -0.07958
# Poissons Ratio (y) = 0.14229 0.39213
# Poissons Ratio (z) = -0.05352 0.28110
#
# Static dielectric constant tensor:
#      x y z
#    x 1.772080 0.000000 0.000000 
#    y 0.000000 1.773710 0.000000 
#    z 0.000000 0.000000 1.801570 
# 
# From -- ./inp_files/9205.got.cif
#   From: 2010.05.17/outbox.cif.g08.bks.cpg/sg60_5_cif.got.tgz:9205.got - 2010.06.03 14:59:27.
