data_PCOD9457410
_publ_section_title
;
Structure prediction by ZEFSAII (Michael W. Deem and Ramdas Pophale) SiO2 
 PCOD9457410
Probable space group: P B C N
;
_chemical_formula_sum "Si O2"
_cell_formula_units_Z 32
_cell_length_a 18.271057
_cell_length_b 8.071253
_cell_length_c 8.524364
_cell_angle_alpha 90.000000
_cell_angle_beta 90.000000
_cell_angle_gamma 90.000000
_cell_volume 1257.090718
_symmetry_space_group_name_H-M "P B C N"
_symmetry_group_IT_number 60
_symmetry_cell_setting 'orthorhombic'
loop_
_space_group_symop_operation_xyz
x,y,z
1/2-x,1/2-y,1/2+z
1/2+x,1/2-y,-z
-x,y,1/2-z
-x,-y,-z
1/2+x,1/2+y,1/2-z
1/2-x,1/2+y,z
x,-y,1/2+z
loop_
_atom_site_type_symbol
_atom_site_label
_atom_site_fract_x
_atom_site_fract_y
_atom_site_fract_z
Si Si1 0.811290 0.452486 0.654617
Si Si2 0.121571 0.166528 0.666664
Si Si3 0.042298 0.354636 0.406946
Si Si4 0.669420 0.370715 0.031334
O O1 0.880918 0.569709 0.652041
O O2 0.815042 0.322459 0.507404
O O3 0.738132 0.554109 0.627411
O O4 0.822969 0.324998 0.801893
O O5 0.063733 0.222946 0.538981
O O6 0.100993 0.134840 0.847121
O O7 0.153697 0.994876 0.605421
O O8 0.000000 0.299815 0.250000
O O9 0.000000 0.500000 0.500000
#
# Coordination Sequence:
#
# PCOD9457410 Si02
#       4
#     8   8   8   8
#     4  10  24  40  69 101 135 173 227 275 348 398
#     4  10  25  43  67 103 133 179 221 284 337 403
#     4  12  24  47  70  95 137 186 234 272 332 420
#     4  10  23  42  69 103 140 163 226 284 354 395
#
# _framework density 25.4556
#
# number of rings (size 3 to 8) (size 9 to 14) (size 15 to 20)
#    1.500    0.000    2.500    1.500    7.000    2.000 
#    0.000    6.250    0.000    0.000    0.000    0.000 
#    0.000    0.000    0.000    0.000    0.000    0.000 
#
# Total GULP energy -178617.660636 kJ/mol
# GULP energy per Si atom -5581.801895 kJ/mol
# Density = 2.539766 g / cm^3
# Si number density = 25.455600 Si / 1000 Ang^3
#
#
#
# Elastic Constant Matrix: (Units=GPa)
#
#
# Indices 1 2 3 4 5 6 
#
# 1 44.3628 29.3038 4.2092 0.0000 0.0000 0.0000
# 2 29.3038 73.1410 -2.9734 0.0000 0.0000 0.0000
# 3 4.2092 -2.9734 49.4536 0.0000 0.0000 0.0000
# 4 0.0000 0.0000 0.0000 49.1831 0.0000 0.0000
# 5 0.0000 0.0000 0.0000 0.0000 41.8421 0.0000
# 6 0.0000 0.0000 0.0000 0.0000 0.0000 30.7529
#
#
#
# Elastic Compliance Matrix: (Units=1/GPa)
#
#
# Indices 1 2 3 4 5 6 
#
# 1 0.031220 -0.012647 -0.003418 0.000000 0.000000 0.000000
# 2 -0.012647 0.018829 0.002209 0.000000 0.000000 0.000000
# 3 -0.003418 0.002209 0.020645 0.000000 0.000000 0.000000
# 4 0.000000 0.000000 0.000000 0.020332 0.000000 0.000000
# 5 0.000000 0.000000 0.000000 0.000000 0.023899 0.000000
# 6 0.000000 0.000000 0.000000 0.000000 0.000000 0.032517
#
#
# Mechanical properties :
#
#
# Convention : Reuss Voigt Hill
#
# Bulk Modulus (GPa) = 23.26606 25.33740 24.30173
# Shear Modulus (GPa) = 26.38783 33.45014 29.91899
#
# Velocity S-wave (km/s) = 3.22315 3.62893 3.43204
# Velocity P-wave (km/s) = 4.79701 5.24728 5.02719
#
# Compressibility (1/GPa) = 0.04298106
#
# Stress axis : x y z
#
# Youngs Moduli (GPa) = 32.03116 53.10957 48.43875
#
# Poissons Ratio (x) = 0.67168 0.16554
# Poissons Ratio (y) = 0.40510 -0.10698
# Poissons Ratio (z) = 0.10947 -0.11729
#
# Static dielectric constant tensor:
#      x y z
#    x 2.033020 0.000000 0.000000 
#    y 0.000000 2.025820 0.000000 
#    z 0.000000 0.000000 2.114340 
# 
# From -- ./inp_files/7691.got.cif
#   From: 2010.05.17/outbox.cif.g08.bks.cpg/sg60_4_cif.got.tgz:7691.got - 2010.06.03 14:59:27.
