data_PCOD9457344
_publ_section_title
;
Structure prediction by ZEFSAII (Michael W. Deem and Ramdas Pophale) SiO2 
 PCOD9457344
Probable space group: P B C N
;
_chemical_formula_sum "Si O2"
_cell_formula_units_Z 60
_cell_length_a 11.797755
_cell_length_b 27.895972
_cell_length_c 8.347188
_cell_angle_alpha 90.000000
_cell_angle_beta 90.000000
_cell_angle_gamma 90.000000
_cell_volume 2747.141733
_symmetry_space_group_name_H-M "P B C N"
_symmetry_group_IT_number 60
_symmetry_cell_setting 'orthorhombic'
loop_
_space_group_symop_operation_xyz
x,y,z
1/2-x,1/2-y,1/2+z
1/2+x,1/2-y,-z
-x,y,1/2-z
-x,-y,-z
1/2+x,1/2+y,1/2-z
1/2-x,1/2+y,z
x,-y,1/2+z
loop_
_atom_site_type_symbol
_atom_site_label
_atom_site_fract_x
_atom_site_fract_y
_atom_site_fract_z
Si Si1 0.836019 0.217101 0.204472
Si Si2 0.915494 0.971404 0.609107
Si Si3 0.376754 0.731908 0.672084
Si Si4 0.710682 0.146481 0.801322
Si Si5 0.615055 0.951033 0.839216
Si Si6 0.704133 0.958484 0.179592
Si Si7 0.224636 0.116112 0.367691
Si Si8 0.500000 0.209207 0.750000
O O1 0.707456 0.228998 0.251913
O O2 0.845437 0.159984 0.207487
O O3 0.913747 0.249473 0.322006
O O4 0.867833 0.234400 0.022874
O O5 0.815334 0.009641 0.642507
O O6 0.000000 0.956098 0.750000
O O7 0.856516 0.923056 0.548940
O O8 0.000000 0.000000 0.500000
O O9 0.500000 0.736030 0.750000
O O10 0.317692 0.681431 0.717022
O O11 0.733317 0.094031 0.736880
O O12 0.601995 0.171152 0.717149
O O13 0.696069 0.139312 0.994169
O O14 0.500000 0.938326 0.750000
O O15 0.708501 0.915287 0.762978
O O16 0.641096 0.006749 0.802302
O O17 0.622957 0.949488 0.028442
#
# Coordination Sequence:
#
# PCOD9457344 Si02
#       8
#     8   8   8   8   8   8   8   4
#     4  10  24  44  67  96 135 173 231 290 340 422
#     4  11  22  39  63  90 129 170 209 263 327 387
#     4  10  24  43  68  96 131 175 227 282 350 404
#     4  10  23  42  65  94 132 176 224 277 339 407
#     4  11  24  40  64  96 130 176 216 269 342 395
#     4  11  23  41  62  96 136 166 225 274 321 417
#     4  10  23  41  61  97 127 166 223 272 330 405
#     4  10  24  42  70  94 130 182 230 280 360 394
#
# _framework density 21.840883000000002
#
# number of rings (size 3 to 8) (size 9 to 14) (size 15 to 20)
#    0.000    1.600    0.000    4.400    9.333    5.333 
#    0.000    0.000    0.000    0.000    0.000    0.000 
#    0.000    0.000    0.000    0.000    0.000    0.000 
#
# Total GULP energy -334198.932764 kJ/mol
# GULP energy per Si atom -5569.982213 kJ/mol
# Density = 2.179117 g / cm^3
# Si number density = 21.840883 Si / 1000 Ang^3
#
#
#
# Elastic Constant Matrix: (Units=GPa)
#
#
# Indices 1 2 3 4 5 6 
#
# 1 114.5551 33.1378 9.3028 0.0000 0.0000 0.0000
# 2 33.1378 164.0180 16.2924 0.0000 0.0000 0.0000
# 3 9.3028 16.2924 41.2614 0.0000 0.0000 0.0000
# 4 0.0000 0.0000 0.0000 23.8697 0.0000 0.0000
# 5 0.0000 0.0000 0.0000 0.0000 30.0022 0.0000
# 6 0.0000 0.0000 0.0000 0.0000 0.0000 25.6671
#
#
#
# Elastic Compliance Matrix: (Units=1/GPa)
#
#
# Indices 1 2 3 4 5 6 
#
# 1 0.009350 -0.001748 -0.001418 0.000000 0.000000 0.000000
# 2 -0.001748 0.006673 -0.002241 0.000000 0.000000 0.000000
# 3 -0.001418 -0.002241 0.025440 0.000000 0.000000 0.000000
# 4 0.000000 0.000000 0.000000 0.041894 0.000000 0.000000
# 5 0.000000 0.000000 0.000000 0.000000 0.033331 0.000000
# 6 0.000000 0.000000 0.000000 0.000000 0.000000 0.038960
#
#
# Mechanical properties :
#
#
# Convention : Reuss Voigt Hill
#
# Bulk Modulus (GPa) = 32.62671 48.58894 40.60783
# Shear Modulus (GPa) = 28.30001 33.31456 30.80728
#
# Velocity S-wave (km/s) = 3.60354 3.90978 3.75978
# Velocity P-wave (km/s) = 5.68197 6.53276 6.12216
#
# Compressibility (1/GPa) = 0.03064974
#
# Stress axis : x y z
#
# Youngs Moduli (GPa) = 106.94851 149.86494 39.30801
#
# Poissons Ratio (x) = 0.26201 0.05573
# Poissons Ratio (y) = 0.18698 0.08807
# Poissons Ratio (z) = 0.15163 0.33579
#
# Static dielectric constant tensor:
#      x y z
#    x 1.830820 0.000000 0.000000 
#    y 0.000000 1.713530 0.000000 
#    z 0.000000 0.000000 1.896090 
# 
# From -- ./inp_files/5247.got.cif
#   From: 2010.05.17/outbox.cif.g08.bks.cpg/sg60_3_cif.got.tgz:5247.got - 2010.06.03 14:59:27.
