data_PCOD9457838
_publ_section_title
;
Structure prediction by ZEFSAII (Michael W. Deem and Ramdas Pophale) SiO2 
 PCOD9457838
Probable space group: P B C N
;
_chemical_formula_sum "Si O2"
_cell_formula_units_Z 36
_cell_length_a 16.682544
_cell_length_b 9.952139
_cell_length_c 8.807578
_cell_angle_alpha 90.000000
_cell_angle_beta 90.000000
_cell_angle_gamma 90.000000
_cell_volume 1462.295724
_symmetry_space_group_name_H-M "P B C N"
_symmetry_group_IT_number 60
_symmetry_cell_setting 'orthorhombic'
loop_
_space_group_symop_operation_xyz
x,y,z
1/2-x,1/2-y,1/2+z
1/2+x,1/2-y,-z
-x,y,1/2-z
-x,-y,-z
1/2+x,1/2+y,1/2-z
1/2-x,1/2+y,z
x,-y,1/2+z
loop_
_atom_site_type_symbol
_atom_site_label
_atom_site_fract_x
_atom_site_fract_y
_atom_site_fract_z
Si Si1 0.973066 0.307709 0.400624
Si Si2 0.000000 0.428530 0.750000
Si Si3 0.418361 0.413000 0.989237
Si Si4 0.838092 0.696278 0.305590
Si Si5 0.184492 0.835201 0.497022
O O1 0.047767 0.204831 0.384119
O O2 0.000000 0.400092 0.250000
O O3 0.981365 0.369314 0.569370
O O4 0.887173 0.236148 0.407629
O O5 0.901062 0.421802 0.789519
O O6 0.386744 0.328860 0.133752
O O7 0.350211 0.519226 0.948775
O O8 0.500000 0.500000 0.000000
O O9 0.766508 0.655432 0.414257
O O10 0.801673 0.742240 0.147238
#
# Coordination Sequence:
#
# PCOD9457838 Si02
#       5
#     8   4   8   8   8
#     4   9  23  45  74 109 145 200 246 314 383 455
#     4  10  24  48  82 108 156 200 258 318 390 468
#     4  10  24  46  76 104 149 198 257 310 383 461
#     4  12  28  48  75 117 152 204 259 323 397 454
#     4  11  28  47  74 111 156 201 259 324 380 468
#
# _framework density 24.618822999999999
#
# number of rings (size 3 to 8) (size 9 to 14) (size 15 to 20)
#    0.667    0.889    0.000    2.667   12.444    3.556 
#    0.000    0.000    0.000    0.000    0.000    0.000 
#    0.000    0.000    0.000    0.000    0.000    0.000 
#
# Total GULP energy -200595.466128 kJ/mol
# GULP energy per Si atom -5572.096281 kJ/mol
# Density = 2.456279 g / cm^3
# Si number density = 24.618823 Si / 1000 Ang^3
#
#
#
# Elastic Constant Matrix: (Units=GPa)
#
#
# Indices 1 2 3 4 5 6 
#
# 1 199.6866 79.0996 83.1253 0.0000 0.0000 0.0000
# 2 79.0996 138.5726 22.1403 0.0000 0.0000 0.0000
# 3 83.1253 22.1403 72.2432 0.0000 0.0000 0.0000
# 4 0.0000 0.0000 0.0000 24.3657 0.0000 0.0000
# 5 0.0000 0.0000 0.0000 0.0000 54.4624 0.0000
# 6 0.0000 0.0000 0.0000 0.0000 0.0000 20.2716
#
#
#
# Elastic Compliance Matrix: (Units=1/GPa)
#
#
# Indices 1 2 3 4 5 6 
#
# 1 0.012162 -0.004949 -0.012478 0.000000 0.000000 0.000000
# 2 -0.004949 0.009602 0.002752 0.000000 0.000000 0.000000
# 3 -0.012478 0.002752 0.027356 0.000000 0.000000 0.000000
# 4 0.000000 0.000000 0.000000 0.041041 0.000000 0.000000
# 5 0.000000 0.000000 0.000000 0.000000 0.018361 0.000000
# 6 0.000000 0.000000 0.000000 0.000000 0.000000 0.049330
#
#
# Mechanical properties :
#
#
# Convention : Reuss Voigt Hill
#
# Bulk Modulus (GPa) = 50.58073 86.58141 68.58107
# Shear Modulus (GPa) = 25.80074 34.89578 30.34826
#
# Velocity S-wave (km/s) = 3.24081 3.76898 3.51483
# Velocity P-wave (km/s) = 5.88166 7.36107 6.66256
#
# Compressibility (1/GPa) = 0.01977038
#
# Stress axis : x y z
#
# Youngs Moduli (GPa) = 82.22026 104.14828 36.55481
#
# Poissons Ratio (x) = 0.51542 0.45612
# Poissons Ratio (y) = 0.40690 -0.10059
# Poissons Ratio (z) = 1.02593 -0.28659
#
# Static dielectric constant tensor:
#      x y z
#    x 1.872600 0.000000 0.000000 
#    y 0.000000 2.056810 0.000000 
#    z 0.000000 0.000000 2.120420 
# 
# From -- ./inp_files/5596.got.cif
#   From: 2010.05.17/outbox.cif.g08.bks.cpg/sg60_3_cif.got.tgz:5596.got - 2010.06.03 14:59:27.
