data_PCOD9457661
_publ_section_title
;
Structure prediction by ZEFSAII (Michael W. Deem and Ramdas Pophale) SiO2 
 PCOD9457661
Probable space group: P B C N
;
_chemical_formula_sum "Si O2"
_cell_formula_units_Z 24
_cell_length_a 8.515947
_cell_length_b 26.555246
_cell_length_c 4.760116
_cell_angle_alpha 90.000000
_cell_angle_beta 90.000000
_cell_angle_gamma 90.000000
_cell_volume 1076.467234
_symmetry_space_group_name_H-M "P B C N"
_symmetry_group_IT_number 60
_symmetry_cell_setting 'orthorhombic'
loop_
_space_group_symop_operation_xyz
x,y,z
1/2-x,1/2-y,1/2+z
1/2+x,1/2-y,-z
-x,y,1/2-z
-x,-y,-z
1/2+x,1/2+y,1/2-z
1/2-x,1/2+y,z
x,-y,1/2+z
loop_
_atom_site_type_symbol
_atom_site_label
_atom_site_fract_x
_atom_site_fract_y
_atom_site_fract_z
Si Si1 0.000000 0.887112 0.750000
Si Si2 0.668527 0.226586 0.613982
Si Si3 0.000000 0.461048 0.250000
Si Si4 0.777008 0.116519 0.737820
O O1 0.876169 0.865811 0.514793
O O2 0.118082 0.908360 0.512486
O O3 0.697891 0.247619 0.305722
O O4 0.500000 0.238496 0.750000
O O5 0.698590 0.167010 0.617900
O O6 0.146511 0.424228 0.195796
O O7 0.000000 0.500000 0.500000
#
# Coordination Sequence:
#
# PCOD9457661 Si02
#       4
#     4   8   4   8
#     4  10  24  40  75  92 136 182 213 278 354 400
#     4  12  27  42  67 101 141 183 231 277 342 413
#     4  12  26  48  77 102 134 184 237 286 344 406
#     4  11  24  48  66 104 139 182 228 287 339 411
#
# _framework density 22.295151000000001
#
# number of rings (size 3 to 8) (size 9 to 14) (size 15 to 20)
#    0.000    0.667    1.667    5.000   14.000    0.000 
#    0.000   16.667    0.000    0.000    0.000    0.000 
#    0.000    0.000    0.000    0.000    0.000    0.000 
#
# Total GULP energy -133688.487338 kJ/mol
# GULP energy per Si atom -5570.353639 kJ/mol
# Density = 2.224441 g / cm^3
# Si number density = 22.295151 Si / 1000 Ang^3
#
#
#
# Elastic Constant Matrix: (Units=GPa)
#
#
# Indices 1 2 3 4 5 6 
#
# 1 84.6009 14.5703 10.0491 0.0000 0.0000 0.0000
# 2 14.5703 124.6497 12.7583 0.0000 0.0000 0.0000
# 3 10.0491 12.7583 137.9827 0.0000 0.0000 0.0000
# 4 0.0000 0.0000 0.0000 5.8607 0.0000 0.0000
# 5 0.0000 0.0000 0.0000 0.0000 35.4649 0.0000
# 6 0.0000 0.0000 0.0000 0.0000 0.0000 -35.5219
#
#
#
# Elastic Compliance Matrix: (Units=1/GPa)
#
#
# Indices 1 2 3 4 5 6 
#
# 1 0.012142 -0.001341 -0.000760 0.000000 0.000000 0.000000
# 2 -0.001341 0.008247 -0.000665 0.000000 0.000000 0.000000
# 3 -0.000760 -0.000665 0.007364 0.000000 0.000000 0.000000
# 4 0.000000 0.000000 0.000000 0.170627 0.000000 0.000000
# 5 0.000000 0.000000 0.000000 0.000000 0.028197 0.000000
# 6 0.000000 0.000000 0.000000 0.000000 0.000000 -0.028152
#
#
# Mechanical properties :
#
#
# Convention : Reuss Voigt Hill
#
# Bulk Modulus (GPa) = 45.00457 46.88763 45.94610
# Shear Modulus (GPa) = 23.65575 21.81780 22.73678
#
# Velocity S-wave (km/s) = 3.26087 3.13164 3.19691
# Velocity P-wave (km/s) = 5.86578 5.84399 5.85490
#
# Compressibility (1/GPa) = 0.02221996
#
# Stress axis : x y z
#
# Youngs Moduli (GPa) = 82.36198 121.25135 135.79337
#
# Poissons Ratio (x) = 0.16265 0.10323
# Poissons Ratio (y) = 0.11048 0.09029
# Poissons Ratio (z) = 0.06261 0.08062
#
# Static dielectric constant tensor:
#      x y z
#    x 1.860220 0.000000 0.000000 
#    y 0.000000 1.731920 0.000000 
#    z 0.000000 0.000000 1.780590 
# 
# From -- ./inp_files/245.got.cif
#   From: 2010.05.17/outbox.cif.g08.bks.cpg/sg60_1_cif.got.tgz:245.got - 2010.06.03 14:59:27.
