data_PCOD9457517
_publ_section_title
;
Structure prediction by ZEFSAII (Michael W. Deem and Ramdas Pophale) SiO2 
 PCOD9457517
Probable space group: P B C N
;
_chemical_formula_sum "Si O2"
_cell_formula_units_Z 36
_cell_length_a 7.725890
_cell_length_b 14.912769
_cell_length_c 14.104502
_cell_angle_alpha 90.000000
_cell_angle_beta 90.000000
_cell_angle_gamma 90.000000
_cell_volume 1625.041917
_symmetry_space_group_name_H-M "P B C N"
_symmetry_group_IT_number 60
_symmetry_cell_setting 'orthorhombic'
loop_
_space_group_symop_operation_xyz
x,y,z
1/2-x,1/2-y,1/2+z
1/2+x,1/2-y,-z
-x,y,1/2-z
-x,-y,-z
1/2+x,1/2+y,1/2-z
1/2-x,1/2+y,z
x,-y,1/2+z
loop_
_atom_site_type_symbol
_atom_site_label
_atom_site_fract_x
_atom_site_fract_y
_atom_site_fract_z
Si Si1 0.158739 0.996745 0.177010
Si Si2 0.320963 0.174151 0.201065
Si Si3 0.157195 0.264955 0.380087
Si Si4 0.000000 0.401622 0.250000
Si Si5 0.964413 0.170421 0.933693
O O1 0.323231 0.954838 0.232399
O O2 0.098933 0.928176 0.095555
O O3 0.000000 0.004693 0.250000
O O4 0.226459 0.094241 0.146195
O O5 0.500000 0.142378 0.250000
O O6 0.204619 0.206908 0.287992
O O7 0.370294 0.258710 0.136882
O O8 0.026724 0.340192 0.342918
O O9 0.332894 0.313575 0.414275
O O10 0.085456 0.202105 0.462001
#
# Coordination Sequence:
#
# PCOD9457517 Si02
#       5
#     8   8   8   4   8
#     4  12  23  42  68 100 135 177 230 275 341 407
#     4  10  23  44  68  99 139 180 227 283 341 405
#     4  11  24  44  73  98 140 182 225 284 344 402
#     4  12  22  44  70  94 134 182 216 280 346 386
#     4  11  23  46  66 105 137 177 235 280 334 415
#
# _framework density 22.153275000000001
#
# number of rings (size 3 to 8) (size 9 to 14) (size 15 to 20)
#    0.000    0.889    5.556    2.000    1.556    0.000 
#    4.000    5.556    0.000    0.000    0.000    0.000 
#    0.000    0.000    0.000    0.000    0.000    0.000 
#
# Total GULP energy -201580.815895 kJ/mol
# GULP energy per Si atom -5599.467108 kJ/mol
# Density = 2.210285 g / cm^3
# Si number density = 22.153275 Si / 1000 Ang^3
#
#
#
# Elastic Constant Matrix: (Units=GPa)
#
#
# Indices 1 2 3 4 5 6 
#
# 1 137.5673 39.0919 16.6603 0.0000 0.0000 0.0000
# 2 39.0919 83.4577 15.0418 0.0000 0.0000 0.0000
# 3 16.6603 15.0418 74.9964 0.0000 0.0000 0.0000
# 4 0.0000 0.0000 0.0000 0.0011 0.0000 0.0000
# 5 0.0000 0.0000 0.0000 0.0000 35.0851 0.0000
# 6 0.0000 0.0000 0.0000 0.0000 0.0000 22.3384
#
#
#
# Elastic Compliance Matrix: (Units=1/GPa)
#
#
# Indices 1 2 3 4 5 6 
#
# 1 0.008476 -0.003767 -0.001127 0.000000 0.000000 0.000000
# 2 -0.003767 0.014106 -0.001992 0.000000 0.000000 0.000000
# 3 -0.001127 -0.001992 0.013984 0.000000 0.000000 0.000000
# 4 0.000000 0.000000 0.000000911.177936 0.000000 0.000000
# 5 0.000000 0.000000 0.000000 0.000000 0.028502 0.000000
# 6 0.000000 0.000000 0.000000 0.000000 0.000000 0.044766
#
#
# Mechanical properties :
#
#
# Convention : Reuss Voigt Hill
#
# Bulk Modulus (GPa) = 43.87437 48.62325 46.24881
# Shear Modulus (GPa) = 0.00549 26.50010 13.25279
#
# Velocity S-wave (km/s) = 0.04982 3.46239 2.44853
# Velocity P-wave (km/s) = 4.45547 6.16282 5.37734
#
# Compressibility (1/GPa) = 0.02279235
#
# Stress axis : x y z
#
# Youngs Moduli (GPa) = 117.97772 70.89328 71.51021
#
# Poissons Ratio (x) = 0.26706 0.08062
# Poissons Ratio (y) = 0.44443 0.14247
# Poissons Ratio (z) = 0.13301 0.14124
#
# Static dielectric constant tensor:
#      x y z
#    x 1.815900 0.000000 0.000000 
#    y 0.000000 1.834850 0.000000 
#    z 0.000000 0.000000 1.784580 
# 
# From -- ./inp_files/14558.got.cif
#   From: 2010.05.17/outbox.cif.g08.bks.cpg/sg60_8_cif.got.tgz:14558.got - 2010.06.03 14:59:27.
