data_PCOD9457816
_publ_section_title
;
Structure prediction by ZEFSAII (Michael W. Deem and Ramdas Pophale) SiO2 
 PCOD9457816
Probable space group: P B C N
;
_chemical_formula_sum "Si O2"
_cell_formula_units_Z 48
_cell_length_a 8.705945
_cell_length_b 22.023459
_cell_length_c 11.693851
_cell_angle_alpha 90.000000
_cell_angle_beta 90.000000
_cell_angle_gamma 90.000000
_cell_volume 2242.120788
_symmetry_space_group_name_H-M "P B C N"
_symmetry_group_IT_number 60
_symmetry_cell_setting 'orthorhombic'
loop_
_space_group_symop_operation_xyz
x,y,z
1/2-x,1/2-y,1/2+z
1/2+x,1/2-y,-z
-x,y,1/2-z
-x,-y,-z
1/2+x,1/2+y,1/2-z
1/2-x,1/2+y,z
x,-y,1/2+z
loop_
_atom_site_type_symbol
_atom_site_label
_atom_site_fract_x
_atom_site_fract_y
_atom_site_fract_z
Si Si1 0.112939 0.281055 0.654016
Si Si2 0.173552 0.548598 0.204058
Si Si3 0.105715 0.843730 0.049402
Si Si4 0.332026 0.669190 0.300483
Si Si5 0.767023 0.880968 0.004978
Si Si6 0.813963 0.409678 0.259868
O O1 0.049901 0.218139 0.609297
O O2 0.261652 0.273587 0.733267
O O3 0.174177 0.324982 0.553957
O O4 0.000000 0.309154 0.750000
O O5 0.260099 0.604373 0.264353
O O6 0.228538 0.481029 0.231656
O O7 0.000000 0.550562 0.250000
O O8 0.200375 0.562744 0.069230
O O9 0.220881 0.877885 0.135960
O O10 0.953107 0.876988 0.000619
O O11 0.192549 0.824172 0.934391
O O12 0.500000 0.666103 0.250000
O O13 0.739001 0.884573 0.138561
O O14 0.000000 0.404513 0.250000
#
# Coordination Sequence:
#
# PCOD9457816 Si02
#       6
#     8   8   8   8   8   8
#     4  11  26  44  71  97 140 186 227 293 350 417
#     4  10  24  46  70  99 139 184 231 285 346 417
#     4  12  27  44  69 103 143 178 235 293 348 420
#     4  11  23  44  70 103 130 181 235 277 350 421
#     4  11  24  48  67 101 139 181 232 284 353 411
#     4  11  28  42  69 103 137 182 232 289 348 416
#
# _framework density 21.408301999999999
#
# number of rings (size 3 to 8) (size 9 to 14) (size 15 to 20)
#    0.000    1.000    3.333    3.500   11.667    4.000 
#    0.000    0.000    0.000    0.000    0.000    0.000 
#    0.000    0.000    0.000    0.000    0.000    0.000 
#
# Total GULP energy -267532.398161 kJ/mol
# GULP energy per Si atom -5573.591628 kJ/mol
# Density = 2.135958 g / cm^3
# Si number density = 21.408302 Si / 1000 Ang^3
#
#
#
# Elastic Constant Matrix: (Units=GPa)
#
#
# Indices 1 2 3 4 5 6 
#
# 1 71.1032 13.9725 13.0378 0.0000 0.0000 0.0000
# 2 13.9725 59.9437 22.1908 0.0000 0.0000 0.0000
# 3 13.0378 22.1908 143.6174 0.0000 0.0000 0.0000
# 4 0.0000 0.0000 0.0000 -51.3619 0.0000 0.0000
# 5 0.0000 0.0000 0.0000 0.0000 45.0400 0.0000
# 6 0.0000 0.0000 0.0000 0.0000 0.0000 16.6496
#
#
#
# Elastic Compliance Matrix: (Units=1/GPa)
#
#
# Indices 1 2 3 4 5 6 
#
# 1 0.014839 -0.003140 -0.000862 0.000000 0.000000 0.000000
# 2 -0.003140 0.018359 -0.002552 0.000000 0.000000 0.000000
# 3 -0.000862 -0.002552 0.007435 0.000000 0.000000 0.000000
# 4 0.000000 0.000000 0.000000 -0.019470 0.000000 0.000000
# 5 0.000000 0.000000 0.000000 0.000000 0.022202 0.000000
# 6 0.000000 0.000000 0.000000 0.000000 0.000000 0.060062
#
#
# Mechanical properties :
#
#
# Convention : Reuss Voigt Hill
#
# Bulk Modulus (GPa) = 36.32862 41.45185 38.89023
# Shear Modulus (GPa) = 39.77404 17.09640 28.43522
#
# Velocity S-wave (km/s) = 4.31499 2.82899 3.64845
# Velocity P-wave (km/s) = 6.46775 5.48411 5.99613
#
# Compressibility (1/GPa) = 0.02752651
#
# Stress axis : x y z
#
# Youngs Moduli (GPa) = 67.38935 54.46982 134.49067
#
# Poissons Ratio (x) = 0.17103 0.11593
# Poissons Ratio (y) = 0.21159 0.34317
# Poissons Ratio (z) = 0.05809 0.13899
#
# Static dielectric constant tensor:
#      x y z
#    x 2.962420 0.000000 0.000000 
#    y 0.000000 1.759860 0.000000 
#    z 0.000000 0.000000 1.858100 
# 
# From -- ./inp_files/10077.got.cif
#   From: 2010.05.17/outbox.cif.g08.bks.cpg/sg60_6_cif.got.tgz:10077.got - 2010.06.03 14:59:27.
