data_PCOD9457798
_publ_section_title
;
Structure prediction by ZEFSAII (Michael W. Deem and Ramdas Pophale) SiO2 
 PCOD9457798
Probable space group: P B C N
;
_chemical_formula_sum "Si O2"
_cell_formula_units_Z 24
_cell_length_a 9.992912
_cell_length_b 9.885989
_cell_length_c 9.947037
_cell_angle_alpha 90.000000
_cell_angle_beta 90.000000
_cell_angle_gamma 90.000000
_cell_volume 982.665976
_symmetry_space_group_name_H-M "P B C N"
_symmetry_group_IT_number 60
_symmetry_cell_setting 'orthorhombic'
loop_
_space_group_symop_operation_xyz
x,y,z
1/2-x,1/2-y,1/2+z
1/2+x,1/2-y,-z
-x,y,1/2-z
-x,-y,-z
1/2+x,1/2+y,1/2-z
1/2-x,1/2+y,z
x,-y,1/2+z
loop_
_atom_site_type_symbol
_atom_site_label
_atom_site_fract_x
_atom_site_fract_y
_atom_site_fract_z
Si Si1 0.000000 0.643248 0.750000
Si Si2 0.500000 0.577297 0.750000
Si Si3 0.115811 0.788261 0.008361
Si Si4 0.242367 0.478068 0.623235
O O1 0.116362 0.548410 0.692076
O O2 0.943328 0.731765 0.627799
O O3 0.500256 0.670147 0.616010
O O4 0.369249 0.489276 0.721774
O O5 0.208300 0.921633 0.004016
O O6 0.203161 0.669710 0.075943
#
# Coordination Sequence:
#
# PCOD9457798 Si02
#       4
#     4   4   8   8
#     4  12  25  41  82 108 153 207 260 316 389 467
#     4   8  23  45  78 104 167 191 260 314 399 469
#     4  10  24  46  77 110 154 206 254 321 387 462
#     4  10  24  45  77 111 156 204 258 319 394 467
#
# _framework density 24.423355000000001
#
# number of rings (size 3 to 8) (size 9 to 14) (size 15 to 20)
#    2.000    0.000    0.000    2.000    4.667    4.000 
#    0.000    3.333    7.333    2.000    0.000    0.000 
#    0.000    0.000    0.000    0.000    0.000    0.000 
#
# Total GULP energy -134330.476283 kJ/mol
# GULP energy per Si atom -5597.103178 kJ/mol
# Density = 2.436777 g / cm^3
# Si number density = 24.423355 Si / 1000 Ang^3
#
#
#
# Elastic Constant Matrix: (Units=GPa)
#
#
# Indices 1 2 3 4 5 6 
#
# 1 127.7291 53.4885 24.6256 0.0000 0.0000 0.0000
# 2 53.4885 150.5652 46.9210 0.0000 0.0000 0.0000
# 3 24.6256 46.9210 93.9128 0.0000 0.0000 0.0000
# 4 0.0000 0.0000 0.0000 74.8301 0.0000 0.0000
# 5 0.0000 0.0000 0.0000 0.0000 47.1458 0.0000
# 6 0.0000 0.0000 0.0000 0.0000 0.0000 314.6174
#
#
#
# Elastic Compliance Matrix: (Units=1/GPa)
#
#
# Indices 1 2 3 4 5 6 
#
# 1 0.009265 -0.003002 -0.000930 0.000000 0.000000 0.000000
# 2 -0.003002 0.008839 -0.003629 0.000000 0.000000 0.000000
# 3 -0.000930 -0.003629 0.012705 0.000000 0.000000 0.000000
# 4 0.000000 0.000000 0.000000 0.013364 0.000000 0.000000
# 5 0.000000 0.000000 0.000000 0.000000 0.021211 0.000000
# 6 0.000000 0.000000 0.000000 0.000000 0.000000 0.003178
#
#
# Mechanical properties :
#
#
# Convention : Reuss Voigt Hill
#
# Bulk Modulus (GPa) = 63.74190 69.14192 66.44191
# Shear Modulus (GPa) = 56.23480 103.79680 80.01580
#
# Velocity S-wave (km/s) = 4.80364 6.52620 5.73002
# Velocity P-wave (km/s) = 7.54467 9.22819 8.42857
#
# Compressibility (1/GPa) = 0.01568827
#
# Stress axis : x y z
#
# Youngs Moduli (GPa) = 107.92880 113.13562 78.70838
#
# Poissons Ratio (x) = 0.33961 0.07318
# Poissons Ratio (y) = 0.32398 0.28563
# Poissons Ratio (z) = 0.10035 0.41057
#
# Static dielectric constant tensor:
#      x y z
#    x 1.917580 0.000000 0.000000 
#    y 0.000000 1.918150 0.000000 
#    z 0.000000 0.000000 1.875660 
# 
# From -- ./inp_files/4408.got.cif
#   From: 2010.05.17/outbox.cif.g08.bks.cpg/sg60_3_cif.got.tgz:4408.got - 2010.06.03 14:59:27.
