data_PCOD9457645
_publ_section_title
;
Structure prediction by ZEFSAII (Michael W. Deem and Ramdas Pophale) SiO2 
 PCOD9457645
Probable space group: P B C N
;
_chemical_formula_sum "Si O2"
_cell_formula_units_Z 64
_cell_length_a 11.309369
_cell_length_b 15.527039
_cell_length_c 15.718131
_cell_angle_alpha 90.000000
_cell_angle_beta 90.000000
_cell_angle_gamma 90.000000
_cell_volume 2760.119734
_symmetry_space_group_name_H-M "P B C N"
_symmetry_group_IT_number 60
_symmetry_cell_setting 'orthorhombic'
loop_
_space_group_symop_operation_xyz
x,y,z
1/2-x,1/2-y,1/2+z
1/2+x,1/2-y,-z
-x,y,1/2-z
-x,-y,-z
1/2+x,1/2+y,1/2-z
1/2-x,1/2+y,z
x,-y,1/2+z
loop_
_atom_site_type_symbol
_atom_site_label
_atom_site_fract_x
_atom_site_fract_y
_atom_site_fract_z
Si Si1 0.884810 0.755509 0.054782
Si Si2 0.404081 0.262514 0.179019
Si Si3 0.267353 0.090947 0.655808
Si Si4 0.524558 0.206129 0.871104
Si Si5 0.765957 0.402664 0.864741
Si Si6 0.760274 0.913656 0.551716
Si Si7 0.190536 0.600655 0.942203
Si Si8 0.005697 0.895048 0.844839
O O1 0.808888 0.671587 0.083096
O O2 0.806646 0.840252 0.072240
O O3 0.015161 0.762971 0.094444
O O4 0.905478 0.738983 0.955184
O O5 0.500000 0.244290 0.250000
O O6 0.342448 0.354787 0.191225
O O7 0.307624 0.185905 0.178133
O O8 0.380476 0.149071 0.677850
O O9 0.245741 0.087958 0.552131
O O10 0.289833 0.992714 0.682486
O O11 0.418838 0.145905 0.899213
O O12 0.473991 0.293138 0.833226
O O13 0.625640 0.407295 0.880247
O O14 0.828779 0.401203 0.955998
O O15 0.892308 0.920336 0.589588
O O16 0.700972 0.001625 0.582893
O O17 0.000000 0.935073 0.750000
#
# Coordination Sequence:
#
# PCOD9457645 Si02
#       8
#     8   8   8   8   8   8   8   8
#     4  11  22  39  66  94 132 166 222 276 331 400
#     4  12  26  43  65  96 138 181 218 270 340 410
#     4  10  24  43  69  96 129 173 228 277 334 401
#     4  11  21  43  70  94 129 171 222 276 336 396
#     4  11  24  43  67  97 131 174 220 278 342 391
#     4  10  24  40  66 102 130 171 225 279 339 395
#     4  11  22  40  71 101 128 167 224 286 332 398
#     4  12  25  42  64  90 137 177 218 272 333 408
#
# _framework density 23.187401000000001
#
# number of rings (size 3 to 8) (size 9 to 14) (size 15 to 20)
#    0.000    1.000    5.000    1.500    5.250    3.000 
#    0.000    0.625    0.000    0.000    0.000    0.000 
#    0.000    0.000    0.000    0.000    0.000    0.000 
#
# Total GULP energy -357717.222235 kJ/mol
# GULP energy per Si atom -5589.331597 kJ/mol
# Density = 2.313463 g / cm^3
# Si number density = 23.187401 Si / 1000 Ang^3
#
#
#
# Elastic Constant Matrix: (Units=GPa)
#
#
# Indices 1 2 3 4 5 6 
#
# 1 59.9157 -9.8446 -7.4787 0.0000 0.0000 0.0000
# 2 -9.8446 96.7475 -4.9965 0.0000 0.0000 0.0000
# 3 -7.4787 -4.9965 30.1064 0.0000 0.0000 0.0000
# 4 0.0000 0.0000 0.0000 -0.1158 0.0000 0.0000
# 5 0.0000 0.0000 0.0000 0.0000 14.6475 0.0000
# 6 0.0000 0.0000 0.0000 0.0000 0.0000 19.2751
#
#
#
# Elastic Compliance Matrix: (Units=1/GPa)
#
#
# Indices 1 2 3 4 5 6 
#
# 1 0.017613 0.002036 0.004713 0.000000 0.000000 0.000000
# 2 0.002036 0.010661 0.002275 0.000000 0.000000 0.000000
# 3 0.004713 0.002275 0.034764 0.000000 0.000000 0.000000
# 4 0.000000 0.000000 0.000000 -8.634493 0.000000 0.000000
# 5 0.000000 0.000000 0.000000 0.000000 0.068271 0.000000
# 6 0.000000 0.000000 0.000000 0.000000 0.000000 0.051880
#
#
# Mechanical properties :
#
#
# Convention : Reuss Voigt Hill
#
# Bulk Modulus (GPa) = 12.33280 15.79222 14.06251
# Shear Modulus (GPa) = -0.59225 20.70065 10.05420
#
# Velocity S-wave (km/s) = -0.50594 2.99114 2.08458
# Velocity P-wave (km/s) = 2.23361 4.33067 3.44556
#
# Compressibility (1/GPa) = 0.08108458
#
# Stress axis : x y z
#
# Youngs Moduli (GPa) = 56.77667 93.80147 28.76556
#
# Poissons Ratio (x) = -0.19094 -0.13557
# Poissons Ratio (y) = -0.11558 -0.06544
# Poissons Ratio (z) = -0.26759 -0.21339
#
# Static dielectric constant tensor:
#      x y z
#    x 1.840710 0.000000 0.000000 
#    y 0.000000 1.883040 0.000000 
#    z 0.000000 0.000000 2.125170 
# 
# From -- ./inp_files/20225.got.cif
#   From: 2010.05.17/outbox.cif.g08.bks.cpg/sg60_11_cif.got.tgz:20225.got - 2010.06.03 14:59:27.
