data_PCOD9457316
_publ_section_title
;
Structure prediction by ZEFSAII (Michael W. Deem and Ramdas Pophale) SiO2 
 PCOD9457316
Probable space group: P B C N
;
_chemical_formula_sum "Si O2"
_cell_formula_units_Z 60
_cell_length_a 14.373390
_cell_length_b 17.561271
_cell_length_c 9.758514
_cell_angle_alpha 90.000000
_cell_angle_beta 90.000000
_cell_angle_gamma 90.000000
_cell_volume 2463.195282
_symmetry_space_group_name_H-M "P B C N"
_symmetry_group_IT_number 60
_symmetry_cell_setting 'orthorhombic'
loop_
_space_group_symop_operation_xyz
x,y,z
1/2-x,1/2-y,1/2+z
1/2+x,1/2-y,-z
-x,y,1/2-z
-x,-y,-z
1/2+x,1/2+y,1/2-z
1/2-x,1/2+y,z
x,-y,1/2+z
loop_
_atom_site_type_symbol
_atom_site_label
_atom_site_fract_x
_atom_site_fract_y
_atom_site_fract_z
Si Si1 0.848461 0.495972 0.427427
Si Si2 0.940371 0.978385 0.630257
Si Si3 0.500000 0.249365 0.250000
Si Si4 0.655613 0.365278 0.163297
Si Si5 0.252478 0.422799 0.816478
Si Si6 0.634355 0.151806 0.778431
Si Si7 0.718778 0.298543 0.892080
Si Si8 0.582724 0.163634 0.489218
O O1 0.816270 0.457365 0.569916
O O2 0.768368 0.527706 0.322371
O O3 0.896711 0.426172 0.349690
O O4 0.903245 0.573745 0.458467
O O5 0.895927 0.055812 0.689192
O O6 0.000000 0.941091 0.750000
O O7 0.850265 0.928682 0.604981
O O8 0.000000 0.000000 0.500000
O O9 0.590734 0.301368 0.229466
O O10 0.509768 0.197482 0.384085
O O11 0.760805 0.365757 0.218321
O O12 0.663696 0.352046 0.999401
O O13 0.255667 0.338265 0.752994
O O14 0.658689 0.222955 0.874256
O O15 0.570865 0.173417 0.649863
O O16 0.820436 0.291730 0.958822
#
# Coordination Sequence:
#
# PCOD9457316 Si02
#       8
#     8   8   4   8   8   8   8   8
#     4  11  21  40  69  91 129 169 228 283 328 388
#     4  12  23  37  59  89 137 177 210 263 341 417
#     4  12  24  44  72  94 150 178 222 294 370 412
#     4  11  23  42  62 103 132 178 226 277 346 420
#     4  11  22  39  62  96 128 172 223 283 328 402
#     4  11  22  42  68  97 130 171 238 284 331 409
#     4  10  23  39  69  95 130 169 234 278 331 405
#     4  10  23  42  64 101 129 180 227 277 343 422
#
# _framework density 24.358606000000002
#
# number of rings (size 3 to 8) (size 9 to 14) (size 15 to 20)
#    0.000    1.067    4.667    3.200    3.733    1.067 
#    0.000    2.667    0.000    0.000    0.000    0.000 
#    0.000    0.000    0.000    0.000    0.000    0.000 
#
# Total GULP energy -335423.926131 kJ/mol
# GULP energy per Si atom -5590.398769 kJ/mol
# Density = 2.430316 g / cm^3
# Si number density = 24.358606 Si / 1000 Ang^3
#
#
#
# Elastic Constant Matrix: (Units=GPa)
#
#
# Indices 1 2 3 4 5 6 
#
# 1 46.2403 8.5705 25.1757 0.0000 0.0000 0.0000
# 2 8.5705 60.6445 14.0049 0.0000 0.0000 0.0000
# 3 25.1757 14.0049 108.0853 0.0000 0.0000 0.0000
# 4 0.0000 0.0000 0.0000 21.0239 0.0000 0.0000
# 5 0.0000 0.0000 0.0000 0.0000 47.3273 0.0000
# 6 0.0000 0.0000 0.0000 0.0000 0.0000 8.2487
#
#
#
# Elastic Compliance Matrix: (Units=1/GPa)
#
#
# Indices 1 2 3 4 5 6 
#
# 1 0.025064 -0.002262 -0.005545 0.000000 0.000000 0.000000
# 2 -0.002262 0.017202 -0.001702 0.000000 0.000000 0.000000
# 3 -0.005545 -0.001702 0.010764 0.000000 0.000000 0.000000
# 4 0.000000 0.000000 0.000000 0.047565 0.000000 0.000000
# 5 0.000000 0.000000 0.000000 0.000000 0.021129 0.000000
# 6 0.000000 0.000000 0.000000 0.000000 0.000000 0.121232
#
#
# Mechanical properties :
#
#
# Convention : Reuss Voigt Hill
#
# Bulk Modulus (GPa) = 29.40049 34.49689 31.94869
# Shear Modulus (GPa) = 18.29410 26.46791 22.38100
#
# Velocity S-wave (km/s) = 2.74347 3.29993 3.03448
# Velocity P-wave (km/s) = 4.70442 5.35838 5.04201
#
# Compressibility (1/GPa) = 0.03401304
#
# Stress axis : x y z
#
# Youngs Moduli (GPa) = 39.89725 58.13194 92.90159
#
# Poissons Ratio (x) = 0.13147 0.51514
# Poissons Ratio (y) = 0.09023 0.15813
# Poissons Ratio (z) = 0.22123 0.09895
#
# Static dielectric constant tensor:
#      x y z
#    x 1.390100 0.000000 0.000000 
#    y 0.000000 1.937230 0.000000 
#    z 0.000000 0.000000 1.874970 
# 
# From -- ./inp_files/6910.got.cif
#   From: 2010.05.17/outbox.cif.g08.bks.cpg/sg60_4_cif.got.tgz:6910.got - 2010.06.03 14:59:27.
