data_PCOD9457547
_publ_section_title
;
Structure prediction by ZEFSAII (Michael W. Deem and Ramdas Pophale) SiO2 
 PCOD9457547
Probable space group: P B C N
;
_chemical_formula_sum "Si O2"
_cell_formula_units_Z 60
_cell_length_a 9.289890
_cell_length_b 17.519452
_cell_length_c 16.878854
_cell_angle_alpha 90.000000
_cell_angle_beta 90.000000
_cell_angle_gamma 90.000000
_cell_volume 2747.097323
_symmetry_space_group_name_H-M "P B C N"
_symmetry_group_IT_number 60
_symmetry_cell_setting 'orthorhombic'
loop_
_space_group_symop_operation_xyz
x,y,z
1/2-x,1/2-y,1/2+z
1/2+x,1/2-y,-z
-x,y,1/2-z
-x,-y,-z
1/2+x,1/2+y,1/2-z
1/2-x,1/2+y,z
x,-y,1/2+z
loop_
_atom_site_type_symbol
_atom_site_label
_atom_site_fract_x
_atom_site_fract_y
_atom_site_fract_z
Si Si1 0.034937 0.001605 0.840272
Si Si2 0.297107 0.581323 0.076604
Si Si3 0.826568 0.857724 0.345702
Si Si4 0.910751 0.482268 0.328876
Si Si5 0.886406 0.315848 0.584114
Si Si6 0.000000 0.260340 0.750000
Si Si7 0.821625 0.493110 0.575419
Si Si8 0.318665 0.238283 0.018113
O O1 0.958392 0.082818 0.856086
O O2 0.000000 0.981458 0.750000
O O3 0.957516 0.941311 0.898138
O O4 0.202775 0.005373 0.856607
O O5 0.271801 0.668215 0.054404
O O6 0.192116 0.552724 0.146977
O O7 0.246024 0.530605 0.002235
O O8 0.691418 0.909036 0.322193
O O9 0.874205 0.795347 0.281665
O O10 0.801950 0.812142 0.426305
O O11 0.027429 0.470761 0.398562
O O12 0.000000 0.497361 0.250000
O O13 0.849527 0.403313 0.568169
O O14 0.749525 0.262315 0.565312
O O15 0.943514 0.305982 0.673775
O O16 0.016191 0.288106 0.526665
#
# Coordination Sequence:
#
# PCOD9457547 Si02
#       8
#     8   8   8   8   8   4   8   8
#     4  11  24  43  72  98 137 181 233 281 346 414
#     4  11  25  44  68 104 137 181 234 289 342 418
#     4  10  23  45  64  99 138 183 229 279 343 424
#     4  11  24  42  69 100 136 175 228 291 343 407
#     4  11  26  45  73  97 144 182 232 285 354 418
#     4  10  24  46  70  98 136 192 226 280 356 422
#     4  12  25  43  72 103 135 183 231 290 344 410
#     4  11  26  44  69  99 142 184 227 290 346 419
#
# _framework density 21.841235999999999
#
# number of rings (size 3 to 8) (size 9 to 14) (size 15 to 20)
#    0.000    1.067    2.000    4.000    8.400    2.133 
#    0.000    0.667    0.000    0.000    0.000    0.000 
#    0.000    0.000    0.000    0.000    0.000    0.000 
#
# Total GULP energy -335879.523020 kJ/mol
# GULP energy per Si atom -5597.992050 kJ/mol
# Density = 2.179152 g / cm^3
# Si number density = 21.841236 Si / 1000 Ang^3
#
#
#
# Elastic Constant Matrix: (Units=GPa)
#
#
# Indices 1 2 3 4 5 6 
#
# 1 79.5205 19.2118 19.1303 0.0000 0.0000 0.0000
# 2 19.2118 59.2975 26.0809 0.0000 0.0000 0.0000
# 3 19.1303 26.0809 82.5168 0.0000 0.0000 0.0000
# 4 0.0000 0.0000 0.0000 8.7986 0.0000 0.0000
# 5 0.0000 0.0000 0.0000 0.0000 42.3598 0.0000
# 6 0.0000 0.0000 0.0000 0.0000 0.0000 14.4472
#
#
#
# Elastic Compliance Matrix: (Units=1/GPa)
#
#
# Indices 1 2 3 4 5 6 
#
# 1 0.013949 -0.003597 -0.002097 0.000000 0.000000 0.000000
# 2 -0.003597 0.020515 -0.005650 0.000000 0.000000 0.000000
# 3 -0.002097 -0.005650 0.014391 0.000000 0.000000 0.000000
# 4 0.000000 0.000000 0.000000 0.113655 0.000000 0.000000
# 5 0.000000 0.000000 0.000000 0.000000 0.023607 0.000000
# 6 0.000000 0.000000 0.000000 0.000000 0.000000 0.069217
#
#
# Mechanical properties :
#
#
# Convention : Reuss Voigt Hill
#
# Bulk Modulus (GPa) = 38.21736 38.90896 38.56316
# Shear Modulus (GPa) = 17.43716 23.58192 20.50954
#
# Velocity S-wave (km/s) = 2.82859 3.28944 3.06768
# Velocity P-wave (km/s) = 5.31072 5.68158 5.49927
#
# Compressibility (1/GPa) = 0.02616612
#
# Stress axis : x y z
#
# Youngs Moduli (GPa) = 71.69052 48.74579 69.48934
#
# Poissons Ratio (x) = 0.17534 0.14572
# Poissons Ratio (y) = 0.25787 0.39262
# Poissons Ratio (z) = 0.15033 0.27542
#
# Static dielectric constant tensor:
#      x y z
#    x 1.799890 0.000000 0.000000 
#    y 0.000000 1.759080 0.000000 
#    z 0.000000 0.000000 1.845920 
# 
# From -- ./inp_files/19581.got.cif
#   From: 2010.05.17/outbox.cif.g08.bks.cpg/sg60_10_cif.got.tgz:19581.got - 2010.06.03 14:59:27.
