data_PCOD9457796
_publ_section_title
;
Structure prediction by ZEFSAII (Michael W. Deem and Ramdas Pophale) SiO2 
 PCOD9457796
Probable space group: P B C N
;
_chemical_formula_sum "Si O2"
_cell_formula_units_Z 52
_cell_length_a 13.089573
_cell_length_b 23.155378
_cell_length_c 7.489327
_cell_angle_alpha 90.000000
_cell_angle_beta 90.000000
_cell_angle_gamma 90.000000
_cell_volume 2269.970158
_symmetry_space_group_name_H-M "P B C N"
_symmetry_group_IT_number 60
_symmetry_cell_setting 'orthorhombic'
loop_
_space_group_symop_operation_xyz
x,y,z
1/2-x,1/2-y,1/2+z
1/2+x,1/2-y,-z
-x,y,1/2-z
-x,-y,-z
1/2+x,1/2+y,1/2-z
1/2-x,1/2+y,z
x,-y,1/2+z
loop_
_atom_site_type_symbol
_atom_site_label
_atom_site_fract_x
_atom_site_fract_y
_atom_site_fract_z
Si Si1 0.000107 0.566988 0.536525
Si Si2 0.398964 0.585075 0.463243
Si Si3 0.000000 0.814303 0.750000
Si Si4 0.500000 0.756747 0.750000
Si Si5 0.189628 0.640739 0.573255
Si Si6 0.000000 0.003668 0.750000
Si Si7 0.135039 0.336069 0.489476
Si Si8 0.835714 0.768664 0.993239
O O1 0.099735 0.603544 0.482776
O O2 0.000000 0.571716 0.750000
O O3 0.000000 0.500000 0.500000
O O4 0.902352 0.600154 0.458229
O O5 0.454099 0.643363 0.399521
O O6 0.291825 0.603315 0.549571
O O7 0.405571 0.539957 0.296028
O O8 0.466216 0.547911 0.598160
O O9 0.088596 0.775300 0.671982
O O10 0.449244 0.794458 0.587122
O O11 0.593301 0.720638 0.666303
O O12 0.152358 0.657146 0.774410
O O13 0.203671 0.703501 0.485147
O O14 0.244590 0.312225 0.543321
#
# Coordination Sequence:
#
# PCOD9457796 Si02
#       8
#     8   8   4   4   8   4   8   8
#     4  10  24  46  67  99 138 184 238 308 362 437
#     4  10  24  45  75 104 140 198 244 316 382 451
#     4  11  28  44  68 110 154 190 247 308 380 462
#     4  12  26  45  74 104 150 203 250 312 380 456
#     4  11  25  45  71 104 146 192 246 306 383 446
#     4   9  22  51  72 102 150 185 261 322 378 450
#     4  11  26  45  71 107 143 197 246 309 375 455
#     4  12  27  44  73 106 152 196 246 306 375 462
#
# _framework density 22.907789999999999
#
# number of rings (size 3 to 8) (size 9 to 14) (size 15 to 20)
#    0.000    1.231    1.538    1.846   12.923    2.462 
#    5.538    0.000    0.000    0.000    0.000    0.000 
#    0.000    0.000    0.000    0.000    0.000    0.000 
#
# Total GULP energy -290225.925733 kJ/mol
# GULP energy per Si atom -5581.267803 kJ/mol
# Density = 2.285565 g / cm^3
# Si number density = 22.907790 Si / 1000 Ang^3
#
#
#
# Elastic Constant Matrix: (Units=GPa)
#
#
# Indices 1 2 3 4 5 6 
#
# 1 145.0426 83.2206 38.4652 0.0000 0.0000 0.0000
# 2 83.2206 139.2717 23.6566 0.0000 0.0000 0.0000
# 3 38.4652 23.6566 79.6922 0.0000 0.0000 0.0000
# 4 0.0000 0.0000 0.0000 40.7737 0.0000 0.0000
# 5 0.0000 0.0000 0.0000 0.0000 36.4756 0.0000
# 6 0.0000 0.0000 0.0000 0.0000 0.0000 29.2030
#
#
#
# Elastic Compliance Matrix: (Units=1/GPa)
#
#
# Indices 1 2 3 4 5 6 
#
# 1 0.011430 -0.006205 -0.003675 0.000000 0.000000 0.000000
# 2 -0.006205 0.010931 -0.000250 0.000000 0.000000 0.000000
# 3 -0.003675 -0.000250 0.014396 0.000000 0.000000 0.000000
# 4 0.000000 0.000000 0.000000 0.024526 0.000000 0.000000
# 5 0.000000 0.000000 0.000000 0.000000 0.027416 0.000000
# 6 0.000000 0.000000 0.000000 0.000000 0.000000 0.034243
#
#
# Mechanical properties :
#
#
# Convention : Reuss Voigt Hill
#
# Bulk Modulus (GPa) = 60.61753 72.74350 66.68051
# Shear Modulus (GPa) = 33.62507 35.86805 34.74656
#
# Velocity S-wave (km/s) = 3.83540 3.96126 3.89884
# Velocity P-wave (km/s) = 6.79211 7.26264 7.03131
#
# Compressibility (1/GPa) = 0.01649688
#
# Stress axis : x y z
#
# Youngs Moduli (GPa) = 87.49282 91.48622 69.46376
#
# Poissons Ratio (x) = 0.56771 0.25525
# Poissons Ratio (y) = 0.54293 0.01734
# Poissons Ratio (z) = 0.32150 0.02283
#
# Static dielectric constant tensor:
#      x y z
#    x 1.848340 0.000000 0.000000 
#    y 0.000000 1.826960 0.000000 
#    z 0.000000 0.000000 2.014460 
# 
# From -- ./inp_files/6121.got.cif
#   From: 2010.05.17/outbox.cif.g08.bks.cpg/sg60_4_cif.got.tgz:6121.got - 2010.06.03 14:59:27.
