data_PCOD9457212
_publ_section_title
;
Structure prediction by ZEFSAII (Michael W. Deem and Ramdas Pophale) SiO2 
 PCOD9457212
Probable space group: P B C N
;
_chemical_formula_sum "Si O2"
_cell_formula_units_Z 28
_cell_length_a 7.238601
_cell_length_b 12.287792
_cell_length_c 12.279146
_cell_angle_alpha 90.000000
_cell_angle_beta 90.000000
_cell_angle_gamma 90.000000
_cell_volume 1092.186120
_symmetry_space_group_name_H-M "P B C N"
_symmetry_group_IT_number 60
_symmetry_cell_setting 'orthorhombic'
loop_
_space_group_symop_operation_xyz
x,y,z
1/2-x,1/2-y,1/2+z
1/2+x,1/2-y,-z
-x,y,1/2-z
-x,-y,-z
1/2+x,1/2+y,1/2-z
1/2-x,1/2+y,z
x,-y,1/2+z
loop_
_atom_site_type_symbol
_atom_site_label
_atom_site_fract_x
_atom_site_fract_y
_atom_site_fract_z
Si Si1 0.500000 0.068078 0.250000
Si Si2 0.485745 0.648223 0.040632
Si Si3 0.055168 0.375736 0.516333
Si Si4 0.128824 0.045989 0.667037
O O1 0.516065 0.141242 0.140867
O O2 0.677574 0.992532 0.281139
O O3 0.497981 0.776083 0.060170
O O4 0.628140 0.612950 0.946073
O O5 0.275574 0.626837 0.005503
O O6 0.494916 0.561447 0.136936
O O7 0.000000 0.500000 0.500000
O O8 0.000000 0.110267 0.750000
#
# Coordination Sequence:
#
# PCOD9457212 Si02
#       4
#     4   8   8   8
#     4  10  24  42  72 102 142 180 254 292 366 442
#     4  10  25  42  73 101 149 190 247 305 376 439
#     4  11  25  46  69 107 145 196 250 306 375 447
#     4  10  22  45  70 104 137 194 243 305 369 436
#
# _framework density 25.636654
#
# number of rings (size 3 to 8) (size 9 to 14) (size 15 to 20)
#    0.000    1.714    0.000    1.714   18.000    0.000 
#    2.571    0.000    0.000    0.000    0.000    0.000 
#    0.000    0.000    0.000    0.000    0.000    0.000 
#
# Total GULP energy -156299.716836 kJ/mol
# GULP energy per Si atom -5582.132744 kJ/mol
# Density = 2.557830 g / cm^3
# Si number density = 25.636654 Si / 1000 Ang^3
#
#
#
# Elastic Constant Matrix: (Units=GPa)
#
#
# Indices 1 2 3 4 5 6 
#
# 1 122.7431 14.3065 14.9541 0.0000 0.0000 0.0000
# 2 14.3065 147.1031 14.8735 0.0000 0.0000 0.0000
# 3 14.9541 14.8735 86.5812 0.0000 0.0000 0.0000
# 4 0.0000 0.0000 0.0000 19.8826 0.0000 0.0000
# 5 0.0000 0.0000 0.0000 0.0000 41.7360 0.0000
# 6 0.0000 0.0000 0.0000 0.0000 0.0000 28.0317
#
#
#
# Elastic Compliance Matrix: (Units=1/GPa)
#
#
# Indices 1 2 3 4 5 6 
#
# 1 0.008389 -0.000681 -0.001332 0.000000 0.000000 0.000000
# 2 -0.000681 0.006973 -0.001080 0.000000 0.000000 0.000000
# 3 -0.001332 -0.001080 0.011965 0.000000 0.000000 0.000000
# 4 0.000000 0.000000 0.000000 0.050295 0.000000 0.000000
# 5 0.000000 0.000000 0.000000 0.000000 0.023960 0.000000
# 6 0.000000 0.000000 0.000000 0.000000 0.000000 0.035674
#
#
# Mechanical properties :
#
#
# Convention : Reuss Voigt Hill
#
# Bulk Modulus (GPa) = 47.30150 49.41061 48.35605
# Shear Modulus (GPa) = 33.22468 38.74961 35.98715
#
# Velocity S-wave (km/s) = 3.60388 3.89201 3.75071
# Velocity P-wave (km/s) = 5.98399 6.28588 6.13679
#
# Compressibility (1/GPa) = 0.02114098
#
# Stress axis : x y z
#
# Youngs Moduli (GPa) = 119.20713 143.40148 83.57383
#
# Poissons Ratio (x) = 0.09768 0.11131
# Poissons Ratio (y) = 0.08120 0.09028
# Poissons Ratio (z) = 0.15877 0.15491
#
# Static dielectric constant tensor:
#      x y z
#    x 2.048370 0.000000 0.000000 
#    y 0.000000 2.007460 0.000000 
#    z 0.000000 0.000000 2.270220 
# 
# From -- ./inp_files/14254.got.cif
#   From: 2010.05.17/outbox.cif.g08.bks.cpg/sg60_8_cif.got.tgz:14254.got - 2010.06.03 14:59:27.
