data_PCOD9457616
_publ_section_title
;
Structure prediction by ZEFSAII (Michael W. Deem and Ramdas Pophale) SiO2 
 PCOD9457616
Probable space group: P B C N
;
_chemical_formula_sum "Si O2"
_cell_formula_units_Z 48
_cell_length_a 11.533609
_cell_length_b 7.195648
_cell_length_c 20.253512
_cell_angle_alpha 90.000000
_cell_angle_beta 90.000000
_cell_angle_gamma 90.000000
_cell_volume 1680.875225
_symmetry_space_group_name_H-M "P B C N"
_symmetry_group_IT_number 60
_symmetry_cell_setting 'orthorhombic'
loop_
_space_group_symop_operation_xyz
x,y,z
1/2-x,1/2-y,1/2+z
1/2+x,1/2-y,-z
-x,y,1/2-z
-x,-y,-z
1/2+x,1/2+y,1/2-z
1/2-x,1/2+y,z
x,-y,1/2+z
loop_
_atom_site_type_symbol
_atom_site_label
_atom_site_fract_x
_atom_site_fract_y
_atom_site_fract_z
Si Si1 0.663306 0.443749 0.932748
Si Si2 0.992102 0.400152 0.177585
Si Si3 0.147250 0.777968 0.294627
Si Si4 0.624926 0.101937 0.012442
Si Si5 0.338488 0.780167 0.648350
Si Si6 0.668109 0.631586 0.126067
O O1 0.614834 0.639622 0.907796
O O2 0.704857 0.325866 0.869105
O O3 0.606549 0.313682 0.987581
O O4 0.787279 0.493731 0.964943
O O5 0.777466 0.617390 0.074812
O O6 0.779538 0.230379 0.190809
O O7 0.940227 0.271849 0.118655
O O8 0.000000 0.307508 0.250000
O O9 0.136143 0.820876 0.217970
O O10 0.086847 0.583473 0.309469
O O11 0.121312 0.936756 0.347624
O O12 0.396067 0.019003 0.156821
O O13 0.500000 0.000000 0.000000
#
# Coordination Sequence:
#
# PCOD9457616 Si02
#       6
#     8   8   8   8   8   8
#     4  10  24  49  78 108 166 225 279 364 427 525
#     4  10  25  46  74 121 167 217 279 351 450 525
#     4  11  23  43  75 119 162 210 273 353 430 523
#     4  11  27  52  81 119 163 227 301 362 439 518
#     4  10  23  48  73 118 164 216 281 348 452 528
#     4  12  24  46  79 119 168 221 285 369 423 528
#
# _framework density 28.556550000000001
#
# number of rings (size 3 to 8) (size 9 to 14) (size 15 to 20)
#    0.000    1.333    1.667    2.000    4.667    2.000 
#   12.000    4.167    0.000    0.000    0.000    0.000 
#    0.000    0.000    0.000    0.000    0.000    0.000 
#
# Total GULP energy -267758.411787 kJ/mol
# GULP energy per Si atom -5578.300246 kJ/mol
# Density = 2.849155 g / cm^3
# Si number density = 28.556550 Si / 1000 Ang^3
#
#
#
# Elastic Constant Matrix: (Units=GPa)
#
#
# Indices 1 2 3 4 5 6 
#
# 1 117.7009 35.2408 66.2884 0.0000 0.0000 0.0000
# 2 35.2408 162.6521 63.9828 0.0000 0.0000 0.0000
# 3 66.2884 63.9828 169.3226 0.0000 0.0000 0.0000
# 4 0.0000 0.0000 0.0000 35.4491 0.0000 0.0000
# 5 0.0000 0.0000 0.0000 0.0000 53.4995 0.0000
# 6 0.0000 0.0000 0.0000 0.0000 0.0000 48.7035
#
#
#
# Elastic Compliance Matrix: (Units=1/GPa)
#
#
# Indices 1 2 3 4 5 6 
#
# 1 0.010989 -0.000809 -0.003997 0.000000 0.000000 0.000000
# 2 -0.000809 0.007281 -0.002435 0.000000 0.000000 0.000000
# 3 -0.003997 -0.002435 0.008390 0.000000 0.000000 0.000000
# 4 0.000000 0.000000 0.000000 0.028209 0.000000 0.000000
# 5 0.000000 0.000000 0.000000 0.000000 0.018692 0.000000
# 6 0.000000 0.000000 0.000000 0.000000 0.000000 0.020532
#
#
# Mechanical properties :
#
#
# Convention : Reuss Voigt Hill
#
# Bulk Modulus (GPa) = 82.09760 86.74438 84.42099
# Shear Modulus (GPa) = 44.39137 46.47467 45.43302
#
# Velocity S-wave (km/s) = 3.94700 4.03856 3.99304
# Velocity P-wave (km/s) = 7.04154 7.22419 7.13345
#
# Compressibility (1/GPa) = 0.01218062
#
# Stress axis : x y z
#
# Youngs Moduli (GPa) = 90.99934 137.34237 119.18253
#
# Poissons Ratio (x) = 0.11109 0.47631
# Poissons Ratio (y) = 0.07360 0.29017
# Poissons Ratio (z) = 0.36368 0.33439
#
# Static dielectric constant tensor:
#      x y z
#    x 1.778660 0.000000 0.000000 
#    y 0.000000 2.251060 0.000000 
#    z 0.000000 0.000000 2.394150 
# 
# From -- ./inp_files/26056.got.cif
#   From: 2010.05.17/outbox.cif.g08.bks.cpg/sg60_14_cif.got.tgz:26056.got - 2010.06.03 14:59:27.
