data_PCOD9457188
_publ_section_title
;
Structure prediction by ZEFSAII (Michael W. Deem and Ramdas Pophale) SiO2 
 PCOD9457188
Probable space group: P B C N
;
_chemical_formula_sum "Si O2"
_cell_formula_units_Z 60
_cell_length_a 7.080819
_cell_length_b 11.819472
_cell_length_c 27.890308
_cell_angle_alpha 90.000000
_cell_angle_beta 90.000000
_cell_angle_gamma 90.000000
_cell_volume 2334.182881
_symmetry_space_group_name_H-M "P B C N"
_symmetry_group_IT_number 60
_symmetry_cell_setting 'orthorhombic'
loop_
_space_group_symop_operation_xyz
x,y,z
1/2-x,1/2-y,1/2+z
1/2+x,1/2-y,-z
-x,y,1/2-z
-x,-y,-z
1/2+x,1/2+y,1/2-z
1/2-x,1/2+y,z
x,-y,1/2+z
loop_
_atom_site_type_symbol
_atom_site_label
_atom_site_fract_x
_atom_site_fract_y
_atom_site_fract_z
Si Si1 0.000000 0.518251 0.750000
Si Si2 0.482775 0.772860 0.434618
Si Si3 0.496761 0.339922 0.304158
Si Si4 0.107428 0.088039 0.292919
Si Si5 0.085887 0.213060 0.594954
Si Si6 0.065441 0.317789 0.332668
Si Si7 0.076483 0.394938 0.530002
Si Si8 0.468272 0.522020 0.056060
O O1 0.820034 0.447647 0.726476
O O2 0.051408 0.603808 0.705117
O O3 0.712901 0.782927 0.432448
O O4 0.440081 0.849389 0.388357
O O5 0.393044 0.812943 0.484243
O O6 0.436204 0.639873 0.431399
O O7 0.500000 0.295062 0.250000
O O8 0.516279 0.475630 0.302578
O O9 0.608122 0.280146 0.347458
O O10 0.278791 0.331387 0.316689
O O11 0.059998 0.180756 0.332799
O O12 0.000000 0.149908 0.250000
O O13 0.976409 0.316145 0.569902
O O14 0.991035 0.092160 0.584527
O O15 0.247313 0.449654 0.559628
O O16 0.000000 0.500000 0.500000
O O17 0.500000 0.500000 0.000000
#
# Coordination Sequence:
#
# PCOD9457188 Si02
#       8
#     4   8   8   8   8   8   8   8
#     4  10  24  46  66 104 138 186 252 298 358 440
#     4  11  25  42  67 105 141 183 236 293 357 433
#     4  10  25  44  68 103 138 184 240 289 352 432
#     4  10  22  44  72  97 140 190 242 303 367 427
#     4  11  24  44  70 103 142 187 234 292 363 429
#     4  11  24  44  68 101 139 185 237 300 358 432
#     4  11  24  46  67 104 140 180 232 290 359 428
#     4  11  23  42  73  97 136 182 230 289 353 432
#
# _framework density 25.704927000000001
#
# number of rings (size 3 to 8) (size 9 to 14) (size 15 to 20)
#    0.000    1.333    3.333    0.800    8.400    1.067 
#    4.800    0.000    0.000    0.000    0.000    0.000 
#    0.000    0.000    0.000    0.000    0.000    0.000 
#
# Total GULP energy -334255.620670 kJ/mol
# GULP energy per Si atom -5570.927011 kJ/mol
# Density = 2.564642 g / cm^3
# Si number density = 25.704927 Si / 1000 Ang^3
#
#
#
# Elastic Constant Matrix: (Units=GPa)
#
#
# Indices 1 2 3 4 5 6 
#
# 1 77.5821 17.4941 15.9859 0.0000 0.0000 0.0000
# 2 17.4941 126.2127 16.7716 0.0000 0.0000 0.0000
# 3 15.9859 16.7716 150.0254 0.0000 0.0000 0.0000
# 4 0.0000 0.0000 0.0000 8.7139 0.0000 0.0000
# 5 0.0000 0.0000 0.0000 0.0000 32.0768 0.0000
# 6 0.0000 0.0000 0.0000 0.0000 0.0000 12.0504
#
#
#
# Elastic Compliance Matrix: (Units=1/GPa)
#
#
# Indices 1 2 3 4 5 6 
#
# 1 0.013533 -0.001710 -0.001251 0.000000 0.000000 0.000000
# 2 -0.001710 0.008259 -0.000741 0.000000 0.000000 0.000000
# 3 -0.001251 -0.000741 0.006882 0.000000 0.000000 0.000000
# 4 0.000000 0.000000 0.000000 0.114759 0.000000 0.000000
# 5 0.000000 0.000000 0.000000 0.000000 0.031175 0.000000
# 6 0.000000 0.000000 0.000000 0.000000 0.000000 0.082985
#
#
# Mechanical properties :
#
#
# Convention : Reuss Voigt Hill
#
# Bulk Modulus (GPa) = 47.01440 50.48035 48.74738
# Shear Modulus (GPa) = 18.37662 30.80614 24.59138
#
# Velocity S-wave (km/s) = 2.67667 3.46562 3.09638
# Velocity P-wave (km/s) = 5.28039 5.97454 5.63816
#
# Compressibility (1/GPa) = 0.02127008
#
# Stress axis : x y z
#
# Youngs Moduli (GPa) = 73.89450 121.08640 145.31355
#
# Poissons Ratio (x) = 0.20700 0.18177
# Poissons Ratio (y) = 0.12633 0.10769
# Poissons Ratio (z) = 0.09243 0.08973
#
# Static dielectric constant tensor:
#      x y z
#    x 2.201960 0.000000 0.000000 
#    y 0.000000 2.305010 0.000000 
#    z 0.000000 0.000000 2.187440 
# 
# From -- ./inp_files/25225.got.cif
#   From: 2010.05.17/outbox.cif.g08.bks.cpg/sg60_13_cif.got.tgz:25225.got - 2010.06.03 14:59:27.
