data_PCOD9457772
_publ_section_title
;
Structure prediction by ZEFSAII (Michael W. Deem and Ramdas Pophale) SiO2 
 PCOD9457772
Probable space group: P B C N
;
_chemical_formula_sum "Si O2"
_cell_formula_units_Z 36
_cell_length_a 5.059921
_cell_length_b 19.325057
_cell_length_c 14.271906
_cell_angle_alpha 90.000000
_cell_angle_beta 90.000000
_cell_angle_gamma 90.000000
_cell_volume 1395.553520
_symmetry_space_group_name_H-M "P B C N"
_symmetry_group_IT_number 60
_symmetry_cell_setting 'orthorhombic'
loop_
_space_group_symop_operation_xyz
x,y,z
1/2-x,1/2-y,1/2+z
1/2+x,1/2-y,-z
-x,y,1/2-z
-x,-y,-z
1/2+x,1/2+y,1/2-z
1/2-x,1/2+y,z
x,-y,1/2+z
loop_
_atom_site_type_symbol
_atom_site_label
_atom_site_fract_x
_atom_site_fract_y
_atom_site_fract_z
Si Si1 0.552990 0.041147 0.640708
Si Si2 0.000000 0.820346 0.750000
Si Si3 0.452026 0.609050 0.556580
Si Si4 0.828426 0.607986 0.387302
Si Si5 0.602776 0.245344 0.141728
O O1 0.500000 0.053106 0.750000
O O2 0.852331 0.060854 0.618058
O O3 0.346273 0.087751 0.580864
O O4 0.487528 0.962511 0.614586
O O5 0.223462 0.872085 0.715479
O O6 0.091279 0.771850 0.835718
O O7 0.572669 0.599395 0.453298
O O8 0.520292 0.686869 0.587668
O O9 0.991931 0.677448 0.410201
O O10 0.500000 0.252850 0.250000
#
# Coordination Sequence:
#
# PCOD9457772 Si02
#       5
#     8   4   8   8   8
#     4  12  27  49  74 108 152 202 244 310 379 449
#     4  10  24  44  74 100 146 196 254 298 378 452
#     4  12  29  45  78 112 152 188 256 316 373 432
#     4  11  27  46  75 106 149 196 255 301 377 450
#     4  10  24  45  70 104 142 197 245 306 372 454
#
# _framework density 25.796216000000001
#
# number of rings (size 3 to 8) (size 9 to 14) (size 15 to 20)
#    0.000    0.889    0.000    5.333   20.222    0.000 
#    0.000    0.000    0.000    0.000    0.000    0.000 
#    0.000    0.000    0.000    0.000    0.000    0.000 
#
# Total GULP energy -201781.024588 kJ/mol
# GULP energy per Si atom -5605.028461 kJ/mol
# Density = 2.573750 g / cm^3
# Si number density = 25.796216 Si / 1000 Ang^3
#
#
#
# Elastic Constant Matrix: (Units=GPa)
#
#
# Indices 1 2 3 4 5 6 
#
# 1 63.7215 10.0620 10.3181 0.0000 0.0000 0.0000
# 2 10.0620 170.1300 13.2000 0.0000 0.0000 0.0000
# 3 10.3181 13.2000 75.2321 0.0000 0.0000 0.0000
# 4 0.0000 0.0000 0.0000 39.4759 0.0000 0.0000
# 5 0.0000 0.0000 0.0000 0.0000 38.9428 0.0000
# 6 0.0000 0.0000 0.0000 0.0000 0.0000 37.2846
#
#
#
# Elastic Compliance Matrix: (Units=1/GPa)
#
#
# Indices 1 2 3 4 5 6 
#
# 1 0.016155 -0.000794 -0.002076 0.000000 0.000000 0.000000
# 2 -0.000794 0.005998 -0.000943 0.000000 0.000000 0.000000
# 3 -0.002076 -0.000943 0.013742 0.000000 0.000000 0.000000
# 4 0.000000 0.000000 0.000000 0.025332 0.000000 0.000000
# 5 0.000000 0.000000 0.000000 0.000000 0.025679 0.000000
# 6 0.000000 0.000000 0.000000 0.000000 0.000000 0.026821
#
#
# Mechanical properties :
#
#
# Convention : Reuss Voigt Hill
#
# Bulk Modulus (GPa) = 35.37659 41.80488 38.59074
# Shear Modulus (GPa) = 38.23291 41.50756 39.87023
#
# Velocity S-wave (km/s) = 3.85400 4.01566 3.93566
# Velocity P-wave (km/s) = 5.79207 6.14342 5.97033
#
# Compressibility (1/GPa) = 0.02826728
#
# Stress axis : x y z
#
# Youngs Moduli (GPa) = 61.90059 166.72116 72.76703
#
# Poissons Ratio (x) = 0.13244 0.15108
# Poissons Ratio (y) = 0.04917 0.06865
# Poissons Ratio (z) = 0.12852 0.15729
#
# Static dielectric constant tensor:
#      x y z
#    x 2.154610 0.000000 0.000000 
#    y 0.000000 1.953330 0.000000 
#    z 0.000000 0.000000 2.061380 
# 
# From -- ./inp_files/13726.got.cif
#   From: 2010.05.17/outbox.cif.g08.bks.cpg/sg60_7_cif.got.tgz:13726.got - 2010.06.03 14:59:27.
