data_PCOD9457205
_publ_section_title
;
Structure prediction by ZEFSAII (Michael W. Deem and Ramdas Pophale) SiO2 
 PCOD9457205
Probable space group: P B C N
;
_chemical_formula_sum "Si O2"
_cell_formula_units_Z 32
_cell_length_a 19.027728
_cell_length_b 7.745699
_cell_length_c 8.242552
_cell_angle_alpha 90.000000
_cell_angle_beta 90.000000
_cell_angle_gamma 90.000000
_cell_volume 1214.812484
_symmetry_space_group_name_H-M "P B C N"
_symmetry_group_IT_number 60
_symmetry_cell_setting 'orthorhombic'
loop_
_space_group_symop_operation_xyz
x,y,z
1/2-x,1/2-y,1/2+z
1/2+x,1/2-y,-z
-x,y,1/2-z
-x,-y,-z
1/2+x,1/2+y,1/2-z
1/2-x,1/2+y,z
x,-y,1/2+z
loop_
_atom_site_type_symbol
_atom_site_label
_atom_site_fract_x
_atom_site_fract_y
_atom_site_fract_z
Si Si1 0.538254 0.663826 0.416878
Si Si2 0.663202 0.822233 0.010918
Si Si3 0.112844 0.355384 0.816959
Si Si4 0.814318 0.069510 0.493901
O O1 0.500000 0.713119 0.250000
O O2 0.500000 0.500000 0.500000
O O3 0.551574 0.805771 0.557098
O O4 0.618534 0.604626 0.379554
O O5 0.603875 0.830359 0.872600
O O6 0.678118 0.625724 0.051056
O O7 0.735565 0.898955 0.935824
O O8 0.639910 0.952604 0.149872
O O9 0.171449 0.211562 0.866527
#
# Coordination Sequence:
#
# PCOD9457205 Si02
#       4
#     8   8   8   8
#     4  10  22  45  68  96 136 185 236 277 348 414
#     4  12  23  44  66 104 137 166 237 278 368 412
#     4  10  27  40  70 101 133 187 218 298 344 419
#     4  10  24  39  69  96 137 177 219 292 346 412
#
# _framework density 26.341512999999999
#
# number of rings (size 3 to 8) (size 9 to 14) (size 15 to 20)
#    1.500    0.000    2.500    1.500    3.500    4.000 
#    0.000    6.250    0.000    0.000    0.000    0.000 
#    0.000    0.000    0.000    0.000    0.000    0.000 
#
# Total GULP energy -179010.317081 kJ/mol
# GULP energy per Si atom -5594.072409 kJ/mol
# Density = 2.628156 g / cm^3
# Si number density = 26.341513 Si / 1000 Ang^3
#
#
#
# Elastic Constant Matrix: (Units=GPa)
#
#
# Indices 1 2 3 4 5 6 
#
# 1 147.8953 27.7858 15.5437 0.0000 0.0000 0.0000
# 2 27.7858 196.2851 18.8811 0.0000 0.0000 0.0000
# 3 15.5437 18.8811 64.5080 0.0000 0.0000 0.0000
# 4 0.0000 0.0000 0.0000 31.5629 0.0000 0.0000
# 5 0.0000 0.0000 0.0000 0.0000 35.9596 0.0000
# 6 0.0000 0.0000 0.0000 0.0000 0.0000 37.3094
#
#
#
# Elastic Compliance Matrix: (Units=1/GPa)
#
#
# Indices 1 2 3 4 5 6 
#
# 1 0.007076 -0.000862 -0.001453 0.000000 0.000000 0.000000
# 2 -0.000862 0.005347 -0.001357 0.000000 0.000000 0.000000
# 3 -0.001453 -0.001357 0.016249 0.000000 0.000000 0.000000
# 4 0.000000 0.000000 0.000000 0.031683 0.000000 0.000000
# 5 0.000000 0.000000 0.000000 0.000000 0.027809 0.000000
# 6 0.000000 0.000000 0.000000 0.000000 0.000000 0.026803
#
#
# Mechanical properties :
#
#
# Convention : Reuss Voigt Hill
#
# Bulk Modulus (GPa) = 46.88572 59.23438 53.06005
# Shear Modulus (GPa) = 38.63360 44.06491 41.34925
#
# Velocity S-wave (km/s) = 3.83383 4.09446 3.96629
# Velocity P-wave (km/s) = 6.11846 6.69991 6.41577
#
# Compressibility (1/GPa) = 0.02132846
#
# Stress axis : x y z
#
# Youngs Moduli (GPa) = 141.31950 187.01316 61.54105
#
# Poissons Ratio (x) = 0.16119 0.08941
# Poissons Ratio (y) = 0.12181 0.08354
# Poissons Ratio (z) = 0.20531 0.25385
#
# Static dielectric constant tensor:
#      x y z
#    x 2.116000 0.000000 0.000000 
#    y 0.000000 1.977540 0.000000 
#    z 0.000000 0.000000 2.042010 
# 
# From -- ./inp_files/7128.got.cif
#   From: 2010.05.17/outbox.cif.g08.bks.cpg/sg60_4_cif.got.tgz:7128.got - 2010.06.03 14:59:27.
