data_PCOD9457579
_publ_section_title
;
Structure prediction by ZEFSAII (Michael W. Deem and Ramdas Pophale) SiO2 
 PCOD9457579
Probable space group: P B C N
;
_chemical_formula_sum "Si O2"
_cell_formula_units_Z 44
_cell_length_a 10.421413
_cell_length_b 8.738452
_cell_length_c 21.609107
_cell_angle_alpha 90.000000
_cell_angle_beta 90.000000
_cell_angle_gamma 90.000000
_cell_volume 1967.876920
_symmetry_space_group_name_H-M "P B C N"
_symmetry_group_IT_number 60
_symmetry_cell_setting 'orthorhombic'
loop_
_space_group_symop_operation_xyz
x,y,z
1/2-x,1/2-y,1/2+z
1/2+x,1/2-y,-z
-x,y,1/2-z
-x,-y,-z
1/2+x,1/2+y,1/2-z
1/2-x,1/2+y,z
x,-y,1/2+z
loop_
_atom_site_type_symbol
_atom_site_label
_atom_site_fract_x
_atom_site_fract_y
_atom_site_fract_z
Si Si1 0.883562 0.281777 0.976640
Si Si2 0.655065 0.108401 0.027537
Si Si3 0.500000 0.509205 0.750000
Si Si4 0.688066 0.258053 0.725857
Si Si5 0.408483 0.944010 0.831413
Si Si6 0.352066 0.747743 0.665579
O O1 0.849733 0.226418 0.907597
O O2 0.036822 0.276555 0.987632
O O3 0.791528 0.190194 0.022637
O O4 0.851151 0.461833 0.983069
O O5 0.624194 0.047589 0.096135
O O6 0.594108 0.397670 0.712723
O O7 0.421420 0.610279 0.701580
O O8 0.822686 0.303614 0.694417
O O9 0.717463 0.261128 0.799287
O O10 0.632207 0.099322 0.702113
O O11 0.556459 0.895825 0.823667
#
# Coordination Sequence:
#
# PCOD9457579 Si02
#       6
#     8   8   4   8   8   8
#     4  10  24  44  70 100 141 177 232 283 342 408
#     4  10  23  46  68 104 133 187 228 281 345 402
#     4  12  26  40  64 104 132 176 226 270 366 398
#     4  12  24  41  66 101 130 184 224 276 345 412
#     4  11  22  43  71  91 144 178 223 284 336 407
#     4  11  24  46  65 100 143 172 225 294 334 410
#
# _framework density 22.359120999999998
#
# number of rings (size 3 to 8) (size 9 to 14) (size 15 to 20)
#    0.000    1.091    3.636    1.091    5.091    2.182 
#    9.818    0.000    0.000    0.000    0.000    0.000 
#    0.000    0.000    0.000    0.000    0.000    0.000 
#
# Total GULP energy -246128.300090 kJ/mol
# GULP energy per Si atom -5593.825002 kJ/mol
# Density = 2.230823 g / cm^3
# Si number density = 22.359121 Si / 1000 Ang^3
#
#
#
# Elastic Constant Matrix: (Units=GPa)
#
#
# Indices 1 2 3 4 5 6 
#
# 1 51.1059 28.6542 36.4170 0.0000 0.0000 0.0000
# 2 28.6542 100.9916 46.9054 0.0000 0.0000 0.0000
# 3 36.4170 46.9054 88.8742 0.0000 0.0000 0.0000
# 4 0.0000 0.0000 0.0000 17.2468 0.0000 0.0000
# 5 0.0000 0.0000 0.0000 0.0000 28.1457 0.0000
# 6 0.0000 0.0000 0.0000 0.0000 0.0000 33.8086
#
#
#
# Elastic Compliance Matrix: (Units=1/GPa)
#
#
# Indices 1 2 3 4 5 6 
#
# 1 0.028558 -0.003534 -0.009837 0.000000 0.000000 0.000000
# 2 -0.003534 0.013554 -0.005706 0.000000 0.000000 0.000000
# 3 -0.009837 -0.005706 0.018294 0.000000 0.000000 0.000000
# 4 0.000000 0.000000 0.000000 0.057982 0.000000 0.000000
# 5 0.000000 0.000000 0.000000 0.000000 0.035529 0.000000
# 6 0.000000 0.000000 0.000000 0.000000 0.000000 0.029578
#
#
# Mechanical properties :
#
#
# Convention : Reuss Voigt Hill
#
# Bulk Modulus (GPa) = 44.93653 51.65833 48.29743
# Shear Modulus (GPa) = 21.82769 24.43989 23.13379
#
# Velocity S-wave (km/s) = 3.12786 3.30973 3.22008
# Velocity P-wave (km/s) = 5.76072 6.14491 5.95591
#
# Compressibility (1/GPa) = 0.02225361
#
# Stress axis : x y z
#
# Youngs Moduli (GPa) = 35.01620 73.77630 54.66325
#
# Poissons Ratio (x) = 0.26073 0.53771
# Poissons Ratio (y) = 0.12375 0.31188
# Poissons Ratio (z) = 0.34445 0.42094
#
# Static dielectric constant tensor:
#      x y z
#    x 1.896170 0.000000 0.000000 
#    y 0.000000 1.798010 0.000000 
#    z 0.000000 0.000000 1.850850 
# 
# From -- ./inp_files/24188.got.cif
#   From: 2010.05.17/outbox.cif.g08.bks.cpg/sg60_13_cif.got.tgz:24188.got - 2010.06.03 14:59:27.
