data_PCOD9457460
_publ_section_title
;
Structure prediction by ZEFSAII (Michael W. Deem and Ramdas Pophale) SiO2 
 PCOD9457460
Probable space group: P B C N
;
_chemical_formula_sum "Si O2"
_cell_formula_units_Z 44
_cell_length_a 9.353552
_cell_length_b 11.145722
_cell_length_c 20.199507
_cell_angle_alpha 90.000000
_cell_angle_beta 90.000000
_cell_angle_gamma 90.000000
_cell_volume 2105.840828
_symmetry_space_group_name_H-M "P B C N"
_symmetry_group_IT_number 60
_symmetry_cell_setting 'orthorhombic'
loop_
_space_group_symop_operation_xyz
x,y,z
1/2-x,1/2-y,1/2+z
1/2+x,1/2-y,-z
-x,y,1/2-z
-x,-y,-z
1/2+x,1/2+y,1/2-z
1/2-x,1/2+y,z
x,-y,1/2+z
loop_
_atom_site_type_symbol
_atom_site_label
_atom_site_fract_x
_atom_site_fract_y
_atom_site_fract_z
Si Si1 0.836342 0.047864 0.067637
Si Si2 0.509535 0.071287 0.068269
Si Si3 0.729603 0.995357 0.333186
Si Si4 0.000000 0.401415 0.250000
Si Si5 0.471407 0.666904 0.177433
Si Si6 0.434882 0.648417 0.572499
O O1 0.673698 0.058336 0.089325
O O2 0.932362 0.123676 0.117920
O O3 0.854623 0.097835 0.992952
O O4 0.910293 0.917246 0.071208
O O5 0.461690 0.210428 0.065747
O O6 0.401281 0.008266 0.117394
O O7 0.500000 0.000000 0.000000
O O8 0.648780 0.970033 0.263464
O O9 0.843117 0.898865 0.363704
O O10 0.811790 0.122312 0.335434
O O11 0.999122 0.305925 0.189812
O O12 0.500000 0.608573 0.250000
#
# Coordination Sequence:
#
# PCOD9457460 Si02
#       6
#     8   8   8   4   8   8
#     4  10  23  43  67  94 129 177 216 268 336 384
#     4  12  26  37  68 101 130 169 219 266 331 397
#     4  11  23  44  64  99 132 171 220 269 334 384
#     4  10  24  40  72  86 130 176 214 272 314 394
#     4   9  23  44  64  89 129 174 217 266 325 382
#     4  10  24  44  66  96 137 168 215 280 326 391
#
# _framework density 20.894265999999998
#
# number of rings (size 3 to 8) (size 9 to 14) (size 15 to 20)
#    0.545    1.091    1.818    1.091    7.636    0.000 
#    3.273    0.000    4.000    0.000    0.000    0.000 
#    0.000    0.000    0.000    0.000    0.000    0.000 
#
# Total GULP energy -245254.408385 kJ/mol
# GULP energy per Si atom -5573.963827 kJ/mol
# Density = 2.084671 g / cm^3
# Si number density = 20.894266 Si / 1000 Ang^3
#
#
#
# Elastic Constant Matrix: (Units=GPa)
#
#
# Indices 1 2 3 4 5 6 
#
# 1 145.4970 36.5111 33.0365 0.0000 0.0000 0.0000
# 2 36.5111 117.6778 23.7442 0.0000 0.0000 0.0000
# 3 33.0365 23.7442 61.8628 0.0000 0.0000 0.0000
# 4 0.0000 0.0000 0.0000 22.4870 0.0000 0.0000
# 5 0.0000 0.0000 0.0000 0.0000 41.7792 0.0000
# 6 0.0000 0.0000 0.0000 0.0000 0.0000 15.5205
#
#
#
# Elastic Compliance Matrix: (Units=1/GPa)
#
#
# Indices 1 2 3 4 5 6 
#
# 1 0.008155 -0.001790 -0.003668 0.000000 0.000000 0.000000
# 2 -0.001790 0.009604 -0.002730 0.000000 0.000000 0.000000
# 3 -0.003668 -0.002730 0.019172 0.000000 0.000000 0.000000
# 4 0.000000 0.000000 0.000000 0.044470 0.000000 0.000000
# 5 0.000000 0.000000 0.000000 0.000000 0.023935 0.000000
# 6 0.000000 0.000000 0.000000 0.000000 0.000000 0.064431
#
#
# Mechanical properties :
#
#
# Convention : Reuss Voigt Hill
#
# Bulk Modulus (GPa) = 48.65236 56.84680 52.74958
# Shear Modulus (GPa) = 25.90741 31.40706 28.65724
#
# Velocity S-wave (km/s) = 3.52508 3.88124 3.70744
# Velocity P-wave (km/s) = 6.31695 6.88123 6.60512
#
# Compressibility (1/GPa) = 0.02055399
#
# Stress axis : x y z
#
# Youngs Moduli (GPa) = 122.62339 104.12241 52.16071
#
# Poissons Ratio (x) = 0.18639 0.19132
# Poissons Ratio (y) = 0.21951 0.14241
# Poissons Ratio (z) = 0.44978 0.28428
#
# Static dielectric constant tensor:
#      x y z
#    x 1.816480 0.000000 0.000000 
#    y 0.000000 1.788860 0.000000 
#    z 0.000000 0.000000 1.742960 
# 
# From -- ./inp_files/23894.got.cif
#   From: 2010.05.17/outbox.cif.g08.bks.cpg/sg60_12_cif.got.tgz:23894.got - 2010.06.03 14:59:27.
