data_PCOD9457740
_publ_section_title
;
Structure prediction by ZEFSAII (Michael W. Deem and Ramdas Pophale) SiO2 
 PCOD9457740
Probable space group: P B C N
;
_chemical_formula_sum "Si O2"
_cell_formula_units_Z 24
_cell_length_a 13.591616
_cell_length_b 7.262221
_cell_length_c 10.255021
_cell_angle_alpha 90.000000
_cell_angle_beta 90.000000
_cell_angle_gamma 90.000000
_cell_volume 1012.225121
_symmetry_space_group_name_H-M "P B C N"
_symmetry_group_IT_number 60
_symmetry_cell_setting 'orthorhombic'
loop_
_space_group_symop_operation_xyz
x,y,z
1/2-x,1/2-y,1/2+z
1/2+x,1/2-y,-z
-x,y,1/2-z
-x,-y,-z
1/2+x,1/2+y,1/2-z
1/2-x,1/2+y,z
x,-y,1/2+z
loop_
_atom_site_type_symbol
_atom_site_label
_atom_site_fract_x
_atom_site_fract_y
_atom_site_fract_z
Si Si1 0.111812 0.938627 0.486880
Si Si2 0.610185 0.121911 0.199841
Si Si3 0.190477 0.425780 0.061239
O O1 0.126139 0.832172 0.348660
O O2 0.138702 0.770643 0.584983
O O3 0.196597 0.086138 0.514171
O O4 0.000000 0.000000 0.500000
O O5 0.500000 0.101907 0.250000
O O6 0.678004 0.052941 0.315136
O O7 0.631690 0.007427 0.068057
#
# Coordination Sequence:
#
# PCOD9457740 Si02
#       3
#     8   8   8
#     4  10  26  44  78 108 152 197 257 303 381 451
#     4  10  24  43  76 107 150 196 253 300 388 438
#     4  10  25  44  75 106 155 191 251 310 374 444
#
# _framework density 23.710139999999999
#
# number of rings (size 3 to 8) (size 9 to 14) (size 15 to 20)
#    2.000    0.000    0.000    1.000    9.333    0.000 
#    0.000    1.667    0.000    0.000    0.000    0.000 
#    0.000    0.000    0.000    0.000    0.000    0.000 
#
# Total GULP energy -133886.452269 kJ/mol
# GULP energy per Si atom -5578.602178 kJ/mol
# Density = 2.365617 g / cm^3
# Si number density = 23.710140 Si / 1000 Ang^3
#
#
#
# Elastic Constant Matrix: (Units=GPa)
#
#
# Indices 1 2 3 4 5 6 
#
# 1 154.9858 59.0826 11.1618 0.0000 0.0000 0.0000
# 2 59.0826 98.0682 40.7247 0.0000 0.0000 0.0000
# 3 11.1618 40.7247 100.6585 0.0000 0.0000 0.0000
# 4 0.0000 0.0000 0.0000 19.8258 0.0000 0.0000
# 5 0.0000 0.0000 0.0000 0.0000 26.9323 0.0000
# 6 0.0000 0.0000 0.0000 0.0000 0.0000 32.2632
#
#
#
# Elastic Compliance Matrix: (Units=1/GPa)
#
#
# Indices 1 2 3 4 5 6 
#
# 1 0.008528 -0.005704 0.001362 0.000000 0.000000 0.000000
# 2 -0.005704 0.016071 -0.005869 0.000000 0.000000 0.000000
# 3 0.001362 -0.005869 0.012158 0.000000 0.000000 0.000000
# 4 0.000000 0.000000 0.000000 0.050439 0.000000 0.000000
# 5 0.000000 0.000000 0.000000 0.000000 0.037130 0.000000
# 6 0.000000 0.000000 0.000000 0.000000 0.000000 0.030995
#
#
# Mechanical properties :
#
#
# Convention : Reuss Voigt Hill
#
# Bulk Modulus (GPa) = 61.21848 63.96120 62.58984
# Shear Modulus (GPa) = 27.59547 31.98715 29.79131
#
# Velocity S-wave (km/s) = 3.41525 3.67698 3.54853
# Velocity P-wave (km/s) = 6.43642 6.71281 6.57607
#
# Compressibility (1/GPa) = 0.01633494
#
# Stress axis : x y z
#
# Youngs Moduli (GPa) = 117.25509 62.22536 82.24874
#
# Poissons Ratio (x) = 0.35491 -0.11201
# Poissons Ratio (y) = 0.66878 0.48275
# Poissons Ratio (z) = -0.15969 0.36523
#
# Static dielectric constant tensor:
#      x y z
#    x 1.859340 0.000000 0.000000 
#    y 0.000000 1.995430 0.000000 
#    z 0.000000 0.000000 1.922800 
# 
# From -- ./inp_files/10460.got.cif
#   From: 2010.05.17/outbox.cif.g08.bks.cpg/sg60_6_cif.got.tgz:10460.got - 2010.06.03 14:59:27.
