data_PCOD9457218
_publ_section_title
;
Structure prediction by ZEFSAII (Michael W. Deem and Ramdas Pophale) SiO2 
 PCOD9457218
Probable space group: P B C N
;
_chemical_formula_sum "Si O2"
_cell_formula_units_Z 40
_cell_length_a 5.624754
_cell_length_b 10.824596
_cell_length_c 27.574617
_cell_angle_alpha 90.000000
_cell_angle_beta 90.000000
_cell_angle_gamma 90.000000
_cell_volume 1678.899573
_symmetry_space_group_name_H-M "P B C N"
_symmetry_group_IT_number 60
_symmetry_cell_setting 'orthorhombic'
loop_
_space_group_symop_operation_xyz
x,y,z
1/2-x,1/2-y,1/2+z
1/2+x,1/2-y,-z
-x,y,1/2-z
-x,-y,-z
1/2+x,1/2+y,1/2-z
1/2-x,1/2+y,z
x,-y,1/2+z
loop_
_atom_site_type_symbol
_atom_site_label
_atom_site_fract_x
_atom_site_fract_y
_atom_site_fract_z
Si Si1 0.418457 0.865121 0.194126
Si Si2 0.697649 0.045850 0.962439
Si Si3 0.902942 0.903059 0.559435
Si Si4 0.749697 0.884925 0.780496
Si Si5 0.174563 0.651922 0.898111
O O1 0.500000 0.865492 0.250000
O O2 0.274241 0.739033 0.188240
O O3 0.643489 0.861584 0.158988
O O4 0.274952 0.991206 0.188146
O O5 0.586332 0.132015 0.922152
O O6 0.866307 0.113598 0.001401
O O7 0.815815 0.926491 0.937865
O O8 0.500000 0.000000 0.000000
O O9 0.773042 0.791811 0.586451
O O10 0.816119 0.036330 0.580012
O O11 0.500000 0.874081 0.750000
O O12 0.000000 0.895822 0.750000
#
# Coordination Sequence:
#
# PCOD9457218 Si02
#       5
#     8   8   8   8   8
#     4  10  24  45  68 101 140 189 237 297 357 428
#     4   9  22  42  68  97 139 178 227 284 363 423
#     4  10  24  44  69 101 138 181 227 302 350 440
#     4  10  22  45  72 100 137 188 245 301 366 428
#     4  11  25  42  69 104 135 184 239 286 364 428
#
# _framework density 23.825127999999999
#
# number of rings (size 3 to 8) (size 9 to 14) (size 15 to 20)
#    0.000    2.000    0.000    0.600   11.200    8.000 
#    7.200    0.000    0.000    0.000    0.000    0.000 
#    0.000    0.000    0.000    0.000    0.000    0.000 
#
# Total GULP energy -222962.571333 kJ/mol
# GULP energy per Si atom -5574.064283 kJ/mol
# Density = 2.377090 g / cm^3
# Si number density = 23.825128 Si / 1000 Ang^3
#
#
#
# Elastic Constant Matrix: (Units=GPa)
#
#
# Indices 1 2 3 4 5 6 
#
# 1 69.5586 21.9278 6.2137 0.0000 0.0000 0.0000
# 2 21.9278 177.6630 11.7458 0.0000 0.0000 0.0000
# 3 6.2137 11.7458 103.6255 0.0000 0.0000 0.0000
# 4 0.0000 0.0000 0.0000 -43.9517 0.0000 0.0000
# 5 0.0000 0.0000 0.0000 0.0000 24.1627 0.0000
# 6 0.0000 0.0000 0.0000 0.0000 0.0000 24.4142
#
#
#
# Elastic Compliance Matrix: (Units=1/GPa)
#
#
# Indices 1 2 3 4 5 6 
#
# 1 0.015008 -0.001806 -0.000695 0.000000 0.000000 0.000000
# 2 -0.001806 0.005889 -0.000559 0.000000 0.000000 0.000000
# 3 -0.000695 -0.000559 0.009755 0.000000 0.000000 0.000000
# 4 0.000000 0.000000 0.000000 -0.022752 0.000000 0.000000
# 5 0.000000 0.000000 0.000000 0.000000 0.041386 0.000000
# 6 0.000000 0.000000 0.000000 0.000000 0.000000 0.040960
#
#
# Mechanical properties :
#
#
# Convention : Reuss Voigt Hill
#
# Bulk Modulus (GPa) = 40.76594 47.84687 44.30641
# Shear Modulus (GPa) = 47.82701 21.65570 34.74136
#
# Velocity S-wave (km/s) = 4.48528 3.01814 3.82276
# Velocity P-wave (km/s) = 6.63109 5.68082 6.17426
#
# Compressibility (1/GPa) = 0.02453028
#
# Stress axis : x y z
#
# Youngs Moduli (GPa) = 66.63154 169.82114 102.50950
#
# Poissons Ratio (x) = 0.30676 0.07126
# Poissons Ratio (y) = 0.12036 0.05732
# Poissons Ratio (z) = 0.04632 0.09495
#
# Static dielectric constant tensor:
#      x y z
#    x 2.161650 0.000000 0.000000 
#    y 0.000000 1.970450 0.000000 
#    z 0.000000 0.000000 1.941790 
# 
# From -- ./inp_files/24744.got.cif
#   From: 2010.05.17/outbox.cif.g08.bks.cpg/sg60_13_cif.got.tgz:24744.got - 2010.06.03 14:59:27.
