data_PCOD9457906
_publ_section_title
;
Structure prediction by ZEFSAII (Michael W. Deem and Ramdas Pophale) SiO2 
 PCOD9457906
Probable space group: P B C N
;
_chemical_formula_sum "Si O2"
_cell_formula_units_Z 40
_cell_length_a 10.997050
_cell_length_b 18.751292
_cell_length_c 9.617475
_cell_angle_alpha 90.000000
_cell_angle_beta 90.000000
_cell_angle_gamma 90.000000
_cell_volume 1983.208899
_symmetry_space_group_name_H-M "P B C N"
_symmetry_group_IT_number 60
_symmetry_cell_setting 'orthorhombic'
loop_
_space_group_symop_operation_xyz
x,y,z
1/2-x,1/2-y,1/2+z
1/2+x,1/2-y,-z
-x,y,1/2-z
-x,-y,-z
1/2+x,1/2+y,1/2-z
1/2-x,1/2+y,z
x,-y,1/2+z
loop_
_atom_site_type_symbol
_atom_site_label
_atom_site_fract_x
_atom_site_fract_y
_atom_site_fract_z
Si Si1 0.730889 0.526092 0.220700
Si Si2 0.133677 0.669908 0.823521
Si Si3 0.125635 0.460998 0.520787
Si Si4 0.387659 0.667200 0.356373
Si Si5 0.878577 0.886225 0.328714
O O1 0.768913 0.499050 0.069524
O O2 0.846525 0.526817 0.319429
O O3 0.693826 0.607686 0.215699
O O4 0.637019 0.470329 0.289922
O O5 0.126215 0.618325 0.957577
O O6 0.157278 0.751681 0.865626
O O7 0.248596 0.645145 0.727625
O O8 0.000000 0.664247 0.750000
O O9 0.000000 0.500000 0.500000
O O10 0.500000 0.671020 0.250000
O O11 0.402296 0.635171 0.511477
O O12 0.000000 0.860270 0.250000
#
# Coordination Sequence:
#
# PCOD9457906 Si02
#       5
#     8   8   8   8   8
#     4  11  23  41  68  95 132 176 228 284 336 410
#     4  10  25  45  69  96 145 176 221 286 344 407
#     4  11  22  42  67  99 132 181 232 279 341 409
#     4  11  26  43  67 100 137 181 227 279 350 407
#     4  11  25  45  69 100 134 178 229 281 338 405
#
# _framework density 20.169333999999999
#
# number of rings (size 3 to 8) (size 9 to 14) (size 15 to 20)
#    0.000    1.200    2.000    3.600    8.400    3.200 
#    0.000    0.000    0.000    0.000    0.000    0.000 
#    0.000    0.000    0.000    0.000    0.000    0.000 
#
# Total GULP energy -222954.155346 kJ/mol
# GULP energy per Si atom -5573.853884 kJ/mol
# Density = 2.012343 g / cm^3
# Si number density = 20.169334 Si / 1000 Ang^3
#
#
#
# Elastic Constant Matrix: (Units=GPa)
#
#
# Indices 1 2 3 4 5 6 
#
# 1 99.0425 28.8635 32.9435 0.0000 0.0000 0.0000
# 2 28.8635 124.4188 -9.7739 0.0000 0.0000 0.0000
# 3 32.9435 -9.7739 70.6003 0.0000 0.0000 0.0000
# 4 0.0000 0.0000 0.0000 8.8370 0.0000 0.0000
# 5 0.0000 0.0000 0.0000 0.0000 23.9161 0.0000
# 6 0.0000 0.0000 0.0000 0.0000 0.0000 -5.5452
#
#
#
# Elastic Compliance Matrix: (Units=1/GPa)
#
#
# Indices 1 2 3 4 5 6 
#
# 1 0.013406 -0.003641 -0.006760 0.000000 0.000000 0.000000
# 2 -0.003641 0.009115 0.002961 0.000000 0.000000 0.000000
# 3 -0.006760 0.002961 0.017728 0.000000 0.000000 0.000000
# 4 0.000000 0.000000 0.000000 0.113160 0.000000 0.000000
# 5 0.000000 0.000000 0.000000 0.000000 0.041813 0.000000
# 6 0.000000 0.000000 0.000000 0.000000 0.000000 -0.180337
#
#
# Mechanical properties :
#
#
# Convention : Reuss Voigt Hill
#
# Bulk Modulus (GPa) = 39.41766 44.23644 41.82705
# Shear Modulus (GPa) = 130.81618 21.57682 76.19650
#
# Velocity S-wave (km/s) = 8.06224 3.27430 6.15308
# Velocity P-wave (km/s) = 10.30787 6.02286 8.44177
#
# Compressibility (1/GPa) = 0.02536934
#
# Stress axis : x y z
#
# Youngs Moduli (GPa) = 74.59247 109.71352 56.40689
#
# Poissons Ratio (x) = 0.39948 0.38129
# Poissons Ratio (y) = 0.27160 -0.16701
# Poissons Ratio (z) = 0.50422 -0.32484
#
# Static dielectric constant tensor:
#      x y z
#    x 2.088250 0.000000 0.000000 
#    y 0.000000 1.758840 0.000000 
#    z 0.000000 0.000000 1.690910 
# 
# From -- ./inp_files/4750.got.cif
#   From: 2010.05.17/outbox.cif.g08.bks.cpg/sg60_3_cif.got.tgz:4750.got - 2010.06.03 14:59:27.
