data_PCOD9457620
_publ_section_title
;
Structure prediction by ZEFSAII (Michael W. Deem and Ramdas Pophale) SiO2 
 PCOD9457620
Probable space group: P B C N
;
_chemical_formula_sum "Si O2"
_cell_formula_units_Z 32
_cell_length_a 11.618709
_cell_length_b 8.187021
_cell_length_c 13.216283
_cell_angle_alpha 90.000000
_cell_angle_beta 90.000000
_cell_angle_gamma 90.000000
_cell_volume 1257.167394
_symmetry_space_group_name_H-M "P B C N"
_symmetry_group_IT_number 60
_symmetry_cell_setting 'orthorhombic'
loop_
_space_group_symop_operation_xyz
x,y,z
1/2-x,1/2-y,1/2+z
1/2+x,1/2-y,-z
-x,y,1/2-z
-x,-y,-z
1/2+x,1/2+y,1/2-z
1/2-x,1/2+y,z
x,-y,1/2+z
loop_
_atom_site_type_symbol
_atom_site_label
_atom_site_fract_x
_atom_site_fract_y
_atom_site_fract_z
Si Si1 0.356862 0.637891 0.794538
Si Si2 0.622842 0.141621 0.803619
Si Si3 0.052104 0.690199 0.100783
Si Si4 0.485235 0.367456 0.912957
O O1 0.221343 0.639290 0.779567
O O2 0.394203 0.677032 0.678622
O O3 0.417981 0.779578 0.863338
O O4 0.404301 0.463982 0.834187
O O5 0.500000 0.147817 0.750000
O O6 0.608226 0.300701 0.873883
O O7 0.613495 0.976965 0.868504
O O8 0.066367 0.721895 0.982168
O O9 0.500000 0.500000 0.000000
#
# Coordination Sequence:
#
# PCOD9457620 Si02
#       4
#     8   8   8   8
#     4  10  24  48  75 109 154 197 253 324 378 465
#     4  12  26  45  79 110 153 204 251 321 395 453
#     4  10  23  51  72 112 154 194 264 311 382 468
#     4  10  25  48  79 111 151 202 257 313 392 465
#
# _framework density 25.454046999999999
#
# number of rings (size 3 to 8) (size 9 to 14) (size 15 to 20)
#    0.000    1.500    2.500    0.750   10.500    0.000 
#   18.000    0.000    0.000    0.000    0.000    0.000 
#    0.000    0.000    0.000    0.000    0.000    0.000 
#
# Total GULP energy -178589.372062 kJ/mol
# GULP energy per Si atom -5580.917877 kJ/mol
# Density = 2.539611 g / cm^3
# Si number density = 25.454047 Si / 1000 Ang^3
#
#
#
# Elastic Constant Matrix: (Units=GPa)
#
#
# Indices 1 2 3 4 5 6 
#
# 1 150.0067 50.8940 45.4504 0.0000 0.0000 0.0000
# 2 50.8940 140.7504 47.4921 0.0000 0.0000 0.0000
# 3 45.4504 47.4921 118.9409 0.0000 0.0000 0.0000
# 4 0.0000 0.0000 0.0000 49.3665 0.0000 0.0000
# 5 0.0000 0.0000 0.0000 0.0000 22.3243 0.0000
# 6 0.0000 0.0000 0.0000 0.0000 0.0000 21.0336
#
#
#
# Elastic Compliance Matrix: (Units=1/GPa)
#
#
# Indices 1 2 3 4 5 6 
#
# 1 0.008075 -0.002171 -0.002219 0.000000 0.000000 0.000000
# 2 -0.002171 0.008795 -0.002682 0.000000 0.000000 0.000000
# 3 -0.002219 -0.002682 0.010326 0.000000 0.000000 0.000000
# 4 0.000000 0.000000 0.000000 0.020257 0.000000 0.000000
# 5 0.000000 0.000000 0.000000 0.000000 0.044794 0.000000
# 6 0.000000 0.000000 0.000000 0.000000 0.000000 0.047543
#
#
# Mechanical properties :
#
#
# Convention : Reuss Voigt Hill
#
# Bulk Modulus (GPa) = 76.61502 77.48565 77.05033
# Shear Modulus (GPa) = 31.58854 36.26899 33.92876
#
# Velocity S-wave (km/s) = 3.52661 3.77885 3.65491
# Velocity P-wave (km/s) = 6.83720 7.03897 6.93882
#
# Compressibility (1/GPa) = 0.01305227
#
# Stress axis : x y z
#
# Youngs Moduli (GPa) = 123.83415 113.70280 96.84008
#
# Poissons Ratio (x) = 0.24688 0.21487
# Poissons Ratio (y) = 0.26888 0.25973
# Poissons Ratio (z) = 0.27476 0.30495
#
# Static dielectric constant tensor:
#      x y z
#    x 2.135060 0.000000 0.000000 
#    y 0.000000 2.250870 0.000000 
#    z 0.000000 0.000000 2.307220 
# 
# From -- ./inp_files/15663.got.cif
#   From: 2010.05.17/outbox.cif.g08.bks.cpg/sg60_8_cif.got.tgz:15663.got - 2010.06.03 14:59:27.
