data_PCOD9457783
_publ_section_title
;
Structure prediction by ZEFSAII (Michael W. Deem and Ramdas Pophale) SiO2 
 PCOD9457783
Probable space group: P B C N
;
_chemical_formula_sum "Si O2"
_cell_formula_units_Z 24
_cell_length_a 6.276573
_cell_length_b 10.202768
_cell_length_c 17.004523
_cell_angle_alpha 90.000000
_cell_angle_beta 90.000000
_cell_angle_gamma 90.000000
_cell_volume 1088.942754
_symmetry_space_group_name_H-M "P B C N"
_symmetry_group_IT_number 60
_symmetry_cell_setting 'orthorhombic'
loop_
_space_group_symop_operation_xyz
x,y,z
1/2-x,1/2-y,1/2+z
1/2+x,1/2-y,-z
-x,y,1/2-z
-x,-y,-z
1/2+x,1/2+y,1/2-z
1/2-x,1/2+y,z
x,-y,1/2+z
loop_
_atom_site_type_symbol
_atom_site_label
_atom_site_fract_x
_atom_site_fract_y
_atom_site_fract_z
Si Si1 0.695288 0.934713 0.953457
Si Si2 0.910904 0.061476 0.613274
Si Si3 0.898263 0.330298 0.668332
O O1 0.586461 0.831971 0.896367
O O2 0.841500 0.890778 0.025722
O O3 0.841468 0.025703 0.897869
O O4 0.500000 0.000000 0.000000
O O5 0.839508 0.177245 0.671243
O O6 0.786165 0.928653 0.638886
O O7 0.000000 0.374544 0.750000
#
# Coordination Sequence:
#
# PCOD9457783 Si02
#       3
#     8   8   8
#     4   9  22  42  69  97 131 174 229 277 340 410
#     4  10  24  45  68  98 134 180 228 283 338 415
#     4  11  26  42  68 100 137 178 227 284 352 398
#
# _framework density 22.039726999999999
#
# number of rings (size 3 to 8) (size 9 to 14) (size 15 to 20)
#    0.000    2.000    0.000    0.000   18.667    2.667 
#    0.000    0.000    0.000    0.000    0.000    0.000 
#    0.000    0.000    0.000    0.000    0.000    0.000 
#
# Total GULP energy -133765.469188 kJ/mol
# GULP energy per Si atom -5573.561216 kJ/mol
# Density = 2.198956 g / cm^3
# Si number density = 22.039727 Si / 1000 Ang^3
#
#
#
# Elastic Constant Matrix: (Units=GPa)
#
#
# Indices 1 2 3 4 5 6 
#
# 1 96.2805 50.9186 15.6879 0.0000 0.0000 0.0000
# 2 50.9186 108.7654 17.2089 0.0000 0.0000 0.0000
# 3 15.6879 17.2089 65.7246 0.0000 0.0000 0.0000
# 4 0.0000 0.0000 0.0000 26.8941 0.0000 0.0000
# 5 0.0000 0.0000 0.0000 0.0000 26.3431 0.0000
# 6 0.0000 0.0000 0.0000 0.0000 0.0000 22.8999
#
#
#
# Elastic Compliance Matrix: (Units=1/GPa)
#
#
# Indices 1 2 3 4 5 6 
#
# 1 0.013982 -0.006278 -0.001694 0.000000 0.000000 0.000000
# 2 -0.006278 0.012410 -0.001751 0.000000 0.000000 0.000000
# 3 -0.001694 -0.001751 0.016078 0.000000 0.000000 0.000000
# 4 0.000000 0.000000 0.000000 0.037183 0.000000 0.000000
# 5 0.000000 0.000000 0.000000 0.000000 0.037961 0.000000
# 6 0.000000 0.000000 0.000000 0.000000 0.000000 0.043668
#
#
# Mechanical properties :
#
#
# Convention : Reuss Voigt Hill
#
# Bulk Modulus (GPa) = 43.43062 48.71124 46.07093
# Shear Modulus (GPa) = 26.53899 27.69110 27.11504
#
# Velocity S-wave (km/s) = 3.47384 3.54844 3.51134
# Velocity P-wave (km/s) = 5.98653 6.24004 6.11460
#
# Compressibility (1/GPa) = 0.02302523
#
# Stress axis : x y z
#
# Youngs Moduli (GPa) = 71.51852 80.57939 62.19784
#
# Poissons Ratio (x) = 0.50587 0.10535
# Poissons Ratio (y) = 0.44898 0.10890
# Poissons Ratio (z) = 0.12113 0.14109
#
# Static dielectric constant tensor:
#      x y z
#    x 1.857710 0.000000 0.000000 
#    y 0.000000 1.869580 0.000000 
#    z 0.000000 0.000000 1.830660 
# 
# From -- ./inp_files/14204.got.cif
#   From: 2010.05.17/outbox.cif.g08.bks.cpg/sg60_8_cif.got.tgz:14204.got - 2010.06.03 14:59:27.
