data_PCOD9457415
_publ_section_title
;
Structure prediction by ZEFSAII (Michael W. Deem and Ramdas Pophale) SiO2 
 PCOD9457415
Probable space group: P B C N
;
_chemical_formula_sum "Si O2"
_cell_formula_units_Z 36
_cell_length_a 19.171149
_cell_length_b 5.329739
_cell_length_c 14.300024
_cell_angle_alpha 90.000000
_cell_angle_beta 90.000000
_cell_angle_gamma 90.000000
_cell_volume 1461.136705
_symmetry_space_group_name_H-M "P B C N"
_symmetry_group_IT_number 60
_symmetry_cell_setting 'orthorhombic'
loop_
_space_group_symop_operation_xyz
x,y,z
1/2-x,1/2-y,1/2+z
1/2+x,1/2-y,-z
-x,y,1/2-z
-x,-y,-z
1/2+x,1/2+y,1/2-z
1/2-x,1/2+y,z
x,-y,1/2+z
loop_
_atom_site_type_symbol
_atom_site_label
_atom_site_fract_x
_atom_site_fract_y
_atom_site_fract_z
Si Si1 0.000000 0.127284 0.250000
Si Si2 0.938837 0.765541 0.406035
Si Si3 0.933788 0.387423 0.098161
Si Si4 0.710460 0.138456 0.105285
Si Si5 0.211624 0.379272 0.668365
O O1 0.064251 0.274201 0.297977
O O2 0.031872 0.969167 0.165256
O O3 0.932558 0.820655 0.516535
O O4 0.864343 0.679004 0.369919
O O5 0.994185 0.539186 0.402831
O O6 0.868536 0.567659 0.079460
O O7 0.760135 0.907391 0.074787
O O8 0.710838 0.134652 0.218669
O O9 0.237710 0.652541 0.638186
#
# Coordination Sequence:
#
# PCOD9457415 Si02
#       5
#     4   8   8   8   8
#     4  12  24  44  72 100 136 184 242 304 354 434
#     4  11  26  45  70 103 140 187 240 297 362 431
#     4  11  26  45  70 103 140 187 240 297 362 431
#     4  10  23  42  70 103 140 187 234 289 355 423
#     4  10  23  42  70 103 140 187 234 289 355 423
#
# _framework density 24.638354
#
# number of rings (size 3 to 8) (size 9 to 14) (size 15 to 20)
#    0.000    1.333    0.000    4.000   15.556    1.778 
#    0.000    0.000    0.000    0.000    0.000    0.000 
#    0.000    0.000    0.000    0.000    0.000    0.000 
#
# Total GULP energy -201675.601287 kJ/mol
# GULP energy per Si atom -5602.100036 kJ/mol
# Density = 2.458228 g / cm^3
# Si number density = 24.638354 Si / 1000 Ang^3
#
#
#
# Elastic Constant Matrix: (Units=GPa)
#
#
# Indices 1 2 3 4 5 6 
#
# 1 121.3028 5.6137 -9.9304 0.0000 0.0000 0.0000
# 2 5.6137 56.0412 18.0276 0.0000 0.0000 0.0000
# 3 -9.9304 18.0276 88.1207 0.0000 0.0000 0.0000
# 4 0.0000 0.0000 0.0000 37.3360 0.0000 0.0000
# 5 0.0000 0.0000 0.0000 0.0000 -0.3302 0.0000
# 6 0.0000 0.0000 0.0000 0.0000 0.0000 42.8509
#
#
#
# Elastic Compliance Matrix: (Units=1/GPa)
#
#
# Indices 1 2 3 4 5 6 
#
# 1 0.008399 -0.001226 0.001197 0.000000 0.000000 0.000000
# 2 -0.001226 0.019280 -0.004083 0.000000 0.000000 0.000000
# 3 0.001197 -0.004083 0.012318 0.000000 0.000000 0.000000
# 4 0.000000 0.000000 0.000000 0.026784 0.000000 0.000000
# 5 0.000000 0.000000 0.000000 0.000000 -3.028423 0.000000
# 6 0.000000 0.000000 0.000000 0.000000 0.000000 0.023337
#
#
# Mechanical properties :
#
#
# Convention : Reuss Voigt Hill
#
# Bulk Modulus (GPa) = 31.47254 32.54292 32.00773
# Shear Modulus (GPa) = -1.71263 32.75492 15.52115
#
# Velocity S-wave (km/s) = -0.83463 3.65009 2.51262
# Velocity P-wave (km/s) = 3.44568 5.56786 4.63000
#
# Compressibility (1/GPa) = 0.03177373
#
# Stress axis : x y z
#
# Youngs Moduli (GPa) = 119.06724 51.86679 81.18068
#
# Poissons Ratio (x) = 0.06361 -0.09720
# Poissons Ratio (y) = 0.14603 0.33142
# Poissons Ratio (z) = -0.14257 0.21175
#
# Static dielectric constant tensor:
#      x y z
#    x 1.882560 0.000000 0.000000 
#    y 0.000000 1.973360 0.000000 
#    z 0.000000 0.000000 2.034940 
# 
# From -- ./inp_files/17582.got.cif
#   From: 2010.05.17/outbox.cif.g08.bks.cpg/sg60_9_cif.got.tgz:17582.got - 2010.06.03 14:59:27.
