data_PCOD9457833
_publ_section_title
;
Structure prediction by ZEFSAII (Michael W. Deem and Ramdas Pophale) SiO2 
 PCOD9457833
Probable space group: P B C N
;
_chemical_formula_sum "Si O2"
_cell_formula_units_Z 32
_cell_length_a 15.796252
_cell_length_b 7.565729
_cell_length_c 9.635674
_cell_angle_alpha 90.000000
_cell_angle_beta 90.000000
_cell_angle_gamma 90.000000
_cell_volume 1151.560959
_symmetry_space_group_name_H-M "P B C N"
_symmetry_group_IT_number 60
_symmetry_cell_setting 'orthorhombic'
loop_
_space_group_symop_operation_xyz
x,y,z
1/2-x,1/2-y,1/2+z
1/2+x,1/2-y,-z
-x,y,1/2-z
-x,-y,-z
1/2+x,1/2+y,1/2-z
1/2-x,1/2+y,z
x,-y,1/2+z
loop_
_atom_site_type_symbol
_atom_site_label
_atom_site_fract_x
_atom_site_fract_y
_atom_site_fract_z
Si Si1 0.963262 0.790770 0.464279
Si Si2 0.709583 0.142161 0.781516
Si Si3 0.130705 0.431883 0.950366
Si Si4 0.621415 0.508046 0.710948
O O1 0.061050 0.724852 0.457092
O O2 0.071977 0.113581 0.671138
O O3 0.914148 0.607025 0.487087
O O4 0.935410 0.919053 0.590820
O O5 0.709806 0.101970 0.945766
O O6 0.795646 0.131723 0.692526
O O7 0.651809 0.998612 0.703185
O O8 0.666977 0.332530 0.771587
#
# Coordination Sequence:
#
# PCOD9457833 Si02
#       4
#     8   8   8   8
#     4  10  24  46  74 108 149 197 257 324 394 466
#     4  11  24  45  74 107 149 202 263 324 394 475
#     4  10  24  47  74 106 149 201 256 325 395 464
#     4  11  24  44  74 111 149 203 264 322 393 478
#
# _framework density 27.788371000000001
#
# number of rings (size 3 to 8) (size 9 to 14) (size 15 to 20)
#    0.000    1.500    0.000    3.000    0.000   18.000 
#    0.000    7.500    0.000    4.500    0.000    0.000 
#    0.000    0.000    0.000    0.000    0.000    0.000 
#
# Total GULP energy -179331.568810 kJ/mol
# GULP energy per Si atom -5604.111525 kJ/mol
# Density = 2.772512 g / cm^3
# Si number density = 27.788371 Si / 1000 Ang^3
#
#
#
# Elastic Constant Matrix: (Units=GPa)
#
#
# Indices 1 2 3 4 5 6 
#
# 1 132.9495 48.5390 58.7477 0.0000 0.0000 0.0000
# 2 48.5390 200.8532 50.9458 0.0000 0.0000 0.0000
# 3 58.7477 50.9458 181.3613 0.0000 0.0000 0.0000
# 4 0.0000 0.0000 0.0000 50.2082 0.0000 0.0000
# 5 0.0000 0.0000 0.0000 0.0000 53.1307 0.0000
# 6 0.0000 0.0000 0.0000 0.0000 0.0000 53.9170
#
#
#
# Elastic Compliance Matrix: (Units=1/GPa)
#
#
# Indices 1 2 3 4 5 6 
#
# 1 0.009224 -0.001584 -0.002543 0.000000 0.000000 0.000000
# 2 -0.001584 0.005633 -0.001069 0.000000 0.000000 0.000000
# 3 -0.002543 -0.001069 0.006638 0.000000 0.000000 0.000000
# 4 0.000000 0.000000 0.000000 0.019917 0.000000 0.000000
# 5 0.000000 0.000000 0.000000 0.000000 0.018821 0.000000
# 6 0.000000 0.000000 0.000000 0.000000 0.000000 0.018547
#
#
# Mechanical properties :
#
#
# Convention : Reuss Voigt Hill
#
# Bulk Modulus (GPa) = 90.07220 92.40321 91.23771
# Shear Modulus (GPa) = 53.83722 55.24662 54.54192
#
# Velocity S-wave (km/s) = 4.40637 4.46367 4.43511
# Velocity P-wave (km/s) = 7.64016 7.73889 7.68969
#
# Compressibility (1/GPa) = 0.01110220
#
# Stress axis : x y z
#
# Youngs Moduli (GPa) = 108.41775 177.53288 150.65066
#
# Poissons Ratio (x) = 0.28122 0.38307
# Poissons Ratio (y) = 0.17174 0.16107
# Poissons Ratio (z) = 0.27568 0.18981
#
# Static dielectric constant tensor:
#      x y z
#    x 2.280770 0.000000 0.000000 
#    y 0.000000 2.218820 0.000000 
#    z 0.000000 0.000000 2.092910 
# 
# From -- ./inp_files/10558.got.cif
#   From: 2010.05.17/outbox.cif.g08.bks.cpg/sg60_6_cif.got.tgz:10558.got - 2010.06.03 14:59:27.
