data_PCOD9457035
_publ_section_title
;
Structure prediction by ZEFSAII (Michael W. Deem and Ramdas Pophale) SiO2 
 PCOD9457035
Probable space group: P B C N
;
_chemical_formula_sum "Si O2"
_cell_formula_units_Z 40
_cell_length_a 10.847543
_cell_length_b 16.287970
_cell_length_c 9.274641
_cell_angle_alpha 90.000000
_cell_angle_beta 90.000000
_cell_angle_gamma 90.000000
_cell_volume 1638.684890
_symmetry_space_group_name_H-M "P B C N"
_symmetry_group_IT_number 60
_symmetry_cell_setting 'orthorhombic'
loop_
_space_group_symop_operation_xyz
x,y,z
1/2-x,1/2-y,1/2+z
1/2+x,1/2-y,-z
-x,y,1/2-z
-x,-y,-z
1/2+x,1/2+y,1/2-z
1/2-x,1/2+y,z
x,-y,1/2+z
loop_
_atom_site_type_symbol
_atom_site_label
_atom_site_fract_x
_atom_site_fract_y
_atom_site_fract_z
Si Si1 0.863180 0.490603 0.816100
Si Si2 0.143407 0.679910 0.297390
Si Si3 0.013031 0.087048 0.922510
Si Si4 0.689063 0.276415 0.467220
Si Si5 0.705104 0.105375 0.588113
O O1 0.805479 0.409081 0.744674
O O2 0.802027 0.571588 0.750993
O O3 0.000000 0.495009 0.750000
O O4 0.851839 0.466510 0.983793
O O5 0.184188 0.696234 0.458627
O O6 0.000000 0.682744 0.250000
O O7 0.204424 0.748543 0.197079
O O8 0.152133 0.115570 0.951542
O O9 0.000000 0.078501 0.750000
O O10 0.913088 0.152950 0.975826
O O11 0.000000 0.000000 0.000000
O O12 0.644117 0.191847 0.546337
#
# Coordination Sequence:
#
# PCOD9457035 Si02
#       5
#     8   8   8   8   8
#     4  10  22  42  66  95 132 176 228 286 347 421
#     4  10  22  43  67  95 138 185 235 295 356 426
#     4  12  26  47  73 106 148 190 239 304 369 436
#     4  11  23  42  68  99 139 186 235 291 358 428
#     4  11  23  42  69 101 137 183 233 288 357 425
#
# _framework density 24.409818000000001
#
# number of rings (size 3 to 8) (size 9 to 14) (size 15 to 20)
#    0.000    1.200    0.000    6.000    0.000    4.000 
#    0.000   14.000    0.000    0.000    0.000    0.000 
#    0.000    0.000    0.000    0.000    0.000    0.000 
#
# Total GULP energy -223758.244135 kJ/mol
# GULP energy per Si atom -5593.956103 kJ/mol
# Density = 2.435426 g / cm^3
# Si number density = 24.409818 Si / 1000 Ang^3
#
#
#
# Elastic Constant Matrix: (Units=GPa)
#
#
# Indices 1 2 3 4 5 6 
#
# 1 119.5811 47.1979 45.4872 0.0000 0.0000 0.0000
# 2 47.1979 179.1176 54.2029 0.0000 0.0000 0.0000
# 3 45.4872 54.2029 114.7399 0.0000 0.0000 0.0000
# 4 0.0000 0.0000 0.0000 49.3191 0.0000 0.0000
# 5 0.0000 0.0000 0.0000 0.0000 32.7149 0.0000
# 6 0.0000 0.0000 0.0000 0.0000 0.0000 31.1702
#
#
#
# Elastic Compliance Matrix: (Units=1/GPa)
#
#
# Indices 1 2 3 4 5 6 
#
# 1 0.010284 -0.001722 -0.003263 0.000000 0.000000 0.000000
# 2 -0.001722 0.006803 -0.002531 0.000000 0.000000 0.000000
# 3 -0.003263 -0.002531 0.011205 0.000000 0.000000 0.000000
# 4 0.000000 0.000000 0.000000 0.020276 0.000000 0.000000
# 5 0.000000 0.000000 0.000000 0.000000 0.030567 0.000000
# 6 0.000000 0.000000 0.000000 0.000000 0.000000 0.032082
#
#
# Mechanical properties :
#
#
# Convention : Reuss Voigt Hill
#
# Bulk Modulus (GPa) = 75.42469 78.57940 77.00205
# Shear Modulus (GPa) = 38.26502 40.41090 39.33796
#
# Velocity S-wave (km/s) = 3.96360 4.07322 4.01878
# Velocity P-wave (km/s) = 7.20508 7.37449 7.29028
#
# Compressibility (1/GPa) = 0.01325826
#
# Stress axis : x y z
#
# Youngs Moduli (GPa) = 97.24249 147.00310 89.24956
#
# Poissons Ratio (x) = 0.25318 0.29124
# Poissons Ratio (y) = 0.16748 0.22587
# Poissons Ratio (z) = 0.31732 0.37203
#
# Static dielectric constant tensor:
#      x y z
#    x 1.957150 0.000000 0.000000 
#    y 0.000000 2.014200 0.000000 
#    z 0.000000 0.000000 1.965190 
# 
# From -- ./inp_files/4732.got.cif
#   From: 2010.05.17/outbox.cif.g08.bks.cpg/sg60_3_cif.got.tgz:4732.got - 2010.06.03 14:59:27.
