data_PCOD9457322
_publ_section_title
;
Structure prediction by ZEFSAII (Michael W. Deem and Ramdas Pophale) SiO2 
 PCOD9457322
Probable space group: P B C N
;
_chemical_formula_sum "Si O2"
_cell_formula_units_Z 64
_cell_length_a 8.547616
_cell_length_b 23.610156
_cell_length_c 14.149200
_cell_angle_alpha 90.000000
_cell_angle_beta 90.000000
_cell_angle_gamma 90.000000
_cell_volume 2855.457794
_symmetry_space_group_name_H-M "P B C N"
_symmetry_group_IT_number 60
_symmetry_cell_setting 'orthorhombic'
loop_
_space_group_symop_operation_xyz
x,y,z
1/2-x,1/2-y,1/2+z
1/2+x,1/2-y,-z
-x,y,1/2-z
-x,-y,-z
1/2+x,1/2+y,1/2-z
1/2-x,1/2+y,z
x,-y,1/2+z
loop_
_atom_site_type_symbol
_atom_site_label
_atom_site_fract_x
_atom_site_fract_y
_atom_site_fract_z
Si Si1 0.482387 0.111021 0.537060
Si Si2 0.300459 0.600527 0.435249
Si Si3 0.679422 0.298841 0.715259
Si Si4 0.861783 0.038806 0.421288
Si Si5 0.164767 0.673050 0.799455
Si Si6 0.876408 0.378176 0.831657
Si Si7 0.325103 0.566530 0.711927
Si Si8 0.832598 0.483674 0.107211
O O1 0.295027 0.120736 0.529091
O O2 0.604496 0.143609 0.604676
O O3 0.543700 0.126469 0.433260
O O4 0.506322 0.046684 0.577108
O O5 0.309189 0.654328 0.367057
O O6 0.469076 0.568952 0.432288
O O7 0.184916 0.550490 0.400105
O O8 0.500000 0.299734 0.750000
O O9 0.731258 0.235789 0.685312
O O10 0.791374 0.321124 0.798181
O O11 0.759538 0.075889 0.348757
O O12 0.783994 0.039070 0.524990
O O13 0.849874 0.975223 0.378655
O O14 0.259983 0.630264 0.732002
O O15 0.000000 0.682524 0.750000
O O16 0.000000 0.392803 0.750000
O O17 0.500000 0.569165 0.750000
O O18 0.217084 0.533476 0.788193
#
# Coordination Sequence:
#
# PCOD9457322 Si02
#       8
#     8   8   8   8   8   8   8   8
#     4  10  24  43  64  99 141 177 219 280 353 427
#     4  12  21  39  70  99 133 171 226 284 351 410
#     4  11  23  45  69  94 130 177 233 292 333 406
#     4  11  24  39  66 104 136 177 221 286 354 418
#     4  10  26  49  64  91 137 186 235 278 341 415
#     4  11  22  40  67 103 137 169 225 289 351 409
#     4  11  23  40  65  93 133 179 224 274 343 420
#     4  10  23  40  62  98 141 167 216 281 347 426
#
# _framework density 22.413219000000002
#
# number of rings (size 3 to 8) (size 9 to 14) (size 15 to 20)
#    0.000    1.250    3.750    1.500    1.750    1.000 
#    4.500    0.000    0.000    0.000    0.000    0.000 
#    0.000    0.000    0.000    0.000    0.000    0.000 
#
# Total GULP energy -356913.330981 kJ/mol
# GULP energy per Si atom -5576.770797 kJ/mol
# Density = 2.236221 g / cm^3
# Si number density = 22.413219 Si / 1000 Ang^3
#
#
#
# Elastic Constant Matrix: (Units=GPa)
#
#
# Indices 1 2 3 4 5 6 
#
# 1 113.0202 35.4995 46.7241 0.0000 0.0000 0.0000
# 2 35.4995 141.2302 45.9226 0.0000 0.0000 0.0000
# 3 46.7241 45.9226 126.5843 0.0000 0.0000 0.0000
# 4 0.0000 0.0000 0.0000 43.1504 0.0000 0.0000
# 5 0.0000 0.0000 0.0000 0.0000 37.7198 0.0000
# 6 0.0000 0.0000 0.0000 0.0000 0.0000 15.4848
#
#
#
# Elastic Compliance Matrix: (Units=1/GPa)
#
#
# Indices 1 2 3 4 5 6 
#
# 1 0.010751 -0.001601 -0.003388 0.000000 0.000000 0.000000
# 2 -0.001601 0.008266 -0.002408 0.000000 0.000000 0.000000
# 3 -0.003388 -0.002408 0.010024 0.000000 0.000000 0.000000
# 4 0.000000 0.000000 0.000000 0.023175 0.000000 0.000000
# 5 0.000000 0.000000 0.000000 0.000000 0.026511 0.000000
# 6 0.000000 0.000000 0.000000 0.000000 0.000000 0.064580
#
#
# Mechanical properties :
#
#
# Convention : Reuss Voigt Hill
#
# Bulk Modulus (GPa) = 70.18387 70.79190 70.48788
# Shear Modulus (GPa) = 30.70329 36.11691 33.41010
#
# Velocity S-wave (km/s) = 3.70520 4.01859 3.86507
# Velocity P-wave (km/s) = 7.04885 7.29284 7.17188
#
# Compressibility (1/GPa) = 0.01424829
#
# Stress axis : x y z
#
# Youngs Moduli (GPa) = 93.01170 120.97787 99.76217
#
# Poissons Ratio (x) = 0.19367 0.33796
# Poissons Ratio (y) = 0.14890 0.24021
# Poissons Ratio (z) = 0.31510 0.29129
#
# Static dielectric constant tensor:
#      x y z
#    x 1.843050 0.000000 0.000000 
#    y 0.000000 1.915300 0.000000 
#    z 0.000000 0.000000 1.740950 
# 
# From -- ./inp_files/15411.got.cif
#   From: 2010.05.17/outbox.cif.g08.bks.cpg/sg60_8_cif.got.tgz:15411.got - 2010.06.03 14:59:27.
