data_PCOD9457274
_publ_section_title
;
Structure prediction by ZEFSAII (Michael W. Deem and Ramdas Pophale) SiO2 
 PCOD9457274
Probable space group: P B C N
;
_chemical_formula_sum "Si O2"
_cell_formula_units_Z 52
_cell_length_a 23.818125
_cell_length_b 11.863218
_cell_length_c 8.236974
_cell_angle_alpha 90.000000
_cell_angle_beta 90.000000
_cell_angle_gamma 90.000000
_cell_volume 2327.436155
_symmetry_space_group_name_H-M "P B C N"
_symmetry_group_IT_number 60
_symmetry_cell_setting 'orthorhombic'
loop_
_space_group_symop_operation_xyz
x,y,z
1/2-x,1/2-y,1/2+z
1/2+x,1/2-y,-z
-x,y,1/2-z
-x,-y,-z
1/2+x,1/2+y,1/2-z
1/2-x,1/2+y,z
x,-y,1/2+z
loop_
_atom_site_type_symbol
_atom_site_label
_atom_site_fract_x
_atom_site_fract_y
_atom_site_fract_z
Si Si1 0.899743 0.349732 0.430910
Si Si2 0.153184 0.532179 0.876851
Si Si3 0.175539 0.755307 0.069223
Si Si4 0.751016 0.135727 0.213755
Si Si5 0.643892 0.382718 0.918196
Si Si6 0.088283 0.900187 0.934415
Si Si7 0.500000 0.724322 0.250000
O O1 0.895964 0.446237 0.566953
O O2 0.863771 0.402015 0.284318
O O3 0.867172 0.239233 0.493266
O O4 0.956969 0.305588 0.348014
O O5 0.163102 0.628521 0.010207
O O6 0.209268 0.461205 0.844590
O O7 0.211490 0.821650 0.934651
O O8 0.116711 0.820585 0.070285
O O9 0.214386 0.741368 0.224158
O O10 0.791501 0.098589 0.364618
O O11 0.614890 0.377133 0.741829
O O12 0.610007 0.476776 0.016685
O O13 0.026030 0.858059 0.890058
#
# Coordination Sequence:
#
# PCOD9457274 Si02
#       7
#     8   8   8   8   8   8   4
#     4  11  24  45  66  96 131 170 231 276 337 393
#     4  12  23  42  62  98 134 175 215 278 322 420
#     4  11  24  41  60  98 130 176 220 263 327 411
#     4  11  24  36  67  91 141 176 211 261 339 398
#     4  10  23  41  63 101 130 172 219 269 327 417
#     4  10  23  41  66  93 132 166 223 276 332 391
#     4  10  22  48  72  92 130 178 216 300 346 374
#
# _framework density 22.342179999999999
#
# number of rings (size 3 to 8) (size 9 to 14) (size 15 to 20)
#    0.000    1.231    6.154    0.923    6.462    4.308 
#    0.000    0.000    0.000    8.308    0.000    0.000 
#    0.000    0.000    0.000    0.000    0.000    0.000 
#
# Total GULP energy -290210.837598 kJ/mol
# GULP energy per Si atom -5580.977646 kJ/mol
# Density = 2.229133 g / cm^3
# Si number density = 22.342180 Si / 1000 Ang^3
#
#
#
# Elastic Constant Matrix: (Units=GPa)
#
#
# Indices 1 2 3 4 5 6 
#
# 1 94.0475 50.8675 21.1728 0.0000 0.0000 0.0000
# 2 50.8675 137.1993 11.0774 0.0000 0.0000 0.0000
# 3 21.1728 11.0774 -18.2160 0.0000 0.0000 0.0000
# 4 0.0000 0.0000 0.0000 36.5934 0.0000 0.0000
# 5 0.0000 0.0000 0.0000 0.0000 20.0438 0.0000
# 6 0.0000 0.0000 0.0000 0.0000 0.0000 39.4494
#
#
#
# Elastic Compliance Matrix: (Units=1/GPa)
#
#
# Indices 1 2 3 4 5 6 
#
# 1 0.011059 -0.004897 0.009875 0.000000 0.000000 0.000000
# 2 -0.004897 0.009116 -0.000148 0.000000 0.000000 0.000000
# 3 0.009875 -0.000148 -0.043509 0.000000 0.000000 0.000000
# 4 0.000000 0.000000 0.000000 0.027327 0.000000 0.000000
# 5 0.000000 0.000000 0.000000 0.000000 0.049891 0.000000
# 6 0.000000 0.000000 0.000000 0.000000 0.000000 0.025349
#
#
# Mechanical properties :
#
#
# Convention : Reuss Voigt Hill
#
# Bulk Modulus (GPa) = -73.12748 42.14069 -15.49340
# Shear Modulus (GPa) = 76.90445 27.87822 52.39133
#
# Velocity S-wave (km/s) = 5.87332 3.53623 4.84772
# Velocity P-wave (km/s) = 3.63219 5.96454 4.93804
#
# Compressibility (1/GPa) = -0.01367475
#
# Stress axis : x y z
#
# Youngs Moduli (GPa) = 90.42792 109.69275 -22.98390
#
# Poissons Ratio (x) = 0.53720 0.22697
# Poissons Ratio (y) = 0.44286 -0.00341
# Poissons Ratio (z) = -0.89301 0.01629
#
# Static dielectric constant tensor:
#      x y z
#    x 1.957940 0.000000 0.000000 
#    y 0.000000 1.874140 0.000000 
#    z 0.000000 0.000000 1.864190 
# 
# From -- ./inp_files/8128.got.cif
#   From: 2010.05.17/outbox.cif.g08.bks.cpg/sg60_5_cif.got.tgz:8128.got - 2010.06.03 14:59:27.
