data_PCOD9457260
_publ_section_title
;
Structure prediction by ZEFSAII (Michael W. Deem and Ramdas Pophale) SiO2 
 PCOD9457260
Probable space group: P B C N
;
_chemical_formula_sum "Si O2"
_cell_formula_units_Z 64
_cell_length_a 5.501207
_cell_length_b 15.668481
_cell_length_c 32.298052
_cell_angle_alpha 90.000000
_cell_angle_beta 90.000000
_cell_angle_gamma 90.000000
_cell_volume 2783.948594
_symmetry_space_group_name_H-M "P B C N"
_symmetry_group_IT_number 60
_symmetry_cell_setting 'orthorhombic'
loop_
_space_group_symop_operation_xyz
x,y,z
1/2-x,1/2-y,1/2+z
1/2+x,1/2-y,-z
-x,y,1/2-z
-x,-y,-z
1/2+x,1/2+y,1/2-z
1/2-x,1/2+y,z
x,-y,1/2+z
loop_
_atom_site_type_symbol
_atom_site_label
_atom_site_fract_x
_atom_site_fract_y
_atom_site_fract_z
Si Si1 0.533095 0.340482 0.409393
Si Si2 0.842041 0.804936 0.499414
Si Si3 0.220561 0.005126 0.861368
Si Si4 0.505252 0.123803 0.700532
Si Si5 0.267777 0.171563 0.226148
Si Si6 0.395085 0.251134 0.644172
Si Si7 0.629549 0.495272 0.293390
Si Si8 0.744428 0.156743 0.089556
O O1 0.601697 0.355073 0.457246
O O2 0.376783 0.418344 0.390786
O O3 0.775995 0.322883 0.383334
O O4 0.407558 0.245611 0.407645
O O5 0.590022 0.750943 0.492994
O O6 0.793155 0.857993 0.541108
O O7 0.344091 0.928817 0.887196
O O8 0.004558 0.967286 0.833226
O O9 0.365626 0.047477 0.823388
O O10 0.500000 0.130352 0.750000
O O11 0.589130 0.205622 0.674960
O O12 0.226382 0.096617 0.693345
O O13 0.500000 0.208121 0.250000
O O14 0.269370 0.209723 0.180070
O O15 0.307911 0.070954 0.219753
O O16 0.000000 0.178651 0.250000
O O17 0.507791 0.317284 0.612664
O O18 0.500000 0.478572 0.250000
#
# Coordination Sequence:
#
# PCOD9457260 Si02
#       8
#     8   8   8   8   8   8   8   8
#     4  11  25  44  72 102 143 181 239 302 365 449
#     4  10  22  46  77 108 146 190 232 301 378 436
#     4  12  25  43  70 103 139 191 248 298 368 434
#     4  12  25  41  64  94 141 190 240 304 359 420
#     4  11  27  43  65 100 138 186 243 300 352 422
#     4  12  24  41  68  97 139 187 240 298 360 432
#     4  11  23  39  61  90 134 187 233 296 355 416
#     4  11  25  45  72 104 141 186 243 294 370 439
#
# _framework density 22.988928000000001
#
# number of rings (size 3 to 8) (size 9 to 14) (size 15 to 20)
#    0.000    0.750    6.250    0.750    5.250    2.000 
#    0.000    0.000    0.000    4.500    0.000    0.000 
#    0.000    0.000    0.000    0.000    0.000    0.000 
#
# Total GULP energy -356390.001420 kJ/mol
# GULP energy per Si atom -5568.593772 kJ/mol
# Density = 2.293660 g / cm^3
# Si number density = 22.988928 Si / 1000 Ang^3
#
#
#
# Elastic Constant Matrix: (Units=GPa)
#
#
# Indices 1 2 3 4 5 6 
#
# 1 42.8076 3.5444 17.0513 0.0000 0.0000 0.0000
# 2 3.5444 76.2434 38.7081 0.0000 0.0000 0.0000
# 3 17.0513 38.7081 191.4106 0.0000 0.0000 0.0000
# 4 0.0000 0.0000 0.0000 14.5932 0.0000 0.0000
# 5 0.0000 0.0000 0.0000 0.0000 26.4566 0.0000
# 6 0.0000 0.0000 0.0000 0.0000 0.0000 19.0716
#
#
#
# Elastic Compliance Matrix: (Units=1/GPa)
#
#
# Indices 1 2 3 4 5 6 
#
# 1 0.024220 -0.000034 -0.002151 0.000000 0.000000 0.000000
# 2 -0.000034 0.014617 -0.002953 0.000000 0.000000 0.000000
# 3 -0.002151 -0.002953 0.006013 0.000000 0.000000 0.000000
# 4 0.000000 0.000000 0.000000 0.068525 0.000000 0.000000
# 5 0.000000 0.000000 0.000000 0.000000 0.037798 0.000000
# 6 0.000000 0.000000 0.000000 0.000000 0.000000 0.052434
#
#
# Mechanical properties :
#
#
# Convention : Reuss Voigt Hill
#
# Bulk Modulus (GPa) = 28.92313 47.67438 38.29875
# Shear Modulus (GPa) = 22.18216 28.76812 25.47514
#
# Velocity S-wave (km/s) = 3.10966 3.54134 3.33250
# Velocity P-wave (km/s) = 5.04995 6.12409 5.61277
#
# Compressibility (1/GPa) = 0.03457440
#
# Stress axis : x y z
#
# Youngs Moduli (GPa) = 41.28852 68.41544 166.30372
#
# Poissons Ratio (x) = 0.00233 0.35767
# Poissons Ratio (y) = 0.00141 0.49106
# Poissons Ratio (z) = 0.08880 0.20202
#
# Static dielectric constant tensor:
#      x y z
#    x 2.102890 0.000000 0.000000 
#    y 0.000000 1.922120 0.000000 
#    z 0.000000 0.000000 1.886960 
# 
# From -- ./inp_files/25802.got.cif
#   From: 2010.05.17/outbox.cif.g08.bks.cpg/sg60_13_cif.got.tgz:25802.got - 2010.06.03 14:59:27.
