data_PCOD9457640
_publ_section_title
;
Structure prediction by ZEFSAII (Michael W. Deem and Ramdas Pophale) SiO2 
 PCOD9457640
Probable space group: P B C N
;
_chemical_formula_sum "Si O2"
_cell_formula_units_Z 36
_cell_length_a 22.646782
_cell_length_b 14.191990
_cell_length_c 5.034879
_cell_angle_alpha 90.000000
_cell_angle_beta 90.000000
_cell_angle_gamma 90.000000
_cell_volume 1618.224730
_symmetry_space_group_name_H-M "P B C N"
_symmetry_group_IT_number 60
_symmetry_cell_setting 'orthorhombic'
loop_
_space_group_symop_operation_xyz
x,y,z
1/2-x,1/2-y,1/2+z
1/2+x,1/2-y,-z
-x,y,1/2-z
-x,-y,-z
1/2+x,1/2+y,1/2-z
1/2-x,1/2+y,z
x,-y,1/2+z
loop_
_atom_site_type_symbol
_atom_site_label
_atom_site_fract_x
_atom_site_fract_y
_atom_site_fract_z
Si Si1 0.173037 0.317715 0.888992
Si Si2 0.873547 0.791197 0.617135
Si Si3 0.284295 0.562468 0.494478
Si Si4 0.064669 0.438237 0.931232
Si Si5 0.000000 0.277460 0.250000
O O1 0.152904 0.280956 0.601571
O O2 0.239350 0.352722 0.925662
O O3 0.132650 0.408041 0.953130
O O4 0.154158 0.238571 0.100299
O O5 0.849174 0.893287 0.540080
O O6 0.944301 0.779408 0.633710
O O7 0.274705 0.521692 0.786454
O O8 0.054664 0.477031 0.637326
O O9 0.029765 0.346426 0.031673
#
# Coordination Sequence:
#
# PCOD9457640 Si02
#       5
#     8   8   8   8   4
#     4  11  22  40  64  92 124 160 196 247 313 378
#     4  11  24  42  63  90 123 165 206 246 302 369
#     4  12  24  42  65  93 122 157 205 262 308 353
#     4  11  21  35  56  89 122 154 192 240 297 362
#     4  10  24  40  60  86 126 172 210 246 296 366
#
# _framework density 22.246600000000001
#
# number of rings (size 3 to 8) (size 9 to 14) (size 15 to 20)
#    0.000    0.889    0.000    8.667    0.000    7.111 
#    0.000    1.111    0.000    0.000    0.000    0.000 
#    0.000    0.000    0.000    0.000    0.000    0.000 
#
# Total GULP energy -201526.710046 kJ/mol
# GULP energy per Si atom -5597.964168 kJ/mol
# Density = 2.219597 g / cm^3
# Si number density = 22.246600 Si / 1000 Ang^3
#
#
#
# Elastic Constant Matrix: (Units=GPa)
#
#
# Indices 1 2 3 4 5 6 
#
# 1 131.8025 21.7226 5.7300 0.0000 0.0000 0.0000
# 2 21.7226 19.0931 -5.6022 0.0000 0.0000 0.0000
# 3 5.7300 -5.6022 72.9769 0.0000 0.0000 0.0000
# 4 0.0000 0.0000 0.0000 11.2079 0.0000 0.0000
# 5 0.0000 0.0000 0.0000 0.0000 27.2260 0.0000
# 6 0.0000 0.0000 0.0000 0.0000 0.0000 40.5307
#
#
#
# Elastic Compliance Matrix: (Units=1/GPa)
#
#
# Indices 1 2 3 4 5 6 
#
# 1 0.009521 -0.011306 -0.001615 0.000000 0.000000 0.000000
# 2 -0.011306 0.067007 0.006032 0.000000 0.000000 0.000000
# 3 -0.001615 0.006032 0.014293 0.000000 0.000000 0.000000
# 4 0.000000 0.000000 0.000000 0.089223 0.000000 0.000000
# 5 0.000000 0.000000 0.000000 0.000000 0.036730 0.000000
# 6 0.000000 0.000000 0.000000 0.000000 0.000000 0.024673
#
#
# Mechanical properties :
#
#
# Convention : Reuss Voigt Hill
#
# Bulk Modulus (GPa) = 12.98000 29.73039 21.35520
# Shear Modulus (GPa) = 17.79954 29.26106 23.53030
#
# Velocity S-wave (km/s) = 2.83168 3.63065 3.25576
# Velocity P-wave (km/s) = 4.06675 5.56493 4.87375
#
# Compressibility (1/GPa) = 0.07704159
#
# Stress axis : x y z
#
# Youngs Moduli (GPa) = 105.03460 14.92372 69.96516
#
# Poissons Ratio (x) = 0.16873 0.11303
# Poissons Ratio (y) = 1.18750 -0.42200
# Poissons Ratio (z) = 0.16968 -0.09001
#
# Static dielectric constant tensor:
#      x y z
#    x 1.898850 0.000000 0.000000 
#    y 0.000000 1.781530 0.000000 
#    z 0.000000 0.000000 1.808210 
# 
# From -- ./inp_files/1973.got.cif
#   From: 2010.05.17/outbox.cif.g08.bks.cpg/sg60_1_cif.got.tgz:1973.got - 2010.06.03 14:59:27.
