data_PCOD9457656
_publ_section_title
;
Structure prediction by ZEFSAII (Michael W. Deem and Ramdas Pophale) SiO2 
 PCOD9457656
Probable space group: P B C N
;
_chemical_formula_sum "Si O2"
_cell_formula_units_Z 36
_cell_length_a 8.435106
_cell_length_b 21.785779
_cell_length_c 7.439904
_cell_angle_alpha 90.000000
_cell_angle_beta 90.000000
_cell_angle_gamma 90.000000
_cell_volume 1367.196601
_symmetry_space_group_name_H-M "P B C N"
_symmetry_group_IT_number 60
_symmetry_cell_setting 'orthorhombic'
loop_
_space_group_symop_operation_xyz
x,y,z
1/2-x,1/2-y,1/2+z
1/2+x,1/2-y,-z
-x,y,1/2-z
-x,-y,-z
1/2+x,1/2+y,1/2-z
1/2-x,1/2+y,z
x,-y,1/2+z
loop_
_atom_site_type_symbol
_atom_site_label
_atom_site_fract_x
_atom_site_fract_y
_atom_site_fract_z
Si Si1 0.500000 0.525516 0.750000
Si Si2 0.106973 0.201810 0.501328
Si Si3 0.247231 0.175163 0.882399
Si Si4 0.472420 0.928365 0.460561
Si Si5 0.312281 0.417198 0.912692
O O1 0.641247 0.477916 0.698498
O O2 0.580890 0.566236 0.906466
O O3 0.224625 0.181559 0.666022
O O4 0.137307 0.270842 0.444314
O O5 0.137736 0.150082 0.352551
O O6 0.927009 0.193392 0.556800
O O7 0.310430 0.111232 0.971251
O O8 0.500000 0.919883 0.250000
O O9 0.625036 0.906915 0.569561
O O10 0.500000 0.000000 0.500000
#
# Coordination Sequence:
#
# PCOD9457656 Si02
#       5
#     4   8   8   8   8
#     4  10  24  40  70 104 142 190 252 300 378 444
#     4  11  25  47  76 104 152 192 253 316 382 461
#     4  11  26  48  72 112 144 197 250 319 385 452
#     4  12  26  47  74 106 155 200 253 318 380 462
#     4  11  23  43  69 102 143 192 241 311 374 449
#
# _framework density 26.331251999999999
#
# number of rings (size 3 to 8) (size 9 to 14) (size 15 to 20)
#    0.000    0.889    2.222    4.000    6.222    1.778 
#    8.000    0.000    0.000    0.000    0.000    0.000 
#    0.000    0.000    0.000    0.000    0.000    0.000 
#
# Total GULP energy -201027.338708 kJ/mol
# GULP energy per Si atom -5584.092742 kJ/mol
# Density = 2.627132 g / cm^3
# Si number density = 26.331252 Si / 1000 Ang^3
#
#
#
# Elastic Constant Matrix: (Units=GPa)
#
#
# Indices 1 2 3 4 5 6 
#
# 1 157.7321 53.0709 27.2673 0.0000 0.0000 0.0000
# 2 53.0709 155.3000 9.5530 0.0000 0.0000 0.0000
# 3 27.2673 9.5530 50.1364 0.0000 0.0000 0.0000
# 4 0.0000 0.0000 0.0000 0.4581 0.0000 0.0000
# 5 0.0000 0.0000 0.0000 0.0000 45.4045 0.0000
# 6 0.0000 0.0000 0.0000 0.0000 0.0000 55.8979
#
#
#
# Elastic Compliance Matrix: (Units=1/GPa)
#
#
# Indices 1 2 3 4 5 6 
#
# 1 0.007814 -0.002438 -0.003786 0.000000 0.000000 0.000000
# 2 -0.002438 0.007276 -0.000061 0.000000 0.000000 0.000000
# 3 -0.003786 -0.000061 0.022016 0.000000 0.000000 0.000000
# 4 0.000000 0.000000 0.000000 2.182918 0.000000 0.000000
# 5 0.000000 0.000000 0.000000 0.000000 0.022024 0.000000
# 6 0.000000 0.000000 0.000000 0.000000 0.000000 0.017890
#
#
# Mechanical properties :
#
#
# Convention : Reuss Voigt Hill
#
# Bulk Modulus (GPa) = 40.75184 60.32789 50.53987
# Shear Modulus (GPa) = 2.19232 38.57060 20.38146
#
# Velocity S-wave (km/s) = 0.91346 3.83145 2.78518
# Velocity P-wave (km/s) = 4.07710 6.52183 5.43861
#
# Compressibility (1/GPa) = 0.02453877
#
# Stress axis : x y z
#
# Youngs Moduli (GPa) = 127.96852 137.44052 45.42166
#
# Poissons Ratio (x) = 0.33502 0.17194
# Poissons Ratio (y) = 0.31193 0.00275
# Poissons Ratio (z) = 0.48443 0.00833
#
# Static dielectric constant tensor:
#      x y z
#    x 2.241070 0.000000 0.000000 
#    y 0.000000 2.074680 0.000000 
#    z 0.000000 0.000000 2.313960 
# 
# From -- ./inp_files/3706.got.cif
#   From: 2010.05.17/outbox.cif.g08.bks.cpg/sg60_2_cif.got.tgz:3706.got - 2010.06.03 14:59:27.
