data_PCOD9457067
_publ_section_title
;
Structure prediction by ZEFSAII (Michael W. Deem and Ramdas Pophale) SiO2 
 PCOD9457067
Probable space group: P B C N
;
_chemical_formula_sum "Si O2"
_cell_formula_units_Z 32
_cell_length_a 5.550609
_cell_length_b 14.800137
_cell_length_c 18.088087
_cell_angle_alpha 90.000000
_cell_angle_beta 90.000000
_cell_angle_gamma 90.000000
_cell_volume 1485.932253
_symmetry_space_group_name_H-M "P B C N"
_symmetry_group_IT_number 60
_symmetry_cell_setting 'orthorhombic'
loop_
_space_group_symop_operation_xyz
x,y,z
1/2-x,1/2-y,1/2+z
1/2+x,1/2-y,-z
-x,y,1/2-z
-x,-y,-z
1/2+x,1/2+y,1/2-z
1/2-x,1/2+y,z
x,-y,1/2+z
loop_
_atom_site_type_symbol
_atom_site_label
_atom_site_fract_x
_atom_site_fract_y
_atom_site_fract_z
Si Si1 0.198732 0.038561 0.555336
Si Si2 0.592226 0.080100 0.092737
Si Si3 0.243989 0.222641 0.293505
Si Si4 0.374630 0.581753 0.825968
O O1 0.374620 0.084892 0.496176
O O2 0.085898 0.104069 0.615528
O O3 0.316522 0.953435 0.598021
O O4 0.000000 0.000000 0.500000
O O5 0.701421 0.166370 0.132517
O O6 0.725754 0.996917 0.134498
O O7 0.500000 0.211883 0.250000
O O8 0.222418 0.328987 0.310734
O O9 0.000000 0.194199 0.250000
O O10 0.500000 0.552075 0.750000
#
# Coordination Sequence:
#
# PCOD9457067 Si02
#       4
#     8   8   8   8
#     4   9  21  42  63  96 127 176 230 277 341 410
#     4  10  22  42  70  92 136 180 230 283 348 411
#     4  11  27  43  67 107 137 176 234 283 347 426
#     4  10  23  41  66  95 136 172 227 282 347 411
#
# _framework density 21.535301
#
# number of rings (size 3 to 8) (size 9 to 14) (size 15 to 20)
#    0.000    2.000    0.000    0.750   17.500    0.000 
#   13.500    0.000    0.000    0.000    0.000    0.000 
#    0.000    0.000    0.000    0.000    0.000    0.000 
#
# Total GULP energy -178263.417914 kJ/mol
# GULP energy per Si atom -5570.731810 kJ/mol
# Density = 2.148629 g / cm^3
# Si number density = 21.535301 Si / 1000 Ang^3
#
#
#
# Elastic Constant Matrix: (Units=GPa)
#
#
# Indices 1 2 3 4 5 6 
#
# 1 84.7140 20.7369 33.9636 0.0000 0.0000 0.0000
# 2 20.7369 29.3615 25.2824 0.0000 0.0000 0.0000
# 3 33.9636 25.2824 120.2742 0.0000 0.0000 0.0000
# 4 0.0000 0.0000 0.0000-1331.0241 0.0000 0.0000
# 5 0.0000 0.0000 0.0000 0.0000 32.5008 0.0000
# 6 0.0000 0.0000 0.0000 0.0000 0.0000 26.5893
#
#
#
# Elastic Compliance Matrix: (Units=1/GPa)
#
#
# Indices 1 2 3 4 5 6 
#
# 1 0.014829 -0.008385 -0.002425 0.000000 0.000000 0.000000
# 2 -0.008385 0.046327 -0.007370 0.000000 0.000000 0.000000
# 3 -0.002425 -0.007370 0.010548 0.000000 0.000000 0.000000
# 4 0.000000 0.000000 0.000000 -0.000751 0.000000 0.000000
# 5 0.000000 0.000000 0.000000 0.000000 0.030768 0.000000
# 6 0.000000 0.000000 0.000000 0.000000 0.000000 0.037609
#
#
# Mechanical properties :
#
#
# Convention : Reuss Voigt Hill
#
# Bulk Modulus (GPa) = 28.29386 43.81284 36.05335
# Shear Modulus (GPa) = 26.67053 -244.09567 -108.71257
#
# Velocity S-wave (km/s) = 3.52299 -10.65799 -7.11271
# Velocity P-wave (km/s) = 5.45119 11.44851 7.11874
#
# Compressibility (1/GPa) = 0.03534336
#
# Stress axis : x y z
#
# Youngs Moduli (GPa) = 67.43438 21.58579 94.80136
#
# Poissons Ratio (x) = 0.18100 0.22988
# Poissons Ratio (y) = 0.56546 0.69872
# Poissons Ratio (z) = 0.16352 0.15909
#
# Static dielectric constant tensor:
#      x y z
#    x 1.951240 0.000000 0.000000 
#    y 0.000000 1.790120 0.000000 
#    z 0.000000 0.000000 1.802450 
# 
# From -- ./inp_files/13566.got.cif
#   From: 2010.05.17/outbox.cif.g08.bks.cpg/sg60_7_cif.got.tgz:13566.got - 2010.06.03 14:59:27.
