data_PCOD9457615
_publ_section_title
;
Structure prediction by ZEFSAII (Michael W. Deem and Ramdas Pophale) SiO2 
 PCOD9457615
Probable space group: P B C N
;
_chemical_formula_sum "Si O2"
_cell_formula_units_Z 40
_cell_length_a 9.061052
_cell_length_b 9.476843
_cell_length_c 16.812181
_cell_angle_alpha 90.000000
_cell_angle_beta 90.000000
_cell_angle_gamma 90.000000
_cell_volume 1443.664794
_symmetry_space_group_name_H-M "P B C N"
_symmetry_group_IT_number 60
_symmetry_cell_setting 'orthorhombic'
loop_
_space_group_symop_operation_xyz
x,y,z
1/2-x,1/2-y,1/2+z
1/2+x,1/2-y,-z
-x,y,1/2-z
-x,-y,-z
1/2+x,1/2+y,1/2-z
1/2-x,1/2+y,z
x,-y,1/2+z
loop_
_atom_site_type_symbol
_atom_site_label
_atom_site_fract_x
_atom_site_fract_y
_atom_site_fract_z
Si Si1 0.740569 0.544162 0.940208
Si Si2 0.513932 0.673060 0.068566
Si Si3 0.478554 0.854765 0.922473
Si Si4 0.659348 0.314230 0.299678
Si Si5 0.226432 0.922317 0.808801
O O1 0.608965 0.440988 0.910248
O O2 0.879401 0.442522 0.950625
O O3 0.779531 0.639983 0.864338
O O4 0.647615 0.615007 0.011509
O O5 0.605929 0.682176 0.150311
O O6 0.434747 0.779277 0.005597
O O7 0.526559 0.732975 0.859602
O O8 0.356314 0.945804 0.874937
O O9 0.660948 0.438124 0.233277
O O10 0.698331 0.168490 0.259157
#
# Coordination Sequence:
#
# PCOD9457615 Si02
#       5
#     8   8   8   8   8
#     4  10  23  48  71 106 149 199 238 309 371 443
#     4  10  25  43  76 106 147 197 247 298 380 440
#     4  11  24  49  75 105 154 191 250 309 366 442
#     4  11  26  47  72 109 150 193 243 308 374 435
#     4  12  27  46  78 108 147 198 250 309 371 439
#
# _framework density 27.707263999999999
#
# number of rings (size 3 to 8) (size 9 to 14) (size 15 to 20)
#    0.000    1.200    2.000    1.800   14.000    0.800 
#   10.800    0.000    0.000    0.000    0.000    0.000 
#    0.000    0.000    0.000    0.000    0.000    0.000 
#
# Total GULP energy -223397.287110 kJ/mol
# GULP energy per Si atom -5584.932178 kJ/mol
# Density = 2.764420 g / cm^3
# Si number density = 27.707264 Si / 1000 Ang^3
#
#
#
# Elastic Constant Matrix: (Units=GPa)
#
#
# Indices 1 2 3 4 5 6 
#
# 1 75.4923 -13.9780 37.8764 0.0000 0.0000 0.0000
# 2 -13.9780 91.3387 38.6162 0.0000 0.0000 0.0000
# 3 37.8764 38.6162 165.0503 0.0000 0.0000 0.0000
# 4 0.0000 0.0000 0.0000 47.4635 0.0000 0.0000
# 5 0.0000 0.0000 0.0000 0.0000 51.3869 0.0000
# 6 0.0000 0.0000 0.0000 0.0000 0.0000 23.4064
#
#
#
# Elastic Compliance Matrix: (Units=1/GPa)
#
#
# Indices 1 2 3 4 5 6 
#
# 1 0.016539 0.004590 -0.004869 0.000000 0.000000 0.000000
# 2 0.004590 0.013424 -0.004194 0.000000 0.000000 0.000000
# 3 -0.004869 -0.004194 0.008157 0.000000 0.000000 0.000000
# 4 0.000000 0.000000 0.000000 0.021069 0.000000 0.000000
# 5 0.000000 0.000000 0.000000 0.000000 0.019460 0.000000
# 6 0.000000 0.000000 0.000000 0.000000 0.000000 0.042723
#
#
# Mechanical properties :
#
#
# Convention : Reuss Voigt Hill
#
# Bulk Modulus (GPa) = 34.27785 50.76783 42.52284
# Shear Modulus (GPa) = 35.70291 42.40913 39.05602
#
# Velocity S-wave (km/s) = 3.59357 3.91655 3.75853
# Velocity P-wave (km/s) = 5.44211 6.23019 5.84944
#
# Compressibility (1/GPa) = 0.02917336
#
# Stress axis : x y z
#
# Youngs Moduli (GPa) = 60.46209 74.49457 122.58727
#
# Poissons Ratio (x) = -0.34191 0.59692
# Poissons Ratio (y) = -0.27751 0.51413
# Poissons Ratio (z) = 0.29441 0.31243
#
# Static dielectric constant tensor:
#      x y z
#    x 2.203170 0.000000 0.000000 
#    y 0.000000 2.254000 0.000000 
#    z 0.000000 0.000000 2.169780 
# 
# From -- ./inp_files/15844.got.cif
#   From: 2010.05.17/outbox.cif.g08.bks.cpg/sg60_8_cif.got.tgz:15844.got - 2010.06.03 14:59:27.
