data_PCOD9457306
_publ_section_title
;
Structure prediction by ZEFSAII (Michael W. Deem and Ramdas Pophale) SiO2 
 PCOD9457306
Probable space group: P B C N
;
_chemical_formula_sum "Si O2"
_cell_formula_units_Z 64
_cell_length_a 11.407838
_cell_length_b 18.468279
_cell_length_c 13.145443
_cell_angle_alpha 90.000000
_cell_angle_beta 90.000000
_cell_angle_gamma 90.000000
_cell_volume 2769.523142
_symmetry_space_group_name_H-M "P B C N"
_symmetry_group_IT_number 60
_symmetry_cell_setting 'orthorhombic'
loop_
_space_group_symop_operation_xyz
x,y,z
1/2-x,1/2-y,1/2+z
1/2+x,1/2-y,-z
-x,y,1/2-z
-x,-y,-z
1/2+x,1/2+y,1/2-z
1/2-x,1/2+y,z
x,-y,1/2+z
loop_
_atom_site_type_symbol
_atom_site_label
_atom_site_fract_x
_atom_site_fract_y
_atom_site_fract_z
Si Si1 0.252543 0.689362 0.583856
Si Si2 0.135490 0.840130 0.869580
Si Si3 0.300404 0.567273 0.731452
Si Si4 0.513787 0.814302 0.131121
Si Si5 0.256645 0.850766 0.652842
Si Si6 0.349516 0.954663 0.408058
Si Si7 0.093672 0.518922 0.133864
Si Si8 0.549701 0.540071 0.399242
O O1 0.303883 0.647220 0.682969
O O2 0.274983 0.774720 0.597446
O O3 0.224693 0.947288 0.350810
O O4 0.112946 0.679764 0.582011
O O5 0.058451 0.767422 0.874004
O O6 0.212275 0.835905 0.767685
O O7 0.198801 0.842042 0.978580
O O8 0.055883 0.910677 0.859301
O O9 0.176276 0.536127 0.692753
O O10 0.399891 0.520544 0.677123
O O11 0.500000 0.831973 0.250000
O O12 0.602502 0.872568 0.085867
O O13 0.372200 0.899573 0.661643
O O14 0.157722 0.900987 0.596515
O O15 0.457876 0.999539 0.358200
O O16 0.355660 0.988659 0.519129
O O17 0.500000 0.500000 0.500000
#
# Coordination Sequence:
#
# PCOD9457306 Si02
#       8
#     8   8   8   8   8   8   8   8
#     4  12  23  40  74 105 132 183 244 289 354 437
#     4  12  24  44  75 100 144 190 230 298 366 430
#     4  11  22  40  66 102 136 181 239 290 344 432
#     4  12  20  41  72 101 131 181 237 287 357 427
#     4  11  24  45  69 106 137 185 239 295 357 439
#     4  11  21  41  68  98 139 183 223 298 358 415
#     4  10  23  39  62 101 139 173 224 287 361 422
#     4  11  23  43  68 102 143 191 240 288 357 439
#
# _framework density 23.108671000000001
#
# number of rings (size 3 to 8) (size 9 to 14) (size 15 to 20)
#    0.000    0.750    6.250    1.500    0.000    2.000 
#    6.750    0.000    0.000    0.000    0.000    0.000 
#    0.000    0.000    0.000    0.000    0.000    0.000 
#
# Total GULP energy -357901.532949 kJ/mol
# GULP energy per Si atom -5592.211452 kJ/mol
# Density = 2.305607 g / cm^3
# Si number density = 23.108671 Si / 1000 Ang^3
#
#
#
# Elastic Constant Matrix: (Units=GPa)
#
#
# Indices 1 2 3 4 5 6 
#
# 1 82.4813 48.8444 43.2422 0.0000 0.0000 0.0000
# 2 48.8444 142.7965 25.3066 0.0000 0.0000 0.0000
# 3 43.2422 25.3066 103.5674 0.0000 0.0000 0.0000
# 4 0.0000 0.0000 0.0000 -8.6617 0.0000 0.0000
# 5 0.0000 0.0000 0.0000 0.0000 50.6672 0.0000
# 6 0.0000 0.0000 0.0000 0.0000 0.0000 38.2918
#
#
#
# Elastic Compliance Matrix: (Units=1/GPa)
#
#
# Indices 1 2 3 4 5 6 
#
# 1 0.018622 -0.005218 -0.006500 0.000000 0.000000 0.000000
# 2 -0.005218 0.008782 0.000033 0.000000 0.000000 0.000000
# 3 -0.006500 0.000033 0.012362 0.000000 0.000000 0.000000
# 4 0.000000 0.000000 0.000000 -0.115451 0.000000 0.000000
# 5 0.000000 0.000000 0.000000 0.000000 0.019737 0.000000
# 6 0.000000 0.000000 0.000000 0.000000 0.000000 0.026115
#
#
# Mechanical properties :
#
#
# Convention : Reuss Voigt Hill
#
# Bulk Modulus (GPa) = 60.99475 62.62572 61.81024
# Shear Modulus (GPa) = -5003.19213 30.15627 -2486.51793
#
# Velocity S-wave (km/s) = -46.58081 3.61636 -32.83819
# Velocity P-wave (km/s) = 53.54042 6.67809 37.56315
#
# Compressibility (1/GPa) = 0.01639485
#
# Stress axis : x y z
#
# Youngs Moduli (GPa) = 53.70112 113.87035 80.89609
#
# Poissons Ratio (x) = 0.59414 0.52583
# Poissons Ratio (y) = 0.28019 -0.00264
# Poissons Ratio (z) = 0.34906 -0.00372
#
# Static dielectric constant tensor:
#      x y z
#    x 1.870300 0.000000 0.000000 
#    y 0.000000 1.847120 0.000000 
#    z 0.000000 0.000000 1.963530 
# 
# From -- ./inp_files/16379.got.cif
#   From: 2010.05.17/outbox.cif.g08.bks.cpg/sg60_9_cif.got.tgz:16379.got - 2010.06.03 14:59:27.
