data_PCOD9457020
_publ_section_title
;
Structure prediction by ZEFSAII (Michael W. Deem and Ramdas Pophale) SiO2 
 PCOD9457020
Probable space group: P B C N
;
_chemical_formula_sum "Si O2"
_cell_formula_units_Z 40
_cell_length_a 9.877013
_cell_length_b 21.509990
_cell_length_c 7.942972
_cell_angle_alpha 90.000000
_cell_angle_beta 90.000000
_cell_angle_gamma 90.000000
_cell_volume 1687.519754
_symmetry_space_group_name_H-M "P B C N"
_symmetry_group_IT_number 60
_symmetry_cell_setting 'orthorhombic'
loop_
_space_group_symop_operation_xyz
x,y,z
1/2-x,1/2-y,1/2+z
1/2+x,1/2-y,-z
-x,y,1/2-z
-x,-y,-z
1/2+x,1/2+y,1/2-z
1/2-x,1/2+y,z
x,-y,1/2+z
loop_
_atom_site_type_symbol
_atom_site_label
_atom_site_fract_x
_atom_site_fract_y
_atom_site_fract_z
Si Si1 0.814223 0.902807 0.406985
Si Si2 0.301791 0.131222 0.119886
Si Si3 0.421242 0.170268 0.479612
Si Si4 0.157474 0.016914 0.282576
Si Si5 0.041943 0.810145 0.448074
O O1 0.687249 0.857766 0.393465
O O2 0.799393 0.960477 0.533423
O O3 0.931842 0.862092 0.494415
O O4 0.835478 0.942143 0.238016
O O5 0.343553 0.166413 0.296978
O O6 0.445560 0.128440 0.027984
O O7 0.245830 0.064355 0.171901
O O8 0.188185 0.167524 0.013258
O O9 0.469102 0.240089 0.514484
O O10 0.000000 0.030511 0.250000
O O11 0.000000 0.805693 0.250000
#
# Coordination Sequence:
#
# PCOD9457020 Si02
#       5
#     8   8   8   8   8
#     4  11  25  41  74 101 141 187 237 301 355 432
#     4  10  22  42  64  96 138 179 226 295 351 419
#     4  10  23  45  66  99 139 185 233 292 364 424
#     4  11  22  42  67 100 138 180 239 291 354 424
#     4  12  23  41  71 101 136 183 239 293 350 432
#
# _framework density 23.703424999999999
#
# number of rings (size 3 to 8) (size 9 to 14) (size 15 to 20)
#    0.000    1.200    4.000    2.400    2.800    0.800 
#    0.000    1.000    0.000    0.000    0.000    0.000 
#    0.000    0.000    0.000    0.000    0.000    0.000 
#
# Total GULP energy -223277.744281 kJ/mol
# GULP energy per Si atom -5581.943607 kJ/mol
# Density = 2.364947 g / cm^3
# Si number density = 23.703425 Si / 1000 Ang^3
#
#
#
# Elastic Constant Matrix: (Units=GPa)
#
#
# Indices 1 2 3 4 5 6 
#
# 1 144.5745 52.3797 11.8038 0.0000 0.0000 0.0000
# 2 52.3797 142.9410 17.6218 0.0000 0.0000 0.0000
# 3 11.8038 17.6218 31.4254 0.0000 0.0000 0.0000
# 4 0.0000 0.0000 0.0000 -14.3992 0.0000 0.0000
# 5 0.0000 0.0000 0.0000 0.0000 25.6952 0.0000
# 6 0.0000 0.0000 0.0000 0.0000 0.0000 -13.2339
#
#
#
# Elastic Compliance Matrix: (Units=1/GPa)
#
#
# Indices 1 2 3 4 5 6 
#
# 1 0.008038 -0.002764 -0.001469 0.000000 0.000000 0.000000
# 2 -0.002764 0.008466 -0.003709 0.000000 0.000000 0.000000
# 3 -0.001469 -0.003709 0.034453 0.000000 0.000000 0.000000
# 4 0.000000 0.000000 0.000000 -0.069449 0.000000 0.000000
# 5 0.000000 0.000000 0.000000 0.000000 0.038918 0.000000
# 6 0.000000 0.000000 0.000000 0.000000 0.000000 -0.075563
#
#
# Mechanical properties :
#
#
# Convention : Reuss Voigt Hill
#
# Bulk Modulus (GPa) = 28.51249 53.61682 41.06465
# Shear Modulus (GPa) = -181.42047 15.42147 -82.99950
#
# Velocity S-wave (km/s) = -8.75807 2.55345 -5.92384
# Velocity P-wave (km/s) = 9.49825 5.60022 5.42468
#
# Compressibility (1/GPa) = 0.03507235
#
# Stress axis : x y z
#
# Youngs Moduli (GPa) = 124.40322 118.11722 29.02496
#
# Poissons Ratio (x) = 0.32653 0.04264
# Poissons Ratio (y) = 0.34391 0.10765
# Poissons Ratio (z) = 0.18277 0.43810
#
# Static dielectric constant tensor:
#      x y z
#    x 1.800870 0.000000 0.000000 
#    y 0.000000 1.937770 0.000000 
#    z 0.000000 0.000000 2.180250 
# 
# From -- ./inp_files/3867.got.cif
#   From: 2010.05.17/outbox.cif.g08.bks.cpg/sg60_2_cif.got.tgz:3867.got - 2010.06.03 14:59:27.
