data_PCOD9457370
_publ_section_title
;
Structure prediction by ZEFSAII (Michael W. Deem and Ramdas Pophale) SiO2 
 PCOD9457370
Probable space group: P B C N
;
_chemical_formula_sum "Si O2"
_cell_formula_units_Z 40
_cell_length_a 12.558571
_cell_length_b 28.388833
_cell_length_c 5.157717
_cell_angle_alpha 90.000000
_cell_angle_beta 90.000000
_cell_angle_gamma 90.000000
_cell_volume 1838.845640
_symmetry_space_group_name_H-M "P B C N"
_symmetry_group_IT_number 60
_symmetry_cell_setting 'orthorhombic'
loop_
_space_group_symop_operation_xyz
x,y,z
1/2-x,1/2-y,1/2+z
1/2+x,1/2-y,-z
-x,y,1/2-z
-x,-y,-z
1/2+x,1/2+y,1/2-z
1/2-x,1/2+y,z
x,-y,1/2+z
loop_
_atom_site_type_symbol
_atom_site_label
_atom_site_fract_x
_atom_site_fract_y
_atom_site_fract_z
Si Si1 0.570560 0.854806 0.004903
Si Si2 0.706977 0.381339 0.824155
Si Si3 0.878711 0.019589 0.475172
Si Si4 0.386182 0.340953 0.189033
Si Si5 0.322797 0.245197 0.002730
O O1 0.500000 0.849553 0.750000
O O2 0.670768 0.886578 0.912463
O O3 0.616306 0.802565 0.066404
O O4 0.500000 0.870908 0.250000
O O5 0.685045 0.367193 0.527129
O O6 0.637334 0.427685 0.880201
O O7 0.666900 0.342086 0.029211
O O8 0.828245 0.986797 0.255641
O O9 0.000000 0.000000 0.500000
O O10 0.500000 0.363709 0.250000
O O11 0.399597 0.289112 0.069140
O O12 0.254284 0.240564 0.266699
#
# Coordination Sequence:
#
# PCOD9457370 Si02
#       5
#     8   8   8   8   8
#     4  12  25  43  70  93 134 192 239 285 334 401
#     4  12  25  44  67 101 138 173 232 284 341 421
#     4  10  23  41  68  98 132 174 205 272 360 440
#     4  12  25  39  65  99 138 184 220 286 344 415
#     4  12  22  43  63  94 140 186 235 289 347 383
#
# _framework density 21.752780000000001
#
# number of rings (size 3 to 8) (size 9 to 14) (size 15 to 20)
#    0.000    0.400    4.000    4.800    8.400    1.600 
#    0.000    0.000    0.000    3.600    0.000    0.000 
#    0.000    0.000    0.000    0.000    0.000    0.000 
#
# Total GULP energy -223305.133780 kJ/mol
# GULP energy per Si atom -5582.628345 kJ/mol
# Density = 2.170327 g / cm^3
# Si number density = 21.752780 Si / 1000 Ang^3
#
#
#
# Elastic Constant Matrix: (Units=GPa)
#
#
# Indices 1 2 3 4 5 6 
#
# 1 95.7870 3.4300 13.8683 0.0000 0.0000 0.0000
# 2 3.4300 71.1437 -8.9879 0.0000 0.0000 0.0000
# 3 13.8683 -8.9879 122.6543 0.0000 0.0000 0.0000
# 4 0.0000 0.0000 0.0000 12.0348 0.0000 0.0000
# 5 0.0000 0.0000 0.0000 0.0000 42.0380 0.0000
# 6 0.0000 0.0000 0.0000 0.0000 0.0000 21.2921
#
#
#
# Elastic Compliance Matrix: (Units=1/GPa)
#
#
# Indices 1 2 3 4 5 6 
#
# 1 0.010645 -0.000672 -0.001253 0.000000 0.000000 0.000000
# 2 -0.000672 0.014230 0.001119 0.000000 0.000000 0.000000
# 3 -0.001253 0.001119 0.008377 0.000000 0.000000 0.000000
# 4 0.000000 0.000000 0.000000 0.083092 0.000000 0.000000
# 5 0.000000 0.000000 0.000000 0.000000 0.023788 0.000000
# 6 0.000000 0.000000 0.000000 0.000000 0.000000 0.046966
#
#
# Mechanical properties :
#
#
# Convention : Reuss Voigt Hill
#
# Bulk Modulus (GPa) = 31.60532 34.02287 32.81409
# Shear Modulus (GPa) = 25.09339 33.82463 29.45901
#
# Velocity S-wave (km/s) = 3.40011 3.94757 3.68403
# Velocity P-wave (km/s) = 5.47496 6.03758 5.76314
#
# Compressibility (1/GPa) = 0.03164024
#
# Stress axis : x y z
#
# Youngs Moduli (GPa) = 93.93850 70.27529 119.37978
#
# Poissons Ratio (x) = 0.04719 0.14956
# Poissons Ratio (y) = 0.06308 -0.13354
# Poissons Ratio (z) = 0.11769 -0.07861
#
# Static dielectric constant tensor:
#      x y z
#    x 1.859850 0.000000 0.000000 
#    y 0.000000 1.834300 0.000000 
#    z 0.000000 0.000000 1.808070 
# 
# From -- ./inp_files/829.got.cif
#   From: 2010.05.17/outbox.cif.g08.bks.cpg/sg60_1_cif.got.tgz:829.got - 2010.06.03 14:59:27.
