data_PCOD9457351
_publ_section_title
;
Structure prediction by ZEFSAII (Michael W. Deem and Ramdas Pophale) SiO2 
 PCOD9457351
Probable space group: P B C N
;
_chemical_formula_sum "Si O2"
_cell_formula_units_Z 48
_cell_length_a 12.060346
_cell_length_b 25.503528
_cell_length_c 7.658199
_cell_angle_alpha 90.000000
_cell_angle_beta 90.000000
_cell_angle_gamma 90.000000
_cell_volume 2355.519355
_symmetry_space_group_name_H-M "P B C N"
_symmetry_group_IT_number 60
_symmetry_cell_setting 'orthorhombic'
loop_
_space_group_symop_operation_xyz
x,y,z
1/2-x,1/2-y,1/2+z
1/2+x,1/2-y,-z
-x,y,1/2-z
-x,-y,-z
1/2+x,1/2+y,1/2-z
1/2-x,1/2+y,z
x,-y,1/2+z
loop_
_atom_site_type_symbol
_atom_site_label
_atom_site_fract_x
_atom_site_fract_y
_atom_site_fract_z
Si Si1 0.768453 0.812895 0.760280
Si Si2 0.091773 0.662799 0.517450
Si Si3 0.750103 0.523434 0.581325
Si Si4 0.631280 0.573057 0.263631
Si Si5 0.648756 0.205444 0.619367
Si Si6 0.603851 0.048908 0.877162
O O1 0.655592 0.814359 0.647220
O O2 0.826826 0.868459 0.728727
O O3 0.840715 0.765470 0.682340
O O4 0.736220 0.805172 0.963940
O O5 0.158651 0.674117 0.697688
O O6 0.083937 0.599782 0.504814
O O7 0.971465 0.688448 0.545803
O O8 0.674644 0.556968 0.454752
O O9 0.687456 0.470560 0.639737
O O10 0.860208 0.502840 0.481131
O O11 0.790433 0.555271 0.748684
O O12 0.500000 0.569783 0.250000
O O13 0.500000 0.043594 0.750000
#
# Coordination Sequence:
#
# PCOD9457351 Si02
#       6
#     8   8   8   8   8   8
#     4  12  24  43  67  96 128 174 223 266 327 395
#     4  11  23  43  65  93 135 173 210 266 332 384
#     4  10  23  41  62  94 132 169 210 272 322 387
#     4  11  24  41  67  91 126 170 222 268 328 385
#     4  11  24  41  67  91 134 171 213 270 325 383
#     4  11  20  39  64  95 131 168 209 259 329 392
#
# _framework density 20.377673000000001
#
# number of rings (size 3 to 8) (size 9 to 14) (size 15 to 20)
#    0.000    1.000    5.000    2.500    2.333    0.000 
#    0.000    0.000    0.000    0.000    0.000    0.000 
#    0.000    0.000    0.000    0.000    0.000    0.000 
#
# Total GULP energy -268101.492753 kJ/mol
# GULP energy per Si atom -5585.447766 kJ/mol
# Density = 2.033129 g / cm^3
# Si number density = 20.377673 Si / 1000 Ang^3
#
#
#
# Elastic Constant Matrix: (Units=GPa)
#
#
# Indices 1 2 3 4 5 6 
#
# 1 59.1128 31.5786 -0.5946 0.0000 0.0000 0.0000
# 2 31.5786 106.8720 -0.9320 0.0000 0.0000 0.0000
# 3 -0.5946 -0.9320 54.5631 0.0000 0.0000 0.0000
# 4 0.0000 0.0000 0.0000 44.9699 0.0000 0.0000
# 5 0.0000 0.0000 0.0000 0.0000 24.2567 0.0000
# 6 0.0000 0.0000 0.0000 0.0000 0.0000 -127.3948
#
#
#
# Elastic Compliance Matrix: (Units=1/GPa)
#
#
# Indices 1 2 3 4 5 6 
#
# 1 0.020088 -0.005935 0.000118 0.000000 0.000000 0.000000
# 2 -0.005935 0.011112 0.000125 0.000000 0.000000 0.000000
# 3 0.000118 0.000125 0.018331 0.000000 0.000000 0.000000
# 4 0.000000 0.000000 0.000000 0.022237 0.000000 0.000000
# 5 0.000000 0.000000 0.000000 0.000000 0.041226 0.000000
# 6 0.000000 0.000000 0.000000 0.000000 0.000000 -0.007850
#
#
# Mechanical properties :
#
#
# Convention : Reuss Voigt Hill
#
# Bulk Modulus (GPa) = 26.21454 31.18356 28.69905
# Shear Modulus (GPa) = 38.68659 1.06608 19.87633
#
# Velocity S-wave (km/s) = 4.36188 0.72408 3.12652
# Velocity P-wave (km/s) = 6.18549 4.00438 5.21034
#
# Compressibility (1/GPa) = 0.03814676
#
# Stress axis : x y z
#
# Youngs Moduli (GPa) = 49.78002 89.99548 54.55296
#
# Poissons Ratio (x) = 0.53410 -0.00641
# Poissons Ratio (y) = 0.29543 -0.00683
# Poissons Ratio (z) = -0.00585 -0.01126
#
# Static dielectric constant tensor:
#      x y z
#    x 1.719000 0.000000 0.000000 
#    y 0.000000 1.729270 0.000000 
#    z 0.000000 0.000000 1.781330 
# 
# From -- ./inp_files/5073.got.cif
#   From: 2010.05.17/outbox.cif.g08.bks.cpg/sg60_3_cif.got.tgz:5073.got - 2010.06.03 14:59:27.
