data_PCOD9457509
_publ_section_title
;
Structure prediction by ZEFSAII (Michael W. Deem and Ramdas Pophale) SiO2 
 PCOD9457509
Probable space group: P B C N
;
_chemical_formula_sum "Si O2"
_cell_formula_units_Z 60
_cell_length_a 25.233170
_cell_length_b 9.632084
_cell_length_c 9.239917
_cell_angle_alpha 90.000000
_cell_angle_beta 90.000000
_cell_angle_gamma 90.000000
_cell_volume 2245.743467
_symmetry_space_group_name_H-M "P B C N"
_symmetry_group_IT_number 60
_symmetry_cell_setting 'orthorhombic'
loop_
_space_group_symop_operation_xyz
x,y,z
1/2-x,1/2-y,1/2+z
1/2+x,1/2-y,-z
-x,y,1/2-z
-x,-y,-z
1/2+x,1/2+y,1/2-z
1/2-x,1/2+y,z
x,-y,1/2+z
loop_
_atom_site_type_symbol
_atom_site_label
_atom_site_fract_x
_atom_site_fract_y
_atom_site_fract_z
Si Si1 0.107143 0.011753 0.204934
Si Si2 0.500000 0.619275 0.250000
Si Si3 0.141435 0.757643 0.485489
Si Si4 0.938586 0.339420 0.053631
Si Si5 0.845928 0.852265 0.533973
Si Si6 0.813531 0.502461 0.348562
Si Si7 0.078218 0.384464 0.773663
Si Si8 0.760487 0.066225 0.589534
O O1 0.120207 0.035839 0.371374
O O2 0.044965 0.021249 0.183808
O O3 0.130510 0.147204 0.124839
O O4 0.137688 0.887045 0.129554
O O5 0.473771 0.722331 0.368362
O O6 0.158275 0.609523 0.549437
O O7 0.088634 0.737829 0.388837
O O8 0.192852 0.822707 0.410007
O O9 0.876711 0.289337 0.070086
O O10 0.944449 0.482853 0.140482
O O11 0.948744 0.353983 0.881189
O O12 0.787551 0.911970 0.567106
O O13 0.861071 0.578117 0.268609
O O14 0.774294 0.434453 0.232400
O O15 0.776490 0.595309 0.451278
#
# Coordination Sequence:
#
# PCOD9457509 Si02
#       8
#     8   4   8   8   8   8   8   8
#     4  10  23  44  72 100 137 172 220 283 350 409
#     4  10  24  48  76 108 130 170 228 288 340 424
#     4  11  25  42  65  92 144 176 227 282 339 396
#     4  11  26  45  74  94 138 179 222 285 348 411
#     4  10  23  44  68 102 140 177 218 281 347 401
#     4  12  23  41  60  98 131 181 227 283 317 394
#     4  12  25  46  64  97 136 186 224 276 353 394
#     4  11  25  38  66  98 130 181 235 270 328 402
#
# _framework density 26.717209
#
# number of rings (size 3 to 8) (size 9 to 14) (size 15 to 20)
#    0.000    1.067    2.667    3.200    7.467    4.800 
#    0.000    0.000    0.000    0.000    0.000    0.000 
#    0.000    0.000    0.000    0.000    0.000    0.000 
#
# Total GULP energy -336231.701462 kJ/mol
# GULP energy per Si atom -5603.861691 kJ/mol
# Density = 2.665640 g / cm^3
# Si number density = 26.717209 Si / 1000 Ang^3
#
#
#
# Elastic Constant Matrix: (Units=GPa)
#
#
# Indices 1 2 3 4 5 6 
#
# 1 87.9330 -5.9530 -5.4480 0.0000 0.0000 0.0000
# 2 -5.9530 70.6712 3.4095 0.0000 0.0000 0.0000
# 3 -5.4480 3.4095 101.0909 0.0000 0.0000 0.0000
# 4 0.0000 0.0000 0.0000 34.1603 0.0000 0.0000
# 5 0.0000 0.0000 0.0000 0.0000 35.8532 0.0000
# 6 0.0000 0.0000 0.0000 0.0000 0.0000 45.6337
#
#
#
# Elastic Compliance Matrix: (Units=1/GPa)
#
#
# Indices 1 2 3 4 5 6 
#
# 1 0.011472 0.000938 0.000587 0.000000 0.000000 0.000000
# 2 0.000938 0.014250 -0.000430 0.000000 0.000000 0.000000
# 3 0.000587 -0.000430 0.009938 0.000000 0.000000 0.000000
# 4 0.000000 0.000000 0.000000 0.029274 0.000000 0.000000
# 5 0.000000 0.000000 0.000000 0.000000 0.027892 0.000000
# 6 0.000000 0.000000 0.000000 0.000000 0.000000 0.021914
#
#
# Mechanical properties :
#
#
# Convention : Reuss Voigt Hill
#
# Bulk Modulus (GPa) = 26.42050 27.07912 26.74981
# Shear Modulus (GPa) = 39.94685 40.97520 40.46103
#
# Velocity S-wave (km/s) = 3.87094 3.92045 3.89577
# Velocity P-wave (km/s) = 5.46711 5.53631 5.50182
#
# Compressibility (1/GPa) = 0.03784940
#
# Stress axis : x y z
#
# Youngs Moduli (GPa) = 87.16767 70.17641 100.62175
#
# Poissons Ratio (x) = -0.06583 -0.05903
# Poissons Ratio (y) = -0.08177 0.04327
# Poissons Ratio (z) = -0.05113 0.03018
#
# Static dielectric constant tensor:
#      x y z
#    x 2.085040 0.000000 0.000000 
#    y 0.000000 2.181450 0.000000 
#    z 0.000000 0.000000 2.087530 
# 
# From -- ./inp_files/8176.got.cif
#   From: 2010.05.17/outbox.cif.g08.bks.cpg/sg60_5_cif.got.tgz:8176.got - 2010.06.03 14:59:27.
