data_PCOD9457409
_publ_section_title
;
Structure prediction by ZEFSAII (Michael W. Deem and Ramdas Pophale) SiO2 
 PCOD9457409
Probable space group: P B C N
;
_chemical_formula_sum "Si O2"
_cell_formula_units_Z 40
_cell_length_a 8.847739
_cell_length_b 24.113114
_cell_length_c 8.424501
_cell_angle_alpha 90.000000
_cell_angle_beta 90.000000
_cell_angle_gamma 90.000000
_cell_volume 1797.338132
_symmetry_space_group_name_H-M "P B C N"
_symmetry_group_IT_number 60
_symmetry_cell_setting 'orthorhombic'
loop_
_space_group_symop_operation_xyz
x,y,z
1/2-x,1/2-y,1/2+z
1/2+x,1/2-y,-z
-x,y,1/2-z
-x,-y,-z
1/2+x,1/2+y,1/2-z
1/2-x,1/2+y,z
x,-y,1/2+z
loop_
_atom_site_type_symbol
_atom_site_label
_atom_site_fract_x
_atom_site_fract_y
_atom_site_fract_z
Si Si1 0.842139 0.949665 0.828352
Si Si2 0.661590 0.762782 0.663043
Si Si3 0.264751 0.665484 0.059708
Si Si4 0.055321 0.649530 0.576160
Si Si5 0.156186 0.465761 0.981128
O O1 0.860333 0.889159 0.907349
O O2 0.709105 0.948205 0.694834
O O3 0.000000 0.965216 0.750000
O O4 0.786233 0.994678 0.952960
O O5 0.500000 0.759167 0.750000
O O6 0.768726 0.793440 0.789178
O O7 0.699599 0.702790 0.593316
O O8 0.651311 0.803898 0.512443
O O9 0.094135 0.643428 0.032931
O O10 0.137946 0.590646 0.580560
O O11 0.000000 0.665781 0.750000
O O12 0.000000 0.500000 0.000000
#
# Coordination Sequence:
#
# PCOD9457409 Si02
#       5
#     8   8   8   8   8
#     4  12  27  46  70 106 149 186 237 309 374 430
#     4  10  23  42  69 102 146 187 244 298 360 435
#     4  11  23  44  69 103 142 190 238 304 362 432
#     4  11  22  41  71 103 134 184 253 293 353 444
#     4  12  24  46  77 102 137 194 248 296 356 441
#
# _framework density 22.255133000000001
#
# number of rings (size 3 to 8) (size 9 to 14) (size 15 to 20)
#    0.000    0.800    4.000    3.600    0.000    4.000 
#    3.600    1.000    0.000    0.000    0.000    0.000 
#    0.000    0.000    0.000    0.000    0.000    0.000 
#
# Total GULP energy -223732.333663 kJ/mol
# GULP energy per Si atom -5593.308342 kJ/mol
# Density = 2.220448 g / cm^3
# Si number density = 22.255133 Si / 1000 Ang^3
#
#
#
# Elastic Constant Matrix: (Units=GPa)
#
#
# Indices 1 2 3 4 5 6 
#
# 1 48.4482 40.1868 5.4719 0.0000 0.0000 0.0000
# 2 40.1868 152.9881 43.7932 0.0000 0.0000 0.0000
# 3 5.4719 43.7932 99.1781 0.0000 0.0000 0.0000
# 4 0.0000 0.0000 0.0000 44.4413 0.0000 0.0000
# 5 0.0000 0.0000 0.0000 0.0000 38.3210 0.0000
# 6 0.0000 0.0000 0.0000 0.0000 0.0000 22.3003
#
#
#
# Elastic Compliance Matrix: (Units=1/GPa)
#
#
# Indices 1 2 3 4 5 6 
#
# 1 0.026687 -0.007542 0.001858 0.000000 0.000000 0.000000
# 2 -0.007542 0.009614 -0.003829 0.000000 0.000000 0.000000
# 3 0.001858 -0.003829 0.011671 0.000000 0.000000 0.000000
# 4 0.000000 0.000000 0.000000 0.022502 0.000000 0.000000
# 5 0.000000 0.000000 0.000000 0.000000 0.026095 0.000000
# 6 0.000000 0.000000 0.000000 0.000000 0.000000 0.044843
#
#
# Mechanical properties :
#
#
# Convention : Reuss Voigt Hill
#
# Bulk Modulus (GPa) = 34.54783 53.27981 43.91382
# Shear Modulus (GPa) = 29.39710 35.09002 32.24356
#
# Velocity S-wave (km/s) = 3.63838 3.97510 3.81046
# Velocity P-wave (km/s) = 5.76261 6.71274 6.25574
#
# Compressibility (1/GPa) = 0.02894538
#
# Stress axis : x y z
#
# Youngs Moduli (GPa) = 37.47211 104.01986 85.68205
#
# Poissons Ratio (x) = 0.78450 -0.15918
# Poissons Ratio (y) = 0.28261 0.32807
# Poissons Ratio (z) = -0.06962 0.39828
#
# Static dielectric constant tensor:
#      x y z
#    x 1.828200 0.000000 0.000000 
#    y 0.000000 1.799750 0.000000 
#    z 0.000000 0.000000 1.840460 
# 
# From -- ./inp_files/3820.got.cif
#   From: 2010.05.17/outbox.cif.g08.bks.cpg/sg60_2_cif.got.tgz:3820.got - 2010.06.03 14:59:27.
