data_PCOD9457647
_publ_section_title
;
Structure prediction by ZEFSAII (Michael W. Deem and Ramdas Pophale) SiO2 
 PCOD9457647
Probable space group: P B C N
;
_chemical_formula_sum "Si O2"
_cell_formula_units_Z 56
_cell_length_a 14.318360
_cell_length_b 31.861062
_cell_length_c 4.996724
_cell_angle_alpha 90.000000
_cell_angle_beta 90.000000
_cell_angle_gamma 90.000000
_cell_volume 2279.496273
_symmetry_space_group_name_H-M "P B C N"
_symmetry_group_IT_number 60
_symmetry_cell_setting 'orthorhombic'
loop_
_space_group_symop_operation_xyz
x,y,z
1/2-x,1/2-y,1/2+z
1/2+x,1/2-y,-z
-x,y,1/2-z
-x,-y,-z
1/2+x,1/2+y,1/2-z
1/2-x,1/2+y,z
x,-y,1/2+z
loop_
_atom_site_type_symbol
_atom_site_label
_atom_site_fract_x
_atom_site_fract_y
_atom_site_fract_z
Si Si1 0.166679 0.473132 0.066470
Si Si2 0.500000 0.531655 0.250000
Si Si3 0.500000 0.934417 0.750000
Si Si4 0.320372 0.410608 0.837731
Si Si5 0.350921 0.813999 0.146862
Si Si6 0.143623 0.366800 0.616685
Si Si7 0.903053 0.777479 0.874700
Si Si8 0.356446 0.671231 0.642528
O O1 0.179947 0.513219 0.871227
O O2 0.245510 0.439360 0.993352
O O3 0.064671 0.458230 0.965910
O O4 0.500000 0.500000 0.500000
O O5 0.593454 0.560892 0.262694
O O6 0.574691 0.905926 0.905283
O O7 0.250937 0.385693 0.629913
O O8 0.365710 0.375900 0.037058
O O9 0.398363 0.832008 0.412237
O O10 0.357592 0.766447 0.048838
O O11 0.246289 0.820657 0.251470
O O12 0.366542 0.845657 0.906229
O O13 0.857200 0.800983 0.626418
O O14 0.000000 0.763259 0.750000
O O15 0.916262 0.810097 0.114962
#
# Coordination Sequence:
#
# PCOD9457647 Si02
#       8
#     8   4   4   8   8   8   8   8
#     4  11  24  43  70 102 141 179 226 278 350 422
#     4  12  28  48  76 104 135 180 231 296 366 420
#     4  10  24  40  66 104 145 184 225 280 342 420
#     4  10  25  47  72 103 137 182 234 295 346 424
#     4  11  23  44  69  96 137 188 233 284 336 410
#     4  10  24  40  69 101 139 188 234 278 344 404
#     4  12  26  42  67 104 138 179 231 291 343 409
#     4  11  24  45  69  95 137 184 229 283 354 403
#
# _framework density 24.566832999999999
#
# number of rings (size 3 to 8) (size 9 to 14) (size 15 to 20)
#    0.000    1.143    0.000    5.143    3.000   12.571 
#    2.571    0.000    0.000    0.000    0.000    0.000 
#    0.000    0.000    0.000    0.000    0.000    0.000 
#
# Total GULP energy -312910.553950 kJ/mol
# GULP energy per Si atom -5587.688463 kJ/mol
# Density = 2.451092 g / cm^3
# Si number density = 24.566833 Si / 1000 Ang^3
#
#
#
# Elastic Constant Matrix: (Units=GPa)
#
#
# Indices 1 2 3 4 5 6 
#
# 1 101.1824 63.1263 23.9390 0.0000 0.0000 0.0000
# 2 63.1263 168.4207 41.2199 0.0000 0.0000 0.0000
# 3 23.9390 41.2199 89.8058 0.0000 0.0000 0.0000
# 4 0.0000 0.0000 0.0000 52.0096 0.0000 0.0000
# 5 0.0000 0.0000 0.0000 0.0000 9.9016 0.0000
# 6 0.0000 0.0000 0.0000 0.0000 0.0000 -11.5089
#
#
#
# Elastic Compliance Matrix: (Units=1/GPa)
#
#
# Indices 1 2 3 4 5 6 
#
# 1 0.013052 -0.004552 -0.001390 0.000000 0.000000 0.000000
# 2 -0.004552 0.008276 -0.002585 0.000000 0.000000 0.000000
# 3 -0.001390 -0.002585 0.012692 0.000000 0.000000 0.000000
# 4 0.000000 0.000000 0.000000 0.019227 0.000000 0.000000
# 5 0.000000 0.000000 0.000000 0.000000 0.100994 0.000000
# 6 0.000000 0.000000 0.000000 0.000000 0.000000 -0.086889
#
#
# Mechanical properties :
#
#
# Convention : Reuss Voigt Hill
#
# Bulk Modulus (GPa) = 58.94070 68.44215 63.69142
# Shear Modulus (GPa) = 55.51736 25.48871 40.50303
#
# Velocity S-wave (km/s) = 4.75895 3.22456 4.06481
# Velocity P-wave (km/s) = 7.36484 6.46404 6.92909
#
# Compressibility (1/GPa) = 0.01696621
#
# Stress axis : x y z
#
# Youngs Moduli (GPa) = 76.61780 120.82613 78.78782
#
# Poissons Ratio (x) = 0.54998 0.10951
# Poissons Ratio (y) = 0.34875 0.20370
# Poissons Ratio (z) = 0.10649 0.31239
#
# Static dielectric constant tensor:
#      x y z
#    x 1.983420 0.000000 0.000000 
#    y 0.000000 2.102760 0.000000 
#    z 0.000000 0.000000 1.817350 
# 
# From -- ./inp_files/1506.got.cif
#   From: 2010.05.17/outbox.cif.g08.bks.cpg/sg60_1_cif.got.tgz:1506.got - 2010.06.03 14:59:27.
