data_PCOD9457056
_publ_section_title
;
Structure prediction by ZEFSAII (Michael W. Deem and Ramdas Pophale) SiO2 
 PCOD9457056
Probable space group: P B C N
;
_chemical_formula_sum "Si O2"
_cell_formula_units_Z 28
_cell_length_a 4.801676
_cell_length_b 10.703429
_cell_length_c 19.872927
_cell_angle_alpha 90.000000
_cell_angle_beta 90.000000
_cell_angle_gamma 90.000000
_cell_volume 1021.357123
_symmetry_space_group_name_H-M "P B C N"
_symmetry_group_IT_number 60
_symmetry_cell_setting 'orthorhombic'
loop_
_space_group_symop_operation_xyz
x,y,z
1/2-x,1/2-y,1/2+z
1/2+x,1/2-y,-z
-x,y,1/2-z
-x,-y,-z
1/2+x,1/2+y,1/2-z
1/2-x,1/2+y,z
x,-y,1/2+z
loop_
_atom_site_type_symbol
_atom_site_label
_atom_site_fract_x
_atom_site_fract_y
_atom_site_fract_z
Si Si1 0.500000 0.905654 0.750000
Si Si2 0.271959 0.707210 0.955870
Si Si3 0.371002 0.289702 0.644293
Si Si4 0.041560 0.522441 0.616621
O O1 0.746497 0.825149 0.782983
O O2 0.398525 0.992281 0.811452
O O3 0.174680 0.566230 0.939638
O O4 0.188470 0.774365 0.883876
O O5 0.558558 0.728234 0.992247
O O6 0.275947 0.147311 0.630276
O O7 0.236186 0.404740 0.603001
#
# Coordination Sequence:
#
# PCOD9457056 Si02
#       4
#     4   8   8   8
#     4   8  16  40  62  90 144 150 246 254 352 382
#     4  10  22  42  68  98 138 176 228 266 334 404
#     4   8  18  38  64  93 130 178 214 282 327 393
#     4   8  18  38  64  93 130 178 214 282 327 393
#
# _framework density 27.414503
#
# number of rings (size 3 to 8) (size 9 to 14) (size 15 to 20)
#    3.429    0.000    0.000    0.000    0.000    2.286 
#    5.143    1.429   12.571    0.000    0.000    0.000 
#    0.000    0.000    0.000    0.000    0.000    0.000 
#
# Total GULP energy -156020.035495 kJ/mol
# GULP energy per Si atom -5572.144125 kJ/mol
# Density = 2.735211 g / cm^3
# Si number density = 27.414503 Si / 1000 Ang^3
#
#
#
# Elastic Constant Matrix: (Units=GPa)
#
#
# Indices 1 2 3 4 5 6 
#
# 1 61.3598 22.2458 34.5057 0.0000 0.0000 0.0000
# 2 22.2458 175.2320 37.0467 0.0000 0.0000 0.0000
# 3 34.5057 37.0467 140.4284 0.0000 0.0000 0.0000
# 4 0.0000 0.0000 0.0000 60.4674 0.0000 0.0000
# 5 0.0000 0.0000 0.0000 0.0000 46.0674 0.0000
# 6 0.0000 0.0000 0.0000 0.0000 0.0000 34.4181
#
#
#
# Elastic Compliance Matrix: (Units=1/GPa)
#
#
# Indices 1 2 3 4 5 6 
#
# 1 0.019291 -0.001532 -0.004336 0.000000 0.000000 0.000000
# 2 -0.001532 0.006166 -0.001250 0.000000 0.000000 0.000000
# 3 -0.004336 -0.001250 0.008516 0.000000 0.000000 0.000000
# 4 0.000000 0.000000 0.000000 0.016538 0.000000 0.000000
# 5 0.000000 0.000000 0.000000 0.000000 0.021707 0.000000
# 6 0.000000 0.000000 0.000000 0.000000 0.000000 0.029055
#
#
# Mechanical properties :
#
#
# Convention : Reuss Voigt Hill
#
# Bulk Modulus (GPa) = 50.66786 62.73518 56.70152
# Shear Modulus (GPa) = 40.95406 47.07203 44.01305
#
# Velocity S-wave (km/s) = 3.86927 4.14822 4.01117
# Velocity P-wave (km/s) = 6.20354 6.77328 6.49466
#
# Compressibility (1/GPa) = 0.01973638
#
# Stress axis : x y z
#
# Youngs Moduli (GPa) = 51.83716 162.19219 117.42260
#
# Poissons Ratio (x) = 0.24853 0.50914
# Poissons Ratio (y) = 0.07943 0.14678
# Poissons Ratio (z) = 0.22476 0.20274
#
# Static dielectric constant tensor:
#      x y z
#    x 2.297490 0.000000 0.000000 
#    y 0.000000 2.160030 0.000000 
#    z 0.000000 0.000000 2.270070 
# 
# From -- ./inp_files/21350.got.cif
#   From: 2010.05.17/outbox.cif.g08.bks.cpg/sg60_11_cif.got.tgz:21350.got - 2010.06.03 14:59:27.
