data_PCOD9457834
_publ_section_title
;
Structure prediction by ZEFSAII (Michael W. Deem and Ramdas Pophale) SiO2 
 PCOD9457834
Probable space group: P B C N
;
_chemical_formula_sum "Si O2"
_cell_formula_units_Z 32
_cell_length_a 12.614651
_cell_length_b 10.017284
_cell_length_c 9.863734
_cell_angle_alpha 90.000000
_cell_angle_beta 90.000000
_cell_angle_gamma 90.000000
_cell_volume 1246.426226
_symmetry_space_group_name_H-M "P B C N"
_symmetry_group_IT_number 60
_symmetry_cell_setting 'orthorhombic'
loop_
_space_group_symop_operation_xyz
x,y,z
1/2-x,1/2-y,1/2+z
1/2+x,1/2-y,-z
-x,y,1/2-z
-x,-y,-z
1/2+x,1/2+y,1/2-z
1/2-x,1/2+y,z
x,-y,1/2+z
loop_
_atom_site_type_symbol
_atom_site_label
_atom_site_fract_x
_atom_site_fract_y
_atom_site_fract_z
Si Si1 0.079441 0.676280 0.511391
Si Si2 0.965025 0.914109 0.623386
Si Si3 0.243605 0.234915 0.307073
Si Si4 0.160386 0.397927 0.541663
O O1 0.045627 0.787153 0.620445
O O2 0.145443 0.725082 0.384319
O O3 0.349400 0.055866 0.571632
O O4 0.963668 0.638088 0.456419
O O5 0.000000 0.000238 0.750000
O O6 0.844529 0.868916 0.634547
O O7 0.000000 0.000000 0.500000
O O8 0.197990 0.368441 0.385721
O O9 0.273354 0.188568 0.152282
#
# Coordination Sequence:
#
# PCOD9457834 Si02
#       4
#     8   8   8   8
#     4  10  24  46  74 110 153 203 259 323 392 479
#     4  11  27  48  72 111 154 198 262 328 395 476
#     4  11  24  42  78 106 151 206 250 326 393 476
#     4  10  24  46  74 114 153 201 265 320 391 481
#
# _framework density 25.673401999999999
#
# number of rings (size 3 to 8) (size 9 to 14) (size 15 to 20)
#    0.000    1.500    0.000    2.250    7.000   12.000 
#    0.000    0.000    0.000    3.000    0.000    0.000 
#    0.000    0.000    0.000    0.000    0.000    0.000 
#
# Total GULP energy -178388.607908 kJ/mol
# GULP energy per Si atom -5574.643997 kJ/mol
# Density = 2.561497 g / cm^3
# Si number density = 25.673402 Si / 1000 Ang^3
#
#
#
# Elastic Constant Matrix: (Units=GPa)
#
#
# Indices 1 2 3 4 5 6 
#
# 1 150.4822 47.9969 30.3057 0.0000 0.0000 0.0000
# 2 47.9969 91.4688 43.0173 0.0000 0.0000 0.0000
# 3 30.3057 43.0173 156.9565 0.0000 0.0000 0.0000
# 4 0.0000 0.0000 0.0000 16.1239 0.0000 0.0000
# 5 0.0000 0.0000 0.0000 0.0000 45.8602 0.0000
# 6 0.0000 0.0000 0.0000 0.0000 0.0000 39.1232
#
#
#
# Elastic Compliance Matrix: (Units=1/GPa)
#
#
# Indices 1 2 3 4 5 6 
#
# 1 0.008009 -0.003990 -0.000453 0.000000 0.000000 0.000000
# 2 -0.003990 0.014538 -0.003214 0.000000 0.000000 0.000000
# 3 -0.000453 -0.003214 0.007340 0.000000 0.000000 0.000000
# 4 0.000000 0.000000 0.000000 0.062020 0.000000 0.000000
# 5 0.000000 0.000000 0.000000 0.000000 0.021805 0.000000
# 6 0.000000 0.000000 0.000000 0.000000 0.000000 0.025560
#
#
# Mechanical properties :
#
#
# Convention : Reuss Voigt Hill
#
# Bulk Modulus (GPa) = 68.61982 71.28303 69.95143
# Shear Modulus (GPa) = 31.35922 38.72728 35.04325
#
# Velocity S-wave (km/s) = 3.49874 3.88810 3.69855
# Velocity P-wave (km/s) = 6.56564 6.92691 6.74869
#
# Compressibility (1/GPa) = 0.01457305
#
# Stress axis : x y z
#
# Youngs Moduli (GPa) = 124.85919 68.78660 136.24842
#
# Poissons Ratio (x) = 0.27443 0.06172
# Poissons Ratio (y) = 0.49814 0.43791
# Poissons Ratio (z) = 0.05656 0.22108
#
# Static dielectric constant tensor:
#      x y z
#    x 1.969710 0.000000 0.000000 
#    y 0.000000 2.238600 0.000000 
#    z 0.000000 0.000000 2.162220 
# 
# From -- ./inp_files/10719.got.cif
#   From: 2010.05.17/outbox.cif.g08.bks.cpg/sg60_6_cif.got.tgz:10719.got - 2010.06.03 14:59:27.
