data_PCOD9457407
_publ_section_title
;
Structure prediction by ZEFSAII (Michael W. Deem and Ramdas Pophale) SiO2 
 PCOD9457407
Probable space group: P B C N
;
_chemical_formula_sum "Si O2"
_cell_formula_units_Z 28
_cell_length_a 7.366733
_cell_length_b 17.673963
_cell_length_c 10.883983
_cell_angle_alpha 90.000000
_cell_angle_beta 90.000000
_cell_angle_gamma 90.000000
_cell_volume 1417.087691
_symmetry_space_group_name_H-M "P B C N"
_symmetry_group_IT_number 60
_symmetry_cell_setting 'orthorhombic'
loop_
_space_group_symop_operation_xyz
x,y,z
1/2-x,1/2-y,1/2+z
1/2+x,1/2-y,-z
-x,y,1/2-z
-x,-y,-z
1/2+x,1/2+y,1/2-z
1/2-x,1/2+y,z
x,-y,1/2+z
loop_
_atom_site_type_symbol
_atom_site_label
_atom_site_fract_x
_atom_site_fract_y
_atom_site_fract_z
Si Si1 0.811065 0.922789 0.693064
Si Si2 0.360804 0.788135 0.649809
Si Si3 0.000000 0.541400 0.750000
Si Si4 0.845334 0.647334 0.963515
O O1 0.751879 0.851968 0.778396
O O2 0.802211 0.892064 0.553540
O O3 0.000000 0.950055 0.750000
O O4 0.658732 0.987044 0.701063
O O5 0.500000 0.754069 0.750000
O O6 0.484042 0.829168 0.548079
O O7 0.238249 0.723259 0.593018
O O8 0.916166 0.592484 0.857476
#
# Coordination Sequence:
#
# PCOD9457407 Si02
#       4
#     8   8   4   8
#     4  11  24  46  68  99 139 182 230 284 343 414
#     4  10  23  42  69 100 132 179 234 278 339 407
#     4  12  26  44  68 104 144 176 224 288 358 406
#     4  11  24  43  71  98 144 177 231 291 340 410
#
# _framework density 19.758832000000002
#
# number of rings (size 3 to 8) (size 9 to 14) (size 15 to 20)
#    0.000    1.143    4.286    2.571   10.000    2.286 
#    0.000    0.000    0.000    0.000    0.000    0.000 
#    0.000    0.000    0.000    0.000    0.000    0.000 
#
# Total GULP energy -156542.257310 kJ/mol
# GULP energy per Si atom -5590.794904 kJ/mol
# Density = 1.971386 g / cm^3
# Si number density = 19.758832 Si / 1000 Ang^3
#
#
#
# Elastic Constant Matrix: (Units=GPa)
#
#
# Indices 1 2 3 4 5 6 
#
# 1 42.7493 -2.4685 -3.4301 0.0000 0.0000 0.0000
# 2 -2.4685 62.8999 28.7399 0.0000 0.0000 0.0000
# 3 -3.4301 28.7399 95.5001 0.0000 0.0000 0.0000
# 4 0.0000 0.0000 0.0000 -7.3006 0.0000 0.0000
# 5 0.0000 0.0000 0.0000 0.0000 18.8861 0.0000
# 6 0.0000 0.0000 0.0000 0.0000 0.0000 34.7943
#
#
#
# Elastic Compliance Matrix: (Units=1/GPa)
#
#
# Indices 1 2 3 4 5 6 
#
# 1 0.023481 0.000622 0.000656 0.000000 0.000000 0.000000
# 2 0.000622 0.018449 -0.005530 0.000000 0.000000 0.000000
# 3 0.000656 -0.005530 0.012159 0.000000 0.000000 0.000000
# 4 0.000000 0.000000 0.000000 -0.136974 0.000000 0.000000
# 5 0.000000 0.000000 0.000000 0.000000 0.052949 0.000000
# 6 0.000000 0.000000 0.000000 0.000000 0.000000 0.028740
#
#
# Mechanical properties :
#
#
# Convention : Reuss Voigt Hill
#
# Bulk Modulus (GPa) = 21.93695 27.42576 24.68135
# Shear Modulus (GPa) = 222.19348 21.16315 121.67832
#
# Velocity S-wave (km/s) = 10.61588 3.27628 7.85592
# Velocity P-wave (km/s) = 12.70389 5.31247 9.73682
#
# Compressibility (1/GPa) = 0.04558519
#
# Stress axis : x y z
#
# Youngs Moduli (GPa) = 42.58809 54.20252 82.24415
#
# Poissons Ratio (x) = -0.03369 -0.05398
# Poissons Ratio (y) = -0.02647 0.45480
# Poissons Ratio (z) = -0.02795 0.29973
#
# Static dielectric constant tensor:
#      x y z
#    x 1.709680 0.000000 0.000000 
#    y 0.000000 1.653660 0.000000 
#    z 0.000000 0.000000 1.696240 
# 
# From -- ./inp_files/3472.got.cif
#   From: 2010.05.17/outbox.cif.g08.bks.cpg/sg60_2_cif.got.tgz:3472.got - 2010.06.03 14:59:27.
