data_PCOD9457265
_publ_section_title
;
Structure prediction by ZEFSAII (Michael W. Deem and Ramdas Pophale) SiO2 
 PCOD9457265
Probable space group: P B C N
;
_chemical_formula_sum "Si O2"
_cell_formula_units_Z 56
_cell_length_a 21.173248
_cell_length_b 13.623220
_cell_length_c 8.785059
_cell_angle_alpha 90.000000
_cell_angle_beta 90.000000
_cell_angle_gamma 90.000000
_cell_volume 2534.031079
_symmetry_space_group_name_H-M "P B C N"
_symmetry_group_IT_number 60
_symmetry_cell_setting 'orthorhombic'
loop_
_space_group_symop_operation_xyz
x,y,z
1/2-x,1/2-y,1/2+z
1/2+x,1/2-y,-z
-x,y,1/2-z
-x,-y,-z
1/2+x,1/2+y,1/2-z
1/2-x,1/2+y,z
x,-y,1/2+z
loop_
_atom_site_type_symbol
_atom_site_label
_atom_site_fract_x
_atom_site_fract_y
_atom_site_fract_z
Si Si1 0.216844 0.884955 0.353681
Si Si2 0.789435 0.649761 0.139198
Si Si3 0.660535 0.890331 0.973124
Si Si4 0.328588 0.448473 0.023647
Si Si5 0.584635 0.922079 0.490148
Si Si6 0.500000 0.185983 0.750000
Si Si7 0.000000 0.325518 0.750000
Si Si8 0.078335 0.788079 0.007009
O O1 0.213926 0.767727 0.352678
O O2 0.287308 0.916605 0.402396
O O3 0.172973 0.937442 0.479587
O O4 0.195514 0.926246 0.192428
O O5 0.809413 0.609491 0.305298
O O6 0.723474 0.604035 0.084694
O O7 0.846274 0.623819 0.022663
O O8 0.639625 0.780541 0.007544
O O9 0.600491 0.962523 0.980061
O O10 0.396502 0.397893 0.006167
O O11 0.550961 0.880602 0.339757
O O12 0.539785 0.890897 0.630771
O O13 0.532836 0.255874 0.627498
O O14 0.046960 0.252987 0.660545
#
# Coordination Sequence:
#
# PCOD9457265 Si02
#       8
#     8   8   8   8   8   4   4   8
#     4  12  25  43  69 106 139 180 221 287 359 420
#     4  12  24  46  68 101 143 185 220 292 351 408
#     4  12  25  41  69 103 144 179 231 275 346 426
#     4  12  26  43  71 101 139 182 232 285 353 418
#     4  11  25  42  68 102 144 190 230 279 338 419
#     4  10  28  41  68 103 146 192 233 284 339 408
#     4  10  22  47  68  93 146 192 231 274 351 396
#     4  11  24  45  68 100 138 184 236 286 341 418
#
# _framework density 22.099176
#
# number of rings (size 3 to 8) (size 9 to 14) (size 15 to 20)
#    0.000    0.571    5.714    0.857    4.000    5.714 
#    0.000    0.000    0.000   14.571    0.000    0.000 
#    0.000    0.000    0.000    0.000    0.000    0.000 
#
# Total GULP energy -313541.515090 kJ/mol
# GULP energy per Si atom -5598.955627 kJ/mol
# Density = 2.204888 g / cm^3
# Si number density = 22.099176 Si / 1000 Ang^3
#
#
#
# Elastic Constant Matrix: (Units=GPa)
#
#
# Indices 1 2 3 4 5 6 
#
# 1 70.9915 12.7989 17.9148 0.0000 0.0000 0.0000
# 2 12.7989 53.9233 10.4319 0.0000 0.0000 0.0000
# 3 17.9148 10.4319 80.5541 0.0000 0.0000 0.0000
# 4 0.0000 0.0000 0.0000 16.5173 0.0000 0.0000
# 5 0.0000 0.0000 0.0000 0.0000 18.4210 0.0000
# 6 0.0000 0.0000 0.0000 0.0000 0.0000 30.7526
#
#
#
# Elastic Compliance Matrix: (Units=1/GPa)
#
#
# Indices 1 2 3 4 5 6 
#
# 1 0.015404 -0.003070 -0.003028 0.000000 0.000000 0.000000
# 2 -0.003070 0.019633 -0.001860 0.000000 0.000000 0.000000
# 3 -0.003028 -0.001860 0.013328 0.000000 0.000000 0.000000
# 4 0.000000 0.000000 0.000000 0.060543 0.000000 0.000000
# 5 0.000000 0.000000 0.000000 0.000000 0.054286 0.000000
# 6 0.000000 0.000000 0.000000 0.000000 0.000000 0.032518
#
#
# Mechanical properties :
#
#
# Convention : Reuss Voigt Hill
#
# Bulk Modulus (GPa) = 30.81742 31.97334 31.39538
# Shear Modulus (GPa) = 22.47754 24.09307 23.28530
#
# Velocity S-wave (km/s) = 3.19269 3.30544 3.24955
# Velocity P-wave (km/s) = 5.25037 5.39142 5.32136
#
# Compressibility (1/GPa) = 0.03244918
#
# Stress axis : x y z
#
# Youngs Moduli (GPa) = 64.91860 50.93359 75.02834
#
# Poissons Ratio (x) = 0.15638 0.22720
# Poissons Ratio (y) = 0.19932 0.13953
# Poissons Ratio (z) = 0.19658 0.09472
#
# Static dielectric constant tensor:
#      x y z
#    x 1.809600 0.000000 0.000000 
#    y 0.000000 1.838500 0.000000 
#    z 0.000000 0.000000 1.823880 
# 
# From -- ./inp_files/7467.got.cif
#   From: 2010.05.17/outbox.cif.g08.bks.cpg/sg60_4_cif.got.tgz:7467.got - 2010.06.03 14:59:27.
