data_PCOD9457603
_publ_section_title
;
Structure prediction by ZEFSAII (Michael W. Deem and Ramdas Pophale) SiO2 
 PCOD9457603
Probable space group: P B C N
;
_chemical_formula_sum "Si O2"
_cell_formula_units_Z 56
_cell_length_a 5.379154
_cell_length_b 14.727929
_cell_length_c 26.588257
_cell_angle_alpha 90.000000
_cell_angle_beta 90.000000
_cell_angle_gamma 90.000000
_cell_volume 2106.422707
_symmetry_space_group_name_H-M "P B C N"
_symmetry_group_IT_number 60
_symmetry_cell_setting 'orthorhombic'
loop_
_space_group_symop_operation_xyz
x,y,z
1/2-x,1/2-y,1/2+z
1/2+x,1/2-y,-z
-x,y,1/2-z
-x,-y,-z
1/2+x,1/2+y,1/2-z
1/2-x,1/2+y,z
x,-y,1/2+z
loop_
_atom_site_type_symbol
_atom_site_label
_atom_site_fract_x
_atom_site_fract_y
_atom_site_fract_z
Si Si1 0.576310 0.932368 0.883118
Si Si2 0.053338 0.071218 0.613986
Si Si3 0.739992 0.501755 0.704394
Si Si4 0.500000 0.164191 0.750000
Si Si5 0.253386 0.362572 0.473837
Si Si6 0.000000 0.652027 0.250000
Si Si7 0.265516 0.245488 0.161630
Si Si8 0.745537 0.854653 0.533687
O O1 0.751643 0.845042 0.871537
O O2 0.339696 0.894379 0.913108
O O3 0.471602 0.980450 0.833016
O O4 0.740133 0.007600 0.910336
O O5 0.978011 0.021638 0.665708
O O6 0.820297 0.087202 0.577747
O O7 0.162786 0.169681 0.627479
O O8 0.783840 0.593016 0.735839
O O9 0.766305 0.415074 0.740715
O O10 0.446395 0.222730 0.700361
O O11 0.255320 0.254614 0.463070
O O12 0.987889 0.381802 0.498279
O O13 0.489367 0.380936 0.510431
O O14 0.024308 0.714956 0.201538
#
# Coordination Sequence:
#
# PCOD9457603 Si02
#       8
#     8   8   8   4   8   4   8   8
#     4  11  25  45  67 107 142 175 249 290 360 430
#     4  12  25  44  71 104 138 188 237 296 366 431
#     4  10  24  43  66 100 139 182 235 306 340 441
#     4  11  22  44  67  96 138 190 243 288 369 424
#     4  10  24  45  75 104 145 193 241 296 371 442
#     4   9  22  44  63  98 140 180 243 278 359 422
#     4  11  23  44  68 100 135 191 226 295 356 434
#     4  10  23  47  72 106 146 191 240 301 363 448
#
# _framework density 26.585356999999998
#
# number of rings (size 3 to 8) (size 9 to 14) (size 15 to 20)
#    0.000    1.429    2.857    0.857    6.000    1.143 
#    2.571    0.000    0.000    0.000    0.000    0.000 
#    0.000    0.000    0.000    0.000    0.000    0.000 
#
# Total GULP energy -313786.167010 kJ/mol
# GULP energy per Si atom -5603.324411 kJ/mol
# Density = 2.652485 g / cm^3
# Si number density = 26.585357 Si / 1000 Ang^3
#
#
#
# Elastic Constant Matrix: (Units=GPa)
#
#
# Indices 1 2 3 4 5 6 
#
# 1 98.9118 42.3803 23.7147 0.0000 0.0000 0.0000
# 2 42.3803 157.1075 36.5108 0.0000 0.0000 0.0000
# 3 23.7147 36.5108 92.1396 0.0000 0.0000 0.0000
# 4 0.0000 0.0000 0.0000 109.4287 0.0000 0.0000
# 5 0.0000 0.0000 0.0000 0.0000 52.0369 0.0000
# 6 0.0000 0.0000 0.0000 0.0000 0.0000 28.4041
#
#
#
# Elastic Compliance Matrix: (Units=1/GPa)
#
#
# Indices 1 2 3 4 5 6 
#
# 1 0.011740 -0.002715 -0.001946 0.000000 0.000000 0.000000
# 2 -0.002715 0.007638 -0.002328 0.000000 0.000000 0.000000
# 3 -0.001946 -0.002328 0.012276 0.000000 0.000000 0.000000
# 4 0.000000 0.000000 0.000000 0.009138 0.000000 0.000000
# 5 0.000000 0.000000 0.000000 0.000000 0.019217 0.000000
# 6 0.000000 0.000000 0.000000 0.000000 0.000000 0.035206
#
#
# Mechanical properties :
#
#
# Convention : Reuss Voigt Hill
#
# Bulk Modulus (GPa) = 56.56939 61.48561 59.02750
# Shear Modulus (GPa) = 43.44588 54.34414 48.89501
#
# Velocity S-wave (km/s) = 4.04691 4.52612 4.29321
# Velocity P-wave (km/s) = 6.56972 7.10578 6.84301
#
# Compressibility (1/GPa) = 0.01767741
#
# Stress axis : x y z
#
# Youngs Moduli (GPa) = 85.18127 130.91796 81.45697
#
# Poissons Ratio (x) = 0.35539 0.15850
# Poissons Ratio (y) = 0.23123 0.18964
# Poissons Ratio (z) = 0.16575 0.30478
#
# Static dielectric constant tensor:
#      x y z
#    x 2.175360 0.000000 0.000000 
#    y 0.000000 2.041960 0.000000 
#    z 0.000000 0.000000 2.081830 
# 
# From -- ./inp_files/25730.got.cif
#   From: 2010.05.17/outbox.cif.g08.bks.cpg/sg60_13_cif.got.tgz:25730.got - 2010.06.03 14:59:27.
