data_PCOD9457199
_publ_section_title
;
Structure prediction by ZEFSAII (Michael W. Deem and Ramdas Pophale) SiO2 
 PCOD9457199
Probable space group: P B C N
;
_chemical_formula_sum "Si O2"
_cell_formula_units_Z 36
_cell_length_a 5.067622
_cell_length_b 22.260375
_cell_length_c 13.618946
_cell_angle_alpha 90.000000
_cell_angle_beta 90.000000
_cell_angle_gamma 90.000000
_cell_volume 1536.314703
_symmetry_space_group_name_H-M "P B C N"
_symmetry_group_IT_number 60
_symmetry_cell_setting 'orthorhombic'
loop_
_space_group_symop_operation_xyz
x,y,z
1/2-x,1/2-y,1/2+z
1/2+x,1/2-y,-z
-x,y,1/2-z
-x,-y,-z
1/2+x,1/2+y,1/2-z
1/2-x,1/2+y,z
x,-y,1/2+z
loop_
_atom_site_type_symbol
_atom_site_label
_atom_site_fract_x
_atom_site_fract_y
_atom_site_fract_z
Si Si1 0.083914 0.508464 0.613229
Si Si2 0.100033 0.067655 0.349475
Si Si3 0.500000 0.118538 0.750000
Si Si4 0.693271 0.696593 0.601571
Si Si5 0.804824 0.675135 0.022827
O O1 0.840547 0.477114 0.669187
O O2 0.104549 0.574102 0.663117
O O3 0.000000 0.500000 0.500000
O O4 0.356994 0.473032 0.617865
O O5 0.206613 0.115396 0.425779
O O6 0.000000 0.098680 0.250000
O O7 0.285279 0.161439 0.802133
O O8 0.728695 0.768626 0.597283
O O9 0.394328 0.686234 0.567607
O O10 0.895941 0.673676 0.516154
#
# Coordination Sequence:
#
# PCOD9457199 Si02
#       5
#     8   8   4   8   8
#     4  12  26  43  65  96 135 175 218 277 328 385
#     4  12  23  42  65  94 126 173 217 268 318 402
#     4  12  24  44  66 100 132 174 230 258 338 388
#     4  10  24  41  68  95 130 167 213 280 316 409
#     4  10  22  45  65  96 129 168 217 265 350 370
#
# _framework density 23.432697999999998
#
# number of rings (size 3 to 8) (size 9 to 14) (size 15 to 20)
#    0.000    0.889    2.222    4.667    1.556    4.444 
#    0.000    0.000    0.000    0.000    0.000    0.000 
#    0.000    0.000    0.000    0.000    0.000    0.000 
#
# Total GULP energy -201433.799478 kJ/mol
# GULP energy per Si atom -5595.383319 kJ/mol
# Density = 2.337936 g / cm^3
# Si number density = 23.432698 Si / 1000 Ang^3
#
#
#
# Elastic Constant Matrix: (Units=GPa)
#
#
# Indices 1 2 3 4 5 6 
#
# 1 109.6213 19.9189 6.1608 0.0000 0.0000 0.0000
# 2 19.9189 121.9869 31.2974 0.0000 0.0000 0.0000
# 3 6.1608 31.2974 98.7130 0.0000 0.0000 0.0000
# 4 0.0000 0.0000 0.0000 54.5679 0.0000 0.0000
# 5 0.0000 0.0000 0.0000 0.0000 33.2913 0.0000
# 6 0.0000 0.0000 0.0000 0.0000 0.0000 23.9676
#
#
#
# Elastic Compliance Matrix: (Units=1/GPa)
#
#
# Indices 1 2 3 4 5 6 
#
# 1 0.009402 -0.001507 -0.000109 0.000000 0.000000 0.000000
# 2 -0.001507 0.009165 -0.002812 0.000000 0.000000 0.000000
# 3 -0.000109 -0.002812 0.011029 0.000000 0.000000 0.000000
# 4 0.000000 0.000000 0.000000 0.018326 0.000000 0.000000
# 5 0.000000 0.000000 0.000000 0.000000 0.030038 0.000000
# 6 0.000000 0.000000 0.000000 0.000000 0.000000 0.041723
#
#
# Mechanical properties :
#
#
# Convention : Reuss Voigt Hill
#
# Bulk Modulus (GPa) = 48.21582 49.45285 48.83433
# Shear Modulus (GPa) = 36.91339 40.56162 38.73751
#
# Velocity S-wave (km/s) = 3.97330 4.16502 4.07029
# Velocity P-wave (km/s) = 6.45527 6.65432 6.55555
#
# Compressibility (1/GPa) = 0.02074008
#
# Stress axis : x y z
#
# Youngs Moduli (GPa) = 106.35663 109.10924 90.67287
#
# Poissons Ratio (x) = 0.16446 0.00987
# Poissons Ratio (y) = 0.16032 0.25495
# Poissons Ratio (z) = 0.01158 0.30679
#
# Static dielectric constant tensor:
#      x y z
#    x 1.822730 0.000000 0.000000 
#    y 0.000000 1.875070 0.000000 
#    z 0.000000 0.000000 1.975230 
# 
# From -- ./inp_files/13706.got.cif
#   From: 2010.05.17/outbox.cif.g08.bks.cpg/sg60_7_cif.got.tgz:13706.got - 2010.06.03 14:59:27.
