data_PCOD9457888
_publ_section_title
;
Structure prediction by ZEFSAII (Michael W. Deem and Ramdas Pophale) SiO2 
 PCOD9457888
Probable space group: P B C N
;
_chemical_formula_sum "Si O2"
_cell_formula_units_Z 48
_cell_length_a 16.233390
_cell_length_b 14.595970
_cell_length_c 9.785131
_cell_angle_alpha 90.000000
_cell_angle_beta 90.000000
_cell_angle_gamma 90.000000
_cell_volume 2318.509228
_symmetry_space_group_name_H-M "P B C N"
_symmetry_group_IT_number 60
_symmetry_cell_setting 'orthorhombic'
loop_
_space_group_symop_operation_xyz
x,y,z
1/2-x,1/2-y,1/2+z
1/2+x,1/2-y,-z
-x,y,1/2-z
-x,-y,-z
1/2+x,1/2+y,1/2-z
1/2-x,1/2+y,z
x,-y,1/2+z
loop_
_atom_site_type_symbol
_atom_site_label
_atom_site_fract_x
_atom_site_fract_y
_atom_site_fract_z
Si Si1 0.946493 0.689838 0.973375
Si Si2 0.773430 0.542997 0.607617
Si Si3 0.500000 0.130569 0.250000
Si Si4 0.269852 0.725100 0.027601
Si Si5 0.685039 0.352479 0.678672
Si Si6 0.500000 0.669879 0.250000
Si Si7 0.882516 0.518810 0.851929
O O1 0.990476 0.689029 0.116431
O O2 0.850425 0.712518 0.991280
O O3 0.984305 0.764917 0.877620
O O4 0.950710 0.589537 0.905701
O O5 0.722076 0.629732 0.555099
O O6 0.823077 0.569125 0.744606
O O7 0.834513 0.519484 0.482542
O O8 0.577703 0.064363 0.269531
O O9 0.270447 0.695011 0.188272
O O10 0.197942 0.783430 0.951017
O O11 0.589744 0.373161 0.719646
O O12 0.725317 0.450025 0.643009
#
# Coordination Sequence:
#
# PCOD9457888 Si02
#       7
#     8   8   4   8   8   4   8
#     4  11  24  43  60 100 128 175 213 267 341 400
#     4  12  24  42  68  95 129 174 227 268 323 394
#     4  12  25  38  63  96 144 162 214 269 345 402
#     4  11  24  42  69  93 132 171 224 270 321 400
#     4  11  24  45  66 100 128 175 224 273 329 394
#     4  10  25  42  67  88 136 172 218 273 335 378
#     4  12  23  41  64  97 132 170 215 275 331 395
#
# _framework density 20.702959
#
# number of rings (size 3 to 8) (size 9 to 14) (size 15 to 20)
#    0.000    0.667    5.000    3.000    4.667    0.000 
#    0.000    4.167    0.000    0.000    0.000    0.000 
#    0.000    0.000    0.000    0.000    0.000    0.000 
#
# Total GULP energy -268181.721719 kJ/mol
# GULP energy per Si atom -5587.119202 kJ/mol
# Density = 2.065584 g / cm^3
# Si number density = 20.702959 Si / 1000 Ang^3
#
#
#
# Elastic Constant Matrix: (Units=GPa)
#
#
# Indices 1 2 3 4 5 6 
#
# 1 60.8663 10.5992 27.7276 0.0000 0.0000 0.0000
# 2 10.5992 55.9651 8.2982 0.0000 0.0000 0.0000
# 3 27.7276 8.2982 96.2243 0.0000 0.0000 0.0000
# 4 0.0000 0.0000 0.0000 -58.7677 0.0000 0.0000
# 5 0.0000 0.0000 0.0000 0.0000 36.7375 0.0000
# 6 0.0000 0.0000 0.0000 0.0000 0.0000 -42.1842
#
#
#
# Elastic Compliance Matrix: (Units=1/GPa)
#
#
# Indices 1 2 3 4 5 6 
#
# 1 0.019358 -0.002876 -0.005330 0.000000 0.000000 0.000000
# 2 -0.002876 0.018527 -0.000769 0.000000 0.000000 0.000000
# 3 -0.005330 -0.000769 0.011995 0.000000 0.000000 0.000000
# 4 0.000000 0.000000 0.000000 -0.017016 0.000000 0.000000
# 5 0.000000 0.000000 0.000000 0.000000 0.027220 0.000000
# 6 0.000000 0.000000 0.000000 0.000000 0.000000 -0.023706
#
#
# Mechanical properties :
#
#
# Convention : Reuss Voigt Hill
#
# Bulk Modulus (GPa) = 31.31882 34.03397 32.67639
# Shear Modulus (GPa) = 76.95606 -1.74750 37.60428
#
# Velocity S-wave (km/s) = 6.10346 -0.91974 4.26652
# Velocity P-wave (km/s) = 8.05172 3.91752 6.33155
#
# Compressibility (1/GPa) = 0.03192968
#
# Stress axis : x y z
#
# Youngs Moduli (GPa) = 51.65700 53.97534 83.37052
#
# Poissons Ratio (x) = 0.15523 0.44438
# Poissons Ratio (y) = 0.14856 0.06411
# Poissons Ratio (z) = 0.27534 0.04151
#
# Static dielectric constant tensor:
#      x y z
#    x 1.774650 0.000000 0.000000 
#    y 0.000000 1.705940 0.000000 
#    z 0.000000 0.000000 1.740790 
# 
# From -- ./inp_files/11903.got.cif
#   From: 2010.05.17/outbox.cif.g08.bks.cpg/sg60_6_cif.got.tgz:11903.got - 2010.06.03 14:59:27.
