data_PCOD9457458
_publ_section_title
;
Structure prediction by ZEFSAII (Michael W. Deem and Ramdas Pophale) SiO2 
 PCOD9457458
Probable space group: P B C N
;
_chemical_formula_sum "Si O2"
_cell_formula_units_Z 48
_cell_length_a 19.231326
_cell_length_b 10.546408
_cell_length_c 8.751773
_cell_angle_alpha 90.000000
_cell_angle_beta 90.000000
_cell_angle_gamma 90.000000
_cell_volume 1775.046943
_symmetry_space_group_name_H-M "P B C N"
_symmetry_group_IT_number 60
_symmetry_cell_setting 'orthorhombic'
loop_
_space_group_symop_operation_xyz
x,y,z
1/2-x,1/2-y,1/2+z
1/2+x,1/2-y,-z
-x,y,1/2-z
-x,-y,-z
1/2+x,1/2+y,1/2-z
1/2-x,1/2+y,z
x,-y,1/2+z
loop_
_atom_site_type_symbol
_atom_site_label
_atom_site_fract_x
_atom_site_fract_y
_atom_site_fract_z
Si Si1 0.020835 0.130387 0.575093
Si Si2 0.423826 0.743114 0.314416
Si Si3 0.774113 0.125400 0.718126
Si Si4 0.079950 0.543332 0.295150
Si Si5 0.616680 0.740649 0.507863
Si Si6 0.208706 0.610569 0.106262
O O1 0.965547 0.235796 0.529641
O O2 0.000000 0.114657 0.750000
O O3 0.088242 0.175600 0.478492
O O4 0.000000 0.000000 0.500000
O O5 0.500000 0.699766 0.250000
O O6 0.373223 0.714299 0.170768
O O7 0.424975 0.894372 0.325416
O O8 0.846696 0.141536 0.622208
O O9 0.756186 0.003150 0.820741
O O10 0.773186 0.252856 0.818774
O O11 0.721789 0.124183 0.574139
O O12 0.124724 0.618323 0.426361
O O13 0.130209 0.576912 0.154505
O O14 0.000000 0.578984 0.250000
#
# Coordination Sequence:
#
# PCOD9457458 Si02
#       6
#     8   8   8   8   8   8
#     4  11  23  42  64  97 145 187 242 296 368 446
#     4   9  21  40  65  99 142 186 233 306 362 440
#     4  11  26  49  73 107 146 203 255 316 375 472
#     4  10  23  43  73 112 147 186 245 317 387 447
#     4  10  23  43  67 102 143 189 248 297 376 450
#     4  11  26  49  77 109 153 200 260 313 388 465
#
# _framework density 27.041537999999999
#
# number of rings (size 3 to 8) (size 9 to 14) (size 15 to 20)
#    0.000    1.667    0.000    3.000    7.000   10.000 
#    3.000    0.000    0.000    0.000    0.000    0.000 
#    0.000    0.000    0.000    0.000    0.000    0.000 
#
# Total GULP energy -267909.975795 kJ/mol
# GULP energy per Si atom -5581.457829 kJ/mol
# Density = 2.697999 g / cm^3
# Si number density = 27.041538 Si / 1000 Ang^3
#
#
#
# Elastic Constant Matrix: (Units=GPa)
#
#
# Indices 1 2 3 4 5 6 
#
# 1 98.4245 14.0303 13.4840 0.0000 0.0000 0.0000
# 2 14.0303 138.6012 51.6349 0.0000 0.0000 0.0000
# 3 13.4840 51.6349 183.5851 0.0000 0.0000 0.0000
# 4 0.0000 0.0000 0.0000 47.4838 0.0000 0.0000
# 5 0.0000 0.0000 0.0000 0.0000 46.1254 0.0000
# 6 0.0000 0.0000 0.0000 0.0000 0.0000 32.2996
#
#
#
# Elastic Compliance Matrix: (Units=1/GPa)
#
#
# Indices 1 2 3 4 5 6 
#
# 1 0.010353 -0.000854 -0.000520 0.000000 0.000000 0.000000
# 2 -0.000854 0.008130 -0.002224 0.000000 0.000000 0.000000
# 3 -0.000520 -0.002224 0.006111 0.000000 0.000000 0.000000
# 4 0.000000 0.000000 0.000000 0.021060 0.000000 0.000000
# 5 0.000000 0.000000 0.000000 0.000000 0.021680 0.000000
# 6 0.000000 0.000000 0.000000 0.000000 0.000000 0.030960
#
#
# Mechanical properties :
#
#
# Convention : Reuss Voigt Hill
#
# Bulk Modulus (GPa) = 57.48039 64.32324 60.90182
# Shear Modulus (GPa) = 44.92796 47.94589 46.43692
#
# Velocity S-wave (km/s) = 4.08050 4.21532 4.14846
# Velocity P-wave (km/s) = 6.59569 6.89423 6.74661
#
# Compressibility (1/GPa) = 0.01739724
#
# Stress axis : x y z
#
# Youngs Moduli (GPa) = 96.58940 123.00271 163.64601
#
# Poissons Ratio (x) = 0.10507 0.08512
# Poissons Ratio (y) = 0.08251 0.36393
# Poissons Ratio (z) = 0.05024 0.27354
#
# Static dielectric constant tensor:
#      x y z
#    x 2.309400 0.000000 0.000000 
#    y 0.000000 2.105720 0.000000 
#    z 0.000000 0.000000 2.610690 
# 
# From -- ./inp_files/7585.got.cif
#   From: 2010.05.17/outbox.cif.g08.bks.cpg/sg60_4_cif.got.tgz:7585.got - 2010.06.03 14:59:27.
