data_PCOD9457701
_publ_section_title
;
Structure prediction by ZEFSAII (Michael W. Deem and Ramdas Pophale) SiO2 
 PCOD9457701
Probable space group: P B C N
;
_chemical_formula_sum "Si O2"
_cell_formula_units_Z 28
_cell_length_a 5.139931
_cell_length_b 19.017704
_cell_length_c 12.382595
_cell_angle_alpha 90.000000
_cell_angle_beta 90.000000
_cell_angle_gamma 90.000000
_cell_volume 1210.394777
_symmetry_space_group_name_H-M "P B C N"
_symmetry_group_IT_number 60
_symmetry_cell_setting 'orthorhombic'
loop_
_space_group_symop_operation_xyz
x,y,z
1/2-x,1/2-y,1/2+z
1/2+x,1/2-y,-z
-x,y,1/2-z
-x,-y,-z
1/2+x,1/2+y,1/2-z
1/2-x,1/2+y,z
x,-y,1/2+z
loop_
_atom_site_type_symbol
_atom_site_label
_atom_site_fract_x
_atom_site_fract_y
_atom_site_fract_z
Si Si1 0.263673 0.924387 0.916505
Si Si2 0.983733 0.708113 0.979226
Si Si3 0.723381 0.493269 0.350553
Si Si4 0.000000 0.373590 0.250000
O O1 0.512160 0.962767 0.866118
O O2 0.348991 0.844679 0.934778
O O3 0.208007 0.950660 0.037405
O O4 0.012056 0.951457 0.853917
O O5 0.014885 0.672054 0.860186
O O6 0.768291 0.769976 0.977836
O O7 0.766178 0.430201 0.264502
#
# Coordination Sequence:
#
# PCOD9457701 Si02
#       4
#     8   8   8   4
#     4   9  18  35  58  88 122 161 209 273 335 379
#     4  11  24  42  66  97 141 185 225 273 333 421
#     4   9  18  34  60  89 119 156 215 279 330 390
#     4  10  24  42  68  98 132 184 234 280 352 404
#
# _framework density 23.132947999999999
#
# number of rings (size 3 to 8) (size 9 to 14) (size 15 to 20)
#    0.000    2.286    0.000    1.714    0.000   11.429 
#    0.000    5.714    0.000    0.000    0.000    0.000 
#    0.000    0.000    0.000    0.000    0.000    0.000 
#
# Total GULP energy -156118.149695 kJ/mol
# GULP energy per Si atom -5575.648203 kJ/mol
# Density = 2.308030 g / cm^3
# Si number density = 23.132948 Si / 1000 Ang^3
#
#
#
# Elastic Constant Matrix: (Units=GPa)
#
#
# Indices 1 2 3 4 5 6 
#
# 1 155.6922 24.4880 45.2621 0.0000 0.0000 0.0000
# 2 24.4880 74.4590 54.0746 0.0000 0.0000 0.0000
# 3 45.2621 54.0746 118.0246 0.0000 0.0000 0.0000
# 4 0.0000 0.0000 0.0000 57.2673 0.0000 0.0000
# 5 0.0000 0.0000 0.0000 0.0000 -6.2878 0.0000
# 6 0.0000 0.0000 0.0000 0.0000 0.0000 48.4353
#
#
#
# Elastic Compliance Matrix: (Units=1/GPa)
#
#
# Indices 1 2 3 4 5 6 
#
# 1 0.007244 -0.000547 -0.002527 0.000000 0.000000 0.000000
# 2 -0.000547 0.020169 -0.009031 0.000000 0.000000 0.000000
# 3 -0.002527 -0.009031 0.013580 0.000000 0.000000 0.000000
# 4 0.000000 0.000000 0.000000 0.017462 0.000000 0.000000
# 5 0.000000 0.000000 0.000000 0.000000 -0.159038 0.000000
# 6 0.000000 0.000000 0.000000 0.000000 0.000000 0.020646
#
#
# Mechanical properties :
#
#
# Convention : Reuss Voigt Hill
#
# Bulk Modulus (GPa) = 59.58824 66.20281 62.89552
# Shear Modulus (GPa) = -99.73225 34.83970 -32.44628
#
# Velocity S-wave (km/s) = -6.57315 3.88501 -3.74919
# Velocity P-wave (km/s) = 5.63856 6.98606 2.91647
#
# Compressibility (1/GPa) = 0.01678184
#
# Stress axis : x y z
#
# Youngs Moduli (GPa) = 138.05120 49.58227 73.63968
#
# Poissons Ratio (x) = 0.02711 0.18612
# Poissons Ratio (y) = 0.07549 0.66502
# Poissons Ratio (z) = 0.34891 0.44777
#
# Static dielectric constant tensor:
#      x y z
#    x 1.936340 0.000000 0.000000 
#    y 0.000000 1.890660 0.000000 
#    z 0.000000 0.000000 2.184790 
# 
# From -- ./inp_files/13551.got.cif
#   From: 2010.05.17/outbox.cif.g08.bks.cpg/sg60_7_cif.got.tgz:13551.got - 2010.06.03 14:59:27.
