data_PCOD9457738
_publ_section_title
;
Structure prediction by ZEFSAII (Michael W. Deem and Ramdas Pophale) SiO2 
 PCOD9457738
Probable space group: P B C N
;
_chemical_formula_sum "Si O2"
_cell_formula_units_Z 36
_cell_length_a 5.943667
_cell_length_b 20.188751
_cell_length_c 13.263803
_cell_angle_alpha 90.000000
_cell_angle_beta 90.000000
_cell_angle_gamma 90.000000
_cell_volume 1591.592867
_symmetry_space_group_name_H-M "P B C N"
_symmetry_group_IT_number 60
_symmetry_cell_setting 'orthorhombic'
loop_
_space_group_symop_operation_xyz
x,y,z
1/2-x,1/2-y,1/2+z
1/2+x,1/2-y,-z
-x,y,1/2-z
-x,-y,-z
1/2+x,1/2+y,1/2-z
1/2-x,1/2+y,z
x,-y,1/2+z
loop_
_atom_site_type_symbol
_atom_site_label
_atom_site_fract_x
_atom_site_fract_y
_atom_site_fract_z
Si Si1 0.340188 0.958885 0.150855
Si Si2 0.123861 0.729346 0.142356
Si Si3 0.500000 0.796496 0.250000
Si Si4 0.379194 0.909855 0.538985
Si Si5 0.418496 0.633605 0.872613
O O1 0.500000 0.954657 0.250000
O O2 0.115185 0.915767 0.167298
O O3 0.331952 0.036974 0.125927
O O4 0.435138 0.930942 0.043845
O O5 0.379027 0.749312 0.169187
O O6 0.083658 0.663426 0.080741
O O7 0.028371 0.796832 0.095618
O O8 0.000000 0.721310 0.250000
O O9 0.698914 0.838192 0.192079
O O10 0.163746 0.905914 0.468404
#
# Coordination Sequence:
#
# PCOD9457738 Si02
#       5
#     8   8   4   8   8
#     4  11  27  49  75 105 151 197 245 305 375 450
#     4  10  24  43  74 109 148 190 239 309 374 438
#     4  10  24  44  70 108 146 194 248 298 370 434
#     4  11  26  46  74 113 147 191 248 306 374 445
#     4  11  25  42  74 108 143 194 246 302 365 439
#
# _framework density 22.618850999999999
#
# number of rings (size 3 to 8) (size 9 to 14) (size 15 to 20)
#    0.000    1.333    0.000    2.667   18.667    1.778 
#    0.000    2.222    0.000    0.000    0.000    0.000 
#    0.000    0.000    0.000    0.000    0.000    0.000 
#
# Total GULP energy -200561.202343 kJ/mol
# GULP energy per Si atom -5571.144510 kJ/mol
# Density = 2.256737 g / cm^3
# Si number density = 22.618851 Si / 1000 Ang^3
#
#
#
# Elastic Constant Matrix: (Units=GPa)
#
#
# Indices 1 2 3 4 5 6 
#
# 1 117.2738 79.6377 51.1789 0.0000 0.0000 0.0000
# 2 79.6377 161.7961 54.2705 0.0000 0.0000 0.0000
# 3 51.1789 54.2705 74.3626 0.0000 0.0000 0.0000
# 4 0.0000 0.0000 0.0000 50.9823 0.0000 0.0000
# 5 0.0000 0.0000 0.0000 0.0000 24.8623 0.0000
# 6 0.0000 0.0000 0.0000 0.0000 0.0000 61.1737
#
#
#
# Elastic Compliance Matrix: (Units=1/GPa)
#
#
# Indices 1 2 3 4 5 6 
#
# 1 0.014833 -0.005133 -0.006462 0.000000 0.000000 0.000000
# 2 -0.005133 0.009961 -0.003736 0.000000 0.000000 0.000000
# 3 -0.006462 -0.003736 0.020622 0.000000 0.000000 0.000000
# 4 0.000000 0.000000 0.000000 0.019615 0.000000 0.000000
# 5 0.000000 0.000000 0.000000 0.000000 0.040221 0.000000
# 6 0.000000 0.000000 0.000000 0.000000 0.000000 0.016347
#
#
# Mechanical properties :
#
#
# Convention : Reuss Voigt Hill
#
# Bulk Modulus (GPa) = 67.78884 80.40074 74.09479
# Shear Modulus (GPa) = 31.81061 38.62670 35.21865
#
# Velocity S-wave (km/s) = 3.75424 4.13694 3.95023
# Velocity P-wave (km/s) = 6.98767 7.64474 7.32358
#
# Compressibility (1/GPa) = 0.01475169
#
# Stress axis : x y z
#
# Youngs Moduli (GPa) = 67.41615 100.39539 48.49192
#
# Poissons Ratio (x) = 0.51538 0.31337
# Poissons Ratio (y) = 0.34608 0.18118
# Poissons Ratio (z) = 0.43566 0.37511
#
# Static dielectric constant tensor:
#      x y z
#    x 1.888110 0.000000 0.000000 
#    y 0.000000 1.857020 0.000000 
#    z 0.000000 0.000000 1.740530 
# 
# From -- ./inp_files/13737.got.cif
#   From: 2010.05.17/outbox.cif.g08.bks.cpg/sg60_7_cif.got.tgz:13737.got - 2010.06.03 14:59:27.
