data_PCOD9457385
_publ_section_title
;
Structure prediction by ZEFSAII (Michael W. Deem and Ramdas Pophale) SiO2 
 PCOD9457385
Probable space group: P B C N
;
_chemical_formula_sum "Si O2"
_cell_formula_units_Z 32
_cell_length_a 8.023995
_cell_length_b 18.016173
_cell_length_c 9.623208
_cell_angle_alpha 90.000000
_cell_angle_beta 90.000000
_cell_angle_gamma 90.000000
_cell_volume 1391.147135
_symmetry_space_group_name_H-M "P B C N"
_symmetry_group_IT_number 60
_symmetry_cell_setting 'orthorhombic'
loop_
_space_group_symop_operation_xyz
x,y,z
1/2-x,1/2-y,1/2+z
1/2+x,1/2-y,-z
-x,y,1/2-z
-x,-y,-z
1/2+x,1/2+y,1/2-z
1/2-x,1/2+y,z
x,-y,1/2+z
loop_
_atom_site_type_symbol
_atom_site_label
_atom_site_fract_x
_atom_site_fract_y
_atom_site_fract_z
Si Si1 0.245093 0.212481 0.711894
Si Si2 0.811088 0.543212 0.800438
Si Si3 0.437239 0.720933 0.446047
Si Si4 0.363614 0.449935 0.924126
O O1 0.244504 0.124843 0.741001
O O2 0.408057 0.235426 0.619722
O O3 0.095443 0.232921 0.608966
O O4 0.278495 0.252071 0.856373
O O5 0.699288 0.482051 0.721927
O O6 0.000000 0.535775 0.750000
O O7 0.790297 0.544576 0.966703
O O8 0.437711 0.632716 0.419983
O O9 0.500000 0.500000 0.000000
#
# Coordination Sequence:
#
# PCOD9457385 Si02
#       4
#     8   8   8   8
#     4  10  23  42  67  92 131 167 221 263 325 391
#     4  11  23  45  65  98 132 175 216 272 326 392
#     4  10  23  42  65  95 125 175 211 273 320 389
#     4  11  26  41  68  99 133 172 220 272 330 387
#
# _framework density 23.002600999999999
#
# number of rings (size 3 to 8) (size 9 to 14) (size 15 to 20)
#    0.000    1.500    2.500    1.500   10.500    1.000 
#    9.000    0.000    0.000    0.000    0.000    0.000 
#    0.000    0.000    0.000    0.000    0.000    0.000 
#
# Total GULP energy -178901.199986 kJ/mol
# GULP energy per Si atom -5590.662500 kJ/mol
# Density = 2.295025 g / cm^3
# Si number density = 23.002601 Si / 1000 Ang^3
#
#
#
# Elastic Constant Matrix: (Units=GPa)
#
#
# Indices 1 2 3 4 5 6 
#
# 1 55.3123 -25.3563 -19.7262 0.0000 0.0000 0.0000
# 2 -25.3563 68.6285 8.3400 0.0000 0.0000 0.0000
# 3 -19.7262 8.3400 96.0790 0.0000 0.0000 0.0000
# 4 0.0000 0.0000 0.0000 37.2641 0.0000 0.0000
# 5 0.0000 0.0000 0.0000 0.0000 38.1882 0.0000
# 6 0.0000 0.0000 0.0000 0.0000 0.0000 137.1828
#
#
#
# Elastic Compliance Matrix: (Units=1/GPa)
#
#
# Indices 1 2 3 4 5 6 
#
# 1 0.023240 0.008092 0.004069 0.000000 0.000000 0.000000
# 2 0.008092 0.017544 0.000138 0.000000 0.000000 0.000000
# 3 0.004069 0.000138 0.011231 0.000000 0.000000 0.000000
# 4 0.000000 0.000000 0.000000 0.026835 0.000000 0.000000
# 5 0.000000 0.000000 0.000000 0.000000 0.026186 0.000000
# 6 0.000000 0.000000 0.000000 0.000000 0.000000 0.007290
#
#
# Mechanical properties :
#
#
# Convention : Reuss Voigt Hill
#
# Bulk Modulus (GPa) = 13.05238 16.28166 14.66702
# Shear Modulus (GPa) = 44.14398 59.64451 51.89424
#
# Velocity S-wave (km/s) = 4.38549 5.09762 4.75491
# Velocity P-wave (km/s) = 5.59732 6.46074 6.04447
#
# Compressibility (1/GPa) = 0.07661439
#
# Stress axis : x y z
#
# Youngs Moduli (GPa) = 43.02957 56.99911 89.03534
#
# Poissons Ratio (x) = -0.46124 -0.36229
# Poissons Ratio (y) = -0.34819 -0.01233
# Poissons Ratio (z) = -0.17509 -0.00789
#
# Static dielectric constant tensor:
#      x y z
#    x 1.905420 0.000000 0.000000 
#    y 0.000000 1.799490 0.000000 
#    z 0.000000 0.000000 1.875240 
# 
# From -- ./inp_files/4597.got.cif
#   From: 2010.05.17/outbox.cif.g08.bks.cpg/sg60_3_cif.got.tgz:4597.got - 2010.06.03 14:59:27.
