data_PCOD9457357
_publ_section_title
;
Structure prediction by ZEFSAII (Michael W. Deem and Ramdas Pophale) SiO2 
 PCOD9457357
Probable space group: P B C N
;
_chemical_formula_sum "Si O2"
_cell_formula_units_Z 44
_cell_length_a 14.117520
_cell_length_b 10.126534
_cell_length_c 11.718794
_cell_angle_alpha 90.000000
_cell_angle_beta 90.000000
_cell_angle_gamma 90.000000
_cell_volume 1675.336911
_symmetry_space_group_name_H-M "P B C N"
_symmetry_group_IT_number 60
_symmetry_cell_setting 'orthorhombic'
loop_
_space_group_symop_operation_xyz
x,y,z
1/2-x,1/2-y,1/2+z
1/2+x,1/2-y,-z
-x,y,1/2-z
-x,-y,-z
1/2+x,1/2+y,1/2-z
1/2-x,1/2+y,z
x,-y,1/2+z
loop_
_atom_site_type_symbol
_atom_site_label
_atom_site_fract_x
_atom_site_fract_y
_atom_site_fract_z
Si Si1 0.200696 0.666103 0.355368
Si Si2 0.145033 0.537728 0.569947
Si Si3 0.500000 0.117127 0.750000
Si Si4 0.908667 0.821663 0.574529
Si Si5 0.724436 0.683211 0.386286
Si Si6 0.929322 0.875949 0.074449
O O1 0.131532 0.583236 0.438150
O O2 0.295473 0.679405 0.431439
O O3 0.249502 0.626588 0.238486
O O4 0.138084 0.796907 0.339349
O O5 0.206241 0.660037 0.624456
O O6 0.193214 0.398093 0.551711
O O7 0.060877 0.532582 0.660701
O O8 0.440470 0.215639 0.831859
O O9 0.970012 0.811354 0.457817
O O10 0.935825 0.972487 0.609376
O O11 0.630532 0.635716 0.454524
#
# Coordination Sequence:
#
# PCOD9457357 Si02
#       6
#     8   8   4   8   8   8
#     4  11  22  39  68  98 136 180 235 288 357 412
#     4  11  25  43  67 100 139 184 237 288 359 424
#     4  12  22  44  68 102 142 188 234 282 380 422
#     4  11  20  40  70  97 139 184 231 297 346 430
#     4  11  23  41  68  97 136 179 231 292 342 428
#     4  10  23  41  64 108 134 179 249 284 355 423
#
# _framework density 26.263375
#
# number of rings (size 3 to 8) (size 9 to 14) (size 15 to 20)
#    0.000    1.091    7.273    0.000    2.545    0.000 
#    0.000    4.545    0.000    0.000    0.000    0.000 
#    0.000    0.000    0.000    0.000    0.000    0.000 
#
# Total GULP energy -245374.043773 kJ/mol
# GULP energy per Si atom -5576.682813 kJ/mol
# Density = 2.620360 g / cm^3
# Si number density = 26.263375 Si / 1000 Ang^3
#
#
#
# Elastic Constant Matrix: (Units=GPa)
#
#
# Indices 1 2 3 4 5 6 
#
# 1 64.4110 18.7295 -31.8229 0.0000 0.0000 0.0000
# 2 18.7295 91.6482 2.1448 0.0000 0.0000 0.0000
# 3 -31.8229 2.1448 79.8751 0.0000 0.0000 0.0000
# 4 0.0000 0.0000 0.0000 1.5767 0.0000 0.0000
# 5 0.0000 0.0000 0.0000 0.0000 42.4715 0.0000
# 6 0.0000 0.0000 0.0000 0.0000 0.0000 -62.6543
#
#
#
# Elastic Compliance Matrix: (Units=1/GPa)
#
#
# Indices 1 2 3 4 5 6 
#
# 1 0.021033 -0.004497 0.008500 0.000000 0.000000 0.000000
# 2 -0.004497 0.011880 -0.002111 0.000000 0.000000 0.000000
# 3 0.008500 -0.002111 0.015963 0.000000 0.000000 0.000000
# 4 0.000000 0.000000 0.000000 0.634228 0.000000 0.000000
# 5 0.000000 0.000000 0.000000 0.000000 0.023545 0.000000
# 6 0.000000 0.000000 0.000000 0.000000 0.000000 -0.015961
#
#
# Mechanical properties :
#
#
# Convention : Reuss Voigt Hill
#
# Bulk Modulus (GPa) = 18.98970 23.78190 21.38580
# Shear Modulus (GPa) = 7.09767 12.73764 9.91766
#
# Velocity S-wave (km/s) = 1.64571 2.20465 1.94536
# Velocity P-wave (km/s) = 3.29505 3.94404 3.63406
#
# Compressibility (1/GPa) = 0.05266013
#
# Stress axis : x y z
#
# Youngs Moduli (GPa) = 47.54497 84.17685 62.64545
#
# Poissons Ratio (x) = 0.37856 -0.53251
# Poissons Ratio (y) = 0.21382 0.13223
# Poissons Ratio (z) = -0.40415 0.17768
#
# Static dielectric constant tensor:
#      x y z
#    x 2.117180 0.000000 0.000000 
#    y 0.000000 2.125670 0.000000 
#    z 0.000000 0.000000 2.239200 
# 
# From -- ./inp_files/16740.got.cif
#   From: 2010.05.17/outbox.cif.g08.bks.cpg/sg60_9_cif.got.tgz:16740.got - 2010.06.03 14:59:27.
