data_PCOD9457979
_publ_section_title
;
Structure prediction by ZEFSAII (Michael W. Deem and Ramdas Pophale) SiO2 
 PCOD9457979
Probable space group: P B C N
;
_chemical_formula_sum "Si O2"
_cell_formula_units_Z 44
_cell_length_a 4.941803
_cell_length_b 16.420366
_cell_length_c 23.691355
_cell_angle_alpha 90.000000
_cell_angle_beta 90.000000
_cell_angle_gamma 90.000000
_cell_volume 1922.463762
_symmetry_space_group_name_H-M "P B C N"
_symmetry_group_IT_number 60
_symmetry_cell_setting 'orthorhombic'
loop_
_space_group_symop_operation_xyz
x,y,z
1/2-x,1/2-y,1/2+z
1/2+x,1/2-y,-z
-x,y,1/2-z
-x,-y,-z
1/2+x,1/2+y,1/2-z
1/2-x,1/2+y,z
x,-y,1/2+z
loop_
_atom_site_type_symbol
_atom_site_label
_atom_site_fract_x
_atom_site_fract_y
_atom_site_fract_z
Si Si1 0.137009 0.303353 0.987409
Si Si2 0.500000 0.539481 0.750000
Si Si3 0.731380 0.850047 0.158087
Si Si4 0.199016 0.565500 0.157159
Si Si5 0.204631 0.167613 0.358311
Si Si6 0.230695 0.909777 0.090804
O O1 0.189352 0.378338 0.029401
O O2 0.333853 0.230495 0.008296
O O3 0.217496 0.323787 0.923892
O O4 0.687869 0.596277 0.711284
O O5 0.683261 0.484888 0.790741
O O6 0.764048 0.754611 0.169098
O O7 0.431524 0.865926 0.135295
O O8 0.932063 0.880391 0.108133
O O9 0.394648 0.642275 0.148301
O O10 0.229880 0.505100 0.103552
O O11 0.895419 0.596150 0.165170
#
# Coordination Sequence:
#
# PCOD9457979 Si02
#       6
#     8   4   8   8   8   8
#     4  12  22  40  71  99 137 179 218 269 330 395
#     4  10  26  48  68  92 130 190 216 278 348 394
#     4  11  23  42  71  94 127 175 237 263 320 402
#     4  11  26  42  66  97 143 167 221 285 339 385
#     4  12  24  42  68 105 133 170 224 286 322 396
#     4  11  22  43  66  99 135 182 216 263 330 411
#
# _framework density 22.887298000000001
#
# number of rings (size 3 to 8) (size 9 to 14) (size 15 to 20)
#    0.000    0.727    3.636    4.364    0.000    9.455 
#    0.000    0.000    0.000    0.000    0.000    0.000 
#    0.000    0.000    0.000    0.000    0.000    0.000 
#
# Total GULP energy -246635.180367 kJ/mol
# GULP energy per Si atom -5605.345008 kJ/mol
# Density = 2.283521 g / cm^3
# Si number density = 22.887298 Si / 1000 Ang^3
#
#
#
# Elastic Constant Matrix: (Units=GPa)
#
#
# Indices 1 2 3 4 5 6 
#
# 1 64.0432 -0.8458 -5.6540 0.0000 0.0000 0.0000
# 2 -0.8458 84.2116 13.5417 0.0000 0.0000 0.0000
# 3 -5.6540 13.5417 102.5614 0.0000 0.0000 0.0000
# 4 0.0000 0.0000 0.0000 33.4504 0.0000 0.0000
# 5 0.0000 0.0000 0.0000 0.0000 14.8307 0.0000
# 6 0.0000 0.0000 0.0000 0.0000 0.0000 41.0186
#
#
#
# Elastic Compliance Matrix: (Units=1/GPa)
#
#
# Indices 1 2 3 4 5 6 
#
# 1 0.015691 0.000019 0.000863 0.000000 0.000000 0.000000
# 2 0.000019 0.012132 -0.001601 0.000000 0.000000 0.000000
# 3 0.000863 -0.001601 0.010009 0.000000 0.000000 0.000000
# 4 0.000000 0.000000 0.000000 0.029895 0.000000 0.000000
# 5 0.000000 0.000000 0.000000 0.000000 0.067428 0.000000
# 6 0.000000 0.000000 0.000000 0.000000 0.000000 0.024379
#
#
# Mechanical properties :
#
#
# Convention : Reuss Voigt Hill
#
# Bulk Modulus (GPa) = 27.47738 29.43334 28.45536
# Shear Modulus (GPa) = 28.88432 34.11157 31.49795
#
# Velocity S-wave (km/s) = 3.55635 3.86478 3.71377
# Velocity P-wave (km/s) = 5.37542 5.72742 5.55421
#
# Compressibility (1/GPa) = 0.03639357
#
# Stress axis : x y z
#
# Youngs Moduli (GPa) = 63.73137 82.42350 99.90831
#
# Poissons Ratio (x) = -0.00156 -0.08617
# Poissons Ratio (y) = -0.00120 0.15994
# Poissons Ratio (z) = -0.05497 0.13195
#
# Static dielectric constant tensor:
#      x y z
#    x 1.801480 0.000000 0.000000 
#    y 0.000000 1.852870 0.000000 
#    z 0.000000 0.000000 1.829080 
# 
# From -- ./inp_files/24823.got.cif
#   From: 2010.05.17/outbox.cif.g08.bks.cpg/sg60_13_cif.got.tgz:24823.got - 2010.06.03 14:59:27.
