data_PCOD9457693
_publ_section_title
;
Structure prediction by ZEFSAII (Michael W. Deem and Ramdas Pophale) SiO2 
 PCOD9457693
Probable space group: P B C N
;
_chemical_formula_sum "Si O2"
_cell_formula_units_Z 40
_cell_length_a 10.291370
_cell_length_b 13.135218
_cell_length_c 12.733376
_cell_angle_alpha 90.000000
_cell_angle_beta 90.000000
_cell_angle_gamma 90.000000
_cell_volume 1721.289981
_symmetry_space_group_name_H-M "P B C N"
_symmetry_group_IT_number 60
_symmetry_cell_setting 'orthorhombic'
loop_
_space_group_symop_operation_xyz
x,y,z
1/2-x,1/2-y,1/2+z
1/2+x,1/2-y,-z
-x,y,1/2-z
-x,-y,-z
1/2+x,1/2+y,1/2-z
1/2-x,1/2+y,z
x,-y,1/2+z
loop_
_atom_site_type_symbol
_atom_site_label
_atom_site_fract_x
_atom_site_fract_y
_atom_site_fract_z
Si Si1 0.106083 0.301713 0.608394
Si Si2 0.020284 0.113106 0.950116
Si Si3 0.805681 0.379758 0.119372
Si Si4 0.932517 0.819324 0.652073
Si Si5 0.663103 0.894862 0.670748
O O1 0.161661 0.349629 0.501607
O O2 0.171789 0.351821 0.710631
O O3 0.095112 0.177816 0.606832
O O4 0.956009 0.336668 0.618765
O O5 0.032044 0.181009 0.056377
O O6 0.149092 0.115716 0.879598
O O7 0.000000 0.000000 0.000000
O O8 0.876024 0.290243 0.182673
O O9 0.860711 0.486035 0.158991
O O10 0.801149 0.875041 0.616825
O O11 0.000000 0.871688 0.750000
#
# Coordination Sequence:
#
# PCOD9457693 Si02
#       5
#     8   8   8   8   8
#     4  10  24  42  67 100 132 181 226 278 343 410
#     4  11  22  45  70  97 138 180 223 284 346 409
#     4  11  23  44  69  98 133 177 226 281 344 408
#     4  11  24  42  66 100 135 172 232 280 335 410
#     4  11  22  45  64  99 139 173 227 281 337 410
#
# _framework density 23.238385999999998
#
# number of rings (size 3 to 8) (size 9 to 14) (size 15 to 20)
#    0.000    1.200    4.000    1.800    2.800    0.000 
#   10.800    0.000    0.000    0.000    0.000    0.000 
#    0.000    0.000    0.000    0.000    0.000    0.000 
#
# Total GULP energy -223139.047225 kJ/mol
# GULP energy per Si atom -5578.476181 kJ/mol
# Density = 2.318549 g / cm^3
# Si number density = 23.238386 Si / 1000 Ang^3
#
#
#
# Elastic Constant Matrix: (Units=GPa)
#
#
# Indices 1 2 3 4 5 6 
#
# 1 64.8065 11.7436 15.2213 0.0000 0.0000 0.0000
# 2 11.7436 168.4476 3.1074 0.0000 0.0000 0.0000
# 3 15.2213 3.1074 68.3696 0.0000 0.0000 0.0000
# 4 0.0000 0.0000 0.0000 18.5532 0.0000 0.0000
# 5 0.0000 0.0000 0.0000 0.0000 24.8988 0.0000
# 6 0.0000 0.0000 0.0000 0.0000 0.0000 9.5781
#
#
#
# Elastic Compliance Matrix: (Units=1/GPa)
#
#
# Indices 1 2 3 4 5 6 
#
# 1 0.016477 -0.001082 -0.003619 0.000000 0.000000 0.000000
# 2 -0.001082 0.006013 -0.000032 0.000000 0.000000 0.000000
# 3 -0.003619 -0.000032 0.015434 0.000000 0.000000 0.000000
# 4 0.000000 0.000000 0.000000 0.053899 0.000000 0.000000
# 5 0.000000 0.000000 0.000000 0.000000 0.040163 0.000000
# 6 0.000000 0.000000 0.000000 0.000000 0.000000 0.104404
#
#
# Mechanical properties :
#
#
# Convention : Reuss Voigt Hill
#
# Bulk Modulus (GPa) = 35.14197 40.19648 37.66922
# Shear Modulus (GPa) = 19.58167 28.70947 24.14557
#
# Velocity S-wave (km/s) = 2.90598 3.51869 3.22691
# Velocity P-wave (km/s) = 5.13954 5.81749 5.48899
#
# Compressibility (1/GPa) = 0.02845601
#
# Stress axis : x y z
#
# Youngs Moduli (GPa) = 60.69199 166.31767 64.79377
#
# Poissons Ratio (x) = 0.17994 0.23449
# Poissons Ratio (y) = 0.06566 0.00210
# Poissons Ratio (z) = 0.21965 0.00539
#
# Static dielectric constant tensor:
#      x y z
#    x 1.863240 0.000000 0.000000 
#    y 0.000000 1.935790 0.000000 
#    z 0.000000 0.000000 1.949950 
# 
# From -- ./inp_files/15810.got.cif
#   From: 2010.05.17/outbox.cif.g08.bks.cpg/sg60_8_cif.got.tgz:15810.got - 2010.06.03 14:59:27.
