data_PCOD9457975
_publ_section_title
;
Structure prediction by ZEFSAII (Michael W. Deem and Ramdas Pophale) SiO2 
 PCOD9457975
Probable space group: P B C N
;
_chemical_formula_sum "Si O2"
_cell_formula_units_Z 52
_cell_length_a 13.015952
_cell_length_b 9.260813
_cell_length_c 19.442653
_cell_angle_alpha 90.000000
_cell_angle_beta 90.000000
_cell_angle_gamma 90.000000
_cell_volume 2343.584291
_symmetry_space_group_name_H-M "P B C N"
_symmetry_group_IT_number 60
_symmetry_cell_setting 'orthorhombic'
loop_
_space_group_symop_operation_xyz
x,y,z
1/2-x,1/2-y,1/2+z
1/2+x,1/2-y,-z
-x,y,1/2-z
-x,-y,-z
1/2+x,1/2+y,1/2-z
1/2-x,1/2+y,z
x,-y,1/2+z
loop_
_atom_site_type_symbol
_atom_site_label
_atom_site_fract_x
_atom_site_fract_y
_atom_site_fract_z
Si Si1 0.000000 0.244872 0.250000
Si Si2 0.703060 0.023824 0.588352
Si Si3 0.753778 0.764387 0.486952
Si Si4 0.075059 0.974216 0.855248
Si Si5 0.518308 0.969455 0.361322
Si Si6 0.463159 0.725495 0.034841
Si Si7 0.430821 0.716889 0.611534
O O1 0.925632 0.140660 0.206668
O O2 0.051000 0.353627 0.195716
O O3 0.714483 0.890769 0.536318
O O4 0.812109 0.034781 0.627750
O O5 0.684842 0.160260 0.538644
O O6 0.605418 0.008858 0.638093
O O7 0.654784 0.675309 0.462384
O O8 0.820607 0.815588 0.422415
O O9 0.032432 0.883775 0.920994
O O10 0.988966 0.097408 0.843574
O O11 0.539186 0.885036 0.432236
O O12 0.570259 0.124287 0.355848
O O13 0.497851 0.727458 0.956544
#
# Coordination Sequence:
#
# PCOD9457975 Si02
#       7
#     4   8   8   8   8   8   8
#     4  10  26  48  60  80 122 182 224 264 294 354
#     4  12  20  36  64  96 120 166 214 254 308 402
#     4  12  22  32  61 101 136 159 199 248 337 403
#     4  11  23  41  64  90 130 169 217 259 314 369
#     4  11  23  41  64  90 130 169 217 259 314 369
#     4  11  20  38  59  96 137 160 189 267 326 386
#     4  12  21  37  62  99 130 160 202 268 322 385
#
# _framework density 22.188234000000001
#
# number of rings (size 3 to 8) (size 9 to 14) (size 15 to 20)
#    0.000    0.615    6.154    3.692    0.000    0.615 
#    0.000    6.154    0.000    0.000    0.000    0.000 
#    0.000    0.000    0.000    0.000    0.000    0.000 
#
# Total GULP energy -290634.390122 kJ/mol
# GULP energy per Si atom -5589.122887 kJ/mol
# Density = 2.213773 g / cm^3
# Si number density = 22.188234 Si / 1000 Ang^3
#
#
#
# Elastic Constant Matrix: (Units=GPa)
#
#
# Indices 1 2 3 4 5 6 
#
# 1 64.2978 -26.8676 13.5698 0.0000 0.0000 0.0000
# 2 -26.8676 105.1598 24.7024 0.0000 0.0000 0.0000
# 3 13.5698 24.7024 58.7279 0.0000 0.0000 0.0000
# 4 0.0000 0.0000 0.0000 32.4284 0.0000 0.0000
# 5 0.0000 0.0000 0.0000 0.0000 4.7183 0.0000
# 6 0.0000 0.0000 0.0000 0.0000 0.0000 24.0016
#
#
#
# Elastic Compliance Matrix: (Units=1/GPa)
#
#
# Indices 1 2 3 4 5 6 
#
# 1 0.020014 0.006879 -0.007518 0.000000 0.000000 0.000000
# 2 0.006879 0.012917 -0.007023 0.000000 0.000000 0.000000
# 3 -0.007518 -0.007023 0.021719 0.000000 0.000000 0.000000
# 4 0.000000 0.000000 0.000000 0.030837 0.000000 0.000000
# 5 0.000000 0.000000 0.000000 0.000000 0.211941 0.000000
# 6 0.000000 0.000000 0.000000 0.000000 0.000000 0.041664
#
#
# Mechanical properties :
#
#
# Convention : Reuss Voigt Hill
#
# Bulk Modulus (GPa) = 25.42801 27.88830 26.65815
# Shear Modulus (GPa) = 13.60459 26.68172 20.14316
#
# Velocity S-wave (km/s) = 2.47886 3.47149 3.01629
# Velocity P-wave (km/s) = 4.43599 5.35393 4.91643
#
# Compressibility (1/GPa) = 0.03932671
#
# Stress axis : x y z
#
# Youngs Moduli (GPa) = 49.96512 77.41955 46.04323
#
# Poissons Ratio (x) = -0.53260 0.34616
# Poissons Ratio (y) = -0.34373 0.32334
# Poissons Ratio (z) = 0.37564 0.54369
#
# Static dielectric constant tensor:
#      x y z
#    x 1.899840 0.000000 0.000000 
#    y 0.000000 1.857780 0.000000 
#    z 0.000000 0.000000 1.826020 
# 
# From -- ./inp_files/22851.got.cif
#   From: 2010.05.17/outbox.cif.g08.bks.cpg/sg60_12_cif.got.tgz:22851.got - 2010.06.03 14:59:27.
