data_PCOD9457822
_publ_section_title
;
Structure prediction by ZEFSAII (Michael W. Deem and Ramdas Pophale) SiO2 
 PCOD9457822
Probable space group: P B C N
;
_chemical_formula_sum "Si O2"
_cell_formula_units_Z 36
_cell_length_a 11.429725
_cell_length_b 25.071235
_cell_length_c 5.516695
_cell_angle_alpha 90.000000
_cell_angle_beta 90.000000
_cell_angle_gamma 90.000000
_cell_volume 1580.849343
_symmetry_space_group_name_H-M "P B C N"
_symmetry_group_IT_number 60
_symmetry_cell_setting 'orthorhombic'
loop_
_space_group_symop_operation_xyz
x,y,z
1/2-x,1/2-y,1/2+z
1/2+x,1/2-y,-z
-x,y,1/2-z
-x,-y,-z
1/2+x,1/2+y,1/2-z
1/2-x,1/2+y,z
x,-y,1/2+z
loop_
_atom_site_type_symbol
_atom_site_label
_atom_site_fract_x
_atom_site_fract_y
_atom_site_fract_z
Si Si1 0.810596 0.332865 0.513678
Si Si2 0.870038 0.786251 0.870427
Si Si3 0.872663 0.116020 0.695210
Si Si4 0.700791 0.967062 0.007984
Si Si5 0.500000 0.899511 0.250000
O O1 0.746837 0.313572 0.757093
O O2 0.835459 0.275303 0.391459
O O3 0.713596 0.374408 0.417263
O O4 0.928202 0.364003 0.443891
O O5 0.000000 0.789328 0.750000
O O6 0.886806 0.823378 0.102643
O O7 0.806073 0.075381 0.522119
O O8 0.000000 0.094444 0.750000
O O9 0.583886 0.934618 0.079028
O O10 0.706178 0.006609 0.242372
#
# Coordination Sequence:
#
# PCOD9457822 Si02
#       5
#     8   8   8   8   4
#     4  11  23  41  65 107 143 193 237 287 370 445
#     4  12  23  40  70 100 154 192 236 294 362 451
#     4  11  25  43  68 101 141 189 241 299 367 444
#     4  11  27  50  75 104 140 190 253 318 374 430
#     4  10  24  46  72 104 144 186 246 302 378 444
#
# _framework density 22.772568
#
# number of rings (size 3 to 8) (size 9 to 14) (size 15 to 20)
#    0.000    0.889    5.556    0.667    6.222    0.889 
#    4.000    4.444    0.000    0.000    0.000    0.000 
#    0.000    0.000    0.000    0.000    0.000    0.000 
#
# Total GULP energy -200564.081223 kJ/mol
# GULP energy per Si atom -5571.224478 kJ/mol
# Density = 2.272074 g / cm^3
# Si number density = 22.772568 Si / 1000 Ang^3
#
#
#
# Elastic Constant Matrix: (Units=GPa)
#
#
# Indices 1 2 3 4 5 6 
#
# 1 141.5701 48.5031 19.8572 0.0000 0.0000 0.0000
# 2 48.5031 108.0670 27.3096 0.0000 0.0000 0.0000
# 3 19.8572 27.3096 49.4025 0.0000 0.0000 0.0000
# 4 0.0000 0.0000 0.0000 45.6828 0.0000 0.0000
# 5 0.0000 0.0000 0.0000 0.0000 9.2198 0.0000
# 6 0.0000 0.0000 0.0000 0.0000 0.0000 6126.9516
#
#
#
# Elastic Compliance Matrix: (Units=1/GPa)
#
#
# Indices 1 2 3 4 5 6 
#
# 1 0.008443 -0.003408 -0.001510 0.000000 0.000000 0.000000
# 2 -0.003408 0.012132 -0.005337 0.000000 0.000000 0.000000
# 3 -0.001510 -0.005337 0.023799 0.000000 0.000000 0.000000
# 4 0.000000 0.000000 0.000000 0.021890 0.000000 0.000000
# 5 0.000000 0.000000 0.000000 0.000000 0.108463 0.000000
# 6 0.000000 0.000000 0.000000 0.000000 0.000000 0.000163
#
#
# Mechanical properties :
#
#
# Convention : Reuss Voigt Hill
#
# Bulk Modulus (GPa) = 41.90238 54.48660 48.19449
# Shear Modulus (GPa) = 24.58781 1249.92881 637.25831
#
# Velocity S-wave (km/s) = 3.28946 23.45349 16.74645
# Velocity P-wave (km/s) = 5.73304 27.52090 19.87798
#
# Compressibility (1/GPa) = 0.02386499
#
# Stress axis : x y z
#
# Youngs Moduli (GPa) = 118.44171 82.42888 42.01891
#
# Poissons Ratio (x) = 0.28091 0.06344
# Poissons Ratio (y) = 0.40363 0.22424
# Poissons Ratio (z) = 0.17882 0.43989
#
# Static dielectric constant tensor:
#      x y z
#    x 1.896190 0.000000 0.000000 
#    y 0.000000 1.861370 0.000000 
#    z 0.000000 0.000000 1.957050 
# 
# From -- ./inp_files/755.got.cif
#   From: 2010.05.17/outbox.cif.g08.bks.cpg/sg60_1_cif.got.tgz:755.got - 2010.06.03 14:59:27.
