data_PCOD9457311
_publ_section_title
;
Structure prediction by ZEFSAII (Michael W. Deem and Ramdas Pophale) SiO2 
 PCOD9457311
Probable space group: P B C N
;
_chemical_formula_sum "Si O2"
_cell_formula_units_Z 44
_cell_length_a 21.248804
_cell_length_b 5.270580
_cell_length_c 16.139409
_cell_angle_alpha 90.000000
_cell_angle_beta 90.000000
_cell_angle_gamma 90.000000
_cell_volume 1807.509247
_symmetry_space_group_name_H-M "P B C N"
_symmetry_group_IT_number 60
_symmetry_cell_setting 'orthorhombic'
loop_
_space_group_symop_operation_xyz
x,y,z
1/2-x,1/2-y,1/2+z
1/2+x,1/2-y,-z
-x,y,1/2-z
-x,-y,-z
1/2+x,1/2+y,1/2-z
1/2-x,1/2+y,z
x,-y,1/2+z
loop_
_atom_site_type_symbol
_atom_site_label
_atom_site_fract_x
_atom_site_fract_y
_atom_site_fract_z
Si Si1 0.720437 0.425553 0.709674
Si Si2 0.500000 0.775457 0.250000
Si Si3 0.595695 0.786222 0.129579
Si Si4 0.474967 0.491998 0.102879
Si Si5 0.092822 0.486915 0.046440
Si Si6 0.271363 0.033603 0.102183
O O1 0.730186 0.711880 0.679221
O O2 0.654837 0.312196 0.680188
O O3 0.734823 0.439195 0.809322
O O4 0.547041 0.929332 0.191738
O O5 0.457687 0.585222 0.195319
O O6 0.549441 0.553378 0.103098
O O7 0.611129 0.941313 0.047348
O O8 0.549218 0.782257 0.921184
O O9 0.442655 0.720093 0.051133
O O10 0.154668 0.483109 0.104065
O O11 0.239139 0.799061 0.057398
#
# Coordination Sequence:
#
# PCOD9457311 Si02
#       6
#     8   4   8   8   8   8
#     4  10  24  40  63  91 129 172 219 266 321 383
#     4   8  24  42  70  96 138 168 222 258 342 378
#     4  10  24  44  66 103 130 175 215 279 318 404
#     4  10  25  43  68 100 131 175 209 277 325 400
#     4  12  24  43  71  95 136 168 224 266 339 377
#     4  10  23  39  65  92 127 175 218 265 322 388
#
# _framework density 24.342891999999999
#
# number of rings (size 3 to 8) (size 9 to 14) (size 15 to 20)
#    1.091    0.727    0.000    2.182   10.182    5.091 
#    0.000    0.000    0.000    0.000    0.000    0.000 
#    0.000    0.000    0.000    0.000    0.000    0.000 
#
# Total GULP energy -245414.747395 kJ/mol
# GULP energy per Si atom -5577.607895 kJ/mol
# Density = 2.428749 g / cm^3
# Si number density = 24.342892 Si / 1000 Ang^3
#
#
#
# Elastic Constant Matrix: (Units=GPa)
#
#
# Indices 1 2 3 4 5 6 
#
# 1 108.7843 1.4146 33.7983 0.0000 0.0000 0.0000
# 2 1.4146 90.6166 5.8372 0.0000 0.0000 0.0000
# 3 33.7983 5.8372 99.5746 0.0000 0.0000 0.0000
# 4 0.0000 0.0000 0.0000 3.7540 0.0000 0.0000
# 5 0.0000 0.0000 0.0000 0.0000 28.7772 0.0000
# 6 0.0000 0.0000 0.0000 0.0000 0.0000 -1.8758
#
#
#
# Elastic Compliance Matrix: (Units=1/GPa)
#
#
# Indices 1 2 3 4 5 6 
#
# 1 0.010277 0.000065 -0.003492 0.000000 0.000000 0.000000
# 2 0.000065 0.011078 -0.000671 0.000000 0.000000 0.000000
# 3 -0.003492 -0.000671 0.011267 0.000000 0.000000 0.000000
# 4 0.000000 0.000000 0.000000 0.266382 0.000000 0.000000
# 5 0.000000 0.000000 0.000000 0.000000 0.034750 0.000000
# 6 0.000000 0.000000 0.000000 0.000000 0.000000 -0.533094
#
#
# Mechanical properties :
#
#
# Convention : Reuss Voigt Hill
#
# Bulk Modulus (GPa) = 40.94295 42.34175 41.64235
# Shear Modulus (GPa) = -27.32223 23.32610 -1.99806
#
# Velocity S-wave (km/s) = -3.35384 3.09889 -0.90696
# Velocity P-wave (km/s) = 1.36311 5.49871 4.00586
#
# Compressibility (1/GPa) = 0.02442423
#
# Stress axis : x y z
#
# Youngs Moduli (GPa) = 97.30868 90.27111 88.75221
#
# Poissons Ratio (x) = -0.00582 0.30992
# Poissons Ratio (y) = -0.00628 0.05958
# Poissons Ratio (z) = 0.33980 0.06060
#
# Static dielectric constant tensor:
#      x y z
#    x 1.938240 0.000000 0.000000 
#    y 0.000000 1.969940 0.000000 
#    z 0.000000 0.000000 2.103620 
# 
# From -- ./inp_files/21094.got.cif
#   From: 2010.05.17/outbox.cif.g08.bks.cpg/sg60_11_cif.got.tgz:21094.got - 2010.06.03 14:59:27.
