data_PCOD9457348
_publ_section_title
;
Structure prediction by ZEFSAII (Michael W. Deem and Ramdas Pophale) SiO2 
 PCOD9457348
Probable space group: P B C N
;
_chemical_formula_sum "Si O2"
_cell_formula_units_Z 48
_cell_length_a 23.299150
_cell_length_b 9.805371
_cell_length_c 8.116920
_cell_angle_alpha 90.000000
_cell_angle_beta 90.000000
_cell_angle_gamma 90.000000
_cell_volume 1854.365648
_symmetry_space_group_name_H-M "P B C N"
_symmetry_group_IT_number 60
_symmetry_cell_setting 'orthorhombic'
loop_
_space_group_symop_operation_xyz
x,y,z
1/2-x,1/2-y,1/2+z
1/2+x,1/2-y,-z
-x,y,1/2-z
-x,-y,-z
1/2+x,1/2+y,1/2-z
1/2-x,1/2+y,z
x,-y,1/2+z
loop_
_atom_site_type_symbol
_atom_site_label
_atom_site_fract_x
_atom_site_fract_y
_atom_site_fract_z
Si Si1 0.590859 0.443565 0.842544
Si Si2 0.555042 0.705328 0.648354
Si Si3 0.566681 0.030873 0.969989
Si Si4 0.884494 0.320040 0.169299
Si Si5 0.757752 0.679970 0.822207
Si Si6 0.716121 0.560900 0.499970
O O1 0.579405 0.591399 0.771102
O O2 0.597080 0.336092 0.691724
O O3 0.651312 0.442944 0.937211
O O4 0.546700 0.377979 0.975093
O O5 0.500000 0.754657 0.750000
O O6 0.586733 0.841776 0.586249
O O7 0.604698 0.895931 0.998662
O O8 0.575350 0.091796 0.789826
O O9 0.500000 0.000000 0.000000
O O10 0.820723 0.333070 0.242245
O O11 0.716680 0.621738 0.681861
O O12 0.750631 0.833168 0.882391
O O13 0.746496 0.584008 0.979782
#
# Coordination Sequence:
#
# PCOD9457348 Si02
#       6
#     8   8   8   8   8   8
#     4  10  24  41  60  90 125 158 206 257 307 370
#     4  11  23  40  63  90 123 165 207 256 313 373
#     4  11  23  42  65  92 124 161 207 258 312 373
#     4  10  23  41  62  91 124 159 204 256 308 372
#     4  11  23  41  65  93 126 167 210 260 319 378
#     4  11  23  41  64  92 125 164 209 261 315 378
#
# _framework density 25.884861000000001
#
# number of rings (size 3 to 8) (size 9 to 14) (size 15 to 20)
#    0.000    1.333    0.000    5.000    0.000   10.667 
#    0.000    1.667    0.000    0.000    0.000    0.000 
#    0.000    0.000    0.000    0.000    0.000    0.000 
#
# Total GULP energy -268894.673543 kJ/mol
# GULP energy per Si atom -5601.972365 kJ/mol
# Density = 2.582595 g / cm^3
# Si number density = 25.884861 Si / 1000 Ang^3
#
#
#
# Elastic Constant Matrix: (Units=GPa)
#
#
# Indices 1 2 3 4 5 6 
#
# 1 32.1284 13.5367 -9.6275 0.0000 0.0000 0.0000
# 2 13.5367 109.2816 27.2026 0.0000 0.0000 0.0000
# 3 -9.6275 27.2026 86.2151 0.0000 0.0000 0.0000
# 4 0.0000 0.0000 0.0000 45.1248 0.0000 0.0000
# 5 0.0000 0.0000 0.0000 0.0000 42.3903 0.0000
# 6 0.0000 0.0000 0.0000 0.0000 0.0000 27.6873
#
#
#
# Elastic Compliance Matrix: (Units=1/GPa)
#
#
# Indices 1 2 3 4 5 6 
#
# 1 0.035304 -0.005811 0.005776 0.000000 0.000000 0.000000
# 2 -0.005811 0.010887 -0.004084 0.000000 0.000000 0.000000
# 3 0.005776 -0.004084 0.013532 0.000000 0.000000 0.000000
# 4 0.000000 0.000000 0.000000 0.022161 0.000000 0.000000
# 5 0.000000 0.000000 0.000000 0.000000 0.023590 0.000000
# 6 0.000000 0.000000 0.000000 0.000000 0.000000 0.036118
#
#
# Mechanical properties :
#
#
# Convention : Reuss Voigt Hill
#
# Bulk Modulus (GPa) = 19.42292 32.20543 25.81417
# Shear Modulus (GPa) = 29.94150 36.14135 33.04142
#
# Velocity S-wave (km/s) = 3.40475 3.74068 3.57666
# Velocity P-wave (km/s) = 4.79336 5.57904 5.20106
#
# Compressibility (1/GPa) = 0.05148557
#
# Stress axis : x y z
#
# Youngs Moduli (GPa) = 28.32529 91.85220 73.89645
#
# Poissons Ratio (x) = 0.53374 -0.42681
# Poissons Ratio (y) = 0.16459 0.30179
# Poissons Ratio (z) = -0.16360 0.37512
#
# Static dielectric constant tensor:
#      x y z
#    x 2.027100 0.000000 0.000000 
#    y 0.000000 1.997850 0.000000 
#    z 0.000000 0.000000 2.108770 
# 
# From -- ./inp_files/13028.got.cif
#   From: 2010.05.17/outbox.cif.g08.bks.cpg/sg60_7_cif.got.tgz:13028.got - 2010.06.03 14:59:27.
