data_PCOD9457023
_publ_section_title
;
Structure prediction by ZEFSAII (Michael W. Deem and Ramdas Pophale) SiO2 
 PCOD9457023
Probable space group: P B C N
;
_chemical_formula_sum "Si O2"
_cell_formula_units_Z 60
_cell_length_a 17.085376
_cell_length_b 18.735708
_cell_length_c 8.208977
_cell_angle_alpha 90.000000
_cell_angle_beta 90.000000
_cell_angle_gamma 90.000000
_cell_volume 2627.747847
_symmetry_space_group_name_H-M "P B C N"
_symmetry_group_IT_number 60
_symmetry_cell_setting 'orthorhombic'
loop_
_space_group_symop_operation_xyz
x,y,z
1/2-x,1/2-y,1/2+z
1/2+x,1/2-y,-z
-x,y,1/2-z
-x,-y,-z
1/2+x,1/2+y,1/2-z
1/2-x,1/2+y,z
x,-y,1/2+z
loop_
_atom_site_type_symbol
_atom_site_label
_atom_site_fract_x
_atom_site_fract_y
_atom_site_fract_z
Si Si1 0.618380 0.753877 0.327530
Si Si2 0.689303 0.601872 0.310649
Si Si3 0.031200 0.746093 0.019588
Si Si4 0.364229 0.880695 0.623445
Si Si5 0.652033 0.533264 0.647799
Si Si6 0.940380 0.475906 0.363985
Si Si7 0.500000 0.621928 0.750000
Si Si8 0.194969 0.390731 0.245965
O O1 0.645900 0.674117 0.355583
O O2 0.556893 0.776035 0.467337
O O3 0.575693 0.751089 0.152780
O O4 0.690015 0.808573 0.306318
O O5 0.780046 0.622834 0.290938
O O6 0.675294 0.551180 0.464449
O O7 0.655418 0.552061 0.169336
O O8 0.079755 0.687984 0.123220
O O9 0.026705 0.822400 0.108698
O O10 0.408345 0.948332 0.699824
O O11 0.342543 0.896291 0.430355
O O12 0.570768 0.570973 0.693523
O O13 0.721796 0.572142 0.747665
O O14 0.862703 0.430643 0.379092
O O15 0.000000 0.432393 0.250000
O O16 0.000000 0.500000 0.500000
#
# Coordination Sequence:
#
# PCOD9457023 Si02
#       8
#     8   8   8   8   8   8   4   8
#     4  10  22  44  71  92 128 182 228 270 345 415
#     4  11  24  46  68  99 130 181 228 274 346 408
#     4  10  23  43  66  97 133 171 225 282 336 400
#     4  10  22  42  65  96 135 173 220 269 330 414
#     4  11  26  45  67  96 140 174 230 284 332 408
#     4  12  22  36  63  97 132 171 213 267 332 395
#     4  12  26  44  64 102 136 172 226 294 336 388
#     4  10  22  44  67  95 132 182 220 275 339 407
#
# _framework density 22.833241999999998
#
# number of rings (size 3 to 8) (size 9 to 14) (size 15 to 20)
#    0.000    1.333    4.000    0.800    6.533    1.600 
#    0.000    0.000    0.000    0.000    0.000    0.000 
#    0.000    0.000    0.000    0.000    0.000    0.000 
#
# Total GULP energy -335071.231113 kJ/mol
# GULP energy per Si atom -5584.520519 kJ/mol
# Density = 2.278127 g / cm^3
# Si number density = 22.833242 Si / 1000 Ang^3
#
#
#
# Elastic Constant Matrix: (Units=GPa)
#
#
# Indices 1 2 3 4 5 6 
#
# 1 105.3712 32.1537 -2.3667 0.0000 0.0000 0.0000
# 2 32.1537 103.7752 8.5815 0.0000 0.0000 0.0000
# 3 -2.3667 8.5815 34.6002 0.0000 0.0000 0.0000
# 4 0.0000 0.0000 0.0000 29.7474 0.0000 0.0000
# 5 0.0000 0.0000 0.0000 0.0000 14.2461 0.0000
# 6 0.0000 0.0000 0.0000 0.0000 0.0000 34.4111
#
#
#
# Elastic Compliance Matrix: (Units=1/GPa)
#
#
# Indices 1 2 3 4 5 6 
#
# 1 0.010564 -0.003403 0.001566 0.000000 0.000000 0.000000
# 2 -0.003403 0.010934 -0.002945 0.000000 0.000000 0.000000
# 3 0.001566 -0.002945 0.029739 0.000000 0.000000 0.000000
# 4 0.000000 0.000000 0.000000 0.033616 0.000000 0.000000
# 5 0.000000 0.000000 0.000000 0.000000 0.070195 0.000000
# 6 0.000000 0.000000 0.000000 0.000000 0.000000 0.029060
#
#
# Mechanical properties :
#
#
# Convention : Reuss Voigt Hill
#
# Bulk Modulus (GPa) = 23.99498 35.60927 29.80212
# Shear Modulus (GPa) = 24.08927 29.37279 26.73103
#
# Velocity S-wave (km/s) = 3.25161 3.59054 3.42527
# Velocity P-wave (km/s) = 4.96275 5.72874 5.35945
#
# Compressibility (1/GPa) = 0.04167538
#
# Stress axis : x y z
#
# Youngs Moduli (GPa) = 94.66345 91.45811 33.62583
#
# Poissons Ratio (x) = 0.31120 -0.05267
# Poissons Ratio (y) = 0.32210 0.09901
# Poissons Ratio (z) = -0.14829 0.26931
#
# Static dielectric constant tensor:
#      x y z
#    x 1.800080 0.000000 0.000000 
#    y 0.000000 1.855030 0.000000 
#    z 0.000000 0.000000 1.983500 
# 
# From -- ./inp_files/6909.got.cif
#   From: 2010.05.17/outbox.cif.g08.bks.cpg/sg60_4_cif.got.tgz:6909.got - 2010.06.03 14:59:27.
