data_PCOD9457454
_publ_section_title
;
Structure prediction by ZEFSAII (Michael W. Deem and Ramdas Pophale) SiO2 
 PCOD9457454
Probable space group: P B C N
;
_chemical_formula_sum "Si O2"
_cell_formula_units_Z 48
_cell_length_a 8.699090
_cell_length_b 14.776575
_cell_length_c 17.125997
_cell_angle_alpha 90.000000
_cell_angle_beta 90.000000
_cell_angle_gamma 90.000000
_cell_volume 2201.422850
_symmetry_space_group_name_H-M "P B C N"
_symmetry_group_IT_number 60
_symmetry_cell_setting 'orthorhombic'
loop_
_space_group_symop_operation_xyz
x,y,z
1/2-x,1/2-y,1/2+z
1/2+x,1/2-y,-z
-x,y,1/2-z
-x,-y,-z
1/2+x,1/2+y,1/2-z
1/2-x,1/2+y,z
x,-y,1/2+z
loop_
_atom_site_type_symbol
_atom_site_label
_atom_site_fract_x
_atom_site_fract_y
_atom_site_fract_z
Si Si1 0.343079 0.753430 0.702181
Si Si2 0.657016 0.547324 0.030425
Si Si3 0.334207 0.410477 0.785005
Si Si4 0.270352 0.861466 0.438291
Si Si5 0.678606 0.907896 0.239797
Si Si6 0.562796 0.272578 0.465618
O O1 0.500000 0.756369 0.750000
O O2 0.223197 0.816600 0.748161
O O3 0.277875 0.651966 0.701807
O O4 0.383121 0.776909 0.613319
O O5 0.654394 0.580542 0.121053
O O6 0.773889 0.462925 0.025918
O O7 0.500000 0.500000 0.000000
O O8 0.668423 0.639203 0.981798
O O9 0.500000 0.432136 0.750000
O O10 0.216591 0.486709 0.755442
O O11 0.270049 0.875636 0.345956
O O12 0.408917 0.798642 0.465753
O O13 0.110903 0.810096 0.459918
O O14 0.500000 0.891089 0.250000
#
# Coordination Sequence:
#
# PCOD9457454 Si02
#       6
#     8   8   8   8   8   8
#     4  12  25  42  67  98 138 180 228 287 345 419
#     4   9  22  42  66  95 135 176 228 283 343 416
#     4  11  25  43  71  99 135 181 235 287 354 422
#     4  10  23  43  66  98 135 177 230 285 343 418
#     4  11  24  44  68  96 136 178 232 286 348 409
#     4  11  24  41  68  96 137 178 226 286 346 415
#
# _framework density 21.804081
#
# number of rings (size 3 to 8) (size 9 to 14) (size 15 to 20)
#    0.000    1.333    1.667    2.500   11.667    0.000 
#    0.000    0.833    0.000    0.000    0.000    0.000 
#    0.000    0.000    0.000    0.000    0.000    0.000 
#
# Total GULP energy -268188.509249 kJ/mol
# GULP energy per Si atom -5587.260609 kJ/mol
# Density = 2.175445 g / cm^3
# Si number density = 21.804081 Si / 1000 Ang^3
#
#
#
# Elastic Constant Matrix: (Units=GPa)
#
#
# Indices 1 2 3 4 5 6 
#
# 1 45.8154 0.4810 0.7908 0.0000 0.0000 0.0000
# 2 0.4810 83.9187 24.0490 0.0000 0.0000 0.0000
# 3 0.7908 24.0490 49.7293 0.0000 0.0000 0.0000
# 4 0.0000 0.0000 0.0000 15.1498 0.0000 0.0000
# 5 0.0000 0.0000 0.0000 0.0000 30.1946 0.0000
# 6 0.0000 0.0000 0.0000 0.0000 0.0000 152.4526
#
#
#
# Elastic Compliance Matrix: (Units=1/GPa)
#
#
# Indices 1 2 3 4 5 6 
#
# 1 0.021833 -0.000030 -0.000333 0.000000 0.000000 0.000000
# 2 -0.000030 0.013833 -0.006689 0.000000 0.000000 0.000000
# 3 -0.000333 -0.006689 0.023349 0.000000 0.000000 0.000000
# 4 0.000000 0.000000 0.000000 0.066007 0.000000 0.000000
# 5 0.000000 0.000000 0.000000 0.000000 0.033119 0.000000
# 6 0.000000 0.000000 0.000000 0.000000 0.000000 0.006559
#
#
# Mechanical properties :
#
#
# Convention : Reuss Voigt Hill
#
# Bulk Modulus (GPa) = 22.26599 25.56721 23.91660
# Shear Modulus (GPa) = 25.80309 49.83557 37.81933
#
# Velocity S-wave (km/s) = 3.44380 4.78599 4.16926
# Velocity P-wave (km/s) = 5.10363 6.50325 5.84548
#
# Compressibility (1/GPa) = 0.04491154
#
# Stress axis : x y z
#
# Youngs Moduli (GPa) = 45.80266 72.28841 42.82814
#
# Poissons Ratio (x) = 0.00215 0.01425
# Poissons Ratio (y) = 0.00136 0.28649
# Poissons Ratio (z) = 0.01524 0.48356
#
# Static dielectric constant tensor:
#      x y z
#    x 1.811750 0.000000 0.000000 
#    y 0.000000 1.803590 0.000000 
#    z 0.000000 0.000000 1.846190 
# 
# From -- ./inp_files/19283.got.cif
#   From: 2010.05.17/outbox.cif.g08.bks.cpg/sg60_10_cif.got.tgz:19283.got - 2010.06.03 14:59:27.
