data_PCOD9457966
_publ_section_title
;
Structure prediction by ZEFSAII (Michael W. Deem and Ramdas Pophale) SiO2 
 PCOD9457966
Probable space group: P B C N
;
_chemical_formula_sum "Si O2"
_cell_formula_units_Z 28
_cell_length_a 15.479945
_cell_length_b 9.170876
_cell_length_c 7.838791
_cell_angle_alpha 90.000000
_cell_angle_beta 90.000000
_cell_angle_gamma 90.000000
_cell_volume 1112.831268
_symmetry_space_group_name_H-M "P B C N"
_symmetry_group_IT_number 60
_symmetry_cell_setting 'orthorhombic'
loop_
_space_group_symop_operation_xyz
x,y,z
1/2-x,1/2-y,1/2+z
1/2+x,1/2-y,-z
-x,y,1/2-z
-x,-y,-z
1/2+x,1/2+y,1/2-z
1/2-x,1/2+y,z
x,-y,1/2+z
loop_
_atom_site_type_symbol
_atom_site_label
_atom_site_fract_x
_atom_site_fract_y
_atom_site_fract_z
Si Si1 0.272106 0.736274 0.537660
Si Si2 0.687563 0.536885 0.273350
Si Si3 0.500000 0.619335 0.250000
Si Si4 0.968274 0.339172 0.943344
O O1 0.199445 0.856103 0.563756
O O2 0.269756 0.632321 0.374251
O O3 0.268682 0.615036 0.687014
O O4 0.364309 0.818582 0.547406
O O5 0.586136 0.524232 0.242064
O O6 0.501356 0.722905 0.416527
O O7 0.000000 0.314994 0.750000
O O8 0.000000 0.500000 0.000000
#
# Coordination Sequence:
#
# PCOD9457966 Si02
#       4
#     8   8   4   8
#     4  11  27  44  75 104 146 191 245 306 367 443
#     4  11  26  47  72 108 143 194 243 308 371 438
#     4  10  26  46  70 106 148 186 248 300 378 444
#     4  11  25  43  73 103 143 192 240 303 368 441
#
# _framework density 25.161048000000001
#
# number of rings (size 3 to 8) (size 9 to 14) (size 15 to 20)
#    0.000    1.143    1.429    1.714   14.000    2.286 
#    0.000    0.000    0.000    0.000    0.000    0.000 
#    0.000    0.000    0.000    0.000    0.000    0.000 
#
# Total GULP energy -156934.439463 kJ/mol
# GULP energy per Si atom -5604.801409 kJ/mol
# Density = 2.510378 g / cm^3
# Si number density = 25.161048 Si / 1000 Ang^3
#
#
#
# Elastic Constant Matrix: (Units=GPa)
#
#
# Indices 1 2 3 4 5 6 
#
# 1 57.1607 42.5036 -3.7376 0.0000 0.0000 0.0000
# 2 42.5036 142.4110 19.4253 0.0000 0.0000 0.0000
# 3 -3.7376 19.4253 140.7668 0.0000 0.0000 0.0000
# 4 0.0000 0.0000 0.0000 32.7048 0.0000 0.0000
# 5 0.0000 0.0000 0.0000 0.0000 25.9984 0.0000
# 6 0.0000 0.0000 0.0000 0.0000 0.0000 31.7108
#
#
#
# Elastic Compliance Matrix: (Units=1/GPa)
#
#
# Indices 1 2 3 4 5 6 
#
# 1 0.022822 -0.007026 0.001576 0.000000 0.000000 0.000000
# 2 -0.007026 0.009320 -0.001473 0.000000 0.000000 0.000000
# 3 0.001576 -0.001473 0.007349 0.000000 0.000000 0.000000
# 4 0.000000 0.000000 0.000000 0.030577 0.000000 0.000000
# 5 0.000000 0.000000 0.000000 0.000000 0.038464 0.000000
# 6 0.000000 0.000000 0.000000 0.000000 0.000000 0.031535
#
#
# Mechanical properties :
#
#
# Convention : Reuss Voigt Hill
#
# Bulk Modulus (GPa) = 38.99519 50.74681 44.87100
# Shear Modulus (GPa) = 30.77651 36.89262 33.83456
#
# Velocity S-wave (km/s) = 3.50119 3.83333 3.67102
# Velocity P-wave (km/s) = 5.64592 6.30913 5.98671
#
# Compressibility (1/GPa) = 0.02564419
#
# Stress axis : x y z
#
# Youngs Moduli (GPa) = 43.81691 107.29753 136.07287
#
# Poissons Ratio (x) = 0.75391 -0.21439
# Poissons Ratio (y) = 0.30787 0.20039
# Poissons Ratio (z) = -0.06904 0.15801
#
# Static dielectric constant tensor:
#      x y z
#    x 1.925670 0.000000 0.000000 
#    y 0.000000 1.900640 0.000000 
#    z 0.000000 0.000000 2.215030 
# 
# From -- ./inp_files/6452.got.cif
#   From: 2010.05.17/outbox.cif.g08.bks.cpg/sg60_4_cif.got.tgz:6452.got - 2010.06.03 14:59:27.
