data_PCOD9457779
_publ_section_title
;
Structure prediction by ZEFSAII (Michael W. Deem and Ramdas Pophale) SiO2 
 PCOD9457779
Probable space group: P B C N
;
_chemical_formula_sum "Si O2"
_cell_formula_units_Z 48
_cell_length_a 8.180712
_cell_length_b 30.617026
_cell_length_c 8.670533
_cell_angle_alpha 90.000000
_cell_angle_beta 90.000000
_cell_angle_gamma 90.000000
_cell_volume 2171.700354
_symmetry_space_group_name_H-M "P B C N"
_symmetry_group_IT_number 60
_symmetry_cell_setting 'orthorhombic'
loop_
_space_group_symop_operation_xyz
x,y,z
1/2-x,1/2-y,1/2+z
1/2+x,1/2-y,-z
-x,y,1/2-z
-x,-y,-z
1/2+x,1/2+y,1/2-z
1/2-x,1/2+y,z
x,-y,1/2+z
loop_
_atom_site_type_symbol
_atom_site_label
_atom_site_fract_x
_atom_site_fract_y
_atom_site_fract_z
Si Si1 0.955862 0.711594 0.929249
Si Si2 0.109954 0.437027 0.470506
Si Si3 0.832166 0.887550 0.803477
Si Si4 0.819652 0.806232 0.992762
Si Si5 0.000000 0.137617 0.750000
Si Si6 0.706632 0.120815 0.966886
Si Si7 0.000000 0.498470 0.750000
O O1 0.828740 0.672365 0.951112
O O2 0.000000 0.715786 0.750000
O O3 0.124412 0.697784 0.008816
O O4 0.891301 0.757831 0.986687
O O5 0.253546 0.408486 0.543857
O O6 0.134941 0.469702 0.327633
O O7 0.957411 0.405850 0.425894
O O8 0.063509 0.468236 0.613740
O O9 0.727069 0.889156 0.648376
O O10 0.000000 0.909256 0.750000
O O11 0.863197 0.837497 0.850777
O O12 0.891073 0.831377 0.140452
O O13 0.867999 0.112545 0.860975
#
# Coordination Sequence:
#
# PCOD9457779 Si02
#       7
#     8   8   8   8   4   8   4
#     4  12  27  43  66  96 135 192 239 296 350 411
#     4  11  24  47  73 109 138 187 231 288 365 430
#     4  12  25  45  71 102 144 187 229 294 358 427
#     4  12  27  44  66  97 142 183 244 295 345 409
#     4  12  26  44  67 104 132 190 238 295 344 426
#     4  12  25  44  71 100 140 183 243 282 360 429
#     4  10  24  44  81 102 142 176 236 291 350 452
#
# _framework density 22.102497
#
# number of rings (size 3 to 8) (size 9 to 14) (size 15 to 20)
#    0.000    0.333    6.667    1.500    5.833    0.000 
#    0.000    0.833    7.333    0.000    0.000    0.000 
#    0.000    0.000    0.000    0.000    0.000    0.000 
#
# Total GULP energy -268244.926190 kJ/mol
# GULP energy per Si atom -5588.435962 kJ/mol
# Density = 2.205219 g / cm^3
# Si number density = 22.102497 Si / 1000 Ang^3
#
#
#
# Elastic Constant Matrix: (Units=GPa)
#
#
# Indices 1 2 3 4 5 6 
#
# 1 99.7515 32.0105 18.6803 0.0000 0.0000 0.0000
# 2 32.0105 98.3508 29.4779 0.0000 0.0000 0.0000
# 3 18.6803 29.4779 73.8026 0.0000 0.0000 0.0000
# 4 0.0000 0.0000 0.0000 30.8415 0.0000 0.0000
# 5 0.0000 0.0000 0.0000 0.0000 43.2956 0.0000
# 6 0.0000 0.0000 0.0000 0.0000 0.0000 -2.3201
#
#
#
# Elastic Compliance Matrix: (Units=1/GPa)
#
#
# Indices 1 2 3 4 5 6 
#
# 1 0.011356 -0.003220 -0.001588 0.000000 0.000000 0.000000
# 2 -0.003220 0.012463 -0.004163 0.000000 0.000000 0.000000
# 3 -0.001588 -0.004163 0.015614 0.000000 0.000000 0.000000
# 4 0.000000 0.000000 0.000000 0.032424 0.000000 0.000000
# 5 0.000000 0.000000 0.000000 0.000000 0.023097 0.000000
# 6 0.000000 0.000000 0.000000 0.000000 0.000000 -0.431010
#
#
# Mechanical properties :
#
#
# Convention : Reuss Voigt Hill
#
# Bulk Modulus (GPa) = 46.53078 48.02693 47.27885
# Shear Modulus (GPa) = -16.07977 27.14582 5.53302
#
# Velocity S-wave (km/s) = -2.70016 3.50834 1.58391
# Velocity P-wave (km/s) = 3.37295 6.17961 4.97817
#
# Compressibility (1/GPa) = 0.02149115
#
# Stress axis : x y z
#
# Youngs Moduli (GPa) = 88.06221 80.23451 64.04333
#
# Poissons Ratio (x) = 0.25835 0.10171
# Poissons Ratio (y) = 0.28356 0.26662
# Poissons Ratio (z) = 0.13985 0.33402
#
# Static dielectric constant tensor:
#      x y z
#    x 1.903850 0.000000 0.000000 
#    y 0.000000 1.809400 0.000000 
#    z 0.000000 0.000000 1.878560 
# 
# From -- ./inp_files/4264.got.cif
#   From: 2010.05.17/outbox.cif.g08.bks.cpg/sg60_3_cif.got.tgz:4264.got - 2010.06.03 14:59:27.
