data_PCOD9457789
_publ_section_title
;
Structure prediction by ZEFSAII (Michael W. Deem and Ramdas Pophale) SiO2 
 PCOD9457789
Probable space group: P B C N
;
_chemical_formula_sum "Si O2"
_cell_formula_units_Z 48
_cell_length_a 25.353820
_cell_length_b 8.852002
_cell_length_c 10.003134
_cell_angle_alpha 90.000000
_cell_angle_beta 90.000000
_cell_angle_gamma 90.000000
_cell_volume 2245.024024
_symmetry_space_group_name_H-M "P B C N"
_symmetry_group_IT_number 60
_symmetry_cell_setting 'orthorhombic'
loop_
_space_group_symop_operation_xyz
x,y,z
1/2-x,1/2-y,1/2+z
1/2+x,1/2-y,-z
-x,y,1/2-z
-x,-y,-z
1/2+x,1/2+y,1/2-z
1/2-x,1/2+y,z
x,-y,1/2+z
loop_
_atom_site_type_symbol
_atom_site_label
_atom_site_fract_x
_atom_site_fract_y
_atom_site_fract_z
Si Si1 0.706641 0.348561 0.393624
Si Si2 0.463596 0.527345 0.625829
Si Si3 0.207818 0.316473 0.338067
Si Si4 0.353952 0.650603 0.117659
Si Si5 0.902034 0.330618 0.843046
Si Si6 0.371382 0.062768 0.435275
O O1 0.726181 0.274098 0.531298
O O2 0.748187 0.344559 0.273651
O O3 0.687372 0.518985 0.418149
O O4 0.655189 0.252049 0.351401
O O5 0.500000 0.489232 0.750000
O O6 0.500000 0.500000 0.500000
O O7 0.411113 0.426170 0.623402
O O8 0.444432 0.700518 0.633709
O O9 0.163257 0.218402 0.260724
O O10 0.179797 0.469681 0.386047
O O11 0.355548 0.784416 0.010636
O O12 0.905270 0.400975 0.695906
O O13 0.900919 0.457088 0.957397
#
# Coordination Sequence:
#
# PCOD9457789 Si02
#       6
#     8   8   8   8   8   8
#     4  10  27  43  70 101 145 191 249 287 354 432
#     4  11  26  48  78 106 138 189 252 302 366 439
#     4  11  26  45  67 105 145 194 238 296 364 429
#     4  11  26  45  76 104 145 191 244 302 359 436
#     4  10  24  45  71 104 147 186 236 306 361 431
#     4  11  23  46  70 101 147 186 232 294 374 424
#
# _framework density 21.380616
#
# number of rings (size 3 to 8) (size 9 to 14) (size 15 to 20)
#    0.000    1.333    1.667    1.000   16.333    0.000 
#    0.000    7.500    0.000    0.000    0.000    0.000 
#    0.000    0.000    0.000    0.000    0.000    0.000 
#
# Total GULP energy -268891.541210 kJ/mol
# GULP energy per Si atom -5601.907109 kJ/mol
# Density = 2.133195 g / cm^3
# Si number density = 21.380616 Si / 1000 Ang^3
#
#
#
# Elastic Constant Matrix: (Units=GPa)
#
#
# Indices 1 2 3 4 5 6 
#
# 1 103.4081 58.3191 61.5521 0.0000 0.0000 0.0000
# 2 58.3191 164.8637 84.3068 0.0000 0.0000 0.0000
# 3 61.5521 84.3068 181.5261 0.0000 0.0000 0.0000
# 4 0.0000 0.0000 0.0000 27.8071 0.0000 0.0000
# 5 0.0000 0.0000 0.0000 0.0000 20.6075 0.0000
# 6 0.0000 0.0000 0.0000 0.0000 0.0000 24.5979
#
#
#
# Elastic Compliance Matrix: (Units=1/GPa)
#
#
# Indices 1 2 3 4 5 6 
#
# 1 0.013244 -0.003132 -0.003036 0.000000 0.000000 0.000000
# 2 -0.003132 0.008696 -0.002976 0.000000 0.000000 0.000000
# 3 -0.003036 -0.002976 0.007921 0.000000 0.000000 0.000000
# 4 0.000000 0.000000 0.000000 0.035962 0.000000 0.000000
# 5 0.000000 0.000000 0.000000 0.000000 0.048526 0.000000
# 6 0.000000 0.000000 0.000000 0.000000 0.000000 0.040654
#
#
# Mechanical properties :
#
#
# Convention : Reuss Voigt Hill
#
# Bulk Modulus (GPa) = 86.42492 95.35043 90.88767
# Shear Modulus (GPa) = 28.22477 30.97716 29.60097
#
# Velocity S-wave (km/s) = 3.63727 3.81050 3.72489
# Velocity P-wave (km/s) = 7.62558 8.00333 7.81674
#
# Compressibility (1/GPa) = 0.01157074
#
# Stress axis : x y z
#
# Youngs Moduli (GPa) = 75.50471 114.99832 126.25189
#
# Poissons Ratio (x) = 0.36023 0.38331
# Poissons Ratio (y) = 0.23652 0.37578
# Poissons Ratio (z) = 0.22923 0.34229
#
# Static dielectric constant tensor:
#      x y z
#    x 1.748800 0.000000 0.000000 
#    y 0.000000 1.771080 0.000000 
#    z 0.000000 0.000000 1.738920 
# 
# From -- ./inp_files/8418.got.cif
#   From: 2010.05.17/outbox.cif.g08.bks.cpg/sg60_5_cif.got.tgz:8418.got - 2010.06.03 14:59:27.
