data_PCOD9457442
_publ_section_title
;
Structure prediction by ZEFSAII (Michael W. Deem and Ramdas Pophale) SiO2 
 PCOD9457442
Probable space group: P B C N
;
_chemical_formula_sum "Si O2"
_cell_formula_units_Z 64
_cell_length_a 16.308884
_cell_length_b 8.853345
_cell_length_c 20.585680
_cell_angle_alpha 90.000000
_cell_angle_beta 90.000000
_cell_angle_gamma 90.000000
_cell_volume 2972.328800
_symmetry_space_group_name_H-M "P B C N"
_symmetry_group_IT_number 60
_symmetry_cell_setting 'orthorhombic'
loop_
_space_group_symop_operation_xyz
x,y,z
1/2-x,1/2-y,1/2+z
1/2+x,1/2-y,-z
-x,y,1/2-z
-x,-y,-z
1/2+x,1/2+y,1/2-z
1/2-x,1/2+y,z
x,-y,1/2+z
loop_
_atom_site_type_symbol
_atom_site_label
_atom_site_fract_x
_atom_site_fract_y
_atom_site_fract_z
Si Si1 0.987388 0.228083 0.948371
Si Si2 0.633353 0.302011 0.338352
Si Si3 0.204960 0.677931 0.737127
Si Si4 0.868585 0.415318 0.586358
Si Si5 0.941263 0.905791 0.587000
Si Si6 0.439002 0.609927 0.194053
Si Si7 0.716099 0.768984 0.112831
Si Si8 0.086940 0.423181 0.763493
O O1 0.909286 0.265520 0.902535
O O2 0.052312 0.364363 0.954444
O O3 0.955977 0.165986 0.016707
O O4 0.036250 0.083897 0.916306
O O5 0.728240 0.292206 0.318220
O O6 0.612372 0.477579 0.338879
O O7 0.585973 0.228478 0.277754
O O8 0.126534 0.781896 0.726239
O O9 0.236574 0.700941 0.811007
O O10 0.165779 0.511882 0.736287
O O11 0.827591 0.581964 0.582903
O O12 0.796738 0.292018 0.577596
O O13 0.900505 0.404625 0.660552
O O14 0.850045 0.866639 0.609708
O O15 0.002767 0.826167 0.637798
O O16 0.500000 0.553793 0.250000
O O17 0.000000 0.503466 0.750000
#
# Coordination Sequence:
#
# PCOD9457442 Si02
#       8
#     8   8   8   8   8   8   8   8
#     4  10  23  44  65  86 128 175 218 257 311 389
#     4  11  22  37  61  92 122 163 208 255 318 377
#     4  11  23  36  58  94 131 157 200 269 324 376
#     4  11  23  38  64  93 127 166 210 263 321 377
#     4  10  23  43  65  89 125 168 222 260 313 383
#     4  11  22  37  65  91 119 167 205 260 320 376
#     4  11  23  38  64  95 129 161 208 269 322 372
#     4  11  21  35  58  90 125 161 202 264 320 379
#
# _framework density 21.531939000000001
#
# number of rings (size 3 to 8) (size 9 to 14) (size 15 to 20)
#    0.000    1.250    3.750    2.250    5.250    0.500 
#    2.250    0.000    0.000    0.000    0.000    0.000 
#    0.000    0.000    0.000    0.000    0.000    0.000 
#
# Total GULP energy -357327.345736 kJ/mol
# GULP energy per Si atom -5583.239777 kJ/mol
# Density = 2.148293 g / cm^3
# Si number density = 21.531939 Si / 1000 Ang^3
#
#
#
# Elastic Constant Matrix: (Units=GPa)
#
#
# Indices 1 2 3 4 5 6 
#
# 1 108.4512 13.6640 19.2273 0.0000 0.0000 0.0000
# 2 13.6640 40.2288 1.6645 0.0000 0.0000 0.0000
# 3 19.2273 1.6645 31.0990 0.0000 0.0000 0.0000
# 4 0.0000 0.0000 0.0000 17.3922 0.0000 0.0000
# 5 0.0000 0.0000 0.0000 0.0000 12.1592 0.0000
# 6 0.0000 0.0000 0.0000 0.0000 0.0000 24.9821
#
#
#
# Elastic Compliance Matrix: (Units=1/GPa)
#
#
# Indices 1 2 3 4 5 6 
#
# 1 0.010801 -0.003400 -0.006496 0.000000 0.000000 0.000000
# 2 -0.003400 0.025983 0.000711 0.000000 0.000000 0.000000
# 3 -0.006496 0.000711 0.036133 0.000000 0.000000 0.000000
# 4 0.000000 0.000000 0.000000 0.057497 0.000000 0.000000
# 5 0.000000 0.000000 0.000000 0.000000 0.082242 0.000000
# 6 0.000000 0.000000 0.000000 0.000000 0.000000 0.040029
#
#
# Mechanical properties :
#
#
# Convention : Reuss Voigt Hill
#
# Bulk Modulus (GPa) = 18.33221 27.65451 22.99336
# Shear Modulus (GPa) = 17.28687 20.58823 18.93755
#
# Velocity S-wave (km/s) = 2.83653 3.09556 2.96887
# Velocity P-wave (km/s) = 4.38866 5.06439 4.73858
#
# Compressibility (1/GPa) = 0.05454878
#
# Stress axis : x y z
#
# Youngs Moduli (GPa) = 92.58653 38.48654 27.67523
#
# Poissons Ratio (x) = 0.13085 0.17977
# Poissons Ratio (y) = 0.31477 -0.01968
# Poissons Ratio (z) = 0.60141 -0.02737
#
# Static dielectric constant tensor:
#      x y z
#    x 1.820240 0.000000 0.000000 
#    y 0.000000 1.838260 0.000000 
#    z 0.000000 0.000000 1.746080 
# 
# From -- ./inp_files/24438.got.cif
#   From: 2010.05.17/outbox.cif.g08.bks.cpg/sg60_13_cif.got.tgz:24438.got - 2010.06.03 14:59:27.
