data_PCOD9457341
_publ_section_title
;
Structure prediction by ZEFSAII (Michael W. Deem and Ramdas Pophale) SiO2 
 PCOD9457341
Probable space group: P B C N
;
_chemical_formula_sum "Si O2"
_cell_formula_units_Z 52
_cell_length_a 5.171625
_cell_length_b 27.245682
_cell_length_c 18.195955
_cell_angle_alpha 90.000000
_cell_angle_beta 90.000000
_cell_angle_gamma 90.000000
_cell_volume 2563.891035
_symmetry_space_group_name_H-M "P B C N"
_symmetry_group_IT_number 60
_symmetry_cell_setting 'orthorhombic'
loop_
_space_group_symop_operation_xyz
x,y,z
1/2-x,1/2-y,1/2+z
1/2+x,1/2-y,-z
-x,y,1/2-z
-x,-y,-z
1/2+x,1/2+y,1/2-z
1/2-x,1/2+y,z
x,-y,1/2+z
loop_
_atom_site_type_symbol
_atom_site_label
_atom_site_fract_x
_atom_site_fract_y
_atom_site_fract_z
Si Si1 0.914620 0.723511 0.092744
Si Si2 0.915588 0.185034 0.484793
Si Si3 0.986543 0.936093 0.166949
Si Si4 0.752295 0.527684 0.968309
Si Si5 0.000000 0.753835 0.250000
Si Si6 0.906664 0.389376 0.062335
Si Si7 0.180950 0.659126 0.684052
O O1 0.691243 0.691947 0.053475
O O2 0.194308 0.702608 0.071592
O O3 0.880418 0.725846 0.180542
O O4 0.908135 0.777306 0.054170
O O5 0.819198 0.132015 0.512026
O O6 0.175303 0.968769 0.117366
O O7 0.095755 0.880513 0.172177
O O8 0.000000 0.954647 0.250000
O O9 0.722074 0.927393 0.121157
O O10 0.859042 0.583665 0.979241
O O11 0.500000 0.500000 0.000000
O O12 0.000000 0.500000 0.000000
O O13 0.207251 0.789635 0.210625
O O14 0.021331 0.343914 0.109085
O O15 0.000000 0.640624 0.750000
#
# Coordination Sequence:
#
# PCOD9457341 Si02
#       7
#     8   8   8   8   4   8   8
#     4  10  24  38  59  84 132 168 232 268 328 379
#     4  10  23  41  56  91 121 180 221 271 312 398
#     4  11  21  38  60 102 131 163 200 263 325 398
#     4  11  24  42  63  97 132 171 207 252 326 409
#     4  12  24  36  58  90 132 180 214 292 344 386
#     4  11  23  38  67  89 135 170 216 266 330 402
#     4  11  20  31  56  92 134 164 206 250 341 406
#
# _framework density 20.281673999999999
#
# number of rings (size 3 to 8) (size 9 to 14) (size 15 to 20)
#    0.000    1.231    3.846    1.846   12.923    0.000 
#    0.000    0.000    0.000    0.000    8.000    0.000 
#    0.000    0.000    0.000    0.000    0.000    0.000 
#
# Total GULP energy -289977.843090 kJ/mol
# GULP energy per Si atom -5576.496982 kJ/mol
# Density = 2.023551 g / cm^3
# Si number density = 20.281674 Si / 1000 Ang^3
#
#
#
# Elastic Constant Matrix: (Units=GPa)
#
#
# Indices 1 2 3 4 5 6 
#
# 1 114.2589 26.0063 39.1942 0.0000 0.0000 0.0000
# 2 26.0063 44.2555 46.8380 0.0000 0.0000 0.0000
# 3 39.1942 46.8380 130.2758 0.0000 0.0000 0.0000
# 4 0.0000 0.0000 0.0000 25.4990 0.0000 0.0000
# 5 0.0000 0.0000 0.0000 0.0000 37.9695 0.0000
# 6 0.0000 0.0000 0.0000 0.0000 0.0000 34.1463
#
#
#
# Elastic Compliance Matrix: (Units=1/GPa)
#
#
# Indices 1 2 3 4 5 6 
#
# 1 0.010279 -0.004467 -0.001486 0.000000 0.000000 0.000000
# 2 -0.004467 0.038417 -0.012468 0.000000 0.000000 0.000000
# 3 -0.001486 -0.012468 0.012606 0.000000 0.000000 0.000000
# 4 0.000000 0.000000 0.000000 0.039217 0.000000 0.000000
# 5 0.000000 0.000000 0.000000 0.000000 0.026337 0.000000
# 6 0.000000 0.000000 0.000000 0.000000 0.000000 0.029286
#
#
# Mechanical properties :
#
#
# Convention : Reuss Voigt Hill
#
# Bulk Modulus (GPa) = 40.88590 56.98525 48.93558
# Shear Modulus (GPa) = 24.85874 31.30641 28.08257
#
# Velocity S-wave (km/s) = 3.50476 3.93311 3.72510
# Velocity P-wave (km/s) = 6.04819 6.98453 6.53316
#
# Compressibility (1/GPa) = 0.02445831
#
# Stress axis : x y z
#
# Youngs Moduli (GPa) = 97.28898 26.03040 79.32856
#
# Poissons Ratio (x) = 0.11628 0.11791
# Poissons Ratio (y) = 0.43460 0.98907
# Poissons Ratio (z) = 0.14461 0.32455
#
# Static dielectric constant tensor:
#      x y z
#    x 1.813840 0.000000 0.000000 
#    y 0.000000 1.767640 0.000000 
#    z 0.000000 0.000000 1.763220 
# 
# From -- ./inp_files/18764.got.cif
#   From: 2010.05.17/outbox.cif.g08.bks.cpg/sg60_10_cif.got.tgz:18764.got - 2010.06.03 14:59:27.
