data_PCOD9457405
_publ_section_title
;
Structure prediction by ZEFSAII (Michael W. Deem and Ramdas Pophale) SiO2 
 PCOD9457405
Probable space group: P B C N
;
_chemical_formula_sum "Si O2"
_cell_formula_units_Z 32
_cell_length_a 13.093739
_cell_length_b 7.276874
_cell_length_c 12.102015
_cell_angle_alpha 90.000000
_cell_angle_beta 90.000000
_cell_angle_gamma 90.000000
_cell_volume 1153.098008
_symmetry_space_group_name_H-M "P B C N"
_symmetry_group_IT_number 60
_symmetry_cell_setting 'orthorhombic'
loop_
_space_group_symop_operation_xyz
x,y,z
1/2-x,1/2-y,1/2+z
1/2+x,1/2-y,-z
-x,y,1/2-z
-x,-y,-z
1/2+x,1/2+y,1/2-z
1/2-x,1/2+y,z
x,-y,1/2+z
loop_
_atom_site_type_symbol
_atom_site_label
_atom_site_fract_x
_atom_site_fract_y
_atom_site_fract_z
Si Si1 0.665155 0.212538 0.627733
Si Si2 0.159453 0.790395 0.198002
Si Si3 0.356533 0.571145 0.003636
Si Si4 0.970650 0.645568 0.107124
O O1 0.729454 0.225891 0.743453
O O2 0.625135 0.406720 0.584773
O O3 0.750685 0.158929 0.536451
O O4 0.584358 0.047591 0.627060
O O5 0.086841 0.776048 0.304678
O O6 0.091784 0.643218 0.125875
O O7 0.152535 0.968719 0.120803
O O8 0.435981 0.739559 0.000201
#
# Coordination Sequence:
#
# PCOD9457405 Si02
#       4
#     8   8   8   8
#     4  11  23  41  68  96 132 174 224 275 338 413
#     4  10  23  42  68  93 135 173 217 292 334 397
#     4  11  22  40  65  94 130 176 225 272 340 412
#     4  10  23  45  62  98 133 167 231 279 332 417
#
# _framework density 27.751325000000001
#
# number of rings (size 3 to 8) (size 9 to 14) (size 15 to 20)
#    0.000    1.500    5.000    0.750    3.500    1.000 
#    0.000   12.500    0.000    1.500    0.000    0.000 
#    0.000    0.000    0.000    0.000    0.000    0.000 
#
# Total GULP energy -178657.316029 kJ/mol
# GULP energy per Si atom -5583.041126 kJ/mol
# Density = 2.768816 g / cm^3
# Si number density = 27.751325 Si / 1000 Ang^3
#
#
#
# Elastic Constant Matrix: (Units=GPa)
#
#
# Indices 1 2 3 4 5 6 
#
# 1 173.2903 91.4211 59.1709 0.0000 0.0000 0.0000
# 2 91.4211 191.6387 70.6749 0.0000 0.0000 0.0000
# 3 59.1709 70.6749 119.3524 0.0000 0.0000 0.0000
# 4 0.0000 0.0000 0.0000 31.3786 0.0000 0.0000
# 5 0.0000 0.0000 0.0000 0.0000 41.4353 0.0000
# 6 0.0000 0.0000 0.0000 0.0000 0.0000 14.7484
#
#
#
# Elastic Compliance Matrix: (Units=1/GPa)
#
#
# Indices 1 2 3 4 5 6 
#
# 1 0.008148 -0.003067 -0.002223 0.000000 0.000000 0.000000
# 2 -0.003067 0.007831 -0.003116 0.000000 0.000000 0.000000
# 3 -0.002223 -0.003116 0.011326 0.000000 0.000000 0.000000
# 4 0.000000 0.000000 0.000000 0.031869 0.000000 0.000000
# 5 0.000000 0.000000 0.000000 0.000000 0.024134 0.000000
# 6 0.000000 0.000000 0.000000 0.000000 0.000000 0.067804
#
#
# Mechanical properties :
#
#
# Convention : Reuss Voigt Hill
#
# Bulk Modulus (GPa) = 95.31777 102.97948 99.14863
# Shear Modulus (GPa) = 29.16785 35.04677 32.10731
#
# Velocity S-wave (km/s) = 3.24550 3.55757 3.40511
# Velocity P-wave (km/s) = 6.96175 7.35279 7.15994
#
# Compressibility (1/GPa) = 0.01049122
#
# Stress axis : x y z
#
# Youngs Moduli (GPa) = 122.73179 127.70485 88.29120
#
# Poissons Ratio (x) = 0.39167 0.19630
# Poissons Ratio (y) = 0.37642 0.27515
# Poissons Ratio (z) = 0.27287 0.39798
#
# Static dielectric constant tensor:
#      x y z
#    x 2.200120 0.000000 0.000000 
#    y 0.000000 2.084270 0.000000 
#    z 0.000000 0.000000 2.491340 
# 
# From -- ./inp_files/15605.got.cif
#   From: 2010.05.17/outbox.cif.g08.bks.cpg/sg60_8_cif.got.tgz:15605.got - 2010.06.03 14:59:27.
