data_PCOD9457191
_publ_section_title
;
Structure prediction by ZEFSAII (Michael W. Deem and Ramdas Pophale) SiO2 
 PCOD9457191
Probable space group: P B C N
;
_chemical_formula_sum "Si O2"
_cell_formula_units_Z 52
_cell_length_a 8.358148
_cell_length_b 15.332135
_cell_length_c 17.747440
_cell_angle_alpha 90.000000
_cell_angle_beta 90.000000
_cell_angle_gamma 90.000000
_cell_volume 2274.303440
_symmetry_space_group_name_H-M "P B C N"
_symmetry_group_IT_number 60
_symmetry_cell_setting 'orthorhombic'
loop_
_space_group_symop_operation_xyz
x,y,z
1/2-x,1/2-y,1/2+z
1/2+x,1/2-y,-z
-x,y,1/2-z
-x,-y,-z
1/2+x,1/2+y,1/2-z
1/2-x,1/2+y,z
x,-y,1/2+z
loop_
_atom_site_type_symbol
_atom_site_label
_atom_site_fract_x
_atom_site_fract_y
_atom_site_fract_z
Si Si1 0.317142 0.283245 0.005348
Si Si2 0.630696 0.113115 0.598261
Si Si3 0.683106 0.547124 0.241164
Si Si4 0.500000 0.924790 0.250000
Si Si5 0.714006 0.151775 0.377015
Si Si6 0.903229 0.914214 0.014670
Si Si7 0.871428 0.586151 0.095754
O O1 0.358498 0.199130 0.953198
O O2 0.192772 0.352647 0.970985
O O3 0.265759 0.246968 0.086679
O O4 0.482457 0.332877 0.010597
O O5 0.541421 0.129271 0.675667
O O6 0.820385 0.090422 0.596138
O O7 0.577329 0.013734 0.575808
O O8 0.500000 0.513581 0.250000
O O9 0.697881 0.625674 0.301374
O O10 0.731176 0.581464 0.158268
O O11 0.836211 0.482860 0.259747
O O12 0.779972 0.090857 0.444975
O O13 0.526277 0.132145 0.369265
O O14 0.000000 0.000000 0.000000
#
# Coordination Sequence:
#
# PCOD9457191 Si02
#       7
#     8   8   8   4   8   8   8
#     4  11  24  43  73 109 151 187 256 308 376 458
#     4  10  22  44  73 100 144 192 239 309 374 436
#     4  11  22  41  76 105 143 194 249 306 381 446
#     4  10  22  48  72 104 146 190 256 310 374 462
#     4  11  22  41  69 107 141 192 239 312 374 432
#     4  11  23  42  69 108 144 187 247 302 367 449
#     4  11  22  46  72 101 148 195 248 305 372 451
#
# _framework density 22.864144
#
# number of rings (size 3 to 8) (size 9 to 14) (size 15 to 20)
#    0.000    1.231    4.615    2.769    2.154    2.462 
#    9.692    0.000   10.154    0.000    0.000    0.000 
#    0.000    0.000    0.000    0.000    0.000    0.000 
#
# Total GULP energy -289805.712652 kJ/mol
# GULP energy per Si atom -5573.186782 kJ/mol
# Density = 2.281210 g / cm^3
# Si number density = 22.864144 Si / 1000 Ang^3
#
#
#
# Elastic Constant Matrix: (Units=GPa)
#
#
# Indices 1 2 3 4 5 6 
#
# 1 118.0932 8.6544 16.7066 0.0000 0.0000 0.0000
# 2 8.6544 96.3718 39.5213 0.0000 0.0000 0.0000
# 3 16.7066 39.5213 63.7444 0.0000 0.0000 0.0000
# 4 0.0000 0.0000 0.0000 22.9287 0.0000 0.0000
# 5 0.0000 0.0000 0.0000 0.0000 40.3136 0.0000
# 6 0.0000 0.0000 0.0000 0.0000 0.0000 35.2740
#
#
#
# Elastic Compliance Matrix: (Units=1/GPa)
#
#
# Indices 1 2 3 4 5 6 
#
# 1 0.008797 0.000209 -0.002435 0.000000 0.000000 0.000000
# 2 0.000209 0.013919 -0.008685 0.000000 0.000000 0.000000
# 3 -0.002435 -0.008685 0.021710 0.000000 0.000000 0.000000
# 4 0.000000 0.000000 0.000000 0.043614 0.000000 0.000000
# 5 0.000000 0.000000 0.000000 0.000000 0.024806 0.000000
# 6 0.000000 0.000000 0.000000 0.000000 0.000000 0.028349
#
#
# Mechanical properties :
#
#
# Convention : Reuss Voigt Hill
#
# Bulk Modulus (GPa) = 44.23858 45.33045 44.78452
# Shear Modulus (GPa) = 29.31664 33.92506 31.62085
#
# Velocity S-wave (km/s) = 3.58468 3.85615 3.72289
# Velocity P-wave (km/s) = 6.04348 6.30044 6.17330
#
# Compressibility (1/GPa) = 0.02260470
#
# Stress axis : x y z
#
# Youngs Moduli (GPa) = 113.67423 71.84315 46.06133
#
# Poissons Ratio (x) = -0.01498 0.11215
# Poissons Ratio (y) = -0.02370 0.40002
# Poissons Ratio (z) = 0.27678 0.62392
#
# Static dielectric constant tensor:
#      x y z
#    x 2.010630 0.000000 0.000000 
#    y 0.000000 1.912070 0.000000 
#    z 0.000000 0.000000 1.907850 
# 
# From -- ./inp_files/22137.got.cif
#   From: 2010.05.17/outbox.cif.g08.bks.cpg/sg60_12_cif.got.tgz:22137.got - 2010.06.03 14:59:27.
