data_PCOD9457076
_publ_section_title
;
Structure prediction by ZEFSAII (Michael W. Deem and Ramdas Pophale) SiO2 
 PCOD9457076
Probable space group: P B C N
;
_chemical_formula_sum "Si O2"
_cell_formula_units_Z 32
_cell_length_a 13.807095
_cell_length_b 8.143776
_cell_length_c 12.043149
_cell_angle_alpha 90.000000
_cell_angle_beta 90.000000
_cell_angle_gamma 90.000000
_cell_volume 1354.154422
_symmetry_space_group_name_H-M "P B C N"
_symmetry_group_IT_number 60
_symmetry_cell_setting 'orthorhombic'
loop_
_space_group_symop_operation_xyz
x,y,z
1/2-x,1/2-y,1/2+z
1/2+x,1/2-y,-z
-x,y,1/2-z
-x,-y,-z
1/2+x,1/2+y,1/2-z
1/2-x,1/2+y,z
x,-y,1/2+z
loop_
_atom_site_type_symbol
_atom_site_label
_atom_site_fract_x
_atom_site_fract_y
_atom_site_fract_z
Si Si1 0.400767 0.220907 0.503968
Si Si2 0.931855 0.399929 0.144290
Si Si3 0.785417 0.797033 0.786821
Si Si4 0.388235 0.629119 0.780350
O O1 0.501109 0.225042 0.572882
O O2 0.316483 0.227387 0.594280
O O3 0.385237 0.361206 0.413347
O O4 0.406339 0.052023 0.434385
O O5 0.837364 0.313236 0.192700
O O6 0.000000 0.445463 0.250000
O O7 0.671267 0.784107 0.768358
O O8 0.833043 0.973973 0.770545
O O9 0.500000 0.629631 0.750000
#
# Coordination Sequence:
#
# PCOD9457076 Si02
#       4
#     8   8   8   8
#     4  10  22  42  72 101 141 186 225 288 352 403
#     4   9  19  41  71 105 138 178 232 285 348 423
#     4  11  26  45  67 102 140 180 235 287 343 420
#     4  12  27  46  70 103 141 183 236 286 343 417
#
# _framework density 23.630984000000002
#
# number of rings (size 3 to 8) (size 9 to 14) (size 15 to 20)
#    0.000    1.500    0.000    4.500    0.000   14.000 
#    0.000    1.250    0.000    0.000    0.000    0.000 
#    0.000    0.000    0.000    0.000    0.000    0.000 
#
# Total GULP energy -179202.613108 kJ/mol
# GULP energy per Si atom -5600.081660 kJ/mol
# Density = 2.357720 g / cm^3
# Si number density = 23.630984 Si / 1000 Ang^3
#
#
#
# Elastic Constant Matrix: (Units=GPa)
#
#
# Indices 1 2 3 4 5 6 
#
# 1 157.8046 50.6251 45.6393 0.0000 0.0000 0.0000
# 2 50.6251 52.9892 22.0249 0.0000 0.0000 0.0000
# 3 45.6393 22.0249 140.6456 0.0000 0.0000 0.0000
# 4 0.0000 0.0000 0.0000 29.7239 0.0000 0.0000
# 5 0.0000 0.0000 0.0000 0.0000 16.3862 0.0000
# 6 0.0000 0.0000 0.0000 0.0000 0.0000 26.5977
#
#
#
# Elastic Compliance Matrix: (Units=1/GPa)
#
#
# Indices 1 2 3 4 5 6 
#
# 1 0.009539 -0.008371 -0.001784 0.000000 0.000000 0.000000
# 2 -0.008371 0.027533 -0.001595 0.000000 0.000000 0.000000
# 3 -0.001784 -0.001595 0.007939 0.000000 0.000000 0.000000
# 4 0.000000 0.000000 0.000000 0.033643 0.000000 0.000000
# 5 0.000000 0.000000 0.000000 0.000000 0.061027 0.000000
# 6 0.000000 0.000000 0.000000 0.000000 0.000000 0.037597
#
#
# Mechanical properties :
#
#
# Convention : Reuss Voigt Hill
#
# Bulk Modulus (GPa) = 46.49309 65.33534 55.91422
# Shear Modulus (GPa) = 24.04443 30.08490 27.06467
#
# Velocity S-wave (km/s) = 3.19328 3.57194 3.38791
# Velocity P-wave (km/s) = 5.77178 6.68729 6.24633
#
# Compressibility (1/GPa) = 0.02150857
#
# Stress axis : x y z
#
# Youngs Moduli (GPa) = 104.83691 36.32046 125.96255
#
# Poissons Ratio (x) = 0.30405 0.22476
# Poissons Ratio (y) = 0.87763 0.20092
# Poissons Ratio (z) = 0.18706 0.05793
#
# Static dielectric constant tensor:
#      x y z
#    x 1.889870 0.000000 0.000000 
#    y 0.000000 1.963920 0.000000 
#    z 0.000000 0.000000 1.861060 
# 
# From -- ./inp_files/11517.got.cif
#   From: 2010.05.17/outbox.cif.g08.bks.cpg/sg60_6_cif.got.tgz:11517.got - 2010.06.03 14:59:27.
