data_PCOD9457993
_publ_section_title
;
Structure prediction by ZEFSAII (Michael W. Deem and Ramdas Pophale) SiO2 
 PCOD9457993
Probable space group: P B C N
;
_chemical_formula_sum "Si O2"
_cell_formula_units_Z 32
_cell_length_a 9.470524
_cell_length_b 25.003466
_cell_length_c 5.592716
_cell_angle_alpha 90.000000
_cell_angle_beta 90.000000
_cell_angle_gamma 90.000000
_cell_volume 1324.332358
_symmetry_space_group_name_H-M "P B C N"
_symmetry_group_IT_number 60
_symmetry_cell_setting 'orthorhombic'
loop_
_space_group_symop_operation_xyz
x,y,z
1/2-x,1/2-y,1/2+z
1/2+x,1/2-y,-z
-x,y,1/2-z
-x,-y,-z
1/2+x,1/2+y,1/2-z
1/2-x,1/2+y,z
x,-y,1/2+z
loop_
_atom_site_type_symbol
_atom_site_label
_atom_site_fract_x
_atom_site_fract_y
_atom_site_fract_z
Si Si1 0.831350 0.472644 0.708531
Si Si2 0.641199 0.828916 0.145549
Si Si3 0.120546 0.219578 0.568057
Si Si4 0.844333 0.876189 0.780411
O O1 0.786444 0.507423 0.475559
O O2 0.766484 0.414706 0.650615
O O3 0.000000 0.470038 0.750000
O O4 0.500000 0.855616 0.250000
O O5 0.725163 0.791333 0.328231
O O6 0.592000 0.781988 0.967643
O O7 0.760585 0.865965 0.028087
O O8 0.130648 0.181259 0.339635
O O9 0.000000 0.199393 0.750000
O O10 0.000000 0.901960 0.750000
#
# Coordination Sequence:
#
# PCOD9457993 Si02
#       4
#     8   8   8   8
#     4  10  26  50  78 108 142 183 243 312 379 453
#     4  12  26  41  69 103 147 199 249 297 360 446
#     4  12  24  44  66 101 152 194 244 302 365 440
#     4  12  27  45  70 105 144 193 241 304 374 443
#
# _framework density 24.163118999999998
#
# number of rings (size 3 to 8) (size 9 to 14) (size 15 to 20)
#    0.000    0.500    5.000    2.250    7.000    2.000 
#    0.000    0.000    0.000    0.000    0.000    0.000 
#    0.000    0.000    0.000    0.000    0.000    0.000 
#
# Total GULP energy -178396.035968 kJ/mol
# GULP energy per Si atom -5574.876124 kJ/mol
# Density = 2.410812 g / cm^3
# Si number density = 24.163119 Si / 1000 Ang^3
#
#
#
# Elastic Constant Matrix: (Units=GPa)
#
#
# Indices 1 2 3 4 5 6 
#
# 1 125.0413 6.1414 57.6169 0.0000 0.0000 0.0000
# 2 6.1414 61.2220 7.7735 0.0000 0.0000 0.0000
# 3 57.6169 7.7735 86.6086 0.0000 0.0000 0.0000
# 4 0.0000 0.0000 0.0000 90.1433 0.0000 0.0000
# 5 0.0000 0.0000 0.0000 0.0000 55.7489 0.0000
# 6 0.0000 0.0000 0.0000 0.0000 0.0000 641.8366
#
#
#
# Elastic Compliance Matrix: (Units=1/GPa)
#
#
# Indices 1 2 3 4 5 6 
#
# 1 0.011535 -0.000185 -0.007657 0.000000 0.000000 0.000000
# 2 -0.000185 0.016525 -0.001360 0.000000 0.000000 0.000000
# 3 -0.007657 -0.001360 0.016762 0.000000 0.000000 0.000000
# 4 0.000000 0.000000 0.000000 0.011093 0.000000 0.000000
# 5 0.000000 0.000000 0.000000 0.000000 0.017938 0.000000
# 6 0.000000 0.000000 0.000000 0.000000 0.000000 0.001558
#
#
# Mechanical properties :
#
#
# Convention : Reuss Voigt Hill
#
# Bulk Modulus (GPa) = 37.85299 46.21505 42.03402
# Shear Modulus (GPa) = 48.72301 170.96843 109.84572
#
# Velocity S-wave (km/s) = 4.49533 8.42078 6.74972
# Velocity P-wave (km/s) = 6.53021 10.66367 8.84187
#
# Compressibility (1/GPa) = 0.02641799
#
# Stress axis : x y z
#
# Youngs Moduli (GPa) = 86.69571 60.51343 59.65851
#
# Poissons Ratio (x) = 0.01119 0.45680
# Poissons Ratio (y) = 0.01603 0.08115
# Poissons Ratio (z) = 0.66382 0.08231
#
# Static dielectric constant tensor:
#      x y z
#    x 2.036050 0.000000 0.000000 
#    y 0.000000 1.903940 0.000000 
#    z 0.000000 0.000000 2.376640 
# 
# From -- ./inp_files/359.got.cif
#   From: 2010.05.17/outbox.cif.g08.bks.cpg/sg60_1_cif.got.tgz:359.got - 2010.06.03 14:59:27.
