data_PCOD9457737
_publ_section_title
;
Structure prediction by ZEFSAII (Michael W. Deem and Ramdas Pophale) SiO2 
 PCOD9457737
Probable space group: P B C N
;
_chemical_formula_sum "Si O2"
_cell_formula_units_Z 40
_cell_length_a 4.961105
_cell_length_b 18.064843
_cell_length_c 19.143851
_cell_angle_alpha 90.000000
_cell_angle_beta 90.000000
_cell_angle_gamma 90.000000
_cell_volume 1715.702230
_symmetry_space_group_name_H-M "P B C N"
_symmetry_group_IT_number 60
_symmetry_cell_setting 'orthorhombic'
loop_
_space_group_symop_operation_xyz
x,y,z
1/2-x,1/2-y,1/2+z
1/2+x,1/2-y,-z
-x,y,1/2-z
-x,-y,-z
1/2+x,1/2+y,1/2-z
1/2-x,1/2+y,z
x,-y,1/2+z
loop_
_atom_site_type_symbol
_atom_site_label
_atom_site_fract_x
_atom_site_fract_y
_atom_site_fract_z
Si Si1 0.500000 0.856610 0.750000
Si Si2 0.791100 0.481440 0.849359
Si Si3 0.880961 0.215436 0.034729
Si Si4 0.190933 0.958086 0.942919
Si Si5 0.500000 0.105449 0.750000
Si Si6 0.337631 0.753270 0.315846
O O1 0.329802 0.914648 0.704637
O O2 0.416523 0.799345 0.811487
O O3 0.005268 0.477494 0.915335
O O4 0.848071 0.555429 0.805915
O O5 0.487439 0.473475 0.874665
O O6 0.977621 0.241647 0.110986
O O7 0.815202 0.128440 0.036118
O O8 0.615560 0.262894 0.018228
O O9 0.000000 0.000000 0.000000
O O10 0.690717 0.161661 0.706104
O O11 0.500000 0.721025 0.250000
#
# Coordination Sequence:
#
# PCOD9457737 Si02
#       6
#     4   8   8   8   4   8
#     4  11  22  42  78  93 142 174 248 291 364 418
#     4  11  25  47  68 106 135 185 231 300 353 421
#     4  12  28  47  72 106 148 190 238 298 361 431
#     4  12  27  45  73  98 145 190 237 282 361 433
#     4   9  26  42  74 101 142 174 240 303 354 412
#     4  10  24  43  72 103 137 184 241 295 357 414
#
# _framework density 23.314067999999999
#
# number of rings (size 3 to 8) (size 9 to 14) (size 15 to 20)
#    0.600    0.400    2.000    3.000    8.400    4.000 
#    0.000    0.000    0.000    0.000    0.000    0.000 
#    0.000    0.000    0.000    0.000    0.000    0.000 
#
# Total GULP energy -223092.569501 kJ/mol
# GULP energy per Si atom -5577.314238 kJ/mol
# Density = 2.326100 g / cm^3
# Si number density = 23.314068 Si / 1000 Ang^3
#
#
#
# Elastic Constant Matrix: (Units=GPa)
#
#
# Indices 1 2 3 4 5 6 
#
# 1 75.5252 2.8658 -7.4482 0.0000 0.0000 0.0000
# 2 2.8658 143.4483 16.0306 0.0000 0.0000 0.0000
# 3 -7.4482 16.0306 69.0828 0.0000 0.0000 0.0000
# 4 0.0000 0.0000 0.0000 -51.2723 0.0000 0.0000
# 5 0.0000 0.0000 0.0000 0.0000 34.5487 0.0000
# 6 0.0000 0.0000 0.0000 0.0000 0.0000 3.8884
#
#
#
# Elastic Compliance Matrix: (Units=1/GPa)
#
#
# Indices 1 2 3 4 5 6 
#
# 1 0.013410 -0.000441 0.001548 0.000000 0.000000 0.000000
# 2 -0.000441 0.007171 -0.001712 0.000000 0.000000 0.000000
# 3 0.001548 -0.001712 0.015039 0.000000 0.000000 0.000000
# 4 0.000000 0.000000 0.000000 -0.019504 0.000000 0.000000
# 5 0.000000 0.000000 0.000000 0.000000 0.028945 0.000000
# 6 0.000000 0.000000 0.000000 0.000000 0.000000 0.257174
#
#
# Mechanical properties :
#
#
# Convention : Reuss Voigt Hill
#
# Bulk Modulus (GPa) = 29.05968 34.55029 31.80499
# Shear Modulus (GPa) = 15.87727 15.87349 15.87538
#
# Velocity S-wave (km/s) = 2.61246 2.61215 2.61231
# Velocity P-wave (km/s) = 4.64666 4.89382 4.77184
#
# Compressibility (1/GPa) = 0.03441194
#
# Stress axis : x y z
#
# Youngs Moduli (GPa) = 74.57111 139.44595 66.49163
#
# Poissons Ratio (x) = 0.06148 -0.10294
# Poissons Ratio (y) = 0.03288 0.11381
# Poissons Ratio (z) = -0.11545 0.23868
#
# Static dielectric constant tensor:
#      x y z
#    x -36.797080 0.000000 0.000000 
#    y 0.000000 1.852410 0.000000 
#    z 0.000000 0.000000 2.189380 
# 
# From -- ./inp_files/18569.got.cif
#   From: 2010.05.17/outbox.cif.g08.bks.cpg/sg60_10_cif.got.tgz:18569.got - 2010.06.03 14:59:27.
