data_PCOD9457207
_publ_section_title
;
Structure prediction by ZEFSAII (Michael W. Deem and Ramdas Pophale) SiO2 
 PCOD9457207
Probable space group: P B C N
;
_chemical_formula_sum "Si O2"
_cell_formula_units_Z 40
_cell_length_a 5.044502
_cell_length_b 24.420739
_cell_length_c 13.987997
_cell_angle_alpha 90.000000
_cell_angle_beta 90.000000
_cell_angle_gamma 90.000000
_cell_volume 1723.187879
_symmetry_space_group_name_H-M "P B C N"
_symmetry_group_IT_number 60
_symmetry_cell_setting 'orthorhombic'
loop_
_space_group_symop_operation_xyz
x,y,z
1/2-x,1/2-y,1/2+z
1/2+x,1/2-y,-z
-x,y,1/2-z
-x,-y,-z
1/2+x,1/2+y,1/2-z
1/2-x,1/2+y,z
x,-y,1/2+z
loop_
_atom_site_type_symbol
_atom_site_label
_atom_site_fract_x
_atom_site_fract_y
_atom_site_fract_z
Si Si1 0.666388 0.653237 0.654611
Si Si2 0.542776 0.942309 0.083118
Si Si3 0.460276 0.486418 0.636453
Si Si4 0.153271 0.119646 0.460686
Si Si5 0.860586 0.240140 0.062987
O O1 0.500000 0.649908 0.750000
O O2 0.491307 0.636903 0.560480
O O3 0.784397 0.713353 0.638176
O O4 0.893180 0.607682 0.652866
O O5 0.314223 0.983270 0.115943
O O6 0.810333 0.978064 0.083820
O O7 0.425658 0.910568 0.990804
O O8 0.500000 0.488136 0.750000
O O9 0.489780 0.424708 0.599017
O O10 0.185284 0.177410 0.407509
O O11 0.659041 0.250657 0.974033
#
# Coordination Sequence:
#
# PCOD9457207 Si02
#       5
#     8   8   8   8   8
#     4  11  25  44  74 110 142 184 240 297 358 422
#     4  12  24  45  67 103 139 182 234 298 348 422
#     4  12  28  43  68 102 144 186 239 291 358 420
#     4  11  25  45  74  99 141 189 238 290 359 430
#     4  10  22  45  68  98 136 180 230 290 351 426
#
# _framework density 23.212793999999999
#
# number of rings (size 3 to 8) (size 9 to 14) (size 15 to 20)
#    0.000    0.800    4.000    2.400    5.600    0.000 
#    0.000   10.000    0.000    0.000    0.000    0.000 
#    0.000    0.000    0.000    0.000    0.000    0.000 
#
# Total GULP energy -223967.608200 kJ/mol
# GULP energy per Si atom -5599.190205 kJ/mol
# Density = 2.315996 g / cm^3
# Si number density = 23.212794 Si / 1000 Ang^3
#
#
#
# Elastic Constant Matrix: (Units=GPa)
#
#
# Indices 1 2 3 4 5 6 
#
# 1 106.8520 48.2445 19.6372 0.0000 0.0000 0.0000
# 2 48.2445 251.3955 50.1700 0.0000 0.0000 0.0000
# 3 19.6372 50.1700 68.4696 0.0000 0.0000 0.0000
# 4 0.0000 0.0000 0.0000 -3.8818 0.0000 0.0000
# 5 0.0000 0.0000 0.0000 0.0000 24.4785 0.0000
# 6 0.0000 0.0000 0.0000 0.0000 0.0000 38.7173
#
#
#
# Elastic Compliance Matrix: (Units=1/GPa)
#
#
# Indices 1 2 3 4 5 6 
#
# 1 0.010430 -0.001645 -0.001786 0.000000 0.000000 0.000000
# 2 -0.001645 0.004919 -0.003132 0.000000 0.000000 0.000000
# 3 -0.001786 -0.003132 0.017412 0.000000 0.000000 0.000000
# 4 0.000000 0.000000 0.000000 -0.257610 0.000000 0.000000
# 5 0.000000 0.000000 0.000000 0.000000 0.040852 0.000000
# 6 0.000000 0.000000 0.000000 0.000000 0.000000 0.025828
#
#
# Mechanical properties :
#
#
# Convention : Reuss Voigt Hill
#
# Bulk Modulus (GPa) = 50.93131 73.64673 62.28902
# Shear Modulus (GPa) = -36.10152 32.44050 -1.83051
#
# Velocity S-wave (km/s) = -3.94793 3.74241 -0.88898
# Velocity P-wave (km/s) = 1.09868 7.10421 5.08315
#
# Compressibility (1/GPa) = 0.01963429
#
# Stress axis : x y z
#
# Youngs Moduli (GPa) = 95.87971 203.31030 57.43083
#
# Poissons Ratio (x) = 0.33448 0.10256
# Poissons Ratio (y) = 0.15774 0.17988
# Poissons Ratio (z) = 0.17122 0.63681
#
# Static dielectric constant tensor:
#      x y z
#    x 1.905840 0.000000 0.000000 
#    y 0.000000 1.881150 0.000000 
#    z 0.000000 0.000000 1.812300 
# 
# From -- ./inp_files/9065.got.cif
#   From: 2010.05.17/outbox.cif.g08.bks.cpg/sg60_5_cif.got.tgz:9065.got - 2010.06.03 14:59:27.
