data_PCOD9457899
_publ_section_title
;
Structure prediction by ZEFSAII (Michael W. Deem and Ramdas Pophale) SiO2 
 PCOD9457899
Probable space group: P B C N
;
_chemical_formula_sum "Si O2"
_cell_formula_units_Z 36
_cell_length_a 4.717690
_cell_length_b 20.440839
_cell_length_c 14.465465
_cell_angle_alpha 90.000000
_cell_angle_beta 90.000000
_cell_angle_gamma 90.000000
_cell_volume 1394.956023
_symmetry_space_group_name_H-M "P B C N"
_symmetry_group_IT_number 60
_symmetry_cell_setting 'orthorhombic'
loop_
_space_group_symop_operation_xyz
x,y,z
1/2-x,1/2-y,1/2+z
1/2+x,1/2-y,-z
-x,y,1/2-z
-x,-y,-z
1/2+x,1/2+y,1/2-z
1/2-x,1/2+y,z
x,-y,1/2+z
loop_
_atom_site_type_symbol
_atom_site_label
_atom_site_fract_x
_atom_site_fract_y
_atom_site_fract_z
Si Si1 0.445373 0.006051 0.641347
Si Si2 0.000000 0.825833 0.750000
Si Si3 0.737022 0.636898 0.582118
Si Si4 0.425534 0.575207 0.408322
Si Si5 0.689794 0.202293 0.836247
O O1 0.500000 0.992991 0.750000
O O2 0.121361 0.986531 0.622593
O O3 0.622223 0.956566 0.576564
O O4 0.572449 0.076934 0.620229
O O5 0.878121 0.873410 0.673238
O O6 0.213801 0.777467 0.695513
O O7 0.576980 0.611855 0.491541
O O8 0.480608 0.665632 0.644502
O O9 0.975131 0.693905 0.577087
O O10 0.500000 0.175772 0.750000
#
# Coordination Sequence:
#
# PCOD9457899 Si02
#       5
#     8   4   8   8   8
#     4  12  24  43  71 106 146 191 231 295 370 439
#     4  10  26  48  68 102 148 196 246 288 372 432
#     4  12  24  44  72 108 141 182 247 299 358 430
#     4  12  25  45  72 106 146 189 234 303 362 437
#     4  10  25  44  68 100 142 190 242 297 352 429
#
# _framework density 25.807265000000001
#
# number of rings (size 3 to 8) (size 9 to 14) (size 15 to 20)
#    0.667    0.000    2.222    5.333    0.000    7.111 
#    0.000    0.000    0.000    0.000    0.000    0.000 
#    0.000    0.000    0.000    0.000    0.000    0.000 
#
# Total GULP energy -201409.729070 kJ/mol
# GULP energy per Si atom -5594.714696 kJ/mol
# Density = 2.574853 g / cm^3
# Si number density = 25.807265 Si / 1000 Ang^3
#
#
#
# Elastic Constant Matrix: (Units=GPa)
#
#
# Indices 1 2 3 4 5 6 
#
# 1 146.5434 39.3362 18.6454 0.0000 0.0000 0.0000
# 2 39.3362 141.8328 40.6853 0.0000 0.0000 0.0000
# 3 18.6454 40.6853 71.7581 0.0000 0.0000 0.0000
# 4 0.0000 0.0000 0.0000 27.1716 0.0000 0.0000
# 5 0.0000 0.0000 0.0000 0.0000 41.1410 0.0000
# 6 0.0000 0.0000 0.0000 0.0000 0.0000 21.1149
#
#
#
# Elastic Compliance Matrix: (Units=1/GPa)
#
#
# Indices 1 2 3 4 5 6 
#
# 1 0.007422 -0.001798 -0.000909 0.000000 0.000000 0.000000
# 2 -0.001798 0.008855 -0.004554 0.000000 0.000000 0.000000
# 3 -0.000909 -0.004554 0.016754 0.000000 0.000000 0.000000
# 4 0.000000 0.000000 0.000000 0.036803 0.000000 0.000000
# 5 0.000000 0.000000 0.000000 0.000000 0.024307 0.000000
# 6 0.000000 0.000000 0.000000 0.000000 0.000000 0.047360
#
#
# Mechanical properties :
#
#
# Convention : Reuss Voigt Hill
#
# Bulk Modulus (GPa) = 54.02481 61.94089 57.98285
# Shear Modulus (GPa) = 30.82760 35.31667 33.07213
#
# Velocity S-wave (km/s) = 3.45995 3.70331 3.58369
# Velocity P-wave (km/s) = 6.07792 6.50688 6.29605
#
# Compressibility (1/GPa) = 0.01851001
#
# Stress axis : x y z
#
# Youngs Moduli (GPa) = 134.73188 112.92597 59.68787
#
# Poissons Ratio (x) = 0.20300 0.05428
# Poissons Ratio (y) = 0.24220 0.27180
# Poissons Ratio (z) = 0.12252 0.51423
#
# Static dielectric constant tensor:
#      x y z
#    x 2.007730 0.000000 0.000000 
#    y 0.000000 2.033310 0.000000 
#    z 0.000000 0.000000 2.120670 
# 
# From -- ./inp_files/13727.got.cif
#   From: 2010.05.17/outbox.cif.g08.bks.cpg/sg60_7_cif.got.tgz:13727.got - 2010.06.03 14:59:27.
