data_PCOD9457181
_publ_section_title
;
Structure prediction by ZEFSAII (Michael W. Deem and Ramdas Pophale) SiO2 
 PCOD9457181
Probable space group: P B C N
;
_chemical_formula_sum "Si O2"
_cell_formula_units_Z 40
_cell_length_a 13.996316
_cell_length_b 14.348801
_cell_length_c 8.292673
_cell_angle_alpha 90.000000
_cell_angle_beta 90.000000
_cell_angle_gamma 90.000000
_cell_volume 1665.420446
_symmetry_space_group_name_H-M "P B C N"
_symmetry_group_IT_number 60
_symmetry_cell_setting 'orthorhombic'
loop_
_space_group_symop_operation_xyz
x,y,z
1/2-x,1/2-y,1/2+z
1/2+x,1/2-y,-z
-x,y,1/2-z
-x,-y,-z
1/2+x,1/2+y,1/2-z
1/2-x,1/2+y,z
x,-y,1/2+z
loop_
_atom_site_type_symbol
_atom_site_label
_atom_site_fract_x
_atom_site_fract_y
_atom_site_fract_z
Si Si1 0.461017 0.730732 0.566570
Si Si2 0.343155 0.779378 0.080979
Si Si3 0.798629 0.653381 0.273537
Si Si4 0.757765 0.043519 0.792433
Si Si5 0.102404 0.035202 0.441798
O O1 0.500000 0.705267 0.750000
O O2 0.544661 0.772953 0.455430
O O3 0.378699 0.803520 0.611262
O O4 0.416702 0.645721 0.464425
O O5 0.302146 0.681750 0.145985
O O6 0.298224 0.858900 0.198415
O O7 0.304566 0.799987 0.901329
O O8 0.809813 0.543366 0.255743
O O9 0.862791 0.027516 0.709514
O O10 0.796140 0.024642 0.970485
O O11 0.000000 0.000000 0.500000
#
# Coordination Sequence:
#
# PCOD9457181 Si02
#       5
#     8   8   8   8   8
#     4  10  22  44  71 104 143 192 247 300 370 438
#     4  11  25  43  71 102 143 197 239 307 368 440
#     4  11  23  43  70  99 144 190 243 300 368 438
#     4  12  24  43  68 102 142 186 240 298 371 427
#     4  12  24  41  70 104 138 185 242 305 357 432
#
# _framework density 24.017958
#
# number of rings (size 3 to 8) (size 9 to 14) (size 15 to 20)
#    0.000    0.800    4.000    3.000    5.600    0.800 
#    0.000    1.000    0.000    0.000    0.000    0.000 
#    0.000    0.000    0.000    0.000    0.000    0.000 
#
# Total GULP energy -222843.013742 kJ/mol
# GULP energy per Si atom -5571.075344 kJ/mol
# Density = 2.396329 g / cm^3
# Si number density = 24.017958 Si / 1000 Ang^3
#
#
#
# Elastic Constant Matrix: (Units=GPa)
#
#
# Indices 1 2 3 4 5 6 
#
# 1 113.3130 47.9652 47.6530 0.0000 0.0000 0.0000
# 2 47.9652 131.7158 26.3105 0.0000 0.0000 0.0000
# 3 47.6530 26.3105 44.5880 0.0000 0.0000 0.0000
# 4 0.0000 0.0000 0.0000 870.6155 0.0000 0.0000
# 5 0.0000 0.0000 0.0000 0.0000 47.3968 0.0000
# 6 0.0000 0.0000 0.0000 0.0000 0.0000 23.3638
#
#
#
# Elastic Compliance Matrix: (Units=1/GPa)
#
#
# Indices 1 2 3 4 5 6 
#
# 1 0.016951 -0.002895 -0.016407 0.000000 0.000000 0.000000
# 2 -0.002895 0.009101 -0.002276 0.000000 0.000000 0.000000
# 3 -0.016407 -0.002276 0.041306 0.000000 0.000000 0.000000
# 4 0.000000 0.000000 0.000000 0.001149 0.000000 0.000000
# 5 0.000000 0.000000 0.000000 0.000000 0.021098 0.000000
# 6 0.000000 0.000000 0.000000 0.000000 0.000000 0.042801
#
#
# Mechanical properties :
#
#
# Convention : Reuss Voigt Hill
#
# Bulk Modulus (GPa) = 41.32214 59.27491 50.29853
# Shear Modulus (GPa) = 27.22861 199.45441 113.34151
#
# Velocity S-wave (km/s) = 3.37066 9.12273 6.87697
# Velocity P-wave (km/s) = 5.69127 11.64897 9.16758
#
# Compressibility (1/GPa) = 0.02420010
#
# Stress axis : x y z
#
# Youngs Moduli (GPa) = 58.99457 109.87689 24.20961
#
# Poissons Ratio (x) = 0.31813 0.39722
# Poissons Ratio (y) = 0.17081 0.05510
# Poissons Ratio (z) = 0.96795 0.25009
#
# Static dielectric constant tensor:
#      x y z
#    x 1.870330 0.000000 0.000000 
#    y 0.000000 1.936060 0.000000 
#    z 0.000000 0.000000 -0.521830 
# 
# From -- ./inp_files/5644.got.cif
#   From: 2010.05.17/outbox.cif.g08.bks.cpg/sg60_3_cif.got.tgz:5644.got - 2010.06.03 14:59:27.
