data_PCOD9457631
_publ_section_title
;
Structure prediction by ZEFSAII (Michael W. Deem and Ramdas Pophale) SiO2 
 PCOD9457631
Probable space group: P B C N
;
_chemical_formula_sum "Si O2"
_cell_formula_units_Z 60
_cell_length_a 8.925184
_cell_length_b 11.405182
_cell_length_c 22.748296
_cell_angle_alpha 90.000000
_cell_angle_beta 90.000000
_cell_angle_gamma 90.000000
_cell_volume 2315.625209
_symmetry_space_group_name_H-M "P B C N"
_symmetry_group_IT_number 60
_symmetry_cell_setting 'orthorhombic'
loop_
_space_group_symop_operation_xyz
x,y,z
1/2-x,1/2-y,1/2+z
1/2+x,1/2-y,-z
-x,y,1/2-z
-x,-y,-z
1/2+x,1/2+y,1/2-z
1/2-x,1/2+y,z
x,-y,1/2+z
loop_
_atom_site_type_symbol
_atom_site_label
_atom_site_fract_x
_atom_site_fract_y
_atom_site_fract_z
Si Si1 0.307272 0.382116 0.042476
Si Si2 0.000000 0.064100 0.750000
Si Si3 0.200273 0.304463 0.267544
Si Si4 0.611096 0.725230 0.541545
Si Si5 0.174025 0.570849 0.882756
Si Si6 0.183274 0.767429 0.640818
Si Si7 0.400002 0.608873 0.350930
Si Si8 0.605800 0.935677 0.918135
O O1 0.483097 0.372904 0.030110
O O2 0.268757 0.339217 0.109223
O O3 0.227736 0.508533 0.037390
O O4 0.215990 0.282551 0.007480
O O5 0.860159 0.149366 0.752241
O O6 0.983703 0.984136 0.691848
O O7 0.150426 0.404606 0.313349
O O8 0.128814 0.270088 0.205576
O O9 0.195340 0.188304 0.306478
O O10 0.728491 0.674846 0.589097
O O11 0.500610 0.831394 0.560199
O O12 0.283305 0.459816 0.890627
O O13 0.011840 0.540117 0.906992
O O14 0.299340 0.876519 0.634902
O O15 0.025895 0.816522 0.615276
#
# Coordination Sequence:
#
# PCOD9457631 Si02
#       8
#     8   4   8   8   8   8   8   8
#     4  11  25  45  72  99 137 185 230 298 358 417
#     4  10  24  38  66  92 138 182 220 280 330 396
#     4  11  24  41  69  98 142 181 231 276 343 410
#     4  11  25  48  70 101 139 178 238 295 350 430
#     4  11  25  43  71 101 140 185 231 285 353 413
#     4  11  25  43  68 100 139 175 236 284 341 422
#     4  11  22  44  63  99 134 184 224 285 340 407
#     4  11  25  44  72 102 136 184 232 291 359 421
#
# _framework density 25.910928999999999
#
# number of rings (size 3 to 8) (size 9 to 14) (size 15 to 20)
#    0.000    1.067    1.333    3.600   11.200    2.133 
#    0.000    6.667    0.000    0.000    0.000    0.000 
#    0.000    0.000    0.000    0.000    0.000    0.000 
#
# Total GULP energy -335689.227506 kJ/mol
# GULP energy per Si atom -5594.820458 kJ/mol
# Density = 2.585195 g / cm^3
# Si number density = 25.910929 Si / 1000 Ang^3
#
#
#
# Elastic Constant Matrix: (Units=GPa)
#
#
# Indices 1 2 3 4 5 6 
#
# 1 165.1316 54.5878 30.7591 0.0000 0.0000 0.0000
# 2 54.5878 104.3157 7.2226 0.0000 0.0000 0.0000
# 3 30.7591 7.2226 62.7648 0.0000 0.0000 0.0000
# 4 0.0000 0.0000 0.0000 24.3253 0.0000 0.0000
# 5 0.0000 0.0000 0.0000 0.0000 32.1135 0.0000
# 6 0.0000 0.0000 0.0000 0.0000 0.0000 65.9037
#
#
#
# Elastic Compliance Matrix: (Units=1/GPa)
#
#
# Indices 1 2 3 4 5 6 
#
# 1 0.008008 -0.003950 -0.003470 0.000000 0.000000 0.000000
# 2 -0.003950 0.011612 0.000600 0.000000 0.000000 0.000000
# 3 -0.003470 0.000600 0.017564 0.000000 0.000000 0.000000
# 4 0.000000 0.000000 0.000000 0.041110 0.000000 0.000000
# 5 0.000000 0.000000 0.000000 0.000000 0.031140 0.000000
# 6 0.000000 0.000000 0.000000 0.000000 0.000000 0.015174
#
#
# Mechanical properties :
#
#
# Convention : Reuss Voigt Hill
#
# Bulk Modulus (GPa) = 42.47562 57.48345 49.97954
# Shear Modulus (GPa) = 34.22424 40.44465 37.33445
#
# Velocity S-wave (km/s) = 3.63828 3.95512 3.80001
# Velocity P-wave (km/s) = 5.83764 6.56434 6.21162
#
# Compressibility (1/GPa) = 0.02354291
#
# Stress axis : x y z
#
# Youngs Moduli (GPa) = 124.87575 86.11835 56.93468
#
# Poissons Ratio (x) = 0.34019 0.19756
# Poissons Ratio (y) = 0.49329 -0.03414
# Poissons Ratio (z) = 0.43330 -0.05164
#
# Static dielectric constant tensor:
#      x y z
#    x 1.984600 0.000000 0.000000 
#    y 0.000000 2.113120 0.000000 
#    z 0.000000 0.000000 2.089680 
# 
# From -- ./inp_files/25198.got.cif
#   From: 2010.05.17/outbox.cif.g08.bks.cpg/sg60_13_cif.got.tgz:25198.got - 2010.06.03 14:59:27.
