data_PCOD9457909
_publ_section_title
;
Structure prediction by ZEFSAII (Michael W. Deem and Ramdas Pophale) SiO2 
 PCOD9457909
Probable space group: P B C N
;
_chemical_formula_sum "Si O2"
_cell_formula_units_Z 56
_cell_length_a 19.475545
_cell_length_b 19.856599
_cell_length_c 5.412510
_cell_angle_alpha 90.000000
_cell_angle_beta 90.000000
_cell_angle_gamma 90.000000
_cell_volume 2093.115515
_symmetry_space_group_name_H-M "P B C N"
_symmetry_group_IT_number 60
_symmetry_cell_setting 'orthorhombic'
loop_
_space_group_symop_operation_xyz
x,y,z
1/2-x,1/2-y,1/2+z
1/2+x,1/2-y,-z
-x,y,1/2-z
-x,-y,-z
1/2+x,1/2+y,1/2-z
1/2-x,1/2+y,z
x,-y,1/2+z
loop_
_atom_site_type_symbol
_atom_site_label
_atom_site_fract_x
_atom_site_fract_y
_atom_site_fract_z
Si Si1 0.577604 0.976476 0.432920
Si Si2 0.673544 0.728058 0.934723
Si Si3 0.789803 0.037558 0.560218
Si Si4 0.048069 0.066406 0.963446
Si Si5 0.379745 0.831750 0.177400
Si Si6 0.260498 0.157426 0.259335
Si Si7 0.942131 0.793287 0.052728
O O1 0.583532 0.903230 0.311219
O O2 0.500000 0.000000 0.500000
O O3 0.609224 0.978411 0.710747
O O4 0.644764 0.795915 0.068842
O O5 0.690101 0.660885 0.085267
O O6 0.740360 0.764064 0.823219
O O7 0.626435 0.702272 0.716038
O O8 0.873639 0.043033 0.566804
O O9 0.751453 0.104329 0.459211
O O10 0.771439 0.014966 0.838257
O O11 0.056003 0.137598 0.106305
O O12 0.000000 0.097056 0.750000
O O13 0.000000 0.000000 0.000000
O O14 0.322035 0.845498 0.961464
O O15 0.432024 0.774104 0.097181
O O16 0.000000 0.777104 0.250000
#
# Coordination Sequence:
#
# PCOD9457909 Si02
#       7
#     8   8   8   8   8   8   8
#     4  10  25  45  74 107 151 207 257 321 405 484
#     4  11  24  47  76 109 149 200 263 337 402 481
#     4  12  29  46  74 107 153 207 262 325 398 485
#     4  11  23  47  73 109 158 212 270 332 405 494
#     4  11  25  46  77 109 153 205 264 340 402 490
#     4  11  26  45  75 108 151 198 267 329 409 472
#     4  10  26  44  75 114 151 200 269 331 411 486
#
# _framework density 26.754375
#
# number of rings (size 3 to 8) (size 9 to 14) (size 15 to 20)
#    0.000    1.143    2.857    0.857   12.000    2.857 
#    5.143    0.000    0.000    0.000    0.000    0.000 
#    0.000    0.000    0.000    0.000    0.000    0.000 
#
# Total GULP energy -311960.369452 kJ/mol
# GULP energy per Si atom -5570.720883 kJ/mol
# Density = 2.669348 g / cm^3
# Si number density = 26.754375 Si / 1000 Ang^3
#
#
#
# Elastic Constant Matrix: (Units=GPa)
#
#
# Indices 1 2 3 4 5 6 
#
# 1 84.5128 29.4841 7.5433 0.0000 0.0000 0.0000
# 2 29.4841 150.2226 12.2406 0.0000 0.0000 0.0000
# 3 7.5433 12.2406 104.8475 0.0000 0.0000 0.0000
# 4 0.0000 0.0000 0.0000 33.9509 0.0000 0.0000
# 5 0.0000 0.0000 0.0000 0.0000 43.7371 0.0000
# 6 0.0000 0.0000 0.0000 0.0000 0.0000 48.2123
#
#
#
# Elastic Compliance Matrix: (Units=1/GPa)
#
#
# Indices 1 2 3 4 5 6 
#
# 1 0.012743 -0.002450 -0.000631 0.000000 0.000000 0.000000
# 2 -0.002450 0.007192 -0.000663 0.000000 0.000000 0.000000
# 3 -0.000631 -0.000663 0.009660 0.000000 0.000000 0.000000
# 4 0.000000 0.000000 0.000000 0.029454 0.000000 0.000000
# 5 0.000000 0.000000 0.000000 0.000000 0.022864 0.000000
# 6 0.000000 0.000000 0.000000 0.000000 0.000000 0.020742
#
#
# Mechanical properties :
#
#
# Convention : Reuss Voigt Hill
#
# Bulk Modulus (GPa) = 45.23301 48.67986 46.95644
# Shear Modulus (GPa) = 42.54863 44.53437 43.54150
#
# Velocity S-wave (km/s) = 3.99224 4.08433 4.03855
# Velocity P-wave (km/s) = 6.18014 6.36215 6.27180
#
# Compressibility (1/GPa) = 0.02210775
#
# Stress axis : x y z
#
# Youngs Moduli (GPa) = 78.47149 139.05011 103.51436
#
# Poissons Ratio (x) = 0.34064 0.06530
# Poissons Ratio (y) = 0.19224 0.06867
# Poissons Ratio (z) = 0.04950 0.09224
#
# Static dielectric constant tensor:
#      x y z
#    x 2.101570 0.000000 0.000000 
#    y 0.000000 2.134360 0.000000 
#    z 0.000000 0.000000 4.252670 
# 
# From -- ./inp_files/2376.got.cif
#   From: 2010.05.17/outbox.cif.g08.bks.cpg/sg60_2_cif.got.tgz:2376.got - 2010.06.03 14:59:27.
