data_PCOD9457670
_publ_section_title
;
Structure prediction by ZEFSAII (Michael W. Deem and Ramdas Pophale) SiO2 
 PCOD9457670
Probable space group: P B C N
;
_chemical_formula_sum "Si O2"
_cell_formula_units_Z 24
_cell_length_a 7.967472
_cell_length_b 24.357183
_cell_length_c 5.415514
_cell_angle_alpha 90.000000
_cell_angle_beta 90.000000
_cell_angle_gamma 90.000000
_cell_volume 1050.962664
_symmetry_space_group_name_H-M "P B C N"
_symmetry_group_IT_number 60
_symmetry_cell_setting 'orthorhombic'
loop_
_space_group_symop_operation_xyz
x,y,z
1/2-x,1/2-y,1/2+z
1/2+x,1/2-y,-z
-x,y,1/2-z
-x,-y,-z
1/2+x,1/2+y,1/2-z
1/2-x,1/2+y,z
x,-y,1/2+z
loop_
_atom_site_type_symbol
_atom_site_label
_atom_site_fract_x
_atom_site_fract_y
_atom_site_fract_z
Si Si1 0.000000 0.963358 0.750000
Si Si2 0.851591 0.246355 0.990456
Si Si3 0.000000 0.656285 0.750000
Si Si4 0.855050 0.121660 0.942722
O O1 0.854346 0.919226 0.677230
O O2 0.000000 0.000000 0.500000
O O3 0.729118 0.252099 0.223224
O O4 0.962587 0.300445 0.030146
O O5 0.911546 0.183625 0.011659
O O6 0.829643 0.624437 0.818866
O O7 0.000000 0.103847 0.750000
#
# Coordination Sequence:
#
# PCOD9457670 Si02
#       4
#     4   8   4   8
#     4  12  27  52  78 102 138 188 257 326 380 420
#     4  10  24  41  65 108 153 187 224 277 346 441
#     4  10  25  44  70 112 152 192 239 288 354 468
#     4  11  26  46  75 106 146 197 239 300 368 436
#
# _framework density 22.836205
#
# number of rings (size 3 to 8) (size 9 to 14) (size 15 to 20)
#    0.000    1.333    1.667    1.000   28.000    0.000 
#    0.000    1.667    0.000    0.000    0.000    0.000 
#    0.000    0.000    0.000    0.000    0.000    0.000 
#
# Total GULP energy -133702.770873 kJ/mol
# GULP energy per Si atom -5570.948786 kJ/mol
# Density = 2.278423 g / cm^3
# Si number density = 22.836205 Si / 1000 Ang^3
#
#
#
# Elastic Constant Matrix: (Units=GPa)
#
#
# Indices 1 2 3 4 5 6 
#
# 1 150.4088 33.2317 69.2952 0.0000 0.0000 0.0000
# 2 33.2317 137.9834 60.3082 0.0000 0.0000 0.0000
# 3 69.2952 60.3082 159.8032 0.0000 0.0000 0.0000
# 4 0.0000 0.0000 0.0000 1136.7268 0.0000 0.0000
# 5 0.0000 0.0000 0.0000 0.0000 52.0569 0.0000
# 6 0.0000 0.0000 0.0000 0.0000 0.0000 533.1190
#
#
#
# Elastic Compliance Matrix: (Units=1/GPa)
#
#
# Indices 1 2 3 4 5 6 
#
# 1 0.008339 -0.000512 -0.003422 0.000000 0.000000 0.000000
# 2 -0.000512 0.008710 -0.003065 0.000000 0.000000 0.000000
# 3 -0.003422 -0.003065 0.008898 0.000000 0.000000 0.000000
# 4 0.000000 0.000000 0.000000 0.000880 0.000000 0.000000
# 5 0.000000 0.000000 0.000000 0.000000 0.019210 0.000000
# 6 0.000000 0.000000 0.000000 0.000000 0.000000 0.001876
#
#
# Mechanical properties :
#
#
# Convention : Reuss Voigt Hill
#
# Bulk Modulus (GPa) = 83.69882 85.98507 84.84194
# Shear Modulus (GPa) = 75.87869 363.40454 219.64161
#
# Velocity S-wave (km/s) = 5.77057 12.62857 9.81785
# Velocity P-wave (km/s) = 9.00726 15.82326 12.87452
#
# Compressibility (1/GPa) = 0.01194760
#
# Stress axis : x y z
#
# Youngs Moduli (GPa) = 119.92533 114.80715 112.37893
#
# Poissons Ratio (x) = 0.05883 0.38461
# Poissons Ratio (y) = 0.06145 0.34444
# Poissons Ratio (z) = 0.41044 0.35188
#
# Static dielectric constant tensor:
#      x y z
#    x 2.114480 0.000000 0.000000 
#    y 0.000000 1.887310 0.000000 
#    z 0.000000 0.000000 1.914050 
# 
# From -- ./inp_files/246.got.cif
#   From: 2010.05.17/outbox.cif.g08.bks.cpg/sg60_1_cif.got.tgz:246.got - 2010.06.03 14:59:27.
