data_PCOD9457240
_publ_section_title
;
Structure prediction by ZEFSAII (Michael W. Deem and Ramdas Pophale) SiO2 
 PCOD9457240
Probable space group: P B C N
;
_chemical_formula_sum "Si O2"
_cell_formula_units_Z 60
_cell_length_a 20.435694
_cell_length_b 5.616779
_cell_length_c 20.581415
_cell_angle_alpha 90.000000
_cell_angle_beta 90.000000
_cell_angle_gamma 90.000000
_cell_volume 2362.391966
_symmetry_space_group_name_H-M "P B C N"
_symmetry_group_IT_number 60
_symmetry_cell_setting 'orthorhombic'
loop_
_space_group_symop_operation_xyz
x,y,z
1/2-x,1/2-y,1/2+z
1/2+x,1/2-y,-z
-x,y,1/2-z
-x,-y,-z
1/2+x,1/2+y,1/2-z
1/2-x,1/2+y,z
x,-y,1/2+z
loop_
_atom_site_type_symbol
_atom_site_label
_atom_site_fract_x
_atom_site_fract_y
_atom_site_fract_z
Si Si1 0.361536 0.406091 0.798229
Si Si2 0.796872 0.402875 0.008781
Si Si3 0.645004 0.909247 0.627845
Si Si4 0.925857 0.131534 0.017863
Si Si5 0.714546 0.530631 0.329336
Si Si6 0.155278 0.200189 0.054584
Si Si7 0.000000 0.073539 0.750000
Si Si8 0.009672 0.780610 0.397010
O O1 0.351133 0.142025 0.827061
O O2 0.307653 0.444489 0.743477
O O3 0.433834 0.428863 0.766089
O O4 0.351974 0.645736 0.841280
O O5 0.798966 0.568919 0.072901
O O6 0.852716 0.221223 0.031914
O O7 0.725335 0.371647 0.978927
O O8 0.835509 0.520899 0.947960
O O9 0.570592 0.903169 0.600049
O O10 0.906792 0.877276 0.985304
O O11 0.961727 0.265084 0.958452
O O12 0.963987 0.047200 0.082013
O O13 0.756685 0.770200 0.342309
O O14 0.653762 0.570411 0.377507
O O15 0.988803 0.211663 0.820218
#
# Coordination Sequence:
#
# PCOD9457240 Si02
#       8
#     8   8   8   8   8   8   4   8
#     4  11  26  49  72 103 139 188 241 292 354 426
#     4  12  23  43  71 102 142 185 233 295 354 430
#     4  11  25  49  71 105 143 184 240 295 354 429
#     4  11  23  45  68 106 144 186 237 301 363 426
#     4  12  25  48  70 102 143 183 236 293 354 427
#     4  12  24  43  69 104 141 187 236 293 358 429
#     4  10  22  46  70 100 138 190 240 298 352 426
#     4  10  23  45  72 101 144 185 241 299 363 430
#
# _framework density 25.397987000000001
#
# number of rings (size 3 to 8) (size 9 to 14) (size 15 to 20)
#    0.000    0.800    4.000    3.200    0.000    2.667 
#   19.200    0.000    0.000    0.000    0.000    0.000 
#    0.000    0.000    0.000    0.000    0.000    0.000 
#
# Total GULP energy -334329.339776 kJ/mol
# GULP energy per Si atom -5572.155663 kJ/mol
# Density = 2.534018 g / cm^3
# Si number density = 25.397987 Si / 1000 Ang^3
#
#
#
# Elastic Constant Matrix: (Units=GPa)
#
#
# Indices 1 2 3 4 5 6 
#
# 1 42.3835 10.5110 29.9677 0.0000 0.0000 0.0000
# 2 10.5110 87.9552 37.3427 0.0000 0.0000 0.0000
# 3 29.9677 37.3427 139.5470 0.0000 0.0000 0.0000
# 4 0.0000 0.0000 0.0000 36.4960 0.0000 0.0000
# 5 0.0000 0.0000 0.0000 0.0000 52.2003 0.0000
# 6 0.0000 0.0000 0.0000 0.0000 0.0000 43.2789
#
#
#
# Elastic Compliance Matrix: (Units=1/GPa)
#
#
# Indices 1 2 3 4 5 6 
#
# 1 0.027880 -0.000891 -0.005749 0.000000 0.000000 0.000000
# 2 -0.000891 0.012855 -0.003249 0.000000 0.000000 0.000000
# 3 -0.005749 -0.003249 0.009270 0.000000 0.000000 0.000000
# 4 0.000000 0.000000 0.000000 0.027400 0.000000 0.000000
# 5 0.000000 0.000000 0.000000 0.000000 0.019157 0.000000
# 6 0.000000 0.000000 0.000000 0.000000 0.000000 0.023106
#
#
# Mechanical properties :
#
#
# Convention : Reuss Voigt Hill
#
# Bulk Modulus (GPa) = 33.08192 47.28093 40.18143
# Shear Modulus (GPa) = 33.44012 39.19933 36.31972
#
# Velocity S-wave (km/s) = 3.63250 3.93288 3.78567
# Velocity P-wave (km/s) = 5.53598 6.26736 5.91299
#
# Compressibility (1/GPa) = 0.03022799
#
# Stress axis : x y z
#
# Youngs Moduli (GPa) = 35.86828 77.78964 107.87565
#
# Poissons Ratio (x) = 0.06931 0.62015
# Poissons Ratio (y) = 0.03196 0.35045
# Poissons Ratio (z) = 0.20620 0.25271
#
# Static dielectric constant tensor:
#      x y z
#    x 2.079040 0.000000 0.000000 
#    y 0.000000 2.402340 0.000000 
#    z 0.000000 0.000000 2.096280 
# 
# From -- ./inp_files/23308.got.cif
#   From: 2010.05.17/outbox.cif.g08.bks.cpg/sg60_12_cif.got.tgz:23308.got - 2010.06.03 14:59:27.
