data_PCOD9457971
_publ_section_title
;
Structure prediction by ZEFSAII (Michael W. Deem and Ramdas Pophale) SiO2 
 PCOD9457971
Probable space group: P B C N
;
_chemical_formula_sum "Si O2"
_cell_formula_units_Z 48
_cell_length_a 17.800332
_cell_length_b 4.905409
_cell_length_c 21.332582
_cell_angle_alpha 90.000000
_cell_angle_beta 90.000000
_cell_angle_gamma 90.000000
_cell_volume 1862.716449
_symmetry_space_group_name_H-M "P B C N"
_symmetry_group_IT_number 60
_symmetry_cell_setting 'orthorhombic'
loop_
_space_group_symop_operation_xyz
x,y,z
1/2-x,1/2-y,1/2+z
1/2+x,1/2-y,-z
-x,y,1/2-z
-x,-y,-z
1/2+x,1/2+y,1/2-z
1/2-x,1/2+y,z
x,-y,1/2+z
loop_
_atom_site_type_symbol
_atom_site_label
_atom_site_fract_x
_atom_site_fract_y
_atom_site_fract_z
Si Si1 0.080407 0.200948 0.263332
Si Si2 0.521991 0.324909 0.128678
Si Si3 0.554386 0.843656 0.048343
Si Si4 0.298557 0.600461 0.517734
Si Si5 0.643875 0.325978 0.342874
Si Si6 0.793535 0.400035 0.721529
O O1 0.118828 0.080914 0.200837
O O2 0.000000 0.334102 0.250000
O O3 0.058628 0.952651 0.309174
O O4 0.134815 0.420237 0.293031
O O5 0.569886 0.090831 0.095927
O O6 0.438640 0.205716 0.141009
O O7 0.514500 0.588829 0.082975
O O8 0.500000 0.000000 0.000000
O O9 0.628374 0.714355 0.017446
O O10 0.228082 0.796629 0.502822
O O11 0.316516 0.613315 0.591950
O O12 0.695148 0.144670 0.296833
O O13 0.774399 0.096698 0.700389
#
# Coordination Sequence:
#
# PCOD9457971 Si02
#       6
#     8   8   8   8   8   8
#     4  10  26  46  74 112 154 194 251 303 380 458
#     4  11  27  46  79 109 145 197 255 318 372 454
#     4  12  26  50  77 107 149 198 265 313 382 446
#     4  12  28  45  75 108 147 191 250 318 381 442
#     4  11  25  44  76 112 152 190 244 315 383 451
#     4  12  25  44  68 104 155 197 239 298 376 456
#
# _framework density 25.768816000000001
#
# number of rings (size 3 to 8) (size 9 to 14) (size 15 to 20)
#    0.000    0.667    3.333    2.500   11.667    0.667 
#    0.000    5.000    0.000    0.000    0.000    0.000 
#    0.000    0.000    0.000    0.000    0.000    0.000 
#
# Total GULP energy -268789.631304 kJ/mol
# GULP energy per Si atom -5599.783986 kJ/mol
# Density = 2.571016 g / cm^3
# Si number density = 25.768816 Si / 1000 Ang^3
#
#
#
# Elastic Constant Matrix: (Units=GPa)
#
#
# Indices 1 2 3 4 5 6 
#
# 1 112.8395 28.4232 5.9283 0.0000 0.0000 0.0000
# 2 28.4232 133.0115 33.2022 0.0000 0.0000 0.0000
# 3 5.9283 33.2022 56.2497 0.0000 0.0000 0.0000
# 4 0.0000 0.0000 0.0000 40.1396 0.0000 0.0000
# 5 0.0000 0.0000 0.0000 0.0000 44.3244 0.0000
# 6 0.0000 0.0000 0.0000 0.0000 0.0000 35.2926
#
#
#
# Elastic Compliance Matrix: (Units=1/GPa)
#
#
# Indices 1 2 3 4 5 6 
#
# 1 0.009369 -0.002059 0.000228 0.000000 0.000000 0.000000
# 2 -0.002059 0.009270 -0.005255 0.000000 0.000000 0.000000
# 3 0.000228 -0.005255 0.020855 0.000000 0.000000 0.000000
# 4 0.000000 0.000000 0.000000 0.024913 0.000000 0.000000
# 5 0.000000 0.000000 0.000000 0.000000 0.022561 0.000000
# 6 0.000000 0.000000 0.000000 0.000000 0.000000 0.028335
#
#
# Mechanical properties :
#
#
# Convention : Reuss Voigt Hill
#
# Bulk Modulus (GPa) = 39.49011 48.57866 44.03438
# Shear Modulus (GPa) = 36.25427 39.58778 37.92103
#
# Velocity S-wave (km/s) = 3.75494 3.92378 3.84029
# Velocity P-wave (km/s) = 5.84444 6.27859 6.06540
#
# Compressibility (1/GPa) = 0.02532280
#
# Stress axis : x y z
#
# Youngs Moduli (GPa) = 106.73732 107.87753 47.94902
#
# Poissons Ratio (x) = 0.22211 -0.01093
# Poissons Ratio (y) = 0.21976 0.25195
# Poissons Ratio (z) = -0.02433 0.56686
#
# Static dielectric constant tensor:
#      x y z
#    x 2.126490 0.000000 0.000000 
#    y 0.000000 1.981270 0.000000 
#    z 0.000000 0.000000 2.070680 
# 
# From -- ./inp_files/23173.got.cif
#   From: 2010.05.17/outbox.cif.g08.bks.cpg/sg60_12_cif.got.tgz:23173.got - 2010.06.03 14:59:27.
