data_PCOD9457440
_publ_section_title
;
Structure prediction by ZEFSAII (Michael W. Deem and Ramdas Pophale) SiO2 
 PCOD9457440
Probable space group: P B C N
;
_chemical_formula_sum "Si O2"
_cell_formula_units_Z 60
_cell_length_a 10.347022
_cell_length_b 20.262633
_cell_length_c 12.173198
_cell_angle_alpha 90.000000
_cell_angle_beta 90.000000
_cell_angle_gamma 90.000000
_cell_volume 2552.207244
_symmetry_space_group_name_H-M "P B C N"
_symmetry_group_IT_number 60
_symmetry_cell_setting 'orthorhombic'
loop_
_space_group_symop_operation_xyz
x,y,z
1/2-x,1/2-y,1/2+z
1/2+x,1/2-y,-z
-x,y,1/2-z
-x,-y,-z
1/2+x,1/2+y,1/2-z
1/2-x,1/2+y,z
x,-y,1/2+z
loop_
_atom_site_type_symbol
_atom_site_label
_atom_site_fract_x
_atom_site_fract_y
_atom_site_fract_z
Si Si1 0.500000 0.455726 0.250000
Si Si2 0.681727 0.794929 0.434934
Si Si3 0.888205 0.254685 0.664966
Si Si4 0.917965 0.430474 0.863833
Si Si5 0.298904 0.673675 0.192525
Si Si6 0.122340 0.072483 0.378896
Si Si7 0.042887 0.143768 0.574046
Si Si8 0.135300 0.432169 0.047884
O O1 0.584249 0.503319 0.172920
O O2 0.421062 0.409570 0.166810
O O3 0.624372 0.798542 0.557687
O O4 0.635410 0.723796 0.392450
O O5 0.838995 0.803754 0.440787
O O6 0.638215 0.864001 0.383418
O O7 0.759742 0.267905 0.730952
O O8 0.000000 0.273474 0.750000
O O9 0.921744 0.182030 0.624240
O O10 0.812586 0.371788 0.862054
O O11 0.000000 0.426955 0.750000
O O12 0.008254 0.429546 0.971372
O O13 0.855496 0.503259 0.876406
O O14 0.361045 0.623244 0.278514
O O15 0.018325 0.104149 0.462180
O O16 0.247113 0.067569 0.458363
#
# Coordination Sequence:
#
# PCOD9457440 Si02
#       8
#     4   8   8   8   8   8   8   8
#     4  12  26  46  70  94 142 196 228 284 348 422
#     4  11  24  40  70 103 137 176 241 287 344 422
#     4  12  22  44  72  98 137 187 228 286 355 411
#     4  11  22  42  72  98 134 183 228 285 361 410
#     4  12  23  42  70 101 138 182 231 291 357 417
#     4  11  26  42  66 100 142 181 234 285 346 424
#     4  11  24  44  67 100 135 181 239 283 344 417
#     4  10  23  43  65 101 138 175 235 291 337 425
#
# _framework density 23.509060000000002
#
# number of rings (size 3 to 8) (size 9 to 14) (size 15 to 20)
#    0.000    0.800    6.000    1.600    5.600    1.067 
#    0.000    4.000    0.000    0.000    0.000    0.000 
#    0.000    0.000    0.000    0.000    0.000    0.000 
#
# Total GULP energy -334909.648359 kJ/mol
# GULP energy per Si atom -5581.827473 kJ/mol
# Density = 2.345555 g / cm^3
# Si number density = 23.509060 Si / 1000 Ang^3
#
#
#
# Elastic Constant Matrix: (Units=GPa)
#
#
# Indices 1 2 3 4 5 6 
#
# 1 32.8092 22.2851 10.7739 0.0000 0.0000 0.0000
# 2 22.2851 142.8738 48.5333 0.0000 0.0000 0.0000
# 3 10.7739 48.5333 84.7045 0.0000 0.0000 0.0000
# 4 0.0000 0.0000 0.0000 57.4006 0.0000 0.0000
# 5 0.0000 0.0000 0.0000 0.0000 27.9295 0.0000
# 6 0.0000 0.0000 0.0000 0.0000 0.0000 41.6177
#
#
#
# Elastic Compliance Matrix: (Units=1/GPa)
#
#
# Indices 1 2 3 4 5 6 
#
# 1 0.034267 -0.004798 -0.001609 0.000000 0.000000 0.000000
# 2 -0.004798 0.009363 -0.004754 0.000000 0.000000 0.000000
# 3 -0.001609 -0.004754 0.014734 0.000000 0.000000 0.000000
# 4 0.000000 0.000000 0.000000 0.017421 0.000000 0.000000
# 5 0.000000 0.000000 0.000000 0.000000 0.035804 0.000000
# 6 0.000000 0.000000 0.000000 0.000000 0.000000 0.024028
#
#
# Mechanical properties :
#
#
# Convention : Reuss Voigt Hill
#
# Bulk Modulus (GPa) = 27.74661 47.06358 37.40509
# Shear Modulus (GPa) = 29.41960 37.30924 33.36442
#
# Velocity S-wave (km/s) = 3.54137 3.98806 3.77133
# Velocity P-wave (km/s) = 5.34321 6.42409 5.90842
#
# Compressibility (1/GPa) = 0.03604044
#
# Stress axis : x y z
#
# Youngs Moduli (GPa) = 29.18279 106.80841 67.86819
#
# Poissons Ratio (x) = 0.51249 0.10922
# Poissons Ratio (y) = 0.14002 0.32266
# Poissons Ratio (z) = 0.04696 0.50779
#
# Static dielectric constant tensor:
#      x y z
#    x 1.987990 0.000000 0.000000 
#    y 0.000000 1.947140 0.000000 
#    z 0.000000 0.000000 1.985740 
# 
# From -- ./inp_files/11272.got.cif
#   From: 2010.05.17/outbox.cif.g08.bks.cpg/sg60_6_cif.got.tgz:11272.got - 2010.06.03 14:59:27.
