data_PCOD9457005
_publ_section_title
;
Structure prediction by ZEFSAII (Michael W. Deem and Ramdas Pophale) SiO2 
 PCOD9457005
Probable space group: P B C N
;
_chemical_formula_sum "Si O2"
_cell_formula_units_Z 64
_cell_length_a 30.662694
_cell_length_b 12.507514
_cell_length_c 7.810673
_cell_angle_alpha 90.000000
_cell_angle_beta 90.000000
_cell_angle_gamma 90.000000
_cell_volume 2995.503027
_symmetry_space_group_name_H-M "P B C N"
_symmetry_group_IT_number 60
_symmetry_cell_setting 'orthorhombic'
loop_
_space_group_symop_operation_xyz
x,y,z
1/2-x,1/2-y,1/2+z
1/2+x,1/2-y,-z
-x,y,1/2-z
-x,-y,-z
1/2+x,1/2+y,1/2-z
1/2-x,1/2+y,z
x,-y,1/2+z
loop_
_atom_site_type_symbol
_atom_site_label
_atom_site_fract_x
_atom_site_fract_y
_atom_site_fract_z
Si Si1 0.682417 0.253389 0.435256
Si Si2 0.656775 0.608484 0.605617
Si Si3 0.598960 0.862340 0.916472
Si Si4 0.695463 0.405326 0.731555
Si Si5 0.996663 0.625907 0.547788
Si Si6 0.708574 0.056729 0.215320
Si Si7 0.851415 0.583229 0.906689
Si Si8 0.414096 0.228413 0.452369
O O1 0.678275 0.330299 0.268644
O O2 0.633396 0.221680 0.486712
O O3 0.702970 0.307848 0.600619
O O4 0.703570 0.143704 0.367092
O O5 0.658869 0.483637 0.653233
O O6 0.682682 0.622675 0.425807
O O7 0.608000 0.657082 0.582349
O O8 0.598994 0.842989 0.712487
O O9 0.617320 0.981170 0.946643
O O10 0.550907 0.842970 0.983164
O O11 0.740918 0.469653 0.713805
O O12 0.000000 0.632071 0.750000
O O13 0.000000 0.500000 0.500000
O O14 0.035297 0.701570 0.476949
O O15 0.678421 0.954613 0.251493
O O16 0.685389 0.106399 0.049646
O O17 0.885307 0.679060 0.893499
#
# Coordination Sequence:
#
# PCOD9457005 Si02
#       8
#     8   8   8   8   8   8   8   8
#     4  10  24  45  63  97 131 173 229 278 341 401
#     4  11  24  45  69  96 129 180 228 288 339 396
#     4  10  22  42  61  94 134 175 213 266 342 402
#     4  12  25  45  70  93 131 179 235 290 338 394
#     4  12  25  36  65  99 135 172 214 264 332 426
#     4  11  25  40  62  97 130 176 225 280 331 401
#     4  11  20  38  59  90 139 169 211 264 326 399
#     4  11  23  42  63  98 135 176 219 267 337 416
#
# _framework density 21.365359000000002
#
# number of rings (size 3 to 8) (size 9 to 14) (size 15 to 20)
#    0.000    1.000    6.250    1.875    5.250    1.000 
#    0.000    0.000    0.000    0.750    3.250    0.000 
#    0.000    0.000    0.000    0.000    0.000    0.000 
#
# Total GULP energy -357371.385832 kJ/mol
# GULP energy per Si atom -5583.927904 kJ/mol
# Density = 2.131673 g / cm^3
# Si number density = 21.365359 Si / 1000 Ang^3
#
#
#
# Elastic Constant Matrix: (Units=GPa)
#
#
# Indices 1 2 3 4 5 6 
#
# 1 128.5448 19.5215 6.0942 0.0000 0.0000 0.0000
# 2 19.5215 51.7408 7.2470 0.0000 0.0000 0.0000
# 3 6.0942 7.2470 95.8898 0.0000 0.0000 0.0000
# 4 0.0000 0.0000 0.0000 30.8351 0.0000 0.0000
# 5 0.0000 0.0000 0.0000 0.0000 24.5294 0.0000
# 6 0.0000 0.0000 0.0000 0.0000 0.0000 21.3181
#
#
#
# Elastic Compliance Matrix: (Units=1/GPa)
#
#
# Indices 1 2 3 4 5 6 
#
# 1 0.008260 -0.003076 -0.000293 0.000000 0.000000 0.000000
# 2 -0.003076 0.020679 -0.001367 0.000000 0.000000 0.000000
# 3 -0.000293 -0.001367 0.010551 0.000000 0.000000 0.000000
# 4 0.000000 0.000000 0.000000 0.032431 0.000000 0.000000
# 5 0.000000 0.000000 0.000000 0.000000 0.040767 0.000000
# 6 0.000000 0.000000 0.000000 0.000000 0.000000 0.046909
#
#
# Mechanical properties :
#
#
# Convention : Reuss Voigt Hill
#
# Bulk Modulus (GPa) = 33.31234 37.98899 35.65067
# Shear Modulus (GPa) = 27.92143 31.55735 29.73939
#
# Velocity S-wave (km/s) = 3.61897 3.84739 3.73492
# Velocity P-wave (km/s) = 5.75223 6.12828 5.94323
#
# Compressibility (1/GPa) = 0.03001890
#
# Stress axis : x y z
#
# Youngs Moduli (GPa) = 121.06041 48.35812 94.78157
#
# Poissons Ratio (x) = 0.14873 0.02773
# Poissons Ratio (y) = 0.37233 0.12960
# Poissons Ratio (z) = 0.03541 0.06612
#
# Static dielectric constant tensor:
#      x y z
#    x 1.807760 0.000000 0.000000 
#    y 0.000000 1.800720 0.000000 
#    z 0.000000 0.000000 1.847580 
# 
# From -- ./inp_files/8506.got.cif
#   From: 2010.05.17/outbox.cif.g08.bks.cpg/sg60_5_cif.got.tgz:8506.got - 2010.06.03 14:59:27.
