data_PCOD9457015
_publ_section_title
;
Structure prediction by ZEFSAII (Michael W. Deem and Ramdas Pophale) SiO2 
 PCOD9457015
Probable space group: P B C N
;
_chemical_formula_sum "Si O2"
_cell_formula_units_Z 56
_cell_length_a 8.445289
_cell_length_b 14.721241
_cell_length_c 16.457006
_cell_angle_alpha 90.000000
_cell_angle_beta 90.000000
_cell_angle_gamma 90.000000
_cell_volume 2046.019487
_symmetry_space_group_name_H-M "P B C N"
_symmetry_group_IT_number 60
_symmetry_cell_setting 'orthorhombic'
loop_
_space_group_symop_operation_xyz
x,y,z
1/2-x,1/2-y,1/2+z
1/2+x,1/2-y,-z
-x,y,1/2-z
-x,-y,-z
1/2+x,1/2+y,1/2-z
1/2-x,1/2+y,z
x,-y,1/2+z
loop_
_atom_site_type_symbol
_atom_site_label
_atom_site_fract_x
_atom_site_fract_y
_atom_site_fract_z
Si Si1 0.190080 0.231842 0.665171
Si Si2 0.466345 0.765497 0.038066
Si Si3 0.385765 0.580754 0.969975
Si Si4 0.124794 0.555226 0.688048
Si Si5 0.142183 0.220231 0.317601
Si Si6 0.435207 0.900700 0.575548
Si Si7 0.649889 0.481370 0.691522
O O1 0.331430 0.256441 0.602324
O O2 0.231743 0.122351 0.661776
O O3 0.215777 0.247742 0.761098
O O4 0.076104 0.314075 0.636652
O O5 0.613682 0.775897 0.100008
O O6 0.474452 0.677867 0.980279
O O7 0.443801 0.858243 0.989618
O O8 0.347195 0.557448 0.876906
O O9 0.500000 0.500000 0.000000
O O10 0.229340 0.583114 0.026330
O O11 0.037749 0.496041 0.619806
O O12 0.206074 0.482404 0.746217
O O13 0.000000 0.602754 0.750000
O O14 0.000000 0.215527 0.250000
O O15 0.151257 0.117239 0.348648
O O16 0.500000 0.491128 0.750000
#
# Coordination Sequence:
#
# PCOD9457015 Si02
#       7
#     8   8   8   8   8   8   8
#     4  10  23  44  69  93 141 193 230 277 358 440
#     4  10  22  42  64 100 136 180 233 288 353 419
#     4  11  23  42  70 104 137 179 246 295 350 417
#     4  12  27  48  72 104 146 189 237 292 363 427
#     4   9  17  38  69  90 130 175 227 273 339 421
#     4  11  26  45  68 104 144 184 235 304 356 415
#     4  11  23  42  72 105 135 184 240 289 346 425
#
# _framework density 27.370217
#
# number of rings (size 3 to 8) (size 9 to 14) (size 15 to 20)
#    0.000    1.429    2.857    2.143    8.000    0.571 
#    7.714    0.000    0.000    0.000    0.000    0.000 
#    0.000    0.000    0.000    0.000    0.000    0.000 
#
# Total GULP energy -312736.420808 kJ/mol
# GULP energy per Si atom -5584.578943 kJ/mol
# Density = 2.730792 g / cm^3
# Si number density = 27.370217 Si / 1000 Ang^3
#
#
#
# Elastic Constant Matrix: (Units=GPa)
#
#
# Indices 1 2 3 4 5 6 
#
# 1 36.6423 4.7292 7.9230 0.0000 0.0000 0.0000
# 2 4.7292 167.0895 74.2669 0.0000 0.0000 0.0000
# 3 7.9230 74.2669 123.6493 0.0000 0.0000 0.0000
# 4 0.0000 0.0000 0.0000 51.0305 0.0000 0.0000
# 5 0.0000 0.0000 0.0000 0.0000 29.5007 0.0000
# 6 0.0000 0.0000 0.0000 0.0000 0.0000 -17.6133
#
#
#
# Elastic Compliance Matrix: (Units=1/GPa)
#
#
# Indices 1 2 3 4 5 6 
#
# 1 0.027674 0.000007 -0.001777 0.000000 0.000000 0.000000
# 2 0.000007 0.008164 -0.004904 0.000000 0.000000 0.000000
# 3 -0.001777 -0.004904 0.011147 0.000000 0.000000 0.000000
# 4 0.000000 0.000000 0.000000 0.019596 0.000000 0.000000
# 5 0.000000 0.000000 0.000000 0.000000 0.033897 0.000000
# 6 0.000000 0.000000 0.000000 0.000000 0.000000 -0.056775
#
#
# Mechanical properties :
#
#
# Convention : Reuss Voigt Hill
#
# Bulk Modulus (GPa) = 29.73008 55.69104 42.71056
# Shear Modulus (GPa) = 73.24368 28.61439 50.92904
#
# Velocity S-wave (km/s) = 5.17865 3.23686 4.31832
# Velocity P-wave (km/s) = 6.82962 5.86184 6.36415
#
# Compressibility (1/GPa) = 0.03363597
#
# Stress axis : x y z
#
# Youngs Moduli (GPa) = 36.13464 122.48289 89.71149
#
# Poissons Ratio (x) = -0.00082 0.15944
# Poissons Ratio (y) = -0.00024 0.43996
# Poissons Ratio (z) = 0.06422 0.60068
#
# Static dielectric constant tensor:
#      x y z
#    x 2.397980 0.000000 0.000000 
#    y 0.000000 2.116960 0.000000 
#    z 0.000000 0.000000 2.152280 
# 
# From -- ./inp_files/16183.got.cif
#   From: 2010.05.17/outbox.cif.g08.bks.cpg/sg60_9_cif.got.tgz:16183.got - 2010.06.03 14:59:27.
