data_PCOD9457393
_publ_section_title
;
Structure prediction by ZEFSAII (Michael W. Deem and Ramdas Pophale) SiO2 
 PCOD9457393
Probable space group: P B C N
;
_chemical_formula_sum "Si O2"
_cell_formula_units_Z 32
_cell_length_a 9.337409
_cell_length_b 29.083386
_cell_length_c 5.249203
_cell_angle_alpha 90.000000
_cell_angle_beta 90.000000
_cell_angle_gamma 90.000000
_cell_volume 1425.491782
_symmetry_space_group_name_H-M "P B C N"
_symmetry_group_IT_number 60
_symmetry_cell_setting 'orthorhombic'
loop_
_space_group_symop_operation_xyz
x,y,z
1/2-x,1/2-y,1/2+z
1/2+x,1/2-y,-z
-x,y,1/2-z
-x,-y,-z
1/2+x,1/2+y,1/2-z
1/2-x,1/2+y,z
x,-y,1/2+z
loop_
_atom_site_type_symbol
_atom_site_label
_atom_site_fract_x
_atom_site_fract_y
_atom_site_fract_z
Si Si1 0.500000 0.742686 0.250000
Si Si2 0.000000 0.695233 0.250000
Si Si3 0.165282 0.517690 0.531762
Si Si4 0.801065 0.157247 0.295604
Si Si5 0.153947 0.900207 0.194249
O O1 0.480077 0.773565 0.499488
O O2 0.368912 0.707992 0.201030
O O3 0.863077 0.663392 0.222010
O O4 0.227290 0.516187 0.247415
O O5 0.210701 0.566349 0.648621
O O6 0.000000 0.500000 0.500000
O O7 0.815078 0.132816 0.567321
O O8 0.868834 0.128887 0.063124
O O9 0.000000 0.924253 0.250000
#
# Coordination Sequence:
#
# PCOD9457393 Si02
#       5
#     4   4   8   8   8
#     4  12  22  46  66  96 140 176 228 278 340 394
#     4  12  26  40  68 104 132 180 228 284 334 392
#     4  10  23  42  66  96 130 170 215 274 338 396
#     4  12  25  44  69  99 137 178 229 276 336 398
#     4  12  24  44  69  96 135 181 223 274 335 408
#
# _framework density 22.448391000000001
#
# number of rings (size 3 to 8) (size 9 to 14) (size 15 to 20)
#    0.000    0.500    2.500    6.000    0.000    7.000 
#    0.000    0.000    0.000    0.000    0.000    0.000 
#    0.000    0.000    0.000    0.000    0.000    0.000 
#
# Total GULP energy -178699.742719 kJ/mol
# GULP energy per Si atom -5584.366960 kJ/mol
# Density = 2.239730 g / cm^3
# Si number density = 22.448391 Si / 1000 Ang^3
#
#
#
# Elastic Constant Matrix: (Units=GPa)
#
#
# Indices 1 2 3 4 5 6 
#
# 1 109.6892 29.7333 9.6655 0.0000 0.0000 0.0000
# 2 29.7333 58.3141 54.1389 0.0000 0.0000 0.0000
# 3 9.6655 54.1389 203.4764 0.0000 0.0000 0.0000
# 4 0.0000 0.0000 0.0000 36.2002 0.0000 0.0000
# 5 0.0000 0.0000 0.0000 0.0000 19.9598 0.0000
# 6 0.0000 0.0000 0.0000 0.0000 0.0000 36.2529
#
#
#
# Elastic Compliance Matrix: (Units=1/GPa)
#
#
# Indices 1 2 3 4 5 6 
#
# 1 0.010819 -0.006693 0.001267 0.000000 0.000000 0.000000
# 2 -0.006693 0.026914 -0.006843 0.000000 0.000000 0.000000
# 3 0.001267 -0.006843 0.006675 0.000000 0.000000 0.000000
# 4 0.000000 0.000000 0.000000 0.027624 0.000000 0.000000
# 5 0.000000 0.000000 0.000000 0.000000 0.050101 0.000000
# 6 0.000000 0.000000 0.000000 0.000000 0.000000 0.027584
#
#
# Mechanical properties :
#
#
# Convention : Reuss Voigt Hill
#
# Bulk Modulus (GPa) = 50.32566 62.06169 56.19367
# Shear Modulus (GPa) = 27.64283 37.01203 32.32743
#
# Velocity S-wave (km/s) = 3.51293 4.06490 3.79895
# Velocity P-wave (km/s) = 6.23869 7.05249 6.65804
#
# Compressibility (1/GPa) = 0.01987058
#
# Stress axis : x y z
#
# Youngs Moduli (GPa) = 92.42837 37.15526 149.80944
#
# Poissons Ratio (x) = 0.24866 -0.18977
# Poissons Ratio (y) = 0.61858 1.02516
# Poissons Ratio (z) = -0.11708 0.25426
#
# Static dielectric constant tensor:
#      x y z
#    x 1.698510 0.000000 0.000000 
#    y 0.000000 1.820310 0.000000 
#    z 0.000000 0.000000 0.926480 
# 
# From -- ./inp_files/389.got.cif
#   From: 2010.05.17/outbox.cif.g08.bks.cpg/sg60_1_cif.got.tgz:389.got - 2010.06.03 14:59:27.
