data_PCOD9457317
_publ_section_title
;
Structure prediction by ZEFSAII (Michael W. Deem and Ramdas Pophale) SiO2 
 PCOD9457317
Probable space group: P B C N
;
_chemical_formula_sum "Si O2"
_cell_formula_units_Z 64
_cell_length_a 20.578610
_cell_length_b 27.441790
_cell_length_c 5.697577
_cell_angle_alpha 90.000000
_cell_angle_beta 90.000000
_cell_angle_gamma 90.000000
_cell_volume 3217.500895
_symmetry_space_group_name_H-M "P B C N"
_symmetry_group_IT_number 60
_symmetry_cell_setting 'orthorhombic'
loop_
_space_group_symop_operation_xyz
x,y,z
1/2-x,1/2-y,1/2+z
1/2+x,1/2-y,-z
-x,y,1/2-z
-x,-y,-z
1/2+x,1/2+y,1/2-z
1/2-x,1/2+y,z
x,-y,1/2+z
loop_
_atom_site_type_symbol
_atom_site_label
_atom_site_fract_x
_atom_site_fract_y
_atom_site_fract_z
Si Si1 0.930959 0.606167 0.321202
Si Si2 0.212367 0.872064 0.285338
Si Si3 0.432886 0.798426 0.388895
Si Si4 0.845094 0.787489 0.489954
Si Si5 0.708084 0.475582 0.049703
Si Si6 0.134940 0.523526 0.939690
Si Si7 0.163665 0.643296 0.543754
Si Si8 0.755646 0.701653 0.336105
O O1 0.941820 0.661061 0.411395
O O2 0.895258 0.577015 0.526931
O O3 0.884902 0.608619 0.096415
O O4 0.000000 0.584567 0.250000
O O5 0.160133 0.838138 0.150378
O O6 0.186712 0.919340 0.416565
O O7 0.252198 0.835851 0.453016
O O8 0.272667 0.887707 0.119382
O O9 0.500000 0.792259 0.250000
O O10 0.406754 0.747592 0.495980
O O11 0.378070 0.822660 0.219061
O O12 0.786281 0.753387 0.394721
O O13 0.818587 0.796644 0.750891
O O14 0.688036 0.503241 0.293297
O O15 0.786853 0.475690 0.049301
O O16 0.114529 0.502057 0.687350
O O17 0.196890 0.679396 0.356777
#
# Coordination Sequence:
#
# PCOD9457317 Si02
#       8
#     8   8   8   8   8   8   8   8
#     4  12  25  39  58  75 106 155 212 259 307 359
#     4  11  23  36  61  84 117 151 190 250 300 365
#     4  12  24  39  56  81 117 159 201 246 297 367
#     4  11  21  34  55  88 114 150 193 238 301 359
#     4  10  23  40  61  88 119 154 196 245 316 377
#     4  10  24  40  60  83 112 151 205 272 324 363
#     4  11  21  35  56  79 110 147 201 242 297 355
#     4  11  19  33  56  84 113 146 189 245 293 357
#
# _framework density 19.891216
#
# number of rings (size 3 to 8) (size 9 to 14) (size 15 to 20)
#    0.000    1.000    5.000    2.250   10.500    0.500 
#    0.000    0.000    0.000    0.000    0.000    0.000 
#    0.000    1.000    0.000    0.125    0.000    0.000 
#
# Total GULP energy -357139.196912 kJ/mol
# GULP energy per Si atom -5580.299952 kJ/mol
# Density = 1.984594 g / cm^3
# Si number density = 19.891216 Si / 1000 Ang^3
#
#
#
# Elastic Constant Matrix: (Units=GPa)
#
#
# Indices 1 2 3 4 5 6 
#
# 1 25.3050 11.8720 11.5367 0.0000 0.0000 0.0000
# 2 11.8720 75.1038 22.9573 0.0000 0.0000 0.0000
# 3 11.5367 22.9573 71.4482 0.0000 0.0000 0.0000
# 4 0.0000 0.0000 0.0000 11.5514 0.0000 0.0000
# 5 0.0000 0.0000 0.0000 0.0000 16.1932 0.0000
# 6 0.0000 0.0000 0.0000 0.0000 0.0000 16.8376
#
#
#
# Elastic Compliance Matrix: (Units=1/GPa)
#
#
# Indices 1 2 3 4 5 6 
#
# 1 0.044528 -0.005368 -0.005465 0.000000 0.000000 0.000000
# 2 -0.005368 0.015412 -0.004085 0.000000 0.000000 0.000000
# 3 -0.005465 -0.004085 0.016191 0.000000 0.000000 0.000000
# 4 0.000000 0.000000 0.000000 0.086569 0.000000 0.000000
# 5 0.000000 0.000000 0.000000 0.000000 0.061754 0.000000
# 6 0.000000 0.000000 0.000000 0.000000 0.000000 0.059391
#
#
# Mechanical properties :
#
#
# Convention : Reuss Voigt Hill
#
# Bulk Modulus (GPa) = 21.60092 29.39877 25.49984
# Shear Modulus (GPa) = 15.19227 17.28251 16.23739
#
# Velocity S-wave (km/s) = 2.76663 2.95083 2.86021
# Velocity P-wave (km/s) = 4.59225 5.14020 4.87393
#
# Compressibility (1/GPa) = 0.04629432
#
# Stress axis : x y z
#
# Youngs Moduli (GPa) = 22.45779 64.88330 61.76166
#
# Poissons Ratio (x) = 0.34831 0.33753
# Poissons Ratio (y) = 0.12056 0.25232
# Poissons Ratio (z) = 0.12273 0.26507
#
# Static dielectric constant tensor:
#      x y z
#    x 1.724410 0.000000 0.000000 
#    y 0.000000 1.804930 0.000000 
#    z 0.000000 0.000000 1.824280 
# 
# From -- ./inp_files/2222.got.cif
#   From: 2010.05.17/outbox.cif.g08.bks.cpg/sg60_2_cif.got.tgz:2222.got - 2010.06.03 14:59:27.
