data_PCOD9457308
_publ_section_title
;
Structure prediction by ZEFSAII (Michael W. Deem and Ramdas Pophale) SiO2 
 PCOD9457308
Probable space group: P B C N
;
_chemical_formula_sum "Si O2"
_cell_formula_units_Z 32
_cell_length_a 17.794787
_cell_length_b 5.476693
_cell_length_c 13.067144
_cell_angle_alpha 90.000000
_cell_angle_beta 90.000000
_cell_angle_gamma 90.000000
_cell_volume 1273.479235
_symmetry_space_group_name_H-M "P B C N"
_symmetry_group_IT_number 60
_symmetry_cell_setting 'orthorhombic'
loop_
_space_group_symop_operation_xyz
x,y,z
1/2-x,1/2-y,1/2+z
1/2+x,1/2-y,-z
-x,y,1/2-z
-x,-y,-z
1/2+x,1/2+y,1/2-z
1/2-x,1/2+y,z
x,-y,1/2+z
loop_
_atom_site_type_symbol
_atom_site_label
_atom_site_fract_x
_atom_site_fract_y
_atom_site_fract_z
Si Si1 0.782608 0.394292 0.194456
Si Si2 0.946934 0.794021 0.453827
Si Si3 0.720678 0.198727 0.450484
Si Si4 0.451639 0.027928 0.831272
O O1 0.730267 0.617036 0.231841
O O2 0.867151 0.493241 0.207525
O O3 0.768100 0.346948 0.072493
O O4 0.859488 0.829295 0.429619
O O5 0.940653 0.620677 0.553227
O O6 0.990819 0.690966 0.356217
O O7 0.000000 0.000000 0.500000
O O8 0.777989 0.413665 0.415214
O O9 0.500000 0.185218 0.750000
#
# Coordination Sequence:
#
# PCOD9457308 Si02
#       4
#     8   8   8   8
#     4   9  19  36  60  88 121 164 210 254 308 375
#     4  10  23  39  64  92 125 164 212 259 314 378
#     4   9  19  34  60  88 123 164 206 254 313 375
#     4  10  23  41  63  92 126 165 208 261 316 373
#
# _framework density 25.128014
#
# number of rings (size 3 to 8) (size 9 to 14) (size 15 to 20)
#    0.000    2.500    0.000    0.000   21.000    1.000 
#    0.000    2.500    0.000    0.000    0.000    0.000 
#    0.000    0.000    0.000    0.000    0.000    0.000 
#
# Total GULP energy -178179.843722 kJ/mol
# GULP energy per Si atom -5568.120116 kJ/mol
# Density = 2.507082 g / cm^3
# Si number density = 25.128014 Si / 1000 Ang^3
#
#
#
# Elastic Constant Matrix: (Units=GPa)
#
#
# Indices 1 2 3 4 5 6 
#
# 1 96.5127 46.1642 -1.1523 0.0000 0.0000 0.0000
# 2 46.1642 121.5765 13.9303 0.0000 0.0000 0.0000
# 3 -1.1523 13.9303 91.9095 0.0000 0.0000 0.0000
# 4 0.0000 0.0000 0.0000 16.7360 0.0000 0.0000
# 5 0.0000 0.0000 0.0000 0.0000 34.8298 0.0000
# 6 0.0000 0.0000 0.0000 0.0000 0.0000 22.7289
#
#
#
# Elastic Compliance Matrix: (Units=1/GPa)
#
#
# Indices 1 2 3 4 5 6 
#
# 1 0.012735 -0.004940 0.000908 0.000000 0.000000 0.000000
# 2 -0.004940 0.010287 -0.001621 0.000000 0.000000 0.000000
# 3 0.000908 -0.001621 0.011137 0.000000 0.000000 0.000000
# 4 0.000000 0.000000 0.000000 0.059751 0.000000 0.000000
# 5 0.000000 0.000000 0.000000 0.000000 0.028711 0.000000
# 6 0.000000 0.000000 0.000000 0.000000 0.000000 0.043997
#
#
# Mechanical properties :
#
#
# Convention : Reuss Voigt Hill
#
# Bulk Modulus (GPa) = 43.75563 47.54256 45.64910
# Shear Modulus (GPa) = 26.94819 31.59604 29.27211
#
# Velocity S-wave (km/s) = 3.27836 3.54983 3.41679
# Velocity P-wave (km/s) = 5.63747 5.98022 5.81137
#
# Compressibility (1/GPa) = 0.02285420
#
# Stress axis : x y z
#
# Youngs Moduli (GPa) = 78.52402 97.21302 89.78801
#
# Poissons Ratio (x) = 0.48020 -0.08156
# Poissons Ratio (y) = 0.38789 0.14555
# Poissons Ratio (z) = -0.07133 0.15759
#
# Static dielectric constant tensor:
#      x y z
#    x 2.047710 0.000000 0.000000 
#    y 0.000000 1.768910 0.000000 
#    z 0.000000 0.000000 2.252150 
# 
# From -- ./inp_files/17112.got.cif
#   From: 2010.05.17/outbox.cif.g08.bks.cpg/sg60_9_cif.got.tgz:17112.got - 2010.06.03 14:59:27.
