data_PCOD9457605
_publ_section_title
;
Structure prediction by ZEFSAII (Michael W. Deem and Ramdas Pophale) SiO2 
 PCOD9457605
Probable space group: P B C N
;
_chemical_formula_sum "Si O2"
_cell_formula_units_Z 44
_cell_length_a 8.558484
_cell_length_b 27.993428
_cell_length_c 8.002378
_cell_angle_alpha 90.000000
_cell_angle_beta 90.000000
_cell_angle_gamma 90.000000
_cell_volume 1917.220169
_symmetry_space_group_name_H-M "P B C N"
_symmetry_group_IT_number 60
_symmetry_cell_setting 'orthorhombic'
loop_
_space_group_symop_operation_xyz
x,y,z
1/2-x,1/2-y,1/2+z
1/2+x,1/2-y,-z
-x,y,1/2-z
-x,-y,-z
1/2+x,1/2+y,1/2-z
1/2-x,1/2+y,z
x,-y,1/2+z
loop_
_atom_site_type_symbol
_atom_site_label
_atom_site_fract_x
_atom_site_fract_y
_atom_site_fract_z
Si Si1 0.171611 0.905418 0.776901
Si Si2 0.517369 0.790645 0.957899
Si Si3 0.312233 0.885256 0.428831
Si Si4 0.554731 0.051825 0.057073
Si Si5 0.500000 0.630154 0.750000
Si Si6 0.339552 0.690173 0.467933
O O1 0.245663 0.908819 0.596401
O O2 0.264341 0.933966 0.919447
O O3 0.000000 0.924084 0.750000
O O4 0.170044 0.848629 0.819706
O O5 0.500000 0.788593 0.750000
O O6 0.581462 0.741938 0.038993
O O7 0.636055 0.831323 0.024179
O O8 0.341179 0.801705 0.018855
O O9 0.477929 0.912131 0.425151
O O10 0.168728 0.892190 0.301118
O O11 0.500000 0.058845 0.250000
O O12 0.500000 0.000000 0.000000
O O13 0.450402 0.662802 0.596317
#
# Coordination Sequence:
#
# PCOD9457605 Si02
#       6
#     8   8   8   8   4   8
#     4  11  22  45  73  97 135 189 231 281 358 433
#     4  12  24  44  68  96 138 190 240 282 341 416
#     4  11  23  45  69  97 138 182 233 286 353 426
#     4  10  23  47  73 101 134 177 229 293 366 435
#     4  12  26  42  60 106 140 174 234 294 342 404
#     4  12  25  42  65  99 140 182 237 282 338 409
#
# _framework density 22.949894
#
# number of rings (size 3 to 8) (size 9 to 14) (size 15 to 20)
#    0.000    0.727    6.364    1.636    0.000    2.182 
#    1.636    1.818    0.000    0.000    0.000    0.000 
#    0.000    0.000    0.000    0.000    0.000    0.000 
#
# Total GULP energy -245197.766243 kJ/mol
# GULP energy per Si atom -5572.676506 kJ/mol
# Density = 2.289766 g / cm^3
# Si number density = 22.949894 Si / 1000 Ang^3
#
#
#
# Elastic Constant Matrix: (Units=GPa)
#
#
# Indices 1 2 3 4 5 6 
#
# 1 176.6991 24.4482 21.4733 0.0000 0.0000 0.0000
# 2 24.4482 78.4986 10.0724 0.0000 0.0000 0.0000
# 3 21.4733 10.0724 58.5994 0.0000 0.0000 0.0000
# 4 0.0000 0.0000 0.0000 18.2012 0.0000 0.0000
# 5 0.0000 0.0000 0.0000 0.0000 19.8338 0.0000
# 6 0.0000 0.0000 0.0000 0.0000 0.0000 -0.5119
#
#
#
# Elastic Compliance Matrix: (Units=1/GPa)
#
#
# Indices 1 2 3 4 5 6 
#
# 1 0.006127 -0.001657 -0.001960 0.000000 0.000000 0.000000
# 2 -0.001657 0.013474 -0.001709 0.000000 0.000000 0.000000
# 3 -0.001960 -0.001709 0.018077 0.000000 0.000000 0.000000
# 4 0.000000 0.000000 0.000000 0.054941 0.000000 0.000000
# 5 0.000000 0.000000 0.000000 0.000000 0.050419 0.000000
# 6 0.000000 0.000000 0.000000 0.000000 0.000000 -1.953631
#
#
# Mechanical properties :
#
#
# Convention : Reuss Voigt Hill
#
# Bulk Modulus (GPa) = 37.00102 47.30943 42.15523
# Shear Modulus (GPa) = -2.79184 24.69151 10.94983
#
# Velocity S-wave (km/s) = -1.10414 3.28363 2.18668
# Velocity P-wave (km/s) = 3.81209 5.91906 4.97832
#
# Compressibility (1/GPa) = 0.02702628
#
# Stress axis : x y z
#
# Youngs Moduli (GPa) = 163.21780 74.21523 55.31852
#
# Poissons Ratio (x) = 0.12295 0.10844
# Poissons Ratio (y) = 0.27039 0.09454
# Poissons Ratio (z) = 0.31997 0.12683
#
# Static dielectric constant tensor:
#      x y z
#    x 2.007360 0.000000 0.000000 
#    y 0.000000 2.408650 0.000000 
#    z 0.000000 0.000000 2.196210 
# 
# From -- ./inp_files/4124.got.cif
#   From: 2010.05.17/outbox.cif.g08.bks.cpg/sg60_3_cif.got.tgz:4124.got - 2010.06.03 14:59:27.
