data_PCOD9457671
_publ_section_title
;
Structure prediction by ZEFSAII (Michael W. Deem and Ramdas Pophale) SiO2 
 PCOD9457671
Probable space group: P B C N
;
_chemical_formula_sum "Si O2"
_cell_formula_units_Z 40
_cell_length_a 10.977781
_cell_length_b 20.330178
_cell_length_c 9.093917
_cell_angle_alpha 90.000000
_cell_angle_beta 90.000000
_cell_angle_gamma 90.000000
_cell_volume 2029.582595
_symmetry_space_group_name_H-M "P B C N"
_symmetry_group_IT_number 60
_symmetry_cell_setting 'orthorhombic'
loop_
_space_group_symop_operation_xyz
x,y,z
1/2-x,1/2-y,1/2+z
1/2+x,1/2-y,-z
-x,y,1/2-z
-x,-y,-z
1/2+x,1/2+y,1/2-z
1/2-x,1/2+y,z
x,-y,1/2+z
loop_
_atom_site_type_symbol
_atom_site_label
_atom_site_fract_x
_atom_site_fract_y
_atom_site_fract_z
Si Si1 0.884972 0.546622 0.961850
Si Si2 0.858278 0.230315 0.088359
Si Si3 0.739047 0.063283 0.278635
Si Si4 0.639105 0.801887 0.796791
Si Si5 0.000000 0.878149 0.750000
Si Si6 0.500000 0.154894 0.750000
O O1 0.797847 0.503423 0.857983
O O2 0.932764 0.608870 0.869483
O O3 0.815295 0.562713 0.113178
O O4 0.000000 0.500000 0.000000
O O5 0.731876 0.210976 0.164188
O O6 0.954606 0.172010 0.122276
O O7 0.908906 0.296051 0.165734
O O8 0.841588 0.246859 0.919269
O O9 0.674252 0.125780 0.355747
O O10 0.882247 0.078374 0.284163
O O11 0.500000 0.802212 0.750000
#
# Coordination Sequence:
#
# PCOD9457671 Si02
#       6
#     8   8   8   8   4   4
#     4  12  22  40  65  97 122 169 218 268 323 382
#     4  10  24  41  65  95 128 172 212 273 334 396
#     4  11  24  41  66  92 133 172 216 270 324 392
#     4  11  24  41  67  95 130 169 218 270 331 394
#     4   9  24  44  64  90 138 169 216 268 334 393
#     4  11  22  38  66  90 130 159 216 274 324 391
#
# _framework density 19.708486000000001
#
# number of rings (size 3 to 8) (size 9 to 14) (size 15 to 20)
#    0.000    1.200    2.000    3.600   14.000    0.800 
#    0.000    0.000    2.200    0.000    0.000    0.000 
#    0.000    0.000    0.000    0.000    0.000    0.000 
#
# Total GULP energy -223630.144676 kJ/mol
# GULP energy per Si atom -5590.753617 kJ/mol
# Density = 1.966363 g / cm^3
# Si number density = 19.708486 Si / 1000 Ang^3
#
#
#
# Elastic Constant Matrix: (Units=GPa)
#
#
# Indices 1 2 3 4 5 6 
#
# 1 153.5102 57.8758 42.9092 0.0000 0.0000 0.0000
# 2 57.8758 93.0073 9.4152 0.0000 0.0000 0.0000
# 3 42.9092 9.4152 51.6638 0.0000 0.0000 0.0000
# 4 0.0000 0.0000 0.0000 30.0855 0.0000 0.0000
# 5 0.0000 0.0000 0.0000 0.0000 9.5046 0.0000
# 6 0.0000 0.0000 0.0000 0.0000 0.0000 41.0473
#
#
#
# Elastic Compliance Matrix: (Units=1/GPa)
#
#
# Indices 1 2 3 4 5 6 
#
# 1 0.011059 -0.006064 -0.008080 0.000000 0.000000 0.000000
# 2 -0.006064 0.014279 0.002434 0.000000 0.000000 0.000000
# 3 -0.008080 0.002434 0.025623 0.000000 0.000000 0.000000
# 4 0.000000 0.000000 0.000000 0.033239 0.000000 0.000000
# 5 0.000000 0.000000 0.000000 0.000000 0.105212 0.000000
# 6 0.000000 0.000000 0.000000 0.000000 0.000000 0.024362
#
#
# Mechanical properties :
#
#
# Convention : Reuss Voigt Hill
#
# Bulk Modulus (GPa) = 36.30875 57.62019 46.96447
# Shear Modulus (GPa) = 20.29446 28.65956 24.47701
#
# Velocity S-wave (km/s) = 3.21242 3.81750 3.52796
# Velocity P-wave (km/s) = 5.67648 6.98074 6.36212
#
# Compressibility (1/GPa) = 0.02754157
#
# Stress axis : x y z
#
# Youngs Moduli (GPa) = 90.42590 70.03445 39.02743
#
# Poissons Ratio (x) = 0.42466 0.31533
# Poissons Ratio (y) = 0.54831 -0.09499
# Poissons Ratio (z) = 0.73062 -0.17046
#
# Static dielectric constant tensor:
#      x y z
#    x 1.672160 0.000000 0.000000 
#    y 0.000000 1.693890 0.000000 
#    z 0.000000 0.000000 1.710080 
# 
# From -- ./inp_files/4805.got.cif
#   From: 2010.05.17/outbox.cif.g08.bks.cpg/sg60_3_cif.got.tgz:4805.got - 2010.06.03 14:59:27.
