data_PCOD9457829
_publ_section_title
;
Structure prediction by ZEFSAII (Michael W. Deem and Ramdas Pophale) SiO2 
 PCOD9457829
Probable space group: P B C N
;
_chemical_formula_sum "Si O2"
_cell_formula_units_Z 28
_cell_length_a 17.145101
_cell_length_b 6.742761
_cell_length_c 9.793613
_cell_angle_alpha 90.000000
_cell_angle_beta 90.000000
_cell_angle_gamma 90.000000
_cell_volume 1132.193749
_symmetry_space_group_name_H-M "P B C N"
_symmetry_group_IT_number 60
_symmetry_cell_setting 'orthorhombic'
loop_
_space_group_symop_operation_xyz
x,y,z
1/2-x,1/2-y,1/2+z
1/2+x,1/2-y,-z
-x,y,1/2-z
-x,-y,-z
1/2+x,1/2+y,1/2-z
1/2-x,1/2+y,z
x,-y,1/2+z
loop_
_atom_site_type_symbol
_atom_site_label
_atom_site_fract_x
_atom_site_fract_y
_atom_site_fract_z
Si Si1 0.500000 0.751385 0.250000
Si Si2 0.619046 0.136057 0.957260
Si Si3 0.811119 0.579026 0.221561
Si Si4 0.357813 0.517001 0.848161
O O1 0.460140 0.875012 0.128080
O O2 0.568357 0.611382 0.191030
O O3 0.682698 0.061780 0.849818
O O4 0.631220 0.361653 0.010138
O O5 0.633441 0.013412 0.095375
O O6 0.845601 0.795709 0.254680
O O7 0.724449 0.595621 0.160761
#
# Coordination Sequence:
#
# PCOD9457829 Si02
#       4
#     4   8   8   8
#     4  12  24  48  66 108 144 184 230 300 356 400
#     4  10  26  46  72 103 140 184 232 294 344 429
#     4  10  24  46  73 103 136 188 239 282 348 424
#     4  10  25  43  72 102 141 184 236 290 348 416
#
# _framework density 24.730748999999999
#
# number of rings (size 3 to 8) (size 9 to 14) (size 15 to 20)
#    1.714    0.000    0.000    2.571    8.000    2.286 
#   10.286    0.000    0.000    0.000    0.000    0.000 
#    0.000    0.000    0.000    0.000    0.000    0.000 
#
# Total GULP energy -156360.059173 kJ/mol
# GULP energy per Si atom -5584.287828 kJ/mol
# Density = 2.467446 g / cm^3
# Si number density = 24.730749 Si / 1000 Ang^3
#
#
#
# Elastic Constant Matrix: (Units=GPa)
#
#
# Indices 1 2 3 4 5 6 
#
# 1 139.2591 30.5831 16.8467 0.0000 0.0000 0.0000
# 2 30.5831 51.3257 45.5585 0.0000 0.0000 0.0000
# 3 16.8467 45.5585 101.1333 0.0000 0.0000 0.0000
# 4 0.0000 0.0000 0.0000 37.2371 0.0000 0.0000
# 5 0.0000 0.0000 0.0000 0.0000 44.4831 0.0000
# 6 0.0000 0.0000 0.0000 0.0000 0.0000 45.9537
#
#
#
# Elastic Compliance Matrix: (Units=1/GPa)
#
#
# Indices 1 2 3 4 5 6 
#
# 1 0.008383 -0.006258 0.001423 0.000000 0.000000 0.000000
# 2 -0.006258 0.037136 -0.015687 0.000000 0.000000 0.000000
# 3 0.001423 -0.015687 0.016718 0.000000 0.000000 0.000000
# 4 0.000000 0.000000 0.000000 0.026855 0.000000 0.000000
# 5 0.000000 0.000000 0.000000 0.000000 0.022480 0.000000
# 6 0.000000 0.000000 0.000000 0.000000 0.000000 0.021761
#
#
# Mechanical properties :
#
#
# Convention : Reuss Voigt Hill
#
# Bulk Modulus (GPa) = 47.18566 53.07718 50.13142
# Shear Modulus (GPa) = 27.55702 38.78343 33.17023
#
# Velocity S-wave (km/s) = 3.34171 3.96438 3.66629
# Velocity P-wave (km/s) = 5.83185 6.51642 6.18362
#
# Compressibility (1/GPa) = 0.02119288
#
# Stress axis : x y z
#
# Youngs Moduli (GPa) = 119.28789 26.92772 59.81739
#
# Poissons Ratio (x) = 0.16851 -0.08510
# Poissons Ratio (y) = 0.74650 0.93834
# Poissons Ratio (z) = -0.16970 0.42241
#
# Static dielectric constant tensor:
#      x y z
#    x 1.949020 0.000000 0.000000 
#    y 0.000000 1.994140 0.000000 
#    z 0.000000 0.000000 1.995940 
# 
# From -- ./inp_files/6443.got.cif
#   From: 2010.05.17/outbox.cif.g08.bks.cpg/sg60_4_cif.got.tgz:6443.got - 2010.06.03 14:59:27.
