data_PCOD9457859
_publ_section_title
;
Structure prediction by ZEFSAII (Michael W. Deem and Ramdas Pophale) SiO2 
 PCOD9457859
Probable space group: P B C N
;
_chemical_formula_sum "Si O2"
_cell_formula_units_Z 40
_cell_length_a 5.061905
_cell_length_b 28.066016
_cell_length_c 10.740038
_cell_angle_alpha 90.000000
_cell_angle_beta 90.000000
_cell_angle_gamma 90.000000
_cell_volume 1525.810421
_symmetry_space_group_name_H-M "P B C N"
_symmetry_group_IT_number 60
_symmetry_cell_setting 'orthorhombic'
loop_
_space_group_symop_operation_xyz
x,y,z
1/2-x,1/2-y,1/2+z
1/2+x,1/2-y,-z
-x,y,1/2-z
-x,-y,-z
1/2+x,1/2+y,1/2-z
1/2-x,1/2+y,z
x,-y,1/2+z
loop_
_atom_site_type_symbol
_atom_site_label
_atom_site_fract_x
_atom_site_fract_y
_atom_site_fract_z
Si Si1 0.661335 0.484861 0.379717
Si Si2 0.838529 0.624025 0.877653
Si Si3 0.879680 0.240059 0.081576
Si Si4 0.500000 0.056302 0.250000
Si Si5 0.500000 0.302314 0.250000
Si Si6 0.822033 0.646562 0.142813
O O1 0.500000 0.488143 0.250000
O O2 0.500000 0.500000 0.500000
O O3 0.749240 0.430345 0.390662
O O4 0.897401 0.522158 0.358025
O O5 0.601197 0.660702 0.854282
O O6 0.000000 0.627201 0.750000
O O7 0.965075 0.638533 0.009690
O O8 0.735693 0.271024 0.189460
O O9 0.903253 0.184853 0.120568
O O10 0.658303 0.243134 0.971870
O O11 0.282536 0.093458 0.303333
O O12 0.000000 0.669478 0.250000
#
# Coordination Sequence:
#
# PCOD9457859 Si02
#       6
#     8   8   8   4   4   8
#     4  12  27  44  73 110 143 199 256 314 388 460
#     4  12  25  46  75 103 147 195 253 314 383 458
#     4  12  26  48  76 112 155 201 257 320 395 468
#     4  10  25  50  72 102 156 194 253 318 384 456
#     4  12  25  44  74 108 144 198 253 316 374 476
#     4  10  24  48  74 107 142 203 246 309 391 460
#
# _framework density 26.215577
#
# number of rings (size 3 to 8) (size 9 to 14) (size 15 to 20)
#    0.600    0.000    5.000    2.400    2.800    3.200 
#    3.600    0.000    0.000    0.000    0.000    0.000 
#    0.000    0.000    0.000    0.000    0.000    0.000 
#
# Total GULP energy -223959.659013 kJ/mol
# GULP energy per Si atom -5598.991475 kJ/mol
# Density = 2.615591 g / cm^3
# Si number density = 26.215577 Si / 1000 Ang^3
#
#
#
# Elastic Constant Matrix: (Units=GPa)
#
#
# Indices 1 2 3 4 5 6 
#
# 1 85.9732 40.1926 43.0287 0.0000 0.0000 0.0000
# 2 40.1926 219.1005 45.2956 0.0000 0.0000 0.0000
# 3 43.0287 45.2956 195.1851 0.0000 0.0000 0.0000
# 4 0.0000 0.0000 0.0000 32.8246 0.0000 0.0000
# 5 0.0000 0.0000 0.0000 0.0000 59.6417 0.0000
# 6 0.0000 0.0000 0.0000 0.0000 0.0000 5.6564
#
#
#
# Elastic Compliance Matrix: (Units=1/GPa)
#
#
# Indices 1 2 3 4 5 6 
#
# 1 0.013867 -0.002008 -0.002591 0.000000 0.000000 0.000000
# 2 -0.002008 0.005085 -0.000737 0.000000 0.000000 0.000000
# 3 -0.002591 -0.000737 0.005866 0.000000 0.000000 0.000000
# 4 0.000000 0.000000 0.000000 0.030465 0.000000 0.000000
# 5 0.000000 0.000000 0.000000 0.000000 0.016767 0.000000
# 6 0.000000 0.000000 0.000000 0.000000 0.000000 0.176791
#
#
# Mechanical properties :
#
#
# Convention : Reuss Voigt Hill
#
# Bulk Modulus (GPa) = 70.69794 84.14364 77.42079
# Shear Modulus (GPa) = 18.92301 44.40734 31.66518
#
# Velocity S-wave (km/s) = 2.68959 4.12020 3.47922
# Velocity P-wave (km/s) = 6.05571 7.40279 6.76287
#
# Compressibility (1/GPa) = 0.01414468
#
# Stress axis : x y z
#
# Youngs Moduli (GPa) = 72.11297 196.65926 170.48456
#
# Poissons Ratio (x) = 0.39493 0.44172
# Poissons Ratio (y) = 0.14482 0.12570
# Poissons Ratio (z) = 0.18684 0.14500
#
# Static dielectric constant tensor:
#      x y z
#    x 2.035960 0.000000 0.000000 
#    y 0.000000 1.999670 0.000000 
#    z 0.000000 0.000000 2.136540 
# 
# From -- ./inp_files/9141.got.cif
#   From: 2010.05.17/outbox.cif.g08.bks.cpg/sg60_5_cif.got.tgz:9141.got - 2010.06.03 14:59:27.
