data_PCOD9457655
_publ_section_title
;
Structure prediction by ZEFSAII (Michael W. Deem and Ramdas Pophale) SiO2 
 PCOD9457655
Probable space group: P B C N
;
_chemical_formula_sum "Si O2"
_cell_formula_units_Z 64
_cell_length_a 17.619548
_cell_length_b 15.140689
_cell_length_c 11.607299
_cell_angle_alpha 90.000000
_cell_angle_beta 90.000000
_cell_angle_gamma 90.000000
_cell_volume 3096.503490
_symmetry_space_group_name_H-M "P B C N"
_symmetry_group_IT_number 60
_symmetry_cell_setting 'orthorhombic'
loop_
_space_group_symop_operation_xyz
x,y,z
1/2-x,1/2-y,1/2+z
1/2+x,1/2-y,-z
-x,y,1/2-z
-x,-y,-z
1/2+x,1/2+y,1/2-z
1/2-x,1/2+y,z
x,-y,1/2+z
loop_
_atom_site_type_symbol
_atom_site_label
_atom_site_fract_x
_atom_site_fract_y
_atom_site_fract_z
Si Si1 0.298139 0.603309 0.649170
Si Si2 0.873302 0.762451 0.696324
Si Si3 0.572591 0.194918 0.114041
Si Si4 0.121192 0.613846 0.619795
Si Si5 0.217147 0.818645 0.390449
Si Si6 0.200244 0.903327 0.641359
Si Si7 0.625548 0.088256 0.324985
Si Si8 0.581871 0.257506 0.452224
O O1 0.213141 0.620956 0.600285
O O2 0.288853 0.610814 0.787232
O O3 0.323937 0.504293 0.621679
O O4 0.356972 0.676122 0.603414
O O5 0.896966 0.680302 0.775996
O O6 0.794217 0.733994 0.635160
O O7 0.854652 0.844869 0.779030
O O8 0.926879 0.778568 0.587276
O O9 0.646553 0.254507 0.124908
O O10 0.580115 0.125054 0.216268
O O11 0.498951 0.256831 0.110973
O O12 0.577496 0.144559 0.993008
O O13 0.105755 0.512094 0.647343
O O14 0.211902 0.858158 0.517434
O O15 0.284067 0.907411 0.698207
O O16 0.609466 0.156784 0.428737
#
# Coordination Sequence:
#
# PCOD9457655 Si02
#       8
#     8   8   8   8   8   8   8   8
#     4  10  24  40  68  99 129 168 224 280 331 394
#     4  11  22  41  66  94 130 168 220 281 330 395
#     4  12  24  42  66  89 137 181 214 267 339 412
#     4  10  24  41  65  98 128 169 221 280 334 395
#     4  11  21  42  68  92 127 171 219 272 331 391
#     4  11  22  40  72 101 126 167 226 287 330 386
#     4  11  23  40  66  98 127 168 224 274 337 400
#     4  12  25  42  62  94 133 177 217 267 335 407
#
# _framework density 20.668472999999999
#
# number of rings (size 3 to 8) (size 9 to 14) (size 15 to 20)
#    0.000    1.000    5.000    1.875    3.500    3.000 
#    2.250    0.625    2.750    0.000    0.000    0.000 
#    0.000    0.000    0.000    0.000    0.000    0.000 
#
# Total GULP energy -357821.863530 kJ/mol
# GULP energy per Si atom -5590.966618 kJ/mol
# Density = 2.062143 g / cm^3
# Si number density = 20.668473 Si / 1000 Ang^3
#
#
#
# Elastic Constant Matrix: (Units=GPa)
#
#
# Indices 1 2 3 4 5 6 
#
# 1 56.4580 23.1709 19.9951 0.0000 0.0000 0.0000
# 2 23.1709 85.4143 30.3633 0.0000 0.0000 0.0000
# 3 19.9951 30.3633 104.4412 0.0000 0.0000 0.0000
# 4 0.0000 0.0000 0.0000 25.1623 0.0000 0.0000
# 5 0.0000 0.0000 0.0000 0.0000 20.3461 0.0000
# 6 0.0000 0.0000 0.0000 0.0000 0.0000 14.0531
#
#
#
# Elastic Compliance Matrix: (Units=1/GPa)
#
#
# Indices 1 2 3 4 5 6 
#
# 1 0.020536 -0.004654 -0.002578 0.000000 0.000000 0.000000
# 2 -0.004654 0.014112 -0.003212 0.000000 0.000000 0.000000
# 3 -0.002578 -0.003212 0.011002 0.000000 0.000000 0.000000
# 4 0.000000 0.000000 0.000000 0.039742 0.000000 0.000000
# 5 0.000000 0.000000 0.000000 0.000000 0.049149 0.000000
# 6 0.000000 0.000000 0.000000 0.000000 0.000000 0.071158
#
#
# Mechanical properties :
#
#
# Convention : Reuss Voigt Hill
#
# Bulk Modulus (GPa) = 40.38597 43.70801 42.04699
# Shear Modulus (GPa) = 21.29095 23.43127 22.36111
#
# Velocity S-wave (km/s) = 3.21303 3.37066 3.29278
# Velocity P-wave (km/s) = 5.77469 6.02839 5.90290
#
# Compressibility (1/GPa) = 0.02476108
#
# Stress axis : x y z
#
# Youngs Moduli (GPa) = 48.69593 70.86221 90.89197
#
# Poissons Ratio (x) = 0.32981 0.23436
# Poissons Ratio (y) = 0.22664 0.29191
# Poissons Ratio (z) = 0.12556 0.22758
#
# Static dielectric constant tensor:
#      x y z
#    x 1.770760 0.000000 0.000000 
#    y 0.000000 1.709660 0.000000 
#    z 0.000000 0.000000 1.772380 
# 
# From -- ./inp_files/12527.got.cif
#   From: 2010.05.17/outbox.cif.g08.bks.cpg/sg60_7_cif.got.tgz:12527.got - 2010.06.03 14:59:27.
