data_PCOD9457136
_publ_section_title
;
Structure prediction by ZEFSAII (Michael W. Deem and Ramdas Pophale) SiO2 
 PCOD9457136
Probable space group: P B C N
;
_chemical_formula_sum "Si O2"
_cell_formula_units_Z 60
_cell_length_a 22.500204
_cell_length_b 11.735572
_cell_length_c 8.481046
_cell_angle_alpha 90.000000
_cell_angle_beta 90.000000
_cell_angle_gamma 90.000000
_cell_volume 2239.443638
_symmetry_space_group_name_H-M "P B C N"
_symmetry_group_IT_number 60
_symmetry_cell_setting 'orthorhombic'
loop_
_space_group_symop_operation_xyz
x,y,z
1/2-x,1/2-y,1/2+z
1/2+x,1/2-y,-z
-x,y,1/2-z
-x,-y,-z
1/2+x,1/2+y,1/2-z
1/2-x,1/2+y,z
x,-y,1/2+z
loop_
_atom_site_type_symbol
_atom_site_label
_atom_site_fract_x
_atom_site_fract_y
_atom_site_fract_z
Si Si1 0.500000 0.858102 0.250000
Si Si2 0.958541 0.393477 0.904313
Si Si3 0.782648 0.198798 0.161816
Si Si4 0.852854 0.457285 0.490019
Si Si5 0.609812 0.733600 0.400541
Si Si6 0.269333 0.943698 0.284648
Si Si7 0.112867 0.836914 0.050798
Si Si8 0.569558 0.526648 0.259202
O O1 0.558957 0.788313 0.290557
O O2 0.514339 0.911871 0.079884
O O3 0.903521 0.479837 0.891302
O O4 0.929905 0.268124 0.916406
O O5 0.000000 0.394929 0.750000
O O6 0.829519 0.218108 0.304210
O O7 0.744990 0.318404 0.164561
O O8 0.759821 0.069108 0.190798
O O9 0.821349 0.199131 0.001472
O O10 0.877021 0.330698 0.530547
O O11 0.832299 0.542880 0.623753
O O12 0.791959 0.441054 0.393653
O O13 0.582158 0.608731 0.412393
O O14 0.109805 0.918253 0.202016
O O15 0.088698 0.906549 0.897872
O O16 0.500000 0.498656 0.250000
#
# Coordination Sequence:
#
# PCOD9457136 Si02
#       8
#     4   8   8   8   8   8   8   8
#     4  12  22  48  76 104 172 208 254 346 402 480
#     4  12  26  46  78 117 157 218 272 326 415 510
#     4  10  23  48  74 108 151 204 263 343 413 487
#     4  11  26  49  70 112 151 196 268 336 397 505
#     4  10  22  43  71 104 148 203 252 323 409 472
#     4  11  25  48  77 103 157 200 266 344 413 477
#     4  11  23  44  66 105 155 191 272 330 395 495
#     4  11  21  39  66  97 150 203 245 323 390 476
#
# _framework density 26.792369000000001
#
# number of rings (size 3 to 8) (size 9 to 14) (size 15 to 20)
#    0.000    1.067    4.667    1.600    2.800    6.933 
#    4.800    0.000    0.000    0.000    0.000    0.000 
#    0.000    0.000    0.000    0.000    0.000    0.000 
#
# Total GULP energy -335229.895053 kJ/mol
# GULP energy per Si atom -5587.164918 kJ/mol
# Density = 2.673139 g / cm^3
# Si number density = 26.792369 Si / 1000 Ang^3
#
#
#
# Elastic Constant Matrix: (Units=GPa)
#
#
# Indices 1 2 3 4 5 6 
#
# 1 79.5772 55.9592 43.3852 0.0000 0.0000 0.0000
# 2 55.9592 209.5423 55.0997 0.0000 0.0000 0.0000
# 3 43.3852 55.0997 80.9854 0.0000 0.0000 0.0000
# 4 0.0000 0.0000 0.0000 48.1251 0.0000 0.0000
# 5 0.0000 0.0000 0.0000 0.0000 42.5315 0.0000
# 6 0.0000 0.0000 0.0000 0.0000 0.0000 47.4960
#
#
#
# Elastic Compliance Matrix: (Units=1/GPa)
#
#
# Indices 1 2 3 4 5 6 
#
# 1 0.019131 -0.002940 -0.008248 0.000000 0.000000 0.000000
# 2 -0.002940 0.006264 -0.002687 0.000000 0.000000 0.000000
# 3 -0.008248 -0.002687 0.018595 0.000000 0.000000 0.000000
# 4 0.000000 0.000000 0.000000 0.020779 0.000000 0.000000
# 5 0.000000 0.000000 0.000000 0.000000 0.023512 0.000000
# 6 0.000000 0.000000 0.000000 0.000000 0.000000 0.021054
#
#
# Mechanical properties :
#
#
# Convention : Reuss Voigt Hill
#
# Bulk Modulus (GPa) = 61.57979 75.44367 68.51173
# Shear Modulus (GPa) = 35.08806 42.00789 38.54798
#
# Velocity S-wave (km/s) = 3.62281 3.96397 3.79722
# Velocity P-wave (km/s) = 6.36660 7.01217 6.69717
#
# Compressibility (1/GPa) = 0.01623909
#
# Stress axis : x y z
#
# Youngs Moduli (GPa) = 52.27146 159.64383 53.77878
#
# Poissons Ratio (x) = 0.46936 0.44359
# Poissons Ratio (y) = 0.15368 0.14449
# Poissons Ratio (z) = 0.43116 0.42892
#
# Static dielectric constant tensor:
#      x y z
#    x 2.094170 0.000000 0.000000 
#    y 0.000000 2.333770 0.000000 
#    z 0.000000 0.000000 1.950040 
# 
# From -- ./inp_files/12879.got.cif
#   From: 2010.05.17/outbox.cif.g08.bks.cpg/sg60_7_cif.got.tgz:12879.got - 2010.06.03 14:59:27.
