data_PCOD9457487
_publ_section_title
;
Structure prediction by ZEFSAII (Michael W. Deem and Ramdas Pophale) SiO2 
 PCOD9457487
Probable space group: P B C N
;
_chemical_formula_sum "Si O2"
_cell_formula_units_Z 40
_cell_length_a 7.861169
_cell_length_b 16.189430
_cell_length_c 12.496888
_cell_angle_alpha 90.000000
_cell_angle_beta 90.000000
_cell_angle_gamma 90.000000
_cell_volume 1590.452008
_symmetry_space_group_name_H-M "P B C N"
_symmetry_group_IT_number 60
_symmetry_cell_setting 'orthorhombic'
loop_
_space_group_symop_operation_xyz
x,y,z
1/2-x,1/2-y,1/2+z
1/2+x,1/2-y,-z
-x,y,1/2-z
-x,-y,-z
1/2+x,1/2+y,1/2-z
1/2-x,1/2+y,z
x,-y,1/2+z
loop_
_atom_site_type_symbol
_atom_site_label
_atom_site_fract_x
_atom_site_fract_y
_atom_site_fract_z
Si Si1 0.819035 0.653391 0.721097
Si Si2 0.000000 0.035638 0.750000
Si Si3 0.848558 0.393840 0.998607
Si Si4 0.192609 0.677763 0.231150
Si Si5 0.000000 0.000000 0.500000
Si Si6 0.762110 0.579889 0.051195
O O1 0.668757 0.591843 0.747774
O O2 0.808853 0.668256 0.593506
O O3 0.807237 0.741695 0.775404
O O4 0.000000 0.612880 0.750000
O O5 0.009028 0.987645 0.637030
O O6 0.743194 0.478411 0.026982
O O7 0.804836 0.368355 0.880506
O O8 0.053120 0.405902 0.000074
O O9 0.226805 0.617217 0.331061
O O10 0.000000 0.708936 0.250000
O O11 0.087600 0.097172 0.508772
#
# Coordination Sequence:
#
# PCOD9457487 Si02
#       6
#     8   4   8   8   4   8
#     4  12  26  48  74 107 149 196 246 297 378 438
#     4  12  28  50  74 114 152 192 248 314 366 448
#     4  10  23  45  74 103 145 191 239 310 370 436
#     4  10  24  46  72 105 148 193 247 305 369 445
#     4  12  26  44  74 106 150 190 250 308 374 438
#     4  10  23  43  71 106 140 191 242 302 366 435
#
# _framework density 25.150082999999999
#
# number of rings (size 3 to 8) (size 9 to 14) (size 15 to 20)
#    0.000    1.200    3.000    1.200    2.800   10.400 
#    0.000    0.000    0.000    0.000    0.000    0.000 
#    0.000    0.000    0.000    0.000    0.000    0.000 
#
# Total GULP energy -222888.637734 kJ/mol
# GULP energy per Si atom -5572.215943 kJ/mol
# Density = 2.509284 g / cm^3
# Si number density = 25.150083 Si / 1000 Ang^3
#
#
#
# Elastic Constant Matrix: (Units=GPa)
#
#
# Indices 1 2 3 4 5 6 
#
# 1 171.0949 28.4064 28.8570 0.0000 0.0000 0.0000
# 2 28.4064 46.6281 8.7839 0.0000 0.0000 0.0000
# 3 28.8570 8.7839 138.3484 0.0000 0.0000 0.0000
# 4 0.0000 0.0000 0.0000 18.1779 0.0000 0.0000
# 5 0.0000 0.0000 0.0000 0.0000 33.2731 0.0000
# 6 0.0000 0.0000 0.0000 0.0000 0.0000 -9.6786
#
#
#
# Elastic Compliance Matrix: (Units=1/GPa)
#
#
# Indices 1 2 3 4 5 6 
#
# 1 0.006678 -0.003852 -0.001148 0.000000 0.000000 0.000000
# 2 -0.003852 0.023928 -0.000716 0.000000 0.000000 0.000000
# 3 -0.001148 -0.000716 0.007513 0.000000 0.000000 0.000000
# 4 0.000000 0.000000 0.000000 0.055012 0.000000 0.000000
# 5 0.000000 0.000000 0.000000 0.000000 0.030054 0.000000
# 6 0.000000 0.000000 0.000000 0.000000 0.000000 -0.103321
#
#
# Mechanical properties :
#
#
# Convention : Reuss Voigt Hill
#
# Bulk Modulus (GPa) = 37.47180 54.24066 45.85623
# Shear Modulus (GPa) = 124.40303 27.68942 76.04622
#
# Velocity S-wave (km/s) = 7.04071 3.32168 5.50478
# Velocity P-wave (km/s) = 9.00151 6.02703 7.66003
#
# Compressibility (1/GPa) = 0.02668673
#
# Stress axis : x y z
#
# Youngs Moduli (GPa) = 149.74742 41.79243 133.10099
#
# Poissons Ratio (x) = 0.16098 0.15284
# Poissons Ratio (y) = 0.57682 0.09527
# Poissons Ratio (z) = 0.17196 0.02991
#
# Static dielectric constant tensor:
#      x y z
#    x 2.691010 0.000000 0.000000 
#    y 0.000000 1.991640 0.000000 
#    z 0.000000 0.000000 -2.532070 
# 
# From -- ./inp_files/9826.got.cif
#   From: 2010.05.17/outbox.cif.g08.bks.cpg/sg60_5_cif.got.tgz:9826.got - 2010.06.03 14:59:27.
