data_PCOD9457346
_publ_section_title
;
Structure prediction by ZEFSAII (Michael W. Deem and Ramdas Pophale) SiO2 
 PCOD9457346
Probable space group: P B C N
;
_chemical_formula_sum "Si O2"
_cell_formula_units_Z 40
_cell_length_a 23.326433
_cell_length_b 13.384197
_cell_length_c 5.107891
_cell_angle_alpha 90.000000
_cell_angle_beta 90.000000
_cell_angle_gamma 90.000000
_cell_volume 1594.712045
_symmetry_space_group_name_H-M "P B C N"
_symmetry_group_IT_number 60
_symmetry_cell_setting 'orthorhombic'
loop_
_space_group_symop_operation_xyz
x,y,z
1/2-x,1/2-y,1/2+z
1/2+x,1/2-y,-z
-x,y,1/2-z
-x,-y,-z
1/2+x,1/2+y,1/2-z
1/2-x,1/2+y,z
x,-y,1/2+z
loop_
_atom_site_type_symbol
_atom_site_label
_atom_site_fract_x
_atom_site_fract_y
_atom_site_fract_z
Si Si1 0.622185 0.218145 0.770770
Si Si2 0.068535 0.068975 0.273190
Si Si3 0.787250 0.560113 0.517684
Si Si4 0.561899 0.041521 0.589528
Si Si5 0.285424 0.280200 0.368953
O O1 0.604639 0.329184 0.682184
O O2 0.666966 0.142596 0.623545
O O3 0.566702 0.148396 0.727330
O O4 0.652756 0.238743 0.050752
O O5 0.000000 0.094759 0.250000
O O6 0.079843 0.991127 0.506181
O O7 0.792198 0.467911 0.715649
O O8 0.723738 0.604332 0.563783
O O9 0.500000 0.000000 0.500000
O O10 0.589258 0.966610 0.801335
O O11 0.259017 0.267323 0.082463
#
# Coordination Sequence:
#
# PCOD9457346 Si02
#       5
#     8   8   8   8   8
#     4  11  24  43  74 100 142 190 239 295 367 440
#     4  10  25  47  67  98 134 180 243 302 352 412
#     4  11  23  41  65 101 144 178 224 290 355 431
#     4  10  23  41  62 102 141 178 228 280 359 440
#     4  10  23  41  62  96 135 184 236 281 344 419
#
# _framework density 25.082896999999999
#
# number of rings (size 3 to 8) (size 9 to 14) (size 15 to 20)
#    0.000    1.600    0.000    3.600    2.800   11.200 
#    7.200    0.000    0.000    0.000    0.000    0.000 
#    0.000    0.000    0.000    0.000    0.000    0.000 
#
# Total GULP energy -222775.566911 kJ/mol
# GULP energy per Si atom -5569.389173 kJ/mol
# Density = 2.502581 g / cm^3
# Si number density = 25.082897 Si / 1000 Ang^3
#
#
#
# Elastic Constant Matrix: (Units=GPa)
#
#
# Indices 1 2 3 4 5 6 
#
# 1 36.4944 30.8574 22.4239 0.0000 0.0000 0.0000
# 2 30.8574 137.6283 35.8389 0.0000 0.0000 0.0000
# 3 22.4239 35.8389 119.0459 0.0000 0.0000 0.0000
# 4 0.0000 0.0000 0.0000 44.5938 0.0000 0.0000
# 5 0.0000 0.0000 0.0000 0.0000 25.4864 0.0000
# 6 0.0000 0.0000 0.0000 0.0000 0.0000 59.0722
#
#
#
# Elastic Compliance Matrix: (Units=1/GPa)
#
#
# Indices 1 2 3 4 5 6 
#
# 1 0.036115 -0.006864 -0.004736 0.000000 0.000000 0.000000
# 2 -0.006864 0.009189 -0.001473 0.000000 0.000000 0.000000
# 3 -0.004736 -0.001473 0.009736 0.000000 0.000000 0.000000
# 4 0.000000 0.000000 0.000000 0.022425 0.000000 0.000000
# 5 0.000000 0.000000 0.000000 0.000000 0.039237 0.000000
# 6 0.000000 0.000000 0.000000 0.000000 0.000000 0.016928
#
#
# Mechanical properties :
#
#
# Convention : Reuss Voigt Hill
#
# Bulk Modulus (GPa) = 34.61114 52.37877 43.49496
# Shear Modulus (GPa) = 29.51458 39.43372 34.47415
#
# Velocity S-wave (km/s) = 3.43400 3.96932 3.71132
# Velocity P-wave (km/s) = 5.43616 6.47572 5.97858
#
# Compressibility (1/GPa) = 0.02889243
#
# Stress axis : x y z
#
# Youngs Moduli (GPa) = 27.68897 108.83087 102.71343
#
# Poissons Ratio (x) = 0.74702 0.48649
# Poissons Ratio (y) = 0.19006 0.15133
# Poissons Ratio (z) = 0.13115 0.16034
#
# Static dielectric constant tensor:
#      x y z
#    x 2.824910 0.000000 0.000000 
#    y 0.000000 2.095360 0.000000 
#    z 0.000000 0.000000 2.042910 
# 
# From -- ./inp_files/2512.got.cif
#   From: 2010.05.17/outbox.cif.g08.bks.cpg/sg60_2_cif.got.tgz:2512.got - 2010.06.03 14:59:27.
