data_PCOD9457398
_publ_section_title
;
Structure prediction by ZEFSAII (Michael W. Deem and Ramdas Pophale) SiO2 
 PCOD9457398
Probable space group: P B C N
;
_chemical_formula_sum "Si O2"
_cell_formula_units_Z 28
_cell_length_a 7.393532
_cell_length_b 17.174852
_cell_length_c 8.132195
_cell_angle_alpha 90.000000
_cell_angle_beta 90.000000
_cell_angle_gamma 90.000000
_cell_volume 1032.649036
_symmetry_space_group_name_H-M "P B C N"
_symmetry_group_IT_number 60
_symmetry_cell_setting 'orthorhombic'
loop_
_space_group_symop_operation_xyz
x,y,z
1/2-x,1/2-y,1/2+z
1/2+x,1/2-y,-z
-x,y,1/2-z
-x,-y,-z
1/2+x,1/2+y,1/2-z
1/2-x,1/2+y,z
x,-y,1/2+z
loop_
_atom_site_type_symbol
_atom_site_label
_atom_site_fract_x
_atom_site_fract_y
_atom_site_fract_z
Si Si1 0.507664 0.858522 0.582572
Si Si2 0.194620 0.913985 0.088228
Si Si3 0.500000 0.553978 0.250000
Si Si4 0.793714 0.278050 0.174561
O O1 0.500000 0.903775 0.750000
O O2 0.595273 0.914490 0.452408
O O3 0.335929 0.819410 0.500126
O O4 0.655730 0.791341 0.631778
O O5 0.191084 0.839058 0.207482
O O6 0.142474 0.993049 0.175468
O O7 0.081547 0.905958 0.915504
O O8 0.000000 0.261622 0.250000
#
# Coordination Sequence:
#
# PCOD9457398 Si02
#       4
#     8   8   4   8
#     4  11  23  41  68 106 144 189 236 310 377 432
#     4  10  24  44  69 103 140 185 257 282 367 438
#     4  10  24  48  74 102 140 210 232 308 348 466
#     4  10  23  42  67 108 147 190 238 311 371 445
#
# _framework density 27.114730999999999
#
# number of rings (size 3 to 8) (size 9 to 14) (size 15 to 20)
#    0.000    1.714    0.000    3.429    8.000    4.571 
#    0.000   18.571    0.000    0.000    0.000    0.000 
#    0.000    0.000    0.000    0.000    0.000    0.000 
#
# Total GULP energy -156432.463609 kJ/mol
# GULP energy per Si atom -5586.873700 kJ/mol
# Density = 2.705302 g / cm^3
# Si number density = 27.114731 Si / 1000 Ang^3
#
#
#
# Elastic Constant Matrix: (Units=GPa)
#
#
# Indices 1 2 3 4 5 6 
#
# 1 97.1252 57.0979 34.8270 0.0000 0.0000 0.0000
# 2 57.0979 104.9753 49.0935 0.0000 0.0000 0.0000
# 3 34.8270 49.0935 171.2544 0.0000 0.0000 0.0000
# 4 0.0000 0.0000 0.0000 45.0209 0.0000 0.0000
# 5 0.0000 0.0000 0.0000 0.0000 46.6689 0.0000
# 6 0.0000 0.0000 0.0000 0.0000 0.0000 62.9279
#
#
#
# Elastic Compliance Matrix: (Units=1/GPa)
#
#
# Indices 1 2 3 4 5 6 
#
# 1 0.015238 -0.007898 -0.000835 0.000000 0.000000 0.000000
# 2 -0.007898 0.015094 -0.002721 0.000000 0.000000 0.000000
# 3 -0.000835 -0.002721 0.006789 0.000000 0.000000 0.000000
# 4 0.000000 0.000000 0.000000 0.022212 0.000000 0.000000
# 5 0.000000 0.000000 0.000000 0.000000 0.021428 0.000000
# 6 0.000000 0.000000 0.000000 0.000000 0.000000 0.015891
#
#
# Mechanical properties :
#
#
# Convention : Reuss Voigt Hill
#
# Bulk Modulus (GPa) = 70.35162 72.82130 71.58646
# Shear Modulus (GPa) = 40.22582 46.41264 43.31923
#
# Velocity S-wave (km/s) = 3.85586 4.14177 4.00137
# Velocity P-wave (km/s) = 6.76947 7.05602 6.91423
#
# Compressibility (1/GPa) = 0.01421431
#
# Stress axis : x y z
#
# Youngs Moduli (GPa) = 65.62357 66.24958 147.29594
#
# Poissons Ratio (x) = 0.52324 0.12297
# Poissons Ratio (y) = 0.51830 0.40078
# Poissons Ratio (z) = 0.05478 0.18026
#
# Static dielectric constant tensor:
#      x y z
#    x 2.457670 0.000000 0.000000 
#    y 0.000000 2.076810 0.000000 
#    z 0.000000 0.000000 2.829200 
# 
# From -- ./inp_files/3449.got.cif
#   From: 2010.05.17/outbox.cif.g08.bks.cpg/sg60_2_cif.got.tgz:3449.got - 2010.06.03 14:59:27.
