data_PCOD9457924
_publ_section_title
;
Structure prediction by ZEFSAII (Michael W. Deem and Ramdas Pophale) SiO2 
 PCOD9457924
Probable space group: P B C N
;
_chemical_formula_sum "Si O2"
_cell_formula_units_Z 40
_cell_length_a 8.734121
_cell_length_b 10.374504
_cell_length_c 18.596120
_cell_angle_alpha 90.000000
_cell_angle_beta 90.000000
_cell_angle_gamma 90.000000
_cell_volume 1685.034847
_symmetry_space_group_name_H-M "P B C N"
_symmetry_group_IT_number 60
_symmetry_cell_setting 'orthorhombic'
loop_
_space_group_symop_operation_xyz
x,y,z
1/2-x,1/2-y,1/2+z
1/2+x,1/2-y,-z
-x,y,1/2-z
-x,-y,-z
1/2+x,1/2+y,1/2-z
1/2-x,1/2+y,z
x,-y,1/2+z
loop_
_atom_site_type_symbol
_atom_site_label
_atom_site_fract_x
_atom_site_fract_y
_atom_site_fract_z
Si Si1 0.575903 0.651169 0.429434
Si Si2 0.931069 0.367056 0.170532
Si Si3 0.103354 0.889495 0.407228
Si Si4 0.365939 0.343869 0.203773
Si Si5 0.156518 0.573114 0.172976
O O1 0.520588 0.777069 0.386875
O O2 0.613325 0.667848 0.513049
O O3 0.445993 0.540249 0.417163
O O4 0.733818 0.602849 0.393726
O O5 0.753070 0.365059 0.142803
O O6 0.000000 0.322105 0.250000
O O7 0.988771 0.515486 0.160499
O O8 0.950409 0.828241 0.372420
O O9 0.500000 0.403347 0.250000
O O10 0.236706 0.448108 0.206432
O O11 0.330748 0.197613 0.223422
#
# Coordination Sequence:
#
# PCOD9457924 Si02
#       5
#     8   8   8   8   8
#     4  10  25  48  70 104 151 192 251 309 379 453
#     4  12  26  43  75 109 142 193 255 310 377 454
#     4  10  26  45  72 107 143 197 248 312 377 450
#     4  11  24  46  71 102 149 187 246 306 374 446
#     4  11  24  46  70 101 144 196 238 307 373 441
#
# _framework density 23.738382000000001
#
# number of rings (size 3 to 8) (size 9 to 14) (size 15 to 20)
#    0.000    1.200    2.000    1.800    5.600    7.200 
#    0.000    0.000    0.000    0.000    0.000    0.000 
#    0.000    0.000    0.000    0.000    0.000    0.000 
#
# Total GULP energy -223066.106940 kJ/mol
# GULP energy per Si atom -5576.652674 kJ/mol
# Density = 2.368435 g / cm^3
# Si number density = 23.738382 Si / 1000 Ang^3
#
#
#
# Elastic Constant Matrix: (Units=GPa)
#
#
# Indices 1 2 3 4 5 6 
#
# 1 125.1455 37.0287 35.4931 0.0000 0.0000 0.0000
# 2 37.0287 102.9031 7.6756 0.0000 0.0000 0.0000
# 3 35.4931 7.6756 119.6191 0.0000 0.0000 0.0000
# 4 0.0000 0.0000 0.0000 29.6518 0.0000 0.0000
# 5 0.0000 0.0000 0.0000 0.0000 21.4166 0.0000
# 6 0.0000 0.0000 0.0000 0.0000 0.0000 36.1457
#
#
#
# Elastic Compliance Matrix: (Units=1/GPa)
#
#
# Indices 1 2 3 4 5 6 
#
# 1 0.009726 -0.003300 -0.002674 0.000000 0.000000 0.000000
# 2 -0.003300 0.010884 0.000281 0.000000 0.000000 0.000000
# 3 -0.002674 0.000281 0.009135 0.000000 0.000000 0.000000
# 4 0.000000 0.000000 0.000000 0.033725 0.000000 0.000000
# 5 0.000000 0.000000 0.000000 0.000000 0.046693 0.000000
# 6 0.000000 0.000000 0.000000 0.000000 0.000000 0.027666
#
#
# Mechanical properties :
#
#
# Convention : Reuss Voigt Hill
#
# Bulk Modulus (GPa) = 54.47053 56.45140 55.46097
# Shear Modulus (GPa) = 32.18854 35.27418 33.73136
#
# Velocity S-wave (km/s) = 3.68634 3.85899 3.77366
# Velocity P-wave (km/s) = 6.41209 6.60969 6.51164
#
# Compressibility (1/GPa) = 0.01835855
#
# Stress axis : x y z
#
# Youngs Moduli (GPa) = 102.82185 91.87394 109.46584
#
# Poissons Ratio (x) = 0.30320 0.29271
# Poissons Ratio (y) = 0.33933 -0.03074
# Poissons Ratio (z) = 0.27494 -0.02580
#
# Static dielectric constant tensor:
#      x y z
#    x 2.012740 0.000000 0.000000 
#    y 0.000000 1.928530 0.000000 
#    z 0.000000 0.000000 1.987030 
# 
# From -- ./inp_files/21993.got.cif
#   From: 2010.05.17/outbox.cif.g08.bks.cpg/sg60_11_cif.got.tgz:21993.got - 2010.06.03 14:59:27.
