data_PCOD9457061
_publ_section_title
;
Structure prediction by ZEFSAII (Michael W. Deem and Ramdas Pophale) SiO2 
 PCOD9457061
Probable space group: P B C N
;
_chemical_formula_sum "Si O2"
_cell_formula_units_Z 40
_cell_length_a 10.899351
_cell_length_b 9.696215
_cell_length_c 15.706831
_cell_angle_alpha 90.000000
_cell_angle_beta 90.000000
_cell_angle_gamma 90.000000
_cell_volume 1659.936392
_symmetry_space_group_name_H-M "P B C N"
_symmetry_group_IT_number 60
_symmetry_cell_setting 'orthorhombic'
loop_
_space_group_symop_operation_xyz
x,y,z
1/2-x,1/2-y,1/2+z
1/2+x,1/2-y,-z
-x,y,1/2-z
-x,-y,-z
1/2+x,1/2+y,1/2-z
1/2-x,1/2+y,z
x,-y,1/2+z
loop_
_atom_site_type_symbol
_atom_site_label
_atom_site_fract_x
_atom_site_fract_y
_atom_site_fract_z
Si Si1 0.245584 0.563360 0.741201
Si Si2 0.547917 0.365784 0.837269
Si Si3 0.615604 0.186367 0.308742
Si Si4 0.704396 0.452478 0.579115
Si Si5 0.739218 0.290579 0.965669
O O1 0.365985 0.490611 0.697710
O O2 0.139218 0.477485 0.695048
O O3 0.274778 0.724696 0.735789
O O4 0.232323 0.517506 0.838521
O O5 0.500000 0.296253 0.750000
O O6 0.434330 0.425811 0.890386
O O7 0.626123 0.271648 0.900973
O O8 0.500000 0.219663 0.250000
O O9 0.637358 0.224736 0.407964
O O10 0.759748 0.311197 0.544590
O O11 0.719948 0.557321 0.501702
#
# Coordination Sequence:
#
# PCOD9457061 Si02
#       5
#     8   8   8   8   8
#     4  10  22  42  69  97 128 176 225 261 326 413
#     4   9  20  40  65  88 124 178 218 256 325 401
#     4  11  23  44  66  92 134 180 220 270 329 396
#     4  11  22  39  62  93 128 161 212 279 328 379
#     4  11  23  39  63  98 127 161 219 276 323 385
#
# _framework density 24.097311000000001
#
# number of rings (size 3 to 8) (size 9 to 14) (size 15 to 20)
#    0.000    1.600    0.000    6.000    0.000    3.200 
#    0.000   24.000    0.000    0.000    0.000    0.000 
#    0.000    0.000    0.000    0.000    0.000    0.000 
#
# Total GULP energy -223372.521693 kJ/mol
# GULP energy per Si atom -5584.313042 kJ/mol
# Density = 2.404246 g / cm^3
# Si number density = 24.097311 Si / 1000 Ang^3
#
#
#
# Elastic Constant Matrix: (Units=GPa)
#
#
# Indices 1 2 3 4 5 6 
#
# 1 26.4086 1.8351 11.3763 0.0000 0.0000 0.0000
# 2 1.8351 85.8994 9.8419 0.0000 0.0000 0.0000
# 3 11.3763 9.8419 118.3220 0.0000 0.0000 0.0000
# 4 0.0000 0.0000 0.0000 45.1476 0.0000 0.0000
# 5 0.0000 0.0000 0.0000 0.0000 51.4090 0.0000
# 6 0.0000 0.0000 0.0000 0.0000 0.0000 13.6276
#
#
#
# Elastic Compliance Matrix: (Units=1/GPa)
#
#
# Indices 1 2 3 4 5 6 
#
# 1 0.039517 -0.000413 -0.003765 0.000000 0.000000 0.000000
# 2 -0.000413 0.011758 -0.000938 0.000000 0.000000 0.000000
# 3 -0.003765 -0.000938 0.008892 0.000000 0.000000 0.000000
# 4 0.000000 0.000000 0.000000 0.022150 0.000000 0.000000
# 5 0.000000 0.000000 0.000000 0.000000 0.019452 0.000000
# 6 0.000000 0.000000 0.000000 0.000000 0.000000 0.073380
#
#
# Mechanical properties :
#
#
# Convention : Reuss Voigt Hill
#
# Bulk Modulus (GPa) = 20.02643 30.74849 25.38746
# Shear Modulus (GPa) = 24.74938 35.87530 30.31234
#
# Velocity S-wave (km/s) = 3.20825 3.86264 3.55056
# Velocity P-wave (km/s) = 4.69601 5.71674 5.23133
#
# Compressibility (1/GPa) = 0.04993402
#
# Stress axis : x y z
#
# Youngs Moduli (GPa) = 25.30554 85.04952 112.46618
#
# Poissons Ratio (x) = 0.03511 0.42345
# Poissons Ratio (y) = 0.01045 0.10553
# Poissons Ratio (z) = 0.09528 0.07980
#
# Static dielectric constant tensor:
#      x y z
#    x 1.987820 0.000000 0.000000 
#    y 0.000000 1.934190 0.000000 
#    z 0.000000 0.000000 1.929140 
# 
# From -- ./inp_files/15839.got.cif
#   From: 2010.05.17/outbox.cif.g08.bks.cpg/sg60_8_cif.got.tgz:15839.got - 2010.06.03 14:59:27.
