data_PCOD9457290
_publ_section_title
;
Structure prediction by ZEFSAII (Michael W. Deem and Ramdas Pophale) SiO2 
 PCOD9457290
Probable space group: P B C N
;
_chemical_formula_sum "Si O2"
_cell_formula_units_Z 56
_cell_length_a 20.640007
_cell_length_b 13.555296
_cell_length_c 8.843384
_cell_angle_alpha 90.000000
_cell_angle_beta 90.000000
_cell_angle_gamma 90.000000
_cell_volume 2474.214395
_symmetry_space_group_name_H-M "P B C N"
_symmetry_group_IT_number 60
_symmetry_cell_setting 'orthorhombic'
loop_
_space_group_symop_operation_xyz
x,y,z
1/2-x,1/2-y,1/2+z
1/2+x,1/2-y,-z
-x,y,1/2-z
-x,-y,-z
1/2+x,1/2+y,1/2-z
1/2-x,1/2+y,z
x,-y,1/2+z
loop_
_atom_site_type_symbol
_atom_site_label
_atom_site_fract_x
_atom_site_fract_y
_atom_site_fract_z
Si Si1 0.321005 0.143636 0.977089
Si Si2 0.233857 0.206854 0.246187
Si Si3 0.905776 0.112047 0.302975
Si Si4 0.047699 0.183236 0.885812
Si Si5 0.037503 0.288906 0.393895
Si Si6 0.842752 0.083358 0.727706
Si Si7 0.244867 0.041732 0.488205
O O1 0.285864 0.201727 0.113259
O O2 0.286894 0.191402 0.827202
O O3 0.396924 0.161798 0.952802
O O4 0.306221 0.028763 0.011506
O O5 0.166425 0.159218 0.185965
O O6 0.257445 0.131570 0.376165
O O7 0.940160 0.116502 0.465237
O O8 0.938453 0.182476 0.176291
O O9 0.897913 0.999354 0.257064
O O10 0.119489 0.183101 0.812593
O O11 0.000000 0.155688 0.750000
O O12 0.013229 0.274954 0.969656
O O13 0.000000 0.335467 0.250000
O O14 0.803612 0.035312 0.591555
O O15 0.795204 0.079824 0.869535
#
# Coordination Sequence:
#
# PCOD9457290 Si02
#       7
#     8   8   8   8   8   8   8
#     4  11  22  40  67  93 133 178 217 280 341 405
#     4  10  23  37  64  94 126 167 217 275 342 407
#     4   9  19  39  50  80 125 164 209 262 322 395
#     4  11  23  32  55  84 123 175 216 255 317 406
#     4   9  22  40  58  84 127 172 226 266 324 394
#     4  11  21  36  59  84 132 164 208 263 331 405
#     4  11  22  41  62  95 129 169 215 276 340 404
#
# _framework density 22.633445999999999
#
# number of rings (size 3 to 8) (size 9 to 14) (size 15 to 20)
#    0.000    1.714    4.286    0.000    8.000    4.000 
#    0.000    0.000    0.000    0.857    0.000    0.000 
#    0.000    0.000    0.000    0.000    0.000    0.000 
#
# Total GULP energy -312441.647108 kJ/mol
# GULP energy per Si atom -5579.315127 kJ/mol
# Density = 2.258193 g / cm^3
# Si number density = 22.633446 Si / 1000 Ang^3
#
#
#
# Elastic Constant Matrix: (Units=GPa)
#
#
# Indices 1 2 3 4 5 6 
#
# 1 127.9135 30.8126 64.2305 0.0000 0.0000 0.0000
# 2 30.8126 45.9962 14.6599 0.0000 0.0000 0.0000
# 3 64.2305 14.6599 126.9086 0.0000 0.0000 0.0000
# 4 0.0000 0.0000 0.0000 21.8891 0.0000 0.0000
# 5 0.0000 0.0000 0.0000 0.0000 46.5357 0.0000
# 6 0.0000 0.0000 0.0000 0.0000 0.0000 27.4570
#
#
#
# Elastic Compliance Matrix: (Units=1/GPa)
#
#
# Indices 1 2 3 4 5 6 
#
# 1 0.012040 -0.006358 -0.005359 0.000000 0.000000 0.000000
# 2 -0.006358 0.025929 0.000223 0.000000 0.000000 0.000000
# 3 -0.005359 0.000223 0.010567 0.000000 0.000000 0.000000
# 4 0.000000 0.000000 0.000000 0.045685 0.000000 0.000000
# 5 0.000000 0.000000 0.000000 0.000000 0.021489 0.000000
# 6 0.000000 0.000000 0.000000 0.000000 0.000000 0.036421
#
#
# Mechanical properties :
#
#
# Convention : Reuss Voigt Hill
#
# Bulk Modulus (GPa) = 39.14396 57.80268 48.47332
# Shear Modulus (GPa) = 27.22791 31.91737 29.57264
#
# Velocity S-wave (km/s) = 3.47218 3.75932 3.61860
# Velocity P-wave (km/s) = 5.77988 6.66613 6.23877
#
# Compressibility (1/GPa) = 0.02554673
#
# Stress axis : x y z
#
# Youngs Moduli (GPa) = 83.05325 38.56687 94.63871
#
# Poissons Ratio (x) = 0.24520 0.50721
# Poissons Ratio (y) = 0.52803 -0.02106
# Poissons Ratio (z) = 0.44512 -0.00858
#
# Static dielectric constant tensor:
#      x y z
#    x 1.906070 0.000000 0.000000 
#    y 0.000000 1.866180 0.000000 
#    z 0.000000 0.000000 1.866380 
# 
# From -- ./inp_files/7438.got.cif
#   From: 2010.05.17/outbox.cif.g08.bks.cpg/sg60_4_cif.got.tgz:7438.got - 2010.06.03 14:59:27.
