data_PCOD9457562
_publ_section_title
;
Structure prediction by ZEFSAII (Michael W. Deem and Ramdas Pophale) SiO2 
 PCOD9457562
Probable space group: P B C N
;
_chemical_formula_sum "Si O2"
_cell_formula_units_Z 24
_cell_length_a 7.372653
_cell_length_b 28.011973
_cell_length_c 5.690570
_cell_angle_alpha 90.000000
_cell_angle_beta 90.000000
_cell_angle_gamma 90.000000
_cell_volume 1175.231066
_symmetry_space_group_name_H-M "P B C N"
_symmetry_group_IT_number 60
_symmetry_cell_setting 'orthorhombic'
loop_
_space_group_symop_operation_xyz
x,y,z
1/2-x,1/2-y,1/2+z
1/2+x,1/2-y,-z
-x,y,1/2-z
-x,-y,-z
1/2+x,1/2+y,1/2-z
1/2-x,1/2+y,z
x,-y,1/2+z
loop_
_atom_site_type_symbol
_atom_site_label
_atom_site_fract_x
_atom_site_fract_y
_atom_site_fract_z
Si Si1 0.000000 0.721882 0.250000
Si Si2 0.284052 0.973440 0.268138
Si Si3 0.354747 0.694352 0.449564
Si Si4 0.000000 0.891326 0.250000
O O1 0.871202 0.759172 0.385967
O O2 0.855702 0.689965 0.113980
O O3 0.500000 0.964910 0.250000
O O4 0.166976 0.925944 0.306991
O O5 0.242031 0.004557 0.506222
O O6 0.500000 0.705794 0.250000
O O7 0.428565 0.645320 0.555323
#
# Coordination Sequence:
#
# PCOD9457562 Si02
#       4
#     4   8   8   4
#     4  11  22  44  64  88 130 176 224 270 346 403
#     4  10  23  45  72  99 139 182 222 280 351 414
#     4  11  24  40  66  94 130 173 223 281 336 404
#     4  11  26  40  66 104 130 174 228 278 340 407
#
# _framework density 20.421516
#
# number of rings (size 3 to 8) (size 9 to 14) (size 15 to 20)
#    0.000    1.333    3.333    1.000    4.667    2.667 
#    3.000    0.000    0.000    0.000    0.000    0.000 
#    0.000    0.000    0.000    0.000    0.000    0.000 
#
# Total GULP energy -133705.212956 kJ/mol
# GULP energy per Si atom -5571.050540 kJ/mol
# Density = 2.037504 g / cm^3
# Si number density = 20.421516 Si / 1000 Ang^3
#
#
#
# Elastic Constant Matrix: (Units=GPa)
#
#
# Indices 1 2 3 4 5 6 
#
# 1 126.6127 40.8916 37.1837 0.0000 0.0000 0.0000
# 2 40.8916 95.3766 36.5669 0.0000 0.0000 0.0000
# 3 37.1837 36.5669 81.7470 0.0000 0.0000 0.0000
# 4 0.0000 0.0000 0.0000 -51.9866 0.0000 0.0000
# 5 0.0000 0.0000 0.0000 0.0000 31.5301 0.0000
# 6 0.0000 0.0000 0.0000 0.0000 0.0000 -0.9772
#
#
#
# Elastic Compliance Matrix: (Units=1/GPa)
#
#
# Indices 1 2 3 4 5 6 
#
# 1 0.009780 -0.003002 -0.003105 0.000000 0.000000 0.000000
# 2 -0.003002 0.013577 -0.004708 0.000000 0.000000 0.000000
# 3 -0.003105 -0.004708 0.015751 0.000000 0.000000 0.000000
# 4 0.000000 0.000000 0.000000 -0.019236 0.000000 0.000000
# 5 0.000000 0.000000 0.000000 0.000000 0.031716 0.000000
# 6 0.000000 0.000000 0.000000 0.000000 0.000000 -1.023337
#
#
# Mechanical properties :
#
#
# Convention : Reuss Voigt Hill
#
# Bulk Modulus (GPa) = 57.21754 59.22451 58.22103
# Shear Modulus (GPa) = -5.29496 8.31953 1.51228
#
# Velocity S-wave (km/s) = -1.61198 2.02058 0.86148
# Velocity P-wave (km/s) = 4.96130 5.87432 5.43701
#
# Compressibility (1/GPa) = 0.01747716
#
# Stress axis : x y z
#
# Youngs Moduli (GPa) = 102.25194 73.65500 63.48732
#
# Poissons Ratio (x) = 0.22114 0.19716
# Poissons Ratio (y) = 0.30700 0.29887
# Poissons Ratio (z) = 0.31754 0.34673
#
# Static dielectric constant tensor:
#      x y z
#    x 1.745320 0.000000 0.000000 
#    y 0.000000 1.702690 0.000000 
#    z 0.000000 0.000000 1.643940 
# 
# From -- ./inp_files/238.got.cif
#   From: 2010.05.17/outbox.cif.g08.bks.cpg/sg60_1_cif.got.tgz:238.got - 2010.06.03 14:59:27.
