data_PCOD9457426
_publ_section_title
;
Structure prediction by ZEFSAII (Michael W. Deem and Ramdas Pophale) SiO2 
 PCOD9457426
Probable space group: P B C N
;
_chemical_formula_sum "Si O2"
_cell_formula_units_Z 40
_cell_length_a 7.292888
_cell_length_b 17.873241
_cell_length_c 15.260161
_cell_angle_alpha 90.000000
_cell_angle_beta 90.000000
_cell_angle_gamma 90.000000
_cell_volume 1989.124520
_symmetry_space_group_name_H-M "P B C N"
_symmetry_group_IT_number 60
_symmetry_cell_setting 'orthorhombic'
loop_
_space_group_symop_operation_xyz
x,y,z
1/2-x,1/2-y,1/2+z
1/2+x,1/2-y,-z
-x,y,1/2-z
-x,-y,-z
1/2+x,1/2+y,1/2-z
1/2-x,1/2+y,z
x,-y,1/2+z
loop_
_atom_site_type_symbol
_atom_site_label
_atom_site_fract_x
_atom_site_fract_y
_atom_site_fract_z
Si Si1 0.545158 0.932346 0.064837
Si Si2 0.500000 0.992344 0.750000
Si Si3 0.736566 0.173867 0.026301
Si Si4 0.888620 0.163782 0.568872
Si Si5 0.282193 0.638144 0.269340
Si Si6 0.000000 0.236640 0.750000
O O1 0.505116 0.957648 0.163423
O O2 0.754366 0.905834 0.062163
O O3 0.422846 0.864135 0.029789
O O4 0.500000 0.000000 0.000000
O O5 0.322972 0.937617 0.742864
O O6 0.708908 0.262850 0.028441
O O7 0.741449 0.147437 0.127055
O O8 0.926251 0.151200 0.983099
O O9 0.939234 0.186785 0.668147
O O10 0.500000 0.639193 0.250000
O O11 0.170217 0.707818 0.226366
#
# Coordination Sequence:
#
# PCOD9457426 Si02
#       6
#     8   4   8   8   8   4
#     4  12  27  47  69 101 142 186 233 295 349 414
#     4  11  26  46  66 100 145 178 234 288 347 424
#     4  11  24  44  72 100 136 182 231 287 352 425
#     4  11  25  43  71 102 138 180 233 289 351 413
#     4  10  23  42  73  98 138 188 227 286 361 419
#     4   9  24  42  64 108 137 178 238 290 345 430
#
# _framework density 20.109349000000002
#
# number of rings (size 3 to 8) (size 9 to 14) (size 15 to 20)
#    0.000    1.200    4.000    0.000    8.400    2.400 
#    1.800    0.000    0.000    0.000    0.000    0.000 
#    0.000    0.000    0.000    0.000    0.000    0.000 
#
# Total GULP energy -223651.697995 kJ/mol
# GULP energy per Si atom -5591.292450 kJ/mol
# Density = 2.006358 g / cm^3
# Si number density = 20.109349 Si / 1000 Ang^3
#
#
#
# Elastic Constant Matrix: (Units=GPa)
#
#
# Indices 1 2 3 4 5 6 
#
# 1 135.8745 16.0455 20.6031 0.0000 0.0000 0.0000
# 2 16.0455 50.0175 24.4058 0.0000 0.0000 0.0000
# 3 20.6031 24.4058 83.8468 0.0000 0.0000 0.0000
# 4 0.0000 0.0000 0.0000 28.0205 0.0000 0.0000
# 5 0.0000 0.0000 0.0000 0.0000 28.9734 0.0000
# 6 0.0000 0.0000 0.0000 0.0000 0.0000 -41.5589
#
#
#
# Elastic Compliance Matrix: (Units=1/GPa)
#
#
# Indices 1 2 3 4 5 6 
#
# 1 0.007785 -0.001823 -0.001382 0.000000 0.000000 0.000000
# 2 -0.001823 0.023729 -0.006459 0.000000 0.000000 0.000000
# 3 -0.001382 -0.006459 0.014146 0.000000 0.000000 0.000000
# 4 0.000000 0.000000 0.000000 0.035688 0.000000 0.000000
# 5 0.000000 0.000000 0.000000 0.000000 0.034514 0.000000
# 6 0.000000 0.000000 0.000000 0.000000 0.000000 -0.024062
#
#
# Mechanical properties :
#
#
# Convention : Reuss Voigt Hill
#
# Bulk Modulus (GPa) = 37.97686 43.53863 40.75775
# Shear Modulus (GPa) = 41.69914 16.99929 29.34921
#
# Velocity S-wave (km/s) = 4.55864 2.91063 3.82446
# Velocity P-wave (km/s) = 6.82894 5.74401 6.30984
#
# Compressibility (1/GPa) = 0.02633182
#
# Stress axis : x y z
#
# Youngs Moduli (GPa) = 128.45899 42.14168 70.68989
#
# Poissons Ratio (x) = 0.07682 0.09771
# Poissons Ratio (y) = 0.23415 0.45660
# Poissons Ratio (z) = 0.17757 0.27220
#
# Static dielectric constant tensor:
#      x y z
#    x 1.657860 0.000000 0.000000 
#    y 0.000000 1.722610 0.000000 
#    z 0.000000 0.000000 1.631650 
# 
# From -- ./inp_files/18561.got.cif
#   From: 2010.05.17/outbox.cif.g08.bks.cpg/sg60_10_cif.got.tgz:18561.got - 2010.06.03 14:59:27.
