data_PCOD9457388
_publ_section_title
;
Structure prediction by ZEFSAII (Michael W. Deem and Ramdas Pophale) SiO2 
 PCOD9457388
Probable space group: P B C N
;
_chemical_formula_sum "Si O2"
_cell_formula_units_Z 40
_cell_length_a 8.622738
_cell_length_b 25.008751
_cell_length_c 8.196614
_cell_angle_alpha 90.000000
_cell_angle_beta 90.000000
_cell_angle_gamma 90.000000
_cell_volume 1767.549872
_symmetry_space_group_name_H-M "P B C N"
_symmetry_group_IT_number 60
_symmetry_cell_setting 'orthorhombic'
loop_
_space_group_symop_operation_xyz
x,y,z
1/2-x,1/2-y,1/2+z
1/2+x,1/2-y,-z
-x,y,1/2-z
-x,-y,-z
1/2+x,1/2+y,1/2-z
1/2-x,1/2+y,z
x,-y,1/2+z
loop_
_atom_site_type_symbol
_atom_site_label
_atom_site_fract_x
_atom_site_fract_y
_atom_site_fract_z
Si Si1 0.193465 0.074417 0.395515
Si Si2 0.102491 0.901907 0.407655
Si Si3 0.817967 0.526477 0.765623
Si Si4 0.239632 0.804518 0.837811
Si Si5 0.418712 0.715408 0.994198
O O1 0.276038 0.053709 0.561886
O O2 0.260348 0.131762 0.341931
O O3 0.012377 0.084362 0.442781
O O4 0.226208 0.028448 0.265300
O O5 0.258307 0.934660 0.379996
O O6 0.131760 0.838682 0.402651
O O7 0.000000 0.916576 0.250000
O O8 0.000000 0.517127 0.750000
O O9 0.176245 0.786327 0.663056
O O10 0.098224 0.791720 0.961778
O O11 0.381371 0.768901 0.897612
#
# Coordination Sequence:
#
# PCOD9457388 Si02
#       5
#     8   8   8   8   8
#     4  10  23  43  63  92 126 170 216 258 321 394
#     4   9  21  41  67  90 123 174 217 260 316 393
#     4  11  23  40  63  92 131 163 214 268 323 376
#     4  10  24  43  65  96 125 165 217 262 321 384
#     4  10  23  42  66  92 130 164 213 266 319 384
#
# _framework density 22.630195000000001
#
# number of rings (size 3 to 8) (size 9 to 14) (size 15 to 20)
#    0.000    2.000    0.000    1.200   11.200    1.600 
#   10.800    0.000    0.000    0.000    0.000    0.000 
#    0.000    0.000    0.000    0.000    0.000    0.000 
#
# Total GULP energy -223799.539949 kJ/mol
# GULP energy per Si atom -5594.988499 kJ/mol
# Density = 2.257869 g / cm^3
# Si number density = 22.630195 Si / 1000 Ang^3
#
#
#
# Elastic Constant Matrix: (Units=GPa)
#
#
# Indices 1 2 3 4 5 6 
#
# 1 31.1648 33.3927 10.5440 0.0000 0.0000 0.0000
# 2 33.3927 137.0124 22.2136 0.0000 0.0000 0.0000
# 3 10.5440 22.2136 54.2262 0.0000 0.0000 0.0000
# 4 0.0000 0.0000 0.0000 27.2811 0.0000 0.0000
# 5 0.0000 0.0000 0.0000 0.0000 25.3800 0.0000
# 6 0.0000 0.0000 0.0000 0.0000 0.0000 36.1629
#
#
#
# Elastic Compliance Matrix: (Units=1/GPa)
#
#
# Indices 1 2 3 4 5 6 
#
# 1 0.044432 -0.010099 -0.004502 0.000000 0.000000 0.000000
# 2 -0.010099 0.010113 -0.002179 0.000000 0.000000 0.000000
# 3 -0.004502 -0.002179 0.020209 0.000000 0.000000 0.000000
# 4 0.000000 0.000000 0.000000 0.036655 0.000000 0.000000
# 5 0.000000 0.000000 0.000000 0.000000 0.039401 0.000000
# 6 0.000000 0.000000 0.000000 0.000000 0.000000 0.027653
#
#
# Mechanical properties :
#
#
# Convention : Reuss Voigt Hill
#
# Bulk Modulus (GPa) = 24.27585 39.41154 31.84370
# Shear Modulus (GPa) = 22.14782 28.18167 25.16475
#
# Velocity S-wave (km/s) = 3.13179 3.53273 3.33828
# Velocity P-wave (km/s) = 4.88139 5.83896 5.38152
#
# Compressibility (1/GPa) = 0.04119319
#
# Stress axis : x y z
#
# Youngs Moduli (GPa) = 22.50645 98.88032 49.48178
#
# Poissons Ratio (x) = 0.99859 0.22279
# Poissons Ratio (y) = 0.22729 0.10783
# Poissons Ratio (z) = 0.10134 0.21548
#
# Static dielectric constant tensor:
#      x y z
#    x 1.830440 0.000000 0.000000 
#    y 0.000000 1.804210 0.000000 
#    z 0.000000 0.000000 1.881270 
# 
# From -- ./inp_files/3809.got.cif
#   From: 2010.05.17/outbox.cif.g08.bks.cpg/sg60_2_cif.got.tgz:3809.got - 2010.06.03 14:59:27.
