data_PCOD9457321
_publ_section_title
;
Structure prediction by ZEFSAII (Michael W. Deem and Ramdas Pophale) SiO2 
 PCOD9457321
Probable space group: P B C N
;
_chemical_formula_sum "Si O2"
_cell_formula_units_Z 40
_cell_length_a 9.601345
_cell_length_b 11.644627
_cell_length_c 16.187741
_cell_angle_alpha 90.000000
_cell_angle_beta 90.000000
_cell_angle_gamma 90.000000
_cell_volume 1809.855510
_symmetry_space_group_name_H-M "P B C N"
_symmetry_group_IT_number 60
_symmetry_cell_setting 'orthorhombic'
loop_
_space_group_symop_operation_xyz
x,y,z
1/2-x,1/2-y,1/2+z
1/2+x,1/2-y,-z
-x,y,1/2-z
-x,-y,-z
1/2+x,1/2+y,1/2-z
1/2-x,1/2+y,z
x,-y,1/2+z
loop_
_atom_site_type_symbol
_atom_site_label
_atom_site_fract_x
_atom_site_fract_y
_atom_site_fract_z
Si Si1 0.521393 0.012679 0.382420
Si Si2 0.586631 0.229103 0.925010
Si Si3 0.081078 0.776081 0.075993
Si Si4 0.702542 0.931567 0.730987
Si Si5 0.000000 0.782094 0.250000
Si Si6 0.000000 0.159933 0.250000
O O1 0.544302 0.903413 0.437446
O O2 0.546548 0.142517 0.408001
O O3 0.364528 0.008726 0.347997
O O4 0.634689 0.001434 0.307858
O O5 0.753029 0.225755 0.934779
O O6 0.539332 0.268157 0.832892
O O7 0.507307 0.305161 0.994145
O O8 0.034156 0.838932 0.161435
O O9 0.631901 0.804025 0.735201
O O10 0.864998 0.916632 0.732112
#
# Coordination Sequence:
#
# PCOD9457321 Si02
#       6
#     8   8   8   8   4   4
#     4   9  19  43  60  84 126 172 203 249 324 385
#     4  12  24  38  68  94 123 170 219 247 326 382
#     4  10  23  40  62  95 126 166 211 266 303 378
#     4   8  17  35  64  86 122 161 203 259 312 359
#     4   8  16  41  59  76 132 164 188 253 323 350
#     4  12  20  37  65  96 126 158 218 271 303 376
#
# _framework density 22.101213999999999
#
# number of rings (size 3 to 8) (size 9 to 14) (size 15 to 20)
#    0.000    2.800    4.000    1.800    5.600    0.000 
#    0.000    4.000    0.000    0.000    0.000    0.000 
#    0.000    0.000    0.000    0.000    0.000    0.000 
#
# Total GULP energy -222902.289922 kJ/mol
# GULP energy per Si atom -5572.557248 kJ/mol
# Density = 2.205091 g / cm^3
# Si number density = 22.101214 Si / 1000 Ang^3
#
#
#
# Elastic Constant Matrix: (Units=GPa)
#
#
# Indices 1 2 3 4 5 6 
#
# 1 180.3133 4.5799 46.0708 0.0000 0.0000 0.0000
# 2 4.5799 24.0412 7.0890 0.0000 0.0000 0.0000
# 3 46.0708 7.0890 106.2321 0.0000 0.0000 0.0000
# 4 0.0000 0.0000 0.0000 15.8479 0.0000 0.0000
# 5 0.0000 0.0000 0.0000 0.0000 -8.9482 0.0000
# 6 0.0000 0.0000 0.0000 0.0000 0.0000 -28.8904
#
#
#
# Elastic Compliance Matrix: (Units=1/GPa)
#
#
# Indices 1 2 3 4 5 6 
#
# 1 0.006241 -0.000399 -0.002680 0.000000 0.000000 0.000000
# 2 -0.000399 0.042456 -0.002660 0.000000 0.000000 0.000000
# 3 -0.002680 -0.002660 0.010753 0.000000 0.000000 0.000000
# 4 0.000000 0.000000 0.000000 0.063100 0.000000 0.000000
# 5 0.000000 0.000000 0.000000 0.000000 -0.111754 0.000000
# 6 0.000000 0.000000 0.000000 0.000000 0.000000 -0.034614
#
#
# Mechanical properties :
#
#
# Convention : Reuss Voigt Hill
#
# Bulk Modulus (GPa) = 20.84550 47.34065 34.09308
# Shear Modulus (GPa) = 1369.98078 12.45832 691.21955
#
# Velocity S-wave (km/s) = 24.92413 2.37680 17.70398
# Velocity P-wave (km/s) = 28.94366 5.38504 20.81747
#
# Compressibility (1/GPa) = 0.04797198
#
# Stress axis : x y z
#
# Youngs Moduli (GPa) = 160.23718 23.55396 92.99651
#
# Poissons Ratio (x) = 0.00939 0.24922
# Poissons Ratio (y) = 0.06388 0.24739
# Poissons Ratio (z) = 0.42942 0.06266
#
# Static dielectric constant tensor:
#      x y z
#    x 1.794730 0.000000 0.000000 
#    y 0.000000 1.802770 0.000000 
#    z 0.000000 0.000000 1.985740 
# 
# From -- ./inp_files/14714.got.cif
#   From: 2010.05.17/outbox.cif.g08.bks.cpg/sg60_8_cif.got.tgz:14714.got - 2010.06.03 14:59:27.
