data_PCOD9457291
_publ_section_title
;
Structure prediction by ZEFSAII (Michael W. Deem and Ramdas Pophale) SiO2 
 PCOD9457291
Probable space group: P B C N
;
_chemical_formula_sum "Si O2"
_cell_formula_units_Z 48
_cell_length_a 8.221572
_cell_length_b 16.468950
_cell_length_c 18.594419
_cell_angle_alpha 90.000000
_cell_angle_beta 90.000000
_cell_angle_gamma 90.000000
_cell_volume 2517.696571
_symmetry_space_group_name_H-M "P B C N"
_symmetry_group_IT_number 60
_symmetry_cell_setting 'orthorhombic'
loop_
_space_group_symop_operation_xyz
x,y,z
1/2-x,1/2-y,1/2+z
1/2+x,1/2-y,-z
-x,y,1/2-z
-x,-y,-z
1/2+x,1/2+y,1/2-z
1/2-x,1/2+y,z
x,-y,1/2+z
loop_
_atom_site_type_symbol
_atom_site_label
_atom_site_fract_x
_atom_site_fract_y
_atom_site_fract_z
Si Si1 0.964617 0.336920 0.334579
Si Si2 0.012228 0.677484 0.086735
Si Si3 0.352026 0.732105 0.454459
Si Si4 0.073829 0.170931 0.673605
Si Si5 0.574851 0.574093 0.958606
Si Si6 0.569383 0.993321 0.419912
O O1 0.768466 0.331725 0.336254
O O2 0.009970 0.424681 0.369082
O O3 0.000000 0.329670 0.250000
O O4 0.055933 0.270723 0.385461
O O5 0.831417 0.701895 0.059951
O O6 0.035178 0.736903 0.153389
O O7 0.045245 0.584796 0.107773
O O8 0.129928 0.703530 0.020206
O O9 0.427991 0.650142 0.487141
O O10 0.997512 0.111025 0.613747
O O11 0.000000 0.149659 0.750000
O O12 0.749317 0.539544 0.933499
O O13 0.500000 0.500000 0.000000
O O14 0.500000 0.000000 0.500000
#
# Coordination Sequence:
#
# PCOD9457291 Si02
#       6
#     8   8   8   8   8   8
#     4  11  24  42  63  89 126 168 208 257 319 378
#     4  11  22  37  66  91 124 162 207 258 311 377
#     4  11  21  38  60  95 120 163 209 254 311 372
#     4  10  23  42  62  91 125 164 210 256 318 378
#     4  10  23  37  64  95 121 163 207 260 312 363
#     4  11  21  40  62  94 126 160 208 256 311 376
#
# _framework density 19.065045000000001
#
# number of rings (size 3 to 8) (size 9 to 14) (size 15 to 20)
#    0.000    1.333    3.333    3.000    7.000    2.000 
#    0.000    0.833    0.000    0.000    0.000    0.000 
#    0.000    0.000    0.000    0.000    0.000    0.000 
#
# Total GULP energy -267472.115755 kJ/mol
# GULP energy per Si atom -5572.335745 kJ/mol
# Density = 1.902165 g / cm^3
# Si number density = 19.065045 Si / 1000 Ang^3
#
#
#
# Elastic Constant Matrix: (Units=GPa)
#
#
# Indices 1 2 3 4 5 6 
#
# 1 44.3625 35.6810 30.4743 0.0000 0.0000 0.0000
# 2 35.6810 171.4688 81.1164 0.0000 0.0000 0.0000
# 3 30.4743 81.1164 127.7790 0.0000 0.0000 0.0000
# 4 0.0000 0.0000 0.0000 16.9836 0.0000 0.0000
# 5 0.0000 0.0000 0.0000 0.0000 28.6129 0.0000
# 6 0.0000 0.0000 0.0000 0.0000 0.0000 17.2822
#
#
#
# Elastic Compliance Matrix: (Units=1/GPa)
#
#
# Indices 1 2 3 4 5 6 
#
# 1 0.028678 -0.003905 -0.004361 0.000000 0.000000 0.000000
# 2 -0.003905 0.008867 -0.004698 0.000000 0.000000 0.000000
# 3 -0.004361 -0.004698 0.011848 0.000000 0.000000 0.000000
# 4 0.000000 0.000000 0.000000 0.058880 0.000000 0.000000
# 5 0.000000 0.000000 0.000000 0.000000 0.034949 0.000000
# 6 0.000000 0.000000 0.000000 0.000000 0.000000 0.057863
#
#
# Mechanical properties :
#
#
# Convention : Reuss Voigt Hill
#
# Bulk Modulus (GPa) = 42.61348 70.90596 56.75972
# Shear Modulus (GPa) = 21.29172 25.66497 23.47835
#
# Velocity S-wave (km/s) = 3.34547 3.67301 3.51306
# Velocity P-wave (km/s) = 6.10926 7.43373 6.80380
#
# Compressibility (1/GPa) = 0.02346675
#
# Stress axis : x y z
#
# Youngs Moduli (GPa) = 34.87042 112.78109 84.40189
#
# Poissons Ratio (x) = 0.44037 0.36805
# Poissons Ratio (y) = 0.13616 0.39648
# Poissons Ratio (z) = 0.15206 0.52979
#
# Static dielectric constant tensor:
#      x y z
#    x 1.740330 0.000000 0.000000 
#    y 0.000000 1.650710 0.000000 
#    z 0.000000 0.000000 1.665130 
# 
# From -- ./inp_files/19299.got.cif
#   From: 2010.05.17/outbox.cif.g08.bks.cpg/sg60_10_cif.got.tgz:19299.got - 2010.06.03 14:59:27.
