data_PCOD9457653
_publ_section_title
;
Structure prediction by ZEFSAII (Michael W. Deem and Ramdas Pophale) SiO2 
 PCOD9457653
Probable space group: P B C N
;
_chemical_formula_sum "Si O2"
_cell_formula_units_Z 48
_cell_length_a 12.429564
_cell_length_b 16.656458
_cell_length_c 9.809501
_cell_angle_alpha 90.000000
_cell_angle_beta 90.000000
_cell_angle_gamma 90.000000
_cell_volume 2030.885621
_symmetry_space_group_name_H-M "P B C N"
_symmetry_group_IT_number 60
_symmetry_cell_setting 'orthorhombic'
loop_
_space_group_symop_operation_xyz
x,y,z
1/2-x,1/2-y,1/2+z
1/2+x,1/2-y,-z
-x,y,1/2-z
-x,-y,-z
1/2+x,1/2+y,1/2-z
1/2-x,1/2+y,z
x,-y,1/2+z
loop_
_atom_site_type_symbol
_atom_site_label
_atom_site_fract_x
_atom_site_fract_y
_atom_site_fract_z
Si Si1 0.169608 0.983472 0.197651
Si Si2 0.377813 0.399925 0.462476
Si Si3 0.123714 0.589336 0.268133
Si Si4 0.040935 0.752716 0.611562
Si Si5 0.731764 0.159914 0.967745
Si Si6 0.345426 0.181973 0.995914
O O1 0.104918 0.953171 0.329294
O O2 0.284213 0.023474 0.239661
O O3 0.200435 0.907470 0.105854
O O4 0.113644 0.047561 0.098855
O O5 0.443254 0.318051 0.491206
O O6 0.252425 0.373061 0.447703
O O7 0.155235 0.623838 0.415459
O O8 0.138013 0.658614 0.153819
O O9 0.000000 0.561135 0.250000
O O10 0.156639 0.711834 0.632487
O O11 0.000000 0.792280 0.750000
O O12 0.959750 0.680511 0.576413
O O13 0.810339 0.226546 0.028219
#
# Coordination Sequence:
#
# PCOD9457653 Si02
#       6
#     8   8   8   8   8   8
#     4  11  23  43  66  94 136 177 211 277 346 397
#     4  10  24  43  69  97 134 174 225 272 340 400
#     4  11  23  42  65 100 130 169 225 279 333 404
#     4  11  24  42  68  99 130 172 231 279 328 399
#     4  11  24  41  68  94 135 173 221 275 338 396
#     4  10  24  40  68  93 129 172 225 276 330 395
#
# _framework density 23.635010000000001
#
# number of rings (size 3 to 8) (size 9 to 14) (size 15 to 20)
#    0.000    1.333    3.333    1.000   11.667    2.667 
#    0.000    3.333    0.000    0.000    0.000    0.000 
#    0.000    0.000    0.000    0.000    0.000    0.000 
#
# Total GULP energy -268383.898045 kJ/mol
# GULP energy per Si atom -5591.331209 kJ/mol
# Density = 2.358122 g / cm^3
# Si number density = 23.635010 Si / 1000 Ang^3
#
#
#
# Elastic Constant Matrix: (Units=GPa)
#
#
# Indices 1 2 3 4 5 6 
#
# 1 52.1731 -13.7937 -3.5411 0.0000 0.0000 0.0000
# 2 -13.7937 65.4148 6.5258 0.0000 0.0000 0.0000
# 3 -3.5411 6.5258 77.3303 0.0000 0.0000 0.0000
# 4 0.0000 0.0000 0.0000 35.6895 0.0000 0.0000
# 5 0.0000 0.0000 0.0000 0.0000 28.2497 0.0000
# 6 0.0000 0.0000 0.0000 0.0000 0.0000 10.4514
#
#
#
# Elastic Compliance Matrix: (Units=1/GPa)
#
#
# Indices 1 2 3 4 5 6 
#
# 1 0.020324 0.004228 0.000574 0.000000 0.000000 0.000000
# 2 0.004228 0.016297 -0.001182 0.000000 0.000000 0.000000
# 3 0.000574 -0.001182 0.013058 0.000000 0.000000 0.000000
# 4 0.000000 0.000000 0.000000 0.028019 0.000000 0.000000
# 5 0.000000 0.000000 0.000000 0.000000 0.035399 0.000000
# 6 0.000000 0.000000 0.000000 0.000000 0.000000 0.095681
#
#
# Mechanical properties :
#
#
# Convention : Reuss Voigt Hill
#
# Bulk Modulus (GPa) = 17.56882 19.25558 18.41220
# Shear Modulus (GPa) = 22.67480 28.59326 25.63403
#
# Velocity S-wave (km/s) = 3.10074 3.48197 3.29687
# Velocity P-wave (km/s) = 4.50210 4.93257 4.72224
#
# Compressibility (1/GPa) = 0.05691902
#
# Stress axis : x y z
#
# Youngs Moduli (GPa) = 49.20338 61.36268 76.58413
#
# Poissons Ratio (x) = -0.25946 -0.04395
# Poissons Ratio (y) = -0.20805 0.09049
# Poissons Ratio (z) = -0.02823 0.07251
#
# Static dielectric constant tensor:
#      x y z
#    x 1.917910 0.000000 0.000000 
#    y 0.000000 1.849880 0.000000 
#    z 0.000000 0.000000 1.925160 
# 
# From -- ./inp_files/5926.got.cif
#   From: 2010.05.17/outbox.cif.g08.bks.cpg/sg60_3_cif.got.tgz:5926.got - 2010.06.03 14:59:27.
