data_PCOD9457862
_publ_section_title
;
Structure prediction by ZEFSAII (Michael W. Deem and Ramdas Pophale) SiO2 
 PCOD9457862
Probable space group: P B C N
;
_chemical_formula_sum "Si O2"
_cell_formula_units_Z 28
_cell_length_a 10.089734
_cell_length_b 10.123597
_cell_length_c 10.334643
_cell_angle_alpha 90.000000
_cell_angle_beta 90.000000
_cell_angle_gamma 90.000000
_cell_volume 1055.625917
_symmetry_space_group_name_H-M "P B C N"
_symmetry_group_IT_number 60
_symmetry_cell_setting 'orthorhombic'
loop_
_space_group_symop_operation_xyz
x,y,z
1/2-x,1/2-y,1/2+z
1/2+x,1/2-y,-z
-x,y,1/2-z
-x,-y,-z
1/2+x,1/2+y,1/2-z
1/2-x,1/2+y,z
x,-y,1/2+z
loop_
_atom_site_type_symbol
_atom_site_label
_atom_site_fract_x
_atom_site_fract_y
_atom_site_fract_z
Si Si1 0.000000 0.500000 0.000000
Si Si2 0.500000 0.555017 0.250000
Si Si3 0.500000 0.043997 0.250000
Si Si4 0.251830 0.374664 0.321792
Si Si5 0.649647 0.257615 0.914730
O O1 0.046414 0.610024 0.119523
O O2 0.108096 0.392378 0.056090
O O3 0.371136 0.466156 0.274419
O O4 0.472465 0.649367 0.127402
O O5 0.612080 0.956313 0.171225
O O6 0.228893 0.258988 0.219433
O O7 0.283482 0.318451 0.461017
#
# Coordination Sequence:
#
# PCOD9457862 Si02
#       5
#     4   4   4   8   8
#     4  10  24  48  78 112 160 218 268 342 418 492
#     4  12  29  55  80 128 170 227 285 366 428 518
#     4  10  25  47  72 116 160 203 279 330 416 508
#     4  11  28  50  84 121 168 227 280 356 432 505
#     4  11  27  52  86 120 176 218 299 353 429 524
#
# _framework density 26.524546999999998
#
# number of rings (size 3 to 8) (size 9 to 14) (size 15 to 20)
#    0.000    1.143    0.000    4.286   12.000    8.000 
#    0.000    0.000    0.000    0.000    0.000    0.000 
#    0.000    0.000    0.000    0.000    0.000    0.000 
#
# Total GULP energy -156092.693025 kJ/mol
# GULP energy per Si atom -5574.739037 kJ/mol
# Density = 2.646418 g / cm^3
# Si number density = 26.524547 Si / 1000 Ang^3
#
#
#
# Elastic Constant Matrix: (Units=GPa)
#
#
# Indices 1 2 3 4 5 6 
#
# 1 122.4603 38.1176 18.4924 0.0000 0.0000 0.0000
# 2 38.1176 41.8392 -1.9708 0.0000 0.0000 0.0000
# 3 18.4924 -1.9708 175.7309 0.0000 0.0000 0.0000
# 4 0.0000 0.0000 0.0000 13.9914 0.0000 0.0000
# 5 0.0000 0.0000 0.0000 0.0000 56.9301 0.0000
# 6 0.0000 0.0000 0.0000 0.0000 0.0000 42.7139
#
#
#
# Elastic Compliance Matrix: (Units=1/GPa)
#
#
# Indices 1 2 3 4 5 6 
#
# 1 0.011711 -0.010733 -0.001353 0.000000 0.000000 0.000000
# 2 -0.010733 0.033750 0.001508 0.000000 0.000000 0.000000
# 3 -0.001353 0.001508 0.005850 0.000000 0.000000 0.000000
# 4 0.000000 0.000000 0.000000 0.071473 0.000000 0.000000
# 5 0.000000 0.000000 0.000000 0.000000 0.017565 0.000000
# 6 0.000000 0.000000 0.000000 0.000000 0.000000 0.023412
#
#
# Mechanical properties :
#
#
# Convention : Reuss Voigt Hill
#
# Bulk Modulus (GPa) = 33.16135 49.92317 41.54226
# Shear Modulus (GPa) = 25.64520 41.75316 33.69918
#
# Velocity S-wave (km/s) = 3.11279 3.97184 3.56826
# Velocity P-wave (km/s) = 5.04466 6.31636 5.71598
#
# Compressibility (1/GPa) = 0.03015559
#
# Stress axis : x y z
#
# Youngs Moduli (GPa) = 85.38982 29.62928 170.94660
#
# Poissons Ratio (x) = 0.31801 0.23125
# Poissons Ratio (y) = 0.91649 -0.25778
# Poissons Ratio (z) = 0.11551 -0.04468
#
# Static dielectric constant tensor:
#      x y z
#    x 1.883940 0.000000 0.000000 
#    y 0.000000 1.214210 0.000000 
#    z 0.000000 0.000000 0.911920 
# 
# From -- ./inp_files/10492.got.cif
#   From: 2010.05.17/outbox.cif.g08.bks.cpg/sg60_6_cif.got.tgz:10492.got - 2010.06.03 14:59:27.
