data_PCOD9457479
_publ_section_title
;
Structure prediction by ZEFSAII (Michael W. Deem and Ramdas Pophale) SiO2 
 PCOD9457479
Probable space group: P B C N
;
_chemical_formula_sum "Si O2"
_cell_formula_units_Z 40
_cell_length_a 5.571498
_cell_length_b 17.217566
_cell_length_c 16.802876
_cell_angle_alpha 90.000000
_cell_angle_beta 90.000000
_cell_angle_gamma 90.000000
_cell_volume 1611.860148
_symmetry_space_group_name_H-M "P B C N"
_symmetry_group_IT_number 60
_symmetry_cell_setting 'orthorhombic'
loop_
_space_group_symop_operation_xyz
x,y,z
1/2-x,1/2-y,1/2+z
1/2+x,1/2-y,-z
-x,y,1/2-z
-x,-y,-z
1/2+x,1/2+y,1/2-z
1/2-x,1/2+y,z
x,-y,1/2+z
loop_
_atom_site_type_symbol
_atom_site_label
_atom_site_fract_x
_atom_site_fract_y
_atom_site_fract_z
Si Si1 0.490885 0.040274 0.342288
Si Si2 0.885891 0.152831 0.163670
Si Si3 0.238773 0.380386 0.204520
Si Si4 0.719583 0.149678 0.468219
Si Si5 0.948305 0.219881 0.601744
O O1 0.500000 0.073969 0.250000
O O2 0.216081 0.065974 0.355565
O O3 0.608156 0.077878 0.420706
O O4 0.625511 0.959144 0.331195
O O5 0.692028 0.222755 0.160991
O O6 0.000000 0.150715 0.250000
O O7 0.065782 0.169740 0.092122
O O8 0.500000 0.394753 0.250000
O O9 0.321683 0.317698 0.141396
O O10 0.000000 0.350115 0.250000
O O11 0.526312 0.218467 0.464575
O O12 0.806545 0.149960 0.558833
#
# Coordination Sequence:
#
# PCOD9457479 Si02
#       5
#     8   8   8   8   8
#     4  10  23  43  70 103 137 196 249 303 357 453
#     4  11  23  42  75 106 145 193 256 306 372 449
#     4  11  29  48  73 106 154 196 252 314 380 445
#     4  11  23  42  72 102 147 188 247 305 377 445
#     4  11  26  44  69 113 150 194 243 321 386 449
#
# _framework density 24.816047999999999
#
# number of rings (size 3 to 8) (size 9 to 14) (size 15 to 20)
#    0.000    1.200    4.000    0.000   11.200    0.800 
#    0.000    1.000    0.000    0.000    0.000    0.000 
#    0.000    0.000    0.000    0.000    0.000    0.000 
#
# Total GULP energy -222812.312876 kJ/mol
# GULP energy per Si atom -5570.307822 kJ/mol
# Density = 2.475957 g / cm^3
# Si number density = 24.816048 Si / 1000 Ang^3
#
#
#
# Elastic Constant Matrix: (Units=GPa)
#
#
# Indices 1 2 3 4 5 6 
#
# 1 111.6720 38.7664 37.8682 0.0000 0.0000 0.0000
# 2 38.7664 58.3435 21.9666 0.0000 0.0000 0.0000
# 3 37.8682 21.9666 37.5159 0.0000 0.0000 0.0000
# 4 0.0000 0.0000 0.0000 19.6804 0.0000 0.0000
# 5 0.0000 0.0000 0.0000 0.0000 55.6260 0.0000
# 6 0.0000 0.0000 0.0000 0.0000 0.0000 -4.3454
#
#
#
# Elastic Compliance Matrix: (Units=1/GPa)
#
#
# Indices 1 2 3 4 5 6 
#
# 1 0.014838 -0.005414 -0.011808 0.000000 0.000000 0.000000
# 2 -0.005414 0.023962 -0.008566 0.000000 0.000000 0.000000
# 3 -0.011808 -0.008566 0.043590 0.000000 0.000000 0.000000
# 4 0.000000 0.000000 0.000000 0.050812 0.000000 0.000000
# 5 0.000000 0.000000 0.000000 0.000000 0.017977 0.000000
# 6 0.000000 0.000000 0.000000 0.000000 0.000000 -0.230127
#
#
# Mechanical properties :
#
#
# Convention : Reuss Voigt Hill
#
# Bulk Modulus (GPa) = 32.45153 44.97043 38.71098
# Shear Modulus (GPa) = -292.37336 21.45420 -135.45958
#
# Velocity S-wave (km/s) = -10.86609 2.94348 -7.39621
# Velocity P-wave (km/s) = 12.01350 5.45096 7.57005
#
# Compressibility (1/GPa) = 0.03081518
#
# Stress axis : x y z
#
# Youngs Moduli (GPa) = 67.39417 41.73256 22.94124
#
# Poissons Ratio (x) = 0.22592 0.27088
# Poissons Ratio (y) = 0.36484 0.19652
# Poissons Ratio (z) = 0.79577 0.35749
#
# Static dielectric constant tensor:
#      x y z
#    x 2.134190 0.000000 0.000000 
#    y 0.000000 1.972970 0.000000 
#    z 0.000000 0.000000 2.075520 
# 
# From -- ./inp_files/18542.got.cif
#   From: 2010.05.17/outbox.cif.g08.bks.cpg/sg60_10_cif.got.tgz:18542.got - 2010.06.03 14:59:27.
