data_PCOD9457494
_publ_section_title
;
Structure prediction by ZEFSAII (Michael W. Deem and Ramdas Pophale) SiO2 
 PCOD9457494
Probable space group: P B C N
;
_chemical_formula_sum "Si O2"
_cell_formula_units_Z 28
_cell_length_a 4.941624
_cell_length_b 13.204377
_cell_length_c 16.508075
_cell_angle_alpha 90.000000
_cell_angle_beta 90.000000
_cell_angle_gamma 90.000000
_cell_volume 1077.169496
_symmetry_space_group_name_H-M "P B C N"
_symmetry_group_IT_number 60
_symmetry_cell_setting 'orthorhombic'
loop_
_space_group_symop_operation_xyz
x,y,z
1/2-x,1/2-y,1/2+z
1/2+x,1/2-y,-z
-x,y,1/2-z
-x,-y,-z
1/2+x,1/2+y,1/2-z
1/2-x,1/2+y,z
x,-y,1/2+z
loop_
_atom_site_type_symbol
_atom_site_label
_atom_site_fract_x
_atom_site_fract_y
_atom_site_fract_z
Si Si1 0.804794 0.618737 0.967905
Si Si2 0.500000 0.292671 0.750000
Si Si3 0.318612 0.655975 0.869861
Si Si4 0.978725 0.943694 0.882123
O O1 0.601387 0.683934 0.911308
O O2 0.746025 0.503715 0.934679
O O3 0.099889 0.651922 0.942396
O O4 0.683602 0.614580 0.057510
O O5 0.710268 0.222508 0.702665
O O6 0.370412 0.367574 0.684015
O O7 0.360415 0.538794 0.843365
#
# Coordination Sequence:
#
# PCOD9457494 Si02
#       4
#     8   4   8   8
#     4   9  21  47  72  88 140 181 229 283 330 409
#     4  12  26  42  70 110 136 190 216 298 370 394
#     4  10  23  44  65 102 133 175 233 283 328 426
#     4   9  23  44  71  98 135 183 226 284 343 407
#
# _framework density 25.994050999999999
#
# number of rings (size 3 to 8) (size 9 to 14) (size 15 to 20)
#    1.714    0.571    0.000    0.857    4.000    3.429 
#   10.286    0.000    0.000    0.000    0.000    0.000 
#    0.000    0.000    0.000    0.000    0.000    0.000 
#
# Total GULP energy -156677.400995 kJ/mol
# GULP energy per Si atom -5595.621464 kJ/mol
# Density = 2.593489 g / cm^3
# Si number density = 25.994051 Si / 1000 Ang^3
#
#
#
# Elastic Constant Matrix: (Units=GPa)
#
#
# Indices 1 2 3 4 5 6 
#
# 1 70.6845 8.2451 -3.3268 0.0000 0.0000 0.0000
# 2 8.2451 143.1801 74.1657 0.0000 0.0000 0.0000
# 3 -3.3268 74.1657 128.5534 0.0000 0.0000 0.0000
# 4 0.0000 0.0000 0.0000 74.4012 0.0000 0.0000
# 5 0.0000 0.0000 0.0000 0.0000 29.7590 0.0000
# 6 0.0000 0.0000 0.0000 0.0000 0.0000 19.2571
#
#
#
# Elastic Compliance Matrix: (Units=1/GPa)
#
#
# Indices 1 2 3 4 5 6 
#
# 1 0.014374 -0.001455 0.001212 0.000000 0.000000 0.000000
# 2 -0.001455 0.010108 -0.005869 0.000000 0.000000 0.000000
# 3 0.001212 -0.005869 0.011196 0.000000 0.000000 0.000000
# 4 0.000000 0.000000 0.000000 0.013441 0.000000 0.000000
# 5 0.000000 0.000000 0.000000 0.000000 0.033603 0.000000
# 6 0.000000 0.000000 0.000000 0.000000 0.000000 0.051929
#
#
# Mechanical properties :
#
#
# Convention : Reuss Voigt Hill
#
# Bulk Modulus (GPa) = 42.63914 55.62067 49.12991
# Shear Modulus (GPa) = 32.32152 42.23905 37.28029
#
# Velocity S-wave (km/s) = 3.53004 4.03544 3.79117
# Velocity P-wave (km/s) = 5.74926 6.56940 6.17296
#
# Compressibility (1/GPa) = 0.02345263
#
# Stress axis : x y z
#
# Youngs Moduli (GPa) = 69.56928 98.92862 89.31420
#
# Poissons Ratio (x) = 0.14398 -0.10821
# Poissons Ratio (y) = 0.10125 0.52422
# Poissons Ratio (z) = -0.08429 0.58065
#
# Static dielectric constant tensor:
#      x y z
#    x 2.008590 0.000000 0.000000 
#    y 0.000000 2.090800 0.000000 
#    z 0.000000 0.000000 2.033890 
# 
# From -- ./inp_files/18362.got.cif
#   From: 2010.05.17/outbox.cif.g08.bks.cpg/sg60_10_cif.got.tgz:18362.got - 2010.06.03 14:59:27.
