data_PCOD9457589
_publ_section_title
;
Structure prediction by ZEFSAII (Michael W. Deem and Ramdas Pophale) SiO2 
 PCOD9457589
Probable space group: P B C N
;
_chemical_formula_sum "Si O2"
_cell_formula_units_Z 40
_cell_length_a 24.702129
_cell_length_b 4.925239
_cell_length_c 12.738800
_cell_angle_alpha 90.000000
_cell_angle_beta 90.000000
_cell_angle_gamma 90.000000
_cell_volume 1549.851951
_symmetry_space_group_name_H-M "P B C N"
_symmetry_group_IT_number 60
_symmetry_cell_setting 'orthorhombic'
loop_
_space_group_symop_operation_xyz
x,y,z
1/2-x,1/2-y,1/2+z
1/2+x,1/2-y,-z
-x,y,1/2-z
-x,-y,-z
1/2+x,1/2+y,1/2-z
1/2-x,1/2+y,z
x,-y,1/2+z
loop_
_atom_site_type_symbol
_atom_site_label
_atom_site_fract_x
_atom_site_fract_y
_atom_site_fract_z
Si Si1 0.713022 0.231357 0.302206
Si Si2 0.785185 0.629260 0.546248
Si Si3 0.039974 0.204888 0.941043
Si Si4 0.627353 0.615230 0.192954
Si Si5 0.540701 0.883092 0.332331
O O1 0.763957 0.431952 0.278145
O O2 0.702297 0.201987 0.426118
O O3 0.662384 0.390113 0.254349
O O4 0.767431 0.320556 0.565623
O O5 0.835290 0.716069 0.615025
O O6 0.085398 0.051421 0.877834
O O7 0.061497 0.351060 0.046055
O O8 0.003480 0.382470 0.862031
O O9 0.000000 0.000000 0.000000
O O10 0.595953 0.825271 0.269076
O O11 0.500000 0.719337 0.250000
#
# Coordination Sequence:
#
# PCOD9457589 Si02
#       5
#     8   8   8   8   8
#     4  10  23  46  73 113 155 198 258 319 393 483
#     4  10  23  46  72 111 154 190 249 322 385 473
#     4  11  26  50  69 104 152 193 260 322 383 456
#     4  12  24  46  78 108 144 211 255 317 399 463
#     4  11  26  47  71 104 145 200 253 317 378 465
#
# _framework density 25.808917999999998
#
# number of rings (size 3 to 8) (size 9 to 14) (size 15 to 20)
#    0.000    1.200    2.000    2.400    2.800    3.200 
#   10.800    0.000    0.000    0.000    0.000    0.000 
#    0.000    0.000    0.000    0.000    0.000    0.000 
#
# Total GULP energy -223388.893819 kJ/mol
# GULP energy per Si atom -5584.722345 kJ/mol
# Density = 2.575018 g / cm^3
# Si number density = 25.808918 Si / 1000 Ang^3
#
#
#
# Elastic Constant Matrix: (Units=GPa)
#
#
# Indices 1 2 3 4 5 6 
#
# 1 143.9947 47.0338 86.0867 0.0000 0.0000 0.0000
# 2 47.0338 95.9662 44.1561 0.0000 0.0000 0.0000
# 3 86.0867 44.1561 177.6136 0.0000 0.0000 0.0000
# 4 0.0000 0.0000 0.0000 47.6246 0.0000 0.0000
# 5 0.0000 0.0000 0.0000 0.0000 64.9518 0.0000
# 6 0.0000 0.0000 0.0000 0.0000 0.0000 42.9592
#
#
#
# Elastic Compliance Matrix: (Units=1/GPa)
#
#
# Indices 1 2 3 4 5 6 
#
# 1 0.010578 -0.003190 -0.004334 0.000000 0.000000 0.000000
# 2 -0.003190 0.012728 -0.001618 0.000000 0.000000 0.000000
# 3 -0.004334 -0.001618 0.008133 0.000000 0.000000 0.000000
# 4 0.000000 0.000000 0.000000 0.020998 0.000000 0.000000
# 5 0.000000 0.000000 0.000000 0.000000 0.015396 0.000000
# 6 0.000000 0.000000 0.000000 0.000000 0.000000 0.023278
#
#
# Mechanical properties :
#
#
# Convention : Reuss Voigt Hill
#
# Bulk Modulus (GPa) = 76.01703 85.79196 80.90450
# Shear Modulus (GPa) = 43.94466 47.12699 45.53582
#
# Velocity S-wave (km/s) = 4.13085 4.27780 4.20497
# Velocity P-wave (km/s) = 7.22977 7.59690 7.41561
#
# Compressibility (1/GPa) = 0.01315495
#
# Stress axis : x y z
#
# Youngs Moduli (GPa) = 94.53938 78.56444 122.95618
#
# Poissons Ratio (x) = 0.25063 0.53286
# Poissons Ratio (y) = 0.30159 0.19896
# Poissons Ratio (z) = 0.40971 0.12713
#
# Static dielectric constant tensor:
#      x y z
#    x 1.974560 0.000000 0.000000 
#    y 0.000000 1.913330 0.000000 
#    z 0.000000 0.000000 1.327890 
# 
# From -- ./inp_files/17839.got.cif
#   From: 2010.05.17/outbox.cif.g08.bks.cpg/sg60_9_cif.got.tgz:17839.got - 2010.06.03 14:59:27.
