data_PCOD9457785
_publ_section_title
;
Structure prediction by ZEFSAII (Michael W. Deem and Ramdas Pophale) SiO2 
 PCOD9457785
Probable space group: P B C N
;
_chemical_formula_sum "Si O2"
_cell_formula_units_Z 48
_cell_length_a 11.529863
_cell_length_b 8.748760
_cell_length_c 21.790336
_cell_angle_alpha 90.000000
_cell_angle_beta 90.000000
_cell_angle_gamma 90.000000
_cell_volume 2198.034865
_symmetry_space_group_name_H-M "P B C N"
_symmetry_group_IT_number 60
_symmetry_cell_setting 'orthorhombic'
loop_
_space_group_symop_operation_xyz
x,y,z
1/2-x,1/2-y,1/2+z
1/2+x,1/2-y,-z
-x,y,1/2-z
-x,-y,-z
1/2+x,1/2+y,1/2-z
1/2-x,1/2+y,z
x,-y,1/2+z
loop_
_atom_site_type_symbol
_atom_site_label
_atom_site_fract_x
_atom_site_fract_y
_atom_site_fract_z
Si Si1 0.541451 0.970224 0.319483
Si Si2 0.179716 0.961308 0.414348
Si Si3 0.912323 0.696610 0.584530
Si Si4 0.715705 0.463270 0.388551
Si Si5 0.140623 0.246260 0.031879
Si Si6 0.993594 0.185676 0.676160
O O1 0.500000 0.956714 0.250000
O O2 0.483655 0.827827 0.353417
O O3 0.676506 0.975496 0.340670
O O4 0.491154 0.134675 0.339333
O O5 0.316403 0.933658 0.414566
O O6 0.142846 0.850893 0.470030
O O7 0.116799 0.898092 0.353420
O O8 0.144176 0.137080 0.421150
O O9 0.012719 0.682299 0.534550
O O10 0.766610 0.375145 0.448728
O O11 0.665859 0.621835 0.414431
O O12 0.609399 0.379063 0.355875
O O13 0.000000 0.168426 0.750000
#
# Coordination Sequence:
#
# PCOD9457785 Si02
#       6
#     8   8   8   8   8   8
#     4  10  24  45  69  97 137 179 228 280 334 407
#     4  12  25  43  69  98 140 177 226 284 344 408
#     4  11  25  43  64 101 132 176 224 281 340 402
#     4  11  22  44  69 100 132 180 226 283 341 406
#     4  11  24  43  71  97 137 175 229 282 346 409
#     4  11  25  44  67  99 135 181 226 276 338 404
#
# _framework density 21.837688
#
# number of rings (size 3 to 8) (size 9 to 14) (size 15 to 20)
#    0.000    1.000    3.333    2.500    4.667    0.667 
#    0.000    4.167    0.000    0.000    0.000    0.000 
#    0.000    0.000    0.000    0.000    0.000    0.000 
#
# Total GULP energy -268120.967222 kJ/mol
# GULP energy per Si atom -5585.853484 kJ/mol
# Density = 2.178798 g / cm^3
# Si number density = 21.837688 Si / 1000 Ang^3
#
#
#
# Elastic Constant Matrix: (Units=GPa)
#
#
# Indices 1 2 3 4 5 6 
#
# 1 113.5793 21.6647 32.8148 0.0000 0.0000 0.0000
# 2 21.6647 55.8697 8.1111 0.0000 0.0000 0.0000
# 3 32.8148 8.1111 74.7100 0.0000 0.0000 0.0000
# 4 0.0000 0.0000 0.0000 25.1226 0.0000 0.0000
# 5 0.0000 0.0000 0.0000 0.0000 18.1728 0.0000
# 6 0.0000 0.0000 0.0000 0.0000 0.0000 31.4822
#
#
#
# Elastic Compliance Matrix: (Units=1/GPa)
#
#
# Indices 1 2 3 4 5 6 
#
# 1 0.010729 -0.003532 -0.004329 0.000000 0.000000 0.000000
# 2 -0.003532 0.019348 -0.000549 0.000000 0.000000 0.000000
# 3 -0.004329 -0.000549 0.015346 0.000000 0.000000 0.000000
# 4 0.000000 0.000000 0.000000 0.039805 0.000000 0.000000
# 5 0.000000 0.000000 0.000000 0.000000 0.055027 0.000000
# 6 0.000000 0.000000 0.000000 0.000000 0.000000 0.031764
#
#
# Mechanical properties :
#
#
# Convention : Reuss Voigt Hill
#
# Bulk Modulus (GPa) = 34.96159 41.03780 37.99969
# Shear Modulus (GPa) = 25.20497 27.06008 26.13252
#
# Velocity S-wave (km/s) = 3.40103 3.52397 3.46305
# Velocity P-wave (km/s) = 5.60956 5.94902 5.78178
#
# Compressibility (1/GPa) = 0.02860282
#
# Stress axis : x y z
#
# Youngs Moduli (GPa) = 93.20696 51.68467 65.16306
#
# Poissons Ratio (x) = 0.18254 0.28209
# Poissons Ratio (y) = 0.32919 0.03579
# Poissons Ratio (z) = 0.40349 0.02839
#
# Static dielectric constant tensor:
#      x y z
#    x 1.876590 0.000000 0.000000 
#    y 0.000000 1.793080 0.000000 
#    z 0.000000 0.000000 1.832570 
# 
# From -- ./inp_files/24232.got.cif
#   From: 2010.05.17/outbox.cif.g08.bks.cpg/sg60_13_cif.got.tgz:24232.got - 2010.06.03 14:59:27.
