data_PCOD9457090
_publ_section_title
;
Structure prediction by ZEFSAII (Michael W. Deem and Ramdas Pophale) SiO2 
 PCOD9457090
Probable space group: P B C N
;
_chemical_formula_sum "Si O2"
_cell_formula_units_Z 44
_cell_length_a 8.429657
_cell_length_b 26.763700
_cell_length_c 8.745791
_cell_angle_alpha 90.000000
_cell_angle_beta 90.000000
_cell_angle_gamma 90.000000
_cell_volume 1973.127509
_symmetry_space_group_name_H-M "P B C N"
_symmetry_group_IT_number 60
_symmetry_cell_setting 'orthorhombic'
loop_
_space_group_symop_operation_xyz
x,y,z
1/2-x,1/2-y,1/2+z
1/2+x,1/2-y,-z
-x,y,1/2-z
-x,-y,-z
1/2+x,1/2+y,1/2-z
1/2-x,1/2+y,z
x,-y,1/2+z
loop_
_atom_site_type_symbol
_atom_site_label
_atom_site_fract_x
_atom_site_fract_y
_atom_site_fract_z
Si Si1 0.500000 0.850510 0.750000
Si Si2 0.946232 0.885273 0.582215
Si Si3 0.500000 0.375942 0.250000
Si Si4 0.895349 0.430743 0.544350
Si Si5 0.325774 0.187646 0.724926
Si Si6 0.724531 0.710480 0.108687
Si Si7 0.500000 0.019017 0.750000
O O1 0.520120 0.889793 0.891231
O O2 0.652998 0.815800 0.726975
O O3 0.018166 0.901503 0.418362
O O4 0.767626 0.903604 0.569957
O O5 0.930406 0.824805 0.588994
O O6 0.000000 0.902555 0.750000
O O7 0.334150 0.345137 0.241003
O O8 0.900204 0.480910 0.645348
O O9 0.910746 0.446913 0.370638
O O10 0.500000 0.163810 0.750000
O O11 0.314893 0.234356 0.838934
O O12 0.314492 0.208602 0.552731
#
# Coordination Sequence:
#
# PCOD9457090 Si02
#       7
#     4   8   4   8   8   8   4
#     4   9  19  38  58  90 126 160 216 264 328 394
#     4  10  22  43  62  90 134 178 216 275 339 402
#     4  10  25  46  61  96 134 174 232 282 337 392
#     4   9  19  39  66 100 125 173 208 263 344 395
#     4  11  25  39  63  89 122 175 230 286 336 391
#     4  10  23  38  58  90 124 170 227 276 341 377
#     4   9  18  40  69  98 138 152 216 274 313 430
#
# _framework density 22.299623
#
# number of rings (size 3 to 8) (size 9 to 14) (size 15 to 20)
#    0.000    2.182    0.000    1.091   10.182    1.455 
#   27.818    0.909    0.000    0.000    0.000    0.000 
#    0.000    0.000    0.000    0.000    0.000    0.000 
#
# Total GULP energy -245392.802028 kJ/mol
# GULP energy per Si atom -5577.109137 kJ/mol
# Density = 2.224887 g / cm^3
# Si number density = 22.299623 Si / 1000 Ang^3
#
#
#
# Elastic Constant Matrix: (Units=GPa)
#
#
# Indices 1 2 3 4 5 6 
#
# 1 73.7416 15.6795 31.8863 0.0000 0.0000 0.0000
# 2 15.6795 34.3062 9.8246 0.0000 0.0000 0.0000
# 3 31.8863 9.8246 170.0103 0.0000 0.0000 0.0000
# 4 0.0000 0.0000 0.0000 -14.0786 0.0000 0.0000
# 5 0.0000 0.0000 0.0000 0.0000 20.5573 0.0000
# 6 0.0000 0.0000 0.0000 0.0000 0.0000 7.5009
#
#
#
# Elastic Compliance Matrix: (Units=1/GPa)
#
#
# Indices 1 2 3 4 5 6 
#
# 1 0.016107 -0.006606 -0.002639 0.000000 0.000000 0.000000
# 2 -0.006606 0.032349 -0.000630 0.000000 0.000000 0.000000
# 3 -0.002639 -0.000630 0.006413 0.000000 0.000000 0.000000
# 4 0.000000 0.000000 0.000000 -0.071030 0.000000 0.000000
# 5 0.000000 0.000000 0.000000 0.000000 0.048644 0.000000
# 6 0.000000 0.000000 0.000000 0.000000 0.000000 0.133317
#
#
# Mechanical properties :
#
#
# Convention : Reuss Voigt Hill
#
# Bulk Modulus (GPa) = 28.47511 43.64876 36.06193
# Shear Modulus (GPa) = 25.34760 17.50712 21.42736
#
# Velocity S-wave (km/s) = 3.37513 2.80498 3.10318
# Velocity P-wave (km/s) = 5.29015 5.48697 5.38946
#
# Compressibility (1/GPa) = 0.03511839
#
# Stress axis : x y z
#
# Youngs Moduli (GPa) = 62.08643 30.91296 155.92326
#
# Poissons Ratio (x) = 0.20420 0.41150
# Poissons Ratio (y) = 0.41012 0.09830
# Poissons Ratio (z) = 0.16385 0.01949
#
# Static dielectric constant tensor:
#      x y z
#    x 1.410140 0.000000 0.000000 
#    y 0.000000 1.864380 0.000000 
#    z 0.000000 0.000000 1.933690 
# 
# From -- ./inp_files/4140.got.cif
#   From: 2010.05.17/outbox.cif.g08.bks.cpg/sg60_3_cif.got.tgz:4140.got - 2010.06.03 14:59:27.
