data_PCOD9457818
_publ_section_title
;
Structure prediction by ZEFSAII (Michael W. Deem and Ramdas Pophale) SiO2 
 PCOD9457818
Probable space group: P B C N
;
_chemical_formula_sum "Si O2"
_cell_formula_units_Z 32
_cell_length_a 9.911681
_cell_length_b 7.049753
_cell_length_c 17.974726
_cell_angle_alpha 90.000000
_cell_angle_beta 90.000000
_cell_angle_gamma 90.000000
_cell_volume 1255.982233
_symmetry_space_group_name_H-M "P B C N"
_symmetry_group_IT_number 60
_symmetry_cell_setting 'orthorhombic'
loop_
_space_group_symop_operation_xyz
x,y,z
1/2-x,1/2-y,1/2+z
1/2+x,1/2-y,-z
-x,y,1/2-z
-x,-y,-z
1/2+x,1/2+y,1/2-z
1/2-x,1/2+y,z
x,-y,1/2+z
loop_
_atom_site_type_symbol
_atom_site_label
_atom_site_fract_x
_atom_site_fract_y
_atom_site_fract_z
Si Si1 0.884324 0.165183 0.642467
Si Si2 0.144881 0.192678 0.262479
Si Si3 0.638793 0.508047 0.892578
Si Si4 0.886474 0.661480 0.988708
O O1 0.786567 0.232142 0.707813
O O2 0.829000 0.257413 0.566932
O O3 0.043996 0.187993 0.627703
O O4 0.892308 0.948187 0.669932
O O5 0.000000 0.302884 0.250000
O O6 0.175753 0.091699 0.184723
O O7 0.766926 0.576881 0.938924
O O8 0.566960 0.350696 0.945295
O O9 0.000000 0.500000 0.000000
#
# Coordination Sequence:
#
# PCOD9457818 Si02
#       4
#     8   8   8   8
#     4  11  24  45  73 105 146 193 247 309 373 444
#     4  10  24  46  71 103 142 190 246 309 374 445
#     4  11  25  47  73 109 147 195 252 306 373 444
#     4  12  26  46  74 109 152 198 248 306 369 441
#
# _framework density 25.478065000000001
#
# number of rings (size 3 to 8) (size 9 to 14) (size 15 to 20)
#    0.000    1.000    0.000    5.250    0.000   14.000 
#    0.000    6.250    0.000    0.000    0.000    0.000 
#    0.000    0.000    0.000    0.000    0.000    0.000 
#
# Total GULP energy -178300.079401 kJ/mol
# GULP energy per Si atom -5571.877481 kJ/mol
# Density = 2.542008 g / cm^3
# Si number density = 25.478065 Si / 1000 Ang^3
#
#
#
# Elastic Constant Matrix: (Units=GPa)
#
#
# Indices 1 2 3 4 5 6 
#
# 1 202.1181 59.3730 95.9158 0.0000 0.0000 0.0000
# 2 59.3730 52.2897 50.4990 0.0000 0.0000 0.0000
# 3 95.9158 50.4990 191.8654 0.0000 0.0000 0.0000
# 4 0.0000 0.0000 0.0000 20.6991 0.0000 0.0000
# 5 0.0000 0.0000 0.0000 0.0000 66.9143 0.0000
# 6 0.0000 0.0000 0.0000 0.0000 0.0000 5.0222
#
#
#
# Elastic Compliance Matrix: (Units=1/GPa)
#
#
# Indices 1 2 3 4 5 6 
#
# 1 0.008045 -0.007040 -0.002169 0.000000 0.000000 0.000000
# 2 -0.007040 0.031803 -0.004851 0.000000 0.000000 0.000000
# 3 -0.002169 -0.004851 0.007573 0.000000 0.000000 0.000000
# 4 0.000000 0.000000 0.000000 0.048311 0.000000 0.000000
# 5 0.000000 0.000000 0.000000 0.000000 0.014944 0.000000
# 6 0.000000 0.000000 0.000000 0.000000 0.000000 0.199117
#
#
# Mechanical properties :
#
#
# Convention : Reuss Voigt Hill
#
# Bulk Modulus (GPa) = 51.81118 95.31653 73.56386
# Shear Modulus (GPa) = 14.52021 34.55946 24.53984
#
# Velocity S-wave (km/s) = 2.38987 3.68698 3.10687
# Velocity P-wave (km/s) = 5.29103 7.45772 6.46578
#
# Compressibility (1/GPa) = 0.01930085
#
# Stress axis : x y z
#
# Youngs Moduli (GPa) = 124.30289 31.44354 132.04838
#
# Poissons Ratio (x) = 0.22137 0.28638
# Poissons Ratio (y) = 0.87511 0.64058
# Poissons Ratio (z) = 0.26958 0.15254
#
# Static dielectric constant tensor:
#      x y z
#    x 2.326680 0.000000 0.000000 
#    y 0.000000 2.119700 0.000000 
#    z 0.000000 0.000000 2.134400 
# 
# From -- ./inp_files/21886.got.cif
#   From: 2010.05.17/outbox.cif.g08.bks.cpg/sg60_11_cif.got.tgz:21886.got - 2010.06.03 14:59:27.
