data_PCOD9457112
_publ_section_title
;
Structure prediction by ZEFSAII (Michael W. Deem and Ramdas Pophale) SiO2 
 PCOD9457112
Probable space group: P B C N
;
_chemical_formula_sum "Si O2"
_cell_formula_units_Z 40
_cell_length_a 11.918642
_cell_length_b 18.262676
_cell_length_c 8.465055
_cell_angle_alpha 90.000000
_cell_angle_beta 90.000000
_cell_angle_gamma 90.000000
_cell_volume 1842.557177
_symmetry_space_group_name_H-M "P B C N"
_symmetry_group_IT_number 60
_symmetry_cell_setting 'orthorhombic'
loop_
_space_group_symop_operation_xyz
x,y,z
1/2-x,1/2-y,1/2+z
1/2+x,1/2-y,-z
-x,y,1/2-z
-x,-y,-z
1/2+x,1/2+y,1/2-z
1/2-x,1/2+y,z
x,-y,1/2+z
loop_
_atom_site_type_symbol
_atom_site_label
_atom_site_fract_x
_atom_site_fract_y
_atom_site_fract_z
Si Si1 0.041761 0.423561 0.566437
Si Si2 0.968305 0.131414 0.566478
Si Si3 0.788451 0.034365 0.405510
Si Si4 0.296443 0.608566 0.425021
Si Si5 0.082509 0.290601 0.903700
O O1 0.174630 0.423626 0.548487
O O2 0.000000 0.424728 0.750000
O O3 0.000000 0.500000 0.500000
O O4 0.986538 0.350560 0.494973
O O5 0.894414 0.065128 0.500647
O O6 0.902370 0.207734 0.541752
O O7 0.000000 0.119392 0.750000
O O8 0.083852 0.140597 0.470961
O O9 0.806698 0.055479 0.224782
O O10 0.766928 0.948461 0.434577
O O11 0.202210 0.668976 0.386657
O O12 0.000000 0.281355 0.750000
#
# Coordination Sequence:
#
# PCOD9457112 Si02
#       5
#     8   8   8   8   8
#     4  11  20  40  65  98 130 171 218 273 334 389
#     4  11  27  44  66  97 139 181 223 272 335 401
#     4  12  23  43  70 100 132 173 225 279 330 396
#     4  12  24  43  73  98 134 177 224 278 336 400
#     4  10  22  43  66  97 136 172 217 275 339 389
#
# _framework density 21.708959
#
# number of rings (size 3 to 8) (size 9 to 14) (size 15 to 20)
#    0.000    0.800    6.000    2.400    2.800    0.000 
#    0.000    2.000    0.000    0.000    0.000    0.000 
#    0.000    0.000    0.000    0.000    0.000    0.000 
#
# Total GULP energy -223238.161881 kJ/mol
# GULP energy per Si atom -5580.954047 kJ/mol
# Density = 2.165955 g / cm^3
# Si number density = 21.708959 Si / 1000 Ang^3
#
#
#
# Elastic Constant Matrix: (Units=GPa)
#
#
# Indices 1 2 3 4 5 6 
#
# 1 142.0897 20.6157 18.8921 0.0000 0.0000 0.0000
# 2 20.6157 49.4201 -9.5390 0.0000 0.0000 0.0000
# 3 18.8921 -9.5390 37.2867 0.0000 0.0000 0.0000
# 4 0.0000 0.0000 0.0000 14.8830 0.0000 0.0000
# 5 0.0000 0.0000 0.0000 0.0000 24.1712 0.0000
# 6 0.0000 0.0000 0.0000 0.0000 0.0000 30.3763
#
#
#
# Elastic Compliance Matrix: (Units=1/GPa)
#
#
# Indices 1 2 3 4 5 6 
#
# 1 0.008422 -0.004562 -0.005435 0.000000 0.000000 0.000000
# 2 -0.004562 0.023757 0.008389 0.000000 0.000000 0.000000
# 3 -0.005435 0.008389 0.031719 0.000000 0.000000 0.000000
# 4 0.000000 0.000000 0.000000 0.067191 0.000000 0.000000
# 5 0.000000 0.000000 0.000000 0.000000 0.041372 0.000000
# 6 0.000000 0.000000 0.000000 0.000000 0.000000 0.032920
#
#
# Mechanical properties :
#
#
# Convention : Reuss Voigt Hill
#
# Bulk Modulus (GPa) = 16.47895 32.08157 24.28026
# Shear Modulus (GPa) = 21.85084 27.14127 24.49606
#
# Velocity S-wave (km/s) = 3.17604 3.53970 3.36279
# Velocity P-wave (km/s) = 4.58878 5.61392 5.12704
#
# Compressibility (1/GPa) = 0.06068349
#
# Stress axis : x y z
#
# Youngs Moduli (GPa) = 118.73205 42.09250 31.52686
#
# Poissons Ratio (x) = 0.19204 0.17133
# Poissons Ratio (y) = 0.54170 -0.26449
# Poissons Ratio (z) = 0.64525 -0.35313
#
# Static dielectric constant tensor:
#      x y z
#    x 1.794280 0.000000 0.000000 
#    y 0.000000 1.829400 0.000000 
#    z 0.000000 0.000000 1.840910 
# 
# From -- ./inp_files/4755.got.cif
#   From: 2010.05.17/outbox.cif.g08.bks.cpg/sg60_3_cif.got.tgz:4755.got - 2010.06.03 14:59:27.
