data_PCOD9457400
_publ_section_title
;
Structure prediction by ZEFSAII (Michael W. Deem and Ramdas Pophale) SiO2 
 PCOD9457400
Probable space group: P B C N
;
_chemical_formula_sum "Si O2"
_cell_formula_units_Z 48
_cell_length_a 14.455485
_cell_length_b 8.557322
_cell_length_c 16.983008
_cell_angle_alpha 90.000000
_cell_angle_beta 90.000000
_cell_angle_gamma 90.000000
_cell_volume 2100.802162
_symmetry_space_group_name_H-M "P B C N"
_symmetry_group_IT_number 60
_symmetry_cell_setting 'orthorhombic'
loop_
_space_group_symop_operation_xyz
x,y,z
1/2-x,1/2-y,1/2+z
1/2+x,1/2-y,-z
-x,y,1/2-z
-x,-y,-z
1/2+x,1/2+y,1/2-z
1/2-x,1/2+y,z
x,-y,1/2+z
loop_
_atom_site_type_symbol
_atom_site_label
_atom_site_fract_x
_atom_site_fract_y
_atom_site_fract_z
Si Si1 0.688930 0.598918 0.321864
Si Si2 0.977786 0.605938 0.074739
Si Si3 0.518815 0.201908 0.840887
Si Si4 0.149314 0.103854 0.359502
Si Si5 0.211006 0.203905 0.941475
Si Si6 0.166225 0.229381 0.597062
O O1 0.623438 0.741278 0.352701
O O2 0.660104 0.556827 0.232265
O O3 0.676341 0.448612 0.376474
O O4 0.792344 0.662540 0.332907
O O5 0.059369 0.730557 0.083895
O O6 0.988795 0.474110 0.141335
O O7 0.878636 0.684860 0.063027
O O8 0.000000 0.500000 0.000000
O O9 0.500000 0.226938 0.750000
O O10 0.450623 0.326888 0.881211
O O11 0.177773 0.969218 0.420152
O O12 0.220427 0.245110 0.371744
O O13 0.271886 0.225460 0.020479
#
# Coordination Sequence:
#
# PCOD9457400 Si02
#       6
#     8   8   8   8   8   8
#     4  11  23  42  65  94 129 168 211 261 316 378
#     4  12  25  42  64  92 126 164 211 264 317 376
#     4  10  23  42  67  96 129 166 211 262 317 376
#     4  11  23  42  65  94 129 168 211 261 316 378
#     4  12  25  42  66  95 128 169 214 262 318 378
#     4  12  25  42  66  95 128 169 214 262 318 378
#
# _framework density 22.848414999999999
#
# number of rings (size 3 to 8) (size 9 to 14) (size 15 to 20)
#    0.000    0.667    0.000    9.000    0.000    5.333 
#    0.000    5.000    0.000    0.000    0.000    0.000 
#    0.000    0.000    0.000    0.000    0.000    0.000 
#
# Total GULP energy -268464.580174 kJ/mol
# GULP energy per Si atom -5593.012087 kJ/mol
# Density = 2.279641 g / cm^3
# Si number density = 22.848415 Si / 1000 Ang^3
#
#
#
# Elastic Constant Matrix: (Units=GPa)
#
#
# Indices 1 2 3 4 5 6 
#
# 1 64.9797 -22.4762 8.5204 0.0000 0.0000 0.0000
# 2 -22.4762 62.6747 7.7699 0.0000 0.0000 0.0000
# 3 8.5204 7.7699 63.2784 0.0000 0.0000 0.0000
# 4 0.0000 0.0000 0.0000 32.3936 0.0000 0.0000
# 5 0.0000 0.0000 0.0000 0.0000 24.0026 0.0000
# 6 0.0000 0.0000 0.0000 0.0000 0.0000 47.6817
#
#
#
# Elastic Compliance Matrix: (Units=1/GPa)
#
#
# Indices 1 2 3 4 5 6 
#
# 1 0.018226 0.006946 -0.003307 0.000000 0.000000 0.000000
# 2 0.006946 0.018849 -0.003250 0.000000 0.000000 0.000000
# 3 -0.003307 -0.003250 0.016647 0.000000 0.000000 0.000000
# 4 0.000000 0.000000 0.000000 0.030870 0.000000 0.000000
# 5 0.000000 0.000000 0.000000 0.000000 0.041662 0.000000
# 6 0.000000 0.000000 0.000000 0.000000 0.000000 0.020972
#
#
# Mechanical properties :
#
#
# Convention : Reuss Voigt Hill
#
# Bulk Modulus (GPa) = 18.34833 19.84012 19.09423
# Shear Modulus (GPa) = 30.37378 33.95683 32.16531
#
# Velocity S-wave (km/s) = 3.65000 3.85928 3.75610
# Velocity P-wave (km/s) = 5.08047 5.34425 5.21403
#
# Compressibility (1/GPa) = 0.05450086
#
# Stress axis : x y z
#
# Youngs Moduli (GPa) = 54.86783 53.05258 60.06910
#
# Poissons Ratio (x) = -0.36850 0.19865
# Poissons Ratio (y) = -0.38111 0.19521
# Poissons Ratio (z) = 0.18145 0.17241
#
# Static dielectric constant tensor:
#      x y z
#    x 1.910920 0.000000 0.000000 
#    y 0.000000 1.815050 0.000000 
#    z 0.000000 0.000000 1.822480 
# 
# From -- ./inp_files/20527.got.cif
#   From: 2010.05.17/outbox.cif.g08.bks.cpg/sg60_11_cif.got.tgz:20527.got - 2010.06.03 14:59:27.
