data_PCOD9457123
_publ_section_title
;
Structure prediction by ZEFSAII (Michael W. Deem and Ramdas Pophale) SiO2 
 PCOD9457123
Probable space group: P B C N
;
_chemical_formula_sum "Si O2"
_cell_formula_units_Z 32
_cell_length_a 27.410121
_cell_length_b 4.681204
_cell_length_c 8.901199
_cell_angle_alpha 90.000000
_cell_angle_beta 90.000000
_cell_angle_gamma 90.000000
_cell_volume 1142.133922
_symmetry_space_group_name_H-M "P B C N"
_symmetry_group_IT_number 60
_symmetry_cell_setting 'orthorhombic'
loop_
_space_group_symop_operation_xyz
x,y,z
1/2-x,1/2-y,1/2+z
1/2+x,1/2-y,-z
-x,y,1/2-z
-x,-y,-z
1/2+x,1/2+y,1/2-z
1/2-x,1/2+y,z
x,-y,1/2+z
loop_
_atom_site_type_symbol
_atom_site_label
_atom_site_fract_x
_atom_site_fract_y
_atom_site_fract_z
Si Si1 0.159778 0.598411 0.835210
Si Si2 0.500000 0.500000 0.000000
Si Si3 0.000000 0.565214 0.750000
Si Si4 0.412665 0.889464 0.089139
Si Si5 0.282634 0.308966 0.114375
O O1 0.120893 0.507630 0.960639
O O2 0.198111 0.753532 0.945622
O O3 0.125045 0.740820 0.709627
O O4 0.183905 0.332058 0.743575
O O5 0.448083 0.662292 0.015801
O O6 0.521437 0.725326 0.127069
O O7 0.045298 0.404230 0.671621
O O8 0.268954 0.639408 0.129501
#
# Coordination Sequence:
#
# PCOD9457123 Si02
#       5
#     8   4   4   8   8
#     4  10  22  43  68 105 140 188 255 304 355 471
#     4   8  18  42  60  94 132 186 234 282 360 416
#     4   8  18  40  62  88 136 186 234 292 356 420
#     4   9  20  42  62  99 136 185 242 290 369 415
#     4  11  24  48  74 106 149 190 241 312 395 437
#
# _framework density 28.017728000000002
#
# number of rings (size 3 to 8) (size 9 to 14) (size 15 to 20)
#    1.500    1.000    0.000    1.500    0.000    1.000 
#   27.000    0.000    0.000    0.000    0.000    0.000 
#    0.000    0.000    0.000    0.000    0.000    0.000 
#
# Total GULP energy -178144.827546 kJ/mol
# GULP energy per Si atom -5567.025861 kJ/mol
# Density = 2.795396 g / cm^3
# Si number density = 28.017728 Si / 1000 Ang^3
#
#
#
# Elastic Constant Matrix: (Units=GPa)
#
#
# Indices 1 2 3 4 5 6 
#
# 1 130.4686 -5.5304 23.3585 0.0000 0.0000 0.0000
# 2 -5.5304 56.2926 8.5297 0.0000 0.0000 0.0000
# 3 23.3585 8.5297 161.2619 0.0000 0.0000 0.0000
# 4 0.0000 0.0000 0.0000 -0.3615 0.0000 0.0000
# 5 0.0000 0.0000 0.0000 0.0000 67.0349 0.0000
# 6 0.0000 0.0000 0.0000 0.0000 0.0000 24.3753
#
#
#
# Elastic Compliance Matrix: (Units=1/GPa)
#
#
# Indices 1 2 3 4 5 6 
#
# 1 0.007920 0.000960 -0.001198 0.000000 0.000000 0.000000
# 2 0.000960 0.018024 -0.001092 0.000000 0.000000 0.000000
# 3 -0.001198 -0.001092 0.006432 0.000000 0.000000 0.000000
# 4 0.000000 0.000000 0.000000 -2.766181 0.000000 0.000000
# 5 0.000000 0.000000 0.000000 0.000000 0.014918 0.000000
# 6 0.000000 0.000000 0.000000 0.000000 0.000000 0.041025
#
#
# Mechanical properties :
#
#
# Convention : Reuss Voigt Hill
#
# Bulk Modulus (GPa) = 33.65307 44.52650 39.08978
# Shear Modulus (GPa) = -1.87596 39.65408 18.88906
#
# Velocity S-wave (km/s) = -0.81916 3.76616 2.59932
# Velocity P-wave (km/s) = 3.33807 5.90243 4.79486
#
# Compressibility (1/GPa) = 0.02971497
#
# Stress axis : x y z
#
# Youngs Moduli (GPa) = 126.26534 55.48120 155.46325
#
# Poissons Ratio (x) = -0.05324 0.18623
# Poissons Ratio (y) = -0.12116 0.16982
# Poissons Ratio (z) = 0.15126 0.06060
#
# Static dielectric constant tensor:
#      x y z
#    x 2.269620 0.000000 0.000000 
#    y 0.000000 2.323460 0.000000 
#    z 0.000000 0.000000 1.460050 
# 
# From -- ./inp_files/8319.got.cif
#   From: 2010.05.17/outbox.cif.g08.bks.cpg/sg60_5_cif.got.tgz:8319.got - 2010.06.03 14:59:27.
