data_PCOD9457984
_publ_section_title
;
Structure prediction by ZEFSAII (Michael W. Deem and Ramdas Pophale) SiO2 
 PCOD9457984
Probable space group: P B C N
;
_chemical_formula_sum "Si O2"
_cell_formula_units_Z 20
_cell_length_a 7.595317
_cell_length_b 8.632289
_cell_length_c 10.979530
_cell_angle_alpha 90.000000
_cell_angle_beta 90.000000
_cell_angle_gamma 90.000000
_cell_volume 719.872570
_symmetry_space_group_name_H-M "P B C N"
_symmetry_group_IT_number 60
_symmetry_cell_setting 'orthorhombic'
loop_
_space_group_symop_operation_xyz
x,y,z
1/2-x,1/2-y,1/2+z
1/2+x,1/2-y,-z
-x,y,1/2-z
-x,-y,-z
1/2+x,1/2+y,1/2-z
1/2-x,1/2+y,z
x,-y,1/2+z
loop_
_atom_site_type_symbol
_atom_site_label
_atom_site_fract_x
_atom_site_fract_y
_atom_site_fract_z
Si Si1 0.636988 0.458857 0.643561
Si Si2 0.500000 0.126942 0.250000
Si Si3 0.633039 0.853685 0.999241
O O1 0.500000 0.490227 0.750000
O O2 0.676628 0.569774 0.527002
O O3 0.616368 0.283823 0.595412
O O4 0.830052 0.469137 0.707843
O O5 0.412371 0.213241 0.134480
O O6 0.500000 0.000000 0.000000
#
# Coordination Sequence:
#
# PCOD9457984 Si02
#       3
#     8   4   8
#     4  11  27  48  81 110 159 208 259 328 402 463
#     4  10  26  48  76 110 158 192 274 332 378 482
#     4  10  26  49  73 116 155 203 265 325 387 473
#
# _framework density 27.782693999999999
#
# number of rings (size 3 to 8) (size 9 to 14) (size 15 to 20)
#    0.000    1.600    0.000    0.000   25.200    1.600 
#    0.000    0.000    0.000    0.000    0.000    0.000 
#    0.000    0.000    0.000    0.000    0.000    0.000 
#
# Total GULP energy -111714.642382 kJ/mol
# GULP energy per Si atom -5585.732119 kJ/mol
# Density = 2.771946 g / cm^3
# Si number density = 27.782694 Si / 1000 Ang^3
#
#
#
# Elastic Constant Matrix: (Units=GPa)
#
#
# Indices 1 2 3 4 5 6 
#
# 1 202.5755 65.5578 75.2862 0.0000 0.0000 0.0000
# 2 65.5578 187.4248 87.1058 0.0000 0.0000 0.0000
# 3 75.2862 87.1058 176.8209 0.0000 0.0000 0.0000
# 4 0.0000 0.0000 0.0000 53.2245 0.0000 0.0000
# 5 0.0000 0.0000 0.0000 0.0000 67.7618 0.0000
# 6 0.0000 0.0000 0.0000 0.0000 0.0000 42.4556
#
#
#
# Elastic Compliance Matrix: (Units=1/GPa)
#
#
# Indices 1 2 3 4 5 6 
#
# 1 0.006064 -0.001195 -0.001993 0.000000 0.000000 0.000000
# 2 -0.001195 0.007155 -0.003016 0.000000 0.000000 0.000000
# 3 -0.001993 -0.003016 0.007990 0.000000 0.000000 0.000000
# 4 0.000000 0.000000 0.000000 0.018788 0.000000 0.000000
# 5 0.000000 0.000000 0.000000 0.000000 0.014758 0.000000
# 6 0.000000 0.000000 0.000000 0.000000 0.000000 0.023554
#
#
# Mechanical properties :
#
#
# Convention : Reuss Voigt Hill
#
# Bulk Modulus (GPa) = 113.62681 113.63564 113.63122
# Shear Modulus (GPa) = 53.38996 55.27979 54.33488
#
# Velocity S-wave (km/s) = 4.38847 4.46547 4.42714
# Velocity P-wave (km/s) = 8.16489 8.22056 8.19277
#
# Compressibility (1/GPa) = 0.00880074
#
# Stress axis : x y z
#
# Youngs Moduli (GPa) = 164.91159 139.76121 125.15707
#
# Poissons Ratio (x) = 0.16696 0.24948
# Poissons Ratio (y) = 0.19701 0.37749
# Poissons Ratio (z) = 0.32873 0.42153
#
# Static dielectric constant tensor:
#      x y z
#    x 2.222310 0.000000 0.000000 
#    y 0.000000 2.157560 0.000000 
#    z 0.000000 0.000000 2.566750 
# 
# From -- ./inp_files/3220.got.cif
#   From: 2010.05.17/outbox.cif.g08.bks.cpg/sg60_2_cif.got.tgz:3220.got - 2010.06.03 14:59:27.
