data_PCOD9457882
_publ_section_title
;
Structure prediction by ZEFSAII (Michael W. Deem and Ramdas Pophale) SiO2 
 PCOD9457882
Probable space group: P B C N
;
_chemical_formula_sum "Si O2"
_cell_formula_units_Z 28
_cell_length_a 7.162628
_cell_length_b 15.969105
_cell_length_c 12.737251
_cell_angle_alpha 90.000000
_cell_angle_beta 90.000000
_cell_angle_gamma 90.000000
_cell_volume 1456.896432
_symmetry_space_group_name_H-M "P B C N"
_symmetry_group_IT_number 60
_symmetry_cell_setting 'orthorhombic'
loop_
_space_group_symop_operation_xyz
x,y,z
1/2-x,1/2-y,1/2+z
1/2+x,1/2-y,-z
-x,y,1/2-z
-x,-y,-z
1/2+x,1/2+y,1/2-z
1/2-x,1/2+y,z
x,-y,1/2+z
loop_
_atom_site_type_symbol
_atom_site_label
_atom_site_fract_x
_atom_site_fract_y
_atom_site_fract_z
Si Si1 0.784136 0.503921 0.471932
Si Si2 0.831828 0.137529 0.829384
Si Si3 0.476681 0.368524 0.950286
Si Si4 0.500000 0.253048 0.750000
O O1 0.751813 0.451884 0.364810
O O2 0.660312 0.449877 0.555018
O O3 0.684779 0.593551 0.462946
O O4 0.000000 0.500000 0.500000
O O5 0.674604 0.195454 0.780390
O O6 0.000000 0.126437 0.750000
O O7 0.911755 0.173253 0.940244
O O8 0.457892 0.310418 0.850642
#
# Coordination Sequence:
#
# PCOD9457882 Si02
#       4
#     8   8   8   4
#     4   9  21  44  71  91 132 171 219 274 321 397
#     4  10  25  40  66  93 136 169 218 270 328 393
#     4   9  24  41  63 100 131 161 230 266 320 396
#     4  12  26  40  70  94 136 176 208 280 336 392
#
# _framework density 19.218935999999999
#
# number of rings (size 3 to 8) (size 9 to 14) (size 15 to 20)
#    1.714    0.571    0.000    0.000   10.000    2.286 
#    0.000    0.000    0.000    0.000    0.000    0.000 
#    0.000    0.000    0.000    0.000    0.000    0.000 
#
# Total GULP energy -156013.349692 kJ/mol
# GULP energy per Si atom -5571.905346 kJ/mol
# Density = 1.917519 g / cm^3
# Si number density = 19.218936 Si / 1000 Ang^3
#
#
#
# Elastic Constant Matrix: (Units=GPa)
#
#
# Indices 1 2 3 4 5 6 
#
# 1 162.6050 59.4442 80.6032 0.0000 0.0000 0.0000
# 2 59.4442 68.2146 53.1691 0.0000 0.0000 0.0000
# 3 80.6032 53.1691 143.8614 0.0000 0.0000 0.0000
# 4 0.0000 0.0000 0.0000 48.2094 0.0000 0.0000
# 5 0.0000 0.0000 0.0000 0.0000 21.6597 0.0000
# 6 0.0000 0.0000 0.0000 0.0000 0.0000 56.8006
#
#
#
# Elastic Compliance Matrix: (Units=1/GPa)
#
#
# Indices 1 2 3 4 5 6 
#
# 1 0.010067 -0.006147 -0.003368 0.000000 0.000000 0.000000
# 2 -0.006147 0.024345 -0.005553 0.000000 0.000000 0.000000
# 3 -0.003368 -0.005553 0.010891 0.000000 0.000000 0.000000
# 4 0.000000 0.000000 0.000000 0.020743 0.000000 0.000000
# 5 0.000000 0.000000 0.000000 0.000000 0.046169 0.000000
# 6 0.000000 0.000000 0.000000 0.000000 0.000000 0.017605
#
#
# Mechanical properties :
#
#
# Convention : Reuss Voigt Hill
#
# Bulk Modulus (GPa) = 65.94222 84.56823 75.25522
# Shear Modulus (GPa) = 30.30083 37.43160 33.86621
#
# Velocity S-wave (km/s) = 3.97497 4.41800 4.20232
# Velocity P-wave (km/s) = 7.44666 8.37395 7.92388
#
# Compressibility (1/GPa) = 0.01516479
#
# Stress axis : x y z
#
# Youngs Moduli (GPa) = 99.33663 41.07642 91.82015
#
# Poissons Ratio (x) = 0.25250 0.30929
# Poissons Ratio (y) = 0.61063 0.50992
# Poissons Ratio (z) = 0.33461 0.22812
#
# Static dielectric constant tensor:
#      x y z
#    x 1.652470 0.000000 0.000000 
#    y 0.000000 1.685570 0.000000 
#    z 0.000000 0.000000 1.631930 
# 
# From -- ./inp_files/8750.got.cif
#   From: 2010.05.17/outbox.cif.g08.bks.cpg/sg60_5_cif.got.tgz:8750.got - 2010.06.03 14:59:27.
