data_PCOD9457242
_publ_section_title
;
Structure prediction by ZEFSAII (Michael W. Deem and Ramdas Pophale) SiO2 
 PCOD9457242
Probable space group: P B C N
;
_chemical_formula_sum "Si O2"
_cell_formula_units_Z 40
_cell_length_a 17.292509
_cell_length_b 7.743346
_cell_length_c 11.820714
_cell_angle_alpha 90.000000
_cell_angle_beta 90.000000
_cell_angle_gamma 90.000000
_cell_volume 1582.815832
_symmetry_space_group_name_H-M "P B C N"
_symmetry_group_IT_number 60
_symmetry_cell_setting 'orthorhombic'
loop_
_space_group_symop_operation_xyz
x,y,z
1/2-x,1/2-y,1/2+z
1/2+x,1/2-y,-z
-x,y,1/2-z
-x,-y,-z
1/2+x,1/2+y,1/2-z
1/2-x,1/2+y,z
x,-y,1/2+z
loop_
_atom_site_type_symbol
_atom_site_label
_atom_site_fract_x
_atom_site_fract_y
_atom_site_fract_z
Si Si1 0.159414 0.187018 0.061877
Si Si2 0.816917 0.206329 0.988903
Si Si3 0.469503 0.843525 0.925419
Si Si4 0.389994 0.746278 0.722428
Si Si5 0.091695 0.152812 0.286757
O O1 0.226690 0.270039 0.985668
O O2 0.146260 0.239660 0.191401
O O3 0.173303 0.985890 0.054936
O O4 0.076997 0.222783 0.007852
O O5 0.827042 0.309169 0.869355
O O6 0.877159 0.223318 0.092246
O O7 0.411716 0.881620 0.820457
O O8 0.537649 0.742897 0.863685
O O9 0.500000 0.000000 0.000000
O O10 0.387529 0.554730 0.778545
O O11 0.000000 0.173292 0.250000
#
# Coordination Sequence:
#
# PCOD9457242 Si02
#       5
#     8   8   8   8   8
#     4  11  26  43  69 111 145 197 249 301 385 448
#     4  11  25  44  72 106 153 198 245 317 374 461
#     4  11  23  45  72 102 147 194 251 319 371 444
#     4  10  22  46  70 104 144 195 250 311 374 447
#     4  11  21  45  78 103 145 202 258 305 379 464
#
# _framework density 25.271418000000001
#
# number of rings (size 3 to 8) (size 9 to 14) (size 15 to 20)
#    0.000    1.200    4.000    1.200    5.600    3.200 
#   10.800    0.000    0.000    0.000    0.000    0.000 
#    0.000    0.000    0.000    0.000    0.000    0.000 
#
# Total GULP energy -223137.776201 kJ/mol
# GULP energy per Si atom -5578.444405 kJ/mol
# Density = 2.521390 g / cm^3
# Si number density = 25.271418 Si / 1000 Ang^3
#
#
#
# Elastic Constant Matrix: (Units=GPa)
#
#
# Indices 1 2 3 4 5 6 
#
# 1 89.0979 14.5218 33.3104 0.0000 0.0000 0.0000
# 2 14.5218 55.0528 23.5578 0.0000 0.0000 0.0000
# 3 33.3104 23.5578 165.9879 0.0000 0.0000 0.0000
# 4 0.0000 0.0000 0.0000 -1.2930 0.0000 0.0000
# 5 0.0000 0.0000 0.0000 0.0000 52.2269 0.0000
# 6 0.0000 0.0000 0.0000 0.0000 0.0000 35.2068
#
#
#
# Elastic Compliance Matrix: (Units=1/GPa)
#
#
# Indices 1 2 3 4 5 6 
#
# 1 0.012413 -0.002351 -0.002157 0.000000 0.000000 0.000000
# 2 -0.002351 0.019784 -0.002336 0.000000 0.000000 0.000000
# 3 -0.002157 -0.002336 0.006789 0.000000 0.000000 0.000000
# 4 0.000000 0.000000 0.000000 -0.773398 0.000000 0.000000
# 5 0.000000 0.000000 0.000000 0.000000 0.019147 0.000000
# 6 0.000000 0.000000 0.000000 0.000000 0.000000 0.028404
#
#
# Mechanical properties :
#
#
# Convention : Reuss Voigt Hill
#
# Bulk Modulus (GPa) = 39.52991 50.32429 44.92710
# Shear Modulus (GPa) = -7.52175 33.14473 12.81149
#
# Velocity S-wave (km/s) = -1.72709 3.62546 2.25401
# Velocity P-wave (km/s) = 3.42038 6.12226 4.95888
#
# Compressibility (1/GPa) = 0.02529730
#
# Stress axis : x y z
#
# Youngs Moduli (GPa) = 80.55809 50.54540 147.29656
#
# Poissons Ratio (x) = 0.11884 0.31778
# Poissons Ratio (y) = 0.18941 0.34409
# Poissons Ratio (z) = 0.17380 0.11808
#
# Static dielectric constant tensor:
#      x y z
#    x 2.265520 0.000000 0.000000 
#    y 0.000000 1.804960 0.000000 
#    z 0.000000 0.000000 2.106420 
# 
# From -- ./inp_files/12276.got.cif
#   From: 2010.05.17/outbox.cif.g08.bks.cpg/sg60_7_cif.got.tgz:12276.got - 2010.06.03 14:59:27.
