data_PCOD9457018
_publ_section_title
;
Structure prediction by ZEFSAII (Michael W. Deem and Ramdas Pophale) SiO2 
 PCOD9457018
Probable space group: P B C N
;
_chemical_formula_sum "Si O2"
_cell_formula_units_Z 40
_cell_length_a 8.867416
_cell_length_b 10.646413
_cell_length_c 20.315901
_cell_angle_alpha 90.000000
_cell_angle_beta 90.000000
_cell_angle_gamma 90.000000
_cell_volume 1917.946464
_symmetry_space_group_name_H-M "P B C N"
_symmetry_group_IT_number 60
_symmetry_cell_setting 'orthorhombic'
loop_
_space_group_symop_operation_xyz
x,y,z
1/2-x,1/2-y,1/2+z
1/2+x,1/2-y,-z
-x,y,1/2-z
-x,-y,-z
1/2+x,1/2+y,1/2-z
1/2-x,1/2+y,z
x,-y,1/2+z
loop_
_atom_site_type_symbol
_atom_site_label
_atom_site_fract_x
_atom_site_fract_y
_atom_site_fract_z
Si Si1 0.134015 0.990282 0.901706
Si Si2 0.659785 0.610193 0.955823
Si Si3 0.060940 0.484169 0.326030
Si Si4 0.824594 0.628807 0.392360
Si Si5 0.944589 0.786392 0.823572
O O1 0.264675 0.028079 0.849537
O O2 0.034001 0.886008 0.866113
O O3 0.190054 0.924806 0.968630
O O4 0.013642 0.092125 0.930094
O O5 0.695462 0.755759 0.942365
O O6 0.751862 0.501074 0.917690
O O7 0.000000 0.500736 0.250000
O O8 0.991273 0.596697 0.368740
O O9 0.983416 0.353133 0.346539
O O10 0.729679 0.678565 0.329937
O O11 0.000000 0.796091 0.750000
#
# Coordination Sequence:
#
# PCOD9457018 Si02
#       5
#     8   8   8   8   8
#     4  10  24  42  65  96 129 175 217 275 325 407
#     4  10  24  42  67  94 135 168 224 263 346 382
#     4  11  24  40  66  97 130 174 225 267 334 398
#     4  11  22  44  63  97 128 174 213 281 321 407
#     4  10  22  42  64  90 134 169 218 273 328 396
#
# _framework density 20.855640000000001
#
# number of rings (size 3 to 8) (size 9 to 14) (size 15 to 20)
#    0.000    1.600    2.000    1.200    5.600    4.000 
#    0.000    1.000    0.000    0.000    0.000    0.000 
#    0.000    0.000    0.000    0.000    0.000    0.000 
#
# Total GULP energy -222776.772118 kJ/mol
# GULP energy per Si atom -5569.419303 kJ/mol
# Density = 2.080817 g / cm^3
# Si number density = 20.855640 Si / 1000 Ang^3
#
#
#
# Elastic Constant Matrix: (Units=GPa)
#
#
# Indices 1 2 3 4 5 6 
#
# 1 76.7535 15.9434 27.1112 0.0000 0.0000 0.0000
# 2 15.9434 76.7043 6.5049 0.0000 0.0000 0.0000
# 3 27.1112 6.5049 57.4603 0.0000 0.0000 0.0000
# 4 0.0000 0.0000 0.0000 28.9421 0.0000 0.0000
# 5 0.0000 0.0000 0.0000 0.0000 28.8835 0.0000
# 6 0.0000 0.0000 0.0000 0.0000 0.0000 16.5232
#
#
#
# Elastic Compliance Matrix: (Units=1/GPa)
#
#
# Indices 1 2 3 4 5 6 
#
# 1 0.016186 -0.002743 -0.007327 0.000000 0.000000 0.000000
# 2 -0.002743 0.013628 -0.000249 0.000000 0.000000 0.000000
# 3 -0.007327 -0.000249 0.020888 0.000000 0.000000 0.000000
# 4 0.000000 0.000000 0.000000 0.034552 0.000000 0.000000
# 5 0.000000 0.000000 0.000000 0.000000 0.034622 0.000000
# 6 0.000000 0.000000 0.000000 0.000000 0.000000 0.060521
#
#
# Mechanical properties :
#
#
# Convention : Reuss Voigt Hill
#
# Bulk Modulus (GPa) = 33.25956 34.44857 33.85407
# Shear Modulus (GPa) = 23.69035 25.62701 24.65868
#
# Velocity S-wave (km/s) = 3.37400 3.50920 3.44226
# Velocity P-wave (km/s) = 5.58217 5.74219 5.66275
#
# Compressibility (1/GPa) = 0.03006654
#
# Stress axis : x y z
#
# Youngs Moduli (GPa) = 61.77994 73.37653 47.87352
#
# Poissons Ratio (x) = 0.20128 0.35075
# Poissons Ratio (y) = 0.16947 0.01190
# Poissons Ratio (z) = 0.45264 0.01824
#
# Static dielectric constant tensor:
#      x y z
#    x 2.189550 0.000000 0.000000 
#    y 0.000000 1.735360 0.000000 
#    z 0.000000 0.000000 1.896480 
# 
# From -- ./inp_files/19000.got.cif
#   From: 2010.05.17/outbox.cif.g08.bks.cpg/sg60_10_cif.got.tgz:19000.got - 2010.06.03 14:59:27.
