data_PCOD9457402
_publ_section_title
;
Structure prediction by ZEFSAII (Michael W. Deem and Ramdas Pophale) SiO2 
 PCOD9457402
Probable space group: P B C N
;
_chemical_formula_sum "Si O2"
_cell_formula_units_Z 64
_cell_length_a 10.974819
_cell_length_b 15.356300
_cell_length_c 17.422619
_cell_angle_alpha 90.000000
_cell_angle_beta 90.000000
_cell_angle_gamma 90.000000
_cell_volume 2936.279506
_symmetry_space_group_name_H-M "P B C N"
_symmetry_group_IT_number 60
_symmetry_cell_setting 'orthorhombic'
loop_
_space_group_symop_operation_xyz
x,y,z
1/2-x,1/2-y,1/2+z
1/2+x,1/2-y,-z
-x,y,1/2-z
-x,-y,-z
1/2+x,1/2+y,1/2-z
1/2-x,1/2+y,z
x,-y,1/2+z
loop_
_atom_site_type_symbol
_atom_site_label
_atom_site_fract_x
_atom_site_fract_y
_atom_site_fract_z
Si Si1 0.559994 0.452058 0.428544
Si Si2 0.536404 0.150934 0.329896
Si Si3 0.902306 0.650862 0.905443
Si Si4 0.774988 0.502033 0.321689
Si Si5 0.186736 0.400700 0.920757
Si Si6 0.324415 0.221777 0.900780
Si Si7 0.313129 0.558448 0.844718
Si Si8 0.329556 0.267169 0.063631
O O1 0.500000 0.500000 0.500000
O O2 0.669399 0.501338 0.385731
O O3 0.454768 0.435284 0.366021
O O4 0.618546 0.361903 0.458487
O O5 0.500000 0.191566 0.250000
O O6 0.655061 0.092508 0.318937
O O7 0.427132 0.094276 0.363214
O O8 0.563297 0.224012 0.390633
O O9 0.874672 0.569615 0.850040
O O10 0.792300 0.717645 0.888505
O O11 0.032180 0.697306 0.894426
O O12 0.871310 0.620322 0.994328
O O13 0.717480 0.477516 0.239733
O O14 0.273139 0.320409 0.891616
O O15 0.255499 0.491733 0.908016
O O16 0.249010 0.152507 0.852726
O O17 0.297812 0.208538 0.991157
#
# Coordination Sequence:
#
# PCOD9457402 Si02
#       8
#     8   8   8   8   8   8   8   8
#     4  11  25  46  75 100 139 180 238 294 348 430
#     4  12  24  43  69  95 145 180 227 290 352 423
#     4  10  23  42  67  98 137 172 239 287 334 425
#     4  11  26  45  67 104 135 186 235 283 362 420
#     4  11  24  43  66 108 132 180 240 281 348 421
#     4  11  24  41  71  99 140 180 229 292 346 409
#     4  12  25  44  72  99 145 186 225 291 353 418
#     4  10  24  41  66 105 133 182 234 286 359 414
#
# _framework density 21.796289999999999
#
# number of rings (size 3 to 8) (size 9 to 14) (size 15 to 20)
#    0.000    1.000    2.500    4.125    5.250    6.000 
#    0.000    0.000    2.750    0.000    0.000    0.000 
#    0.000    0.000    0.000    0.000    0.000    0.000 
#
# Total GULP energy -357454.303965 kJ/mol
# GULP energy per Si atom -5585.223499 kJ/mol
# Density = 2.174668 g / cm^3
# Si number density = 21.796290 Si / 1000 Ang^3
#
#
#
# Elastic Constant Matrix: (Units=GPa)
#
#
# Indices 1 2 3 4 5 6 
#
# 1 95.3318 24.2127 7.9201 0.0000 0.0000 0.0000
# 2 24.2127 56.6311 9.6787 0.0000 0.0000 0.0000
# 3 7.9201 9.6787 76.2925 0.0000 0.0000 0.0000
# 4 0.0000 0.0000 0.0000 13.0530 0.0000 0.0000
# 5 0.0000 0.0000 0.0000 0.0000 27.7795 0.0000
# 6 0.0000 0.0000 0.0000 0.0000 0.0000 30.0389
#
#
#
# Elastic Compliance Matrix: (Units=1/GPa)
#
#
# Indices 1 2 3 4 5 6 
#
# 1 0.011794 -0.004940 -0.000598 0.000000 0.000000 0.000000
# 2 -0.004940 0.020119 -0.002039 0.000000 0.000000 0.000000
# 3 -0.000598 -0.002039 0.013428 0.000000 0.000000 0.000000
# 4 0.000000 0.000000 0.000000 0.076611 0.000000 0.000000
# 5 0.000000 0.000000 0.000000 0.000000 0.035998 0.000000
# 6 0.000000 0.000000 0.000000 0.000000 0.000000 0.033290
#
#
# Mechanical properties :
#
#
# Convention : Reuss Voigt Hill
#
# Bulk Modulus (GPa) = 33.12765 34.65315 33.89040
# Shear Modulus (GPa) = 23.09925 26.60387 24.85156
#
# Velocity S-wave (km/s) = 3.25896 3.49745 3.38031
# Velocity P-wave (km/s) = 5.42151 5.67827 5.55138
#
# Compressibility (1/GPa) = 0.03018626
#
# Stress axis : x y z
#
# Youngs Moduli (GPa) = 84.78795 49.70426 74.47000
#
# Poissons Ratio (x) = 0.24556 0.04451
# Poissons Ratio (y) = 0.41889 0.15188
# Poissons Ratio (z) = 0.05067 0.10137
#
# Static dielectric constant tensor:
#      x y z
#    x 1.804010 0.000000 0.000000 
#    y 0.000000 1.799640 0.000000 
#    z 0.000000 0.000000 1.815320 
# 
# From -- ./inp_files/20216.got.cif
#   From: 2010.05.17/outbox.cif.g08.bks.cpg/sg60_11_cif.got.tgz:20216.got - 2010.06.03 14:59:27.
