data_PCOD9457532
_publ_section_title
;
Structure prediction by ZEFSAII (Michael W. Deem and Ramdas Pophale) SiO2 
 PCOD9457532
Probable space group: P B C N
;
_chemical_formula_sum "Si O2"
_cell_formula_units_Z 40
_cell_length_a 13.135777
_cell_length_b 12.400245
_cell_length_c 9.521096
_cell_angle_alpha 90.000000
_cell_angle_beta 90.000000
_cell_angle_gamma 90.000000
_cell_volume 1550.861365
_symmetry_space_group_name_H-M "P B C N"
_symmetry_group_IT_number 60
_symmetry_cell_setting 'orthorhombic'
loop_
_space_group_symop_operation_xyz
x,y,z
1/2-x,1/2-y,1/2+z
1/2+x,1/2-y,-z
-x,y,1/2-z
-x,-y,-z
1/2+x,1/2+y,1/2-z
1/2-x,1/2+y,z
x,-y,1/2+z
loop_
_atom_site_type_symbol
_atom_site_label
_atom_site_fract_x
_atom_site_fract_y
_atom_site_fract_z
Si Si1 0.917304 0.416111 0.447619
Si Si2 0.317302 0.032418 0.279357
Si Si3 0.865934 0.804373 0.004211
Si Si4 0.329556 0.740827 0.677388
Si Si5 0.902381 0.984704 0.349342
O O1 0.825386 0.448470 0.555024
O O2 0.881380 0.435400 0.288730
O O3 0.945296 0.293065 0.480145
O O4 0.000000 0.500000 0.500000
O O5 0.368365 0.137451 0.204325
O O6 0.201530 0.017977 0.232778
O O7 0.823074 0.800031 0.161458
O O8 0.906044 0.921990 0.966254
O O9 0.774496 0.764741 0.903455
O O10 0.387922 0.640656 0.607124
O O11 0.000000 0.992697 0.250000
#
# Coordination Sequence:
#
# PCOD9457532 Si02
#       5
#     8   8   8   8   8
#     4  11  23  44  72 103 138 185 243 296 361 431
#     4  10  24  44  69 102 141 182 235 297 362 425
#     4  10  24  45  69 107 142 189 245 298 368 424
#     4  10  23  44  71  96 144 187 234 298 360 429
#     4  11  25  43  69 104 146 190 238 293 363 439
#
# _framework density 25.792119
#
# number of rings (size 3 to 8) (size 9 to 14) (size 15 to 20)
#    0.000    1.600    2.000    0.600    5.600    7.200 
#    0.000    0.000    0.000    0.000    0.000    0.000 
#    0.000    0.000    0.000    0.000    0.000    0.000 
#
# Total GULP energy -223742.109206 kJ/mol
# GULP energy per Si atom -5593.552730 kJ/mol
# Density = 2.573341 g / cm^3
# Si number density = 25.792119 Si / 1000 Ang^3
#
#
#
# Elastic Constant Matrix: (Units=GPa)
#
#
# Indices 1 2 3 4 5 6 
#
# 1 93.4919 41.1298 20.9687 0.0000 0.0000 0.0000
# 2 41.1298 190.6109 64.3599 0.0000 0.0000 0.0000
# 3 20.9687 64.3599 62.8383 0.0000 0.0000 0.0000
# 4 0.0000 0.0000 0.0000 53.1920 0.0000 0.0000
# 5 0.0000 0.0000 0.0000 0.0000 38.1315 0.0000
# 6 0.0000 0.0000 0.0000 0.0000 0.0000 40.0895
#
#
#
# Elastic Compliance Matrix: (Units=1/GPa)
#
#
# Indices 1 2 3 4 5 6 
#
# 1 0.011991 -0.001890 -0.002066 0.000000 0.000000 0.000000
# 2 -0.001890 0.008318 -0.007888 0.000000 0.000000 0.000000
# 3 -0.002066 -0.007888 0.024682 0.000000 0.000000 0.000000
# 4 0.000000 0.000000 0.000000 0.018800 0.000000 0.000000
# 5 0.000000 0.000000 0.000000 0.000000 0.026225 0.000000
# 6 0.000000 0.000000 0.000000 0.000000 0.000000 0.024944
#
#
# Mechanical properties :
#
#
# Convention : Reuss Voigt Hill
#
# Bulk Modulus (GPa) = 46.94123 66.65087 56.79605
# Shear Modulus (GPa) = 34.30563 40.98145 37.64354
#
# Velocity S-wave (km/s) = 3.65099 3.99044 3.82448
# Velocity P-wave (km/s) = 6.00102 6.86507 6.44754
#
# Compressibility (1/GPa) = 0.02130323
#
# Stress axis : x y z
#
# Youngs Moduli (GPa) = 83.39714 120.22699 40.51458
#
# Poissons Ratio (x) = 0.22722 0.08368
# Poissons Ratio (y) = 0.15762 0.31959
# Poissons Ratio (z) = 0.17226 0.94839
#
# Static dielectric constant tensor:
#      x y z
#    x 2.059150 0.000000 0.000000 
#    y 0.000000 2.098270 0.000000 
#    z 0.000000 0.000000 2.004540 
# 
# From -- ./inp_files/10850.got.cif
#   From: 2010.05.17/outbox.cif.g08.bks.cpg/sg60_6_cif.got.tgz:10850.got - 2010.06.03 14:59:27.
