data_PCOD9457680
_publ_section_title
;
Structure prediction by ZEFSAII (Michael W. Deem and Ramdas Pophale) SiO2 
 PCOD9457680
Probable space group: P B C N
;
_chemical_formula_sum "Si O2"
_cell_formula_units_Z 60
_cell_length_a 27.244931
_cell_length_b 13.983205
_cell_length_c 8.309588
_cell_angle_alpha 90.000000
_cell_angle_beta 90.000000
_cell_angle_gamma 90.000000
_cell_volume 3165.715834
_symmetry_space_group_name_H-M "P B C N"
_symmetry_group_IT_number 60
_symmetry_cell_setting 'orthorhombic'
loop_
_space_group_symop_operation_xyz
x,y,z
1/2-x,1/2-y,1/2+z
1/2+x,1/2-y,-z
-x,y,1/2-z
-x,-y,-z
1/2+x,1/2+y,1/2-z
1/2-x,1/2+y,z
x,-y,1/2+z
loop_
_atom_site_type_symbol
_atom_site_label
_atom_site_fract_x
_atom_site_fract_y
_atom_site_fract_z
Si Si1 0.708260 0.292758 0.325340
Si Si2 0.606926 0.746303 0.315240
Si Si3 0.979868 0.100854 0.931278
Si Si4 0.000000 0.229501 0.250000
Si Si5 0.166782 0.107452 0.985382
Si Si6 0.195593 0.385472 0.234319
Si Si7 0.627818 0.605330 0.027203
Si Si8 0.726895 0.910156 0.894872
O O1 0.764648 0.319109 0.356913
O O2 0.672374 0.330631 0.462216
O O3 0.706820 0.180161 0.296683
O O4 0.691911 0.353355 0.173623
O O5 0.551296 0.781068 0.290510
O O6 0.626187 0.687096 0.469530
O O7 0.643749 0.833939 0.286966
O O8 0.612556 0.659246 0.188362
O O9 0.920733 0.102605 0.917422
O O10 0.000000 0.119074 0.750000
O O11 0.992732 0.170604 0.081975
O O12 0.000000 0.000000 0.000000
O O13 0.213267 0.091575 0.107169
O O14 0.144159 0.003720 0.954208
O O15 0.204498 0.490979 0.165345
O O16 0.209070 0.390971 0.422848
#
# Coordination Sequence:
#
# PCOD9457680 Si02
#       8
#     8   8   8   4   8   8   8   8
#     4  11  23  39  57  91 126 159 202 250 299 379
#     4  11  23  41  62  88 120 163 208 256 311 360
#     4  11  23  38  59  88 127 165 210 254 307 376
#     4  10  24  42  60  88 120 162 216 264 310 368
#     4  11  23  34  62  88 126 164 198 244 305 369
#     4  11  24  40  63  87 124 163 201 255 309 367
#     4  11  23  39  60  90 125 164 204 248 305 368
#     4  11  24  39  59  91 123 160 207 246 302 370
#
# _framework density 18.953060000000001
#
# number of rings (size 3 to 8) (size 9 to 14) (size 15 to 20)
#    0.000    1.067    4.667    1.600    9.333    0.000 
#    0.000    0.000    0.000    0.800    1.733    0.000 
#    0.000    0.000    0.000    0.000    0.000    0.000 
#
# Total GULP energy -334657.597305 kJ/mol
# GULP energy per Si atom -5577.626622 kJ/mol
# Density = 1.890992 g / cm^3
# Si number density = 18.953060 Si / 1000 Ang^3
#
#
#
# Elastic Constant Matrix: (Units=GPa)
#
#
# Indices 1 2 3 4 5 6 
#
# 1 120.9456 27.5013 7.6039 0.0000 0.0000 0.0000
# 2 27.5013 96.4156 -6.0775 0.0000 0.0000 0.0000
# 3 7.6039 -6.0775 45.2227 0.0000 0.0000 0.0000
# 4 0.0000 0.0000 0.0000 74.1982 0.0000 0.0000
# 5 0.0000 0.0000 0.0000 0.0000 19.9922 0.0000
# 6 0.0000 0.0000 0.0000 0.0000 0.0000 18.9047
#
#
#
# Elastic Compliance Matrix: (Units=1/GPa)
#
#
# Indices 1 2 3 4 5 6 
#
# 1 0.008996 -0.002684 -0.001873 0.000000 0.000000 0.000000
# 2 -0.002684 0.011261 0.001965 0.000000 0.000000 0.000000
# 3 -0.001873 0.001965 0.022692 0.000000 0.000000 0.000000
# 4 0.000000 0.000000 0.000000 0.013477 0.000000 0.000000
# 5 0.000000 0.000000 0.000000 0.000000 0.050020 0.000000
# 6 0.000000 0.000000 0.000000 0.000000 0.000000 0.052897
#
#
# Mechanical properties :
#
#
# Convention : Reuss Voigt Hill
#
# Bulk Modulus (GPa) = 26.48048 35.62661 31.05355
# Shear Modulus (GPa) = 28.22997 38.18943 33.20970
#
# Velocity S-wave (km/s) = 3.86355 4.49369 4.19048
# Velocity P-wave (km/s) = 5.82277 6.76479 6.31138
#
# Compressibility (1/GPa) = 0.03776367
#
# Stress axis : x y z
#
# Youngs Moduli (GPa) = 111.15671 88.80023 44.06871
#
# Poissons Ratio (x) = 0.23836 0.08256
# Poissons Ratio (y) = 0.29836 -0.08658
# Poissons Ratio (z) = 0.20824 -0.17447
#
# Static dielectric constant tensor:
#      x y z
#    x 1.743330 0.000000 0.000000 
#    y 0.000000 1.625690 0.000000 
#    z 0.000000 0.000000 1.716790 
# 
# From -- ./inp_files/8180.got.cif
#   From: 2010.05.17/outbox.cif.g08.bks.cpg/sg60_5_cif.got.tgz:8180.got - 2010.06.03 14:59:27.
