data_PCOD9457231
_publ_section_title
;
Structure prediction by ZEFSAII (Michael W. Deem and Ramdas Pophale) SiO2 
 PCOD9457231
Probable space group: P B C N
;
_chemical_formula_sum "Si O2"
_cell_formula_units_Z 32
_cell_length_a 6.446127
_cell_length_b 15.328314
_cell_length_c 13.397519
_cell_angle_alpha 90.000000
_cell_angle_beta 90.000000
_cell_angle_gamma 90.000000
_cell_volume 1323.785524
_symmetry_space_group_name_H-M "P B C N"
_symmetry_group_IT_number 60
_symmetry_cell_setting 'orthorhombic'
loop_
_space_group_symop_operation_xyz
x,y,z
1/2-x,1/2-y,1/2+z
1/2+x,1/2-y,-z
-x,y,1/2-z
-x,-y,-z
1/2+x,1/2+y,1/2-z
1/2-x,1/2+y,z
x,-y,1/2+z
loop_
_atom_site_type_symbol
_atom_site_label
_atom_site_fract_x
_atom_site_fract_y
_atom_site_fract_z
Si Si1 0.000000 0.048263 0.750000
Si Si2 0.695396 0.186276 0.091172
Si Si3 0.297627 0.085107 0.143455
Si Si4 0.000000 0.218576 0.250000
Si Si5 0.945353 0.867306 0.036248
O O1 0.952205 0.101628 0.649940
O O2 0.201485 0.991929 0.712110
O O3 0.531523 0.121040 0.143240
O O4 0.833488 0.246195 0.167388
O O5 0.582653 0.262429 0.031577
O O6 0.836747 0.125183 0.022029
O O7 0.154594 0.163781 0.181338
O O8 0.224962 0.079736 0.027633
#
# Coordination Sequence:
#
# PCOD9457231 Si02
#       5
#     4   8   8   4   8
#     4  11  26  44  72 104 149 184 244 293 360 440
#     4  11  22  42  74 105 141 188 242 296 356 421
#     4  10  22  46  65  99 147 188 225 298 366 413
#     4   9  22  38  74  98 137 182 236 291 344 424
#     4  11  24  43  72 105 141 190 244 296 351 434
#
# _framework density 24.173100999999999
#
# number of rings (size 3 to 8) (size 9 to 14) (size 15 to 20)
#    0.000    1.500    2.500    1.500    3.500    1.000 
#    0.000    7.500    0.000    4.500    0.000    0.000 
#    0.000    0.000    0.000    0.000    0.000    0.000 
#
# Total GULP energy -178144.215713 kJ/mol
# GULP energy per Si atom -5567.006741 kJ/mol
# Density = 2.411808 g / cm^3
# Si number density = 24.173101 Si / 1000 Ang^3
#
#
#
# Elastic Constant Matrix: (Units=GPa)
#
#
# Indices 1 2 3 4 5 6 
#
# 1 130.4582 34.6190 52.2862 0.0000 0.0000 0.0000
# 2 34.6190 68.4356 29.5448 0.0000 0.0000 0.0000
# 3 52.2862 29.5448 173.2076 0.0000 0.0000 0.0000
# 4 0.0000 0.0000 0.0000 34.1533 0.0000 0.0000
# 5 0.0000 0.0000 0.0000 0.0000 38.6280 0.0000
# 6 0.0000 0.0000 0.0000 0.0000 0.0000 37.6209
#
#
#
# Elastic Compliance Matrix: (Units=1/GPa)
#
#
# Indices 1 2 3 4 5 6 
#
# 1 0.009592 -0.003888 -0.002232 0.000000 0.000000 0.000000
# 2 -0.003888 0.017350 -0.001786 0.000000 0.000000 0.000000
# 3 -0.002232 -0.001786 0.006752 0.000000 0.000000 0.000000
# 4 0.000000 0.000000 0.000000 0.029280 0.000000 0.000000
# 5 0.000000 0.000000 0.000000 0.000000 0.025888 0.000000
# 6 0.000000 0.000000 0.000000 0.000000 0.000000 0.026581
#
#
# Mechanical properties :
#
#
# Convention : Reuss Voigt Hill
#
# Bulk Modulus (GPa) = 55.92479 67.22238 61.57359
# Shear Modulus (GPa) = 36.43899 39.12385 37.78142
#
# Velocity S-wave (km/s) = 3.88676 4.02741 3.95771
# Velocity P-wave (km/s) = 6.58239 7.03533 6.81262
#
# Compressibility (1/GPa) = 0.01788116
#
# Stress axis : x y z
#
# Youngs Moduli (GPa) = 104.25576 57.63612 148.10751
#
# Poissons Ratio (x) = 0.22412 0.33061
# Poissons Ratio (y) = 0.40539 0.26448
# Poissons Ratio (z) = 0.23272 0.10292
#
# Static dielectric constant tensor:
#      x y z
#    x 1.846990 0.000000 0.000000 
#    y 0.000000 1.896100 0.000000 
#    z 0.000000 0.000000 2.053550 
# 
# From -- ./inp_files/13606.got.cif
#   From: 2010.05.17/outbox.cif.g08.bks.cpg/sg60_7_cif.got.tgz:13606.got - 2010.06.03 14:59:27.
