data_PCOD9457799
_publ_section_title
;
Structure prediction by ZEFSAII (Michael W. Deem and Ramdas Pophale) SiO2 
 PCOD9457799
Probable space group: P B C N
;
_chemical_formula_sum "Si O2"
_cell_formula_units_Z 40
_cell_length_a 10.074901
_cell_length_b 17.556471
_cell_length_c 10.294908
_cell_angle_alpha 90.000000
_cell_angle_beta 90.000000
_cell_angle_gamma 90.000000
_cell_volume 1820.960313
_symmetry_space_group_name_H-M "P B C N"
_symmetry_group_IT_number 60
_symmetry_cell_setting 'orthorhombic'
loop_
_space_group_symop_operation_xyz
x,y,z
1/2-x,1/2-y,1/2+z
1/2+x,1/2-y,-z
-x,y,1/2-z
-x,-y,-z
1/2+x,1/2+y,1/2-z
1/2-x,1/2+y,z
x,-y,1/2+z
loop_
_atom_site_type_symbol
_atom_site_label
_atom_site_fract_x
_atom_site_fract_y
_atom_site_fract_z
Si Si1 0.662098 0.855088 0.082974
Si Si2 0.404057 0.083810 0.451649
Si Si3 0.309733 0.983470 0.211349
Si Si4 0.339264 0.323289 0.875062
Si Si5 0.379073 0.603248 0.113960
O O1 0.543540 0.878393 0.985203
O O2 0.668681 0.902741 0.216974
O O3 0.643988 0.765716 0.103482
O O4 0.798577 0.879921 0.015090
O O5 0.376687 0.027144 0.571631
O O6 0.288036 0.146951 0.451775
O O7 0.375369 0.040888 0.315963
O O8 0.166683 0.021368 0.174018
O O9 0.466893 0.376908 0.906055
O O10 0.325439 0.337220 0.721176
#
# Coordination Sequence:
#
# PCOD9457799 Si02
#       5
#     8   8   8   8   8
#     4  12  24  41  75  99 137 181 245 284 350 413
#     4  11  25  44  72 100 143 180 236 289 350 418
#     4  11  24  43  70 104 136 184 233 292 342 412
#     4  10  25  45  69  97 143 187 224 294 359 412
#     4  10  24  46  64 101 141 180 238 286 349 420
#
# _framework density 21.966434
#
# number of rings (size 3 to 8) (size 9 to 14) (size 15 to 20)
#    0.000    1.200    2.000    2.400   11.200    3.200 
#    7.200    0.000    0.000    0.000    0.000    0.000 
#    0.000    0.000    0.000    0.000    0.000    0.000 
#
# Total GULP energy -223316.521158 kJ/mol
# GULP energy per Si atom -5582.913029 kJ/mol
# Density = 2.191644 g / cm^3
# Si number density = 21.966434 Si / 1000 Ang^3
#
#
#
# Elastic Constant Matrix: (Units=GPa)
#
#
# Indices 1 2 3 4 5 6 
#
# 1 71.6455 49.7210 15.0632 0.0000 0.0000 0.0000
# 2 49.7210 112.9072 9.4975 0.0000 0.0000 0.0000
# 3 15.0632 9.4975 88.5685 0.0000 0.0000 0.0000
# 4 0.0000 0.0000 0.0000 23.2868 0.0000 0.0000
# 5 0.0000 0.0000 0.0000 0.0000 18.9898 0.0000
# 6 0.0000 0.0000 0.0000 0.0000 0.0000 23.4307
#
#
#
# Elastic Compliance Matrix: (Units=1/GPa)
#
#
# Indices 1 2 3 4 5 6 
#
# 1 0.020661 -0.008883 -0.002561 0.000000 0.000000 0.000000
# 2 -0.008883 0.012757 0.000143 0.000000 0.000000 0.000000
# 3 -0.002561 0.000143 0.011711 0.000000 0.000000 0.000000
# 4 0.000000 0.000000 0.000000 0.042943 0.000000 0.000000
# 5 0.000000 0.000000 0.000000 0.000000 0.052660 0.000000
# 6 0.000000 0.000000 0.000000 0.000000 0.000000 0.042679
#
#
# Mechanical properties :
#
#
# Convention : Reuss Voigt Hill
#
# Bulk Modulus (GPa) = 44.39415 46.85387 45.62401
# Shear Modulus (GPa) = 23.41687 26.39743 24.90715
#
# Velocity S-wave (km/s) = 3.26855 3.47034 3.37096
# Velocity P-wave (km/s) = 5.87354 6.11831 5.99717
#
# Compressibility (1/GPa) = 0.02252549
#
# Stress axis : x y z
#
# Youngs Moduli (GPa) = 48.40090 78.39076 85.38986
#
# Poissons Ratio (x) = 0.69634 0.21871
# Poissons Ratio (y) = 0.42994 -0.01220
# Poissons Ratio (z) = 0.12397 -0.01120
#
# Static dielectric constant tensor:
#      x y z
#    x 1.882250 0.000000 0.000000 
#    y 0.000000 1.830870 0.000000 
#    z 0.000000 0.000000 1.795120 
# 
# From -- ./inp_files/9791.got.cif
#   From: 2010.05.17/outbox.cif.g08.bks.cpg/sg60_5_cif.got.tgz:9791.got - 2010.06.03 14:59:27.
