data_PCOD9457551
_publ_section_title
;
Structure prediction by ZEFSAII (Michael W. Deem and Ramdas Pophale) SiO2 
 PCOD9457551
Probable space group: P B C N
;
_chemical_formula_sum "Si O2"
_cell_formula_units_Z 52
_cell_length_a 8.081768
_cell_length_b 18.884317
_cell_length_c 14.765257
_cell_angle_alpha 90.000000
_cell_angle_beta 90.000000
_cell_angle_gamma 90.000000
_cell_volume 2253.453868
_symmetry_space_group_name_H-M "P B C N"
_symmetry_group_IT_number 60
_symmetry_cell_setting 'orthorhombic'
loop_
_space_group_symop_operation_xyz
x,y,z
1/2-x,1/2-y,1/2+z
1/2+x,1/2-y,-z
-x,y,1/2-z
-x,-y,-z
1/2+x,1/2+y,1/2-z
1/2-x,1/2+y,z
x,-y,1/2+z
loop_
_atom_site_type_symbol
_atom_site_label
_atom_site_fract_x
_atom_site_fract_y
_atom_site_fract_z
Si Si1 0.534007 0.886337 0.993800
Si Si2 0.746896 0.979817 0.483559
Si Si3 0.000000 0.161671 0.750000
Si Si4 0.848040 0.339562 0.186616
Si Si5 0.528272 0.465209 0.644640
Si Si6 0.026457 0.796718 0.890279
Si Si7 0.853144 0.248831 0.915278
O O1 0.351046 0.906936 0.024171
O O2 0.627713 0.862331 0.083662
O O3 0.555130 0.824442 0.922760
O O4 0.622577 0.956851 0.959678
O O5 0.805234 0.983103 0.588426
O O6 0.895889 0.990737 0.414584
O O7 0.174190 0.129093 0.780863
O O8 0.061853 0.206487 0.664481
O O9 0.000000 0.362730 0.250000
O O10 0.865807 0.253086 0.177675
O O11 0.500000 0.480881 0.750000
O O12 0.510284 0.379476 0.633714
O O13 0.841771 0.762917 0.898837
O O14 0.108749 0.788451 0.989008
#
# Coordination Sequence:
#
# PCOD9457551 Si02
#       7
#     8   8   4   8   8   8   8
#     4  10  23  45  67  93 133 185 229 289 351 420
#     4  10  24  46  66  95 135 180 242 287 346 415
#     4  12  26  40  66 112 138 178 228 288 362 428
#     4  11  24  43  66 104 141 177 226 287 357 430
#     4  11  25  43  70  98 133 183 232 297 351 422
#     4  11  23  42  66  98 138 176 225 283 355 427
#     4  11  23  40  67  99 136 177 224 286 359 421
#
# _framework density 23.075688
#
# number of rings (size 3 to 8) (size 9 to 14) (size 15 to 20)
#    0.000    1.231    3.077    2.308    6.462    1.231 
#    4.154    1.538    0.000    0.000    0.000    0.000 
#    0.000    0.000    0.000    0.000    0.000    0.000 
#
# Total GULP energy -290697.097914 kJ/mol
# GULP energy per Si atom -5590.328806 kJ/mol
# Density = 2.302317 g / cm^3
# Si number density = 23.075688 Si / 1000 Ang^3
#
#
#
# Elastic Constant Matrix: (Units=GPa)
#
#
# Indices 1 2 3 4 5 6 
#
# 1 99.1202 29.9383 8.4543 0.0000 0.0000 0.0000
# 2 29.9383 58.8550 2.5831 0.0000 0.0000 0.0000
# 3 8.4543 2.5831 106.9413 0.0000 0.0000 0.0000
# 4 0.0000 0.0000 0.0000 -4.6271 0.0000 0.0000
# 5 0.0000 0.0000 0.0000 0.0000 31.9693 0.0000
# 6 0.0000 0.0000 0.0000 0.0000 0.0000 28.7836
#
#
#
# Elastic Compliance Matrix: (Units=1/GPa)
#
#
# Indices 1 2 3 4 5 6 
#
# 1 0.011988 -0.006063 -0.000801 0.000000 0.000000 0.000000
# 2 -0.006063 0.020075 -0.000006 0.000000 0.000000 0.000000
# 3 -0.000801 -0.000006 0.009414 0.000000 0.000000 0.000000
# 4 0.000000 0.000000 0.000000 -0.216116 0.000000 0.000000
# 5 0.000000 0.000000 0.000000 0.000000 0.031280 0.000000
# 6 0.000000 0.000000 0.000000 0.000000 0.000000 0.034742
#
#
# Mechanical properties :
#
#
# Convention : Reuss Voigt Hill
#
# Bulk Modulus (GPa) = 36.05137 38.54088 37.29613
# Shear Modulus (GPa) = -58.39075 26.15454 -16.11810
#
# Velocity S-wave (km/s) = -5.03577 3.37029 -2.64576
# Velocity P-wave (km/s) = 4.26086 5.64653 2.61996
#
# Compressibility (1/GPa) = 0.02773820
#
# Stress axis : x y z
#
# Youngs Moduli (GPa) = 83.41399 49.81243 106.22020
#
# Poissons Ratio (x) = 0.30202 0.08511
# Poissons Ratio (y) = 0.50574 0.00059
# Poissons Ratio (z) = 0.06684 0.00028
#
# Static dielectric constant tensor:
#      x y z
#    x 1.922420 0.000000 0.000000 
#    y 0.000000 1.924920 0.000000 
#    z 0.000000 0.000000 1.823730 
# 
# From -- ./inp_files/15191.got.cif
#   From: 2010.05.17/outbox.cif.g08.bks.cpg/sg60_8_cif.got.tgz:15191.got - 2010.06.03 14:59:27.
