data_PCOD9457318
_publ_section_title
;
Structure prediction by ZEFSAII (Michael W. Deem and Ramdas Pophale) SiO2 
 PCOD9457318
Probable space group: P B C N
;
_chemical_formula_sum "Si O2"
_cell_formula_units_Z 48
_cell_length_a 9.349989
_cell_length_b 12.779078
_cell_length_c 18.072241
_cell_angle_alpha 90.000000
_cell_angle_beta 90.000000
_cell_angle_gamma 90.000000
_cell_volume 2159.347958
_symmetry_space_group_name_H-M "P B C N"
_symmetry_group_IT_number 60
_symmetry_cell_setting 'orthorhombic'
loop_
_space_group_symop_operation_xyz
x,y,z
1/2-x,1/2-y,1/2+z
1/2+x,1/2-y,-z
-x,y,1/2-z
-x,-y,-z
1/2+x,1/2+y,1/2-z
1/2-x,1/2+y,z
x,-y,1/2+z
loop_
_atom_site_type_symbol
_atom_site_label
_atom_site_fract_x
_atom_site_fract_y
_atom_site_fract_z
Si Si1 0.606288 0.618318 0.014300
Si Si2 0.579418 0.666919 0.174617
Si Si3 0.289715 0.682485 0.990435
Si Si4 0.782808 0.478626 0.903001
Si Si5 0.070075 0.401548 0.376726
Si Si6 0.156806 0.424378 0.760891
O O1 0.569384 0.595541 0.100859
O O2 0.734577 0.701118 0.020336
O O3 0.459163 0.669665 0.985237
O O4 0.665162 0.534917 0.955440
O O5 0.500000 0.635289 0.250000
O O6 0.532817 0.784288 0.151316
O O7 0.743841 0.658691 0.198658
O O8 0.200952 0.612927 0.932559
O O9 0.228348 0.640161 0.068218
O O10 0.772782 0.467336 0.814672
O O11 0.932942 0.540683 0.912455
O O12 0.125032 0.474808 0.311308
O O13 0.000000 0.376570 0.750000
#
# Coordination Sequence:
#
# PCOD9457318 Si02
#       6
#     8   8   8   8   8   8
#     4  11  24  41  63  95 127 165 214 262 318 377
#     4  11  22  41  63  87 123 164 205 256 314 373
#     4  11  23  39  63  92 124 165 209 263 317 374
#     4  11  22  41  66  92 125 165 212 260 313 376
#     4  10  23  42  63  90 126 165 207 258 314 376
#     4  10  23  40  62  90 122 164 209 255 315 374
#
# _framework density 22.228933999999999
#
# number of rings (size 3 to 8) (size 9 to 14) (size 15 to 20)
#    0.000    1.333    0.000    6.500    0.000    9.333 
#    0.000    0.833    0.000    0.000    0.000    0.000 
#    0.000    0.000    0.000    0.000    0.000    0.000 
#
# Total GULP energy -267894.607962 kJ/mol
# GULP energy per Si atom -5581.137666 kJ/mol
# Density = 2.217834 g / cm^3
# Si number density = 22.228934 Si / 1000 Ang^3
#
#
#
# Elastic Constant Matrix: (Units=GPa)
#
#
# Indices 1 2 3 4 5 6 
#
# 1 102.1379 7.4904 49.4699 0.0000 0.0000 0.0000
# 2 7.4904 34.4874 15.9457 0.0000 0.0000 0.0000
# 3 49.4699 15.9457 112.4340 0.0000 0.0000 0.0000
# 4 0.0000 0.0000 0.0000 22.4298 0.0000 0.0000
# 5 0.0000 0.0000 0.0000 0.0000 31.4334 0.0000
# 6 0.0000 0.0000 0.0000 0.0000 0.0000 35.6990
#
#
#
# Elastic Compliance Matrix: (Units=1/GPa)
#
#
# Indices 1 2 3 4 5 6 
#
# 1 0.012443 -0.000183 -0.005449 0.000000 0.000000 0.000000
# 2 -0.000183 0.031034 -0.004321 0.000000 0.000000 0.000000
# 3 -0.005449 -0.004321 0.011904 0.000000 0.000000 0.000000
# 4 0.000000 0.000000 0.000000 0.044583 0.000000 0.000000
# 5 0.000000 0.000000 0.000000 0.000000 0.031813 0.000000
# 6 0.000000 0.000000 0.000000 0.000000 0.000000 0.028012
#
#
# Mechanical properties :
#
#
# Convention : Reuss Voigt Hill
#
# Bulk Modulus (GPa) = 28.18833 43.87457 36.03145
# Shear Modulus (GPa) = 26.10681 29.65599 27.88140
#
# Velocity S-wave (km/s) = 3.43075 3.65652 3.54543
# Velocity P-wave (km/s) = 5.32933 6.13248 5.74496
#
# Compressibility (1/GPa) = 0.03547567
#
# Stress axis : x y z
#
# Youngs Moduli (GPa) = 80.36467 32.22310 84.00285
#
# Poissons Ratio (x) = 0.00590 0.45773
# Poissons Ratio (y) = 0.01472 0.36295
# Poissons Ratio (z) = 0.43790 0.13923
#
# Static dielectric constant tensor:
#      x y z
#    x 1.836950 0.000000 0.000000 
#    y 0.000000 1.846430 0.000000 
#    z 0.000000 0.000000 1.854120 
# 
# From -- ./inp_files/19296.got.cif
#   From: 2010.05.17/outbox.cif.g08.bks.cpg/sg60_10_cif.got.tgz:19296.got - 2010.06.03 14:59:27.
