data_PCOD9457512
_publ_section_title
;
Structure prediction by ZEFSAII (Michael W. Deem and Ramdas Pophale) SiO2 
 PCOD9457512
Probable space group: P B C N
;
_chemical_formula_sum "Si O2"
_cell_formula_units_Z 32
_cell_length_a 14.917609
_cell_length_b 7.274955
_cell_length_c 13.451843
_cell_angle_alpha 90.000000
_cell_angle_beta 90.000000
_cell_angle_gamma 90.000000
_cell_volume 1459.860376
_symmetry_space_group_name_H-M "P B C N"
_symmetry_group_IT_number 60
_symmetry_cell_setting 'orthorhombic'
loop_
_space_group_symop_operation_xyz
x,y,z
1/2-x,1/2-y,1/2+z
1/2+x,1/2-y,-z
-x,y,1/2-z
-x,-y,-z
1/2+x,1/2+y,1/2-z
1/2-x,1/2+y,z
x,-y,1/2+z
loop_
_atom_site_type_symbol
_atom_site_label
_atom_site_fract_x
_atom_site_fract_y
_atom_site_fract_z
Si Si1 0.917553 0.863848 0.465437
Si Si2 0.040071 0.371590 0.850168
Si Si3 0.327922 0.188290 0.854024
Si Si4 0.855533 0.955943 0.247070
O O1 0.841931 0.815782 0.547442
O O2 0.868959 0.928395 0.364403
O O3 0.967790 0.676479 0.432552
O O4 0.000000 0.000000 0.500000
O O5 0.119120 0.504159 0.880271
O O6 0.076543 0.175039 0.812150
O O7 0.000000 0.459138 0.750000
O O8 0.369519 0.330339 0.774909
O O9 0.238092 0.114862 0.800521
#
# Coordination Sequence:
#
# PCOD9457512 Si02
#       4
#     8   8   8   8
#     4  11  25  45  73 105 140 188 243 295 359 438
#     4  10  23  44  68 104 137 179 233 290 357 420
#     4  12  24  46  71  99 144 190 230 298 362 421
#     4  11  25  45  67 103 147 178 240 296 355 430
#
# _framework density 21.919903999999999
#
# number of rings (size 3 to 8) (size 9 to 14) (size 15 to 20)
#    0.000    1.000    5.000    0.750    3.500    2.000 
#    0.000    0.000    0.000    0.000    0.000    0.000 
#    0.000    0.000    0.000    0.000    0.000    0.000 
#
# Total GULP energy -178220.167886 kJ/mol
# GULP energy per Si atom -5569.380246 kJ/mol
# Density = 2.187001 g / cm^3
# Si number density = 21.919904 Si / 1000 Ang^3
#
#
#
# Elastic Constant Matrix: (Units=GPa)
#
#
# Indices 1 2 3 4 5 6 
#
# 1 86.3213 25.6872 61.3654 0.0000 0.0000 0.0000
# 2 25.6872 90.5627 23.6452 0.0000 0.0000 0.0000
# 3 61.3654 23.6452 142.0804 0.0000 0.0000 0.0000
# 4 0.0000 0.0000 0.0000 11.5763 0.0000 0.0000
# 5 0.0000 0.0000 0.0000 0.0000 40.4540 0.0000
# 6 0.0000 0.0000 0.0000 0.0000 0.0000 25.6885
#
#
#
# Elastic Compliance Matrix: (Units=1/GPa)
#
#
# Indices 1 2 3 4 5 6 
#
# 1 0.017528 -0.003131 -0.007049 0.000000 0.000000 0.000000
# 2 -0.003131 0.012103 -0.000662 0.000000 0.000000 0.000000
# 3 -0.007049 -0.000662 0.010193 0.000000 0.000000 0.000000
# 4 0.000000 0.000000 0.000000 0.086383 0.000000 0.000000
# 5 0.000000 0.000000 0.000000 0.000000 0.024719 0.000000
# 6 0.000000 0.000000 0.000000 0.000000 0.000000 0.038928
#
#
# Mechanical properties :
#
#
# Convention : Reuss Voigt Hill
#
# Bulk Modulus (GPa) = 55.12879 60.04001 57.58440
# Shear Modulus (GPa) = 22.97954 29.42821 26.20387
#
# Velocity S-wave (km/s) = 3.24132 3.66803 3.46126
# Velocity P-wave (km/s) = 6.26202 6.73717 6.50393
#
# Compressibility (1/GPa) = 0.01813934
#
# Stress axis : x y z
#
# Youngs Moduli (GPa) = 57.05285 82.62436 98.10636
#
# Poissons Ratio (x) = 0.25870 0.69157
# Poissons Ratio (y) = 0.17863 0.06493
# Poissons Ratio (z) = 0.40218 0.05469
#
# Static dielectric constant tensor:
#      x y z
#    x 1.927330 0.000000 0.000000 
#    y 0.000000 1.796570 0.000000 
#    z 0.000000 0.000000 1.847080 
# 
# From -- ./inp_files/11514.got.cif
#   From: 2010.05.17/outbox.cif.g08.bks.cpg/sg60_6_cif.got.tgz:11514.got - 2010.06.03 14:59:27.
