data_PCOD9457069
_publ_section_title
;
Structure prediction by ZEFSAII (Michael W. Deem and Ramdas Pophale) SiO2 
 PCOD9457069
Probable space group: P B C N
;
_chemical_formula_sum "Si O2"
_cell_formula_units_Z 64
_cell_length_a 11.225395
_cell_length_b 9.158394
_cell_length_c 27.867685
_cell_angle_alpha 90.000000
_cell_angle_beta 90.000000
_cell_angle_gamma 90.000000
_cell_volume 2864.981672
_symmetry_space_group_name_H-M "P B C N"
_symmetry_group_IT_number 60
_symmetry_cell_setting 'orthorhombic'
loop_
_space_group_symop_operation_xyz
x,y,z
1/2-x,1/2-y,1/2+z
1/2+x,1/2-y,-z
-x,y,1/2-z
-x,-y,-z
1/2+x,1/2+y,1/2-z
1/2-x,1/2+y,z
x,-y,1/2+z
loop_
_atom_site_type_symbol
_atom_site_label
_atom_site_fract_x
_atom_site_fract_y
_atom_site_fract_z
Si Si1 0.327382 0.313836 0.318011
Si Si2 0.027420 0.855412 0.940417
Si Si3 0.100595 0.690372 0.709507
Si Si4 0.132392 0.113997 0.546444
Si Si5 0.110137 0.389534 0.011570
Si Si6 0.084080 0.639176 0.869861
Si Si7 0.230317 0.947116 0.752699
Si Si8 0.047317 0.316639 0.910685
O O1 0.197988 0.368287 0.335824
O O2 0.360090 0.451872 0.284201
O O3 0.303817 0.167631 0.286453
O O4 0.405766 0.274277 0.364619
O O5 0.935838 0.726747 0.950698
O O6 0.111675 0.783174 0.901500
O O7 0.951356 0.995630 0.927809
O O8 0.090021 0.877548 0.991173
O O9 0.166478 0.843139 0.714748
O O10 0.186942 0.558965 0.724048
O O11 0.000000 0.691276 0.750000
O O12 0.034544 0.669185 0.659866
O O13 0.267273 0.061922 0.536654
O O14 0.085392 0.261789 0.572895
O O15 0.124548 0.305258 0.960249
O O16 0.000000 0.500000 0.000000
O O17 0.064350 0.485909 0.896401
#
# Coordination Sequence:
#
# PCOD9457069 Si02
#       8
#     8   8   8   8   8   8   8   8
#     4  11  21  41  72 103 134 173 243 295 351 438
#     4  10  24  42  65  97 133 188 226 292 348 410
#     4  11  22  45  68  96 139 179 230 297 371 423
#     4  10  25  43  66 100 143 179 240 287 349 420
#     4  11  23  43  68  93 143 193 230 277 357 416
#     4  12  23  42  72 100 137 181 235 299 360 428
#     4  10  22  42  70  98 134 187 232 288 363 443
#     4  11  24  41  70 108 134 182 238 303 349 412
#
# _framework density 22.338712000000001
#
# number of rings (size 3 to 8) (size 9 to 14) (size 15 to 20)
#    0.000    1.250    5.000    0.750    5.250    3.000 
#    4.500    6.250    0.000    0.000    0.000    0.000 
#    0.000    0.000    0.000    0.000    0.000    0.000 
#
# Total GULP energy -356868.136792 kJ/mol
# GULP energy per Si atom -5576.064637 kJ/mol
# Density = 2.228787 g / cm^3
# Si number density = 22.338712 Si / 1000 Ang^3
#
#
#
# Elastic Constant Matrix: (Units=GPa)
#
#
# Indices 1 2 3 4 5 6 
#
# 1 84.1740 35.6513 12.8526 0.0000 0.0000 0.0000
# 2 35.6513 102.3497 5.7584 0.0000 0.0000 0.0000
# 3 12.8526 5.7584 50.5346 0.0000 0.0000 0.0000
# 4 0.0000 0.0000 0.0000 12.0619 0.0000 0.0000
# 5 0.0000 0.0000 0.0000 0.0000 27.3081 0.0000
# 6 0.0000 0.0000 0.0000 0.0000 0.0000 21.0754
#
#
#
# Elastic Compliance Matrix: (Units=1/GPa)
#
#
# Indices 1 2 3 4 5 6 
#
# 1 0.014407 -0.004843 -0.003112 0.000000 0.000000 0.000000
# 2 -0.004843 0.011462 -0.000074 0.000000 0.000000 0.000000
# 3 -0.003112 -0.000074 0.020588 0.000000 0.000000 0.000000
# 4 0.000000 0.000000 0.000000 0.082906 0.000000 0.000000
# 5 0.000000 0.000000 0.000000 0.000000 0.036619 0.000000
# 6 0.000000 0.000000 0.000000 0.000000 0.000000 0.047449
#
#
# Mechanical properties :
#
#
# Convention : Reuss Voigt Hill
#
# Bulk Modulus (GPa) = 32.89755 38.39812 35.64784
# Shear Modulus (GPa) = 20.86621 24.27548 22.57085
#
# Velocity S-wave (km/s) = 3.05959 3.30009 3.18211
# Velocity P-wave (km/s) = 5.21921 5.63446 5.43081
#
# Compressibility (1/GPa) = 0.03039740
#
# Stress axis : x y z
#
# Youngs Moduli (GPa) = 69.41242 87.24779 48.57099
#
# Poissons Ratio (x) = 0.42255 0.15116
# Poissons Ratio (y) = 0.33617 0.00361
# Poissons Ratio (z) = 0.21603 0.00648
#
# Static dielectric constant tensor:
#      x y z
#    x 1.965570 0.000000 0.000000 
#    y 0.000000 1.881740 0.000000 
#    z 0.000000 0.000000 1.899520 
# 
# From -- ./inp_files/26114.got.cif
#   From: 2010.05.17/outbox.cif.g08.bks.cpg/sg60_14_cif.got.tgz:26114.got - 2010.06.03 14:59:27.
