data_PCOD9457535
_publ_section_title
;
Structure prediction by ZEFSAII (Michael W. Deem and Ramdas Pophale) SiO2 
 PCOD9457535
Probable space group: P B C N
;
_chemical_formula_sum "Si O2"
_cell_formula_units_Z 56
_cell_length_a 22.903383
_cell_length_b 5.228953
_cell_length_c 18.611342
_cell_angle_alpha 90.000000
_cell_angle_beta 90.000000
_cell_angle_gamma 90.000000
_cell_volume 2228.907592
_symmetry_space_group_name_H-M "P B C N"
_symmetry_group_IT_number 60
_symmetry_cell_setting 'orthorhombic'
loop_
_space_group_symop_operation_xyz
x,y,z
1/2-x,1/2-y,1/2+z
1/2+x,1/2-y,-z
-x,y,1/2-z
-x,-y,-z
1/2+x,1/2+y,1/2-z
1/2-x,1/2+y,z
x,-y,1/2+z
loop_
_atom_site_type_symbol
_atom_site_label
_atom_site_fract_x
_atom_site_fract_y
_atom_site_fract_z
Si Si1 0.000000 0.500000 0.000000
Si Si2 0.932504 0.037338 0.339147
Si Si3 0.444592 0.469304 0.416454
Si Si4 0.000000 0.579701 0.750000
Si Si5 0.786204 0.583097 0.750514
Si Si6 0.899145 0.705818 0.458394
Si Si7 0.397269 0.199197 0.296040
Si Si8 0.785403 0.571574 0.922510
O O1 0.047255 0.536213 0.068715
O O2 0.960535 0.743712 0.029582
O O3 0.946000 0.275654 0.287807
O O4 0.893634 0.955920 0.408217
O O5 0.905951 0.842892 0.279719
O O6 0.998211 0.020195 0.369979
O O7 0.429699 0.718042 0.465325
O O8 0.392881 0.392865 0.362902
O O9 0.961162 0.424618 0.693488
O O10 0.763418 0.868162 0.735720
O O11 0.843283 0.491364 0.708628
O O12 0.797931 0.565243 0.836547
O O13 0.841847 0.540164 0.461794
O O14 0.763841 0.856663 0.938637
#
# Coordination Sequence:
#
# PCOD9457535 Si02
#       8
#     4   8   8   4   8   8   8   8
#     4  10  24  40  64  94 138 180 216 272 358 426
#     4  11  22  41  62 101 135 174 228 284 348 419
#     4  11  24  41  59 103 141 179 220 274 358 437
#     4  12  24  36  70 100 140 176 226 294 360 410
#     4  10  24  46  69 101 132 181 239 301 350 405
#     4  11  25  42  67  98 141 183 231 285 358 433
#     4  12  24  41  66 101 137 180 232 287 353 425
#     4  10  23  44  72  99 132 181 250 302 348 411
#
# _framework density 25.124417000000001
#
# number of rings (size 3 to 8) (size 9 to 14) (size 15 to 20)
#    0.000    1.143    4.286    1.714    8.000    1.143 
#    0.000    1.429    0.000    0.000    0.000    0.000 
#    0.000    0.000    0.000    0.000    0.000    0.000 
#
# Total GULP energy -312013.836084 kJ/mol
# GULP energy per Si atom -5571.675644 kJ/mol
# Density = 2.506723 g / cm^3
# Si number density = 25.124417 Si / 1000 Ang^3
#
#
#
# Elastic Constant Matrix: (Units=GPa)
#
#
# Indices 1 2 3 4 5 6 
#
# 1 89.8771 -8.2900 7.3079 0.0000 0.0000 0.0000
# 2 -8.2900 70.5180 9.3336 0.0000 0.0000 0.0000
# 3 7.3079 9.3336 60.4838 0.0000 0.0000 0.0000
# 4 0.0000 0.0000 0.0000 28.6723 0.0000 0.0000
# 5 0.0000 0.0000 0.0000 0.0000 29.5498 0.0000
# 6 0.0000 0.0000 0.0000 0.0000 0.0000 25.2967
#
#
#
# Elastic Compliance Matrix: (Units=1/GPa)
#
#
# Indices 1 2 3 4 5 6 
#
# 1 0.011401 0.001554 -0.001617 0.000000 0.000000 0.000000
# 2 0.001554 0.014688 -0.002454 0.000000 0.000000 0.000000
# 3 -0.001617 -0.002454 0.017108 0.000000 0.000000 0.000000
# 4 0.000000 0.000000 0.000000 0.034877 0.000000 0.000000
# 5 0.000000 0.000000 0.000000 0.000000 0.033841 0.000000
# 6 0.000000 0.000000 0.000000 0.000000 0.000000 0.039531
#
#
# Mechanical properties :
#
#
# Convention : Reuss Voigt Hill
#
# Bulk Modulus (GPa) = 26.20397 26.39799 26.30098
# Shear Modulus (GPa) = 29.55052 30.87224 30.21138
#
# Velocity S-wave (km/s) = 3.43325 3.50919 3.47143
# Velocity P-wave (km/s) = 5.11553 5.19124 5.15352
#
# Compressibility (1/GPa) = 0.03816215
#
# Stress axis : x y z
#
# Youngs Moduli (GPa) = 87.71019 68.08099 58.45373
#
# Poissons Ratio (x) = -0.10582 0.09454
# Poissons Ratio (y) = -0.13634 0.14347
# Poissons Ratio (z) = 0.14186 0.16710
#
# Static dielectric constant tensor:
#      x y z
#    x 1.766870 0.000000 0.000000 
#    y 0.000000 1.955740 0.000000 
#    z 0.000000 0.000000 2.004000 
# 
# From -- ./inp_files/23299.got.cif
#   From: 2010.05.17/outbox.cif.g08.bks.cpg/sg60_12_cif.got.tgz:23299.got - 2010.06.03 14:59:27.
