data_PCOD9457149
_publ_section_title
;
Structure prediction by ZEFSAII (Michael W. Deem and Ramdas Pophale) SiO2 
 PCOD9457149
Probable space group: P B C N
;
_chemical_formula_sum "Si O2"
_cell_formula_units_Z 36
_cell_length_a 10.502986
_cell_length_b 14.859457
_cell_length_c 12.497630
_cell_angle_alpha 90.000000
_cell_angle_beta 90.000000
_cell_angle_gamma 90.000000
_cell_volume 1950.488478
_symmetry_space_group_name_H-M "P B C N"
_symmetry_group_IT_number 60
_symmetry_cell_setting 'orthorhombic'
loop_
_space_group_symop_operation_xyz
x,y,z
1/2-x,1/2-y,1/2+z
1/2+x,1/2-y,-z
-x,y,1/2-z
-x,-y,-z
1/2+x,1/2+y,1/2-z
1/2-x,1/2+y,z
x,-y,1/2+z
loop_
_atom_site_type_symbol
_atom_site_label
_atom_site_fract_x
_atom_site_fract_y
_atom_site_fract_z
Si Si1 0.136764 0.497548 0.554365
Si Si2 0.648587 0.836384 0.777561
Si Si3 0.700211 0.354638 0.369880
Si Si4 0.823693 0.081837 0.093435
Si Si5 0.000000 0.980341 0.250000
O O1 0.153006 0.414890 0.633966
O O2 0.167676 0.590753 0.617042
O O3 0.244825 0.500492 0.462449
O O4 0.000000 0.500000 0.500000
O O5 0.500000 0.821566 0.750000
O O6 0.705677 0.744131 0.822928
O O7 0.728285 0.869070 0.675003
O O8 0.645006 0.355641 0.491447
O O9 0.609682 0.417341 0.298177
O O10 0.942004 0.042876 0.157480
#
# Coordination Sequence:
#
# PCOD9457149 Si02
#       5
#     8   8   8   8   4
#     4  10  22  44  64  93 131 170 221 270 335 393
#     4  12  21  42  69  93 133 170 217 270 333 398
#     4  10  24  39  66  96 123 175 214 271 327 390
#     4  10  23  41  64  94 127 171 220 266 331 390
#     4  12  20  44  66  88 134 170 218 270 328 394
#
# _framework density 18.456914999999999
#
# number of rings (size 3 to 8) (size 9 to 14) (size 15 to 20)
#    1.333    0.000    5.556    0.667    0.000    1.778 
#   12.000    0.000    0.000    0.000    0.000    0.000 
#    0.000    0.000    0.000    0.000    0.000    0.000 
#
# Total GULP energy -200665.432779 kJ/mol
# GULP energy per Si atom -5574.039799 kJ/mol
# Density = 1.841491 g / cm^3
# Si number density = 18.456915 Si / 1000 Ang^3
#
#
#
# Elastic Constant Matrix: (Units=GPa)
#
#
# Indices 1 2 3 4 5 6 
#
# 1 31.1061 20.6198 9.0973 0.0000 0.0000 0.0000
# 2 20.6198 112.4225 38.2221 0.0000 0.0000 0.0000
# 3 9.0973 38.2221 84.0855 0.0000 0.0000 0.0000
# 4 0.0000 0.0000 0.0000 13.3793 0.0000 0.0000
# 5 0.0000 0.0000 0.0000 0.0000 44.5419 0.0000
# 6 0.0000 0.0000 0.0000 0.0000 0.0000 12.9726
#
#
#
# Elastic Compliance Matrix: (Units=1/GPa)
#
#
# Indices 1 2 3 4 5 6 
#
# 1 0.036680 -0.006362 -0.001077 0.000000 0.000000 0.000000
# 2 -0.006362 0.011624 -0.004596 0.000000 0.000000 0.000000
# 3 -0.001077 -0.004596 0.014098 0.000000 0.000000 0.000000
# 4 0.000000 0.000000 0.000000 0.074742 0.000000 0.000000
# 5 0.000000 0.000000 0.000000 0.000000 0.022451 0.000000
# 6 0.000000 0.000000 0.000000 0.000000 0.000000 0.077086
#
#
# Mechanical properties :
#
#
# Convention : Reuss Voigt Hill
#
# Bulk Modulus (GPa) = 26.08618 40.38805 33.23711
# Shear Modulus (GPa) = 18.27972 24.82375 21.55173
#
# Velocity S-wave (km/s) = 3.15048 3.67134 3.42084
# Velocity P-wave (km/s) = 5.23433 6.31677 5.80085
#
# Compressibility (1/GPa) = 0.03833447
#
# Stress axis : x y z
#
# Youngs Moduli (GPa) = 27.26291 86.02685 70.93109
#
# Poissons Ratio (x) = 0.54726 0.07637
# Poissons Ratio (y) = 0.17343 0.32598
# Poissons Ratio (z) = 0.02935 0.39535
#
# Static dielectric constant tensor:
#      x y z
#    x 1.638900 0.000000 0.000000 
#    y 0.000000 1.612630 0.000000 
#    z 0.000000 0.000000 1.650020 
# 
# From -- ./inp_files/14593.got.cif
#   From: 2010.05.17/outbox.cif.g08.bks.cpg/sg60_8_cif.got.tgz:14593.got - 2010.06.03 14:59:27.
