data_PCOD9457958
_publ_section_title
;
Structure prediction by ZEFSAII (Michael W. Deem and Ramdas Pophale) SiO2 
 PCOD9457958
Probable space group: P B C N
;
_chemical_formula_sum "Si O2"
_cell_formula_units_Z 52
_cell_length_a 19.189838
_cell_length_b 13.646745
_cell_length_c 9.415351
_cell_angle_alpha 90.000000
_cell_angle_beta 90.000000
_cell_angle_gamma 90.000000
_cell_volume 2465.681064
_symmetry_space_group_name_H-M "P B C N"
_symmetry_group_IT_number 60
_symmetry_cell_setting 'orthorhombic'
loop_
_space_group_symop_operation_xyz
x,y,z
1/2-x,1/2-y,1/2+z
1/2+x,1/2-y,-z
-x,y,1/2-z
-x,-y,-z
1/2+x,1/2+y,1/2-z
1/2-x,1/2+y,z
x,-y,1/2+z
loop_
_atom_site_type_symbol
_atom_site_label
_atom_site_fract_x
_atom_site_fract_y
_atom_site_fract_z
Si Si1 0.677422 0.514851 0.059173
Si Si2 0.890196 0.219533 0.022012
Si Si3 0.788465 0.290085 0.237472
Si Si4 0.364059 0.798007 0.764178
Si Si5 0.721944 0.011450 0.304670
Si Si6 0.115005 0.184810 0.032862
Si Si7 0.500000 0.701116 0.250000
O O1 0.625888 0.603211 0.016776
O O2 0.746503 0.502222 0.961668
O O3 0.639179 0.411751 0.048791
O O4 0.708972 0.536636 0.213010
O O5 0.908398 0.261378 0.869387
O O6 0.817616 0.261410 0.083147
O O7 0.945607 0.250987 0.142072
O O8 0.707285 0.265707 0.241936
O O9 0.802395 0.403896 0.260865
O O10 0.827040 0.228992 0.360728
O O11 0.335878 0.907301 0.731107
O O12 0.397840 0.769709 0.915113
O O13 0.051379 0.152629 0.135051
#
# Coordination Sequence:
#
# PCOD9457958 Si02
#       7
#     8   8   8   8   8   8   4
#     4  12  20  35  60  94 122 165 192 254 308 394
#     4  11  23  40  62  86 129 165 214 245 311 360
#     4  11  20  38  59  94 132 164 185 257 320 385
#     4  12  21  37  62  97 123 162 198 262 312 384
#     4  12  22  32  61  97 134 151 195 246 332 382
#     4  11  23  40  62  86 129 165 214 245 311 360
#     4  10  26  46  60  82 122 182 216 262 284 354
#
# _framework density 21.089507000000001
#
# number of rings (size 3 to 8) (size 9 to 14) (size 15 to 20)
#    0.000    0.615    6.154    3.692    0.000    1.231 
#    0.000    0.000    0.000   14.769    0.000    0.000 
#    0.000    0.000    0.000    0.000    0.000    0.000 
#
# Total GULP energy -290181.766976 kJ/mol
# GULP energy per Si atom -5580.418596 kJ/mol
# Density = 2.104151 g / cm^3
# Si number density = 21.089507 Si / 1000 Ang^3
#
#
#
# Elastic Constant Matrix: (Units=GPa)
#
#
# Indices 1 2 3 4 5 6 
#
# 1 42.7304 10.4205 14.2931 0.0000 0.0000 0.0000
# 2 10.4205 131.4858 9.9487 0.0000 0.0000 0.0000
# 3 14.2931 9.9487 99.5030 0.0000 0.0000 0.0000
# 4 0.0000 0.0000 0.0000 -4.5244 0.0000 0.0000
# 5 0.0000 0.0000 0.0000 0.0000 23.5384 0.0000
# 6 0.0000 0.0000 0.0000 0.0000 0.0000 2.0848
#
#
#
# Elastic Compliance Matrix: (Units=1/GPa)
#
#
# Indices 1 2 3 4 5 6 
#
# 1 0.024964 -0.001720 -0.003414 0.000000 0.000000 0.000000
# 2 -0.001720 0.007782 -0.000531 0.000000 0.000000 0.000000
# 3 -0.003414 -0.000531 0.010593 0.000000 0.000000 0.000000
# 4 0.000000 0.000000 0.000000 -0.221024 0.000000 0.000000
# 5 0.000000 0.000000 0.000000 0.000000 0.042484 0.000000
# 6 0.000000 0.000000 0.000000 0.000000 0.000000 0.479669
#
#
# Mechanical properties :
#
#
# Convention : Reuss Voigt Hill
#
# Bulk Modulus (GPa) = 31.24106 38.11598 34.67852
# Shear Modulus (GPa) = 13.64374 20.15688 16.90031
#
# Velocity S-wave (km/s) = 2.54627 3.09492 2.83390
# Velocity P-wave (km/s) = 4.84669 5.55734 5.21413
#
# Compressibility (1/GPa) = 0.03200916
#
# Stress axis : x y z
#
# Youngs Moduli (GPa) = 40.05772 128.50355 94.39805
#
# Poissons Ratio (x) = 0.22104 0.32227
# Poissons Ratio (y) = 0.06890 0.05012
# Poissons Ratio (z) = 0.13676 0.06823
#
# Static dielectric constant tensor:
#      x y z
#    x 1.805630 0.000000 0.000000 
#    y 0.000000 1.771280 0.000000 
#    z 0.000000 0.000000 1.834480 
# 
# From -- ./inp_files/7366.got.cif
#   From: 2010.05.17/outbox.cif.g08.bks.cpg/sg60_4_cif.got.tgz:7366.got - 2010.06.03 14:59:27.
