data_PCOD9457451
_publ_section_title
;
Structure prediction by ZEFSAII (Michael W. Deem and Ramdas Pophale) SiO2 
 PCOD9457451
Probable space group: P B C N
;
_chemical_formula_sum "Si O2"
_cell_formula_units_Z 60
_cell_length_a 10.963033
_cell_length_b 27.639377
_cell_length_c 9.111565
_cell_angle_alpha 90.000000
_cell_angle_beta 90.000000
_cell_angle_gamma 90.000000
_cell_volume 2760.908086
_symmetry_space_group_name_H-M "P B C N"
_symmetry_group_IT_number 60
_symmetry_cell_setting 'orthorhombic'
loop_
_space_group_symop_operation_xyz
x,y,z
1/2-x,1/2-y,1/2+z
1/2+x,1/2-y,-z
-x,y,1/2-z
-x,-y,-z
1/2+x,1/2+y,1/2-z
1/2-x,1/2+y,z
x,-y,1/2+z
loop_
_atom_site_type_symbol
_atom_site_label
_atom_site_fract_x
_atom_site_fract_y
_atom_site_fract_z
Si Si1 0.082283 0.769486 0.385417
Si Si2 0.706374 0.102117 0.148221
Si Si3 0.196425 0.337965 0.329156
Si Si4 0.679249 0.413269 0.964168
Si Si5 0.937309 0.329886 0.471760
Si Si6 0.500000 0.982770 0.250000
Si Si7 0.540475 0.650680 0.088957
Si Si8 0.828922 0.505439 0.516589
O O1 0.207908 0.793749 0.332020
O O2 0.106834 0.723573 0.486880
O O3 0.000000 0.752702 0.250000
O O4 0.002644 0.809655 0.472241
O O5 0.740407 0.098697 0.319375
O O6 0.821125 0.132889 0.084178
O O7 0.687231 0.048827 0.077404
O O8 0.589679 0.133227 0.102884
O O9 0.271620 0.381624 0.401009
O O10 0.139134 0.347712 0.169927
O O11 0.078910 0.327309 0.429796
O O12 0.542954 0.396673 0.934102
O O13 0.700490 0.469456 0.992005
O O14 0.597374 0.961814 0.135964
O O15 0.589463 0.007442 0.369560
O O16 0.500000 0.669554 0.250000
#
# Coordination Sequence:
#
# PCOD9457451 Si02
#       8
#     8   8   8   8   8   4   8   8
#     4  11  25  44  67  95 129 173 215 270 335 393
#     4  11  24  41  66  97 129 174 220 273 328 392
#     4  10  26  43  63  95 129 165 217 267 321 394
#     4  10  23  43  66  94 130 174 219 268 324 393
#     4  11  27  40  66  94 127 167 216 269 329 386
#     4  10  24  38  60  90 130 170 208 268 322 394
#     4   9  22  45  68  91 132 173 222 271 326 387
#     4  11  23  40  65  94 129 176 217 264 332 390
#
# _framework density 21.731981999999999
#
# number of rings (size 3 to 8) (size 9 to 14) (size 15 to 20)
#    0.000    1.600    1.333    0.800   13.067    1.600 
#    0.000    0.000    0.000    0.000    0.000    0.000 
#    0.000    0.000    0.000    0.000    0.000    0.000 
#
# Total GULP energy -334905.615887 kJ/mol
# GULP energy per Si atom -5581.760265 kJ/mol
# Density = 2.168252 g / cm^3
# Si number density = 21.731982 Si / 1000 Ang^3
#
#
#
# Elastic Constant Matrix: (Units=GPa)
#
#
# Indices 1 2 3 4 5 6 
#
# 1 60.5067 -1.4528 20.7537 0.0000 0.0000 0.0000
# 2 -1.4528 62.0662 3.4336 0.0000 0.0000 0.0000
# 3 20.7537 3.4336 74.2720 0.0000 0.0000 0.0000
# 4 0.0000 0.0000 0.0000 7.0306 0.0000 0.0000
# 5 0.0000 0.0000 0.0000 0.0000 19.0166 0.0000
# 6 0.0000 0.0000 0.0000 0.0000 0.0000 1.9358
#
#
#
# Elastic Compliance Matrix: (Units=1/GPa)
#
#
# Indices 1 2 3 4 5 6 
#
# 1 0.018310 0.000713 -0.005149 0.000000 0.000000 0.000000
# 2 0.000713 0.016181 -0.000947 0.000000 0.000000 0.000000
# 3 -0.005149 -0.000947 0.014947 0.000000 0.000000 0.000000
# 4 0.000000 0.000000 0.000000 0.142236 0.000000 0.000000
# 5 0.000000 0.000000 0.000000 0.000000 0.052586 0.000000
# 6 0.000000 0.000000 0.000000 0.000000 0.000000 0.516591
#
#
# Mechanical properties :
#
#
# Convention : Reuss Voigt Hill
#
# Bulk Modulus (GPa) = 25.85893 26.92377 26.39135
# Shear Modulus (GPa) = 6.37342 17.20394 11.78868
#
# Velocity S-wave (km/s) = 1.71438 2.81666 2.33160
# Velocity P-wave (km/s) = 3.98041 4.79521 4.40668
#
# Compressibility (1/GPa) = 0.03867137
#
# Stress axis : x y z
#
# Youngs Moduli (GPa) = 54.61351 61.80108 66.90425
#
# Poissons Ratio (x) = -0.04409 0.34452
# Poissons Ratio (y) = -0.03897 0.06339
# Poissons Ratio (z) = 0.28123 0.05855
#
# Static dielectric constant tensor:
#      x y z
#    x 1.773600 0.000000 0.000000 
#    y 0.000000 1.771350 0.000000 
#    z 0.000000 0.000000 1.815820 
# 
# From -- ./inp_files/5249.got.cif
#   From: 2010.05.17/outbox.cif.g08.bks.cpg/sg60_3_cif.got.tgz:5249.got - 2010.06.03 14:59:27.
