data_PCOD9457227
_publ_section_title
;
Structure prediction by ZEFSAII (Michael W. Deem and Ramdas Pophale) SiO2 
 PCOD9457227
Probable space group: P B C N
;
_chemical_formula_sum "Si O2"
_cell_formula_units_Z 48
_cell_length_a 9.352627
_cell_length_b 20.925527
_cell_length_c 9.624410
_cell_angle_alpha 90.000000
_cell_angle_beta 90.000000
_cell_angle_gamma 90.000000
_cell_volume 1883.580277
_symmetry_space_group_name_H-M "P B C N"
_symmetry_group_IT_number 60
_symmetry_cell_setting 'orthorhombic'
loop_
_space_group_symop_operation_xyz
x,y,z
1/2-x,1/2-y,1/2+z
1/2+x,1/2-y,-z
-x,y,1/2-z
-x,-y,-z
1/2+x,1/2+y,1/2-z
1/2-x,1/2+y,z
x,-y,1/2+z
loop_
_atom_site_type_symbol
_atom_site_label
_atom_site_fract_x
_atom_site_fract_y
_atom_site_fract_z
Si Si1 0.831046 0.265990 0.802588
Si Si2 0.804518 0.463502 0.116901
Si Si3 0.400905 0.680171 0.365918
Si Si4 0.932019 0.712001 0.969108
Si Si5 0.132840 0.432439 0.072177
Si Si6 0.579998 0.637954 0.627966
O O1 0.757986 0.316103 0.695063
O O2 0.706356 0.255309 0.921154
O O3 0.027565 0.288484 0.612510
O O4 0.856911 0.199745 0.713416
O O5 0.809087 0.460092 0.283123
O O6 0.699618 0.407779 0.066680
O O7 0.963681 0.446370 0.067640
O O8 0.781375 0.533216 0.051383
O O9 0.500000 0.648182 0.250000
O O10 0.445528 0.755206 0.375534
O O11 0.461280 0.656117 0.513172
O O12 0.871760 0.643400 0.930517
O O13 0.500000 0.599936 0.750000
#
# Coordination Sequence:
#
# PCOD9457227 Si02
#       6
#     8   8   8   8   8   8
#     4  11  25  44  74 122 165 213 259 326 424 498
#     4  10  23  45  76 110 144 202 273 333 394 465
#     4  10  25  40  67 116 165 204 250 312 412 498
#     4  11  23  45  77 115 163 206 260 332 409 505
#     4  10  22  45  79 107 143 203 266 337 398 461
#     4  12  24  47  76 113 162 211 264 327 412 492
#
# _framework density 25.483383
#
# number of rings (size 3 to 8) (size 9 to 14) (size 15 to 20)
#    0.000    1.333    3.333    1.000   14.000    0.000 
#    0.000   14.167    3.667    0.000    0.000    0.000 
#    0.000    0.000    0.000    0.000    0.000    0.000 
#
# Total GULP energy -267699.074905 kJ/mol
# GULP energy per Si atom -5577.064061 kJ/mol
# Density = 2.542538 g / cm^3
# Si number density = 25.483383 Si / 1000 Ang^3
#
#
#
# Elastic Constant Matrix: (Units=GPa)
#
#
# Indices 1 2 3 4 5 6 
#
# 1 181.9879 20.2571 58.3533 0.0000 0.0000 0.0000
# 2 20.2571 65.6785 28.8131 0.0000 0.0000 0.0000
# 3 58.3533 28.8131 162.3598 0.0000 0.0000 0.0000
# 4 0.0000 0.0000 0.0000 27.2083 0.0000 0.0000
# 5 0.0000 0.0000 0.0000 0.0000 41.7519 0.0000
# 6 0.0000 0.0000 0.0000 0.0000 0.0000 23.3988
#
#
#
# Elastic Compliance Matrix: (Units=1/GPa)
#
#
# Indices 1 2 3 4 5 6 
#
# 1 0.006274 -0.001026 -0.002073 0.000000 0.000000 0.000000
# 2 -0.001026 0.016679 -0.002591 0.000000 0.000000 0.000000
# 3 -0.002073 -0.002591 0.007364 0.000000 0.000000 0.000000
# 4 0.000000 0.000000 0.000000 0.036753 0.000000 0.000000
# 5 0.000000 0.000000 0.000000 0.000000 0.023951 0.000000
# 6 0.000000 0.000000 0.000000 0.000000 0.000000 0.042737
#
#
# Mechanical properties :
#
#
# Convention : Reuss Voigt Hill
#
# Bulk Modulus (GPa) = 52.80647 69.43033 61.11840
# Shear Modulus (GPa) = 33.01421 38.64531 35.82976
#
# Velocity S-wave (km/s) = 3.60324 3.89844 3.75374
# Velocity P-wave (km/s) = 6.17074 6.89697 6.54394
#
# Compressibility (1/GPa) = 0.01893707
#
# Stress axis : x y z
#
# Youngs Moduli (GPa) = 159.39654 59.95629 135.79596
#
# Poissons Ratio (x) = 0.06149 0.28148
# Poissons Ratio (y) = 0.16348 0.35188
# Poissons Ratio (z) = 0.33039 0.15536
#
# Static dielectric constant tensor:
#      x y z
#    x 2.161620 0.000000 0.000000 
#    y 0.000000 2.133820 0.000000 
#    z 0.000000 0.000000 2.204670 
# 
# From -- ./inp_files/5071.got.cif
#   From: 2010.05.17/outbox.cif.g08.bks.cpg/sg60_3_cif.got.tgz:5071.got - 2010.06.03 14:59:27.
