data_PCOD9457262
_publ_section_title
;
Structure prediction by ZEFSAII (Michael W. Deem and Ramdas Pophale) SiO2 
 PCOD9457262
Probable space group: P B C N
;
_chemical_formula_sum "Si O2"
_cell_formula_units_Z 40
_cell_length_a 11.902204
_cell_length_b 8.367168
_cell_length_c 15.383733
_cell_angle_alpha 90.000000
_cell_angle_beta 90.000000
_cell_angle_gamma 90.000000
_cell_volume 1532.031209
_symmetry_space_group_name_H-M "P B C N"
_symmetry_group_IT_number 60
_symmetry_cell_setting 'orthorhombic'
loop_
_space_group_symop_operation_xyz
x,y,z
1/2-x,1/2-y,1/2+z
1/2+x,1/2-y,-z
-x,y,1/2-z
-x,-y,-z
1/2+x,1/2+y,1/2-z
1/2-x,1/2+y,z
x,-y,1/2+z
loop_
_atom_site_type_symbol
_atom_site_label
_atom_site_fract_x
_atom_site_fract_y
_atom_site_fract_z
Si Si1 0.696819 0.193133 0.591730
Si Si2 0.590526 0.539988 0.571942
Si Si3 0.500000 0.000000 0.500000
Si Si4 0.081044 0.382850 0.666216
Si Si5 0.309098 0.791205 0.207935
Si Si6 0.500000 0.533390 0.250000
O O1 0.659522 0.375000 0.585755
O O2 0.600713 0.080903 0.555882
O O3 0.710846 0.150755 0.693455
O O4 0.814468 0.164538 0.544296
O O5 0.500000 0.500000 0.500000
O O6 0.537046 0.567796 0.666949
O O7 0.517847 0.138788 0.423726
O O8 0.134047 0.563861 0.655732
O O9 0.189390 0.269784 0.674908
O O10 0.000000 0.388065 0.750000
O O11 0.399719 0.648273 0.215985
#
# Coordination Sequence:
#
# PCOD9457262 Si02
#       6
#     8   8   4   8   8   4
#     4  11  26  50  77 112 160 200 267 331 400 484
#     4  11  27  49  75 111 156 200 261 324 392 477
#     4  12  28  48  82 110 158 216 274 330 408 486
#     4  12  26  51  78 113 158 211 264 338 406 481
#     4  11  23  51  79 106 157 204 254 332 403 472
#     4  10  22  46  78 106 146 202 248 318 382 474
#
# _framework density 26.10913
#
# number of rings (size 3 to 8) (size 9 to 14) (size 15 to 20)
#    0.000    0.800    3.000    3.600    5.600    1.600 
#   10.800    0.000    0.000    0.000    0.000    0.000 
#    0.000    0.000    0.000    0.000    0.000    0.000 
#
# Total GULP energy -223676.876793 kJ/mol
# GULP energy per Si atom -5591.921920 kJ/mol
# Density = 2.604970 g / cm^3
# Si number density = 26.109130 Si / 1000 Ang^3
#
#
#
# Elastic Constant Matrix: (Units=GPa)
#
#
# Indices 1 2 3 4 5 6 
#
# 1 153.4863 40.5322 33.8062 0.0000 0.0000 0.0000
# 2 40.5322 69.0133 12.3602 0.0000 0.0000 0.0000
# 3 33.8062 12.3602 75.7405 0.0000 0.0000 0.0000
# 4 0.0000 0.0000 0.0000 42.9861 0.0000 0.0000
# 5 0.0000 0.0000 0.0000 0.0000 4.3430 0.0000
# 6 0.0000 0.0000 0.0000 0.0000 0.0000 57.7112
#
#
#
# Elastic Compliance Matrix: (Units=1/GPa)
#
#
# Indices 1 2 3 4 5 6 
#
# 1 0.008327 -0.004352 -0.003006 0.000000 0.000000 0.000000
# 2 -0.004352 0.017201 -0.000865 0.000000 0.000000 0.000000
# 3 -0.003006 -0.000865 0.014686 0.000000 0.000000 0.000000
# 4 0.000000 0.000000 0.000000 0.023263 0.000000 0.000000
# 5 0.000000 0.000000 0.000000 0.000000 0.230255 0.000000
# 6 0.000000 0.000000 0.000000 0.000000 0.000000 0.017328
#
#
# Mechanical properties :
#
#
# Convention : Reuss Voigt Hill
#
# Bulk Modulus (GPa) = 42.07398 52.40415 47.23906
# Shear Modulus (GPa) = 14.90634 35.11082 25.00858
#
# Velocity S-wave (km/s) = 2.39199 3.67109 3.09827
# Velocity P-wave (km/s) = 4.87632 6.17122 5.56159
#
# Compressibility (1/GPa) = 0.02376766
#
# Stress axis : x y z
#
# Youngs Moduli (GPa) = 120.09654 58.13715 68.09242
#
# Poissons Ratio (x) = 0.25301 0.20471
# Poissons Ratio (y) = 0.52265 0.05887
# Poissons Ratio (z) = 0.36105 0.05026
#
# Static dielectric constant tensor:
#      x y z
#    x 2.142240 0.000000 0.000000 
#    y 0.000000 2.081320 0.000000 
#    z 0.000000 0.000000 2.074100 
# 
# From -- ./inp_files/19875.got.cif
#   From: 2010.05.17/outbox.cif.g08.bks.cpg/sg60_10_cif.got.tgz:19875.got - 2010.06.03 14:59:27.
