data_PCOD9457446
_publ_section_title
;
Structure prediction by ZEFSAII (Michael W. Deem and Ramdas Pophale) SiO2 
 PCOD9457446
Probable space group: P B C N
;
_chemical_formula_sum "Si O2"
_cell_formula_units_Z 40
_cell_length_a 8.367338
_cell_length_b 12.575876
_cell_length_c 17.886056
_cell_angle_alpha 90.000000
_cell_angle_beta 90.000000
_cell_angle_gamma 90.000000
_cell_volume 1882.088952
_symmetry_space_group_name_H-M "P B C N"
_symmetry_group_IT_number 60
_symmetry_cell_setting 'orthorhombic'
loop_
_space_group_symop_operation_xyz
x,y,z
1/2-x,1/2-y,1/2+z
1/2+x,1/2-y,-z
-x,y,1/2-z
-x,-y,-z
1/2+x,1/2+y,1/2-z
1/2-x,1/2+y,z
x,-y,1/2+z
loop_
_atom_site_type_symbol
_atom_site_label
_atom_site_fract_x
_atom_site_fract_y
_atom_site_fract_z
Si Si1 0.987346 0.498092 0.840948
Si Si2 0.186332 0.670187 0.919498
Si Si3 0.472810 0.641418 0.037859
Si Si4 0.648503 0.441108 0.402697
Si Si5 0.033977 0.260279 0.836527
O O1 0.824149 0.549294 0.870675
O O2 0.986393 0.375464 0.867352
O O3 0.000000 0.504371 0.750000
O O4 0.129198 0.562026 0.881027
O O5 0.284281 0.738033 0.858529
O O6 0.035618 0.742211 0.942218
O O7 0.312276 0.651801 0.987103
O O8 0.432893 0.557828 0.103338
O O9 0.616961 0.588623 0.989514
O O10 0.561496 0.342306 0.364386
O O11 0.000000 0.267403 0.750000
#
# Coordination Sequence:
#
# PCOD9457446 Si02
#       5
#     8   8   8   8   8
#     4  11  25  43  68  94 129 176 222 263 330 383
#     4  11  24  42  69  94 137 168 218 274 323 393
#     4  10  24  42  67 101 129 174 217 264 342 379
#     4  10  23  43  65  94 133 166 221 267 321 393
#     4  10  24  44  66  94 133 172 221 268 322 386
#
# _framework density 21.252980000000001
#
# number of rings (size 3 to 8) (size 9 to 14) (size 15 to 20)
#    0.000    1.600    0.000    2.400   16.800    0.800 
#    0.000    0.000    0.000    0.000    0.000    0.000 
#    0.000    0.000    0.000    0.000    0.000    0.000 
#
# Total GULP energy -223297.048547 kJ/mol
# GULP energy per Si atom -5582.426214 kJ/mol
# Density = 2.120461 g / cm^3
# Si number density = 21.252980 Si / 1000 Ang^3
#
#
#
# Elastic Constant Matrix: (Units=GPa)
#
#
# Indices 1 2 3 4 5 6 
#
# 1 107.6807 54.7498 49.6776 0.0000 0.0000 0.0000
# 2 54.7498 155.3314 47.3012 0.0000 0.0000 0.0000
# 3 49.6776 47.3012 55.9138 0.0000 0.0000 0.0000
# 4 0.0000 0.0000 0.0000 36.0858 0.0000 0.0000
# 5 0.0000 0.0000 0.0000 0.0000 28.0939 0.0000
# 6 0.0000 0.0000 0.0000 0.0000 0.0000 43.6755
#
#
#
# Elastic Compliance Matrix: (Units=1/GPa)
#
#
# Indices 1 2 3 4 5 6 
#
# 1 0.016093 -0.001776 -0.012796 0.000000 0.000000 0.000000
# 2 -0.001776 0.008868 -0.005924 0.000000 0.000000 0.000000
# 3 -0.012796 -0.005924 0.034265 0.000000 0.000000 0.000000
# 4 0.000000 0.000000 0.000000 0.027712 0.000000 0.000000
# 5 0.000000 0.000000 0.000000 0.000000 0.035595 0.000000
# 6 0.000000 0.000000 0.000000 0.000000 0.000000 0.022896
#
#
# Mechanical properties :
#
#
# Convention : Reuss Voigt Hill
#
# Bulk Modulus (GPa) = 54.84186 69.15365 61.99775
# Shear Modulus (GPa) = 25.97438 32.71752 29.34595
#
# Velocity S-wave (km/s) = 3.49972 3.92782 3.71993
# Velocity P-wave (km/s) = 6.49547 7.29241 6.90545
#
# Compressibility (1/GPa) = 0.01823425
#
# Stress axis : x y z
#
# Youngs Moduli (GPa) = 62.13976 112.76824 29.18442
#
# Poissons Ratio (x) = 0.20024 0.37343
# Poissons Ratio (y) = 0.11034 0.17289
# Poissons Ratio (z) = 0.79512 0.66806
#
# Static dielectric constant tensor:
#      x y z
#    x 1.769980 0.000000 0.000000 
#    y 0.000000 1.830140 0.000000 
#    z 0.000000 0.000000 1.809820 
# 
# From -- ./inp_files/18995.got.cif
#   From: 2010.05.17/outbox.cif.g08.bks.cpg/sg60_10_cif.got.tgz:18995.got - 2010.06.03 14:59:27.
