data_PCOD9457996
_publ_section_title
;
Structure prediction by ZEFSAII (Michael W. Deem and Ramdas Pophale) SiO2 
 PCOD9457996
Probable space group: P B C N
;
_chemical_formula_sum "Si O2"
_cell_formula_units_Z 36
_cell_length_a 7.821282
_cell_length_b 22.149093
_cell_length_c 9.328973
_cell_angle_alpha 90.000000
_cell_angle_beta 90.000000
_cell_angle_gamma 90.000000
_cell_volume 1616.098130
_symmetry_space_group_name_H-M "P B C N"
_symmetry_group_IT_number 60
_symmetry_cell_setting 'orthorhombic'
loop_
_space_group_symop_operation_xyz
x,y,z
1/2-x,1/2-y,1/2+z
1/2+x,1/2-y,-z
-x,y,1/2-z
-x,-y,-z
1/2+x,1/2+y,1/2-z
1/2-x,1/2+y,z
x,-y,1/2+z
loop_
_atom_site_type_symbol
_atom_site_label
_atom_site_fract_x
_atom_site_fract_y
_atom_site_fract_z
Si Si1 0.500000 0.217404 0.250000
Si Si2 0.800596 0.041033 0.265448
Si Si3 0.670677 0.067759 0.581493
Si Si4 0.795937 0.686932 0.758638
Si Si5 0.860931 0.372160 0.540758
O O1 0.331663 0.258159 0.265927
O O2 0.504010 0.173566 0.113026
O O3 0.758945 0.052377 0.430906
O O4 0.746596 0.098045 0.167316
O O5 0.000000 0.029002 0.250000
O O6 0.702763 0.984903 0.194567
O O7 0.732300 0.130895 0.651077
O O8 0.472310 0.077873 0.541924
O O9 0.000000 0.701770 0.750000
O O10 0.758749 0.662770 0.919054
#
# Coordination Sequence:
#
# PCOD9457996 Si02
#       5
#     4   8   8   8   8
#     4  12  26  46  76 100 146 192 244 304 356 438
#     4  12  25  41  75 105 148 184 242 302 370 436
#     4  11  24  48  68 108 142 193 235 302 370 437
#     4  10  27  46  74 104 145 188 249 296 365 433
#     4  11  25  47  66 105 139 193 237 299 366 437
#
# _framework density 22.275877000000001
#
# number of rings (size 3 to 8) (size 9 to 14) (size 15 to 20)
#    0.000    0.889    2.222    2.667   10.889    4.444 
#    0.000    0.000    0.000    0.000    0.000    0.000 
#    0.000    0.000    0.000    0.000    0.000    0.000 
#
# Total GULP energy -201522.501242 kJ/mol
# GULP energy per Si atom -5597.847257 kJ/mol
# Density = 2.222518 g / cm^3
# Si number density = 22.275877 Si / 1000 Ang^3
#
#
#
# Elastic Constant Matrix: (Units=GPa)
#
#
# Indices 1 2 3 4 5 6 
#
# 1 73.5454 48.9178 31.5684 0.0000 0.0000 0.0000
# 2 48.9178 97.0104 59.1218 0.0000 0.0000 0.0000
# 3 31.5684 59.1218 163.7578 0.0000 0.0000 0.0000
# 4 0.0000 0.0000 0.0000 43.1275 0.0000 0.0000
# 5 0.0000 0.0000 0.0000 0.0000 10.3535 0.0000
# 6 0.0000 0.0000 0.0000 0.0000 0.0000 55.8653
#
#
#
# Elastic Compliance Matrix: (Units=1/GPa)
#
#
# Indices 1 2 3 4 5 6 
#
# 1 0.020469 -0.010150 -0.000281 0.000000 0.000000 0.000000
# 2 -0.010150 0.018249 -0.004632 0.000000 0.000000 0.000000
# 3 -0.000281 -0.004632 0.007833 0.000000 0.000000 0.000000
# 4 0.000000 0.000000 0.000000 0.023187 0.000000 0.000000
# 5 0.000000 0.000000 0.000000 0.000000 0.096586 0.000000
# 6 0.000000 0.000000 0.000000 0.000000 0.000000 0.017900
#
#
# Mechanical properties :
#
#
# Convention : Reuss Voigt Hill
#
# Bulk Modulus (GPa) = 60.88420 68.16994 64.52707
# Shear Modulus (GPa) = 22.74527 34.84963 28.79745
#
# Velocity S-wave (km/s) = 3.19889 3.95961 3.59940
# Velocity P-wave (km/s) = 6.40586 7.18148 6.80473
#
# Compressibility (1/GPa) = 0.01642462
#
# Stress axis : x y z
#
# Youngs Moduli (GPa) = 48.85428 54.79691 127.66371
#
# Poissons Ratio (x) = 0.55619 0.03593
# Poissons Ratio (y) = 0.49587 0.59132
# Poissons Ratio (z) = 0.01375 0.25381
#
# Static dielectric constant tensor:
#      x y z
#    x 1.797750 0.000000 0.000000 
#    y 0.000000 1.830530 0.000000 
#    z 0.000000 0.000000 1.848860 
# 
# From -- ./inp_files/3711.got.cif
#   From: 2010.05.17/outbox.cif.g08.bks.cpg/sg60_2_cif.got.tgz:3711.got - 2010.06.03 14:59:27.
