data_PCOD9457965
_publ_section_title
;
Structure prediction by ZEFSAII (Michael W. Deem and Ramdas Pophale) SiO2 
 PCOD9457965
Probable space group: P B C N
;
_chemical_formula_sum "Si O2"
_cell_formula_units_Z 24
_cell_length_a 5.291618
_cell_length_b 14.452269
_cell_length_c 13.850416
_cell_angle_alpha 90.000000
_cell_angle_beta 90.000000
_cell_angle_gamma 90.000000
_cell_volume 1059.222846
_symmetry_space_group_name_H-M "P B C N"
_symmetry_group_IT_number 60
_symmetry_cell_setting 'orthorhombic'
loop_
_space_group_symop_operation_xyz
x,y,z
1/2-x,1/2-y,1/2+z
1/2+x,1/2-y,-z
-x,y,1/2-z
-x,-y,-z
1/2+x,1/2+y,1/2-z
1/2-x,1/2+y,z
x,-y,1/2+z
loop_
_atom_site_type_symbol
_atom_site_label
_atom_site_fract_x
_atom_site_fract_y
_atom_site_fract_z
Si Si1 0.205812 0.578964 0.973434
Si Si2 0.945432 0.082440 0.138966
Si Si3 0.249212 0.765181 0.316130
O O1 0.390498 0.515465 0.908912
O O2 0.172499 0.664542 0.901249
O O3 0.326789 0.617142 0.071873
O O4 0.000000 0.500000 0.000000
O O5 0.731882 0.161822 0.138403
O O6 0.000000 0.065056 0.250000
O O7 0.500000 0.761860 0.250000
O O8 0.000000 0.785407 0.250000
#
# Coordination Sequence:
#
# PCOD9457965 Si02
#       3
#     8   8   8
#     4  11  27  43  76 106 149 199 249 312 377 465
#     4  10  26  46  70 104 146 191 248 311 380 447
#     4  11  28  47  78 109 151 195 251 316 382 460
#
# _framework density 22.658121999999999
#
# number of rings (size 3 to 8) (size 9 to 14) (size 15 to 20)
#    0.000    1.333    0.000    1.000   28.000    0.000 
#    0.000    0.000    0.000    0.000    0.000    0.000 
#    0.000    0.000    0.000    0.000    0.000    0.000 
#
# Total GULP energy -133688.281968 kJ/mol
# GULP energy per Si atom -5570.345082 kJ/mol
# Density = 2.260655 g / cm^3
# Si number density = 22.658122 Si / 1000 Ang^3
#
#
#
# Elastic Constant Matrix: (Units=GPa)
#
#
# Indices 1 2 3 4 5 6 
#
# 1 92.0969 0.2392 44.5945 0.0000 0.0000 0.0000
# 2 0.2392 77.0219 45.0217 0.0000 0.0000 0.0000
# 3 44.5945 45.0217 172.1561 0.0000 0.0000 0.0000
# 4 0.0000 0.0000 0.0000 108.4647 0.0000 0.0000
# 5 0.0000 0.0000 0.0000 0.0000 25.4271 0.0000
# 6 0.0000 0.0000 0.0000 0.0000 0.0000 30.7582
#
#
#
# Elastic Compliance Matrix: (Units=1/GPa)
#
#
# Indices 1 2 3 4 5 6 
#
# 1 0.012731 0.002229 -0.003881 0.000000 0.000000 0.000000
# 2 0.002229 0.015716 -0.004687 0.000000 0.000000 0.000000
# 3 -0.003881 -0.004687 0.008040 0.000000 0.000000 0.000000
# 4 0.000000 0.000000 0.000000 0.009220 0.000000 0.000000
# 5 0.000000 0.000000 0.000000 0.000000 0.039328 0.000000
# 6 0.000000 0.000000 0.000000 0.000000 0.000000 0.032512
#
#
# Mechanical properties :
#
#
# Convention : Reuss Voigt Hill
#
# Bulk Modulus (GPa) = 42.00107 57.88731 49.94419
# Shear Modulus (GPa) = 36.18941 49.69131 42.94036
#
# Velocity S-wave (km/s) = 4.00083 4.68812 4.35805
# Velocity P-wave (km/s) = 6.31817 7.41001 6.88577
#
# Compressibility (1/GPa) = 0.02380892
#
# Stress axis : x y z
#
# Youngs Moduli (GPa) = 78.54558 63.62798 124.38140
#
# Poissons Ratio (x) = -0.14182 0.48270
# Poissons Ratio (y) = -0.17507 0.58303
# Poissons Ratio (z) = 0.30482 0.29825
#
# Static dielectric constant tensor:
#      x y z
#    x 1.975480 0.000000 0.000000 
#    y 0.000000 1.874590 0.000000 
#    z 0.000000 0.000000 -0.658890 
# 
# From -- ./inp_files/8662.got.cif
#   From: 2010.05.17/outbox.cif.g08.bks.cpg/sg60_5_cif.got.tgz:8662.got - 2010.06.03 14:59:27.
