data_PCOD9457486
_publ_section_title
;
Structure prediction by ZEFSAII (Michael W. Deem and Ramdas Pophale) SiO2 
 PCOD9457486
Probable space group: P B C N
;
_chemical_formula_sum "Si O2"
_cell_formula_units_Z 48
_cell_length_a 26.343894
_cell_length_b 5.774303
_cell_length_c 13.378281
_cell_angle_alpha 90.000000
_cell_angle_beta 90.000000
_cell_angle_gamma 90.000000
_cell_volume 2035.072348
_symmetry_space_group_name_H-M "P B C N"
_symmetry_group_IT_number 60
_symmetry_cell_setting 'orthorhombic'
loop_
_space_group_symop_operation_xyz
x,y,z
1/2-x,1/2-y,1/2+z
1/2+x,1/2-y,-z
-x,y,1/2-z
-x,-y,-z
1/2+x,1/2+y,1/2-z
1/2-x,1/2+y,z
x,-y,1/2+z
loop_
_atom_site_type_symbol
_atom_site_label
_atom_site_fract_x
_atom_site_fract_y
_atom_site_fract_z
Si Si1 0.879598 0.214821 0.177424
Si Si2 0.386275 0.020378 0.122896
Si Si3 0.233604 0.342374 0.374231
Si Si4 0.230696 0.629261 0.106654
Si Si5 0.947242 0.518376 0.055276
Si Si6 0.945759 0.165810 0.746887
O O1 0.884598 0.363073 0.278723
O O2 0.824410 0.261329 0.135345
O O3 0.920924 0.284917 0.094719
O O4 0.895035 0.962677 0.211781
O O5 0.330287 0.120445 0.107569
O O6 0.428315 0.213914 0.150729
O O7 0.406418 0.886464 0.025208
O O8 0.237309 0.609923 0.335238
O O9 0.248914 0.368039 0.490757
O O10 0.249858 0.378193 0.147849
O O11 0.955351 0.656484 0.157222
O O12 0.000000 0.500000 0.000000
O O13 0.000000 0.031315 0.750000
#
# Coordination Sequence:
#
# PCOD9457486 Si02
#       6
#     8   8   8   8   8   8
#     4  11  27  42  69 105 139 186 239 302 362 437
#     4  11  25  45  69 100 141 185 240 296 362 437
#     4  10  23  44  72 103 144 189 241 302 367 432
#     4  10  23  43  71 105 142 189 244 297 361 440
#     4  11  24  46  69  97 142 188 231 296 364 431
#     4  11  26  44  69 105 141 181 244 298 365 437
#
# _framework density 23.586385
#
# number of rings (size 3 to 8) (size 9 to 14) (size 15 to 20)
#    0.000    1.333    3.333    0.000    9.333    4.667 
#    0.000    0.000    0.000    0.000    0.000    0.000 
#    0.000    0.000    0.000    0.000    0.000    0.000 
#
# Total GULP energy -267819.777901 kJ/mol
# GULP energy per Si atom -5579.578706 kJ/mol
# Density = 2.353270 g / cm^3
# Si number density = 23.586385 Si / 1000 Ang^3
#
#
#
# Elastic Constant Matrix: (Units=GPa)
#
#
# Indices 1 2 3 4 5 6 
#
# 1 131.7131 38.6222 6.0910 0.0000 0.0000 0.0000
# 2 38.6222 93.2107 6.3385 0.0000 0.0000 0.0000
# 3 6.0910 6.3385 73.3686 0.0000 0.0000 0.0000
# 4 0.0000 0.0000 0.0000 18.1064 0.0000 0.0000
# 5 0.0000 0.0000 0.0000 0.0000 35.6316 0.0000
# 6 0.0000 0.0000 0.0000 0.0000 0.0000 31.1312
#
#
#
# Elastic Compliance Matrix: (Units=1/GPa)
#
#
# Indices 1 2 3 4 5 6 
#
# 1 0.008655 -0.003558 -0.000411 0.000000 0.000000 0.000000
# 2 -0.003558 0.012255 -0.000763 0.000000 0.000000 0.000000
# 3 -0.000411 -0.000763 0.013730 0.000000 0.000000 0.000000
# 4 0.000000 0.000000 0.000000 0.055229 0.000000 0.000000
# 5 0.000000 0.000000 0.000000 0.000000 0.028065 0.000000
# 6 0.000000 0.000000 0.000000 0.000000 0.000000 0.032122
#
#
# Mechanical properties :
#
#
# Convention : Reuss Voigt Hill
#
# Bulk Modulus (GPa) = 39.72343 44.48838 42.10590
# Shear Modulus (GPa) = 29.77753 33.45654 31.61703
#
# Velocity S-wave (km/s) = 3.55701 3.77034 3.66523
# Velocity P-wave (km/s) = 5.80930 6.15279 5.98351
#
# Compressibility (1/GPa) = 0.02517406
#
# Stress axis : x y z
#
# Youngs Moduli (GPa) = 115.54525 81.60194 72.83380
#
# Poissons Ratio (x) = 0.29035 0.02994
# Poissons Ratio (y) = 0.41112 0.05559
# Poissons Ratio (z) = 0.04750 0.06229
#
# Static dielectric constant tensor:
#      x y z
#    x 1.896530 0.000000 0.000000 
#    y 0.000000 1.940770 0.000000 
#    z 0.000000 0.000000 1.949550 
# 
# From -- ./inp_files/18054.got.cif
#   From: 2010.05.17/outbox.cif.g08.bks.cpg/sg60_10_cif.got.tgz:18054.got - 2010.06.03 14:59:27.
