data_PCOD9457879
_publ_section_title
;
Structure prediction by ZEFSAII (Michael W. Deem and Ramdas Pophale) SiO2 
 PCOD9457879
Probable space group: P B C N
;
_chemical_formula_sum "Si O2"
_cell_formula_units_Z 32
_cell_length_a 16.697398
_cell_length_b 7.851882
_cell_length_c 10.002172
_cell_angle_alpha 90.000000
_cell_angle_beta 90.000000
_cell_angle_gamma 90.000000
_cell_volume 1311.344750
_symmetry_space_group_name_H-M "P B C N"
_symmetry_group_IT_number 60
_symmetry_cell_setting 'orthorhombic'
loop_
_space_group_symop_operation_xyz
x,y,z
1/2-x,1/2-y,1/2+z
1/2+x,1/2-y,-z
-x,y,1/2-z
-x,-y,-z
1/2+x,1/2+y,1/2-z
1/2-x,1/2+y,z
x,-y,1/2+z
loop_
_atom_site_type_symbol
_atom_site_label
_atom_site_fract_x
_atom_site_fract_y
_atom_site_fract_z
Si Si1 0.709833 0.795059 0.398565
Si Si2 0.338739 0.717619 0.824556
Si Si3 0.907690 0.528353 0.538943
Si Si4 0.911255 0.134638 0.195200
O O1 0.787741 0.812346 0.308234
O O2 0.721053 0.722743 0.547744
O O3 0.650861 0.676325 0.313246
O O4 0.656449 0.963726 0.428861
O O5 0.396182 0.557904 0.849123
O O6 0.386295 0.894855 0.841102
O O7 0.899461 0.722258 0.583079
O O8 0.000000 0.500000 0.500000
O O9 0.000000 0.154658 0.250000
#
# Coordination Sequence:
#
# PCOD9457879 Si02
#       4
#     8   8   8   8
#     4  10  26  52  76 117 162 205 271 332 408 483
#     4  10  27  52  78 118 162 209 269 337 405 491
#     4  10  24  53  80 114 161 210 269 336 402 480
#     4  12  25  49  81 118 158 213 269 333 405 483
#
# _framework density 24.402431
#
# number of rings (size 3 to 8) (size 9 to 14) (size 15 to 20)
#    1.500    0.000    2.500    0.000    3.500    9.000 
#    9.000    0.000    0.000    0.000    0.000    0.000 
#    0.000    0.000    0.000    0.000    0.000    0.000 
#
# Total GULP energy -179014.014767 kJ/mol
# GULP energy per Si atom -5594.187961 kJ/mol
# Density = 2.434689 g / cm^3
# Si number density = 24.402431 Si / 1000 Ang^3
#
#
#
# Elastic Constant Matrix: (Units=GPa)
#
#
# Indices 1 2 3 4 5 6 
#
# 1 96.0696 11.5612 4.6702 0.0000 0.0000 0.0000
# 2 11.5612 68.9398 14.5313 0.0000 0.0000 0.0000
# 3 4.6702 14.5313 93.6561 0.0000 0.0000 0.0000
# 4 0.0000 0.0000 0.0000 14.0666 0.0000 0.0000
# 5 0.0000 0.0000 0.0000 0.0000 51.9158 0.0000
# 6 0.0000 0.0000 0.0000 0.0000 0.0000 32.6372
#
#
#
# Elastic Compliance Matrix: (Units=1/GPa)
#
#
# Indices 1 2 3 4 5 6 
#
# 1 0.010630 -0.001727 -0.000262 0.000000 0.000000 0.000000
# 2 -0.001727 0.015277 -0.002284 0.000000 0.000000 0.000000
# 3 -0.000262 -0.002284 0.011045 0.000000 0.000000 0.000000
# 4 0.000000 0.000000 0.000000 0.071090 0.000000 0.000000
# 5 0.000000 0.000000 0.000000 0.000000 0.019262 0.000000
# 6 0.000000 0.000000 0.000000 0.000000 0.000000 0.030640
#
#
# Mechanical properties :
#
#
# Convention : Reuss Voigt Hill
#
# Bulk Modulus (GPa) = 35.20626 35.57677 35.39152
# Shear Modulus (GPa) = 28.41580 34.91743 31.66661
#
# Velocity S-wave (km/s) = 3.41613 3.78683 3.60624
# Velocity P-wave (km/s) = 5.47892 5.80783 5.64577
#
# Compressibility (1/GPa) = 0.02840404
#
# Stress axis : x y z
#
# Youngs Moduli (GPa) = 94.07568 65.45988 90.54016
#
# Poissons Ratio (x) = 0.11307 0.02373
# Poissons Ratio (y) = 0.16250 0.20680
# Poissons Ratio (z) = 0.02465 0.14952
#
# Static dielectric constant tensor:
#      x y z
#    x 2.072430 0.000000 0.000000 
#    y 0.000000 1.992560 0.000000 
#    z 0.000000 0.000000 1.962960 
# 
# From -- ./inp_files/5472.got.cif
#   From: 2010.05.17/outbox.cif.g08.bks.cpg/sg60_3_cif.got.tgz:5472.got - 2010.06.03 14:59:27.
