data_PCOD9457017
_publ_section_title
;
Structure prediction by ZEFSAII (Michael W. Deem and Ramdas Pophale) SiO2 
 PCOD9457017
Probable space group: P B C N
;
_chemical_formula_sum "Si O2"
_cell_formula_units_Z 48
_cell_length_a 27.981449
_cell_length_b 7.562453
_cell_length_c 9.066094
_cell_angle_alpha 90.000000
_cell_angle_beta 90.000000
_cell_angle_gamma 90.000000
_cell_volume 1918.461582
_symmetry_space_group_name_H-M "P B C N"
_symmetry_group_IT_number 60
_symmetry_cell_setting 'orthorhombic'
loop_
_space_group_symop_operation_xyz
x,y,z
1/2-x,1/2-y,1/2+z
1/2+x,1/2-y,-z
-x,y,1/2-z
-x,-y,-z
1/2+x,1/2+y,1/2-z
1/2-x,1/2+y,z
x,-y,1/2+z
loop_
_atom_site_type_symbol
_atom_site_label
_atom_site_fract_x
_atom_site_fract_y
_atom_site_fract_z
Si Si1 0.196487 0.874525 0.168529
Si Si2 0.393885 0.471051 0.331592
Si Si3 0.048546 0.947414 0.076177
Si Si4 0.381850 0.114467 0.791294
Si Si5 0.710693 0.740328 0.181246
Si Si6 0.055352 0.471467 0.539764
O O1 0.143564 0.850760 0.242834
O O2 0.235357 0.795464 0.280982
O O3 0.202837 0.084262 0.197507
O O4 0.203828 0.815871 0.995435
O O5 0.408097 0.440927 0.500156
O O6 0.379480 0.676873 0.328994
O O7 0.444220 0.473994 0.247549
O O8 0.056242 0.738833 0.060503
O O9 0.000000 0.000000 0.000000
O O10 0.324827 0.095225 0.774633
O O11 0.403445 0.995902 0.920164
O O12 0.423783 0.081136 0.674372
O O13 0.000000 0.500000 0.500000
#
# Coordination Sequence:
#
# PCOD9457017 Si02
#       6
#     8   8   8   8   8   8
#     4  11  23  44  70 100 136 184 234 293 357 425
#     4  10  22  42  64  90 129 171 219 272 334 409
#     4  11  23  39  63  95 128 170 220 273 337 411
#     4  10  24  43  63  92 129 171 218 276 339 406
#     4  11  25  45  70 100 138 182 235 293 357 429
#     4  11  23  41  64  93 130 170 218 275 339 410
#
# _framework density 25.020045
#
# number of rings (size 3 to 8) (size 9 to 14) (size 15 to 20)
#    0.000    1.333    0.000    6.000    0.000   12.000 
#    0.000    3.333    0.000    0.000    0.000    0.000 
#    0.000    0.000    0.000    0.000    0.000    0.000 
#
# Total GULP energy -267308.978764 kJ/mol
# GULP energy per Si atom -5568.937058 kJ/mol
# Density = 2.496310 g / cm^3
# Si number density = 25.020045 Si / 1000 Ang^3
#
#
#
# Elastic Constant Matrix: (Units=GPa)
#
#
# Indices 1 2 3 4 5 6 
#
# 1 158.9284 28.8935 48.7719 0.0000 0.0000 0.0000
# 2 28.8935 44.6441 10.8666 0.0000 0.0000 0.0000
# 3 48.7719 10.8666 104.3460 0.0000 0.0000 0.0000
# 4 0.0000 0.0000 0.0000 21.8110 0.0000 0.0000
# 5 0.0000 0.0000 0.0000 0.0000 49.3653 0.0000
# 6 0.0000 0.0000 0.0000 0.0000 0.0000 50.1300
#
#
#
# Elastic Compliance Matrix: (Units=1/GPa)
#
#
# Indices 1 2 3 4 5 6 
#
# 1 0.008124 -0.004446 -0.003334 0.000000 0.000000 0.000000
# 2 -0.004446 0.025415 -0.000569 0.000000 0.000000 0.000000
# 3 -0.003334 -0.000569 0.011201 0.000000 0.000000 0.000000
# 4 0.000000 0.000000 0.000000 0.045848 0.000000 0.000000
# 5 0.000000 0.000000 0.000000 0.000000 0.020257 0.000000
# 6 0.000000 0.000000 0.000000 0.000000 0.000000 0.019948
#
#
# Mechanical properties :
#
#
# Convention : Reuss Voigt Hill
#
# Bulk Modulus (GPa) = 35.66012 53.88695 44.77353
# Shear Modulus (GPa) = 31.87995 38.88703 35.38349
#
# Velocity S-wave (km/s) = 3.57343 3.94666 3.76467
# Velocity P-wave (km/s) = 5.59549 6.50787 6.06885
#
# Compressibility (1/GPa) = 0.02804253
#
# Stress axis : x y z
#
# Youngs Moduli (GPa) = 123.09843 39.34642 89.27730
#
# Poissons Ratio (x) = 0.17494 0.29765
# Poissons Ratio (y) = 0.54730 0.05077
# Poissons Ratio (z) = 0.41041 0.02237
#
# Static dielectric constant tensor:
#      x y z
#    x 2.130950 0.000000 0.000000 
#    y 0.000000 1.889240 0.000000 
#    z 0.000000 0.000000 1.878680 
# 
# From -- ./inp_files/8417.got.cif
#   From: 2010.05.17/outbox.cif.g08.bks.cpg/sg60_5_cif.got.tgz:8417.got - 2010.06.03 14:59:27.
