data_PCOD9457001
_publ_section_title
;
Structure prediction by ZEFSAII (Michael W. Deem and Ramdas Pophale) SiO2 
 PCOD9457001
Probable space group: P B C N
;
_chemical_formula_sum "Si O2"
_cell_formula_units_Z 56
_cell_length_a 14.794278
_cell_length_b 9.134096
_cell_length_c 18.874824
_cell_angle_alpha 90.000000
_cell_angle_beta 90.000000
_cell_angle_gamma 90.000000
_cell_volume 2550.599427
_symmetry_space_group_name_H-M "P B C N"
_symmetry_group_IT_number 60
_symmetry_cell_setting 'orthorhombic'
loop_
_space_group_symop_operation_xyz
x,y,z
1/2-x,1/2-y,1/2+z
1/2+x,1/2-y,-z
-x,y,1/2-z
-x,-y,-z
1/2+x,1/2+y,1/2-z
1/2-x,1/2+y,z
x,-y,1/2+z
loop_
_atom_site_type_symbol
_atom_site_label
_atom_site_fract_x
_atom_site_fract_y
_atom_site_fract_z
Si Si1 0.000000 0.133354 0.750000
Si Si2 0.229447 0.916981 0.435632
Si Si3 0.638473 0.377605 0.771562
Si Si4 0.362155 0.067034 0.049981
Si Si5 0.310137 0.728076 0.077234
Si Si6 0.774121 0.347799 0.656145
Si Si7 0.981643 0.607707 0.142046
Si Si8 0.000000 0.636426 0.750000
O O1 0.999746 0.240718 0.817286
O O2 0.085730 0.026506 0.744478
O O3 0.329497 0.912896 0.469736
O O4 0.171036 0.852560 0.501201
O O5 0.221641 0.819563 0.366339
O O6 0.213499 0.078515 0.406141
O O7 0.641158 0.341337 0.854896
O O8 0.734735 0.377060 0.733098
O O9 0.582896 0.244742 0.735526
O O10 0.295759 0.184671 0.088695
O O11 0.464974 0.100769 0.068565
O O12 0.330793 0.900655 0.069620
O O13 0.874619 0.408056 0.647256
O O14 0.022541 0.472632 0.186294
#
# Coordination Sequence:
#
# PCOD9457001 Si02
#       8
#     4   8   8   8   8   8   8   4
#     4  10  26  42  58 102 144 166 226 288 334 408
#     4  10  22  43  62  98 134 174 219 268 336 413
#     4  11  24  42  70  95 134 181 224 280 345 392
#     4  10  22  42  69  90 130 178 228 275 320 415
#     4  10  22  42  69  94 126 184 228 268 331 422
#     4  12  24  41  68 102 138 173 219 290 350 391
#     4  11  24  40  64 101 137 172 229 281 338 404
#     4  10  22  42  60  98 136 168 226 284 334 400
#
# _framework density 21.955622000000002
#
# number of rings (size 3 to 8) (size 9 to 14) (size 15 to 20)
#    0.857    0.571    2.857    1.714    6.000    1.714 
#    0.000    0.000    0.000    6.857    0.000    0.000 
#    0.000    0.000    0.000    0.000    0.000    0.000 
#
# Total GULP energy -312203.445918 kJ/mol
# GULP energy per Si atom -5575.061534 kJ/mol
# Density = 2.190565 g / cm^3
# Si number density = 21.955622 Si / 1000 Ang^3
#
#
#
# Elastic Constant Matrix: (Units=GPa)
#
#
# Indices 1 2 3 4 5 6 
#
# 1 58.1536 35.0346 9.9419 0.0000 0.0000 0.0000
# 2 35.0346 117.4361 28.6553 0.0000 0.0000 0.0000
# 3 9.9419 28.6553 69.0585 0.0000 0.0000 0.0000
# 4 0.0000 0.0000 0.0000 17.2738 0.0000 0.0000
# 5 0.0000 0.0000 0.0000 0.0000 22.6248 0.0000
# 6 0.0000 0.0000 0.0000 0.0000 0.0000 13.0761
#
#
#
# Elastic Compliance Matrix: (Units=1/GPa)
#
#
# Indices 1 2 3 4 5 6 
#
# 1 0.020977 -0.006143 -0.000471 0.000000 0.000000 0.000000
# 2 -0.006143 0.011274 -0.003794 0.000000 0.000000 0.000000
# 3 -0.000471 -0.003794 0.016122 0.000000 0.000000 0.000000
# 4 0.000000 0.000000 0.000000 0.057891 0.000000 0.000000
# 5 0.000000 0.000000 0.000000 0.000000 0.044199 0.000000
# 6 0.000000 0.000000 0.000000 0.000000 0.000000 0.076476
#
#
# Mechanical properties :
#
#
# Convention : Reuss Voigt Hill
#
# Bulk Modulus (GPa) = 36.28702 43.54576 39.91639
# Shear Modulus (GPa) = 19.45976 21.99604 20.72790
#
# Velocity S-wave (km/s) = 2.98035 3.16862 3.07592
# Velocity P-wave (km/s) = 5.32978 5.76745 5.55293
#
# Compressibility (1/GPa) = 0.02755806
#
# Stress axis : x y z
#
# Youngs Moduli (GPa) = 47.67052 88.70259 62.02564
#
# Poissons Ratio (x) = 0.54492 0.02921
# Poissons Ratio (y) = 0.29285 0.23530
# Poissons Ratio (z) = 0.02245 0.33649
#
# Static dielectric constant tensor:
#      x y z
#    x 1.855750 0.000000 0.000000 
#    y 0.000000 1.800130 0.000000 
#    z 0.000000 0.000000 1.823030 
# 
# From -- ./inp_files/22959.got.cif
#   From: 2010.05.17/outbox.cif.g08.bks.cpg/sg60_12_cif.got.tgz:22959.got - 2010.06.03 14:59:27.
