data_PCOD9457904
_publ_section_title
;
Structure prediction by ZEFSAII (Michael W. Deem and Ramdas Pophale) SiO2 
 PCOD9457904
Probable space group: P B C N
;
_chemical_formula_sum "Si O2"
_cell_formula_units_Z 64
_cell_length_a 23.328988
_cell_length_b 13.346367
_cell_length_c 8.215452
_cell_angle_alpha 90.000000
_cell_angle_beta 90.000000
_cell_angle_gamma 90.000000
_cell_volume 2557.940424
_symmetry_space_group_name_H-M "P B C N"
_symmetry_group_IT_number 60
_symmetry_cell_setting 'orthorhombic'
loop_
_space_group_symop_operation_xyz
x,y,z
1/2-x,1/2-y,1/2+z
1/2+x,1/2-y,-z
-x,y,1/2-z
-x,-y,-z
1/2+x,1/2+y,1/2-z
1/2-x,1/2+y,z
x,-y,1/2+z
loop_
_atom_site_type_symbol
_atom_site_label
_atom_site_fract_x
_atom_site_fract_y
_atom_site_fract_z
Si Si1 0.795736 0.762908 0.129225
Si Si2 0.174879 0.438864 0.265113
Si Si3 0.088654 0.707544 0.627046
Si Si4 0.260400 0.560186 0.041854
Si Si5 0.982605 0.889902 0.937765
Si Si6 0.692269 0.648962 0.983686
Si Si7 0.904826 0.379908 0.687177
Si Si8 0.428050 0.765490 0.495085
O O1 0.796407 0.838920 0.976159
O O2 0.741651 0.691930 0.099561
O O3 0.791224 0.825676 0.296727
O O4 0.851770 0.697091 0.158644
O O5 0.150490 0.347039 0.160911
O O6 0.206314 0.407461 0.428460
O O7 0.121555 0.510254 0.305126
O O8 0.223167 0.508939 0.182856
O O9 0.076478 0.823643 0.571632
O O10 0.061470 0.641051 0.480555
O O11 0.062875 0.698792 0.809507
O O12 0.303705 0.470543 0.992747
O O13 0.000000 0.894012 0.750000
O O14 0.024143 0.815943 0.035655
O O15 0.000000 0.000000 0.000000
O O16 0.631986 0.703055 0.013030
O O17 0.927661 0.347457 0.862897
#
# Coordination Sequence:
#
# PCOD9457904 Si02
#       8
#     8   8   8   8   8   8   8   8
#     4  11  23  39  58  92 136 183 235 281 342 428
#     4  12  21  41  62  99 140 184 239 281 352 434
#     4  11  24  44  74 101 135 187 234 300 373 429
#     4  12  23  36  61  90 143 186 228 285 347 417
#     4  10  25  50  79 105 137 181 236 304 381 428
#     4  11  23  39  60  94 132 183 227 282 344 413
#     4  11  24  41  70 101 137 189 240 284 360 430
#     4  10  25  45  67 102 139 174 239 302 347 430
#
# _framework density 25.020129000000001
#
# number of rings (size 3 to 8) (size 9 to 14) (size 15 to 20)
#    0.000    1.000    3.750    3.000    3.500    1.000 
#    6.750    0.625    2.750    0.000    0.000    0.000 
#    0.000    0.000    0.000    0.000    0.000    0.000 
#
# Total GULP energy -357118.753100 kJ/mol
# GULP energy per Si atom -5579.980517 kJ/mol
# Density = 2.496318 g / cm^3
# Si number density = 25.020129 Si / 1000 Ang^3
#
#
#
# Elastic Constant Matrix: (Units=GPa)
#
#
# Indices 1 2 3 4 5 6 
#
# 1 62.4797 33.7541 20.0737 0.0000 0.0000 0.0000
# 2 33.7541 152.7706 29.2399 0.0000 0.0000 0.0000
# 3 20.0737 29.2399 99.8578 0.0000 0.0000 0.0000
# 4 0.0000 0.0000 0.0000 35.1584 0.0000 0.0000
# 5 0.0000 0.0000 0.0000 0.0000 18.2671 0.0000
# 6 0.0000 0.0000 0.0000 0.0000 0.0000 44.3132
#
#
#
# Elastic Compliance Matrix: (Units=1/GPa)
#
#
# Indices 1 2 3 4 5 6 
#
# 1 0.018848 -0.003643 -0.002722 0.000000 0.000000 0.000000
# 2 -0.003643 0.007639 -0.001504 0.000000 0.000000 0.000000
# 3 -0.002722 -0.001504 0.011002 0.000000 0.000000 0.000000
# 4 0.000000 0.000000 0.000000 0.028443 0.000000 0.000000
# 5 0.000000 0.000000 0.000000 0.000000 0.054743 0.000000
# 6 0.000000 0.000000 0.000000 0.000000 0.000000 0.022567
#
#
# Mechanical properties :
#
#
# Convention : Reuss Voigt Hill
#
# Bulk Modulus (GPa) = 45.97887 53.47150 49.72519
# Shear Modulus (GPa) = 30.07869 35.01710 32.54789
#
# Velocity S-wave (km/s) = 3.47101 3.74512 3.61067
# Velocity P-wave (km/s) = 5.87201 6.33396 6.10735
#
# Compressibility (1/GPa) = 0.02174912
#
# Stress axis : x y z
#
# Youngs Moduli (GPa) = 53.05577 130.91262 90.89322
#
# Poissons Ratio (x) = 0.47697 0.24742
# Poissons Ratio (y) = 0.19330 0.13673
# Poissons Ratio (z) = 0.14442 0.19693
#
# Static dielectric constant tensor:
#      x y z
#    x 2.094830 0.000000 0.000000 
#    y 0.000000 1.984760 0.000000 
#    z 0.000000 0.000000 2.092810 
# 
# From -- ./inp_files/7968.got.cif
#   From: 2010.05.17/outbox.cif.g08.bks.cpg/sg60_4_cif.got.tgz:7968.got - 2010.06.03 14:59:27.
