data_PCOD9457016
_publ_section_title
;
Structure prediction by ZEFSAII (Michael W. Deem and Ramdas Pophale) SiO2 
 PCOD9457016
Probable space group: P B C N
;
_chemical_formula_sum "Si O2"
_cell_formula_units_Z 60
_cell_length_a 11.845910
_cell_length_b 11.701898
_cell_length_c 21.861933
_cell_angle_alpha 90.000000
_cell_angle_beta 90.000000
_cell_angle_gamma 90.000000
_cell_volume 3030.493075
_symmetry_space_group_name_H-M "P B C N"
_symmetry_group_IT_number 60
_symmetry_cell_setting 'orthorhombic'
loop_
_space_group_symop_operation_xyz
x,y,z
1/2-x,1/2-y,1/2+z
1/2+x,1/2-y,-z
-x,y,1/2-z
-x,-y,-z
1/2+x,1/2+y,1/2-z
1/2-x,1/2+y,z
x,-y,1/2+z
loop_
_atom_site_type_symbol
_atom_site_label
_atom_site_fract_x
_atom_site_fract_y
_atom_site_fract_z
Si Si1 0.934441 0.003391 0.366146
Si Si2 0.500000 0.643311 0.750000
Si Si3 0.373140 0.557522 0.943255
Si Si4 0.478839 0.117511 0.075448
Si Si5 0.123607 0.171408 0.389178
Si Si6 0.279546 0.336127 0.568654
Si Si7 0.846670 0.242959 0.656431
Si Si8 0.543877 0.856686 0.436681
O O1 0.023491 0.105805 0.354870
O O2 0.819612 0.064999 0.384240
O O3 0.991747 0.945629 0.427449
O O4 0.946613 0.925332 0.307217
O O5 0.397537 0.713762 0.778554
O O6 0.329901 0.628321 0.884534
O O7 0.338185 0.424544 0.938895
O O8 0.328850 0.619315 0.003311
O O9 0.354473 0.172166 0.069796
O O10 0.558684 0.182029 0.122515
O O11 0.462713 0.983540 0.090227
O O12 0.539468 0.127611 0.009735
O O13 0.227296 0.196552 0.345934
O O14 0.065839 0.281747 0.418658
O O15 0.346669 0.218469 0.580769
#
# Coordination Sequence:
#
# PCOD9457016 Si02
#       8
#     8   4   8   8   8   8   8   8
#     4   8  20  37  62  87 112 158 207 253 295 367
#     4  10  22  42  64  84 116 154 224 262 298 366
#     4   9  19  34  63  91 117 161 200 241 299 386
#     4  11  25  35  57  93 133 161 193 252 309 375
#     4   9  21  37  63  87 118 159 208 252 301 368
#     4  11  20  38  61  92 129 162 194 250 320 375
#     4  11  22  40  61  92 121 163 210 259 311 360
#     4  10  23  37  58  93 131 161 196 246 309 377
#
# _framework density 19.798759
#
# number of rings (size 3 to 8) (size 9 to 14) (size 15 to 20)
#    0.800    1.333    1.333    1.200    5.600    2.133 
#    2.400    0.000    0.000    0.800    0.000    0.000 
#    0.000    0.000    0.000    0.000    0.000    0.000 
#
# Total GULP energy -334444.122364 kJ/mol
# GULP energy per Si atom -5574.068706 kJ/mol
# Density = 1.975370 g / cm^3
# Si number density = 19.798759 Si / 1000 Ang^3
#
#
#
# Elastic Constant Matrix: (Units=GPa)
#
#
# Indices 1 2 3 4 5 6 
#
# 1 64.7672 30.1573 13.7804 0.0000 0.0000 0.0000
# 2 30.1573 92.0590 19.7610 0.0000 0.0000 0.0000
# 3 13.7804 19.7610 65.0547 0.0000 0.0000 0.0000
# 4 0.0000 0.0000 0.0000 22.9938 0.0000 0.0000
# 5 0.0000 0.0000 0.0000 0.0000 16.9271 0.0000
# 6 0.0000 0.0000 0.0000 0.0000 0.0000 8.8548
#
#
#
# Elastic Compliance Matrix: (Units=1/GPa)
#
#
# Indices 1 2 3 4 5 6 
#
# 1 0.018515 -0.005588 -0.002225 0.000000 0.000000 0.000000
# 2 -0.005588 0.013307 -0.002858 0.000000 0.000000 0.000000
# 3 -0.002225 -0.002858 0.016711 0.000000 0.000000 0.000000
# 4 0.000000 0.000000 0.000000 0.043490 0.000000 0.000000
# 5 0.000000 0.000000 0.000000 0.000000 0.059077 0.000000
# 6 0.000000 0.000000 0.000000 0.000000 0.000000 0.112933
#
#
# Mechanical properties :
#
#
# Convention : Reuss Voigt Hill
#
# Bulk Modulus (GPa) = 36.77650 38.80870 37.79260
# Shear Modulus (GPa) = 16.98148 20.30061 18.64104
#
# Velocity S-wave (km/s) = 2.93184 3.20558 3.07176
# Velocity P-wave (km/s) = 5.48419 5.77452 5.63123
#
# Compressibility (1/GPa) = 0.02719127
#
# Stress axis : x y z
#
# Youngs Moduli (GPa) = 54.01005 75.15045 59.84019
#
# Poissons Ratio (x) = 0.41992 0.13313
# Poissons Ratio (y) = 0.30179 0.17105
# Poissons Ratio (z) = 0.12016 0.21481
#
# Static dielectric constant tensor:
#      x y z
#    x 1.714400 0.000000 0.000000 
#    y 0.000000 1.762060 0.000000 
#    z 0.000000 0.000000 1.684420 
# 
# From -- ./inp_files/22666.got.cif
#   From: 2010.05.17/outbox.cif.g08.bks.cpg/sg60_12_cif.got.tgz:22666.got - 2010.06.03 14:59:27.
