data_PCOD9457249
_publ_section_title
;
Structure prediction by ZEFSAII (Michael W. Deem and Ramdas Pophale) SiO2 
 PCOD9457249
Probable space group: P B C N
;
_chemical_formula_sum "Si O2"
_cell_formula_units_Z 28
_cell_length_a 19.022516
_cell_length_b 5.854934
_cell_length_c 9.153628
_cell_angle_alpha 90.000000
_cell_angle_beta 90.000000
_cell_angle_gamma 90.000000
_cell_volume 1019.490588
_symmetry_space_group_name_H-M "P B C N"
_symmetry_group_IT_number 60
_symmetry_cell_setting 'orthorhombic'
loop_
_space_group_symop_operation_xyz
x,y,z
1/2-x,1/2-y,1/2+z
1/2+x,1/2-y,-z
-x,y,1/2-z
-x,-y,-z
1/2+x,1/2+y,1/2-z
1/2-x,1/2+y,z
x,-y,1/2+z
loop_
_atom_site_type_symbol
_atom_site_label
_atom_site_fract_x
_atom_site_fract_y
_atom_site_fract_z
Si Si1 0.089479 0.946169 0.539528
Si Si2 0.618458 0.810208 0.753917
Si Si3 0.000000 0.326312 0.250000
Si Si4 0.759455 0.162192 0.416992
O O1 0.104914 0.871802 0.375002
O O2 0.022720 0.828397 0.613346
O O3 0.158771 0.842764 0.622728
O O4 0.091468 0.205709 0.592816
O O5 0.700541 0.847505 0.789920
O O6 0.567128 0.016557 0.715617
O O7 0.748710 0.410969 0.490917
#
# Coordination Sequence:
#
# PCOD9457249 Si02
#       4
#     8   8   4   8
#     4  11  26  47  74 109 152 201 256 320 389 464
#     4  11  26  47  74 109 152 201 256 320 389 464
#     4  12  24  48  72 112 150 202 250 326 384 472
#     4  10  22  46  72 110 146 200 248 316 374 456
#
# _framework density 27.464697999999999
#
# number of rings (size 3 to 8) (size 9 to 14) (size 15 to 20)
#    0.000    1.143    2.857    1.714    0.000   16.000 
#    0.000    0.000    0.000    0.000    0.000    0.000 
#    0.000    0.000    0.000    0.000    0.000    0.000 
#
# Total GULP energy -156554.474073 kJ/mol
# GULP energy per Si atom -5591.231217 kJ/mol
# Density = 2.740219 g / cm^3
# Si number density = 27.464698 Si / 1000 Ang^3
#
#
#
# Elastic Constant Matrix: (Units=GPa)
#
#
# Indices 1 2 3 4 5 6 
#
# 1 154.7393 0.4293 44.9162 0.0000 0.0000 0.0000
# 2 0.4293 130.9144 22.0211 0.0000 0.0000 0.0000
# 3 44.9162 22.0211 126.7238 0.0000 0.0000 0.0000
# 4 0.0000 0.0000 0.0000 29.7486 0.0000 0.0000
# 5 0.0000 0.0000 0.0000 0.0000 30.6245 0.0000
# 6 0.0000 0.0000 0.0000 0.0000 0.0000 57.5844
#
#
#
# Elastic Compliance Matrix: (Units=1/GPa)
#
#
# Indices 1 2 3 4 5 6 
#
# 1 0.007226 0.000419 -0.002634 0.000000 0.000000 0.000000
# 2 0.000419 0.007893 -0.001520 0.000000 0.000000 0.000000
# 3 -0.002634 -0.001520 0.009089 0.000000 0.000000 0.000000
# 4 0.000000 0.000000 0.000000 0.033615 0.000000 0.000000
# 5 0.000000 0.000000 0.000000 0.000000 0.032654 0.000000
# 6 0.000000 0.000000 0.000000 0.000000 0.000000 0.017366
#
#
# Mechanical properties :
#
#
# Convention : Reuss Voigt Hill
#
# Bulk Modulus (GPa) = 59.74419 60.79007 60.26713
# Shear Modulus (GPa) = 41.35946 46.59223 43.97584
#
# Velocity S-wave (km/s) = 3.88482 4.12326 4.00581
# Velocity P-wave (km/s) = 6.47478 6.69703 6.58684
#
# Compressibility (1/GPa) = 0.01673803
#
# Stress axis : x y z
#
# Youngs Moduli (GPa) = 138.39108 126.69582 110.02359
#
# Poissons Ratio (x) = -0.05313 0.28981
# Poissons Ratio (y) = -0.05804 0.16726
# Poissons Ratio (z) = 0.36453 0.19260
#
# Static dielectric constant tensor:
#      x y z
#    x 2.216340 0.000000 0.000000 
#    y 0.000000 2.214650 0.000000 
#    z 0.000000 0.000000 2.076460 
# 
# From -- ./inp_files/8758.got.cif
#   From: 2010.05.17/outbox.cif.g08.bks.cpg/sg60_5_cif.got.tgz:8758.got - 2010.06.03 14:59:27.
