data_PCOD9457988
_publ_section_title
;
Structure prediction by ZEFSAII (Michael W. Deem and Ramdas Pophale) SiO2 
 PCOD9457988
Probable space group: P B C N
;
_chemical_formula_sum "Si O2"
_cell_formula_units_Z 28
_cell_length_a 8.180763
_cell_length_b 15.709892
_cell_length_c 8.209002
_cell_angle_alpha 90.000000
_cell_angle_beta 90.000000
_cell_angle_gamma 90.000000
_cell_volume 1055.011933
_symmetry_space_group_name_H-M "P B C N"
_symmetry_group_IT_number 60
_symmetry_cell_setting 'orthorhombic'
loop_
_space_group_symop_operation_xyz
x,y,z
1/2-x,1/2-y,1/2+z
1/2+x,1/2-y,-z
-x,y,1/2-z
-x,-y,-z
1/2+x,1/2+y,1/2-z
1/2-x,1/2+y,z
x,-y,1/2+z
loop_
_atom_site_type_symbol
_atom_site_label
_atom_site_fract_x
_atom_site_fract_y
_atom_site_fract_z
Si Si1 0.876953 0.922291 0.598426
Si Si2 0.109589 0.564788 0.906602
Si Si3 0.000000 0.865225 0.250000
Si Si4 0.675013 0.764283 0.153871
O O1 0.762951 0.004008 0.625774
O O2 0.782344 0.831389 0.604169
O O3 0.000000 0.920875 0.750000
O O4 0.040562 0.084762 0.580642
O O5 0.143783 0.658784 0.977622
O O6 0.000000 0.582927 0.750000
O O7 0.000000 0.500000 0.000000
O O8 0.163312 0.807244 0.268630
O O9 0.500000 0.754549 0.250000
#
# Coordination Sequence:
#
# PCOD9457988 Si02
#       4
#     8   8   4   8
#     4  11  28  49  81 117 155 215 263 324 413 465
#     4  11  26  48  78 113 158 205 265 325 400 476
#     4  12  28  48  82 110 168 192 274 336 380 486
#     4  10  26  49  73 118 158 201 268 326 389 477
#
# _framework density 26.539985000000001
#
# number of rings (size 3 to 8) (size 9 to 14) (size 15 to 20)
#    0.000    1.143    0.000    3.429   20.000    1.143 
#    0.000    0.000    0.000    0.000    0.000    0.000 
#    0.000    0.000    0.000    0.000    0.000    0.000 
#
# Total GULP energy -156220.040562 kJ/mol
# GULP energy per Si atom -5579.287163 kJ/mol
# Density = 2.647958 g / cm^3
# Si number density = 26.539985 Si / 1000 Ang^3
#
#
#
# Elastic Constant Matrix: (Units=GPa)
#
#
# Indices 1 2 3 4 5 6 
#
# 1 168.0876 38.0472 34.6636 0.0000 0.0000 0.0000
# 2 38.0472 216.9846 22.2696 0.0000 0.0000 0.0000
# 3 34.6636 22.2696 125.3148 0.0000 0.0000 0.0000
# 4 0.0000 0.0000 0.0000 36.7612 0.0000 0.0000
# 5 0.0000 0.0000 0.0000 0.0000 38.6917 0.0000
# 6 0.0000 0.0000 0.0000 0.0000 0.0000 50.3007
#
#
#
# Elastic Compliance Matrix: (Units=1/GPa)
#
#
# Indices 1 2 3 4 5 6 
#
# 1 0.006505 -0.000974 -0.001626 0.000000 0.000000 0.000000
# 2 -0.000974 0.004840 -0.000591 0.000000 0.000000 0.000000
# 3 -0.001626 -0.000591 0.008535 0.000000 0.000000 0.000000
# 4 0.000000 0.000000 0.000000 0.027203 0.000000 0.000000
# 5 0.000000 0.000000 0.000000 0.000000 0.025845 0.000000
# 6 0.000000 0.000000 0.000000 0.000000 0.000000 0.019880
#
#
# Mechanical properties :
#
#
# Convention : Reuss Voigt Hill
#
# Bulk Modulus (GPa) = 74.08416 77.81641 75.95029
# Shear Modulus (GPa) = 48.22101 52.84449 50.53275
#
# Velocity S-wave (km/s) = 4.26716 4.46705 4.36825
# Velocity P-wave (km/s) = 7.22862 7.48265 7.35673
#
# Compressibility (1/GPa) = 0.01349816
#
# Stress axis : x y z
#
# Youngs Moduli (GPa) = 153.72618 206.61200 117.16794
#
# Poissons Ratio (x) = 0.20118 0.19056
# Poissons Ratio (y) = 0.14969 0.06922
# Poissons Ratio (z) = 0.25001 0.12206
#
# Static dielectric constant tensor:
#      x y z
#    x 1.952320 0.000000 0.000000 
#    y 0.000000 2.357810 0.000000 
#    z 0.000000 0.000000 2.075160 
# 
# From -- ./inp_files/9401.got.cif
#   From: 2010.05.17/outbox.cif.g08.bks.cpg/sg60_5_cif.got.tgz:9401.got - 2010.06.03 14:59:27.
