data_PCOD9457896
_publ_section_title
;
Structure prediction by ZEFSAII (Michael W. Deem and Ramdas Pophale) SiO2 
 PCOD9457896
Probable space group: P B C N
;
_chemical_formula_sum "Si O2"
_cell_formula_units_Z 44
_cell_length_a 9.650257
_cell_length_b 17.769007
_cell_length_c 9.229065
_cell_angle_alpha 90.000000
_cell_angle_beta 90.000000
_cell_angle_gamma 90.000000
_cell_volume 1582.558389
_symmetry_space_group_name_H-M "P B C N"
_symmetry_group_IT_number 60
_symmetry_cell_setting 'orthorhombic'
loop_
_space_group_symop_operation_xyz
x,y,z
1/2-x,1/2-y,1/2+z
1/2+x,1/2-y,-z
-x,y,1/2-z
-x,-y,-z
1/2+x,1/2+y,1/2-z
1/2-x,1/2+y,z
x,-y,1/2+z
loop_
_atom_site_type_symbol
_atom_site_label
_atom_site_fract_x
_atom_site_fract_y
_atom_site_fract_z
Si Si1 0.464746 0.801690 0.410209
Si Si2 0.719170 0.485749 0.391570
Si Si3 0.000000 0.479396 0.750000
Si Si4 0.146624 0.747911 0.201306
Si Si5 0.793158 0.100838 0.621947
Si Si6 0.292307 0.133943 0.408329
O O1 0.500000 0.774088 0.250000
O O2 0.376210 0.753198 0.528068
O O3 0.370131 0.876680 0.391338
O O4 0.614679 0.818541 0.478069
O O5 0.885951 0.483835 0.357715
O O6 0.664353 0.463721 0.234860
O O7 0.675673 0.563415 0.466943
O O8 0.686670 0.415622 0.497728
O O9 0.104213 0.428610 0.843243
O O10 0.155638 0.823557 0.296957
O O11 0.248980 0.686734 0.272820
O O12 0.000000 0.713851 0.250000
#
# Coordination Sequence:
#
# PCOD9457896 Si02
#       6
#     8   8   4   8   8   8
#     4  11  21  38  65  98 126 162 210 266 339 398
#     4  12  23  35  60 101 134 172 210 261 335 408
#     4  12  18  36  62  94 144 162 200 262 344 404
#     4  10  25  44  62  88 130 176 222 272 317 375
#     4  12  25  39  63  97 135 172 218 266 334 397
#     4  11  19  37  59  92 132 164 200 261 330 390
#
# _framework density 27.803082
#
# number of rings (size 3 to 8) (size 9 to 14) (size 15 to 20)
#    0.000    0.727    8.182    1.636    2.545    0.000 
#    0.000    4.545    0.000    0.000    0.000    0.000 
#    0.000    0.000    0.000    0.000    0.000    0.000 
#
# Total GULP energy -245547.097824 kJ/mol
# GULP energy per Si atom -5580.615860 kJ/mol
# Density = 2.773980 g / cm^3
# Si number density = 27.803082 Si / 1000 Ang^3
#
#
#
# Elastic Constant Matrix: (Units=GPa)
#
#
# Indices 1 2 3 4 5 6 
#
# 1 59.0536 10.4092 7.0340 0.0000 0.0000 0.0000
# 2 10.4092 122.9291 95.0948 0.0000 0.0000 0.0000
# 3 7.0340 95.0948 190.2803 0.0000 0.0000 0.0000
# 4 0.0000 0.0000 0.0000 46.3403 0.0000 0.0000
# 5 0.0000 0.0000 0.0000 0.0000 18.7762 0.0000
# 6 0.0000 0.0000 0.0000 0.0000 0.0000 38.7152
#
#
#
# Elastic Compliance Matrix: (Units=1/GPa)
#
#
# Indices 1 2 3 4 5 6 
#
# 1 0.017193 -0.001572 0.000150 0.000000 0.000000 0.000000
# 2 -0.001572 0.013406 -0.006641 0.000000 0.000000 0.000000
# 3 0.000150 -0.006641 0.008569 0.000000 0.000000 0.000000
# 4 0.000000 0.000000 0.000000 0.021580 0.000000 0.000000
# 5 0.000000 0.000000 0.000000 0.000000 0.053259 0.000000
# 6 0.000000 0.000000 0.000000 0.000000 0.000000 0.025830
#
#
# Mechanical properties :
#
#
# Convention : Reuss Voigt Hill
#
# Bulk Modulus (GPa) = 43.40121 66.37100 54.88611
# Shear Modulus (GPa) = 30.55442 38.08135 34.31789
#
# Velocity S-wave (km/s) = 3.31865 3.70493 3.51710
# Velocity P-wave (km/s) = 5.50715 6.49813 6.02306
#
# Compressibility (1/GPa) = 0.02304083
#
# Stress axis : x y z
#
# Youngs Moduli (GPa) = 58.16335 74.59605 116.69955
#
# Poissons Ratio (x) = 0.11725 -0.01750
# Poissons Ratio (y) = 0.09142 0.77506
# Poissons Ratio (z) = -0.00872 0.49543
#
# Static dielectric constant tensor:
#      x y z
#    x 2.221360 0.000000 0.000000 
#    y 0.000000 2.229360 0.000000 
#    z 0.000000 0.000000 2.303730 
# 
# From -- ./inp_files/5843.got.cif
#   From: 2010.05.17/outbox.cif.g08.bks.cpg/sg60_3_cif.got.tgz:5843.got - 2010.06.03 14:59:27.
