data_PCOD9457246
_publ_section_title
;
Structure prediction by ZEFSAII (Michael W. Deem and Ramdas Pophale) SiO2 
 PCOD9457246
Probable space group: P B C N
;
_chemical_formula_sum "Si O2"
_cell_formula_units_Z 60
_cell_length_a 8.587941
_cell_length_b 14.146541
_cell_length_c 23.085283
_cell_angle_alpha 90.000000
_cell_angle_beta 90.000000
_cell_angle_gamma 90.000000
_cell_volume 2804.623170
_symmetry_space_group_name_H-M "P B C N"
_symmetry_group_IT_number 60
_symmetry_cell_setting 'orthorhombic'
loop_
_space_group_symop_operation_xyz
x,y,z
1/2-x,1/2-y,1/2+z
1/2+x,1/2-y,-z
-x,y,1/2-z
-x,-y,-z
1/2+x,1/2+y,1/2-z
1/2-x,1/2+y,z
x,-y,1/2+z
loop_
_atom_site_type_symbol
_atom_site_label
_atom_site_fract_x
_atom_site_fract_y
_atom_site_fract_z
Si Si1 0.338943 0.558461 0.765104
Si Si2 0.500000 0.744815 0.250000
Si Si3 0.690379 0.701433 0.553697
Si Si4 0.697045 0.236837 0.183354
Si Si5 0.892182 0.452598 0.648362
Si Si6 0.176189 0.503482 0.475738
Si Si7 0.822888 0.161031 0.955206
Si Si8 0.640668 0.886613 0.342364
O O1 0.500000 0.509521 0.750000
O O2 0.363233 0.664700 0.790216
O O3 0.230844 0.504888 0.810365
O O4 0.257884 0.569796 0.703742
O O5 0.340320 0.701445 0.275768
O O6 0.546556 0.811458 0.304070
O O7 0.743514 0.736098 0.617320
O O8 0.767499 0.600706 0.540014
O O9 0.503003 0.687793 0.553586
O O10 0.744636 0.770157 0.502296
O O11 0.577110 0.149851 0.176243
O O12 0.824670 0.438897 0.584342
O O13 0.031797 0.526108 0.639872
O O14 0.292259 0.555780 0.519759
O O15 0.000000 0.500000 0.500000
O O16 0.728364 0.162176 0.895230
#
# Coordination Sequence:
#
# PCOD9457246 Si02
#       8
#     8   4   8   8   8   8   8   8
#     4  11  24  45  68  99 142 183 234 297 352 419
#     4  10  22  46  72 100 140 198 226 298 356 426
#     4  12  26  46  70 108 146 193 238 302 368 438
#     4  11  24  43  73 103 141 183 242 288 362 425
#     4  12  23  42  74 101 136 188 234 291 358 432
#     4  12  24  45  71 101 145 188 239 293 361 436
#     4  12  27  43  72 107 145 187 246 294 370 435
#     4  11  22  44  71  98 139 187 232 290 362 422
#
# _framework density 21.393248
#
# number of rings (size 3 to 8) (size 9 to 14) (size 15 to 20)
#    0.000    0.533    6.667    2.000    2.800    1.067 
#    0.000    2.667    0.000    0.000    0.000    0.000 
#    0.000    0.000    0.000    0.000    0.000    0.000 
#
# Total GULP energy -335272.778377 kJ/mol
# GULP energy per Si atom -5587.879640 kJ/mol
# Density = 2.134456 g / cm^3
# Si number density = 21.393248 Si / 1000 Ang^3
#
#
#
# Elastic Constant Matrix: (Units=GPa)
#
#
# Indices 1 2 3 4 5 6 
#
# 1 84.4383 24.3171 36.6203 0.0000 0.0000 0.0000
# 2 24.3171 86.5785 23.8868 0.0000 0.0000 0.0000
# 3 36.6203 23.8868 141.3477 0.0000 0.0000 0.0000
# 4 0.0000 0.0000 0.0000 21.7721 0.0000 0.0000
# 5 0.0000 0.0000 0.0000 0.0000 22.5546 0.0000
# 6 0.0000 0.0000 0.0000 0.0000 0.0000 25.3903
#
#
#
# Elastic Compliance Matrix: (Units=1/GPa)
#
#
# Indices 1 2 3 4 5 6 
#
# 1 0.014091 -0.003095 -0.003128 0.000000 0.000000 0.000000
# 2 -0.003095 0.012795 -0.001360 0.000000 0.000000 0.000000
# 3 -0.003128 -0.001360 0.008115 0.000000 0.000000 0.000000
# 4 0.000000 0.000000 0.000000 0.045930 0.000000 0.000000
# 5 0.000000 0.000000 0.000000 0.000000 0.044337 0.000000
# 6 0.000000 0.000000 0.000000 0.000000 0.000000 0.039385
#
#
# Mechanical properties :
#
#
# Convention : Reuss Voigt Hill
#
# Bulk Modulus (GPa) = 50.41641 53.55700 51.98671
# Shear Modulus (GPa) = 26.81976 29.11276 27.96626
#
# Velocity S-wave (km/s) = 3.54454 3.69296 3.61951
# Velocity P-wave (km/s) = 6.35369 6.57821 6.46692
#
# Compressibility (1/GPa) = 0.01983481
#
# Stress axis : x y z
#
# Youngs Moduli (GPa) = 70.96923 78.15703 123.22916
#
# Poissons Ratio (x) = 0.24187 0.38541
# Poissons Ratio (y) = 0.21963 0.16765
# Poissons Ratio (z) = 0.22196 0.10633
#
# Static dielectric constant tensor:
#      x y z
#    x 1.761270 0.000000 0.000000 
#    y 0.000000 2.444770 0.000000 
#    z 0.000000 0.000000 1.768290 
# 
# From -- ./inp_files/24052.got.cif
#   From: 2010.05.17/outbox.cif.g08.bks.cpg/sg60_13_cif.got.tgz:24052.got - 2010.06.03 14:59:27.
