data_PCOD9457787
_publ_section_title
;
Structure prediction by ZEFSAII (Michael W. Deem and Ramdas Pophale) SiO2 
 PCOD9457787
Probable space group: P B C N
;
_chemical_formula_sum "Si O2"
_cell_formula_units_Z 36
_cell_length_a 7.148119
_cell_length_b 17.283366
_cell_length_c 10.797961
_cell_angle_alpha 90.000000
_cell_angle_beta 90.000000
_cell_angle_gamma 90.000000
_cell_volume 1334.018509
_symmetry_space_group_name_H-M "P B C N"
_symmetry_group_IT_number 60
_symmetry_cell_setting 'orthorhombic'
loop_
_space_group_symop_operation_xyz
x,y,z
1/2-x,1/2-y,1/2+z
1/2+x,1/2-y,-z
-x,y,1/2-z
-x,-y,-z
1/2+x,1/2+y,1/2-z
1/2-x,1/2+y,z
x,-y,1/2+z
loop_
_atom_site_type_symbol
_atom_site_label
_atom_site_fract_x
_atom_site_fract_y
_atom_site_fract_z
Si Si1 0.910476 0.188705 0.615813
Si Si2 0.000000 0.921473 0.750000
Si Si3 0.999321 0.671442 0.946430
Si Si4 0.366802 0.073402 0.349007
Si Si5 0.311380 0.447794 0.085337
O O1 0.689803 0.177888 0.625515
O O2 0.000000 0.211910 0.750000
O O3 0.933784 0.245515 0.497371
O O4 0.010949 0.108838 0.578457
O O5 0.120462 0.981444 0.666548
O O6 0.179200 0.878931 0.808950
O O7 0.012122 0.628339 0.080106
O O8 0.847419 0.615898 0.881483
O O9 0.500000 0.033428 0.250000
O O10 0.273701 0.021272 0.455449
#
# Coordination Sequence:
#
# PCOD9457787 Si02
#       5
#     8   4   8   8   8
#     4  12  23  46  74 104 148 188 236 302 373 433
#     4  12  24  48  72 104 146 202 234 300 354 424
#     4  10  24  45  70 111 141 184 242 296 365 435
#     4  10  25  44  71 106 143 194 234 299 351 431
#     4  10  25  45  69 107 144 185 245 293 362 430
#
# _framework density 26.986128999999998
#
# number of rings (size 3 to 8) (size 9 to 14) (size 15 to 20)
#    1.333    0.000    3.333    1.333    3.111    3.556 
#    0.000    0.000    0.000    0.000    0.000    0.000 
#    0.000    0.000    0.000    0.000    0.000    0.000 
#
# Total GULP energy -200746.739305 kJ/mol
# GULP energy per Si atom -5576.298314 kJ/mol
# Density = 2.692471 g / cm^3
# Si number density = 26.986129 Si / 1000 Ang^3
#
#
#
# Elastic Constant Matrix: (Units=GPa)
#
#
# Indices 1 2 3 4 5 6 
#
# 1 183.6599 7.8383 60.7959 0.0000 0.0000 0.0000
# 2 7.8383 55.2676 9.0101 0.0000 0.0000 0.0000
# 3 60.7959 9.0101 103.6889 0.0000 0.0000 0.0000
# 4 0.0000 0.0000 0.0000 29.7393 0.0000 0.0000
# 5 0.0000 0.0000 0.0000 0.0000 57.2582 0.0000
# 6 0.0000 0.0000 0.0000 0.0000 0.0000 -3.5138
#
#
#
# Elastic Compliance Matrix: (Units=1/GPa)
#
#
# Indices 1 2 3 4 5 6 
#
# 1 0.006762 -0.000317 -0.003937 0.000000 0.000000 0.000000
# 2 -0.000317 0.018369 -0.001410 0.000000 0.000000 0.000000
# 3 -0.003937 -0.001410 0.012075 0.000000 0.000000 0.000000
# 4 0.000000 0.000000 0.000000 0.033626 0.000000 0.000000
# 5 0.000000 0.000000 0.000000 0.000000 0.017465 0.000000
# 6 0.000000 0.000000 0.000000 0.000000 0.000000 -0.284593
#
#
# Mechanical properties :
#
#
# Convention : Reuss Voigt Hill
#
# Bulk Modulus (GPa) = 38.64465 55.32275 46.98370
# Shear Modulus (GPa) = -28.35381 34.36156 3.00388
#
# Velocity S-wave (km/s) = -3.24494 3.57221 1.05619
# Velocity P-wave (km/s) = 0.55838 6.12856 4.35149
#
# Compressibility (1/GPa) = 0.02587681
#
# Stress axis : x y z
#
# Youngs Moduli (GPa) = 147.89368 54.44051 82.81478
#
# Poissons Ratio (x) = 0.01726 0.32604
# Poissons Ratio (y) = 0.04690 0.11679
# Poissons Ratio (z) = 0.58225 0.07677
#
# Static dielectric constant tensor:
#      x y z
#    x 2.112730 0.000000 0.000000 
#    y 0.000000 2.110770 0.000000 
#    z 0.000000 0.000000 2.417690 
# 
# From -- ./inp_files/8985.got.cif
#   From: 2010.05.17/outbox.cif.g08.bks.cpg/sg60_5_cif.got.tgz:8985.got - 2010.06.03 14:59:27.
