data_PCOD9457992
_publ_section_title
;
Structure prediction by ZEFSAII (Michael W. Deem and Ramdas Pophale) SiO2 
 PCOD9457992
Probable space group: P B C N
;
_chemical_formula_sum "Si O2"
_cell_formula_units_Z 60
_cell_length_a 22.138522
_cell_length_b 8.804938
_cell_length_c 14.044219
_cell_angle_alpha 90.000000
_cell_angle_beta 90.000000
_cell_angle_gamma 90.000000
_cell_volume 2737.615926
_symmetry_space_group_name_H-M "P B C N"
_symmetry_group_IT_number 60
_symmetry_cell_setting 'orthorhombic'
loop_
_space_group_symop_operation_xyz
x,y,z
1/2-x,1/2-y,1/2+z
1/2+x,1/2-y,-z
-x,y,1/2-z
-x,-y,-z
1/2+x,1/2+y,1/2-z
1/2-x,1/2+y,z
x,-y,1/2+z
loop_
_atom_site_type_symbol
_atom_site_label
_atom_site_fract_x
_atom_site_fract_y
_atom_site_fract_z
Si Si1 0.333768 0.652470 0.277385
Si Si2 0.798125 0.739950 0.209976
Si Si3 0.855995 0.947916 0.059511
Si Si4 0.408013 0.273852 0.606449
Si Si5 0.500000 0.165204 0.750000
Si Si6 0.118831 0.520648 0.826891
Si Si7 0.664663 0.014320 0.959651
Si Si8 0.212122 0.824580 0.081353
O O1 0.262235 0.638199 0.294190
O O2 0.373362 0.552503 0.350077
O O3 0.358817 0.638805 0.171346
O O4 0.344134 0.829553 0.299524
O O5 0.809349 0.835032 0.113821
O O6 0.854956 0.628751 0.222766
O O7 0.793069 0.842586 0.304380
O O8 0.903625 0.849770 0.997894
O O9 0.826715 0.066155 0.985946
O O10 0.468521 0.267998 0.668483
O O11 0.387353 0.097305 0.600836
O O12 0.550570 0.062320 0.698847
O O13 0.135352 0.496034 0.936768
O O14 0.691866 0.849748 0.935167
O O15 0.719840 0.132601 0.947744
#
# Coordination Sequence:
#
# PCOD9457992 Si02
#       8
#     8   8   8   8   4   8   8   8
#     4  11  22  41  66  99 150 179 226 286 365 430
#     4  12  24  40  67 104 147 186 224 290 358 431
#     4  12  25  39  64 103 142 184 233 278 351 435
#     4  11  24  47  70 100 137 193 242 294 353 414
#     4  10  26  50  76  96 138 188 260 306 342 408
#     4  11  24  45  71 104 134 195 241 295 354 414
#     4  12  23  43  69 106 146 185 233 284 364 433
#     4  12  25  39  67 109 153 183 223 287 361 451
#
# _framework density 21.916879999999999
#
# number of rings (size 3 to 8) (size 9 to 14) (size 15 to 20)
#    0.000    0.533    4.000    5.600    1.867    0.533 
#    0.000    2.667    0.000    6.400    0.000    0.000 
#    0.000    0.000    0.000    0.000    0.000    0.000 
#
# Total GULP energy -335079.659346 kJ/mol
# GULP energy per Si atom -5584.660989 kJ/mol
# Density = 2.186700 g / cm^3
# Si number density = 21.916880 Si / 1000 Ang^3
#
#
#
# Elastic Constant Matrix: (Units=GPa)
#
#
# Indices 1 2 3 4 5 6 
#
# 1 59.3262 19.7436 19.2062 0.0000 0.0000 0.0000
# 2 19.7436 104.0095 46.1718 0.0000 0.0000 0.0000
# 3 19.2062 46.1718 142.6230 0.0000 0.0000 0.0000
# 4 0.0000 0.0000 0.0000 42.3730 0.0000 0.0000
# 5 0.0000 0.0000 0.0000 0.0000 38.0818 0.0000
# 6 0.0000 0.0000 0.0000 0.0000 0.0000 20.9903
#
#
#
# Elastic Compliance Matrix: (Units=1/GPa)
#
#
# Indices 1 2 3 4 5 6 
#
# 1 0.018286 -0.002777 -0.001563 0.000000 0.000000 0.000000
# 2 -0.002777 0.011650 -0.003397 0.000000 0.000000 0.000000
# 3 -0.001563 -0.003397 0.008322 0.000000 0.000000 0.000000
# 4 0.000000 0.000000 0.000000 0.023600 0.000000 0.000000
# 5 0.000000 0.000000 0.000000 0.000000 0.026259 0.000000
# 6 0.000000 0.000000 0.000000 0.000000 0.000000 0.047641
#
#
# Mechanical properties :
#
#
# Convention : Reuss Voigt Hill
#
# Bulk Modulus (GPa) = 43.89435 52.91131 48.40283
# Shear Modulus (GPa) = 31.48049 35.01150 33.24599
#
# Velocity S-wave (km/s) = 3.79404 4.00117 3.89898
# Velocity P-wave (km/s) = 6.26611 6.74833 6.51169
#
# Compressibility (1/GPa) = 0.02278197
#
# Stress axis : x y z
#
# Youngs Moduli (GPa) = 54.68557 85.83778 120.16484
#
# Poissons Ratio (x) = 0.23839 0.18787
# Poissons Ratio (y) = 0.15187 0.40826
# Poissons Ratio (z) = 0.08550 0.29163
#
# Static dielectric constant tensor:
#      x y z
#    x 1.790490 0.000000 0.000000 
#    y 0.000000 1.863230 0.000000 
#    z 0.000000 0.000000 1.878590 
# 
# From -- ./inp_files/17907.got.cif
#   From: 2010.05.17/outbox.cif.g08.bks.cpg/sg60_9_cif.got.tgz:17907.got - 2010.06.03 14:59:27.
