data_PCOD9457542
_publ_section_title
;
Structure prediction by ZEFSAII (Michael W. Deem and Ramdas Pophale) SiO2 
 PCOD9457542
Probable space group: P B C N
;
_chemical_formula_sum "Si O2"
_cell_formula_units_Z 24
_cell_length_a 6.910961
_cell_length_b 7.578441
_cell_length_c 18.216256
_cell_angle_alpha 90.000000
_cell_angle_beta 90.000000
_cell_angle_gamma 90.000000
_cell_volume 954.063842
_symmetry_space_group_name_H-M "P B C N"
_symmetry_group_IT_number 60
_symmetry_cell_setting 'orthorhombic'
loop_
_space_group_symop_operation_xyz
x,y,z
1/2-x,1/2-y,1/2+z
1/2+x,1/2-y,-z
-x,y,1/2-z
-x,-y,-z
1/2+x,1/2+y,1/2-z
1/2-x,1/2+y,z
x,-y,1/2+z
loop_
_atom_site_type_symbol
_atom_site_label
_atom_site_fract_x
_atom_site_fract_y
_atom_site_fract_z
Si Si1 0.366277 0.354864 0.459494
Si Si2 0.079805 0.049430 0.669633
Si Si3 0.453160 0.169560 0.601957
O O1 0.500000 0.500000 0.500000
O O2 0.486181 0.310498 0.386615
O O3 0.345412 0.214945 0.524885
O O4 0.157750 0.403965 0.426012
O O5 0.012477 0.854439 0.644338
O O6 0.000000 0.083079 0.750000
O O7 0.309103 0.060810 0.653980
#
# Coordination Sequence:
#
# PCOD9457542 Si02
#       3
#     8   8   8
#     4  10  23  44  74 108 143 192 255 318 381 456
#     4  11  27  45  70 112 152 202 249 322 394 454
#     4  11  24  47  74 106 148 197 258 317 384 466
#
# _framework density 25.155549000000001
#
# number of rings (size 3 to 8) (size 9 to 14) (size 15 to 20)
#    0.000    1.333    3.333    0.000    4.667   10.667 
#    0.000    0.000    0.000    0.000    0.000    0.000 
#    0.000    0.000    0.000    0.000    0.000    0.000 
#
# Total GULP energy -134099.203754 kJ/mol
# GULP energy per Si atom -5587.466823 kJ/mol
# Density = 2.509829 g / cm^3
# Si number density = 25.155549 Si / 1000 Ang^3
#
#
#
# Elastic Constant Matrix: (Units=GPa)
#
#
# Indices 1 2 3 4 5 6 
#
# 1 217.8359 41.6739 79.5089 0.0000 0.0000 0.0000
# 2 41.6739 37.1764 8.8441 0.0000 0.0000 0.0000
# 3 79.5089 8.8441 188.8870 0.0000 0.0000 0.0000
# 4 0.0000 0.0000 0.0000 28.7338 0.0000 0.0000
# 5 0.0000 0.0000 0.0000 0.0000 22.3847 0.0000
# 6 0.0000 0.0000 0.0000 0.0000 0.0000 35.2675
#
#
#
# Elastic Compliance Matrix: (Units=1/GPa)
#
#
# Indices 1 2 3 4 5 6 
#
# 1 0.006888 -0.007110 -0.002566 0.000000 0.000000 0.000000
# 2 -0.007110 0.034542 0.001376 0.000000 0.000000 0.000000
# 3 -0.002566 0.001376 0.006310 0.000000 0.000000 0.000000
# 4 0.000000 0.000000 0.000000 0.034802 0.000000 0.000000
# 5 0.000000 0.000000 0.000000 0.000000 0.044673 0.000000
# 6 0.000000 0.000000 0.000000 0.000000 0.000000 0.028355
#
#
# Mechanical properties :
#
#
# Convention : Reuss Voigt Hill
#
# Bulk Modulus (GPa) = 32.11550 78.21702 55.16626
# Shear Modulus (GPa) = 27.38963 38.20202 32.79582
#
# Velocity S-wave (km/s) = 3.30329 3.90119 3.61463
# Velocity P-wave (km/s) = 5.22910 7.17309 6.27681
#
# Compressibility (1/GPa) = 0.03113761
#
# Stress axis : x y z
#
# Youngs Moduli (GPa) = 145.18971 28.95034 158.47870
#
# Poissons Ratio (x) = 0.20584 0.40670
# Poissons Ratio (y) = 1.03234 -0.21801
# Poissons Ratio (z) = 0.37260 -0.03982
#
# Static dielectric constant tensor:
#      x y z
#    x 2.034800 0.000000 0.000000 
#    y 0.000000 2.158320 0.000000 
#    z 0.000000 0.000000 1.958700 
# 
# From -- ./inp_files/18314.got.cif
#   From: 2010.05.17/outbox.cif.g08.bks.cpg/sg60_10_cif.got.tgz:18314.got - 2010.06.03 14:59:27.
