data_PCOD9457026
_publ_section_title
;
Structure prediction by ZEFSAII (Michael W. Deem and Ramdas Pophale) SiO2 
 PCOD9457026
Probable space group: P B C N
;
_chemical_formula_sum "Si O2"
_cell_formula_units_Z 40
_cell_length_a 23.713354
_cell_length_b 5.684936
_cell_length_c 12.231136
_cell_angle_alpha 90.000000
_cell_angle_beta 90.000000
_cell_angle_gamma 90.000000
_cell_volume 1648.865988
_symmetry_space_group_name_H-M "P B C N"
_symmetry_group_IT_number 60
_symmetry_cell_setting 'orthorhombic'
loop_
_space_group_symop_operation_xyz
x,y,z
1/2-x,1/2-y,1/2+z
1/2+x,1/2-y,-z
-x,y,1/2-z
-x,-y,-z
1/2+x,1/2+y,1/2-z
1/2-x,1/2+y,z
x,-y,1/2+z
loop_
_atom_site_type_symbol
_atom_site_label
_atom_site_fract_x
_atom_site_fract_y
_atom_site_fract_z
Si Si1 0.456778 0.042545 0.829767
Si Si2 0.538553 0.307483 0.446334
Si Si3 0.638135 0.771963 0.802016
Si Si4 0.314024 0.540867 0.903048
Si Si5 0.814822 0.462356 0.014459
O O1 0.500000 0.187910 0.750000
O O2 0.497414 0.829269 0.864848
O O3 0.401531 0.952791 0.766191
O O4 0.444903 0.150634 0.948695
O O5 0.500000 0.500000 0.500000
O O6 0.593364 0.371846 0.376048
O O7 0.673958 0.608186 0.722172
O O8 0.677940 0.909524 0.886357
O O9 0.335751 0.279687 0.928108
O O10 0.249248 0.523792 0.941514
O O11 0.338840 0.775280 0.962749
#
# Coordination Sequence:
#
# PCOD9457026 Si02
#       5
#     8   8   8   8   8
#     4   9  21  42  63  95 137 179 227 288 351 418
#     4  10  22  42  65  98 136 176 236 291 340 432
#     4  11  23  42  70 100 138 195 232 295 366 422
#     4  10  24  45  68 102 143 185 238 295 358 421
#     4  10  24  45  69 103 143 181 244 297 350 435
#
# _framework density 24.259097000000001
#
# number of rings (size 3 to 8) (size 9 to 14) (size 15 to 20)
#    0.000    2.000    0.000    1.200    2.800   10.400 
#   14.400    0.000    0.000    0.000    0.000    0.000 
#    0.000    0.000    0.000    0.000    0.000    0.000 
#
# Total GULP energy -223135.790652 kJ/mol
# GULP energy per Si atom -5578.394766 kJ/mol
# Density = 2.420388 g / cm^3
# Si number density = 24.259097 Si / 1000 Ang^3
#
#
#
# Elastic Constant Matrix: (Units=GPa)
#
#
# Indices 1 2 3 4 5 6 
#
# 1 120.3316 20.3578 64.0268 0.0000 0.0000 0.0000
# 2 20.3578 118.0689 22.3829 0.0000 0.0000 0.0000
# 3 64.0268 22.3829 156.4025 0.0000 0.0000 0.0000
# 4 0.0000 0.0000 0.0000 9.4119 0.0000 0.0000
# 5 0.0000 0.0000 0.0000 0.0000 66.1519 0.0000
# 6 0.0000 0.0000 0.0000 0.0000 0.0000 22.6534
#
#
#
# Elastic Compliance Matrix: (Units=1/GPa)
#
#
# Indices 1 2 3 4 5 6 
#
# 1 0.010749 -0.001048 -0.004251 0.000000 0.000000 0.000000
# 2 -0.001048 0.008808 -0.000832 0.000000 0.000000 0.000000
# 3 -0.004251 -0.000832 0.008253 0.000000 0.000000 0.000000
# 4 0.000000 0.000000 0.000000 0.106249 0.000000 0.000000
# 5 0.000000 0.000000 0.000000 0.000000 0.015117 0.000000
# 6 0.000000 0.000000 0.000000 0.000000 0.000000 0.044143
#
#
# Mechanical properties :
#
#
# Convention : Reuss Voigt Hill
#
# Bulk Modulus (GPa) = 64.30693 67.59312 65.95003
# Shear Modulus (GPa) = 23.72344 38.84580 31.28462
#
# Velocity S-wave (km/s) = 3.13056 4.00595 3.59500
# Velocity P-wave (km/s) = 6.29549 7.02284 6.66909
#
# Compressibility (1/GPa) = 0.01555042
#
# Stress axis : x y z
#
# Youngs Moduli (GPa) = 93.02976 113.53416 121.17072
#
# Poissons Ratio (x) = 0.11894 0.51504
# Poissons Ratio (y) = 0.09746 0.10077
# Poissons Ratio (z) = 0.39542 0.09442
#
# Static dielectric constant tensor:
#      x y z
#    x 1.714130 0.000000 0.000000 
#    y 0.000000 2.024970 0.000000 
#    z 0.000000 0.000000 2.087810 
# 
# From -- ./inp_files/13208.got.cif
#   From: 2010.05.17/outbox.cif.g08.bks.cpg/sg60_7_cif.got.tgz:13208.got - 2010.06.03 14:59:27.
