data_PCOD9457050
_publ_section_title
;
Structure prediction by ZEFSAII (Michael W. Deem and Ramdas Pophale) SiO2 
 PCOD9457050
Probable space group: P B C N
;
_chemical_formula_sum "Si O2"
_cell_formula_units_Z 56
_cell_length_a 18.458451
_cell_length_b 11.417140
_cell_length_c 12.551282
_cell_angle_alpha 90.000000
_cell_angle_beta 90.000000
_cell_angle_gamma 90.000000
_cell_volume 2645.091299
_symmetry_space_group_name_H-M "P B C N"
_symmetry_group_IT_number 60
_symmetry_cell_setting 'orthorhombic'
loop_
_space_group_symop_operation_xyz
x,y,z
1/2-x,1/2-y,1/2+z
1/2+x,1/2-y,-z
-x,y,1/2-z
-x,-y,-z
1/2+x,1/2+y,1/2-z
1/2-x,1/2+y,z
x,-y,1/2+z
loop_
_atom_site_type_symbol
_atom_site_label
_atom_site_fract_x
_atom_site_fract_y
_atom_site_fract_z
Si Si1 0.928907 0.614414 0.322274
Si Si2 0.811448 0.238207 0.694423
Si Si3 0.049909 0.169860 0.546937
Si Si4 0.110682 0.157183 0.020364
Si Si5 0.144003 0.974873 0.186301
Si Si6 0.344577 0.321647 0.852457
Si Si7 0.919344 0.345479 0.297940
O O1 0.862010 0.675435 0.262426
O O2 0.949972 0.692370 0.424162
O O3 0.911760 0.478409 0.335399
O O4 0.000000 0.620913 0.250000
O O5 0.853043 0.191960 0.590209
O O6 0.800323 0.123796 0.771122
O O7 0.741410 0.307170 0.653167
O O8 0.073219 0.099502 0.652740
O O9 0.114944 0.158504 0.462862
O O10 0.973019 0.126362 0.504534
O O11 0.101765 0.263304 0.103426
O O12 0.155817 0.056720 0.082416
O O13 0.132357 0.069237 0.278698
O O14 0.371059 0.200208 0.799629
O O15 0.000000 0.327211 0.250000
#
# Coordination Sequence:
#
# PCOD9457050 Si02
#       7
#     8   8   8   8   8   8   8
#     4  10  22  42  68  95 131 172 217 269 325 386
#     4  11  25  44  63  95 133 170 218 273 330 386
#     4  11  22  41  69 101 128 170 224 267 323 391
#     4  11  22  41  69 101 128 170 224 267 323 391
#     4  10  25  43  67  93 133 171 213 267 335 386
#     4  11  25  44  63  95 133 170 218 273 330 386
#     4  10  22  42  68  95 131 172 217 269 325 386
#
# _framework density 21.171291
#
# number of rings (size 3 to 8) (size 9 to 14) (size 15 to 20)
#    0.000    1.429    2.857    1.286    2.000    7.429 
#    0.000    0.000    0.000    0.000    0.000    0.000 
#    0.000    0.000    0.000    0.000    0.000    0.000 
#
# Total GULP energy -312554.161794 kJ/mol
# GULP energy per Si atom -5581.324318 kJ/mol
# Density = 2.112310 g / cm^3
# Si number density = 21.171291 Si / 1000 Ang^3
#
#
#
# Elastic Constant Matrix: (Units=GPa)
#
#
# Indices 1 2 3 4 5 6 
#
# 1 87.2938 22.8039 30.7087 0.0000 0.0000 0.0000
# 2 22.8039 100.9726 34.7091 0.0000 0.0000 0.0000
# 3 30.7087 34.7091 74.3591 0.0000 0.0000 0.0000
# 4 0.0000 0.0000 0.0000 22.8639 0.0000 0.0000
# 5 0.0000 0.0000 0.0000 0.0000 -25.6343 0.0000
# 6 0.0000 0.0000 0.0000 0.0000 0.0000 3.9393
#
#
#
# Elastic Compliance Matrix: (Units=1/GPa)
#
#
# Indices 1 2 3 4 5 6 
#
# 1 0.013556 -0.001354 -0.004966 0.000000 0.000000 0.000000
# 2 -0.001354 0.011932 -0.005010 0.000000 0.000000 0.000000
# 3 -0.004966 -0.005010 0.017838 0.000000 0.000000 0.000000
# 4 0.000000 0.000000 0.000000 0.043737 0.000000 0.000000
# 5 0.000000 0.000000 0.000000 0.000000 -0.039010 0.000000
# 6 0.000000 0.000000 0.000000 0.000000 0.000000 0.253854
#
#
# Mechanical properties :
#
#
# Convention : Reuss Voigt Hill
#
# Bulk Modulus (GPa) = 48.39257 48.78543 48.58900
# Shear Modulus (GPa) = 15.08491 11.86070 13.47280
#
# Velocity S-wave (km/s) = 2.67220 2.36948 2.52538
# Velocity P-wave (km/s) = 5.69457 5.52984 5.61281
#
# Compressibility (1/GPa) = 0.02066433
#
# Stress axis : x y z
#
# Youngs Moduli (GPa) = 73.76557 83.80974 56.06068
#
# Poissons Ratio (x) = 0.11352 0.27841
# Poissons Ratio (y) = 0.09991 0.28087
# Poissons Ratio (z) = 0.36634 0.41990
#
# Static dielectric constant tensor:
#      x y z
#    x 1.801440 0.000000 0.000000 
#    y 0.000000 1.806530 0.000000 
#    z 0.000000 0.000000 1.755590 
# 
# From -- ./inp_files/12838.got.cif
#   From: 2010.05.17/outbox.cif.g08.bks.cpg/sg60_7_cif.got.tgz:12838.got - 2010.06.03 14:59:27.
