data_PCOD9457168
_publ_section_title
;
Structure prediction by ZEFSAII (Michael W. Deem and Ramdas Pophale) SiO2 
 PCOD9457168
Probable space group: P B C N
;
_chemical_formula_sum "Si O2"
_cell_formula_units_Z 40
_cell_length_a 11.870563
_cell_length_b 13.607354
_cell_length_c 9.515704
_cell_angle_alpha 90.000000
_cell_angle_beta 90.000000
_cell_angle_gamma 90.000000
_cell_volume 1537.042672
_symmetry_space_group_name_H-M "P B C N"
_symmetry_group_IT_number 60
_symmetry_cell_setting 'orthorhombic'
loop_
_space_group_symop_operation_xyz
x,y,z
1/2-x,1/2-y,1/2+z
1/2+x,1/2-y,-z
-x,y,1/2-z
-x,-y,-z
1/2+x,1/2+y,1/2-z
1/2-x,1/2+y,z
x,-y,1/2+z
loop_
_atom_site_type_symbol
_atom_site_label
_atom_site_fract_x
_atom_site_fract_y
_atom_site_fract_z
Si Si1 0.297922 0.248101 0.409912
Si Si2 0.000000 0.000000 0.500000
Si Si3 0.400924 0.015753 0.655355
Si Si4 0.109733 0.735448 0.697715
Si Si5 0.000000 0.151328 0.750000
Si Si6 0.758833 0.484823 0.592089
O O1 0.323636 0.283449 0.568755
O O2 0.187196 0.284439 0.330619
O O3 0.401592 0.279398 0.312031
O O4 0.274867 0.132225 0.416793
O O5 0.961952 0.917781 0.379397
O O6 0.867806 0.010903 0.553830
O O7 0.500000 0.969267 0.750000
O O8 0.431488 0.130853 0.637141
O O9 0.358689 0.973610 0.508520
O O10 0.289236 0.012385 0.749879
O O11 0.000000 0.795284 0.750000
#
# Coordination Sequence:
#
# PCOD9457168 Si02
#       6
#     8   4   8   8   4   8
#     4  11  26  46  74 108 154 198 264 327 403 472
#     4  12  26  48  76 112 158 208 264 322 416 502
#     4  10  22  44  69 101 142 190 249 310 378 465
#     4  10  24  44  69 104 147 197 252 320 393 472
#     4  12  28  50  80 110 156 204 264 338 402 498
#     4  11  24  43  71 107 148 197 252 314 385 470
#
# _framework density 26.024000000000001
#
# number of rings (size 3 to 8) (size 9 to 14) (size 15 to 20)
#    0.000    1.200    0.000    5.400    7.000    4.800 
#    0.000    0.000    0.000    0.000    0.000    0.000 
#    0.000    0.000    0.000    0.000    0.000    0.000 
#
# Total GULP energy -222833.243845 kJ/mol
# GULP energy per Si atom -5570.831096 kJ/mol
# Density = 2.596477 g / cm^3
# Si number density = 26.024000 Si / 1000 Ang^3
#
#
#
# Elastic Constant Matrix: (Units=GPa)
#
#
# Indices 1 2 3 4 5 6 
#
# 1 157.9836 16.3471 60.4914 0.0000 0.0000 0.0000
# 2 16.3471 79.3449 18.2459 0.0000 0.0000 0.0000
# 3 60.4914 18.2459 131.1289 0.0000 0.0000 0.0000
# 4 0.0000 0.0000 0.0000 24.2922 0.0000 0.0000
# 5 0.0000 0.0000 0.0000 0.0000 49.7404 0.0000
# 6 0.0000 0.0000 0.0000 0.0000 0.0000 28.1832
#
#
#
# Elastic Compliance Matrix: (Units=1/GPa)
#
#
# Indices 1 2 3 4 5 6 
#
# 1 0.007736 -0.000799 -0.003458 0.000000 0.000000 0.000000
# 2 -0.000799 0.013102 -0.001455 0.000000 0.000000 0.000000
# 3 -0.003458 -0.001455 0.009424 0.000000 0.000000 0.000000
# 4 0.000000 0.000000 0.000000 0.041165 0.000000 0.000000
# 5 0.000000 0.000000 0.000000 0.000000 0.020104 0.000000
# 6 0.000000 0.000000 0.000000 0.000000 0.000000 0.035482
#
#
# Mechanical properties :
#
#
# Convention : Reuss Voigt Hill
#
# Bulk Modulus (GPa) = 53.07868 62.06960 57.57414
# Shear Modulus (GPa) = 34.55032 38.66803 36.60918
#
# Velocity S-wave (km/s) = 3.64762 3.85887 3.75473
# Velocity P-wave (km/s) = 6.17904 6.61492 6.40069
#
# Compressibility (1/GPa) = 0.01883996
#
# Stress axis : x y z
#
# Youngs Moduli (GPa) = 129.25936 76.32264 106.11661
#
# Poissons Ratio (x) = 0.06096 0.36692
# Poissons Ratio (y) = 0.10325 0.15436
# Poissons Ratio (z) = 0.44695 0.11102
#
# Static dielectric constant tensor:
#      x y z
#    x 2.084540 0.000000 0.000000 
#    y 0.000000 2.036940 0.000000 
#    z 0.000000 0.000000 2.073690 
# 
# From -- ./inp_files/4809.got.cif
#   From: 2010.05.17/outbox.cif.g08.bks.cpg/sg60_3_cif.got.tgz:4809.got - 2010.06.03 14:59:27.
