data_PCOD9457364
_publ_section_title
;
Structure prediction by ZEFSAII (Michael W. Deem and Ramdas Pophale) SiO2 
 PCOD9457364
Probable space group: P B C N
;
_chemical_formula_sum "Si O2"
_cell_formula_units_Z 56
_cell_length_a 8.133911
_cell_length_b 14.557385
_cell_length_c 21.436231
_cell_angle_alpha 90.000000
_cell_angle_beta 90.000000
_cell_angle_gamma 90.000000
_cell_volume 2538.231401
_symmetry_space_group_name_H-M "P B C N"
_symmetry_group_IT_number 60
_symmetry_cell_setting 'orthorhombic'
loop_
_space_group_symop_operation_xyz
x,y,z
1/2-x,1/2-y,1/2+z
1/2+x,1/2-y,-z
-x,y,1/2-z
-x,-y,-z
1/2+x,1/2+y,1/2-z
1/2-x,1/2+y,z
x,-y,1/2+z
loop_
_atom_site_type_symbol
_atom_site_label
_atom_site_fract_x
_atom_site_fract_y
_atom_site_fract_z
Si Si1 0.545726 0.934251 0.677895
Si Si2 0.076000 0.067438 0.316055
Si Si3 0.798486 0.260371 0.473800
Si Si4 0.156289 0.412323 0.116281
Si Si5 0.391796 0.445771 0.551573
Si Si6 0.035072 0.279610 0.910964
Si Si7 0.007085 0.138778 0.684478
O O1 0.500000 0.929830 0.750000
O O2 0.462414 0.858578 0.633114
O O3 0.736248 0.906203 0.673710
O O4 0.487092 0.032735 0.651463
O O5 0.000000 0.104221 0.250000
O O6 0.081592 0.957544 0.306648
O O7 0.975479 0.076733 0.380656
O O8 0.892892 0.322062 0.422493
O O9 0.842015 0.152963 0.475273
O O10 0.610354 0.260652 0.453282
O O11 0.826894 0.307368 0.540398
O O12 0.242813 0.485048 0.069115
O O13 0.305910 0.381958 0.162488
O O14 0.500000 0.500000 0.500000
O O15 0.085888 0.197180 0.866737
O O16 0.000000 0.190199 0.750000
#
# Coordination Sequence:
#
# PCOD9457364 Si02
#       7
#     8   8   8   8   8   8   8
#     4  12  24  43  68 100 134 174 230 285 348 409
#     4  10  23  41  67  93 130 178 225 272 352 423
#     4  11  24  43  63  97 138 170 233 274 347 407
#     4  10  23  41  66  96 131 172 218 294 338 398
#     4  11  22  43  70  93 134 186 225 281 352 416
#     4  11  25  40  65  95 133 179 222 286 336 411
#     4   9  18  41  65  89 123 171 223 267 344 411
#
# _framework density 22.062607
#
# number of rings (size 3 to 8) (size 9 to 14) (size 15 to 20)
#    0.000    1.429    1.429    5.571    4.000    2.857 
#    0.000    0.714    0.000    0.000    0.000    0.000 
#    0.000    0.000    0.000    0.000    0.000    0.000 
#
# Total GULP energy -312504.298070 kJ/mol
# GULP energy per Si atom -5580.433894 kJ/mol
# Density = 2.201239 g / cm^3
# Si number density = 22.062607 Si / 1000 Ang^3
#
#
#
# Elastic Constant Matrix: (Units=GPa)
#
#
# Indices 1 2 3 4 5 6 
#
# 1 29.5923 -4.0179 13.7014 0.0000 0.0000 0.0000
# 2 -4.0179 70.4704 23.5893 0.0000 0.0000 0.0000
# 3 13.7014 23.5893 132.1403 0.0000 0.0000 0.0000
# 4 0.0000 0.0000 0.0000 29.8094 0.0000 0.0000
# 5 0.0000 0.0000 0.0000 0.0000 24.8345 0.0000
# 6 0.0000 0.0000 0.0000 0.0000 0.0000 15.8415
#
#
#
# Elastic Compliance Matrix: (Units=1/GPa)
#
#
# Indices 1 2 3 4 5 6 
#
# 1 0.036309 0.003542 -0.004397 0.000000 0.000000 0.000000
# 2 0.003542 0.015438 -0.003123 0.000000 0.000000 0.000000
# 3 -0.004397 -0.003123 0.008581 0.000000 0.000000 0.000000
# 4 0.000000 0.000000 0.000000 0.033546 0.000000 0.000000
# 5 0.000000 0.000000 0.000000 0.000000 0.040267 0.000000
# 6 0.000000 0.000000 0.000000 0.000000 0.000000 0.063125
#
#
# Mechanical properties :
#
#
# Convention : Reuss Voigt Hill
#
# Bulk Modulus (GPa) = 19.09423 33.19429 26.14426
# Shear Modulus (GPa) = 22.45370 27.35910 24.90640
#
# Velocity S-wave (km/s) = 3.19364 3.52528 3.36355
# Velocity P-wave (km/s) = 4.71937 5.62568 5.19234
#
# Compressibility (1/GPa) = 0.05237185
#
# Stress axis : x y z
#
# Youngs Moduli (GPa) = 27.54108 64.77618 116.53390
#
# Poissons Ratio (x) = -0.22944 0.51242
# Poissons Ratio (y) = -0.09755 0.36396
# Poissons Ratio (z) = 0.12110 0.20231
#
# Static dielectric constant tensor:
#      x y z
#    x 1.869950 0.000000 0.000000 
#    y 0.000000 1.796940 0.000000 
#    z 0.000000 0.000000 1.966410 
# 
# From -- ./inp_files/22188.got.cif
#   From: 2010.05.17/outbox.cif.g08.bks.cpg/sg60_12_cif.got.tgz:22188.got - 2010.06.03 14:59:27.
