data_PCOD9457684
_publ_section_title
;
Structure prediction by ZEFSAII (Michael W. Deem and Ramdas Pophale) SiO2 
 PCOD9457684
Probable space group: P B C N
;
_chemical_formula_sum "Si O2"
_cell_formula_units_Z 48
_cell_length_a 8.874811
_cell_length_b 12.139384
_cell_length_c 20.967723
_cell_angle_alpha 90.000000
_cell_angle_beta 90.000000
_cell_angle_gamma 90.000000
_cell_volume 2258.952158
_symmetry_space_group_name_H-M "P B C N"
_symmetry_group_IT_number 60
_symmetry_cell_setting 'orthorhombic'
loop_
_space_group_symop_operation_xyz
x,y,z
1/2-x,1/2-y,1/2+z
1/2+x,1/2-y,-z
-x,y,1/2-z
-x,-y,-z
1/2+x,1/2+y,1/2-z
1/2-x,1/2+y,z
x,-y,1/2+z
loop_
_atom_site_type_symbol
_atom_site_label
_atom_site_fract_x
_atom_site_fract_y
_atom_site_fract_z
Si Si1 0.024537 0.589035 0.092455
Si Si2 0.964723 0.657468 0.555254
Si Si3 0.856368 0.835421 0.873601
Si Si4 0.154993 0.663320 0.733222
Si Si5 0.942601 0.054730 0.822276
Si Si6 0.816824 0.228762 0.636147
O O1 0.182030 0.631199 0.121122
O O2 0.006076 0.457248 0.090739
O O3 0.884398 0.649787 0.126235
O O4 0.029622 0.630376 0.019182
O O5 0.801514 0.696113 0.581165
O O6 0.082145 0.754327 0.572096
O O7 0.884958 0.768021 0.809314
O O8 0.947029 0.948138 0.866391
O O9 0.273253 0.594852 0.691656
O O10 0.232053 0.707081 0.797384
O O11 0.000000 0.602017 0.750000
O O12 0.000000 0.033371 0.750000
O O13 0.039260 0.148550 0.856995
#
# Coordination Sequence:
#
# PCOD9457684 Si02
#       6
#     8   8   8   8   8   8
#     4  11  26  46  68  97 138 180 230 286 331 410
#     4  11  26  45  69 100 132 184 233 275 347 401
#     4  12  23  44  69  99 138 175 225 281 337 415
#     4  11  22  42  67 101 136 176 222 276 348 409
#     4  10  24  42  65 101 136 172 220 276 347 410
#     4  11  24  44  69  99 136 176 226 283 339 410
#
# _framework density 21.248791000000001
#
# number of rings (size 3 to 8) (size 9 to 14) (size 15 to 20)
#    0.000    1.000    3.333    2.500    2.333    1.333 
#    0.000    1.667    0.000    0.000    0.000    0.000 
#    0.000    0.000    0.000    0.000    0.000    0.000 
#
# Total GULP energy -268339.207381 kJ/mol
# GULP energy per Si atom -5590.400154 kJ/mol
# Density = 2.120043 g / cm^3
# Si number density = 21.248791 Si / 1000 Ang^3
#
#
#
# Elastic Constant Matrix: (Units=GPa)
#
#
# Indices 1 2 3 4 5 6 
#
# 1 107.8698 21.2248 -8.0522 0.0000 0.0000 0.0000
# 2 21.2248 81.8829 -11.0930 0.0000 0.0000 0.0000
# 3 -8.0522 -11.0930 31.6114 0.0000 0.0000 0.0000
# 4 0.0000 0.0000 0.0000 30.5772 0.0000 0.0000
# 5 0.0000 0.0000 0.0000 0.0000 31.7925 0.0000
# 6 0.0000 0.0000 0.0000 0.0000 0.0000 22.9889
#
#
#
# Elastic Compliance Matrix: (Units=1/GPa)
#
#
# Indices 1 2 3 4 5 6 
#
# 1 0.009854 -0.002325 0.001694 0.000000 0.000000 0.000000
# 2 -0.002325 0.013371 0.004100 0.000000 0.000000 0.000000
# 3 0.001694 0.004100 0.033504 0.000000 0.000000 0.000000
# 4 0.000000 0.000000 0.000000 0.032704 0.000000 0.000000
# 5 0.000000 0.000000 0.000000 0.000000 0.031454 0.000000
# 6 0.000000 0.000000 0.000000 0.000000 0.000000 0.043499
#
#
# Mechanical properties :
#
#
# Convention : Reuss Voigt Hill
#
# Bulk Modulus (GPa) = 15.70647 25.05815 20.38231
# Shear Modulus (GPa) = 27.98442 31.69066 29.83754
#
# Velocity S-wave (km/s) = 3.63297 3.86607 3.75133
# Velocity P-wave (km/s) = 5.00057 5.63445 5.32695
#
# Compressibility (1/GPa) = 0.06366805
#
# Stress axis : x y z
#
# Youngs Moduli (GPa) = 101.47797 74.79103 29.84676
#
# Poissons Ratio (x) = 0.17387 -0.05057
# Poissons Ratio (y) = 0.23592 -0.12237
# Poissons Ratio (z) = -0.17194 -0.30663
#
# Static dielectric constant tensor:
#      x y z
#    x 1.801890 0.000000 0.000000 
#    y 0.000000 1.751820 0.000000 
#    z 0.000000 0.000000 1.745030 
# 
# From -- ./inp_files/23935.got.cif
#   From: 2010.05.17/outbox.cif.g08.bks.cpg/sg60_12_cif.got.tgz:23935.got - 2010.06.03 14:59:27.
