data_PCOD9457747
_publ_section_title
;
Structure prediction by ZEFSAII (Michael W. Deem and Ramdas Pophale) SiO2 
 PCOD9457747
Probable space group: P B C N
;
_chemical_formula_sum "Si O2"
_cell_formula_units_Z 32
_cell_length_a 6.389896
_cell_length_b 11.799199
_cell_length_c 15.753745
_cell_angle_alpha 90.000000
_cell_angle_beta 90.000000
_cell_angle_gamma 90.000000
_cell_volume 1187.763915
_symmetry_space_group_name_H-M "P B C N"
_symmetry_group_IT_number 60
_symmetry_cell_setting 'orthorhombic'
loop_
_space_group_symop_operation_xyz
x,y,z
1/2-x,1/2-y,1/2+z
1/2+x,1/2-y,-z
-x,y,1/2-z
-x,-y,-z
1/2+x,1/2+y,1/2-z
1/2-x,1/2+y,z
x,-y,1/2+z
loop_
_atom_site_type_symbol
_atom_site_label
_atom_site_fract_x
_atom_site_fract_y
_atom_site_fract_z
Si Si1 0.396079 0.803849 0.336469
Si Si2 0.496662 0.193266 0.119153
Si Si3 0.717115 0.886006 0.460575
Si Si4 0.883892 0.936885 0.833166
O O1 0.500000 0.846763 0.250000
O O2 0.150402 0.783537 0.336744
O O3 0.499046 0.877809 0.409033
O O4 0.484656 0.676728 0.348068
O O5 0.345349 0.270749 0.059953
O O6 0.348258 0.117094 0.178014
O O7 0.639231 0.117216 0.056711
O O8 0.852448 0.984422 0.415632
O O9 0.000000 0.987887 0.750000
#
# Coordination Sequence:
#
# PCOD9457747 Si02
#       4
#     8   8   8   8
#     4  10  24  44  66 102 142 186 234 303 351 419
#     4  11  23  45  71 101 150 182 248 299 357 426
#     4  11  23  43  71 105 137 194 240 291 363 430
#     4  10  25  43  68 107 141 190 236 298 364 429
#
# _framework density 26.941381
#
# number of rings (size 3 to 8) (size 9 to 14) (size 15 to 20)
#    0.000    1.500    2.500    0.750    3.500   11.000 
#    4.500    0.000    0.000    0.000    0.000    0.000 
#    0.000    0.000    0.000    0.000    0.000    0.000 
#
# Total GULP energy -178920.784183 kJ/mol
# GULP energy per Si atom -5591.274506 kJ/mol
# Density = 2.688006 g / cm^3
# Si number density = 26.941381 Si / 1000 Ang^3
#
#
#
# Elastic Constant Matrix: (Units=GPa)
#
#
# Indices 1 2 3 4 5 6 
#
# 1 150.7822 3.5754 74.0138 0.0000 0.0000 0.0000
# 2 3.5754 77.6365 -6.5702 0.0000 0.0000 0.0000
# 3 74.0138 -6.5702 87.3645 0.0000 0.0000 0.0000
# 4 0.0000 0.0000 0.0000 18.5980 0.0000 0.0000
# 5 0.0000 0.0000 0.0000 0.0000 55.3313 0.0000
# 6 0.0000 0.0000 0.0000 0.0000 0.0000 -3.9412
#
#
#
# Elastic Compliance Matrix: (Units=1/GPa)
#
#
# Indices 1 2 3 4 5 6 
#
# 1 0.011495 -0.001362 -0.009841 0.000000 0.000000 0.000000
# 2 -0.001362 0.013124 0.002141 0.000000 0.000000 0.000000
# 3 -0.009841 0.002141 0.019944 0.000000 0.000000 0.000000
# 4 0.000000 0.000000 0.000000 0.053769 0.000000 0.000000
# 5 0.000000 0.000000 0.000000 0.000000 0.018073 0.000000
# 6 0.000000 0.000000 0.000000 0.000000 0.000000 -0.253733
#
#
# Mechanical properties :
#
#
# Convention : Reuss Voigt Hill
#
# Bulk Modulus (GPa) = 37.82172 50.86902 44.34537
# Shear Modulus (GPa) = -45.29390 30.31524 -7.48933
#
# Velocity S-wave (km/s) = -4.10469 3.35808 -1.66910
# Velocity P-wave (km/s) = 2.89753 5.82735 3.57507
#
# Compressibility (1/GPa) = 0.02643983
#
# Stress axis : x y z
#
# Youngs Moduli (GPa) = 86.99561 76.19363 50.13991
#
# Poissons Ratio (x) = 0.10379 0.49341
# Poissons Ratio (y) = 0.11850 -0.10735
# Poissons Ratio (z) = 0.85610 -0.16313
#
# Static dielectric constant tensor:
#      x y z
#    x 2.116840 0.000000 0.000000 
#    y 0.000000 2.094690 0.000000 
#    z 0.000000 0.000000 2.246480 
# 
# From -- ./inp_files/21383.got.cif
#   From: 2010.05.17/outbox.cif.g08.bks.cpg/sg60_11_cif.got.tgz:21383.got - 2010.06.03 14:59:27.
