data_PCOD9457928
_publ_section_title
;
Structure prediction by ZEFSAII (Michael W. Deem and Ramdas Pophale) SiO2 
 PCOD9457928
Probable space group: P B C N
;
_chemical_formula_sum "Si O2"
_cell_formula_units_Z 40
_cell_length_a 9.500505
_cell_length_b 9.603140
_cell_length_c 17.458226
_cell_angle_alpha 90.000000
_cell_angle_beta 90.000000
_cell_angle_gamma 90.000000
_cell_volume 1592.795655
_symmetry_space_group_name_H-M "P B C N"
_symmetry_group_IT_number 60
_symmetry_cell_setting 'orthorhombic'
loop_
_space_group_symop_operation_xyz
x,y,z
1/2-x,1/2-y,1/2+z
1/2+x,1/2-y,-z
-x,y,1/2-z
-x,-y,-z
1/2+x,1/2+y,1/2-z
1/2-x,1/2+y,z
x,-y,1/2+z
loop_
_atom_site_type_symbol
_atom_site_label
_atom_site_fract_x
_atom_site_fract_y
_atom_site_fract_z
Si Si1 0.720349 0.024158 0.807236
Si Si2 0.980006 0.819919 0.836973
Si Si3 0.073463 0.362112 0.468844
Si Si4 0.184295 0.068238 0.857379
Si Si5 0.082729 0.261324 0.634584
O O1 0.596617 0.920305 0.834952
O O2 0.852433 0.926439 0.830677
O O3 0.717677 0.050642 0.716659
O O4 0.783584 0.170614 0.837608
O O5 0.980344 0.704489 0.901807
O O6 0.000000 0.766926 0.750000
O O7 0.109516 0.918952 0.862348
O O8 0.224127 0.394819 0.431004
O O9 0.086320 0.264128 0.542526
O O10 0.000000 0.500000 0.500000
O O11 0.062688 0.183916 0.842139
#
# Coordination Sequence:
#
# PCOD9457928 Si02
#       5
#     8   8   8   8   8
#     4  10  25  48  82 109 157 207 270 335 409 498
#     4   9  23  48  73 104 153 209 264 330 400 484
#     4  12  30  43  77 116 165 211 269 334 414 493
#     4  10  26  50  77 110 160 213 269 342 405 487
#     4  11  27  46  80 119 157 209 271 344 416 487
#
# _framework density 25.113077000000001
#
# number of rings (size 3 to 8) (size 9 to 14) (size 15 to 20)
#    0.000    1.600    0.000    1.800   16.800    3.200 
#    0.000    0.000    0.000    0.000    0.000    0.000 
#    0.000    0.000    0.000    0.000    0.000    0.000 
#
# Total GULP energy -223861.469432 kJ/mol
# GULP energy per Si atom -5596.536736 kJ/mol
# Density = 2.505592 g / cm^3
# Si number density = 25.113077 Si / 1000 Ang^3
#
#
#
# Elastic Constant Matrix: (Units=GPa)
#
#
# Indices 1 2 3 4 5 6 
#
# 1 89.0657 24.5298 9.5261 0.0000 0.0000 0.0000
# 2 24.5298 137.1650 42.7600 0.0000 0.0000 0.0000
# 3 9.5261 42.7600 118.1680 0.0000 0.0000 0.0000
# 4 0.0000 0.0000 0.0000 51.5807 0.0000 0.0000
# 5 0.0000 0.0000 0.0000 0.0000 30.7441 0.0000
# 6 0.0000 0.0000 0.0000 0.0000 0.0000 47.4856
#
#
#
# Elastic Compliance Matrix: (Units=1/GPa)
#
#
# Indices 1 2 3 4 5 6 
#
# 1 0.011814 -0.002047 -0.000212 0.000000 0.000000 0.000000
# 2 -0.002047 0.008572 -0.002937 0.000000 0.000000 0.000000
# 3 -0.000212 -0.002937 0.009542 0.000000 0.000000 0.000000
# 4 0.000000 0.000000 0.000000 0.019387 0.000000 0.000000
# 5 0.000000 0.000000 0.000000 0.000000 0.032527 0.000000
# 6 0.000000 0.000000 0.000000 0.000000 0.000000 0.021059
#
#
# Mechanical properties :
#
#
# Convention : Reuss Voigt Hill
#
# Bulk Modulus (GPa) = 51.18318 55.33672 53.25995
# Shear Modulus (GPa) = 41.73471 43.80093 42.76782
#
# Velocity S-wave (km/s) = 4.08103 4.18083 4.13123
# Velocity P-wave (km/s) = 6.52930 6.73711 6.63402
#
# Compressibility (1/GPa) = 0.01953767
#
# Stress axis : x y z
#
# Youngs Moduli (GPa) = 84.64528 116.65810 104.79627
#
# Poissons Ratio (x) = 0.23877 0.02219
# Poissons Ratio (y) = 0.17325 0.30777
# Poissons Ratio (z) = 0.01792 0.34261
#
# Static dielectric constant tensor:
#      x y z
#    x 2.044640 0.000000 0.000000 
#    y 0.000000 2.013530 0.000000 
#    z 0.000000 0.000000 1.941700 
# 
# From -- ./inp_files/19860.got.cif
#   From: 2010.05.17/outbox.cif.g08.bks.cpg/sg60_10_cif.got.tgz:19860.got - 2010.06.03 14:59:27.
