data_PCOD9457836
_publ_section_title
;
Structure prediction by ZEFSAII (Michael W. Deem and Ramdas Pophale) SiO2 
 PCOD9457836
Probable space group: P B C N
;
_chemical_formula_sum "Si O2"
_cell_formula_units_Z 24
_cell_length_a 11.266513
_cell_length_b 11.700889
_cell_length_c 8.533611
_cell_angle_alpha 90.000000
_cell_angle_beta 90.000000
_cell_angle_gamma 90.000000
_cell_volume 1124.970731
_symmetry_space_group_name_H-M "P B C N"
_symmetry_group_IT_number 60
_symmetry_cell_setting 'orthorhombic'
loop_
_space_group_symop_operation_xyz
x,y,z
1/2-x,1/2-y,1/2+z
1/2+x,1/2-y,-z
-x,y,1/2-z
-x,-y,-z
1/2+x,1/2+y,1/2-z
1/2-x,1/2+y,z
x,-y,1/2+z
loop_
_atom_site_type_symbol
_atom_site_label
_atom_site_fract_x
_atom_site_fract_y
_atom_site_fract_z
Si Si1 0.562490 0.149936 0.984532
Si Si2 0.659205 0.045674 0.664671
Si Si3 0.429175 0.597981 0.909384
O O1 0.630612 0.094757 0.835962
O O2 0.425151 0.118476 0.952672
O O3 0.578012 0.284407 0.994740
O O4 0.614162 0.083442 0.134795
O O5 0.796615 0.056930 0.627884
O O6 0.500000 0.623176 0.750000
O O7 0.500000 0.500000 0.000000
#
# Coordination Sequence:
#
# PCOD9457836 Si02
#       3
#     8   8   8
#     4  10  25  46  74 103 135 194 237 291 352 429
#     4  10  24  46  74  97 143 181 242 286 358 418
#     4  12  29  44  71 110 146 187 238 300 365 421
#
# _framework density 21.333888999999999
#
# number of rings (size 3 to 8) (size 9 to 14) (size 15 to 20)
#    0.000    1.333    0.000    2.000   23.333    0.000 
#    0.000    0.000    0.000    0.000    0.000    0.000 
#    0.000    0.000    0.000    0.000    0.000    0.000 
#
# Total GULP energy -134296.417183 kJ/mol
# GULP energy per Si atom -5595.684049 kJ/mol
# Density = 2.128533 g / cm^3
# Si number density = 21.333889 Si / 1000 Ang^3
#
#
#
# Elastic Constant Matrix: (Units=GPa)
#
#
# Indices 1 2 3 4 5 6 
#
# 1 201.4003 44.7147 45.9968 0.0000 0.0000 0.0000
# 2 44.7147 170.6801 63.5144 0.0000 0.0000 0.0000
# 3 45.9968 63.5144 105.0875 0.0000 0.0000 0.0000
# 4 0.0000 0.0000 0.0000 32.0150 0.0000 0.0000
# 5 0.0000 0.0000 0.0000 0.0000 24.6283 0.0000
# 6 0.0000 0.0000 0.0000 0.0000 0.0000 11.3241
#
#
#
# Elastic Compliance Matrix: (Units=1/GPa)
#
#
# Indices 1 2 3 4 5 6 
#
# 1 0.005583 -0.000714 -0.002012 0.000000 0.000000 0.000000
# 2 -0.000714 0.007650 -0.004311 0.000000 0.000000 0.000000
# 3 -0.002012 -0.004311 0.013002 0.000000 0.000000 0.000000
# 4 0.000000 0.000000 0.000000 0.031235 0.000000 0.000000
# 5 0.000000 0.000000 0.000000 0.000000 0.040604 0.000000
# 6 0.000000 0.000000 0.000000 0.000000 0.000000 0.088307
#
#
# Mechanical properties :
#
#
# Convention : Reuss Voigt Hill
#
# Bulk Modulus (GPa) = 82.23060 87.29105 84.76083
# Shear Modulus (GPa) = 24.44854 35.12294 29.78574
#
# Velocity S-wave (km/s) = 3.38893 4.06192 3.74059
# Velocity P-wave (km/s) = 7.34448 7.93753 7.64676
#
# Compressibility (1/GPa) = 0.01216092
#
# Stress axis : x y z
#
# Youngs Moduli (GPa) = 179.10488 130.71393 76.90858
#
# Poissons Ratio (x) = 0.09331 0.15477
# Poissons Ratio (y) = 0.12786 0.33158
# Poissons Ratio (z) = 0.36042 0.56355
#
# Static dielectric constant tensor:
#      x y z
#    x 1.734570 0.000000 0.000000 
#    y 0.000000 1.758600 0.000000 
#    z 0.000000 0.000000 1.809490 
# 
# From -- ./inp_files/4381.got.cif
#   From: 2010.05.17/outbox.cif.g08.bks.cpg/sg60_3_cif.got.tgz:4381.got - 2010.06.03 14:59:27.
