data_PCOD9457257
_publ_section_title
;
Structure prediction by ZEFSAII (Michael W. Deem and Ramdas Pophale) SiO2 
 PCOD9457257
Probable space group: P B C N
;
_chemical_formula_sum "Si O2"
_cell_formula_units_Z 48
_cell_length_a 11.186110
_cell_length_b 9.059469
_cell_length_c 17.655560
_cell_angle_alpha 90.000000
_cell_angle_beta 90.000000
_cell_angle_gamma 90.000000
_cell_volume 1789.218278
_symmetry_space_group_name_H-M "P B C N"
_symmetry_group_IT_number 60
_symmetry_cell_setting 'orthorhombic'
loop_
_space_group_symop_operation_xyz
x,y,z
1/2-x,1/2-y,1/2+z
1/2+x,1/2-y,-z
-x,y,1/2-z
-x,-y,-z
1/2+x,1/2+y,1/2-z
1/2-x,1/2+y,z
x,-y,1/2+z
loop_
_atom_site_type_symbol
_atom_site_label
_atom_site_fract_x
_atom_site_fract_y
_atom_site_fract_z
Si Si1 0.404820 0.290917 0.877601
Si Si2 0.522396 0.198002 0.088727
Si Si3 0.679495 0.241271 0.223934
Si Si4 0.500000 0.494557 0.250000
Si Si5 0.875744 0.326828 0.437126
Si Si6 0.500000 0.500000 0.000000
Si Si7 0.235322 0.415565 0.621667
O O1 0.285871 0.234530 0.836642
O O2 0.471253 0.395832 0.817729
O O3 0.497062 0.159604 0.896323
O O4 0.403328 0.385971 0.954605
O O5 0.576423 0.171077 0.171413
O O6 0.389744 0.134898 0.084787
O O7 0.607973 0.133430 0.023576
O O8 0.518448 0.370901 0.066647
O O9 0.774734 0.410709 0.391195
O O10 0.729189 0.143204 0.292887
O O11 0.385582 0.386742 0.243797
O O12 0.843032 0.151698 0.428352
#
# Coordination Sequence:
#
# PCOD9457257 Si02
#       7
#     8   8   8   4   8   4   8
#     4  11  26  47  79 115 160 214 270 336 415 500
#     4  11  25  47  76 114 154 211 269 332 414 499
#     4  12  26  47  83 111 162 212 270 336 421 495
#     4  12  24  54  72 122 158 212 276 334 420 498
#     4  11  30  48  79 113 159 209 274 337 413 498
#     4  10  22  46  76 110 158 204 270 328 408 488
#     4  12  27  51  76 114 163 210 267 348 408 493
#
# _framework density 26.827359000000001
#
# number of rings (size 3 to 8) (size 9 to 14) (size 15 to 20)
#    0.000    0.667    3.333    1.500   14.000    1.333 
#    6.000    0.000    0.000    0.000    0.000    0.000 
#    0.000    0.000    0.000    0.000    0.000    0.000 
#
# Total GULP energy -268012.022660 kJ/mol
# GULP energy per Si atom -5583.583805 kJ/mol
# Density = 2.676630 g / cm^3
# Si number density = 26.827359 Si / 1000 Ang^3
#
#
#
# Elastic Constant Matrix: (Units=GPa)
#
#
# Indices 1 2 3 4 5 6 
#
# 1 113.9570 9.4476 29.8528 0.0000 0.0000 0.0000
# 2 9.4476 71.2642 9.9432 0.0000 0.0000 0.0000
# 3 29.8528 9.9432 135.9445 0.0000 0.0000 0.0000
# 4 0.0000 0.0000 0.0000 22.5163 0.0000 0.0000
# 5 0.0000 0.0000 0.0000 0.0000 59.5687 0.0000
# 6 0.0000 0.0000 0.0000 0.0000 0.0000 39.2880
#
#
#
# Elastic Compliance Matrix: (Units=1/GPa)
#
#
# Indices 1 2 3 4 5 6 
#
# 1 0.009376 -0.000966 -0.001988 0.000000 0.000000 0.000000
# 2 -0.000966 0.014276 -0.000832 0.000000 0.000000 0.000000
# 3 -0.001988 -0.000832 0.007853 0.000000 0.000000 0.000000
# 4 0.000000 0.000000 0.000000 0.044412 0.000000 0.000000
# 5 0.000000 0.000000 0.000000 0.000000 0.016787 0.000000
# 6 0.000000 0.000000 0.000000 0.000000 0.000000 0.025453
#
#
# Mechanical properties :
#
#
# Convention : Reuss Voigt Hill
#
# Bulk Modulus (GPa) = 41.78184 46.62810 44.20497
# Shear Modulus (GPa) = 37.39467 42.40273 39.89870
#
# Velocity S-wave (km/s) = 3.73755 3.97996 3.86066
# Velocity P-wave (km/s) = 5.85097 6.20795 6.03210
#
# Compressibility (1/GPa) = 0.02393384
#
# Stress axis : x y z
#
# Youngs Moduli (GPa) = 106.65332 70.04560 127.33271
#
# Poissons Ratio (x) = 0.06764 0.25318
# Poissons Ratio (y) = 0.10298 0.10596
# Poissons Ratio (z) = 0.21206 0.05829
#
# Static dielectric constant tensor:
#      x y z
#    x 6.158610 0.000000 0.000000 
#    y 0.000000 2.271190 0.000000 
#    z 0.000000 0.000000 1.167610 
# 
# From -- ./inp_files/20101.got.cif
#   From: 2010.05.17/outbox.cif.g08.bks.cpg/sg60_11_cif.got.tgz:20101.got - 2010.06.03 14:59:27.
