data_PCOD9457942
_publ_section_title
;
Structure prediction by ZEFSAII (Michael W. Deem and Ramdas Pophale) SiO2 
 PCOD9457942
Probable space group: P B C N
;
_chemical_formula_sum "Si O2"
_cell_formula_units_Z 52
_cell_length_a 8.336301
_cell_length_b 18.603187
_cell_length_c 14.552775
_cell_angle_alpha 90.000000
_cell_angle_beta 90.000000
_cell_angle_gamma 90.000000
_cell_volume 2256.870053
_symmetry_space_group_name_H-M "P B C N"
_symmetry_group_IT_number 60
_symmetry_cell_setting 'orthorhombic'
loop_
_space_group_symop_operation_xyz
x,y,z
1/2-x,1/2-y,1/2+z
1/2+x,1/2-y,-z
-x,y,1/2-z
-x,-y,-z
1/2+x,1/2+y,1/2-z
1/2-x,1/2+y,z
x,-y,1/2+z
loop_
_atom_site_type_symbol
_atom_site_label
_atom_site_fract_x
_atom_site_fract_y
_atom_site_fract_z
Si Si1 0.000000 0.155195 0.750000
Si Si2 0.683737 0.008669 0.951134
Si Si3 0.160396 0.217631 0.109575
Si Si4 0.347538 0.126805 0.689760
Si Si5 0.344719 0.567954 0.201616
Si Si6 0.031479 0.733652 0.416453
Si Si7 0.866918 0.424686 0.622250
O O1 0.168283 0.114964 0.729476
O O2 0.957287 0.207589 0.664248
O O3 0.640137 0.085092 0.906027
O O4 0.821184 0.975086 0.891094
O O5 0.535729 0.956041 0.919999
O O6 0.738651 0.026034 0.054012
O O7 0.139582 0.289006 0.169669
O O8 0.119672 0.148903 0.169446
O O9 0.347045 0.209721 0.084166
O O10 0.070404 0.230456 0.013821
O O11 0.500000 0.103170 0.750000
O O12 0.500000 0.538905 0.250000
O O13 0.193612 0.564843 0.273122
O O14 0.132993 0.661208 0.395477
#
# Coordination Sequence:
#
# PCOD9457942 Si02
#       7
#     4   8   8   8   8   8   8
#     4  10  26  40  68 102 140 186 226 294 364 408
#     4  11  25  45  72 104 132 193 239 288 363 425
#     4  11  25  42  68 102 134 182 234 289 358 421
#     4  11  23  43  67  98 137 178 235 293 348 426
#     4  12  27  44  70 104 144 191 234 291 364 433
#     4  11  23  44  69  99 140 179 234 294 350 431
#     4  11  23  47  73  96 145 187 236 293 352 439
#
# _framework density 23.040761
#
# number of rings (size 3 to 8) (size 9 to 14) (size 15 to 20)
#    0.000    0.923    3.077    3.692    5.385    0.615 
#    2.769    0.000    0.000    0.000    0.000    0.000 
#    0.000    0.000    0.000    0.000    0.000    0.000 
#
# Total GULP energy -290328.102270 kJ/mol
# GULP energy per Si atom -5583.232736 kJ/mol
# Density = 2.298832 g / cm^3
# Si number density = 23.040761 Si / 1000 Ang^3
#
#
#
# Elastic Constant Matrix: (Units=GPa)
#
#
# Indices 1 2 3 4 5 6 
#
# 1 68.2558 4.8080 24.9923 0.0000 0.0000 0.0000
# 2 4.8080 83.0571 7.2050 0.0000 0.0000 0.0000
# 3 24.9923 7.2050 87.7266 0.0000 0.0000 0.0000
# 4 0.0000 0.0000 0.0000 -221.4811 0.0000 0.0000
# 5 0.0000 0.0000 0.0000 0.0000 38.4320 0.0000
# 6 0.0000 0.0000 0.0000 0.0000 0.0000 15.0077
#
#
#
# Elastic Compliance Matrix: (Units=1/GPa)
#
#
# Indices 1 2 3 4 5 6 
#
# 1 0.016382 -0.000547 -0.004622 0.000000 0.000000 0.000000
# 2 -0.000547 0.012145 -0.000842 0.000000 0.000000 0.000000
# 3 -0.004622 -0.000842 0.012785 0.000000 0.000000 0.000000
# 4 0.000000 0.000000 0.000000 -0.004515 0.000000 0.000000
# 5 0.000000 0.000000 0.000000 0.000000 0.026020 0.000000
# 6 0.000000 0.000000 0.000000 0.000000 0.000000 0.066632
#
#
# Mechanical properties :
#
#
# Convention : Reuss Voigt Hill
#
# Bulk Modulus (GPa) = 34.14194 34.78335 34.46264
# Shear Modulus (GPa) = 33.06145 -20.13935 6.46105
#
# Velocity S-wave (km/s) = 3.79213 -2.95968 1.67639
# Velocity P-wave (km/s) = 5.83300 1.85730 4.32860
#
# Compressibility (1/GPa) = 0.02928949
#
# Stress axis : x y z
#
# Youngs Moduli (GPa) = 61.04369 82.34113 78.21716
#
# Poissons Ratio (x) = 0.04507 0.36152
# Poissons Ratio (y) = 0.03341 0.06582
# Poissons Ratio (z) = 0.28214 0.06929
#
# Static dielectric constant tensor:
#      x y z
#    x 2.004930 0.000000 0.000000 
#    y 0.000000 1.929930 0.000000 
#    z 0.000000 0.000000 1.924260 
# 
# From -- ./inp_files/15222.got.cif
#   From: 2010.05.17/outbox.cif.g08.bks.cpg/sg60_8_cif.got.tgz:15222.got - 2010.06.03 14:59:27.
