data_PCOD9457819
_publ_section_title
;
Structure prediction by ZEFSAII (Michael W. Deem and Ramdas Pophale) SiO2 
 PCOD9457819
Probable space group: P B C N
;
_chemical_formula_sum "Si O2"
_cell_formula_units_Z 40
_cell_length_a 5.942120
_cell_length_b 13.880796
_cell_length_c 20.128413
_cell_angle_alpha 90.000000
_cell_angle_beta 90.000000
_cell_angle_gamma 90.000000
_cell_volume 1660.218789
_symmetry_space_group_name_H-M "P B C N"
_symmetry_group_IT_number 60
_symmetry_cell_setting 'orthorhombic'
loop_
_space_group_symop_operation_xyz
x,y,z
1/2-x,1/2-y,1/2+z
1/2+x,1/2-y,-z
-x,y,1/2-z
-x,-y,-z
1/2+x,1/2+y,1/2-z
1/2-x,1/2+y,z
x,-y,1/2+z
loop_
_atom_site_type_symbol
_atom_site_label
_atom_site_fract_x
_atom_site_fract_y
_atom_site_fract_z
Si Si1 0.166412 0.222536 0.640243
Si Si2 0.803770 0.009905 0.203350
Si Si3 0.419980 0.549828 0.932370
Si Si4 0.500000 0.825897 0.750000
Si Si5 0.321998 0.798379 0.508769
Si Si6 0.000000 0.346881 0.250000
O O1 0.098763 0.126056 0.600215
O O2 0.206206 0.308200 0.587992
O O3 0.355175 0.210707 0.696262
O O4 0.965402 0.259035 0.686281
O O5 0.705788 0.099923 0.243334
O O6 0.000000 0.971886 0.250000
O O7 0.632927 0.921660 0.203403
O O8 0.866835 0.024351 0.126680
O O9 0.500000 0.500000 0.000000
O O10 0.209470 0.613545 0.958431
O O11 0.582666 0.760782 0.503619
#
# Coordination Sequence:
#
# PCOD9457819 Si02
#       6
#     8   8   8   4   8   4
#     4  11  24  45  70 109 144 193 250 301 385 438
#     4  11  24  46  70 104 140 185 246 298 369 429
#     4  11  25  44  75 105 145 192 242 310 371 453
#     4  11  28  42  72 105 146 188 244 309 358 458
#     4  10  24  46  71 105 150 192 245 306 375 449
#     4  11  22  42  78  99 144 188 242 313 356 450
#
# _framework density 24.093209999999999
#
# number of rings (size 3 to 8) (size 9 to 14) (size 15 to 20)
#    0.000    1.200    2.000    2.400    4.200    8.000 
#    0.000    6.000    0.000    0.000    0.000    0.000 
#    0.000    0.000    0.000    0.000    0.000    0.000 
#
# Total GULP energy -222782.302133 kJ/mol
# GULP energy per Si atom -5569.557553 kJ/mol
# Density = 2.403837 g / cm^3
# Si number density = 24.093210 Si / 1000 Ang^3
#
#
#
# Elastic Constant Matrix: (Units=GPa)
#
#
# Indices 1 2 3 4 5 6 
#
# 1 43.3960 8.0196 5.2432 0.0000 0.0000 0.0000
# 2 8.0196 55.7484 26.7002 0.0000 0.0000 0.0000
# 3 5.2432 26.7002 185.9406 0.0000 0.0000 0.0000
# 4 0.0000 0.0000 0.0000 44.8274 0.0000 0.0000
# 5 0.0000 0.0000 0.0000 0.0000 42.1761 0.0000
# 6 0.0000 0.0000 0.0000 0.0000 0.0000 19.5354
#
#
#
# Elastic Compliance Matrix: (Units=1/GPa)
#
#
# Indices 1 2 3 4 5 6 
#
# 1 0.023679 -0.003314 -0.000192 0.000000 0.000000 0.000000
# 2 -0.003314 0.019726 -0.002739 0.000000 0.000000 0.000000
# 3 -0.000192 -0.002739 0.005777 0.000000 0.000000 0.000000
# 4 0.000000 0.000000 0.000000 0.022308 0.000000 0.000000
# 5 0.000000 0.000000 0.000000 0.000000 0.023710 0.000000
# 6 0.000000 0.000000 0.000000 0.000000 0.000000 0.051189
#
#
# Mechanical properties :
#
#
# Convention : Reuss Voigt Hill
#
# Bulk Modulus (GPa) = 27.25415 40.55677 33.90546
# Shear Modulus (GPa) = 29.22082 37.64925 33.43504
#
# Velocity S-wave (km/s) = 3.48634 3.95733 3.72928
# Velocity P-wave (km/s) = 5.24811 6.14413 5.71371
#
# Compressibility (1/GPa) = 0.03669165
#
# Stress axis : x y z
#
# Youngs Moduli (GPa) = 42.23106 50.69345 173.10617
#
# Poissons Ratio (x) = 0.16802 0.03320
# Poissons Ratio (y) = 0.13997 0.47417
# Poissons Ratio (z) = 0.00810 0.13886
#
# Static dielectric constant tensor:
#      x y z
#    x 2.025160 0.000000 0.000000 
#    y 0.000000 1.940350 0.000000 
#    z 0.000000 0.000000 1.978650 
# 
# From -- ./inp_files/18551.got.cif
#   From: 2010.05.17/outbox.cif.g08.bks.cpg/sg60_10_cif.got.tgz:18551.got - 2010.06.03 14:59:27.
