data_PCOD9457490
_publ_section_title
;
Structure prediction by ZEFSAII (Michael W. Deem and Ramdas Pophale) SiO2 
 PCOD9457490
Probable space group: P B C N
;
_chemical_formula_sum "Si O2"
_cell_formula_units_Z 60
_cell_length_a 12.770055
_cell_length_b 8.389996
_cell_length_c 22.331356
_cell_angle_alpha 90.000000
_cell_angle_beta 90.000000
_cell_angle_gamma 90.000000
_cell_volume 2392.597345
_symmetry_space_group_name_H-M "P B C N"
_symmetry_group_IT_number 60
_symmetry_cell_setting 'orthorhombic'
loop_
_space_group_symop_operation_xyz
x,y,z
1/2-x,1/2-y,1/2+z
1/2+x,1/2-y,-z
-x,y,1/2-z
-x,-y,-z
1/2+x,1/2+y,1/2-z
1/2-x,1/2+y,z
x,-y,1/2+z
loop_
_atom_site_type_symbol
_atom_site_label
_atom_site_fract_x
_atom_site_fract_y
_atom_site_fract_z
Si Si1 0.817691 0.880240 0.763306
Si Si2 0.223295 0.128729 0.365663
Si Si3 0.937263 0.675493 0.571197
Si Si4 0.164174 0.198932 0.665405
Si Si5 0.700377 0.393365 0.504530
Si Si6 0.839952 0.201133 0.431375
Si Si7 0.500000 0.880345 0.250000
Si Si8 0.537904 0.116183 0.137730
O O1 0.813853 0.947574 0.696023
O O2 0.704458 0.806848 0.779226
O O3 0.901934 0.737226 0.763451
O O4 0.839756 0.019145 0.810855
O O5 0.149945 0.281720 0.378653
O O6 0.206613 0.035902 0.428460
O O7 0.343746 0.175182 0.359851
O O8 0.884074 0.750294 0.512090
O O9 0.967761 0.493183 0.578194
O O10 0.041563 0.772127 0.586409
O O11 0.255575 0.241648 0.617657
O O12 0.052703 0.254341 0.641424
O O13 0.809642 0.313927 0.487193
O O14 0.673191 0.523483 0.455650
O O15 0.517330 0.994571 0.193000
#
# Coordination Sequence:
#
# PCOD9457490 Si02
#       8
#     8   8   8   8   8   8   4   8
#     4  12  25  47  70 114 143 202 256 307 390 465
#     4  10  25  44  74 103 143 196 255 312 379 452
#     4  10  23  43  73 104 142 201 245 317 382 444
#     4  12  28  43  76 109 156 204 250 316 393 463
#     4  10  24  42  75 107 141 202 250 312 386 452
#     4  12  23  47  68 108 152 191 256 311 383 472
#     4  12  24  44  78  98 152 198 240 326 382 452
#     4  12  23  48  68 108 149 189 252 315 379 459
#
# _framework density 25.077349000000002
#
# number of rings (size 3 to 8) (size 9 to 14) (size 15 to 20)
#    0.800    0.000    1.333    6.800    0.000    2.667 
#    0.000    5.333    0.000    0.000    0.000    0.000 
#    0.000    0.000    0.000    0.000    0.000    0.000 
#
# Total GULP energy -335806.563227 kJ/mol
# GULP energy per Si atom -5596.776054 kJ/mol
# Density = 2.502027 g / cm^3
# Si number density = 25.077349 Si / 1000 Ang^3
#
#
#
# Elastic Constant Matrix: (Units=GPa)
#
#
# Indices 1 2 3 4 5 6 
#
# 1 159.7236 41.9176 14.1992 0.0000 0.0000 0.0000
# 2 41.9176 96.8926 25.0391 0.0000 0.0000 0.0000
# 3 14.1992 25.0391 109.5686 0.0000 0.0000 0.0000
# 4 0.0000 0.0000 0.0000 36.3907 0.0000 0.0000
# 5 0.0000 0.0000 0.0000 0.0000 29.7657 0.0000
# 6 0.0000 0.0000 0.0000 0.0000 0.0000 45.1142
#
#
#
# Elastic Compliance Matrix: (Units=1/GPa)
#
#
# Indices 1 2 3 4 5 6 
#
# 1 0.007068 -0.002998 -0.000231 0.000000 0.000000 0.000000
# 2 -0.002998 0.012240 -0.002409 0.000000 0.000000 0.000000
# 3 -0.000231 -0.002409 0.009707 0.000000 0.000000 0.000000
# 4 0.000000 0.000000 0.000000 0.027480 0.000000 0.000000
# 5 0.000000 0.000000 0.000000 0.000000 0.033596 0.000000
# 6 0.000000 0.000000 0.000000 0.000000 0.000000 0.022166
#
#
# Mechanical properties :
#
#
# Convention : Reuss Voigt Hill
#
# Bulk Modulus (GPa) = 56.36933 58.72185 57.54559
# Shear Modulus (GPa) = 38.62632 41.25604 39.94118
#
# Velocity S-wave (km/s) = 3.92891 4.06045 3.99522
# Velocity P-wave (km/s) = 6.56572 6.74167 6.65428
#
# Compressibility (1/GPa) = 0.01774014
#
# Stress axis : x y z
#
# Youngs Moduli (GPa) = 141.47932 81.69784 103.01790
#
# Poissons Ratio (x) = 0.24494 0.02378
# Poissons Ratio (y) = 0.42418 0.24813
# Poissons Ratio (z) = 0.03266 0.19678
#
# Static dielectric constant tensor:
#      x y z
#    x 1.924890 0.000000 0.000000 
#    y 0.000000 2.012100 0.000000 
#    z 0.000000 0.000000 2.073620 
# 
# From -- ./inp_files/25343.got.cif
#   From: 2010.05.17/outbox.cif.g08.bks.cpg/sg60_13_cif.got.tgz:25343.got - 2010.06.03 14:59:27.
