data_PCOD9457287
_publ_section_title
;
Structure prediction by ZEFSAII (Michael W. Deem and Ramdas Pophale) SiO2 
 PCOD9457287
Probable space group: P B C N
;
_chemical_formula_sum "Si O2"
_cell_formula_units_Z 40
_cell_length_a 9.157426
_cell_length_b 8.980355
_cell_length_c 24.592792
_cell_angle_alpha 90.000000
_cell_angle_beta 90.000000
_cell_angle_gamma 90.000000
_cell_volume 2022.435871
_symmetry_space_group_name_H-M "P B C N"
_symmetry_group_IT_number 60
_symmetry_cell_setting 'orthorhombic'
loop_
_space_group_symop_operation_xyz
x,y,z
1/2-x,1/2-y,1/2+z
1/2+x,1/2-y,-z
-x,y,1/2-z
-x,-y,-z
1/2+x,1/2+y,1/2-z
1/2-x,1/2+y,z
x,-y,1/2+z
loop_
_atom_site_type_symbol
_atom_site_label
_atom_site_fract_x
_atom_site_fract_y
_atom_site_fract_z
Si Si1 0.925468 0.807951 0.070942
Si Si2 0.957820 0.641947 0.964343
Si Si3 0.836773 0.856314 0.599321
Si Si4 0.931547 0.130540 0.309887
Si Si5 0.724773 0.357477 0.369987
O O1 0.830462 0.688335 0.104397
O O2 0.090549 0.794868 0.093328
O O3 0.870543 0.977627 0.078309
O O4 0.901514 0.761173 0.008538
O O5 0.844373 0.601686 0.916478
O O6 0.093773 0.728609 0.938531
O O7 0.000000 0.500000 0.000000
O O8 0.925238 0.841816 0.654313
O O9 0.812552 0.255125 0.327062
O O10 0.000000 0.120876 0.250000
O O11 0.852431 0.984277 0.334049
#
# Coordination Sequence:
#
# PCOD9457287 Si02
#       5
#     8   8   8   8   8
#     4  11  21  37  59  88 126 161 198 250 305 371
#     4  11  21  37  61  90 126 165 199 249 315 373
#     4  10  23  37  56  89 123 159 209 249 299 373
#     4  10  23  44  64  86 120 159 206 263 311 357
#     4  10  23  41  63  93 122 160 212 255 305 380
#
# _framework density 19.778130999999998
#
# number of rings (size 3 to 8) (size 9 to 14) (size 15 to 20)
#    0.000    1.600    0.000    4.200    0.000   11.200 
#    0.000    1.000    0.000    0.000    0.000    0.000 
#    0.000    0.000    0.000    0.000    0.000    0.000 
#
# Total GULP energy -222997.915799 kJ/mol
# GULP energy per Si atom -5574.947895 kJ/mol
# Density = 1.973311 g / cm^3
# Si number density = 19.778131 Si / 1000 Ang^3
#
#
#
# Elastic Constant Matrix: (Units=GPa)
#
#
# Indices 1 2 3 4 5 6 
#
# 1 108.8664 37.6419 60.7136 0.0000 0.0000 0.0000
# 2 37.6419 65.8387 52.6139 0.0000 0.0000 0.0000
# 3 60.7136 52.6139 129.3185 0.0000 0.0000 0.0000
# 4 0.0000 0.0000 0.0000 10.8716 0.0000 0.0000
# 5 0.0000 0.0000 0.0000 0.0000 28.1331 0.0000
# 6 0.0000 0.0000 0.0000 0.0000 0.0000 6.0664
#
#
#
# Elastic Compliance Matrix: (Units=1/GPa)
#
#
# Indices 1 2 3 4 5 6 
#
# 1 0.013056 -0.003802 -0.004583 0.000000 0.000000 0.000000
# 2 -0.003802 0.023613 -0.007822 0.000000 0.000000 0.000000
# 3 -0.004583 -0.007822 0.013067 0.000000 0.000000 0.000000
# 4 0.000000 0.000000 0.000000 0.091983 0.000000 0.000000
# 5 0.000000 0.000000 0.000000 0.000000 0.035545 0.000000
# 6 0.000000 0.000000 0.000000 0.000000 0.000000 0.164841
#
#
# Mechanical properties :
#
#
# Convention : Reuss Voigt Hill
#
# Bulk Modulus (GPa) = 57.72982 67.32917 62.52949
# Shear Modulus (GPa) = 13.14774 19.21784 16.18279
#
# Velocity S-wave (km/s) = 2.58109 3.12055 2.86355
# Velocity P-wave (km/s) = 6.17534 6.86293 6.52820
#
# Compressibility (1/GPa) = 0.01732207
#
# Stress axis : x y z
#
# Youngs Moduli (GPa) = 76.59341 42.34869 76.52984
#
# Poissons Ratio (x) = 0.16102 0.35071
# Poissons Ratio (y) = 0.29124 0.59862
# Poissons Ratio (z) = 0.35100 0.33126
#
# Static dielectric constant tensor:
#      x y z
#    x 1.748020 0.000000 0.000000 
#    y 0.000000 1.743580 0.000000 
#    z 0.000000 0.000000 1.837190 
# 
# From -- ./inp_files/23816.got.cif
#   From: 2010.05.17/outbox.cif.g08.bks.cpg/sg60_12_cif.got.tgz:23816.got - 2010.06.03 14:59:27.
