data_PCOD9457718
_publ_section_title
;
Structure prediction by ZEFSAII (Michael W. Deem and Ramdas Pophale) SiO2 
 PCOD9457718
Probable space group: P B C N
;
_chemical_formula_sum "Si O2"
_cell_formula_units_Z 60
_cell_length_a 17.099884
_cell_length_b 17.214056
_cell_length_c 9.296665
_cell_angle_alpha 90.000000
_cell_angle_beta 90.000000
_cell_angle_gamma 90.000000
_cell_volume 2736.551070
_symmetry_space_group_name_H-M "P B C N"
_symmetry_group_IT_number 60
_symmetry_cell_setting 'orthorhombic'
loop_
_space_group_symop_operation_xyz
x,y,z
1/2-x,1/2-y,1/2+z
1/2+x,1/2-y,-z
-x,y,1/2-z
-x,-y,-z
1/2+x,1/2+y,1/2-z
1/2-x,1/2+y,z
x,-y,1/2+z
loop_
_atom_site_type_symbol
_atom_site_label
_atom_site_fract_x
_atom_site_fract_y
_atom_site_fract_z
Si Si1 0.500000 0.457653 0.250000
Si Si2 0.669870 0.178836 0.093226
Si Si3 0.581802 0.727509 0.161339
Si Si4 0.006951 0.676787 0.088324
Si Si5 0.595329 0.564782 0.026824
Si Si6 0.250727 0.556986 0.609991
Si Si7 0.650260 0.090270 0.384528
Si Si8 0.728957 0.825651 0.149788
O O1 0.554054 0.511517 0.146892
O O2 0.546130 0.414990 0.380397
O O3 0.581427 0.174809 0.035393
O O4 0.667225 0.151662 0.258713
O O5 0.711458 0.262011 0.087362
O O6 0.715606 0.112825 0.010072
O O7 0.500000 0.722100 0.250000
O O8 0.612240 0.643381 0.114034
O O9 0.655345 0.777769 0.219650
O O10 0.557091 0.769832 0.014610
O O11 0.056204 0.596282 0.095979
O O12 0.000000 0.707957 0.250000
O O13 0.671046 0.522837 0.960355
O O14 0.187812 0.492233 0.653169
O O15 0.269010 0.615952 0.739092
O O16 0.692262 0.120797 0.526709
#
# Coordination Sequence:
#
# PCOD9457718 Si02
#       8
#     4   8   8   8   8   8   8   8
#     4  10  26  48  64 100 138 178 226 276 360 430
#     4  11  22  42  66  98 131 177 232 284 339 410
#     4  11  22  42  65  96 137 175 225 287 341 415
#     4   9  22  41  66  95 131 177 231 276 348 401
#     4  11  25  44  68  98 134 181 226 282 348 428
#     4  12  25  41  68  99 135 179 226 282 350 409
#     4  10  24  43  63  97 137 176 229 280 345 417
#     4  11  24  42  66 100 134 178 234 288 342 416
#
# _framework density 21.925409999999999
#
# number of rings (size 3 to 8) (size 9 to 14) (size 15 to 20)
#    0.000    1.333    2.000    2.400    8.400    0.533 
#    2.400    6.000    0.000    0.000    0.000    0.000 
#    0.000    0.000    0.000    0.000    0.000    0.000 
#
# Total GULP energy -334816.427531 kJ/mol
# GULP energy per Si atom -5580.273792 kJ/mol
# Density = 2.187551 g / cm^3
# Si number density = 21.925410 Si / 1000 Ang^3
#
#
#
# Elastic Constant Matrix: (Units=GPa)
#
#
# Indices 1 2 3 4 5 6 
#
# 1 85.0138 24.8414 0.6167 0.0000 0.0000 0.0000
# 2 24.8414 62.1675 -0.6182 0.0000 0.0000 0.0000
# 3 0.6167 -0.6182 66.3763 0.0000 0.0000 0.0000
# 4 0.0000 0.0000 0.0000 29.9645 0.0000 0.0000
# 5 0.0000 0.0000 0.0000 0.0000 29.5396 0.0000
# 6 0.0000 0.0000 0.0000 0.0000 0.0000 -36.0976
#
#
#
# Elastic Compliance Matrix: (Units=1/GPa)
#
#
# Indices 1 2 3 4 5 6 
#
# 1 0.013320 -0.005324 -0.000173 0.000000 0.000000 0.000000
# 2 -0.005324 0.018215 0.000219 0.000000 0.000000 0.000000
# 3 -0.000173 0.000219 0.015069 0.000000 0.000000 0.000000
# 4 0.000000 0.000000 0.000000 0.033373 0.000000 0.000000
# 5 0.000000 0.000000 0.000000 0.000000 0.033853 0.000000
# 6 0.000000 0.000000 0.000000 0.000000 0.000000 -0.027703
#
#
# Mechanical properties :
#
#
# Convention : Reuss Voigt Hill
#
# Bulk Modulus (GPa) = 27.74116 29.24860 28.49488
# Shear Modulus (GPa) = 45.99821 17.26249 31.63035
#
# Velocity S-wave (km/s) = 4.58530 2.80898 3.80232
# Velocity P-wave (km/s) = 6.38069 4.88769 5.68343
#
# Compressibility (1/GPa) = 0.03604751
#
# Stress axis : x y z
#
# Youngs Moduli (GPa) = 75.07620 54.89915 66.36022
#
# Poissons Ratio (x) = 0.29229 0.01150
# Poissons Ratio (y) = 0.39972 -0.01454
# Poissons Ratio (z) = 0.01301 -0.01203
#
# Static dielectric constant tensor:
#      x y z
#    x 2.067690 0.000000 0.000000 
#    y 0.000000 1.769030 0.000000 
#    z 0.000000 0.000000 1.833660 
# 
# From -- ./inp_files/6928.got.cif
#   From: 2010.05.17/outbox.cif.g08.bks.cpg/sg60_4_cif.got.tgz:6928.got - 2010.06.03 14:59:27.
