data_PCOD9457537
_publ_section_title
;
Structure prediction by ZEFSAII (Michael W. Deem and Ramdas Pophale) SiO2 
 PCOD9457537
Probable space group: P B C N
;
_chemical_formula_sum "Si O2"
_cell_formula_units_Z 40
_cell_length_a 11.524973
_cell_length_b 9.913368
_cell_length_c 13.456938
_cell_angle_alpha 90.000000
_cell_angle_beta 90.000000
_cell_angle_gamma 90.000000
_cell_volume 1537.472641
_symmetry_space_group_name_H-M "P B C N"
_symmetry_group_IT_number 60
_symmetry_cell_setting 'orthorhombic'
loop_
_space_group_symop_operation_xyz
x,y,z
1/2-x,1/2-y,1/2+z
1/2+x,1/2-y,-z
-x,y,1/2-z
-x,-y,-z
1/2+x,1/2+y,1/2-z
1/2-x,1/2+y,z
x,-y,1/2+z
loop_
_atom_site_type_symbol
_atom_site_label
_atom_site_fract_x
_atom_site_fract_y
_atom_site_fract_z
Si Si1 0.303417 0.203082 0.326463
Si Si2 0.956794 0.674834 0.979136
Si Si3 0.879419 0.036821 0.416282
Si Si4 0.386196 0.498018 0.351394
Si Si5 0.382311 0.923135 0.628895
O O1 0.362218 0.159990 0.431273
O O2 0.311622 0.365151 0.325081
O O3 0.379338 0.144961 0.235779
O O4 0.177445 0.133367 0.314400
O O5 0.077119 0.679082 0.041271
O O6 0.919263 0.807884 0.922598
O O7 0.958615 0.553157 0.900609
O O8 0.881397 0.986877 0.528758
O O9 0.748348 0.026250 0.383910
O O10 0.974860 0.972345 0.344363
#
# Coordination Sequence:
#
# PCOD9457537 Si02
#       5
#     8   8   8   8   8
#     4  11  24  45  71 107 152 185 246 305 367 439
#     4  10  24  43  72 104 147 195 247 299 370 441
#     4  10  23  44  73 103 139 196 247 298 368 443
#     4  10  24  45  71 106 144 190 239 309 366 442
#     4  11  24  43  72 107 145 198 242 306 369 432
#
# _framework density 26.016722999999999
#
# number of rings (size 3 to 8) (size 9 to 14) (size 15 to 20)
#    0.000    1.600    2.000    0.600    8.400    2.400 
#    7.200    0.000    0.000    0.000    0.000    0.000 
#    0.000    0.000    0.000    0.000    0.000    0.000 
#
# Total GULP energy -223756.999364 kJ/mol
# GULP energy per Si atom -5593.924984 kJ/mol
# Density = 2.595751 g / cm^3
# Si number density = 26.016723 Si / 1000 Ang^3
#
#
#
# Elastic Constant Matrix: (Units=GPa)
#
#
# Indices 1 2 3 4 5 6 
#
# 1 146.3047 16.3382 -4.3616 0.0000 0.0000 0.0000
# 2 16.3382 126.1868 25.4838 0.0000 0.0000 0.0000
# 3 -4.3616 25.4838 112.5354 0.0000 0.0000 0.0000
# 4 0.0000 0.0000 0.0000 31.4519 0.0000 0.0000
# 5 0.0000 0.0000 0.0000 0.0000 11.9550 0.0000
# 6 0.0000 0.0000 0.0000 0.0000 0.0000 25.4801
#
#
#
# Elastic Compliance Matrix: (Units=1/GPa)
#
#
# Indices 1 2 3 4 5 6 
#
# 1 0.006962 -0.001002 0.000497 0.000000 0.000000 0.000000
# 2 -0.001002 0.008449 -0.001952 0.000000 0.000000 0.000000
# 3 0.000497 -0.001952 0.009347 0.000000 0.000000 0.000000
# 4 0.000000 0.000000 0.000000 0.031795 0.000000 0.000000
# 5 0.000000 0.000000 0.000000 0.000000 0.083647 0.000000
# 6 0.000000 0.000000 0.000000 0.000000 0.000000 0.039246
#
#
# Mechanical properties :
#
#
# Convention : Reuss Voigt Hill
#
# Bulk Modulus (GPa) = 50.39397 51.10530 50.74964
# Shear Modulus (GPa) = 26.18151 36.94851 31.56501
#
# Velocity S-wave (km/s) = 3.17572 3.77262 3.48696
# Velocity P-wave (km/s) = 5.73226 6.21794 5.98003
#
# Compressibility (1/GPa) = 0.01984364
#
# Stress axis : x y z
#
# Youngs Moduli (GPa) = 143.64275 118.36179 106.98181
#
# Poissons Ratio (x) = 0.11856 -0.05313
# Poissons Ratio (y) = 0.14388 0.20883
# Poissons Ratio (z) = -0.07134 0.23105
#
# Static dielectric constant tensor:
#      x y z
#    x 2.129280 0.000000 0.000000 
#    y 0.000000 2.025350 0.000000 
#    z 0.000000 0.000000 2.096710 
# 
# From -- ./inp_files/15857.got.cif
#   From: 2010.05.17/outbox.cif.g08.bks.cpg/sg60_8_cif.got.tgz:15857.got - 2010.06.03 14:59:27.
