data_PCOD9457927
_publ_section_title
;
Structure prediction by ZEFSAII (Michael W. Deem and Ramdas Pophale) SiO2 
 PCOD9457927
Probable space group: P B C N
;
_chemical_formula_sum "Si O2"
_cell_formula_units_Z 32
_cell_length_a 7.290012
_cell_length_b 16.347863
_cell_length_c 9.942429
_cell_angle_alpha 90.000000
_cell_angle_beta 90.000000
_cell_angle_gamma 90.000000
_cell_volume 1184.900086
_symmetry_space_group_name_H-M "P B C N"
_symmetry_group_IT_number 60
_symmetry_cell_setting 'orthorhombic'
loop_
_space_group_symop_operation_xyz
x,y,z
1/2-x,1/2-y,1/2+z
1/2+x,1/2-y,-z
-x,y,1/2-z
-x,-y,-z
1/2+x,1/2+y,1/2-z
1/2-x,1/2+y,z
x,-y,1/2+z
loop_
_atom_site_type_symbol
_atom_site_label
_atom_site_fract_x
_atom_site_fract_y
_atom_site_fract_z
Si Si1 0.500000 0.713042 0.750000
Si Si2 0.367349 0.555565 0.908502
Si Si3 0.500000 0.429870 0.750000
Si Si4 0.017568 0.360859 0.413760
Si Si5 0.701178 0.693552 0.092347
O O1 0.451857 0.642646 0.862416
O O2 0.674874 0.855804 0.487590
O O3 0.340855 0.496295 0.776406
O O4 0.163646 0.572104 0.960325
O O5 0.500000 0.500000 0.000000
O O6 0.464986 0.363703 0.863938
O O7 0.110678 0.275787 0.460718
O O8 0.000000 0.361114 0.250000
O O9 0.670292 0.224979 0.217730
#
# Coordination Sequence:
#
# PCOD9457927 Si02
#       5
#     4   8   4   8   8
#     4   9  24  46  74 109 158 204 266 337 400 500
#     4  10  25  48  75 108 165 216 260 336 412 492
#     4  11  26  46  72 115 156 206 270 327 412 486
#     4  11  27  49  80 119 165 216 276 350 419 497
#     4  11  26  43  81 116 159 210 281 338 413 497
#
# _framework density 27.006498000000001
#
# number of rings (size 3 to 8) (size 9 to 14) (size 15 to 20)
#    0.000    1.500    1.250    0.000   17.500    3.000 
#    2.250    0.000    0.000    0.000    0.000    0.000 
#    0.000    0.000    0.000    0.000    0.000    0.000 
#
# Total GULP energy -178333.729920 kJ/mol
# GULP energy per Si atom -5572.929060 kJ/mol
# Density = 2.694503 g / cm^3
# Si number density = 27.006498 Si / 1000 Ang^3
#
#
#
# Elastic Constant Matrix: (Units=GPa)
#
#
# Indices 1 2 3 4 5 6 
#
# 1 103.5476 27.4792 35.0177 0.0000 0.0000 0.0000
# 2 27.4792 130.9687 29.1933 0.0000 0.0000 0.0000
# 3 35.0177 29.1933 128.7730 0.0000 0.0000 0.0000
# 4 0.0000 0.0000 0.0000 37.1058 0.0000 0.0000
# 5 0.0000 0.0000 0.0000 0.0000 57.2094 0.0000
# 6 0.0000 0.0000 0.0000 0.0000 0.0000 59.9325
#
#
#
# Elastic Compliance Matrix: (Units=1/GPa)
#
#
# Indices 1 2 3 4 5 6 
#
# 1 0.010995 -0.001728 -0.002598 0.000000 0.000000 0.000000
# 2 -0.001728 0.008313 -0.001415 0.000000 0.000000 0.000000
# 3 -0.002598 -0.001415 0.008793 0.000000 0.000000 0.000000
# 4 0.000000 0.000000 0.000000 0.026950 0.000000 0.000000
# 5 0.000000 0.000000 0.000000 0.000000 0.017480 0.000000
# 6 0.000000 0.000000 0.000000 0.000000 0.000000 0.016685
#
#
# Mechanical properties :
#
#
# Convention : Reuss Voigt Hill
#
# Bulk Modulus (GPa) = 60.17065 60.74109 60.45587
# Shear Modulus (GPa) = 47.06468 48.95614 48.01041
#
# Velocity S-wave (km/s) = 4.17912 4.26226 4.22089
# Velocity P-wave (km/s) = 6.75390 6.83832 6.79624
#
# Compressibility (1/GPa) = 0.01661940
#
# Stress axis : x y z
#
# Youngs Moduli (GPa) = 90.95445 120.28948 113.72860
#
# Poissons Ratio (x) = 0.20782 0.29548
# Poissons Ratio (y) = 0.15714 0.16091
# Poissons Ratio (z) = 0.23631 0.17019
#
# Static dielectric constant tensor:
#      x y z
#    x 2.144920 0.000000 0.000000 
#    y 0.000000 2.031560 0.000000 
#    z 0.000000 0.000000 3.226320 
# 
# From -- ./inp_files/9547.got.cif
#   From: 2010.05.17/outbox.cif.g08.bks.cpg/sg60_5_cif.got.tgz:9547.got - 2010.06.03 14:59:27.
