data_PCOD9457478
_publ_section_title
;
Structure prediction by ZEFSAII (Michael W. Deem and Ramdas Pophale) SiO2 
 PCOD9457478
Probable space group: P B C N
;
_chemical_formula_sum "Si O2"
_cell_formula_units_Z 40
_cell_length_a 6.759281
_cell_length_b 23.635486
_cell_length_c 11.915158
_cell_angle_alpha 90.000000
_cell_angle_beta 90.000000
_cell_angle_gamma 90.000000
_cell_volume 1903.552433
_symmetry_space_group_name_H-M "P B C N"
_symmetry_group_IT_number 60
_symmetry_cell_setting 'orthorhombic'
loop_
_space_group_symop_operation_xyz
x,y,z
1/2-x,1/2-y,1/2+z
1/2+x,1/2-y,-z
-x,y,1/2-z
-x,-y,-z
1/2+x,1/2+y,1/2-z
1/2-x,1/2+y,z
x,-y,1/2+z
loop_
_atom_site_type_symbol
_atom_site_label
_atom_site_fract_x
_atom_site_fract_y
_atom_site_fract_z
Si Si1 0.324629 0.545609 0.827708
Si Si2 0.215418 0.808035 0.072178
Si Si3 0.532540 0.186774 0.381169
Si Si4 0.000000 0.629966 0.750000
Si Si5 0.378301 0.386314 0.523915
Si Si6 0.000000 0.062249 0.250000
O O1 0.500000 0.570115 0.750000
O O2 0.140963 0.586515 0.814595
O O3 0.321642 0.481588 0.781894
O O4 0.373454 0.554219 0.957591
O O5 0.148748 0.746228 0.111662
O O6 0.363258 0.834014 0.165650
O O7 0.333745 0.805919 0.954191
O O8 0.019091 0.845087 0.048150
O O9 0.500000 0.172196 0.250000
O O10 0.668151 0.141528 0.447012
O O11 0.469033 0.399291 0.643869
#
# Coordination Sequence:
#
# PCOD9457478 Si02
#       6
#     8   8   8   4   8   4
#     4  10  23  43  69  99 128 181 228 281 340 403
#     4  12  26  43  70 100 136 186 221 284 341 416
#     4  12  28  43  69 104 138 180 228 278 344 416
#     4  12  24  43  70 100 132 177 240 272 340 416
#     4  12  23  48  69  99 143 175 230 282 347 403
#     4  10  24  45  72  96 136 179 224 292 344 396
#
# _framework density 21.013342999999999
#
# number of rings (size 3 to 8) (size 9 to 14) (size 15 to 20)
#    0.600    0.000    6.000    1.800    5.600    0.800 
#    5.400    2.000    0.000    0.000    0.000    0.000 
#    0.000    0.000    0.000    0.000    0.000    0.000 
#
# Total GULP energy -223148.069555 kJ/mol
# GULP energy per Si atom -5578.701739 kJ/mol
# Density = 2.096552 g / cm^3
# Si number density = 21.013343 Si / 1000 Ang^3
#
#
#
# Elastic Constant Matrix: (Units=GPa)
#
#
# Indices 1 2 3 4 5 6 
#
# 1 55.9909 -0.3589 3.7300 0.0000 0.0000 0.0000
# 2 -0.3589 49.9189 -8.7884 0.0000 0.0000 0.0000
# 3 3.7300 -8.7884 87.5257 0.0000 0.0000 0.0000
# 4 0.0000 0.0000 0.0000 24.1906 0.0000 0.0000
# 5 0.0000 0.0000 0.0000 0.0000 28.2804 0.0000
# 6 0.0000 0.0000 0.0000 0.0000 0.0000 28.7206
#
#
#
# Elastic Compliance Matrix: (Units=1/GPa)
#
#
# Indices 1 2 3 4 5 6 
#
# 1 0.017911 -0.000006 -0.000764 0.000000 0.000000 0.000000
# 2 -0.000006 0.020393 0.002048 0.000000 0.000000 0.000000
# 3 -0.000764 0.002048 0.011663 0.000000 0.000000 0.000000
# 4 0.000000 0.000000 0.000000 0.041338 0.000000 0.000000
# 5 0.000000 0.000000 0.000000 0.000000 0.035360 0.000000
# 6 0.000000 0.000000 0.000000 0.000000 0.000000 0.034818
#
#
# Mechanical properties :
#
#
# Convention : Reuss Voigt Hill
#
# Bulk Modulus (GPa) = 19.03895 20.28899 19.66397
# Shear Modulus (GPa) = 28.33900 29.49518 28.91709
#
# Velocity S-wave (km/s) = 3.67634 3.75058 3.71365
# Velocity P-wave (km/s) = 5.20583 5.33217 5.26938
#
# Compressibility (1/GPa) = 0.05252390
#
# Stress axis : x y z
#
# Youngs Moduli (GPa) = 55.83197 49.03650 85.73832
#
# Poissons Ratio (x) = 0.00028 0.06549
# Poissons Ratio (y) = 0.00032 -0.17558
# Poissons Ratio (z) = 0.04265 -0.10042
#
# Static dielectric constant tensor:
#      x y z
#    x 1.693970 0.000000 0.000000 
#    y 0.000000 1.738170 0.000000 
#    z 0.000000 0.000000 1.684820 
# 
# From -- ./inp_files/9121.got.cif
#   From: 2010.05.17/outbox.cif.g08.bks.cpg/sg60_5_cif.got.tgz:9121.got - 2010.06.03 14:59:27.
