data_PCOD9457782
_publ_section_title
;
Structure prediction by ZEFSAII (Michael W. Deem and Ramdas Pophale) SiO2 
 PCOD9457782
Probable space group: P B C N
;
_chemical_formula_sum "Si O2"
_cell_formula_units_Z 52
_cell_length_a 25.501043
_cell_length_b 9.819116
_cell_length_c 9.898164
_cell_angle_alpha 90.000000
_cell_angle_beta 90.000000
_cell_angle_gamma 90.000000
_cell_volume 2478.477493
_symmetry_space_group_name_H-M "P B C N"
_symmetry_group_IT_number 60
_symmetry_cell_setting 'orthorhombic'
loop_
_space_group_symop_operation_xyz
x,y,z
1/2-x,1/2-y,1/2+z
1/2+x,1/2-y,-z
-x,y,1/2-z
-x,-y,-z
1/2+x,1/2+y,1/2-z
1/2-x,1/2+y,z
x,-y,1/2+z
loop_
_atom_site_type_symbol
_atom_site_label
_atom_site_fract_x
_atom_site_fract_y
_atom_site_fract_z
Si Si1 0.264215 0.249999 0.749998
Si Si2 0.158300 0.901268 0.944360
Si Si3 0.896990 0.323592 0.883103
Si Si4 0.841699 0.401268 0.444366
Si Si5 0.500000 0.750002 0.750000
Si Si6 0.250001 0.429027 0.499998
Si Si7 0.103011 0.823591 0.383097
O O1 0.303407 0.351942 0.826704
O O2 0.303407 0.148053 0.673294
O O3 0.236222 0.332658 0.628151
O O4 0.236221 0.167341 0.871844
O O5 0.200850 0.976681 0.041222
O O6 0.120969 0.023362 0.901343
O O7 0.124565 0.775163 0.999594
O O8 0.879031 0.476639 0.901355
O O9 0.874328 0.250003 0.750002
O O10 0.959164 0.324861 0.849821
O O11 0.799149 0.476681 0.541226
O O12 0.875432 0.275161 0.499598
O O13 0.459164 0.675143 0.849818
#
# Coordination Sequence:
#
# PCOD9457782 Si02
#       7
#     8   8   8   8   4   8   8
#     4  12  26  43  66 105 140 199 225 282 336 416
#     4  12  24  43  72  99 146 181 238 279 352 419
#     4  10  24  45  68 101 133 179 233 296 345 414
#     4  12  24  43  72  99 146 181 238 279 352 419
#     4   8  24  46  72  96 136 176 234 308 360 394
#     4  12  26  44  68 104 148 190 230 280 344 428
#     4  10  24  45  68 101 133 179 233 296 345 414
#
# _framework density 20.980622
#
# number of rings (size 3 to 8) (size 9 to 14) (size 15 to 20)
#    0.923    0.000    3.077    3.692    2.154    1.231 
#    0.000    0.000    0.000    1.846    0.000    0.000 
#    0.000    0.000    0.000    0.000    0.000    0.000 
#
# Total GULP energy -289913.960743 kJ/mol
# GULP energy per Si atom -5575.268476 kJ/mol
# Density = 2.093287 g / cm^3
# Si number density = 20.980622 Si / 1000 Ang^3
#
#
#
# Elastic Constant Matrix: (Units=GPa)
#
#
# Indices 1 2 3 4 5 6 
#
# 1 116.2666 32.2643 4.5538 0.0000 0.0000 0.0000
# 2 32.2643 122.5452 17.4493 0.0000 0.0000 0.0000
# 3 4.5538 17.4493 64.1294 0.0000 0.0000 0.0000
# 4 0.0000 0.0000 0.0000 28.5335 0.0000 0.0000
# 5 0.0000 0.0000 0.0000 0.0000 23.0686 0.0000
# 6 0.0000 0.0000 0.0000 0.0000 0.0000 -5.6010
#
#
#
# Elastic Compliance Matrix: (Units=1/GPa)
#
#
# Indices 1 2 3 4 5 6 
#
# 1 0.009279 -0.002444 0.000006 0.000000 0.000000 0.000000
# 2 -0.002444 0.009133 -0.002311 0.000000 0.000000 0.000000
# 3 0.000006 -0.002311 0.016222 0.000000 0.000000 0.000000
# 4 0.000000 0.000000 0.000000 0.035047 0.000000 0.000000
# 5 0.000000 0.000000 0.000000 0.000000 0.043349 0.000000
# 6 0.000000 0.000000 0.000000 0.000000 0.000000 -0.178541
#
#
# Mechanical properties :
#
#
# Convention : Reuss Voigt Hill
#
# Bulk Modulus (GPa) = 39.78488 45.71955 42.75222
# Shear Modulus (GPa) = -104.96519 25.77848 -39.59335
#
# Velocity S-wave (km/s) = -7.08083 3.50906 -4.34883
# Velocity P-wave (km/s) = 6.91716 6.18519 2.18980
#
# Compressibility (1/GPa) = 0.02513518
#
# Stress axis : x y z
#
# Youngs Moduli (GPa) = 107.77192 109.49537 61.64482
#
# Poissons Ratio (x) = 0.26759 -0.00037
# Poissons Ratio (y) = 0.26338 0.14249
# Poissons Ratio (z) = -0.00065 0.25309
#
# Static dielectric constant tensor:
#      x y z
#    x 1.778970 0.000000 0.000000 
#    y 0.000000 1.818630 0.000000 
#    z 0.000000 0.000000 1.848460 
# 
# From -- ./inp_files/13363.got.cif
#   From: 2010.05.17/outbox.cif.g08.bks.cpg/sg60_7_cif.got.tgz:13363.got - 2010.06.03 14:59:27.
