data_PCOD9457558
_publ_section_title
;
Structure prediction by ZEFSAII (Michael W. Deem and Ramdas Pophale) SiO2 
 PCOD9457558
Probable space group: P B C N
;
_chemical_formula_sum "Si O2"
_cell_formula_units_Z 36
_cell_length_a 6.899524
_cell_length_b 10.191516
_cell_length_c 20.849971
_cell_angle_alpha 90.000000
_cell_angle_beta 90.000000
_cell_angle_gamma 90.000000
_cell_volume 1466.099263
_symmetry_space_group_name_H-M "P B C N"
_symmetry_group_IT_number 60
_symmetry_cell_setting 'orthorhombic'
loop_
_space_group_symop_operation_xyz
x,y,z
1/2-x,1/2-y,1/2+z
1/2+x,1/2-y,-z
-x,y,1/2-z
-x,-y,-z
1/2+x,1/2+y,1/2-z
1/2-x,1/2+y,z
x,-y,1/2+z
loop_
_atom_site_type_symbol
_atom_site_label
_atom_site_fract_x
_atom_site_fract_y
_atom_site_fract_z
Si Si1 0.367157 0.876632 0.515305
Si Si2 0.114685 0.981691 0.308880
Si Si3 0.494733 0.675496 0.413555
Si Si4 0.125391 0.732201 0.148013
Si Si5 0.000000 0.516342 0.250000
O O1 0.377919 0.776901 0.456365
O O2 0.147374 0.902210 0.539717
O O3 0.453351 0.806281 0.578157
O O4 0.500000 0.000000 0.500000
O O5 0.324822 0.940932 0.283464
O O6 0.000000 0.048980 0.250000
O O7 0.125196 0.077533 0.369464
O O8 0.984083 0.858255 0.326880
O O9 0.646716 0.751962 0.366936
O O10 0.091823 0.612578 0.196373
#
# Coordination Sequence:
#
# PCOD9457558 Si02
#       5
#     8   8   8   8   4
#     4  10  23  45  69 107 148 200 258 305 391 455
#     4  12  24  50  73 106 157 192 266 323 380 468
#     4  10  24  43  75 106 148 201 247 320 384 452
#     4  10  25  45  71 110 144 199 256 310 397 442
#     4  12  26  46  74 112 142 208 248 318 396 446
#
# _framework density 24.554953000000001
#
# number of rings (size 3 to 8) (size 9 to 14) (size 15 to 20)
#    1.333    0.000    3.333    1.333    3.111    2.667 
#    6.000    0.000    0.000    0.000    0.000    0.000 
#    0.000    0.000    0.000    0.000    0.000    0.000 
#
# Total GULP energy -201463.624516 kJ/mol
# GULP energy per Si atom -5596.211792 kJ/mol
# Density = 2.449906 g / cm^3
# Si number density = 24.554953 Si / 1000 Ang^3
#
#
#
# Elastic Constant Matrix: (Units=GPa)
#
#
# Indices 1 2 3 4 5 6 
#
# 1 128.7254 22.1367 46.1228 0.0000 0.0000 0.0000
# 2 22.1367 56.6983 30.3496 0.0000 0.0000 0.0000
# 3 46.1228 30.3496 106.1965 0.0000 0.0000 0.0000
# 4 0.0000 0.0000 0.0000 42.2395 0.0000 0.0000
# 5 0.0000 0.0000 0.0000 0.0000 47.2852 0.0000
# 6 0.0000 0.0000 0.0000 0.0000 0.0000 -12.1042
#
#
#
# Elastic Compliance Matrix: (Units=1/GPa)
#
#
# Indices 1 2 3 4 5 6 
#
# 1 0.009344 -0.001742 -0.003560 0.000000 0.000000 0.000000
# 2 -0.001742 0.021147 -0.005287 0.000000 0.000000 0.000000
# 3 -0.003560 -0.005287 0.012474 0.000000 0.000000 0.000000
# 4 0.000000 0.000000 0.000000 0.023675 0.000000 0.000000
# 5 0.000000 0.000000 0.000000 0.000000 0.021148 0.000000
# 6 0.000000 0.000000 0.000000 0.000000 0.000000 -0.082616
#
#
# Mechanical properties :
#
#
# Convention : Reuss Voigt Hill
#
# Bulk Modulus (GPa) = 45.90120 54.31538 50.10829
# Shear Modulus (GPa) = 148.75329 28.35151 88.55240
#
# Velocity S-wave (km/s) = 7.79174 3.40165 6.01176
# Velocity P-wave (km/s) = 9.98410 6.13158 8.28488
#
# Compressibility (1/GPa) = 0.02178592
#
# Stress axis : x y z
#
# Youngs Moduli (GPa) = 107.02357 47.28697 80.16875
#
# Poissons Ratio (x) = 0.08239 0.28542
# Poissons Ratio (y) = 0.18647 0.42385
# Poissons Ratio (z) = 0.38102 0.25000
#
# Static dielectric constant tensor:
#      x y z
#    x 1.992100 0.000000 0.000000 
#    y 0.000000 1.893500 0.000000 
#    z 0.000000 0.000000 1.947710 
# 
# From -- ./inp_files/23454.got.cif
#   From: 2010.05.17/outbox.cif.g08.bks.cpg/sg60_12_cif.got.tgz:23454.got - 2010.06.03 14:59:27.
