data_PCOD9457731
_publ_section_title
;
Structure prediction by ZEFSAII (Michael W. Deem and Ramdas Pophale) SiO2 
 PCOD9457731
Probable space group: P B C N
;
_chemical_formula_sum "Si O2"
_cell_formula_units_Z 32
_cell_length_a 24.829112
_cell_length_b 4.827690
_cell_length_c 8.872805
_cell_angle_alpha 90.000000
_cell_angle_beta 90.000000
_cell_angle_gamma 90.000000
_cell_volume 1063.558786
_symmetry_space_group_name_H-M "P B C N"
_symmetry_group_IT_number 60
_symmetry_cell_setting 'orthorhombic'
loop_
_space_group_symop_operation_xyz
x,y,z
1/2-x,1/2-y,1/2+z
1/2+x,1/2-y,-z
-x,y,1/2-z
-x,-y,-z
1/2+x,1/2+y,1/2-z
1/2-x,1/2+y,z
x,-y,1/2+z
loop_
_atom_site_type_symbol
_atom_site_label
_atom_site_fract_x
_atom_site_fract_y
_atom_site_fract_z
Si Si1 0.056799 0.888631 0.199753
Si Si2 0.153072 0.169516 0.108423
Si Si3 0.062552 0.547024 0.945486
Si Si4 0.715754 0.235425 0.595356
O O1 0.063456 0.851345 0.020352
O O2 0.060946 0.593856 0.282134
O O3 0.000000 0.012412 0.250000
O O4 0.108747 0.064259 0.232140
O O5 0.115689 0.390096 0.016131
O O6 0.198240 0.259201 0.230007
O O7 0.176893 0.907867 0.015317
O O8 0.000000 0.500000 0.000000
O O9 0.771100 0.412456 0.570797
#
# Coordination Sequence:
#
# PCOD9457731 Si02
#       4
#     8   8   8   8
#     4  10  24  43  70 109 152 197 254 311 393 489
#     4  12  26  46  79 106 157 207 257 334 411 461
#     4  10  24  44  70 109 152 200 252 315 391 498
#     4  12  30  52  79 114 153 207 282 340 399 471
#
# _framework density 30.087662999999999
#
# number of rings (size 3 to 8) (size 9 to 14) (size 15 to 20)
#    0.000    1.000    2.500    1.500   10.500    7.000 
#    0.000    0.000    0.000    0.000    0.000    0.000 
#    0.000    0.000    0.000    0.000    0.000    0.000 
#
# Total GULP energy -178688.444920 kJ/mol
# GULP energy per Si atom -5584.013904 kJ/mol
# Density = 3.001918 g / cm^3
# Si number density = 30.087663 Si / 1000 Ang^3
#
#
#
# Elastic Constant Matrix: (Units=GPa)
#
#
# Indices 1 2 3 4 5 6 
#
# 1 142.4656 4.3855 10.1610 0.0000 0.0000 0.0000
# 2 4.3855 125.5527 2.9416 0.0000 0.0000 0.0000
# 3 10.1610 2.9416 153.0938 0.0000 0.0000 0.0000
# 4 0.0000 0.0000 0.0000 35.9536 0.0000 0.0000
# 5 0.0000 0.0000 0.0000 0.0000 51.6904 0.0000
# 6 0.0000 0.0000 0.0000 0.0000 0.0000 50.1041
#
#
#
# Elastic Compliance Matrix: (Units=1/GPa)
#
#
# Indices 1 2 3 4 5 6 
#
# 1 0.007060 -0.000236 -0.000464 0.000000 0.000000 0.000000
# 2 -0.000236 0.007976 -0.000138 0.000000 0.000000 0.000000
# 3 -0.000464 -0.000138 0.006565 0.000000 0.000000 0.000000
# 4 0.000000 0.000000 0.000000 0.027814 0.000000 0.000000
# 5 0.000000 0.000000 0.000000 0.000000 0.019346 0.000000
# 6 0.000000 0.000000 0.000000 0.000000 0.000000 0.019958
#
#
# Mechanical properties :
#
#
# Convention : Reuss Voigt Hill
#
# Bulk Modulus (GPa) = 50.18439 50.67645 50.43042
# Shear Modulus (GPa) = 51.52719 54.45787 52.99253
#
# Velocity S-wave (km/s) = 4.14281 4.25899 4.20130
# Velocity P-wave (km/s) = 6.29281 6.40819 6.35076
#
# Compressibility (1/GPa) = 0.01992652
#
# Stress axis : x y z
#
# Youngs Moduli (GPa) = 141.65124 125.37232 152.31395
#
# Poissons Ratio (x) = 0.02955 0.07068
# Poissons Ratio (y) = 0.03339 0.02096
# Poissons Ratio (z) = 0.06573 0.01725
#
# Static dielectric constant tensor:
#      x y z
#    x 2.746020 0.000000 0.000000 
#    y 0.000000 2.388280 0.000000 
#    z 0.000000 0.000000 2.608140 
# 
# From -- ./inp_files/8290.got.cif
#   From: 2010.05.17/outbox.cif.g08.bks.cpg/sg60_5_cif.got.tgz:8290.got - 2010.06.03 14:59:27.
