data_PCOD9457070
_publ_section_title
;
Structure prediction by ZEFSAII (Michael W. Deem and Ramdas Pophale) SiO2 
 PCOD9457070
Probable space group: P B C N
;
_chemical_formula_sum "Si O2"
_cell_formula_units_Z 32
_cell_length_a 13.396407
_cell_length_b 18.941066
_cell_length_c 5.545536
_cell_angle_alpha 90.000000
_cell_angle_beta 90.000000
_cell_angle_gamma 90.000000
_cell_volume 1407.136666
_symmetry_space_group_name_H-M "P B C N"
_symmetry_group_IT_number 60
_symmetry_cell_setting 'orthorhombic'
loop_
_space_group_symop_operation_xyz
x,y,z
1/2-x,1/2-y,1/2+z
1/2+x,1/2-y,-z
-x,y,1/2-z
-x,-y,-z
1/2+x,1/2+y,1/2-z
1/2-x,1/2+y,z
x,-y,1/2+z
loop_
_atom_site_type_symbol
_atom_site_label
_atom_site_fract_x
_atom_site_fract_y
_atom_site_fract_z
Si Si1 0.314369 0.141768 0.023301
Si Si2 0.500000 0.654339 0.750000
Si Si3 0.847884 0.746438 0.122157
Si Si4 0.500000 0.189921 0.750000
Si Si5 0.869042 0.042255 0.501837
O O1 0.250048 0.209097 0.929126
O O2 0.423041 0.142442 0.905056
O O3 0.241586 0.076444 0.988636
O O4 0.327464 0.166490 0.298690
O O5 0.591101 0.706412 0.816754
O O6 0.450721 0.603696 0.950538
O O7 0.926654 0.738328 0.907959
O O8 0.879997 0.006785 0.239877
#
# Coordination Sequence:
#
# PCOD9457070 Si02
#       5
#     8   4   8   4   8
#     4  11  24  41  68  99 146 179 235 292 358 433
#     4  10  22  42  71 105 138 178 238 312 366 424
#     4  11  22  39  65 108 136 178 223 307 376 419
#     4  12  22  38  69  99 138 178 226 288 378 426
#     4  11  27  47  70  99 143 199 242 288 346 429
#
# _framework density 22.741215
#
# number of rings (size 3 to 8) (size 9 to 14) (size 15 to 20)
#    0.000    1.000    5.000    0.750    3.500    4.000 
#    0.000    1.250    0.000    0.000    0.000    0.000 
#    0.000    0.000    0.000    0.000    0.000    0.000 
#
# Total GULP energy -178559.346021 kJ/mol
# GULP energy per Si atom -5579.979563 kJ/mol
# Density = 2.268946 g / cm^3
# Si number density = 22.741215 Si / 1000 Ang^3
#
#
#
# Elastic Constant Matrix: (Units=GPa)
#
#
# Indices 1 2 3 4 5 6 
#
# 1 144.6932 24.0572 29.1151 0.0000 0.0000 0.0000
# 2 24.0572 66.1513 24.2354 0.0000 0.0000 0.0000
# 3 29.1151 24.2354 70.9652 0.0000 0.0000 0.0000
# 4 0.0000 0.0000 0.0000 18.2908 0.0000 0.0000
# 5 0.0000 0.0000 0.0000 0.0000 44.7060 0.0000
# 6 0.0000 0.0000 0.0000 0.0000 0.0000 47.4116
#
#
#
# Elastic Compliance Matrix: (Units=1/GPa)
#
#
# Indices 1 2 3 4 5 6 
#
# 1 0.007734 -0.001886 -0.002529 0.000000 0.000000 0.000000
# 2 -0.001886 0.017739 -0.005284 0.000000 0.000000 0.000000
# 3 -0.002529 -0.005284 0.016934 0.000000 0.000000 0.000000
# 4 0.000000 0.000000 0.000000 0.054672 0.000000 0.000000
# 5 0.000000 0.000000 0.000000 0.000000 0.022368 0.000000
# 6 0.000000 0.000000 0.000000 0.000000 0.000000 0.021092
#
#
# Mechanical properties :
#
#
# Convention : Reuss Voigt Hill
#
# Bulk Modulus (GPa) = 43.46347 48.51390 45.98869
# Shear Modulus (GPa) = 29.83193 35.70847 32.77020
#
# Velocity S-wave (km/s) = 3.62581 3.96689 3.80018
# Velocity P-wave (km/s) = 6.05659 6.50853 6.28662
#
# Compressibility (1/GPa) = 0.02300783
#
# Stress axis : x y z
#
# Youngs Moduli (GPa) = 129.30600 56.37399 59.05445
#
# Poissons Ratio (x) = 0.10632 0.14934
# Poissons Ratio (y) = 0.24387 0.31205
# Poissons Ratio (z) = 0.32699 0.29789
#
# Static dielectric constant tensor:
#      x y z
#    x 1.875310 0.000000 0.000000 
#    y 0.000000 1.855080 0.000000 
#    z 0.000000 0.000000 2.058240 
# 
# From -- ./inp_files/675.got.cif
#   From: 2010.05.17/outbox.cif.g08.bks.cpg/sg60_1_cif.got.tgz:675.got - 2010.06.03 14:59:27.
