data_PCOD9457044
_publ_section_title
;
Structure prediction by ZEFSAII (Michael W. Deem and Ramdas Pophale) SiO2 
 PCOD9457044
Probable space group: P B C N
;
_chemical_formula_sum "Si O2"
_cell_formula_units_Z 60
_cell_length_a 24.857709
_cell_length_b 5.748157
_cell_length_c 18.938060
_cell_angle_alpha 90.000000
_cell_angle_beta 90.000000
_cell_angle_gamma 90.000000
_cell_volume 2705.983906
_symmetry_space_group_name_H-M "P B C N"
_symmetry_group_IT_number 60
_symmetry_cell_setting 'orthorhombic'
loop_
_space_group_symop_operation_xyz
x,y,z
1/2-x,1/2-y,1/2+z
1/2+x,1/2-y,-z
-x,y,1/2-z
-x,-y,-z
1/2+x,1/2+y,1/2-z
1/2-x,1/2+y,z
x,-y,1/2+z
loop_
_atom_site_type_symbol
_atom_site_label
_atom_site_fract_x
_atom_site_fract_y
_atom_site_fract_z
Si Si1 0.535852 0.720886 0.441415
Si Si2 0.719692 0.598873 0.276226
Si Si3 0.744997 0.055134 0.432230
Si Si4 0.099061 0.867900 0.787411
Si Si5 0.450463 0.347632 0.172955
Si Si6 0.421684 0.341083 0.950257
Si Si7 0.625402 0.101081 0.424472
Si Si8 0.000000 0.534411 0.750000
O O1 0.525081 0.553856 0.373390
O O2 0.557638 0.569613 0.507617
O O3 0.475990 0.815649 0.454467
O O4 0.583857 0.890647 0.423005
O O5 0.746272 0.340233 0.257463
O O6 0.718628 0.576322 0.362050
O O7 0.659732 0.636848 0.243851
O O8 0.746906 0.306985 0.470184
O O9 0.684551 0.037669 0.404080
O O10 0.098738 0.880415 0.871769
O O11 0.056170 0.667979 0.764169
O O12 0.068835 0.082589 0.750278
O O13 0.397740 0.285732 0.129572
O O14 0.487924 0.126536 0.182316
O O15 0.377719 0.214999 0.998302
#
# Coordination Sequence:
#
# PCOD9457044 Si02
#       8
#     8   8   8   8   8   8   8   4
#     4  10  22  42  67  97 142 180 240 285 362 439
#     4  10  24  45  70 102 137 189 240 301 363 434
#     4  10  23  40  69 101 131 173 240 302 356 412
#     4  12  25  43  69 103 151 183 239 298 376 440
#     4  11  23  38  65 100 138 180 234 295 358 436
#     4  10  23  41  62 102 137 194 223 293 360 440
#     4  11  23  40  70  94 133 184 240 296 354 431
#     4  12  26  38  66 110 142 186 228 306 366 448
#
# _framework density 22.173082000000001
#
# number of rings (size 3 to 8) (size 9 to 14) (size 15 to 20)
#    0.000    1.333    0.000    5.600   13.067    3.200 
#    0.000    1.333    0.000    0.000    0.000    0.000 
#    0.000    0.000    0.000    0.000    0.000    0.000 
#
# Total GULP energy -334629.545919 kJ/mol
# GULP energy per Si atom -5577.159099 kJ/mol
# Density = 2.212262 g / cm^3
# Si number density = 22.173082 Si / 1000 Ang^3
#
#
#
# Elastic Constant Matrix: (Units=GPa)
#
#
# Indices 1 2 3 4 5 6 
#
# 1 79.6185 33.2345 -8.9530 0.0000 0.0000 0.0000
# 2 33.2345 112.7363 22.9188 0.0000 0.0000 0.0000
# 3 -8.9530 22.9188 102.0534 0.0000 0.0000 0.0000
# 4 0.0000 0.0000 0.0000 23.1831 0.0000 0.0000
# 5 0.0000 0.0000 0.0000 0.0000 28.6646 0.0000
# 6 0.0000 0.0000 0.0000 0.0000 0.0000 25.5887
#
#
#
# Elastic Compliance Matrix: (Units=1/GPa)
#
#
# Indices 1 2 3 4 5 6 
#
# 1 0.014862 -0.004869 0.002397 0.000000 0.000000 0.000000
# 2 -0.004869 0.010889 -0.002873 0.000000 0.000000 0.000000
# 3 0.002397 -0.002873 0.010654 0.000000 0.000000 0.000000
# 4 0.000000 0.000000 0.000000 0.043135 0.000000 0.000000
# 5 0.000000 0.000000 0.000000 0.000000 0.034886 0.000000
# 6 0.000000 0.000000 0.000000 0.000000 0.000000 0.039080
#
#
# Mechanical properties :
#
#
# Convention : Reuss Voigt Hill
#
# Bulk Modulus (GPa) = 38.88420 43.20095 41.04257
# Shear Modulus (GPa) = 28.94074 31.96780 30.45427
#
# Velocity S-wave (km/s) = 3.61670 3.80114 3.71007
# Velocity P-wave (km/s) = 5.91739 6.22822 6.07479
#
# Compressibility (1/GPa) = 0.02571739
#
# Stress axis : x y z
#
# Youngs Moduli (GPa) = 67.28708 91.83164 93.85950
#
# Poissons Ratio (x) = 0.44709 -0.22500
# Poissons Ratio (y) = 0.32759 0.26962
# Poissons Ratio (z) = -0.16130 0.26380
#
# Static dielectric constant tensor:
#      x y z
#    x 1.820680 0.000000 0.000000 
#    y 0.000000 1.976720 0.000000 
#    z 0.000000 0.000000 1.858960 
# 
# From -- ./inp_files/23307.got.cif
#   From: 2010.05.17/outbox.cif.g08.bks.cpg/sg60_12_cif.got.tgz:23307.got - 2010.06.03 14:59:27.
