data_PCOD9457872
_publ_section_title
;
Structure prediction by ZEFSAII (Michael W. Deem and Ramdas Pophale) SiO2 
 PCOD9457872
Probable space group: P B C N
;
_chemical_formula_sum "Si O2"
_cell_formula_units_Z 44
_cell_length_a 14.870694
_cell_length_b 14.914112
_cell_length_c 8.215796
_cell_angle_alpha 90.000000
_cell_angle_beta 90.000000
_cell_angle_gamma 90.000000
_cell_volume 1822.125493
_symmetry_space_group_name_H-M "P B C N"
_symmetry_group_IT_number 60
_symmetry_cell_setting 'orthorhombic'
loop_
_space_group_symop_operation_xyz
x,y,z
1/2-x,1/2-y,1/2+z
1/2+x,1/2-y,-z
-x,y,1/2-z
-x,-y,-z
1/2+x,1/2+y,1/2-z
1/2-x,1/2+y,z
x,-y,1/2+z
loop_
_atom_site_type_symbol
_atom_site_label
_atom_site_fract_x
_atom_site_fract_y
_atom_site_fract_z
Si Si1 0.920133 0.048761 0.873138
Si Si2 0.195357 0.619378 0.359037
Si Si3 0.779503 0.772299 0.926706
Si Si4 0.508775 0.291540 0.942057
Si Si5 0.000000 0.667347 0.250000
Si Si6 0.707600 0.566761 0.599752
O O1 0.040540 0.883644 0.992691
O O2 0.000000 0.018846 0.750000
O O3 0.854485 0.097275 0.747789
O O4 0.859225 0.974788 0.961213
O O5 0.245698 0.691890 0.244651
O O6 0.219143 0.667483 0.530586
O O7 0.234891 0.520304 0.350592
O O8 0.090876 0.617467 0.307145
O O9 0.884090 0.794321 0.959118
O O10 0.734097 0.849309 0.040258
O O11 0.500000 0.269133 0.750000
O O12 0.476659 0.225719 0.088042
#
# Coordination Sequence:
#
# PCOD9457872 Si02
#       6
#     8   8   8   8   4   8
#     4  12  23  39  64 105 150 179 218 285 374 453
#     4  11  26  45  71  99 139 188 243 295 359 425
#     4  11  25  42  67 104 137 182 229 297 362 426
#     4  11  23  41  71 107 143 182 224 290 380 445
#     4  10  24  50  68 100 142 190 250 304 338 420
#     4  12  25  42  66 104 143 187 232 292 359 430
#
# _framework density 24.147621999999998
#
# number of rings (size 3 to 8) (size 9 to 14) (size 15 to 20)
#    0.000    0.727    4.545    2.727    7.636    0.000 
#    0.000    0.909    0.000    0.000    0.000    0.000 
#    0.000    0.000    0.000    0.000    0.000    0.000 
#
# Total GULP energy -245534.344059 kJ/mol
# GULP energy per Si atom -5580.326001 kJ/mol
# Density = 2.409266 g / cm^3
# Si number density = 24.147622 Si / 1000 Ang^3
#
#
#
# Elastic Constant Matrix: (Units=GPa)
#
#
# Indices 1 2 3 4 5 6 
#
# 1 88.9398 41.2681 29.5595 0.0000 0.0000 0.0000
# 2 41.2681 69.5107 20.4994 0.0000 0.0000 0.0000
# 3 29.5595 20.4994 122.7493 0.0000 0.0000 0.0000
# 4 0.0000 0.0000 0.0000 32.4664 0.0000 0.0000
# 5 0.0000 0.0000 0.0000 0.0000 33.9943 0.0000
# 6 0.0000 0.0000 0.0000 0.0000 0.0000 20.7102
#
#
#
# Elastic Compliance Matrix: (Units=1/GPa)
#
#
# Indices 1 2 3 4 5 6 
#
# 1 0.016169 -0.008889 -0.002409 0.000000 0.000000 0.000000
# 2 -0.008889 0.020018 -0.001203 0.000000 0.000000 0.000000
# 3 -0.002409 -0.001203 0.008928 0.000000 0.000000 0.000000
# 4 0.000000 0.000000 0.000000 0.030801 0.000000 0.000000
# 5 0.000000 0.000000 0.000000 0.000000 0.029417 0.000000
# 6 0.000000 0.000000 0.000000 0.000000 0.000000 0.048285
#
#
# Mechanical properties :
#
#
# Convention : Reuss Voigt Hill
#
# Bulk Modulus (GPa) = 49.71783 51.53930 50.62857
# Shear Modulus (GPa) = 26.97990 30.09235 28.53613
#
# Velocity S-wave (km/s) = 3.34622 3.53396 3.44137
# Velocity P-wave (km/s) = 5.96350 6.16779 6.06651
#
# Compressibility (1/GPa) = 0.02011351
#
# Stress axis : x y z
#
# Youngs Moduli (GPa) = 61.84808 49.95476 112.01129
#
# Poissons Ratio (x) = 0.44404 0.26985
# Poissons Ratio (y) = 0.54975 0.13470
# Poissons Ratio (z) = 0.14900 0.06007
#
# Static dielectric constant tensor:
#      x y z
#    x 1.929450 0.000000 0.000000 
#    y 0.000000 2.004510 0.000000 
#    z 0.000000 0.000000 2.120270 
# 
# From -- ./inp_files/5834.got.cif
#   From: 2010.05.17/outbox.cif.g08.bks.cpg/sg60_3_cif.got.tgz:5834.got - 2010.06.03 14:59:27.
