data_PCOD9457860
_publ_section_title
;
Structure prediction by ZEFSAII (Michael W. Deem and Ramdas Pophale) SiO2 
 PCOD9457860
Probable space group: P B C N
;
_chemical_formula_sum "Si O2"
_cell_formula_units_Z 56
_cell_length_a 14.887696
_cell_length_b 11.392035
_cell_length_c 13.305297
_cell_angle_alpha 90.000000
_cell_angle_beta 90.000000
_cell_angle_gamma 90.000000
_cell_volume 2256.593724
_symmetry_space_group_name_H-M "P B C N"
_symmetry_group_IT_number 60
_symmetry_cell_setting 'orthorhombic'
loop_
_space_group_symop_operation_xyz
x,y,z
1/2-x,1/2-y,1/2+z
1/2+x,1/2-y,-z
-x,y,1/2-z
-x,-y,-z
1/2+x,1/2+y,1/2-z
1/2-x,1/2+y,z
x,-y,1/2+z
loop_
_atom_site_type_symbol
_atom_site_label
_atom_site_fract_x
_atom_site_fract_y
_atom_site_fract_z
Si Si1 0.588896 0.852603 0.294012
Si Si2 0.225522 0.174240 0.909494
Si Si3 0.535620 0.712242 0.485782
Si Si4 0.854797 0.052665 0.775877
Si Si5 0.563062 0.214764 0.339163
Si Si6 0.629850 0.340164 0.627796
Si Si7 0.706720 0.048051 0.404489
O O1 0.500000 0.913795 0.250000
O O2 0.565988 0.756628 0.377963
O O3 0.618194 0.776487 0.196970
O O4 0.646941 0.943168 0.359218
O O5 0.211201 0.128770 0.796374
O O6 0.272252 0.303546 0.916810
O O7 0.124384 0.173352 0.955131
O O8 0.283861 0.086405 0.979660
O O9 0.490195 0.809388 0.558200
O O10 0.445728 0.640439 0.456649
O O11 0.924075 0.146028 0.820109
O O12 0.881977 0.949559 0.700752
O O13 0.804142 0.987038 0.865158
O O14 0.500000 0.172980 0.250000
O O15 0.661374 0.159377 0.348831
#
# Coordination Sequence:
#
# PCOD9457860 Si02
#       7
#     8   8   8   8   8   8   8
#     4  10  24  48  74 110 152 201 244 310 382 442
#     4  12  26  46  75 112 143 204 246 311 377 446
#     4  11  26  48  77 107 152 191 260 301 375 460
#     4  12  28  45  77 106 154 198 250 309 387 441
#     4  12  27  50  73 111 150 196 252 315 374 454
#     4  11  25  53  72 108 155 196 248 314 376 452
#     4  12  27  45  79 110 152 198 256 310 377 463
#
# _framework density 24.816163
#
# number of rings (size 3 to 8) (size 9 to 14) (size 15 to 20)
#    0.000    0.571    4.286    2.143    6.000    4.000 
#    0.000    0.000    0.000    0.000    0.000    0.000 
#    0.000    0.000    0.000    0.000    0.000    0.000 
#
# Total GULP energy -312486.096121 kJ/mol
# GULP energy per Si atom -5580.108859 kJ/mol
# Density = 2.475968 g / cm^3
# Si number density = 24.816163 Si / 1000 Ang^3
#
#
#
# Elastic Constant Matrix: (Units=GPa)
#
#
# Indices 1 2 3 4 5 6 
#
# 1 63.3421 32.2172 17.9677 0.0000 0.0000 0.0000
# 2 32.2172 66.1972 -1.6136 0.0000 0.0000 0.0000
# 3 17.9677 -1.6136 68.4584 0.0000 0.0000 0.0000
# 4 0.0000 0.0000 0.0000 14.7061 0.0000 0.0000
# 5 0.0000 0.0000 0.0000 0.0000 31.4075 0.0000
# 6 0.0000 0.0000 0.0000 0.0000 0.0000 34.1424
#
#
#
# Elastic Compliance Matrix: (Units=1/GPa)
#
#
# Indices 1 2 3 4 5 6 
#
# 1 0.023517 -0.011603 -0.006446 0.000000 0.000000 0.000000
# 2 -0.011603 0.020839 0.003536 0.000000 0.000000 0.000000
# 3 -0.006446 0.003536 0.016383 0.000000 0.000000 0.000000
# 4 0.000000 0.000000 0.000000 0.067999 0.000000 0.000000
# 5 0.000000 0.000000 0.000000 0.000000 0.031840 0.000000
# 6 0.000000 0.000000 0.000000 0.000000 0.000000 0.029289
#
#
# Mechanical properties :
#
#
# Convention : Reuss Voigt Hill
#
# Bulk Modulus (GPa) = 31.53070 32.79337 32.16204
# Shear Modulus (GPa) = 21.79008 26.01294 23.90151
#
# Velocity S-wave (km/s) = 2.96642 3.24114 3.10682
# Velocity P-wave (km/s) = 4.94633 5.22014 5.08508
#
# Compressibility (1/GPa) = 0.03171512
#
# Stress axis : x y z
#
# Youngs Moduli (GPa) = 42.52241 47.98614 61.04063
#
# Poissons Ratio (x) = 0.55676 0.39345
# Poissons Ratio (y) = 0.49337 -0.21586
# Poissons Ratio (z) = 0.27409 -0.16970
#
# Static dielectric constant tensor:
#      x y z
#    x 2.110650 0.000000 0.000000 
#    y 0.000000 1.971810 0.000000 
#    z 0.000000 0.000000 1.929180 
# 
# From -- ./inp_files/16843.got.cif
#   From: 2010.05.17/outbox.cif.g08.bks.cpg/sg60_9_cif.got.tgz:16843.got - 2010.06.03 14:59:27.
