data_PCOD9457854
_publ_section_title
;
Structure prediction by ZEFSAII (Michael W. Deem and Ramdas Pophale) SiO2 
 PCOD9457854
Probable space group: P B C N
;
_chemical_formula_sum "Si O2"
_cell_formula_units_Z 32
_cell_length_a 10.869307
_cell_length_b 13.395047
_cell_length_c 8.888247
_cell_angle_alpha 90.000000
_cell_angle_beta 90.000000
_cell_angle_gamma 90.000000
_cell_volume 1294.083239
_symmetry_space_group_name_H-M "P B C N"
_symmetry_group_IT_number 60
_symmetry_cell_setting 'orthorhombic'
loop_
_space_group_symop_operation_xyz
x,y,z
1/2-x,1/2-y,1/2+z
1/2+x,1/2-y,-z
-x,y,1/2-z
-x,-y,-z
1/2+x,1/2+y,1/2-z
1/2-x,1/2+y,z
x,-y,1/2+z
loop_
_atom_site_type_symbol
_atom_site_label
_atom_site_fract_x
_atom_site_fract_y
_atom_site_fract_z
Si Si1 0.273308 0.387388 0.352200
Si Si2 0.500000 0.500000 0.000000
Si Si3 0.720372 0.223856 0.921780
Si Si4 0.585022 0.941133 0.617627
Si Si5 0.000000 0.833058 0.750000
O O1 0.392983 0.431492 0.427837
O O2 0.306197 0.333728 0.195845
O O3 0.221408 0.310985 0.477901
O O4 0.178079 0.475575 0.317451
O O5 0.539477 0.592706 0.116672
O O6 0.611365 0.267256 0.815780
O O7 0.659756 0.144885 0.034777
O O8 0.500000 0.900452 0.750000
O O9 0.500000 0.000000 0.500000
#
# Coordination Sequence:
#
# PCOD9457854 Si02
#       5
#     8   4   8   8   4
#     4  11  27  47  76 112 157 206 265 324 405 476
#     4  10  26  46  76 104 160 204 252 324 400 470
#     4  11  26  46  77 114 155 205 270 331 387 481
#     4  12  26  49  77 108 152 210 261 329 394 469
#     4  10  24  48  68 114 150 212 268 322 398 480
#
# _framework density 24.727930000000001
#
# number of rings (size 3 to 8) (size 9 to 14) (size 15 to 20)
#    0.000    1.000    2.500    1.500   14.000    0.000 
#    9.000    0.000    0.000    0.000    0.000    0.000 
#    0.000    0.000    0.000    0.000    0.000    0.000 
#
# Total GULP energy -178478.252389 kJ/mol
# GULP energy per Si atom -5577.445387 kJ/mol
# Density = 2.467165 g / cm^3
# Si number density = 24.727930 Si / 1000 Ang^3
#
#
#
# Elastic Constant Matrix: (Units=GPa)
#
#
# Indices 1 2 3 4 5 6 
#
# 1 41.3366 22.5026 37.2507 0.0000 0.0000 0.0000
# 2 22.5026 106.9745 36.1206 0.0000 0.0000 0.0000
# 3 37.2507 36.1206 107.4926 0.0000 0.0000 0.0000
# 4 0.0000 0.0000 0.0000 39.4431 0.0000 0.0000
# 5 0.0000 0.0000 0.0000 0.0000 45.0285 0.0000
# 6 0.0000 0.0000 0.0000 0.0000 0.0000 12.7453
#
#
#
# Elastic Compliance Matrix: (Units=1/GPa)
#
#
# Indices 1 2 3 4 5 6 
#
# 1 0.036528 -0.003846 -0.011366 0.000000 0.000000 0.000000
# 2 -0.003846 0.010949 -0.002346 0.000000 0.000000 0.000000
# 3 -0.011366 -0.002346 0.014030 0.000000 0.000000 0.000000
# 4 0.000000 0.000000 0.000000 0.025353 0.000000 0.000000
# 5 0.000000 0.000000 0.000000 0.000000 0.022208 0.000000
# 6 0.000000 0.000000 0.000000 0.000000 0.000000 0.078460
#
#
# Mechanical properties :
#
#
# Convention : Reuss Voigt Hill
#
# Bulk Modulus (GPa) = 37.89256 49.72793 43.81025
# Shear Modulus (GPa) = 21.60361 30.10538 25.85449
#
# Velocity S-wave (km/s) = 2.95897 3.49300 3.23702
# Velocity P-wave (km/s) = 5.19914 6.03505 5.63262
#
# Compressibility (1/GPa) = 0.02639040
#
# Stress axis : x y z
#
# Youngs Moduli (GPa) = 27.37629 91.32963 71.27430
#
# Poissons Ratio (x) = 0.35125 0.81011
# Poissons Ratio (y) = 0.10529 0.16724
# Poissons Ratio (z) = 0.31116 0.21430
#
# Static dielectric constant tensor:
#      x y z
#    x 1.920140 0.000000 0.000000 
#    y 0.000000 1.897810 0.000000 
#    z 0.000000 0.000000 1.921760 
# 
# From -- ./inp_files/4641.got.cif
#   From: 2010.05.17/outbox.cif.g08.bks.cpg/sg60_3_cif.got.tgz:4641.got - 2010.06.03 14:59:27.
