data_PCOD9457304
_publ_section_title
;
Structure prediction by ZEFSAII (Michael W. Deem and Ramdas Pophale) SiO2 
 PCOD9457304
Probable space group: P B C N
;
_chemical_formula_sum "Si O2"
_cell_formula_units_Z 48
_cell_length_a 13.183036
_cell_length_b 16.154965
_cell_length_c 10.413184
_cell_angle_alpha 90.000000
_cell_angle_beta 90.000000
_cell_angle_gamma 90.000000
_cell_volume 2217.711262
_symmetry_space_group_name_H-M "P B C N"
_symmetry_group_IT_number 60
_symmetry_cell_setting 'orthorhombic'
loop_
_space_group_symop_operation_xyz
x,y,z
1/2-x,1/2-y,1/2+z
1/2+x,1/2-y,-z
-x,y,1/2-z
-x,-y,-z
1/2+x,1/2+y,1/2-z
1/2-x,1/2+y,z
x,-y,1/2+z
loop_
_atom_site_type_symbol
_atom_site_label
_atom_site_fract_x
_atom_site_fract_y
_atom_site_fract_z
Si Si1 0.000000 0.675887 0.750000
Si Si2 0.603993 0.586881 0.036516
Si Si3 0.000000 0.404562 0.750000
Si Si4 0.847406 0.032064 0.299676
Si Si5 0.634439 0.957144 0.324979
Si Si6 0.410872 0.308499 0.556383
Si Si7 0.177014 0.659515 0.430049
O O1 0.091041 0.611222 0.774384
O O2 0.035963 0.736990 0.640077
O O3 0.589551 0.534191 0.167505
O O4 0.506572 0.641357 0.002719
O O5 0.702544 0.641122 0.078271
O O6 0.622885 0.528341 0.915985
O O7 0.944215 0.468353 0.846429
O O8 0.908132 0.356872 0.679667
O O9 0.851559 0.124445 0.358436
O O10 0.734619 0.999636 0.269199
O O11 0.650491 0.905072 0.454597
O O12 0.338461 0.255878 0.465327
#
# Coordination Sequence:
#
# PCOD9457304 Si02
#       7
#     4   8   4   8   8   8   8
#     4   9  18  38  64  89 130 168 218 269 342 384
#     4  11  23  45  67  99 135 177 233 272 341 409
#     4  11  18  38  60  89 136 160 230 271 336 400
#     4  11  22  43  69  97 132 181 226 278 336 412
#     4   9  20  36  64  93 124 172 221 274 334 407
#     4  11  22  42  65  94 137 179 218 283 341 402
#     4  10  23  39  60  98 127 176 224 281 343 397
#
# _framework density 21.643937000000001
#
# number of rings (size 3 to 8) (size 9 to 14) (size 15 to 20)
#    0.000    1.667    3.333    1.000    0.000    1.333 
#    6.000    0.000    0.000    0.000    0.000    0.000 
#    0.000    0.000    0.000    0.000    0.000    0.000 
#
# Total GULP energy -267461.125779 kJ/mol
# GULP energy per Si atom -5572.106787 kJ/mol
# Density = 2.159467 g / cm^3
# Si number density = 21.643937 Si / 1000 Ang^3
#
#
#
# Elastic Constant Matrix: (Units=GPa)
#
#
# Indices 1 2 3 4 5 6 
#
# 1 93.1699 54.4926 12.6352 0.0000 0.0000 0.0000
# 2 54.4926 107.1731 24.7943 0.0000 0.0000 0.0000
# 3 12.6352 24.7943 34.8928 0.0000 0.0000 0.0000
# 4 0.0000 0.0000 0.0000 21.9702 0.0000 0.0000
# 5 0.0000 0.0000 0.0000 0.0000 26.5861 0.0000
# 6 0.0000 0.0000 0.0000 0.0000 0.0000 49.0473
#
#
#
# Elastic Compliance Matrix: (Units=1/GPa)
#
#
# Indices 1 2 3 4 5 6 
#
# 1 0.015276 -0.007764 -0.000015 0.000000 0.000000 0.000000
# 2 -0.007764 0.015112 -0.007927 0.000000 0.000000 0.000000
# 3 -0.000015 -0.007927 0.034297 0.000000 0.000000 0.000000
# 4 0.000000 0.000000 0.000000 0.045516 0.000000 0.000000
# 5 0.000000 0.000000 0.000000 0.000000 0.037614 0.000000
# 6 0.000000 0.000000 0.000000 0.000000 0.000000 0.020388
#
#
# Mechanical properties :
#
#
# Convention : Reuss Voigt Hill
#
# Bulk Modulus (GPa) = 30.05336 46.56444 38.30890
# Shear Modulus (GPa) = 23.72973 29.07498 26.40235
#
# Velocity S-wave (km/s) = 3.31474 3.66912 3.49642
# Velocity P-wave (km/s) = 5.34467 6.28574 5.83421
#
# Compressibility (1/GPa) = 0.03327415
#
# Stress axis : x y z
#
# Youngs Moduli (GPa) = 65.46294 66.17244 29.15672
#
# Poissons Ratio (x) = 0.51374 0.00043
# Poissons Ratio (y) = 0.50823 0.23113
# Poissons Ratio (z) = 0.00098 0.52455
#
# Static dielectric constant tensor:
#      x y z
#    x 1.907150 0.000000 0.000000 
#    y 0.000000 1.771920 0.000000 
#    z 0.000000 0.000000 1.831140 
# 
# From -- ./inp_files/11051.got.cif
#   From: 2010.05.17/outbox.cif.g08.bks.cpg/sg60_6_cif.got.tgz:11051.got - 2010.06.03 14:59:27.
