data_PCOD9457115
_publ_section_title
;
Structure prediction by ZEFSAII (Michael W. Deem and Ramdas Pophale) SiO2 
 PCOD9457115
Probable space group: P B C N
;
_chemical_formula_sum "Si O2"
_cell_formula_units_Z 40
_cell_length_a 11.330076
_cell_length_b 13.484856
_cell_length_c 11.268577
_cell_angle_alpha 90.000000
_cell_angle_beta 90.000000
_cell_angle_gamma 90.000000
_cell_volume 1721.663264
_symmetry_space_group_name_H-M "P B C N"
_symmetry_group_IT_number 60
_symmetry_cell_setting 'orthorhombic'
loop_
_space_group_symop_operation_xyz
x,y,z
1/2-x,1/2-y,1/2+z
1/2+x,1/2-y,-z
-x,y,1/2-z
-x,-y,-z
1/2+x,1/2+y,1/2-z
1/2-x,1/2+y,z
x,-y,1/2+z
loop_
_atom_site_type_symbol
_atom_site_label
_atom_site_fract_x
_atom_site_fract_y
_atom_site_fract_z
Si Si1 0.053544 0.803432 0.990057
Si Si2 0.110158 0.098862 0.166632
Si Si3 0.570110 0.896719 0.487931
Si Si4 0.226998 0.300092 0.824450
Si Si5 0.202664 0.880177 0.187880
O O1 0.167881 0.829415 0.913011
O O2 0.944334 0.876362 0.961083
O O3 0.014904 0.693788 0.953833
O O4 0.101829 0.816263 0.121216
O O5 0.225169 0.162898 0.197223
O O6 0.000000 0.128826 0.250000
O O7 0.146449 0.988159 0.196383
O O8 0.619511 0.858417 0.616163
O O9 0.677169 0.894923 0.390752
O O10 0.500000 0.000000 0.500000
O O11 0.221132 0.181873 0.808005
#
# Coordination Sequence:
#
# PCOD9457115 Si02
#       5
#     8   8   8   8   8
#     4  10  23  45  64  93 140 175 224 282 340 412
#     4  10  22  43  67  94 131 179 224 273 344 408
#     4  11  26  43  68 102 139 182 224 291 353 406
#     4  10  24  44  65 100 134 176 228 281 341 417
#     4  11  24  42  70  98 131 181 230 282 335 425
#
# _framework density 23.233346999999998
#
# number of rings (size 3 to 8) (size 9 to 14) (size 15 to 20)
#    0.000    1.600    2.000    0.600    8.400    0.000 
#    0.000    0.000    0.000    0.000    0.000    0.000 
#    0.000    0.000    0.000    0.000    0.000    0.000 
#
# Total GULP energy -223124.039640 kJ/mol
# GULP energy per Si atom -5578.100991 kJ/mol
# Density = 2.318047 g / cm^3
# Si number density = 23.233347 Si / 1000 Ang^3
#
#
#
# Elastic Constant Matrix: (Units=GPa)
#
#
# Indices 1 2 3 4 5 6 
#
# 1 84.5480 42.4087 30.3958 0.0000 0.0000 0.0000
# 2 42.4087 133.2216 -4.3111 0.0000 0.0000 0.0000
# 3 30.3958 -4.3111 32.8077 0.0000 0.0000 0.0000
# 4 0.0000 0.0000 0.0000 30.5254 0.0000 0.0000
# 5 0.0000 0.0000 0.0000 0.0000 16.8219 0.0000
# 6 0.0000 0.0000 0.0000 0.0000 0.0000 52.2859
#
#
#
# Elastic Compliance Matrix: (Units=1/GPa)
#
#
# Indices 1 2 3 4 5 6 
#
# 1 0.024903 -0.008711 -0.024217 0.000000 0.000000 0.000000
# 2 -0.008711 0.010586 0.009462 0.000000 0.000000 0.000000
# 3 -0.024217 0.009462 0.054161 0.000000 0.000000 0.000000
# 4 0.000000 0.000000 0.000000 0.032760 0.000000 0.000000
# 5 0.000000 0.000000 0.000000 0.000000 0.059446 0.000000
# 6 0.000000 0.000000 0.000000 0.000000 0.000000 0.019126
#
#
# Mechanical properties :
#
#
# Convention : Reuss Voigt Hill
#
# Bulk Modulus (GPa) = 23.41020 43.06268 33.23644
# Shear Modulus (GPa) = 19.07275 32.06556 25.56916
#
# Velocity S-wave (km/s) = 2.86828 3.71907 3.32103
# Velocity P-wave (km/s) = 4.58992 6.08417 5.38908
#
# Compressibility (1/GPa) = 0.04271642
#
# Stress axis : x y z
#
# Youngs Moduli (GPa) = 40.15501 94.46829 18.46348
#
# Poissons Ratio (x) = 0.82294 0.44714
# Poissons Ratio (y) = 0.34980 -0.17470
# Poissons Ratio (z) = 0.97245 -0.89385
#
# Static dielectric constant tensor:
#      x y z
#    x 1.919950 0.000000 0.000000 
#    y 0.000000 1.857420 0.000000 
#    z 0.000000 0.000000 2.164370 
# 
# From -- ./inp_files/15832.got.cif
#   From: 2010.05.17/outbox.cif.g08.bks.cpg/sg60_8_cif.got.tgz:15832.got - 2010.06.03 14:59:27.
