data_PCOD9457657
_publ_section_title
;
Structure prediction by ZEFSAII (Michael W. Deem and Ramdas Pophale) SiO2 
 PCOD9457657
Probable space group: P B C N
;
_chemical_formula_sum "Si O2"
_cell_formula_units_Z 40
_cell_length_a 18.023691
_cell_length_b 10.285619
_cell_length_c 8.940522
_cell_angle_alpha 90.000000
_cell_angle_beta 90.000000
_cell_angle_gamma 90.000000
_cell_volume 1657.437049
_symmetry_space_group_name_H-M "P B C N"
_symmetry_group_IT_number 60
_symmetry_cell_setting 'orthorhombic'
loop_
_space_group_symop_operation_xyz
x,y,z
1/2-x,1/2-y,1/2+z
1/2+x,1/2-y,-z
-x,y,1/2-z
-x,-y,-z
1/2+x,1/2+y,1/2-z
1/2-x,1/2+y,z
x,-y,1/2+z
loop_
_atom_site_type_symbol
_atom_site_label
_atom_site_fract_x
_atom_site_fract_y
_atom_site_fract_z
Si Si1 0.433871 0.902935 0.539599
Si Si2 0.282233 0.553752 0.556451
Si Si3 0.350238 0.892648 0.232821
Si Si4 0.680049 0.725907 0.531383
Si Si5 0.573040 0.644976 0.802651
O O1 0.384362 0.875616 0.393942
O O2 0.459133 0.768640 0.609194
O O3 0.500000 0.000000 0.500000
O O4 0.385820 0.978324 0.662475
O O5 0.134415 0.722782 0.614368
O O6 0.239383 0.654878 0.445727
O O7 0.276672 0.403247 0.517840
O O8 0.368481 0.579237 0.585012
O O9 0.262474 0.912959 0.209004
O O10 0.624095 0.694631 0.665036
O O11 0.500000 0.567706 0.750000
#
# Coordination Sequence:
#
# PCOD9457657 Si02
#       5
#     8   8   8   8   8
#     4  12  24  45  72 110 152 195 251 321 379 461
#     4  10  26  44  79 107 149 199 258 313 373 455
#     4  10  24  40  71 105 144 191 255 297 385 438
#     4  10  25  47  77 109 153 200 256 319 377 458
#     4  12  27  46  74 111 156 203 253 315 387 456
#
# _framework density 24.133648000000001
#
# number of rings (size 3 to 8) (size 9 to 14) (size 15 to 20)
#    1.200    0.000    0.000    5.400    5.600    4.000 
#    0.000    2.000    0.000    0.000    0.000    0.000 
#    0.000    0.000    0.000    0.000    0.000    0.000 
#
# Total GULP energy -223564.231490 kJ/mol
# GULP energy per Si atom -5589.105787 kJ/mol
# Density = 2.407872 g / cm^3
# Si number density = 24.133648 Si / 1000 Ang^3
#
#
#
# Elastic Constant Matrix: (Units=GPa)
#
#
# Indices 1 2 3 4 5 6 
#
# 1 114.6006 -4.5622 -8.1000 0.0000 0.0000 0.0000
# 2 -4.5622 80.8274 -2.8125 0.0000 0.0000 0.0000
# 3 -8.1000 -2.8125 76.8332 0.0000 0.0000 0.0000
# 4 0.0000 0.0000 0.0000 5.0225 0.0000 0.0000
# 5 0.0000 0.0000 0.0000 0.0000 45.9950 0.0000
# 6 0.0000 0.0000 0.0000 0.0000 0.0000 36.2015
#
#
#
# Elastic Compliance Matrix: (Units=1/GPa)
#
#
# Indices 1 2 3 4 5 6 
#
# 1 0.008814 0.000531 0.000949 0.000000 0.000000 0.000000
# 2 0.000531 0.012420 0.000511 0.000000 0.000000 0.000000
# 3 0.000949 0.000511 0.013134 0.000000 0.000000 0.000000
# 4 0.000000 0.000000 0.000000 0.199102 0.000000 0.000000
# 5 0.000000 0.000000 0.000000 0.000000 0.021741 0.000000
# 6 0.000000 0.000000 0.000000 0.000000 0.000000 0.027623
#
#
# Mechanical properties :
#
#
# Convention : Reuss Voigt Hill
#
# Bulk Modulus (GPa) = 26.07751 26.81240 26.44496
# Shear Modulus (GPa) = 17.14455 36.62623 26.88539
#
# Velocity S-wave (km/s) = 2.66823 3.89992 3.34132
# Velocity P-wave (km/s) = 4.50794 5.60475 5.08600
#
# Compressibility (1/GPa) = 0.03834721
#
# Stress axis : x y z
#
# Youngs Moduli (GPa) = 113.45418 80.51693 76.13885
#
# Poissons Ratio (x) = -0.04272 -0.07223
# Poissons Ratio (y) = -0.06019 -0.03887
# Poissons Ratio (z) = -0.10763 -0.04111
#
# Static dielectric constant tensor:
#      x y z
#    x 1.983510 0.000000 0.000000 
#    y 0.000000 1.893870 0.000000 
#    z 0.000000 0.000000 1.942300 
# 
# From -- ./inp_files/6523.got.cif
#   From: 2010.05.17/outbox.cif.g08.bks.cpg/sg60_4_cif.got.tgz:6523.got - 2010.06.03 14:59:27.
