data_PCOD9457140
_publ_section_title
;
Structure prediction by ZEFSAII (Michael W. Deem and Ramdas Pophale) SiO2 
 PCOD9457140
Probable space group: P B C N
;
_chemical_formula_sum "Si O2"
_cell_formula_units_Z 48
_cell_length_a 5.611337
_cell_length_b 11.917766
_cell_length_c 25.884349
_cell_angle_alpha 90.000000
_cell_angle_beta 90.000000
_cell_angle_gamma 90.000000
_cell_volume 1731.005520
_symmetry_space_group_name_H-M "P B C N"
_symmetry_group_IT_number 60
_symmetry_cell_setting 'orthorhombic'
loop_
_space_group_symop_operation_xyz
x,y,z
1/2-x,1/2-y,1/2+z
1/2+x,1/2-y,-z
-x,y,1/2-z
-x,-y,-z
1/2+x,1/2+y,1/2-z
1/2-x,1/2+y,z
x,-y,1/2+z
loop_
_atom_site_type_symbol
_atom_site_label
_atom_site_fract_x
_atom_site_fract_y
_atom_site_fract_z
Si Si1 0.732811 0.227333 0.061523
Si Si2 0.414448 0.608786 0.803022
Si Si3 0.874606 0.362539 0.802138
Si Si4 0.767356 0.882867 0.974989
Si Si5 0.025151 0.731993 0.838996
Si Si6 0.249227 0.960956 0.114109
O O1 0.477134 0.175780 0.045951
O O2 0.772731 0.225408 0.122280
O O3 0.972115 0.164094 0.041682
O O4 0.740811 0.351660 0.035460
O O5 0.500000 0.553778 0.750000
O O6 0.534533 0.732904 0.803304
O O7 0.139684 0.638990 0.802783
O O8 0.499085 0.548370 0.855082
O O9 0.595101 0.329637 0.807121
O O10 0.892487 0.447275 0.850915
O O11 0.000000 0.406394 0.750000
O O12 0.758907 0.001271 0.945195
O O13 0.857914 0.662015 0.878102
#
# Coordination Sequence:
#
# PCOD9457140 Si02
#       6
#     8   8   8   8   8   8
#     4  10  22  43  73 101 146 186 236 291 359 423
#     4  10  25  44  62  98 138 180 228 294 354 416
#     4  10  23  43  67  94 132 184 234 284 352 413
#     4  10  22  43  72 106 137 193 235 290 355 430
#     4  11  24  42  69  98 144 183 230 303 349 427
#     4  11  24  40  69 102 136 179 244 285 356 421
#
# _framework density 27.729547
#
# number of rings (size 3 to 8) (size 9 to 14) (size 15 to 20)
#    0.000    1.667    1.667    1.000    7.000    7.333 
#    3.000    0.833    0.000    0.000    0.000    0.000 
#    0.000    0.000    0.000    0.000    0.000    0.000 
#
# Total GULP energy -267874.902502 kJ/mol
# GULP energy per Si atom -5580.727135 kJ/mol
# Density = 2.766643 g / cm^3
# Si number density = 27.729547 Si / 1000 Ang^3
#
#
#
# Elastic Constant Matrix: (Units=GPa)
#
#
# Indices 1 2 3 4 5 6 
#
# 1 126.5750 35.0727 48.2071 0.0000 0.0000 0.0000
# 2 35.0727 89.0173 10.6335 0.0000 0.0000 0.0000
# 3 48.2071 10.6335 109.0771 0.0000 0.0000 0.0000
# 4 0.0000 0.0000 0.0000 53.6725 0.0000 0.0000
# 5 0.0000 0.0000 0.0000 0.0000 37.8446 0.0000
# 6 0.0000 0.0000 0.0000 0.0000 0.0000 53.0887
#
#
#
# Elastic Compliance Matrix: (Units=1/GPa)
#
#
# Indices 1 2 3 4 5 6 
#
# 1 0.010550 -0.003642 -0.004308 0.000000 0.000000 0.000000
# 2 -0.003642 0.012624 0.000379 0.000000 0.000000 0.000000
# 3 -0.004308 0.000379 0.011035 0.000000 0.000000 0.000000
# 4 0.000000 0.000000 0.000000 0.018632 0.000000 0.000000
# 5 0.000000 0.000000 0.000000 0.000000 0.026424 0.000000
# 6 0.000000 0.000000 0.000000 0.000000 0.000000 0.018836
#
#
# Mechanical properties :
#
#
# Convention : Reuss Voigt Hill
#
# Bulk Modulus (GPa) = 52.44712 56.94399 54.69555
# Shear Modulus (GPa) = 41.80689 44.30490 43.05589
#
# Velocity S-wave (km/s) = 3.88708 4.00152 3.94472
# Velocity P-wave (km/s) = 6.25306 6.47531 6.36515
#
# Compressibility (1/GPa) = 0.01906683
#
# Stress axis : x y z
#
# Youngs Moduli (GPa) = 94.78408 79.21725 90.62345
#
# Poissons Ratio (x) = 0.28853 0.39038
# Poissons Ratio (y) = 0.34522 -0.03435
# Poissons Ratio (z) = 0.40830 -0.03003
#
# Static dielectric constant tensor:
#      x y z
#    x 2.402790 0.000000 0.000000 
#    y 0.000000 2.182420 0.000000 
#    z 0.000000 0.000000 2.169990 
# 
# From -- ./inp_files/24844.got.cif
#   From: 2010.05.17/outbox.cif.g08.bks.cpg/sg60_13_cif.got.tgz:24844.got - 2010.06.03 14:59:27.
