data_PCOD9457638
_publ_section_title
;
Structure prediction by ZEFSAII (Michael W. Deem and Ramdas Pophale) SiO2 
 PCOD9457638
Probable space group: P B C N
;
_chemical_formula_sum "Si O2"
_cell_formula_units_Z 64
_cell_length_a 12.560975
_cell_length_b 27.834350
_cell_length_c 9.043875
_cell_angle_alpha 90.000000
_cell_angle_beta 90.000000
_cell_angle_gamma 90.000000
_cell_volume 3161.979036
_symmetry_space_group_name_H-M "P B C N"
_symmetry_group_IT_number 60
_symmetry_cell_setting 'orthorhombic'
loop_
_space_group_symop_operation_xyz
x,y,z
1/2-x,1/2-y,1/2+z
1/2+x,1/2-y,-z
-x,y,1/2-z
-x,-y,-z
1/2+x,1/2+y,1/2-z
1/2-x,1/2+y,z
x,-y,1/2+z
loop_
_atom_site_type_symbol
_atom_site_label
_atom_site_fract_x
_atom_site_fract_y
_atom_site_fract_z
Si Si1 0.385762 0.639351 0.057836
Si Si2 0.118466 0.872711 0.905809
Si Si3 0.673210 0.259135 0.155857
Si Si4 0.324375 0.204397 0.045946
Si Si5 0.260952 0.847996 0.171245
Si Si6 0.035718 0.715083 0.596510
Si Si7 0.312551 0.439834 0.337542
Si Si8 0.117186 0.979269 0.024767
O O1 0.372718 0.628821 0.230844
O O2 0.509562 0.654259 0.046224
O O3 0.278523 0.670469 0.034539
O O4 0.380215 0.595722 0.941789
O O5 0.213616 0.855195 0.008706
O O6 0.114500 0.928914 0.942017
O O7 0.662412 0.221346 0.287503
O O8 0.683283 0.309949 0.243422
O O9 0.783722 0.253686 0.065272
O O10 0.584446 0.249141 0.031176
O O11 0.435643 0.188334 0.978210
O O12 0.373257 0.821643 0.150026
O O13 0.263801 0.899241 0.258486
O O14 0.000000 0.740183 0.750000
O O15 0.295708 0.484070 0.453150
O O16 0.363378 0.466531 0.196398
O O17 0.000000 0.000000 0.000000
#
# Coordination Sequence:
#
# PCOD9457638 Si02
#       8
#     8   8   8   8   8   8   8   8
#     4  11  22  40  59  96 132 176 227 276 339 413
#     4  10  24  39  63  96 140 174 223 282 345 414
#     4  12  24  45  67  98 137 176 239 287 347 406
#     4  12  25  44  66  98 133 183 238 283 347 414
#     4  11  24  45  65  96 134 183 234 282 354 405
#     4  12  24  47  69  94 133 182 237 287 345 412
#     4  11  22  38  61  91 133 174 222 274 346 427
#     4  11  21  34  60  89 133 172 216 265 345 428
#
# _framework density 20.240487999999999
#
# number of rings (size 3 to 8) (size 9 to 14) (size 15 to 20)
#    0.000    0.750    5.000    2.250    3.500    2.000 
#    4.500    0.000    0.000    0.000    0.000   33.250 
#    0.000    0.000    0.000    0.000    0.000    0.000 
#
# Total GULP energy -356394.699050 kJ/mol
# GULP energy per Si atom -5568.667173 kJ/mol
# Density = 2.019442 g / cm^3
# Si number density = 20.240488 Si / 1000 Ang^3
#
#
#
# Elastic Constant Matrix: (Units=GPa)
#
#
# Indices 1 2 3 4 5 6 
#
# 1 67.6730 28.9418 51.0877 0.0000 0.0000 0.0000
# 2 28.9418 88.7782 34.0437 0.0000 0.0000 0.0000
# 3 51.0877 34.0437 155.2273 0.0000 0.0000 0.0000
# 4 0.0000 0.0000 0.0000 37.5980 0.0000 0.0000
# 5 0.0000 0.0000 0.0000 0.0000 34.8204 0.0000
# 6 0.0000 0.0000 0.0000 0.0000 0.0000 24.8107
#
#
#
# Elastic Compliance Matrix: (Units=1/GPa)
#
#
# Indices 1 2 3 4 5 6 
#
# 1 0.021281 -0.004642 -0.005986 0.000000 0.000000 0.000000
# 2 -0.004642 0.013311 -0.001391 0.000000 0.000000 0.000000
# 3 -0.005986 -0.001391 0.008717 0.000000 0.000000 0.000000
# 4 0.000000 0.000000 0.000000 0.026597 0.000000 0.000000
# 5 0.000000 0.000000 0.000000 0.000000 0.028719 0.000000
# 6 0.000000 0.000000 0.000000 0.000000 0.000000 0.040305
#
#
# Mechanical properties :
#
#
# Convention : Reuss Voigt Hill
#
# Bulk Modulus (GPa) = 51.89321 59.98055 55.93688
# Shear Modulus (GPa) = 29.51711 32.61950 31.06831
#
# Velocity S-wave (km/s) = 3.82294 4.01882 3.92210
# Velocity P-wave (km/s) = 6.72164 7.15771 6.94310
#
# Compressibility (1/GPa) = 0.01927034
#
# Stress axis : x y z
#
# Youngs Moduli (GPa) = 46.98998 75.12585 114.71364
#
# Poissons Ratio (x) = 0.34876 0.68666
# Poissons Ratio (y) = 0.21814 0.15962
# Poissons Ratio (z) = 0.28127 0.10453
#
# Static dielectric constant tensor:
#      x y z
#    x 1.736080 0.000000 0.000000 
#    y 0.000000 1.817840 0.000000 
#    z 0.000000 0.000000 1.846190 
# 
# From -- ./inp_files/5350.got.cif
#   From: 2010.05.17/outbox.cif.g08.bks.cpg/sg60_3_cif.got.tgz:5350.got - 2010.06.03 14:59:27.
