data_PCOD9457754
_publ_section_title
;
Structure prediction by ZEFSAII (Michael W. Deem and Ramdas Pophale) SiO2 
 PCOD9457754
Probable space group: P B C N
;
_chemical_formula_sum "Si O2"
_cell_formula_units_Z 28
_cell_length_a 21.172089
_cell_length_b 5.071508
_cell_length_c 10.260996
_cell_angle_alpha 90.000000
_cell_angle_beta 90.000000
_cell_angle_gamma 90.000000
_cell_volume 1101.768481
_symmetry_space_group_name_H-M "P B C N"
_symmetry_group_IT_number 60
_symmetry_cell_setting 'orthorhombic'
loop_
_space_group_symop_operation_xyz
x,y,z
1/2-x,1/2-y,1/2+z
1/2+x,1/2-y,-z
-x,y,1/2-z
-x,-y,-z
1/2+x,1/2+y,1/2-z
1/2-x,1/2+y,z
x,-y,1/2+z
loop_
_atom_site_type_symbol
_atom_site_label
_atom_site_fract_x
_atom_site_fract_y
_atom_site_fract_z
Si Si1 0.207916 0.343443 0.150074
Si Si2 0.898234 0.275281 0.885951
Si Si3 0.500000 0.041519 0.750000
Si Si4 0.879398 0.878149 0.659709
O O1 0.240576 0.066865 0.120391
O O2 0.144781 0.468100 0.088061
O O3 0.182273 0.290600 0.297986
O O4 0.970128 0.360124 0.862634
O O5 0.877914 0.135149 0.751119
O O6 0.886739 0.084993 0.006908
O O7 0.442146 0.217065 0.799324
#
# Coordination Sequence:
#
# PCOD9457754 Si02
#       4
#     8   8   4   8
#     4  11  24  49  70 105 144 193 238 296 358 437
#     4  11  25  45  74 108 147 195 248 309 373 441
#     4  10  24  44  68 104 150 196 252 306 370 440
#     4  11  25  45  74 108 147 195 248 309 373 441
#
# _framework density 25.413685999999998
#
# number of rings (size 3 to 8) (size 9 to 14) (size 15 to 20)
#    0.000    1.143    2.857    1.714    0.000   16.000 
#    0.000    0.000    0.000    0.000    0.000    0.000 
#    0.000    0.000    0.000    0.000    0.000    0.000 
#
# Total GULP energy -156447.203665 kJ/mol
# GULP energy per Si atom -5587.400131 kJ/mol
# Density = 2.535584 g / cm^3
# Si number density = 25.413686 Si / 1000 Ang^3
#
#
#
# Elastic Constant Matrix: (Units=GPa)
#
#
# Indices 1 2 3 4 5 6 
#
# 1 87.5246 33.0086 16.0354 0.0000 0.0000 0.0000
# 2 33.0086 144.9951 20.9542 0.0000 0.0000 0.0000
# 3 16.0354 20.9542 48.2475 0.0000 0.0000 0.0000
# 4 0.0000 0.0000 0.0000 19.0441 0.0000 0.0000
# 5 0.0000 0.0000 0.0000 0.0000 14.0590 0.0000
# 6 0.0000 0.0000 0.0000 0.0000 0.0000 41.2103
#
#
#
# Elastic Compliance Matrix: (Units=1/GPa)
#
#
# Indices 1 2 3 4 5 6 
#
# 1 0.012953 -0.002482 -0.003227 0.000000 0.000000 0.000000
# 2 -0.002482 0.007834 -0.002577 0.000000 0.000000 0.000000
# 3 -0.003227 -0.002577 0.022918 0.000000 0.000000 0.000000
# 4 0.000000 0.000000 0.000000 0.052510 0.000000 0.000000
# 5 0.000000 0.000000 0.000000 0.000000 0.071129 0.000000
# 6 0.000000 0.000000 0.000000 0.000000 0.000000 0.024266
#
#
# Mechanical properties :
#
#
# Convention : Reuss Voigt Hill
#
# Bulk Modulus (GPa) = 36.85671 46.75149 41.80410
# Shear Modulus (GPa) = 23.01737 28.91395 25.96566
#
# Velocity S-wave (km/s) = 3.01276 3.37669 3.19990
# Velocity P-wave (km/s) = 5.16106 5.79990 5.48978
#
# Compressibility (1/GPa) = 0.02713210
#
# Stress axis : x y z
#
# Youngs Moduli (GPa) = 77.20377 127.64217 43.63316
#
# Poissons Ratio (x) = 0.31686 0.14080
# Poissons Ratio (y) = 0.19165 0.11246
# Poissons Ratio (z) = 0.24912 0.32900
#
# Static dielectric constant tensor:
#      x y z
#    x 1.995180 0.000000 0.000000 
#    y 0.000000 2.048710 0.000000 
#    z 0.000000 0.000000 2.030090 
# 
# From -- ./inp_files/12670.got.cif
#   From: 2010.05.17/outbox.cif.g08.bks.cpg/sg60_7_cif.got.tgz:12670.got - 2010.06.03 14:59:27.
