data_PCOD9457699
_publ_section_title
;
Structure prediction by ZEFSAII (Michael W. Deem and Ramdas Pophale) SiO2 
 PCOD9457699
Probable space group: P B C N
;
_chemical_formula_sum "Si O2"
_cell_formula_units_Z 40
_cell_length_a 9.694802
_cell_length_b 9.177302
_cell_length_c 21.304925
_cell_angle_alpha 90.000000
_cell_angle_beta 90.000000
_cell_angle_gamma 90.000000
_cell_volume 1895.544467
_symmetry_space_group_name_H-M "P B C N"
_symmetry_group_IT_number 60
_symmetry_cell_setting 'orthorhombic'
loop_
_space_group_symop_operation_xyz
x,y,z
1/2-x,1/2-y,1/2+z
1/2+x,1/2-y,-z
-x,y,1/2-z
-x,-y,-z
1/2+x,1/2+y,1/2-z
1/2-x,1/2+y,z
x,-y,1/2+z
loop_
_atom_site_type_symbol
_atom_site_label
_atom_site_fract_x
_atom_site_fract_y
_atom_site_fract_z
Si Si1 0.000000 0.159834 0.750000
Si Si2 0.181431 0.399506 0.677143
Si Si3 0.500000 0.867269 0.250000
Si Si4 0.877811 0.095336 0.025651
Si Si5 0.018977 0.105303 0.334039
Si Si6 0.126861 0.416414 0.529414
O O1 0.109972 0.260512 0.712170
O O2 0.063396 0.044376 0.799780
O O3 0.115657 0.533373 0.716592
O O4 0.349193 0.394350 0.670498
O O5 0.131616 0.416708 0.605041
O O6 0.563911 0.753164 0.200619
O O7 0.911811 0.110792 0.098594
O O8 0.871313 0.250940 0.992967
O O9 0.749258 0.002977 0.003298
O O10 0.000000 0.000000 0.000000
O O11 0.000000 0.500000 0.500000
#
# Coordination Sequence:
#
# PCOD9457699 Si02
#       6
#     4   8   4   8   8   8
#     4  10  24  42  68 108 132 196 232 298 362 430
#     4  11  23  46  74  97 149 184 242 297 369 424
#     4  10  24  42  68 110 134 196 234 296 364 436
#     4  12  25  48  77 107 143 196 248 298 373 441
#     4  11  23  47  72 100 146 183 248 295 361 433
#     4  12  27  46  75 112 147 195 244 307 371 436
#
# _framework density 21.102117
#
# number of rings (size 3 to 8) (size 9 to 14) (size 15 to 20)
#    0.000    0.800    2.000    4.800    2.800    0.000 
#   36.000    0.000    0.000    0.000    0.000    0.000 
#    0.000    0.000    0.000    0.000    0.000    0.000 
#
# Total GULP energy -223468.246956 kJ/mol
# GULP energy per Si atom -5586.706174 kJ/mol
# Density = 2.105409 g / cm^3
# Si number density = 21.102117 Si / 1000 Ang^3
#
#
#
# Elastic Constant Matrix: (Units=GPa)
#
#
# Indices 1 2 3 4 5 6 
#
# 1 156.2524 75.1912 68.3914 0.0000 0.0000 0.0000
# 2 75.1912 208.5358 91.8889 0.0000 0.0000 0.0000
# 3 68.3914 91.8889 204.2966 0.0000 0.0000 0.0000
# 4 0.0000 0.0000 0.0000 13.1101 0.0000 0.0000
# 5 0.0000 0.0000 0.0000 0.0000 39.1979 0.0000
# 6 0.0000 0.0000 0.0000 0.0000 0.0000 26.6083
#
#
#
# Elastic Compliance Matrix: (Units=1/GPa)
#
#
# Indices 1 2 3 4 5 6 
#
# 1 0.008227 -0.002186 -0.001771 0.000000 0.000000 0.000000
# 2 -0.002186 0.006562 -0.002219 0.000000 0.000000 0.000000
# 3 -0.001771 -0.002219 0.006486 0.000000 0.000000 0.000000
# 4 0.000000 0.000000 0.000000 0.076277 0.000000 0.000000
# 5 0.000000 0.000000 0.000000 0.000000 0.025512 0.000000
# 6 0.000000 0.000000 0.000000 0.000000 0.000000 0.037582
#
#
# Mechanical properties :
#
#
# Convention : Reuss Voigt Hill
#
# Bulk Modulus (GPa) = 112.08607 115.55863 113.82235
# Shear Modulus (GPa) = 28.41359 38.02413 33.21886
#
# Velocity S-wave (km/s) = 3.67342 4.24950 3.97192
# Velocity P-wave (km/s) = 8.43940 8.88584 8.66549
#
# Compressibility (1/GPa) = 0.00892172
#
# Stress axis : x y z
#
# Youngs Moduli (GPa) = 121.55136 152.40335 154.17997
#
# Poissons Ratio (x) = 0.33316 0.27303
# Poissons Ratio (y) = 0.26572 0.34219
# Poissons Ratio (z) = 0.21525 0.33825
#
# Static dielectric constant tensor:
#      x y z
#    x 1.741600 0.000000 0.000000 
#    y 0.000000 1.800860 0.000000 
#    z 0.000000 0.000000 1.454480 
# 
# From -- ./inp_files/22555.got.cif
#   From: 2010.05.17/outbox.cif.g08.bks.cpg/sg60_12_cif.got.tgz:22555.got - 2010.06.03 14:59:27.
