data_PCOD9457568
_publ_section_title
;
Structure prediction by ZEFSAII (Michael W. Deem and Ramdas Pophale) SiO2 
 PCOD9457568
Probable space group: P B C N
;
_chemical_formula_sum "Si O2"
_cell_formula_units_Z 40
_cell_length_a 8.983580
_cell_length_b 17.087592
_cell_length_c 11.818096
_cell_angle_alpha 90.000000
_cell_angle_beta 90.000000
_cell_angle_gamma 90.000000
_cell_volume 1814.169323
_symmetry_space_group_name_H-M "P B C N"
_symmetry_group_IT_number 60
_symmetry_cell_setting 'orthorhombic'
loop_
_space_group_symop_operation_xyz
x,y,z
1/2-x,1/2-y,1/2+z
1/2+x,1/2-y,-z
-x,y,1/2-z
-x,-y,-z
1/2+x,1/2+y,1/2-z
1/2-x,1/2+y,z
x,-y,1/2+z
loop_
_atom_site_type_symbol
_atom_site_label
_atom_site_fract_x
_atom_site_fract_y
_atom_site_fract_z
Si Si1 0.230957 0.644461 0.565676
Si Si2 0.050018 0.908850 0.500314
Si Si3 0.346478 0.301638 0.688237
Si Si4 0.139057 0.603935 0.331732
Si Si5 0.826092 0.950547 0.218664
O O1 0.397894 0.639216 0.514950
O O2 0.196031 0.730896 0.607202
O O3 0.120222 0.616769 0.466075
O O4 0.241364 0.589040 0.676463
O O5 0.128387 0.879665 0.613277
O O6 0.158867 0.897465 0.393566
O O7 0.000000 0.000000 0.500000
O O8 0.500000 0.283179 0.750000
O O9 0.221669 0.320366 0.780477
O O10 0.247277 0.529906 0.317642
O O11 0.000000 0.590358 0.250000
O O12 0.000000 0.963054 0.250000
#
# Coordination Sequence:
#
# PCOD9457568 Si02
#       5
#     8   8   8   8   8
#     4  11  26  43  71 108 139 185 248 299 375 435
#     4  11  21  46  80 103 138 192 253 295 361 457
#     4  12  26  45  73  99 147 189 236 306 374 438
#     4  12  27  44  68 104 147 184 245 303 366 437
#     4  10  23  45  74  99 136 191 243 294 360 455
#
# _framework density 22.048658
#
# number of rings (size 3 to 8) (size 9 to 14) (size 15 to 20)
#    0.000    0.800    4.000    3.000    5.600    2.400 
#    0.000    0.000    0.000    0.000    0.000    0.000 
#    0.000    0.000    0.000    0.000    0.000    0.000 
#
# Total GULP energy -223734.630187 kJ/mol
# GULP energy per Si atom -5593.365755 kJ/mol
# Density = 2.199847 g / cm^3
# Si number density = 22.048658 Si / 1000 Ang^3
#
#
#
# Elastic Constant Matrix: (Units=GPa)
#
#
# Indices 1 2 3 4 5 6 
#
# 1 62.3751 20.2149 23.7613 0.0000 0.0000 0.0000
# 2 20.2149 97.5563 39.1555 0.0000 0.0000 0.0000
# 3 23.7613 39.1555 146.4832 0.0000 0.0000 0.0000
# 4 0.0000 0.0000 0.0000 42.8842 0.0000 0.0000
# 5 0.0000 0.0000 0.0000 0.0000 34.0222 0.0000
# 6 0.0000 0.0000 0.0000 0.0000 0.0000 18.0158
#
#
#
# Elastic Compliance Matrix: (Units=1/GPa)
#
#
# Indices 1 2 3 4 5 6 
#
# 1 0.017758 -0.002827 -0.002125 0.000000 0.000000 0.000000
# 2 -0.002827 0.011932 -0.002731 0.000000 0.000000 0.000000
# 3 -0.002125 -0.002731 0.007901 0.000000 0.000000 0.000000
# 4 0.000000 0.000000 0.000000 0.023319 0.000000 0.000000
# 5 0.000000 0.000000 0.000000 0.000000 0.029393 0.000000
# 6 0.000000 0.000000 0.000000 0.000000 0.000000 0.055507
#
#
# Mechanical properties :
#
#
# Convention : Reuss Voigt Hill
#
# Bulk Modulus (GPa) = 44.99224 52.51975 48.75599
# Shear Modulus (GPa) = 29.65891 33.86998 31.76445
#
# Velocity S-wave (km/s) = 3.67162 3.92362 3.79971
# Velocity P-wave (km/s) = 6.19875 6.66319 6.43516
#
# Compressibility (1/GPa) = 0.02222606
#
# Stress axis : x y z
#
# Youngs Moduli (GPa) = 56.31388 83.80568 126.55955
#
# Poissons Ratio (x) = 0.23690 0.26893
# Poissons Ratio (y) = 0.15918 0.34564
# Poissons Ratio (z) = 0.11966 0.22888
#
# Static dielectric constant tensor:
#      x y z
#    x 1.783400 0.000000 0.000000 
#    y 0.000000 1.788390 0.000000 
#    z 0.000000 0.000000 1.883390 
# 
# From -- ./inp_files/9769.got.cif
#   From: 2010.05.17/outbox.cif.g08.bks.cpg/sg60_5_cif.got.tgz:9769.got - 2010.06.03 14:59:27.
