data_PCOD9457335
_publ_section_title
;
Structure prediction by ZEFSAII (Michael W. Deem and Ramdas Pophale) SiO2 
 PCOD9457335
Probable space group: P B C N
;
_chemical_formula_sum "Si O2"
_cell_formula_units_Z 40
_cell_length_a 8.151723
_cell_length_b 24.361338
_cell_length_c 9.252978
_cell_angle_alpha 90.000000
_cell_angle_beta 90.000000
_cell_angle_gamma 90.000000
_cell_volume 1837.520025
_symmetry_space_group_name_H-M "P B C N"
_symmetry_group_IT_number 60
_symmetry_cell_setting 'orthorhombic'
loop_
_space_group_symop_operation_xyz
x,y,z
1/2-x,1/2-y,1/2+z
1/2+x,1/2-y,-z
-x,y,1/2-z
-x,-y,-z
1/2+x,1/2+y,1/2-z
1/2-x,1/2+y,z
x,-y,1/2+z
loop_
_atom_site_type_symbol
_atom_site_label
_atom_site_fract_x
_atom_site_fract_y
_atom_site_fract_z
Si Si1 0.169679 0.866859 0.490540
Si Si2 0.181177 0.415588 0.206779
Si Si3 0.803179 0.225976 0.279220
Si Si4 0.207255 0.825729 0.026780
Si Si5 0.616311 0.522473 0.374766
O O1 0.239325 0.877380 0.331267
O O2 0.230333 0.819245 0.596684
O O3 0.208923 0.925089 0.565250
O O4 0.975336 0.852108 0.479609
O O5 0.179158 0.377325 0.065457
O O6 0.283862 0.470690 0.183165
O O7 0.000000 0.431154 0.250000
O O8 0.724989 0.280434 0.347012
O O9 0.000000 0.234207 0.250000
O O10 0.745270 0.203705 0.123631
O O11 0.500000 0.544868 0.250000
O O12 0.500000 0.500000 0.500000
#
# Coordination Sequence:
#
# PCOD9457335 Si02
#       5
#     8   8   8   8   8
#     4  11  24  45  71  99 135 185 230 275 339 414
#     4  12  26  43  66  99 140 177 225 290 341 400
#     4  10  23  40  68 101 134 174 227 287 338 408
#     4  11  21  42  68  97 133 177 231 276 343 412
#     4  12  22  44  74 102 132 183 229 273 336 415
#
# _framework density 21.768471000000002
#
# number of rings (size 3 to 8) (size 9 to 14) (size 15 to 20)
#    0.000    0.800    4.000    4.200    0.000    4.000 
#    0.000    5.000    0.000    0.000    0.000    0.000 
#    0.000    0.000    0.000    0.000    0.000    0.000 
#
# Total GULP energy -223525.674677 kJ/mol
# GULP energy per Si atom -5588.141867 kJ/mol
# Density = 2.171892 g / cm^3
# Si number density = 21.768471 Si / 1000 Ang^3
#
#
#
# Elastic Constant Matrix: (Units=GPa)
#
#
# Indices 1 2 3 4 5 6 
#
# 1 46.7090 19.8106 30.1289 0.0000 0.0000 0.0000
# 2 19.8106 127.2461 58.6870 0.0000 0.0000 0.0000
# 3 30.1289 58.6870 100.8425 0.0000 0.0000 0.0000
# 4 0.0000 0.0000 0.0000 44.9696 0.0000 0.0000
# 5 0.0000 0.0000 0.0000 0.0000 22.1424 0.0000
# 6 0.0000 0.0000 0.0000 0.0000 0.0000 12.9986
#
#
#
# Elastic Compliance Matrix: (Units=1/GPa)
#
#
# Indices 1 2 3 4 5 6 
#
# 1 0.026559 -0.000650 -0.007557 0.000000 0.000000 0.000000
# 2 -0.000650 0.010758 -0.006067 0.000000 0.000000 0.000000
# 3 -0.007557 -0.006067 0.015705 0.000000 0.000000 0.000000
# 4 0.000000 0.000000 0.000000 0.022237 0.000000 0.000000
# 5 0.000000 0.000000 0.000000 0.000000 0.045162 0.000000
# 6 0.000000 0.000000 0.000000 0.000000 0.000000 0.076931
#
#
# Mechanical properties :
#
#
# Convention : Reuss Voigt Hill
#
# Bulk Modulus (GPa) = 40.85742 54.67229 47.76485
# Shear Modulus (GPa) = 21.36223 27.10020 24.23122
#
# Velocity S-wave (km/s) = 3.13603 3.53218 3.33999
# Velocity P-wave (km/s) = 5.65002 6.46568 6.07156
#
# Compressibility (1/GPa) = 0.02447536
#
# Stress axis : x y z
#
# Youngs Moduli (GPa) = 37.65170 92.95478 63.67427
#
# Poissons Ratio (x) = 0.06037 0.48120
# Poissons Ratio (y) = 0.02445 0.38629
# Poissons Ratio (z) = 0.28454 0.56393
#
# Static dielectric constant tensor:
#      x y z
#    x 1.786110 0.000000 0.000000 
#    y 0.000000 1.767120 0.000000 
#    z 0.000000 0.000000 1.829020 
# 
# From -- ./inp_files/3802.got.cif
#   From: 2010.05.17/outbox.cif.g08.bks.cpg/sg60_2_cif.got.tgz:3802.got - 2010.06.03 14:59:27.
