data_PCOD9457998
_publ_section_title
;
Structure prediction by ZEFSAII (Michael W. Deem and Ramdas Pophale) SiO2 
 PCOD9457998
Probable space group: P B C N
;
_chemical_formula_sum "Si O2"
_cell_formula_units_Z 40
_cell_length_a 10.607707
_cell_length_b 19.166749
_cell_length_c 8.258650
_cell_angle_alpha 90.000000
_cell_angle_beta 90.000000
_cell_angle_gamma 90.000000
_cell_volume 1679.109552
_symmetry_space_group_name_H-M "P B C N"
_symmetry_group_IT_number 60
_symmetry_cell_setting 'orthorhombic'
loop_
_space_group_symop_operation_xyz
x,y,z
1/2-x,1/2-y,1/2+z
1/2+x,1/2-y,-z
-x,y,1/2-z
-x,-y,-z
1/2+x,1/2+y,1/2-z
1/2-x,1/2+y,z
x,-y,1/2+z
loop_
_atom_site_type_symbol
_atom_site_label
_atom_site_fract_x
_atom_site_fract_y
_atom_site_fract_z
Si Si1 0.606108 0.058990 0.496681
Si Si2 0.000000 0.108930 0.250000
Si Si3 0.293157 0.796656 0.025971
Si Si4 0.500000 0.832728 0.250000
Si Si5 0.005519 0.198709 0.575592
Si Si6 0.763773 0.559461 0.161257
O O1 0.551095 0.121269 0.601644
O O2 0.645750 0.074003 0.314216
O O3 0.500000 0.000000 0.500000
O O4 0.715684 0.017157 0.589005
O O5 0.876352 0.064621 0.225250
O O6 0.982285 0.153724 0.414289
O O7 0.389705 0.753628 0.913058
O O8 0.282975 0.877064 0.965652
O O9 0.375967 0.793137 0.189661
O O10 0.148777 0.772532 0.048542
O O11 0.000000 0.160811 0.750000
#
# Coordination Sequence:
#
# PCOD9457998 Si02
#       6
#     8   4   8   4   8   8
#     4  12  22  41  67 104 131 171 233 285 340 426
#     4  10  27  50  68 100 146 186 237 288 352 430
#     4  11  27  45  70 102 139 189 229 296 352 417
#     4  12  25  40  70  98 138 180 231 286 358 410
#     4  11  28  48  71 104 142 187 244 287 352 427
#     4  11  24  45  70  99 141 179 229 293 355 413
#
# _framework density 23.822147999999999
#
# number of rings (size 3 to 8) (size 9 to 14) (size 15 to 20)
#    0.000    0.800    4.000    0.600   14.000    0.800 
#    0.000    0.000    0.000    0.000    0.000    0.000 
#    0.000    0.000    0.000    0.000    0.000    0.000 
#
# Total GULP energy -223623.078595 kJ/mol
# GULP energy per Si atom -5590.576965 kJ/mol
# Density = 2.376793 g / cm^3
# Si number density = 23.822148 Si / 1000 Ang^3
#
#
#
# Elastic Constant Matrix: (Units=GPa)
#
#
# Indices 1 2 3 4 5 6 
#
# 1 182.8607 23.6645 17.4346 0.0000 0.0000 0.0000
# 2 23.6645 23.2620 11.4187 0.0000 0.0000 0.0000
# 3 17.4346 11.4187 121.3789 0.0000 0.0000 0.0000
# 4 0.0000 0.0000 0.0000 18.7765 0.0000 0.0000
# 5 0.0000 0.0000 0.0000 0.0000 43.6667 0.0000
# 6 0.0000 0.0000 0.0000 0.0000 0.0000 31.3358
#
#
#
# Elastic Compliance Matrix: (Units=1/GPa)
#
#
# Indices 1 2 3 4 5 6 
#
# 1 0.006309 -0.006263 -0.000317 0.000000 0.000000 0.000000
# 2 -0.006263 0.051286 -0.003925 0.000000 0.000000 0.000000
# 3 -0.000317 -0.003925 0.008653 0.000000 0.000000 0.000000
# 4 0.000000 0.000000 0.000000 0.053258 0.000000 0.000000
# 5 0.000000 0.000000 0.000000 0.000000 0.022901 0.000000
# 6 0.000000 0.000000 0.000000 0.000000 0.000000 0.031912
#
#
# Mechanical properties :
#
#
# Convention : Reuss Voigt Hill
#
# Bulk Modulus (GPa) = 22.10478 48.05966 35.08222
# Shear Modulus (GPa) = 23.76308 37.08806 30.42557
#
# Velocity S-wave (km/s) = 3.16178 3.95000 3.57767
# Velocity P-wave (km/s) = 4.75693 6.40480 5.64136
#
# Compressibility (1/GPa) = 0.04523909
#
# Stress axis : x y z
#
# Youngs Moduli (GPa) = 158.49444 19.49831 115.56059
#
# Poissons Ratio (x) = 0.12212 0.03664
# Poissons Ratio (y) = 0.99263 0.45359
# Poissons Ratio (z) = 0.05026 0.07653
#
# Static dielectric constant tensor:
#      x y z
#    x 2.469120 0.000000 0.000000 
#    y 0.000000 1.930010 0.000000 
#    z 0.000000 0.000000 1.353870 
# 
# From -- ./inp_files/3928.got.cif
#   From: 2010.05.17/outbox.cif.g08.bks.cpg/sg60_2_cif.got.tgz:3928.got - 2010.06.03 14:59:27.
