data_PCOD9457946
_publ_section_title
;
Structure prediction by ZEFSAII (Michael W. Deem and Ramdas Pophale) SiO2 
 PCOD9457946
Probable space group: P B C N
;
_chemical_formula_sum "Si O2"
_cell_formula_units_Z 36
_cell_length_a 14.216114
_cell_length_b 5.212516
_cell_length_c 19.685851
_cell_angle_alpha 90.000000
_cell_angle_beta 90.000000
_cell_angle_gamma 90.000000
_cell_volume 1458.755452
_symmetry_space_group_name_H-M "P B C N"
_symmetry_group_IT_number 60
_symmetry_cell_setting 'orthorhombic'
loop_
_space_group_symop_operation_xyz
x,y,z
1/2-x,1/2-y,1/2+z
1/2+x,1/2-y,-z
-x,y,1/2-z
-x,-y,-z
1/2+x,1/2+y,1/2-z
1/2-x,1/2+y,z
x,-y,1/2+z
loop_
_atom_site_type_symbol
_atom_site_label
_atom_site_fract_x
_atom_site_fract_y
_atom_site_fract_z
Si Si1 0.000000 0.548116 0.750000
Si Si2 0.633677 0.199640 0.416915
Si Si3 0.194438 0.706180 0.237579
Si Si4 0.696588 0.721091 0.062866
Si Si5 0.481315 0.292468 0.606120
O O1 0.091431 0.372936 0.764349
O O2 0.975882 0.723315 0.814296
O O3 0.686060 0.193474 0.344787
O O4 0.696804 0.268905 0.480829
O O5 0.557485 0.426967 0.409586
O O6 0.581870 0.928492 0.428502
O O7 0.268997 0.486049 0.256760
O O8 0.746727 0.466132 0.087446
O O9 0.588490 0.730028 0.083769
#
# Coordination Sequence:
#
# PCOD9457946 Si02
#       5
#     4   8   8   8   8
#     4  10  26  44  66  96 136 178 222 272 322 390
#     4  11  22  42  66  93 126 168 221 271 326 392
#     4  11  23  40  65  94 126 170 220 269 322 384
#     4  12  24  40  65  97 131 163 209 274 337 397
#     4  11  24  42  65  92 129 176 218 264 328 394
#
# _framework density 24.678571999999999
#
# number of rings (size 3 to 8) (size 9 to 14) (size 15 to 20)
#    0.000    0.889    0.000    8.000    0.000    9.778 
#    0.000    0.000    0.000    0.000    0.000    0.000 
#    0.000    0.000    0.000    0.000    0.000    0.000 
#
# Total GULP energy -202140.222748 kJ/mol
# GULP energy per Si atom -5615.006187 kJ/mol
# Density = 2.462240 g / cm^3
# Si number density = 24.678572 Si / 1000 Ang^3
#
#
#
# Elastic Constant Matrix: (Units=GPa)
#
#
# Indices 1 2 3 4 5 6 
#
# 1 108.1861 42.0410 7.9463 0.0000 0.0000 0.0000
# 2 42.0410 100.6426 5.4285 0.0000 0.0000 0.0000
# 3 7.9463 5.4285 77.4764 0.0000 0.0000 0.0000
# 4 0.0000 0.0000 0.0000 24.9251 0.0000 0.0000
# 5 0.0000 0.0000 0.0000 0.0000 40.7317 0.0000
# 6 0.0000 0.0000 0.0000 0.0000 0.0000 55.9053
#
#
#
# Elastic Compliance Matrix: (Units=1/GPa)
#
#
# Indices 1 2 3 4 5 6 
#
# 1 0.011086 -0.004587 -0.000816 0.000000 0.000000 0.000000
# 2 -0.004587 0.011872 -0.000361 0.000000 0.000000 0.000000
# 3 -0.000816 -0.000361 0.013016 0.000000 0.000000 0.000000
# 4 0.000000 0.000000 0.000000 0.040120 0.000000 0.000000
# 5 0.000000 0.000000 0.000000 0.000000 0.024551 0.000000
# 6 0.000000 0.000000 0.000000 0.000000 0.000000 0.017887
#
#
# Mechanical properties :
#
#
# Convention : Reuss Voigt Hill
#
# Bulk Modulus (GPa) = 40.90660 44.12631 42.51645
# Shear Modulus (GPa) = 36.17733 39.70503 37.94118
#
# Velocity S-wave (km/s) = 3.83291 4.01544 3.92524
# Velocity P-wave (km/s) = 6.01665 6.27835 6.14889
#
# Compressibility (1/GPa) = 0.02444594
#
# Stress axis : x y z
#
# Youngs Moduli (GPa) = 90.20663 84.23425 76.82771
#
# Poissons Ratio (x) = 0.38636 0.06266
# Poissons Ratio (y) = 0.41376 0.02776
# Poissons Ratio (z) = 0.07357 0.03044
#
# Static dielectric constant tensor:
#      x y z
#    x 1.897280 0.000000 0.000000 
#    y 0.000000 1.902290 0.000000 
#    z 0.000000 0.000000 1.991950 
# 
# From -- ./inp_files/22773.got.cif
#   From: 2010.05.17/outbox.cif.g08.bks.cpg/sg60_12_cif.got.tgz:22773.got - 2010.06.03 14:59:27.
