data_PCOD9457253
_publ_section_title
;
Structure prediction by ZEFSAII (Michael W. Deem and Ramdas Pophale) SiO2 
 PCOD9457253
Probable space group: P B C N
;
_chemical_formula_sum "Si O2"
_cell_formula_units_Z 40
_cell_length_a 9.802731
_cell_length_b 10.585707
_cell_length_c 17.606762
_cell_angle_alpha 90.000000
_cell_angle_beta 90.000000
_cell_angle_gamma 90.000000
_cell_volume 1827.033237
_symmetry_space_group_name_H-M "P B C N"
_symmetry_group_IT_number 60
_symmetry_cell_setting 'orthorhombic'
loop_
_space_group_symop_operation_xyz
x,y,z
1/2-x,1/2-y,1/2+z
1/2+x,1/2-y,-z
-x,y,1/2-z
-x,-y,-z
1/2+x,1/2+y,1/2-z
1/2-x,1/2+y,z
x,-y,1/2+z
loop_
_atom_site_type_symbol
_atom_site_label
_atom_site_fract_x
_atom_site_fract_y
_atom_site_fract_z
Si Si1 0.354219 0.493404 0.340016
Si Si2 0.741427 0.132280 0.383660
Si Si3 0.651635 0.614113 0.824381
Si Si4 0.023696 0.747272 0.830394
Si Si5 0.868801 0.431716 0.039723
O O1 0.319054 0.413239 0.264465
O O2 0.505097 0.436200 0.354960
O O3 0.374652 0.637105 0.312897
O O4 0.251145 0.499821 0.410994
O O5 0.651095 0.236870 0.340666
O O6 0.705976 0.140777 0.471783
O O7 0.888720 0.186094 0.362037
O O8 0.740756 0.982584 0.364146
O O9 0.074914 0.660043 0.896324
O O10 0.000000 0.680402 0.750000
O O11 0.000000 0.500000 0.000000
#
# Coordination Sequence:
#
# PCOD9457253 Si02
#       5
#     8   8   8   8   8
#     4  10  23  45  72  99 139 199 246 288 368 441
#     4  11  24  43  71 103 143 181 240 296 369 425
#     4  10  22  46  73 103 138 195 245 300 354 442
#     4  11  23  47  72  97 141 195 242 301 361 441
#     4  12  29  42  68 109 150 186 241 306 375 434
#
# _framework density 21.893419000000002
#
# number of rings (size 3 to 8) (size 9 to 14) (size 15 to 20)
#    0.000    1.200    4.000    2.400    8.400    1.600 
#    3.600    0.000    0.000    0.000    0.000    0.000 
#    0.000    0.000    0.000    0.000    0.000    0.000 
#
# Total GULP energy -222852.654531 kJ/mol
# GULP energy per Si atom -5571.316363 kJ/mol
# Density = 2.184359 g / cm^3
# Si number density = 21.893419 Si / 1000 Ang^3
#
#
#
# Elastic Constant Matrix: (Units=GPa)
#
#
# Indices 1 2 3 4 5 6 
#
# 1 76.0928 30.2672 47.9095 0.0000 0.0000 0.0000
# 2 30.2672 25.7404 30.3809 0.0000 0.0000 0.0000
# 3 47.9095 30.3809 174.9933 0.0000 0.0000 0.0000
# 4 0.0000 0.0000 0.0000 41.4743 0.0000 0.0000
# 5 0.0000 0.0000 0.0000 0.0000 44.9773 0.0000
# 6 0.0000 0.0000 0.0000 0.0000 0.0000 58.1786
#
#
#
# Elastic Compliance Matrix: (Units=1/GPa)
#
#
# Indices 1 2 3 4 5 6 
#
# 1 0.025358 -0.027196 -0.002221 0.000000 0.000000 0.000000
# 2 -0.027196 0.078030 -0.006101 0.000000 0.000000 0.000000
# 3 -0.002221 -0.006101 0.007382 0.000000 0.000000 0.000000
# 4 0.000000 0.000000 0.000000 0.024111 0.000000 0.000000
# 5 0.000000 0.000000 0.000000 0.000000 0.022233 0.000000
# 6 0.000000 0.000000 0.000000 0.000000 0.000000 0.017188
#
#
# Mechanical properties :
#
#
# Convention : Reuss Voigt Hill
#
# Bulk Modulus (GPa) = 25.16808 54.88239 40.02524
# Shear Modulus (GPa) = 19.33612 40.14398 29.74005
#
# Velocity S-wave (km/s) = 2.97508 4.28671 3.68965
# Velocity P-wave (km/s) = 4.82930 7.04440 6.03928
#
# Compressibility (1/GPa) = 0.03973286
#
# Stress axis : x y z
#
# Youngs Moduli (GPa) = 39.43531 12.81563 135.46914
#
# Poissons Ratio (x) = 0.34854 0.30086
# Poissons Ratio (y) = 1.07250 0.82651
# Poissons Ratio (z) = 0.08758 0.07819
#
# Static dielectric constant tensor:
#      x y z
#    x 1.922710 0.000000 0.000000 
#    y 0.000000 1.857400 0.000000 
#    z 0.000000 0.000000 1.803050 
# 
# From -- ./inp_files/19042.got.cif
#   From: 2010.05.17/outbox.cif.g08.bks.cpg/sg60_10_cif.got.tgz:19042.got - 2010.06.03 14:59:27.
