data_PCOD9457758
_publ_section_title
;
Structure prediction by ZEFSAII (Michael W. Deem and Ramdas Pophale) SiO2 
 PCOD9457758
Probable space group: P B C N
;
_chemical_formula_sum "Si O2"
_cell_formula_units_Z 60
_cell_length_a 12.013680
_cell_length_b 9.116885
_cell_length_c 25.493569
_cell_angle_alpha 90.000000
_cell_angle_beta 90.000000
_cell_angle_gamma 90.000000
_cell_volume 2792.242774
_symmetry_space_group_name_H-M "P B C N"
_symmetry_group_IT_number 60
_symmetry_cell_setting 'orthorhombic'
loop_
_space_group_symop_operation_xyz
x,y,z
1/2-x,1/2-y,1/2+z
1/2+x,1/2-y,-z
-x,y,1/2-z
-x,-y,-z
1/2+x,1/2+y,1/2-z
1/2-x,1/2+y,z
x,-y,1/2+z
loop_
_atom_site_type_symbol
_atom_site_label
_atom_site_fract_x
_atom_site_fract_y
_atom_site_fract_z
Si Si1 0.263523 0.935775 0.491371
Si Si2 0.842078 0.119719 0.173605
Si Si3 0.623887 0.799964 0.452344
Si Si4 0.659812 0.930936 0.339086
Si Si5 0.371486 0.714153 0.807480
Si Si6 0.624158 0.254039 0.315726
Si Si7 0.000000 0.697179 0.750000
Si Si8 0.390679 0.320177 0.941638
O O1 0.216297 0.823230 0.534825
O O2 0.314812 0.825695 0.448360
O O3 0.350214 0.053136 0.514657
O O4 0.167317 0.040509 0.468590
O O5 0.719263 0.185132 0.164990
O O6 0.911026 0.205076 0.218090
O O7 0.905338 0.138774 0.118953
O O8 0.831193 0.952411 0.190412
O O9 0.623383 0.850013 0.392063
O O10 0.507295 0.725793 0.466521
O O11 0.784896 0.877482 0.327191
O O12 0.573268 0.892288 0.292251
O O13 0.659561 0.105197 0.343738
O O14 0.374134 0.766077 0.747188
O O15 0.496245 0.714450 0.829766
#
# Coordination Sequence:
#
# PCOD9457758 Si02
#       8
#     8   8   8   8   8   8   4   8
#     4  10  24  44  68  98 132 168 228 286 332 398
#     4  12  25  42  68  99 136 182 224 271 336 405
#     4  11  23  44  69  99 132 175 220 280 343 397
#     4  12  25  42  68  99 136 182 224 271 336 405
#     4  11  25  42  63  93 136 180 228 271 325 391
#     4  11  25  42  63  93 136 180 228 271 325 391
#     4  12  24  40  68  96 144 176 222 274 324 398
#     4  11  23  44  69  99 132 175 220 280 343 397
#
# _framework density 21.488105000000001
#
# number of rings (size 3 to 8) (size 9 to 14) (size 15 to 20)
#    0.000    0.800    2.667    4.800    3.733    2.133 
#    0.000    6.667    0.000    0.000    0.000    0.000 
#    0.000    0.000    0.000    0.000    0.000    0.000 
#
# Total GULP energy -335578.067531 kJ/mol
# GULP energy per Si atom -5592.967792 kJ/mol
# Density = 2.143920 g / cm^3
# Si number density = 21.488105 Si / 1000 Ang^3
#
#
#
# Elastic Constant Matrix: (Units=GPa)
#
#
# Indices 1 2 3 4 5 6 
#
# 1 78.6169 5.9383 -24.4689 0.0000 0.0000 0.0000
# 2 5.9383 76.5682 -1.3277 0.0000 0.0000 0.0000
# 3 -24.4689 -1.3277 57.7163 0.0000 0.0000 0.0000
# 4 0.0000 0.0000 0.0000 20.9632 0.0000 0.0000
# 5 0.0000 0.0000 0.0000 0.0000 21.7427 0.0000
# 6 0.0000 0.0000 0.0000 0.0000 0.0000 35.5801
#
#
#
# Elastic Compliance Matrix: (Units=1/GPa)
#
#
# Indices 1 2 3 4 5 6 
#
# 1 0.014735 -0.001035 0.006223 0.000000 0.000000 0.000000
# 2 -0.001035 0.013138 -0.000137 0.000000 0.000000 0.000000
# 3 0.006223 -0.000137 0.019961 0.000000 0.000000 0.000000
# 4 0.000000 0.000000 0.000000 0.047703 0.000000 0.000000
# 5 0.000000 0.000000 0.000000 0.000000 0.045992 0.000000
# 6 0.000000 0.000000 0.000000 0.000000 0.000000 0.028106
#
#
# Mechanical properties :
#
#
# Convention : Reuss Voigt Hill
#
# Bulk Modulus (GPa) = 17.25989 19.24277 18.25133
# Shear Modulus (GPa) = 27.95729 31.17452 29.56591
#
# Velocity S-wave (km/s) = 3.61093 3.81304 3.71336
# Velocity P-wave (km/s) = 5.04330 5.32543 5.18628
#
# Compressibility (1/GPa) = 0.05793780
#
# Stress axis : x y z
#
# Youngs Moduli (GPa) = 67.86578 76.11424 50.09702
#
# Poissons Ratio (x) = 0.07877 -0.31176
# Poissons Ratio (y) = 0.07023 0.00684
# Poissons Ratio (z) = -0.42234 0.01039
#
# Static dielectric constant tensor:
#      x y z
#    x 1.797290 0.000000 0.000000 
#    y 0.000000 1.734900 0.000000 
#    z 0.000000 0.000000 1.836510 
# 
# From -- ./inp_files/25335.got.cif
#   From: 2010.05.17/outbox.cif.g08.bks.cpg/sg60_13_cif.got.tgz:25335.got - 2010.06.03 14:59:27.
