data_PCOD9457247
_publ_section_title
;
Structure prediction by ZEFSAII (Michael W. Deem and Ramdas Pophale) SiO2 
 PCOD9457247
Probable space group: P B C N
;
_chemical_formula_sum "Si O2"
_cell_formula_units_Z 60
_cell_length_a 4.967752
_cell_length_b 16.136913
_cell_length_c 29.996858
_cell_angle_alpha 90.000000
_cell_angle_beta 90.000000
_cell_angle_gamma 90.000000
_cell_volume 2404.673579
_symmetry_space_group_name_H-M "P B C N"
_symmetry_group_IT_number 60
_symmetry_cell_setting 'orthorhombic'
loop_
_space_group_symop_operation_xyz
x,y,z
1/2-x,1/2-y,1/2+z
1/2+x,1/2-y,-z
-x,y,1/2-z
-x,-y,-z
1/2+x,1/2+y,1/2-z
1/2-x,1/2+y,z
x,-y,1/2+z
loop_
_atom_site_type_symbol
_atom_site_label
_atom_site_fract_x
_atom_site_fract_y
_atom_site_fract_z
Si Si1 0.604539 0.029093 0.077579
Si Si2 0.731954 0.102517 0.340024
Si Si3 0.600993 0.467085 0.205839
Si Si4 0.156991 0.123481 0.877371
Si Si5 0.999595 0.759618 0.028133
Si Si6 0.656069 0.760449 0.389390
Si Si7 0.000000 0.598727 0.250000
Si Si8 0.210477 0.068772 0.512496
O O1 0.827922 0.964858 0.096171
O O2 0.417431 0.969036 0.047402
O O3 0.469846 0.070989 0.120794
O O4 0.681158 0.092840 0.037295
O O5 0.903246 0.177535 0.361000
O O6 0.613282 0.141983 0.294183
O O7 0.882314 0.019825 0.322561
O O8 0.500000 0.420905 0.250000
O O9 0.744113 0.405912 0.172003
O O10 0.783871 0.538365 0.227097
O O11 0.379945 0.188531 0.895103
O O12 0.874759 0.172044 0.871500
O O13 0.173517 0.723521 0.068742
O O14 0.063978 0.856036 0.034985
O O15 0.188060 0.740747 0.985232
O O16 0.000000 0.000000 0.500000
#
# Coordination Sequence:
#
# PCOD9457247 Si02
#       8
#     8   8   8   8   8   8   4   8
#     4  11  24  44  73 101 138 192 246 296 355 429
#     4  11  25  46  74 104 139 194 239 295 367 436
#     4  10  24  45  76 104 139 185 243 293 361 448
#     4  12  25  48  72 108 143 187 235 307 364 437
#     4  12  27  46  68 100 148 192 235 293 362 424
#     4  12  28  45  71 107 152 186 239 298 373 431
#     4  10  22  46  72 104 136 178 252 298 348 440
#     4  11  26  42  70 104 141 186 249 301 346 429
#
# _framework density 24.951412999999999
#
# number of rings (size 3 to 8) (size 9 to 14) (size 15 to 20)
#    0.000    0.800    2.667    3.200   11.200    0.000 
#    1.200    0.000    0.000    0.000    0.000    0.000 
#    0.000    0.000    0.000    0.000    0.000    0.000 
#
# Total GULP energy -334797.606725 kJ/mol
# GULP energy per Si atom -5579.960112 kJ/mol
# Density = 2.489462 g / cm^3
# Si number density = 24.951413 Si / 1000 Ang^3
#
#
#
# Elastic Constant Matrix: (Units=GPa)
#
#
# Indices 1 2 3 4 5 6 
#
# 1 59.5193 -16.3587 4.8464 0.0000 0.0000 0.0000
# 2 -16.3587 35.3612 15.9969 0.0000 0.0000 0.0000
# 3 4.8464 15.9969 156.9188 0.0000 0.0000 0.0000
# 4 0.0000 0.0000 0.0000 28.5358 0.0000 0.0000
# 5 0.0000 0.0000 0.0000 0.0000 40.6973 0.0000
# 6 0.0000 0.0000 0.0000 0.0000 0.0000 35.2724
#
#
#
# Elastic Compliance Matrix: (Units=1/GPa)
#
#
# Indices 1 2 3 4 5 6 
#
# 1 0.019627 0.009806 -0.001606 0.000000 0.000000 0.000000
# 2 0.009806 0.034546 -0.003825 0.000000 0.000000 0.000000
# 3 -0.001606 -0.003825 0.006812 0.000000 0.000000 0.000000
# 4 0.000000 0.000000 0.000000 0.035044 0.000000 0.000000
# 5 0.000000 0.000000 0.000000 0.000000 0.024572 0.000000
# 6 0.000000 0.000000 0.000000 0.000000 0.000000 0.028351
#
#
# Mechanical properties :
#
#
# Convention : Reuss Voigt Hill
#
# Bulk Modulus (GPa) = 14.33945 28.97427 21.65686
# Shear Modulus (GPa) = 30.59110 37.38875 33.98993
#
# Velocity S-wave (km/s) = 3.50527 3.87520 3.69486
# Velocity P-wave (km/s) = 4.70552 5.62675 5.18663
#
# Compressibility (1/GPa) = 0.06973770
#
# Stress axis : x y z
#
# Youngs Moduli (GPa) = 50.94943 28.94657 146.79507
#
# Poissons Ratio (x) = -0.28386 0.23574
# Poissons Ratio (y) = -0.49963 0.56144
# Poissons Ratio (z) = 0.08182 0.11071
#
# Static dielectric constant tensor:
#      x y z
#    x 2.061230 0.000000 0.000000 
#    y 0.000000 1.967440 0.000000 
#    z 0.000000 0.000000 2.054510 
# 
# From -- ./inp_files/24993.got.cif
#   From: 2010.05.17/outbox.cif.g08.bks.cpg/sg60_13_cif.got.tgz:24993.got - 2010.06.03 14:59:27.
