data_PCOD9457113
_publ_section_title
;
Structure prediction by ZEFSAII (Michael W. Deem and Ramdas Pophale) SiO2 
 PCOD9457113
Probable space group: P B C N
;
_chemical_formula_sum "Si O2"
_cell_formula_units_Z 32
_cell_length_a 13.915561
_cell_length_b 8.745654
_cell_length_c 9.096363
_cell_angle_alpha 90.000000
_cell_angle_beta 90.000000
_cell_angle_gamma 90.000000
_cell_volume 1107.033578
_symmetry_space_group_name_H-M "P B C N"
_symmetry_group_IT_number 60
_symmetry_cell_setting 'orthorhombic'
loop_
_space_group_symop_operation_xyz
x,y,z
1/2-x,1/2-y,1/2+z
1/2+x,1/2-y,-z
-x,y,1/2-z
-x,-y,-z
1/2+x,1/2+y,1/2-z
1/2-x,1/2+y,z
x,-y,1/2+z
loop_
_atom_site_type_symbol
_atom_site_label
_atom_site_fract_x
_atom_site_fract_y
_atom_site_fract_z
Si Si1 0.667455 0.546003 0.352479
Si Si2 0.209185 0.435614 0.911606
Si Si3 0.463494 0.794174 0.091951
Si Si4 0.095448 0.714504 0.169058
O O1 0.743178 0.568805 0.488008
O O2 0.697516 0.610461 0.191505
O O3 0.565504 0.615554 0.396598
O O4 0.663432 0.361900 0.340664
O O5 0.138448 0.418500 0.770413
O O6 0.138129 0.354251 0.028473
O O7 0.500000 0.841532 0.250000
O O8 0.550819 0.834359 0.984773
O O9 0.000000 0.774019 0.250000
#
# Coordination Sequence:
#
# PCOD9457113 Si02
#       4
#     8   8   8   8
#     4  12  23  43  72 101 133 181 228 279 339 405
#     4  11  25  41  67 102 138 175 228 283 337 400
#     4  11  24  45  71 101 137 179 227 285 340 402
#     4  10  22  43  66  98 133 173 224 279 337 403
#
# _framework density 28.906082000000001
#
# number of rings (size 3 to 8) (size 9 to 14) (size 15 to 20)
#    0.000    1.000    0.000    7.500    0.000    2.000 
#    0.000   16.250    0.000    0.000    0.000    0.000 
#    0.000    0.000    0.000    0.000    0.000    0.000 
#
# Total GULP energy -178552.598634 kJ/mol
# GULP energy per Si atom -5579.768707 kJ/mol
# Density = 2.884029 g / cm^3
# Si number density = 28.906082 Si / 1000 Ang^3
#
#
#
# Elastic Constant Matrix: (Units=GPa)
#
#
# Indices 1 2 3 4 5 6 
#
# 1 131.3242 38.0046 67.4111 0.0000 0.0000 0.0000
# 2 38.0046 100.3153 40.9093 0.0000 0.0000 0.0000
# 3 67.4111 40.9093 205.5524 0.0000 0.0000 0.0000
# 4 0.0000 0.0000 0.0000 28.8359 0.0000 0.0000
# 5 0.0000 0.0000 0.0000 0.0000 60.7548 0.0000
# 6 0.0000 0.0000 0.0000 0.0000 0.0000 60.7210
#
#
#
# Elastic Compliance Matrix: (Units=1/GPa)
#
#
# Indices 1 2 3 4 5 6 
#
# 1 0.009741 -0.002599 -0.002677 0.000000 0.000000 0.000000
# 2 -0.002599 0.011542 -0.001445 0.000000 0.000000 0.000000
# 3 -0.002677 -0.001445 0.006031 0.000000 0.000000 0.000000
# 4 0.000000 0.000000 0.000000 0.034679 0.000000 0.000000
# 5 0.000000 0.000000 0.000000 0.000000 0.016460 0.000000
# 6 0.000000 0.000000 0.000000 0.000000 0.000000 0.016469
#
#
# Mechanical properties :
#
#
# Convention : Reuss Voigt Hill
#
# Bulk Modulus (GPa) = 72.08718 81.09352 76.59035
# Shear Modulus (GPa) = 44.25276 49.45349 46.85312
#
# Velocity S-wave (km/s) = 3.91694 4.14071 4.03038
# Velocity P-wave (km/s) = 6.74159 7.13972 6.94351
#
# Compressibility (1/GPa) = 0.01387209
#
# Stress axis : x y z
#
# Youngs Moduli (GPa) = 102.65749 86.63784 165.82133
#
# Poissons Ratio (x) = 0.22513 0.44398
# Poissons Ratio (y) = 0.26676 0.23961
# Poissons Ratio (z) = 0.27486 0.12519
#
# Static dielectric constant tensor:
#      x y z
#    x 2.324380 0.000000 0.000000 
#    y 0.000000 2.263840 0.000000 
#    z 0.000000 0.000000 2.253490 
# 
# From -- ./inp_files/5470.got.cif
#   From: 2010.05.17/outbox.cif.g08.bks.cpg/sg60_3_cif.got.tgz:5470.got - 2010.06.03 14:59:27.
