data_PCOD9457365
_publ_section_title
;
Structure prediction by ZEFSAII (Michael W. Deem and Ramdas Pophale) SiO2 
 PCOD9457365
Probable space group: P B C N
;
_chemical_formula_sum "Si O2"
_cell_formula_units_Z 52
_cell_length_a 8.155230
_cell_length_b 15.219139
_cell_length_c 18.426208
_cell_angle_alpha 90.000000
_cell_angle_beta 90.000000
_cell_angle_gamma 90.000000
_cell_volume 2286.979474
_symmetry_space_group_name_H-M "P B C N"
_symmetry_group_IT_number 60
_symmetry_cell_setting 'orthorhombic'
loop_
_space_group_symop_operation_xyz
x,y,z
1/2-x,1/2-y,1/2+z
1/2+x,1/2-y,-z
-x,y,1/2-z
-x,-y,-z
1/2+x,1/2+y,1/2-z
1/2-x,1/2+y,z
x,-y,1/2+z
loop_
_atom_site_type_symbol
_atom_site_label
_atom_site_fract_x
_atom_site_fract_y
_atom_site_fract_z
Si Si1 0.270521 0.229694 0.533445
Si Si2 0.730001 0.498509 0.785923
Si Si3 0.243811 0.538287 0.492296
Si Si4 0.422875 0.034526 0.355335
Si Si5 0.424884 0.240771 0.388357
Si Si6 0.500000 0.651173 0.750000
Si Si7 0.928639 0.899871 0.908476
O O1 0.316435 0.126700 0.532055
O O2 0.284920 0.256983 0.448367
O O3 0.383169 0.299111 0.576258
O O4 0.091690 0.236363 0.568659
O O5 0.779065 0.481665 0.702647
O O6 0.632295 0.589019 0.788667
O O7 0.615202 0.427197 0.826272
O O8 0.905942 0.499279 0.824759
O O9 0.119217 0.498660 0.434288
O O10 0.395321 0.573791 0.441435
O O11 0.308216 0.463371 0.545033
O O12 0.435222 0.139064 0.366817
O O13 0.415919 0.293380 0.313644
#
# Coordination Sequence:
#
# PCOD9457365 Si02
#       7
#     8   8   8   8   8   4   8
#     4  11  22  42  68 101 133 180 234 288 343 422
#     4  11  23  40  64  97 126 178 225 275 348 419
#     4  10  23  41  66  98 133 175 231 285 353 410
#     4  10  23  44  65  91 137 173 223 288 347 415
#     4  11  24  46  69  97 139 186 229 289 355 417
#     4  12  26  44  72  96 140 186 232 288 354 432
#     4  11  22  40  69  96 134 182 231 284 347 431
#
# _framework density 22.737414000000001
#
# number of rings (size 3 to 8) (size 9 to 14) (size 15 to 20)
#    0.000    1.231    3.077    2.769    4.308    0.615 
#    2.769    0.000    0.000    1.846    0.000    0.000 
#    0.000    0.000    0.000    0.000    0.000    0.000 
#
# Total GULP energy -290845.436124 kJ/mol
# GULP energy per Si atom -5593.181464 kJ/mol
# Density = 2.268566 g / cm^3
# Si number density = 22.737414 Si / 1000 Ang^3
#
#
#
# Elastic Constant Matrix: (Units=GPa)
#
#
# Indices 1 2 3 4 5 6 
#
# 1 50.7137 29.5640 18.2510 0.0000 0.0000 0.0000
# 2 29.5640 66.8261 29.7949 0.0000 0.0000 0.0000
# 3 18.2510 29.7949 93.9479 0.0000 0.0000 0.0000
# 4 0.0000 0.0000 0.0000 42.9156 0.0000 0.0000
# 5 0.0000 0.0000 0.0000 0.0000 56.8395 0.0000
# 6 0.0000 0.0000 0.0000 0.0000 0.0000 31.2484
#
#
#
# Elastic Compliance Matrix: (Units=1/GPa)
#
#
# Indices 1 2 3 4 5 6 
#
# 1 0.026798 -0.011105 -0.001684 0.000000 0.000000 0.000000
# 2 -0.011105 0.022030 -0.004829 0.000000 0.000000 0.000000
# 3 -0.001684 -0.004829 0.012503 0.000000 0.000000 0.000000
# 4 0.000000 0.000000 0.000000 0.023302 0.000000 0.000000
# 5 0.000000 0.000000 0.000000 0.000000 0.017593 0.000000
# 6 0.000000 0.000000 0.000000 0.000000 0.000000 0.032002
#
#
# Mechanical properties :
#
#
# Convention : Reuss Voigt Hill
#
# Bulk Modulus (GPa) = 38.32191 40.74526 39.53358
# Shear Modulus (GPa) = 28.06421 35.12591 31.59506
#
# Velocity S-wave (km/s) = 3.51704 3.93472 3.73173
# Velocity P-wave (km/s) = 5.77784 6.21301 5.99937
#
# Compressibility (1/GPa) = 0.02609474
#
# Stress axis : x y z
#
# Youngs Moduli (GPa) = 37.31589 45.39231 79.98072
#
# Poissons Ratio (x) = 0.50407 0.13471
# Poissons Ratio (y) = 0.41438 0.38626
# Poissons Ratio (z) = 0.06285 0.21922
#
# Static dielectric constant tensor:
#      x y z
#    x 1.897830 0.000000 0.000000 
#    y 0.000000 1.805470 0.000000 
#    z 0.000000 0.000000 1.872160 
# 
# From -- ./inp_files/22145.got.cif
#   From: 2010.05.17/outbox.cif.g08.bks.cpg/sg60_12_cif.got.tgz:22145.got - 2010.06.03 14:59:27.
