data_PCOD9457526
_publ_section_title
;
Structure prediction by ZEFSAII (Michael W. Deem and Ramdas Pophale) SiO2 
 PCOD9457526
Probable space group: P B C N
;
_chemical_formula_sum "Si O2"
_cell_formula_units_Z 40
_cell_length_a 9.977707
_cell_length_b 10.697580
_cell_length_c 15.539076
_cell_angle_alpha 90.000000
_cell_angle_beta 90.000000
_cell_angle_gamma 90.000000
_cell_volume 1658.599310
_symmetry_space_group_name_H-M "P B C N"
_symmetry_group_IT_number 60
_symmetry_cell_setting 'orthorhombic'
loop_
_space_group_symop_operation_xyz
x,y,z
1/2-x,1/2-y,1/2+z
1/2+x,1/2-y,-z
-x,y,1/2-z
-x,-y,-z
1/2+x,1/2+y,1/2-z
1/2-x,1/2+y,z
x,-y,1/2+z
loop_
_atom_site_type_symbol
_atom_site_label
_atom_site_fract_x
_atom_site_fract_y
_atom_site_fract_z
Si Si1 0.221859 0.502340 0.890563
Si Si2 0.954737 0.379761 0.407758
Si Si3 0.784546 0.985710 0.299912
Si Si4 0.500000 0.301301 0.750000
Si Si5 0.858632 0.258257 0.577639
Si Si6 0.500000 0.281684 0.250000
O O1 0.204732 0.511834 0.788790
O O2 0.260629 0.361410 0.915505
O O3 0.319505 0.613506 0.917731
O O4 0.078449 0.531157 0.930356
O O5 0.822519 0.456971 0.375119
O O6 0.010026 0.292824 0.330255
O O7 0.923949 0.288940 0.487106
O O8 0.884088 0.868280 0.290640
O O9 0.880753 0.107029 0.285841
O O10 0.941713 0.285044 0.665546
#
# Coordination Sequence:
#
# PCOD9457526 Si02
#       6
#     8   8   8   4   8   4
#     4  11  24  48  65 108 139 195 243 312 370 452
#     4  12  25  43  73 108 143 194 252 307 377 443
#     4  10  23  44  71 100 148 196 238 308 371 449
#     4  11  24  45  72 106 148 194 250 304 380 448
#     4  11  27  44  76 100 151 186 254 309 378 446
#     4   9  24  47  66 104 144 194 240 298 382 442
#
# _framework density 24.116736
#
# number of rings (size 3 to 8) (size 9 to 14) (size 15 to 20)
#    0.000    1.200    2.000    1.800   11.200    0.000 
#    0.000    4.000    0.000    0.000    0.000    0.000 
#    0.000    0.000    0.000    0.000    0.000    0.000 
#
# Total GULP energy -223229.535433 kJ/mol
# GULP energy per Si atom -5580.738386 kJ/mol
# Density = 2.406185 g / cm^3
# Si number density = 24.116736 Si / 1000 Ang^3
#
#
#
# Elastic Constant Matrix: (Units=GPa)
#
#
# Indices 1 2 3 4 5 6 
#
# 1 74.2411 0.8941 15.5890 0.0000 0.0000 0.0000
# 2 0.8941 82.8515 33.5273 0.0000 0.0000 0.0000
# 3 15.5890 33.5273 79.2394 0.0000 0.0000 0.0000
# 4 0.0000 0.0000 0.0000 25.4006 0.0000 0.0000
# 5 0.0000 0.0000 0.0000 0.0000 36.0556 0.0000
# 6 0.0000 0.0000 0.0000 0.0000 0.0000 31.7377
#
#
#
# Elastic Compliance Matrix: (Units=1/GPa)
#
#
# Indices 1 2 3 4 5 6 
#
# 1 0.014144 0.001174 -0.003280 0.000000 0.000000 0.000000
# 2 0.001174 0.014661 -0.006434 0.000000 0.000000 0.000000
# 3 -0.003280 -0.006434 0.015988 0.000000 0.000000 0.000000
# 4 0.000000 0.000000 0.000000 0.039369 0.000000 0.000000
# 5 0.000000 0.000000 0.000000 0.000000 0.027735 0.000000
# 6 0.000000 0.000000 0.000000 0.000000 0.000000 0.031508
#
#
# Mechanical properties :
#
#
# Convention : Reuss Voigt Hill
#
# Bulk Modulus (GPa) = 36.08297 37.37254 36.72776
# Shear Modulus (GPa) = 29.46001 31.06022 30.26012
#
# Velocity S-wave (km/s) = 3.49887 3.59264 3.54607
# Velocity P-wave (km/s) = 5.59617 5.72185 5.65936
#
# Compressibility (1/GPa) = 0.02771390
#
# Stress axis : x y z
#
# Youngs Moduli (GPa) = 70.70075 68.20888 62.54845
#
# Poissons Ratio (x) = -0.08011 0.20513
# Poissons Ratio (y) = -0.08304 0.40245
# Poissons Ratio (z) = 0.23187 0.43887
#
# Static dielectric constant tensor:
#      x y z
#    x 2.040510 0.000000 0.000000 
#    y 0.000000 2.017020 0.000000 
#    z 0.000000 0.000000 1.911070 
# 
# From -- ./inp_files/15888.got.cif
#   From: 2010.05.17/outbox.cif.g08.bks.cpg/sg60_8_cif.got.tgz:15888.got - 2010.06.03 14:59:27.
