data_PCOD9457302
_publ_section_title
;
Structure prediction by ZEFSAII (Michael W. Deem and Ramdas Pophale) SiO2 
 PCOD9457302
Probable space group: P B C N
;
_chemical_formula_sum "Si O2"
_cell_formula_units_Z 32
_cell_length_a 12.692268
_cell_length_b 22.308403
_cell_length_c 5.189999
_cell_angle_alpha 90.000000
_cell_angle_beta 90.000000
_cell_angle_gamma 90.000000
_cell_volume 1469.518268
_symmetry_space_group_name_H-M "P B C N"
_symmetry_group_IT_number 60
_symmetry_cell_setting 'orthorhombic'
loop_
_space_group_symop_operation_xyz
x,y,z
1/2-x,1/2-y,1/2+z
1/2+x,1/2-y,-z
-x,y,1/2-z
-x,-y,-z
1/2+x,1/2+y,1/2-z
1/2-x,1/2+y,z
x,-y,1/2+z
loop_
_atom_site_type_symbol
_atom_site_label
_atom_site_fract_x
_atom_site_fract_y
_atom_site_fract_z
Si Si1 0.197683 0.152185 0.131415
Si Si2 0.888549 0.206386 0.846686
Si Si3 0.618989 0.474227 0.985606
Si Si4 0.932666 0.343977 0.991212
O O1 0.174582 0.204755 0.922729
O O2 0.315052 0.131725 0.054613
O O3 0.172743 0.172721 0.423084
O O4 0.123791 0.095210 0.078801
O O5 0.000000 0.179231 0.750000
O O6 0.915982 0.272007 0.953854
O O7 0.671108 0.511446 0.756668
O O8 0.500000 0.500000 0.000000
O O9 0.000000 0.354291 0.250000
O O10 0.000000 0.365446 0.750000
#
# Coordination Sequence:
#
# PCOD9457302 Si02
#       4
#     8   8   8   8
#     4  12  23  39  66  87 128 179 202 258 338 371
#     4  11  23  36  61  97 130 162 212 255 322 401
#     4  10  23  39  58  88 126 153 206 261 317 387
#     4  11  23  42  60  91 128 166 221 265 295 382
#
# _framework density 21.775845
#
# number of rings (size 3 to 8) (size 9 to 14) (size 15 to 20)
#    0.000    1.000    0.000    8.250   10.500    0.000 
#    0.000    0.000    0.000    4.500    0.000    0.000 
#    0.000    0.000    0.000    0.000    0.000    0.000 
#
# Total GULP energy -178488.136966 kJ/mol
# GULP energy per Si atom -5577.754280 kJ/mol
# Density = 2.172628 g / cm^3
# Si number density = 21.775845 Si / 1000 Ang^3
#
#
#
# Elastic Constant Matrix: (Units=GPa)
#
#
# Indices 1 2 3 4 5 6 
#
# 1 130.7397 3.7339 36.3548 0.0000 0.0000 0.0000
# 2 3.7339 53.3389 -0.1523 0.0000 0.0000 0.0000
# 3 36.3548 -0.1523 170.0070 0.0000 0.0000 0.0000
# 4 0.0000 0.0000 0.0000 -5.6194 0.0000 0.0000
# 5 0.0000 0.0000 0.0000 0.0000 34.9305 0.0000
# 6 0.0000 0.0000 0.0000 0.0000 0.0000 19.1919
#
#
#
# Elastic Compliance Matrix: (Units=1/GPa)
#
#
# Indices 1 2 3 4 5 6 
#
# 1 0.008150 -0.000576 -0.001743 0.000000 0.000000 0.000000
# 2 -0.000576 0.018789 0.000140 0.000000 0.000000 0.000000
# 3 -0.001743 0.000140 0.006255 0.000000 0.000000 0.000000
# 4 0.000000 0.000000 0.000000 -0.177955 0.000000 0.000000
# 5 0.000000 0.000000 0.000000 0.000000 0.028628 0.000000
# 6 0.000000 0.000000 0.000000 0.000000 0.000000 0.052105
#
#
# Mechanical properties :
#
#
# Convention : Reuss Voigt Hill
#
# Bulk Modulus (GPa) = 34.67904 48.21761 41.44833
# Shear Modulus (GPa) = -99.88512 30.64388 -34.62062
#
# Velocity S-wave (km/s) = -6.78006 3.75539 -3.99163
# Velocity P-wave (km/s) = 6.73293 6.40271 1.47268
#
# Compressibility (1/GPa) = 0.02883586
#
# Stress axis : x y z
#
# Youngs Moduli (GPa) = 122.69955 53.22343 159.87115
#
# Poissons Ratio (x) = 0.03063 0.27871
# Poissons Ratio (y) = 0.07061 -0.02237
# Poissons Ratio (z) = 0.21391 -0.00745
#
# Static dielectric constant tensor:
#      x y z
#    x 1.575980 0.000000 0.000000 
#    y 0.000000 1.794020 0.000000 
#    z 0.000000 0.000000 1.903110 
# 
# From -- ./inp_files/631.got.cif
#   From: 2010.05.17/outbox.cif.g08.bks.cpg/sg60_1_cif.got.tgz:631.got - 2010.06.03 14:59:27.
