data_PCOD9457448
_publ_section_title
;
Structure prediction by ZEFSAII (Michael W. Deem and Ramdas Pophale) SiO2 
 PCOD9457448
Probable space group: P B C N
;
_chemical_formula_sum "Si O2"
_cell_formula_units_Z 48
_cell_length_a 8.029454
_cell_length_b 22.547206
_cell_length_c 12.188444
_cell_angle_alpha 90.000000
_cell_angle_beta 90.000000
_cell_angle_gamma 90.000000
_cell_volume 2206.617273
_symmetry_space_group_name_H-M "P B C N"
_symmetry_group_IT_number 60
_symmetry_cell_setting 'orthorhombic'
loop_
_space_group_symop_operation_xyz
x,y,z
1/2-x,1/2-y,1/2+z
1/2+x,1/2-y,-z
-x,y,1/2-z
-x,-y,-z
1/2+x,1/2+y,1/2-z
1/2-x,1/2+y,z
x,-y,1/2+z
loop_
_atom_site_type_symbol
_atom_site_label
_atom_site_fract_x
_atom_site_fract_y
_atom_site_fract_z
Si Si1 0.736064 0.943773 0.315186
Si Si2 0.189894 0.830847 0.798751
Si Si3 0.862986 0.793180 0.156879
Si Si4 0.769972 0.577626 0.386776
Si Si5 0.609393 0.892686 0.116063
Si Si6 0.954289 0.880192 0.490587
O O1 0.731847 0.937674 0.183307
O O2 0.577655 0.904192 0.348812
O O3 0.883899 0.915738 0.386393
O O4 0.702604 0.011342 0.346240
O O5 0.300408 0.772865 0.820252
O O6 0.271150 0.875161 0.710877
O O7 0.000000 0.818766 0.750000
O O8 0.176150 0.862760 0.916353
O O9 0.692363 0.830960 0.150947
O O10 0.000000 0.807211 0.250000
O O11 0.957343 0.818644 0.048906
O O12 0.886178 0.596598 0.486817
O O13 0.588966 0.581280 0.443998
#
# Coordination Sequence:
#
# PCOD9457448 Si02
#       6
#     8   8   8   8   8   8
#     4  11  22  41  70  98 138 176 226 282 339 415
#     4  10  25  44  68  98 139 176 224 285 343 404
#     4  11  23  43  67  95 130 175 231 276 337 406
#     4  10  23  44  66 101 136 176 222 277 350 411
#     4  10  24  42  66  99 132 180 224 283 341 401
#     4  10  23  43  66 101 128 181 224 281 347 403
#
# _framework density 21.752751
#
# number of rings (size 3 to 8) (size 9 to 14) (size 15 to 20)
#    0.000    1.667    1.667    1.000    4.667    6.667 
#   12.000    0.000    0.000    0.000    0.000    0.000 
#    0.000    0.000    0.000    0.000    0.000    0.000 
#
# Total GULP energy -267748.016714 kJ/mol
# GULP energy per Si atom -5578.083682 kJ/mol
# Density = 2.170324 g / cm^3
# Si number density = 21.752751 Si / 1000 Ang^3
#
#
#
# Elastic Constant Matrix: (Units=GPa)
#
#
# Indices 1 2 3 4 5 6 
#
# 1 49.2690 5.2664 14.3959 0.0000 0.0000 0.0000
# 2 5.2664 27.6574 18.1899 0.0000 0.0000 0.0000
# 3 14.3959 18.1899 91.6572 0.0000 0.0000 0.0000
# 4 0.0000 0.0000 0.0000 19.8312 0.0000 0.0000
# 5 0.0000 0.0000 0.0000 0.0000 19.1218 0.0000
# 6 0.0000 0.0000 0.0000 0.0000 0.0000 13.0376
#
#
#
# Elastic Compliance Matrix: (Units=1/GPa)
#
#
# Indices 1 2 3 4 5 6 
#
# 1 0.021383 -0.002142 -0.002933 0.000000 0.000000 0.000000
# 2 -0.002142 0.041799 -0.007959 0.000000 0.000000 0.000000
# 3 -0.002933 -0.007959 0.012950 0.000000 0.000000 0.000000
# 4 0.000000 0.000000 0.000000 0.050426 0.000000 0.000000
# 5 0.000000 0.000000 0.000000 0.000000 0.052296 0.000000
# 6 0.000000 0.000000 0.000000 0.000000 0.000000 0.076701
#
#
# Mechanical properties :
#
#
# Convention : Reuss Voigt Hill
#
# Bulk Modulus (GPa) = 19.97471 27.14311 23.55891
# Shear Modulus (GPa) = 16.76097 19.11355 17.93726
#
# Velocity S-wave (km/s) = 2.77884 2.96746 2.87470
# Velocity P-wave (km/s) = 4.41571 4.92404 4.67679
#
# Compressibility (1/GPa) = 0.05006331
#
# Stress axis : x y z
#
# Youngs Moduli (GPa) = 46.76657 23.92400 77.21777
#
# Poissons Ratio (x) = 0.05126 0.22650
# Poissons Ratio (y) = 0.10019 0.61456
# Poissons Ratio (z) = 0.13718 0.19041
#
# Static dielectric constant tensor:
#      x y z
#    x 1.830220 0.000000 0.000000 
#    y 0.000000 1.758580 0.000000 
#    z 0.000000 0.000000 1.868540 
# 
# From -- ./inp_files/10136.got.cif
#   From: 2010.05.17/outbox.cif.g08.bks.cpg/sg60_6_cif.got.tgz:10136.got - 2010.06.03 14:59:27.
