data_PCOD9457820
_publ_section_title
;
Structure prediction by ZEFSAII (Michael W. Deem and Ramdas Pophale) SiO2 
 PCOD9457820
Probable space group: P B C N
;
_chemical_formula_sum "Si O2"
_cell_formula_units_Z 64
_cell_length_a 15.320997
_cell_length_b 22.580999
_cell_length_c 8.766654
_cell_angle_alpha 90.000000
_cell_angle_beta 90.000000
_cell_angle_gamma 90.000000
_cell_volume 3032.941582
_symmetry_space_group_name_H-M "P B C N"
_symmetry_group_IT_number 60
_symmetry_cell_setting 'orthorhombic'
loop_
_space_group_symop_operation_xyz
x,y,z
1/2-x,1/2-y,1/2+z
1/2+x,1/2-y,-z
-x,y,1/2-z
-x,-y,-z
1/2+x,1/2+y,1/2-z
1/2-x,1/2+y,z
x,-y,1/2+z
loop_
_atom_site_type_symbol
_atom_site_label
_atom_site_fract_x
_atom_site_fract_y
_atom_site_fract_z
Si Si1 0.134662 0.469768 0.915462
Si Si2 0.233220 0.692363 0.106431
Si Si3 0.186820 0.079985 0.414299
Si Si4 0.202572 0.700541 0.437256
Si Si5 0.451952 0.135425 0.585110
Si Si6 0.083560 0.137839 0.159204
Si Si7 0.482054 0.437162 0.075527
Si Si8 0.107194 0.588091 0.082671
O O1 0.239933 0.470047 0.910777
O O2 0.107098 0.441569 0.751601
O O3 0.100745 0.425902 0.049907
O O4 0.102612 0.534743 0.960347
O O5 0.181696 0.710648 0.259531
O O6 0.235604 0.746348 0.990521
O O7 0.336078 0.681425 0.136245
O O8 0.192189 0.629180 0.061500
O O9 0.241907 0.140074 0.430306
O O10 0.126087 0.085973 0.264706
O O11 0.119250 0.076190 0.549557
O O12 0.118663 0.686070 0.542415
O O13 0.500000 0.139440 0.750000
O O14 0.527336 0.131240 0.456954
O O15 0.000000 0.162960 0.250000
O O16 0.043618 0.110538 0.007231
O O17 0.500000 0.439741 0.250000
O O18 0.500000 0.500000 0.000000
#
# Coordination Sequence:
#
# PCOD9457820 Si02
#       8
#     8   8   8   8   8   8   8   8
#     4  11  23  42  69 100 142 187 223 292 352 419
#     4  11  24  45  70 101 133 183 228 288 343 401
#     4   9  20  43  64  92 132 172 224 275 341 401
#     4  10  24  46  71  95 138 177 231 285 337 408
#     4  11  24  45  68 106 138 185 232 285 351 418
#     4   9  19  41  64  88 126 170 218 273 331 394
#     4  11  23  37  60  93 130 171 216 277 334 408
#     4  12  24  43  71 103 144 181 234 289 355 420
#
# _framework density 21.101626
#
# number of rings (size 3 to 8) (size 9 to 14) (size 15 to 20)
#    0.000    1.500    3.750    2.625    3.500    2.500 
#    6.750    0.000    0.000    0.000    0.000    0.000 
#    0.000    0.000    0.000    0.000    0.000    0.000 
#
# Total GULP energy -357057.196445 kJ/mol
# GULP energy per Si atom -5579.018694 kJ/mol
# Density = 2.105360 g / cm^3
# Si number density = 21.101626 Si / 1000 Ang^3
#
#
#
# Elastic Constant Matrix: (Units=GPa)
#
#
# Indices 1 2 3 4 5 6 
#
# 1 99.8163 0.3822 31.1341 0.0000 0.0000 0.0000
# 2 0.3822 67.3134 20.6933 0.0000 0.0000 0.0000
# 3 31.1341 20.6933 118.0094 0.0000 0.0000 0.0000
# 4 0.0000 0.0000 0.0000 17.1352 0.0000 0.0000
# 5 0.0000 0.0000 0.0000 0.0000 15.3264 0.0000
# 6 0.0000 0.0000 0.0000 0.0000 0.0000 11.3641
#
#
#
# Elastic Compliance Matrix: (Units=1/GPa)
#
#
# Indices 1 2 3 4 5 6 
#
# 1 0.010965 0.000874 -0.003046 0.000000 0.000000 0.000000
# 2 0.000874 0.015772 -0.002996 0.000000 0.000000 0.000000
# 3 -0.003046 -0.002996 0.009803 0.000000 0.000000 0.000000
# 4 0.000000 0.000000 0.000000 0.058359 0.000000 0.000000
# 5 0.000000 0.000000 0.000000 0.000000 0.065247 0.000000
# 6 0.000000 0.000000 0.000000 0.000000 0.000000 0.087996
#
#
# Mechanical properties :
#
#
# Convention : Reuss Voigt Hill
#
# Bulk Modulus (GPa) = 38.16271 43.28424 40.72347
# Shear Modulus (GPa) = 18.71160 24.29378 21.50269
#
# Velocity S-wave (km/s) = 2.98104 3.39673 3.19565
# Velocity P-wave (km/s) = 5.47479 5.99504 5.74081
#
# Compressibility (1/GPa) = 0.02620359
#
# Stress axis : x y z
#
# Youngs Moduli (GPa) = 91.19748 63.40333 102.00972
#
# Poissons Ratio (x) = -0.05543 0.31074
# Poissons Ratio (y) = -0.07972 0.30565
# Poissons Ratio (z) = 0.27781 0.18998
#
# Static dielectric constant tensor:
#      x y z
#    x 1.812990 0.000000 0.000000 
#    y 0.000000 1.775340 0.000000 
#    z 0.000000 0.000000 1.820170 
# 
# From -- ./inp_files/6312.got.cif
#   From: 2010.05.17/outbox.cif.g08.bks.cpg/sg60_4_cif.got.tgz:6312.got - 2010.06.03 14:59:27.
