data_PCOD9457556
_publ_section_title
;
Structure prediction by ZEFSAII (Michael W. Deem and Ramdas Pophale) SiO2 
 PCOD9457556
Probable space group: P B C N
;
_chemical_formula_sum "Si O2"
_cell_formula_units_Z 64
_cell_length_a 14.138627
_cell_length_b 15.336938
_cell_length_c 12.111395
_cell_angle_alpha 90.000000
_cell_angle_beta 90.000000
_cell_angle_gamma 90.000000
_cell_volume 2626.274202
_symmetry_space_group_name_H-M "P B C N"
_symmetry_group_IT_number 60
_symmetry_cell_setting 'orthorhombic'
loop_
_space_group_symop_operation_xyz
x,y,z
1/2-x,1/2-y,1/2+z
1/2+x,1/2-y,-z
-x,y,1/2-z
-x,-y,-z
1/2+x,1/2+y,1/2-z
1/2-x,1/2+y,z
x,-y,1/2+z
loop_
_atom_site_type_symbol
_atom_site_label
_atom_site_fract_x
_atom_site_fract_y
_atom_site_fract_z
Si Si1 0.818268 0.663156 0.295569
Si Si2 0.398477 0.079421 0.777999
Si Si3 0.991771 0.139732 0.086100
Si Si4 0.564071 0.173528 0.506876
Si Si5 0.015694 0.952119 0.134211
Si Si6 0.760623 0.009098 0.878882
Si Si7 0.151164 0.745839 0.651610
Si Si8 0.350666 0.868096 0.958375
O O1 0.898915 0.684698 0.382593
O O2 0.758028 0.593197 0.367471
O O3 0.746667 0.742777 0.281891
O O4 0.842740 0.633304 0.172882
O O5 0.500000 0.032389 0.750000
O O6 0.303253 0.039603 0.726274
O O7 0.405323 0.167007 0.705464
O O8 0.389217 0.107783 0.904876
O O9 0.934878 0.229245 0.062607
O O10 0.021109 0.106806 0.964468
O O11 0.080192 0.173849 0.155329
O O12 0.960531 0.045888 0.134334
O O13 0.461024 0.130781 0.488327
O O14 0.128497 0.968263 0.120776
O O15 0.000000 0.907358 0.250000
O O16 0.710712 0.056755 0.982746
O O17 0.178571 0.719618 0.526097
#
# Coordination Sequence:
#
# PCOD9457556 Si02
#       8
#     8   8   8   8   8   8   8   8
#     4  12  27  42  72 109 143 189 242 316 362 440
#     4  11  22  45  74 105 141 195 242 304 356 454
#     4  10  23  45  70  96 142 182 243 290 364 441
#     4  11  25  45  74 106 137 196 248 304 369 438
#     4  11  26  44  70 105 144 195 234 312 370 433
#     4  11  26  46  69 109 148 191 246 292 382 447
#     4  10  23  45  68 105 135 189 245 291 368 431
#     4  10  25  49  66  99 149 184 242 301 368 443
#
# _framework density 24.369122000000001
#
# number of rings (size 3 to 8) (size 9 to 14) (size 15 to 20)
#    0.000    1.250    5.000    0.375    8.750    6.500 
#    0.000    0.000    0.000    0.000    0.000    0.000 
#    0.000    0.000    0.000    0.000    0.000    0.000 
#
# Total GULP energy -357066.329514 kJ/mol
# GULP energy per Si atom -5579.161399 kJ/mol
# Density = 2.431366 g / cm^3
# Si number density = 24.369122 Si / 1000 Ang^3
#
#
#
# Elastic Constant Matrix: (Units=GPa)
#
#
# Indices 1 2 3 4 5 6 
#
# 1 86.6487 11.3793 25.0019 0.0000 0.0000 0.0000
# 2 11.3793 39.0053 -12.7564 0.0000 0.0000 0.0000
# 3 25.0019 -12.7564 138.7608 0.0000 0.0000 0.0000
# 4 0.0000 0.0000 0.0000 27.0561 0.0000 0.0000
# 5 0.0000 0.0000 0.0000 0.0000 21.2541 0.0000
# 6 0.0000 0.0000 0.0000 0.0000 0.0000 15.5582
#
#
#
# Elastic Compliance Matrix: (Units=1/GPa)
#
#
# Indices 1 2 3 4 5 6 
#
# 1 0.012954 -0.004683 -0.002764 0.000000 0.000000 0.000000
# 2 -0.004683 0.028125 0.003429 0.000000 0.000000 0.000000
# 3 -0.002764 0.003429 0.008020 0.000000 0.000000 0.000000
# 4 0.000000 0.000000 0.000000 0.036960 0.000000 0.000000
# 5 0.000000 0.000000 0.000000 0.000000 0.047050 0.000000
# 6 0.000000 0.000000 0.000000 0.000000 0.000000 0.064275
#
#
# Mechanical properties :
#
#
# Convention : Reuss Voigt Hill
#
# Bulk Modulus (GPa) = 24.35316 34.62939 29.49128
# Shear Modulus (GPa) = 22.81983 28.82634 25.82309
#
# Velocity S-wave (km/s) = 3.06342 3.44307 3.25878
# Velocity P-wave (km/s) = 4.74636 5.48156 5.12715
#
# Compressibility (1/GPa) = 0.04106242
#
# Stress axis : x y z
#
# Youngs Moduli (GPa) = 77.19894 35.55513 124.68798
#
# Poissons Ratio (x) = 0.16651 0.34470
# Poissons Ratio (y) = 0.36153 -0.42760
# Poissons Ratio (z) = 0.21342 -0.12193
#
# Static dielectric constant tensor:
#      x y z
#    x 1.978580 0.000000 0.000000 
#    y 0.000000 2.028010 0.000000 
#    z 0.000000 0.000000 1.965860 
# 
# From -- ./inp_files/12141.got.cif
#   From: 2010.05.17/outbox.cif.g08.bks.cpg/sg60_7_cif.got.tgz:12141.got - 2010.06.03 14:59:27.
