data_PCOD9457878
_publ_section_title
;
Structure prediction by ZEFSAII (Michael W. Deem and Ramdas Pophale) SiO2 
 PCOD9457878
Probable space group: P B C N
;
_chemical_formula_sum "Si O2"
_cell_formula_units_Z 40
_cell_length_a 12.864603
_cell_length_b 7.453793
_cell_length_c 14.277344
_cell_angle_alpha 90.000000
_cell_angle_beta 90.000000
_cell_angle_gamma 90.000000
_cell_volume 1369.055770
_symmetry_space_group_name_H-M "P B C N"
_symmetry_group_IT_number 60
_symmetry_cell_setting 'orthorhombic'
loop_
_space_group_symop_operation_xyz
x,y,z
1/2-x,1/2-y,1/2+z
1/2+x,1/2-y,-z
-x,y,1/2-z
-x,-y,-z
1/2+x,1/2+y,1/2-z
1/2-x,1/2+y,z
x,-y,1/2+z
loop_
_atom_site_type_symbol
_atom_site_label
_atom_site_fract_x
_atom_site_fract_y
_atom_site_fract_z
Si Si1 0.831208 0.509053 0.450993
Si Si2 0.102974 0.761319 0.692155
Si Si3 0.183468 0.704077 0.870407
Si Si4 0.622766 0.566418 0.547978
Si Si5 0.066744 0.824851 0.158529
O O1 0.618374 0.829370 0.408997
O O2 0.868969 0.571543 0.554204
O O3 0.706520 0.498061 0.468913
O O4 0.858989 0.665451 0.376911
O O5 0.187402 0.671719 0.760667
O O6 0.000000 0.706399 0.750000
O O7 0.103715 0.975637 0.687640
O O8 0.301696 0.713545 0.904561
O O9 0.127205 0.892029 0.884926
O O10 0.493423 0.364358 0.433809
O O11 0.000000 0.763505 0.250000
#
# Coordination Sequence:
#
# PCOD9457878 Si02
#       5
#     8   8   8   8   8
#     4  10  27  48  80 122 161 219 276 344 417 501
#     4  11  23  51  83 120 162 221 281 338 417 502
#     4  10  24  51  72 115 173 211 269 352 404 496
#     4  10  24  52  72 116 169 209 269 349 409 484
#     4  11  23  52  87 115 167 225 276 349 420 491
#
# _framework density 29.217216000000001
#
# number of rings (size 3 to 8) (size 9 to 14) (size 15 to 20)
#    1.200    0.400    4.000    0.600    0.000    6.400 
#   10.800    0.000    0.000    0.000    0.000    0.000 
#    0.000    0.000    0.000    0.000    0.000    0.000 
#
# Total GULP energy -223598.947458 kJ/mol
# GULP energy per Si atom -5589.973686 kJ/mol
# Density = 2.915072 g / cm^3
# Si number density = 29.217216 Si / 1000 Ang^3
#
#
#
# Elastic Constant Matrix: (Units=GPa)
#
#
# Indices 1 2 3 4 5 6 
#
# 1 69.0397 31.3738 25.4658 0.0000 0.0000 0.0000
# 2 31.3738 155.1622 19.0000 0.0000 0.0000 0.0000
# 3 25.4658 19.0000 153.4829 0.0000 0.0000 0.0000
# 4 0.0000 0.0000 0.0000 29.6886 0.0000 0.0000
# 5 0.0000 0.0000 0.0000 0.0000 70.7836 0.0000
# 6 0.0000 0.0000 0.0000 0.0000 0.0000 -11.1378
#
#
#
# Elastic Compliance Matrix: (Units=1/GPa)
#
#
# Indices 1 2 3 4 5 6 
#
# 1 0.016778 -0.003099 -0.002400 0.000000 0.000000 0.000000
# 2 -0.003099 0.007116 -0.000367 0.000000 0.000000 0.000000
# 3 -0.002400 -0.000367 0.006959 0.000000 0.000000 0.000000
# 4 0.000000 0.000000 0.000000 0.033683 0.000000 0.000000
# 5 0.000000 0.000000 0.000000 0.000000 0.014128 0.000000
# 6 0.000000 0.000000 0.000000 0.000000 0.000000 -0.089784
#
#
# Mechanical properties :
#
#
# Convention : Reuss Voigt Hill
#
# Bulk Modulus (GPa) = 52.29577 58.81823 55.55700
# Shear Modulus (GPa) = 715.87712 37.98989 376.93351
#
# Velocity S-wave (km/s) = 15.67006 3.60982 11.37061
# Velocity P-wave (km/s) = 18.58330 6.12776 13.83634
#
# Compressibility (1/GPa) = 0.01912200
#
# Stress axis : x y z
#
# Youngs Moduli (GPa) = 59.60240 140.52209 143.69809
#
# Poissons Ratio (x) = 0.43542 0.34490
# Poissons Ratio (y) = 0.18468 0.05271
# Poissons Ratio (z) = 0.14306 0.05155
#
# Static dielectric constant tensor:
#      x y z
#    x 2.480450 0.000000 0.000000 
#    y 0.000000 2.225050 0.000000 
#    z 0.000000 0.000000 2.434360 
# 
# From -- ./inp_files/16615.got.cif
#   From: 2010.05.17/outbox.cif.g08.bks.cpg/sg60_9_cif.got.tgz:16615.got - 2010.06.03 14:59:27.
