data_PCOD9457419
_publ_section_title
;
Structure prediction by ZEFSAII (Michael W. Deem and Ramdas Pophale) SiO2 
 PCOD9457419
Probable space group: P B C N
;
_chemical_formula_sum "Si O2"
_cell_formula_units_Z 24
_cell_length_a 10.843800
_cell_length_b 8.950329
_cell_length_c 8.803049
_cell_angle_alpha 90.000000
_cell_angle_beta 90.000000
_cell_angle_gamma 90.000000
_cell_volume 854.385005
_symmetry_space_group_name_H-M "P B C N"
_symmetry_group_IT_number 60
_symmetry_cell_setting 'orthorhombic'
loop_
_space_group_symop_operation_xyz
x,y,z
1/2-x,1/2-y,1/2+z
1/2+x,1/2-y,-z
-x,y,1/2-z
-x,-y,-z
1/2+x,1/2+y,1/2-z
1/2-x,1/2+y,z
x,-y,1/2+z
loop_
_atom_site_type_symbol
_atom_site_label
_atom_site_fract_x
_atom_site_fract_y
_atom_site_fract_z
Si Si1 0.629734 0.010790 0.171231
Si Si2 0.618382 0.517730 0.837055
Si Si3 0.330560 0.708479 0.381796
O O1 0.500000 0.023028 0.250000
O O2 0.744115 0.944427 0.273086
O O3 0.626416 0.868446 0.058471
O O4 0.685647 0.166345 0.115920
O O5 0.500000 0.581889 0.750000
O O6 0.377042 0.342542 0.713714
O O7 0.616840 0.580605 0.005685
#
# Coordination Sequence:
#
# PCOD9457419 Si02
#       3
#     8   8   8
#     4  10  25  42  67 100 141 178 233 289 351 418
#     4  10  23  42  70  99 133 181 232 284 353 422
#     4  10  24  41  72  96 140 180 235 285 355 408
#
# _framework density 28.090382999999999
#
# number of rings (size 3 to 8) (size 9 to 14) (size 15 to 20)
#    2.000    0.000    0.000    2.000    4.667    5.333 
#    0.000    0.000    0.000    0.000    0.000    0.000 
#    0.000    0.000    0.000    0.000    0.000    0.000 
#
# Total GULP energy -133724.933012 kJ/mol
# GULP energy per Si atom -5571.872209 kJ/mol
# Density = 2.802645 g / cm^3
# Si number density = 28.090383 Si / 1000 Ang^3
#
#
#
# Elastic Constant Matrix: (Units=GPa)
#
#
# Indices 1 2 3 4 5 6 
#
# 1 211.5086 34.5570 31.5797 0.0000 0.0000 0.0000
# 2 34.5570 98.4537 8.4251 0.0000 0.0000 0.0000
# 3 31.5797 8.4251 91.5960 0.0000 0.0000 0.0000
# 4 0.0000 0.0000 0.0000 22.3585 0.0000 0.0000
# 5 0.0000 0.0000 0.0000 0.0000 28.9942 0.0000
# 6 0.0000 0.0000 0.0000 0.0000 0.0000 28.7736
#
#
#
# Elastic Compliance Matrix: (Units=1/GPa)
#
#
# Indices 1 2 3 4 5 6 
#
# 1 0.005253 -0.001702 -0.001655 0.000000 0.000000 0.000000
# 2 -0.001702 0.010789 -0.000406 0.000000 0.000000 0.000000
# 3 -0.001655 -0.000406 0.011525 0.000000 0.000000 0.000000
# 4 0.000000 0.000000 0.000000 0.044726 0.000000 0.000000
# 5 0.000000 0.000000 0.000000 0.000000 0.034490 0.000000
# 6 0.000000 0.000000 0.000000 0.000000 0.000000 0.034754
#
#
# Mechanical properties :
#
#
# Convention : Reuss Voigt Hill
#
# Bulk Modulus (GPa) = 49.89278 61.18686 55.53982
# Shear Modulus (GPa) = 32.10425 37.82503 34.96464
#
# Velocity S-wave (km/s) = 3.38433 3.67351 3.53189
# Velocity P-wave (km/s) = 5.75080 6.31050 6.03714
#
# Compressibility (1/GPa) = 0.02004298
#
# Stress axis : x y z
#
# Youngs Moduli (GPa) = 190.36404 92.68496 86.76601
#
# Poissons Ratio (x) = 0.15777 0.14356
# Poissons Ratio (y) = 0.32404 0.03519
# Poissons Ratio (z) = 0.31497 0.03759
#
# Static dielectric constant tensor:
#      x y z
#    x 2.269380 0.000000 0.000000 
#    y 0.000000 2.214940 0.000000 
#    z 0.000000 0.000000 2.286100 
# 
# From -- ./inp_files/9307.got.cif
#   From: 2010.05.17/outbox.cif.g08.bks.cpg/sg60_5_cif.got.tgz:9307.got - 2010.06.03 14:59:27.
