data_PCOD9457808
_publ_section_title
;
Structure prediction by ZEFSAII (Michael W. Deem and Ramdas Pophale) SiO2 
 PCOD9457808
Probable space group: P B C N
;
_chemical_formula_sum "Si O2"
_cell_formula_units_Z 40
_cell_length_a 4.736871
_cell_length_b 27.560657
_cell_length_c 11.773489
_cell_angle_alpha 90.000000
_cell_angle_beta 90.000000
_cell_angle_gamma 90.000000
_cell_volume 1537.044022
_symmetry_space_group_name_H-M "P B C N"
_symmetry_group_IT_number 60
_symmetry_cell_setting 'orthorhombic'
loop_
_space_group_symop_operation_xyz
x,y,z
1/2-x,1/2-y,1/2+z
1/2+x,1/2-y,-z
-x,y,1/2-z
-x,-y,-z
1/2+x,1/2+y,1/2-z
1/2-x,1/2+y,z
x,-y,1/2+z
loop_
_atom_site_type_symbol
_atom_site_label
_atom_site_fract_x
_atom_site_fract_y
_atom_site_fract_z
Si Si1 0.270277 0.918124 0.330264
Si Si2 0.000000 0.253416 0.750000
Si Si3 0.646663 0.517985 0.121180
Si Si4 0.807265 0.718493 0.962081
Si Si5 0.000000 0.176555 0.250000
Si Si6 0.939720 0.879377 0.540833
O O1 0.500000 0.893746 0.250000
O O2 0.157704 0.892590 0.442067
O O3 0.000000 0.923422 0.250000
O O4 0.363923 0.973327 0.362023
O O5 0.175330 0.221527 0.662970
O O6 0.757538 0.290415 0.708960
O O7 0.500000 0.522639 0.250000
O O8 0.721199 0.572812 0.086020
O O9 0.500000 0.500000 0.000000
O O10 0.121340 0.738151 0.978739
O O11 0.760826 0.663549 0.998570
O O12 0.101418 0.143610 0.147394
#
# Coordination Sequence:
#
# PCOD9457808 Si02
#       6
#     8   4   8   8   4   8
#     4  10  24  46  69 103 144 185 235 299 367 438
#     4  12  24  46  64  97 142 183 232 304 358 422
#     4   9  19  41  70  99 139 181 235 297 362 431
#     4  12  25  44  67  99 139 180 232 293 356 428
#     4  12  24  44  72  99 138 189 244 294 358 432
#     4  11  23  44  72 104 136 189 243 294 364 442
#
# _framework density 26.023976999999999
#
# number of rings (size 3 to 8) (size 9 to 14) (size 15 to 20)
#    0.000    1.200    5.000    0.000    1.400    3.200 
#    3.600   29.000    0.000    0.000    0.000    0.000 
#    0.000    0.000    0.000    0.000    0.000    0.000 
#
# Total GULP energy -223286.104651 kJ/mol
# GULP energy per Si atom -5582.152616 kJ/mol
# Density = 2.596475 g / cm^3
# Si number density = 26.023977 Si / 1000 Ang^3
#
#
#
# Elastic Constant Matrix: (Units=GPa)
#
#
# Indices 1 2 3 4 5 6 
#
# 1 60.5419 17.9189 11.0833 0.0000 0.0000 0.0000
# 2 17.9189 170.6414 62.9177 0.0000 0.0000 0.0000
# 3 11.0833 62.9177 173.6676 0.0000 0.0000 0.0000
# 4 0.0000 0.0000 0.0000 127.1417 0.0000 0.0000
# 5 0.0000 0.0000 0.0000 0.0000 39.6730 0.0000
# 6 0.0000 0.0000 0.0000 0.0000 0.0000 16.8817
#
#
#
# Elastic Compliance Matrix: (Units=1/GPa)
#
#
# Indices 1 2 3 4 5 6 
#
# 1 0.017086 -0.001607 -0.000508 0.000000 0.000000 0.000000
# 2 -0.001607 0.006915 -0.002403 0.000000 0.000000 0.000000
# 3 -0.000508 -0.002403 0.006661 0.000000 0.000000 0.000000
# 4 0.000000 0.000000 0.000000 0.007865 0.000000 0.000000
# 5 0.000000 0.000000 0.000000 0.000000 0.025206 0.000000
# 6 0.000000 0.000000 0.000000 0.000000 0.000000 0.059236
#
#
# Mechanical properties :
#
#
# Convention : Reuss Voigt Hill
#
# Bulk Modulus (GPa) = 46.23947 65.41009 55.82478
# Shear Modulus (GPa) = 35.91608 57.60133 46.75871
#
# Velocity S-wave (km/s) = 3.71902 4.70978 4.24341
# Velocity P-wave (km/s) = 6.02064 7.40035 6.74586
#
# Compressibility (1/GPa) = 0.02162655
#
# Stress axis : x y z
#
# Youngs Moduli (GPa) = 58.52711 144.61635 150.12741
#
# Poissons Ratio (x) = 0.23237 0.07631
# Poissons Ratio (y) = 0.09404 0.36070
# Poissons Ratio (z) = 0.02975 0.34746
#
# Static dielectric constant tensor:
#      x y z
#    x 2.000980 0.000000 0.000000 
#    y 0.000000 2.030850 0.000000 
#    z 0.000000 0.000000 2.354390 
# 
# From -- ./inp_files/9195.got.cif
#   From: 2010.05.17/outbox.cif.g08.bks.cpg/sg60_5_cif.got.tgz:9195.got - 2010.06.03 14:59:27.
