data_PCOD9457922
_publ_section_title
;
Structure prediction by ZEFSAII (Michael W. Deem and Ramdas Pophale) SiO2 
 PCOD9457922
Probable space group: P B C N
;
_chemical_formula_sum "Si O2"
_cell_formula_units_Z 40
_cell_length_a 17.879801
_cell_length_b 10.064216
_cell_length_c 9.104315
_cell_angle_alpha 90.000000
_cell_angle_beta 90.000000
_cell_angle_gamma 90.000000
_cell_volume 1638.286699
_symmetry_space_group_name_H-M "P B C N"
_symmetry_group_IT_number 60
_symmetry_cell_setting 'orthorhombic'
loop_
_space_group_symop_operation_xyz
x,y,z
1/2-x,1/2-y,1/2+z
1/2+x,1/2-y,-z
-x,y,1/2-z
-x,-y,-z
1/2+x,1/2+y,1/2-z
1/2-x,1/2+y,z
x,-y,1/2+z
loop_
_atom_site_type_symbol
_atom_site_label
_atom_site_fract_x
_atom_site_fract_y
_atom_site_fract_z
Si Si1 0.923758 0.885343 0.807356
Si Si2 0.029814 0.653244 0.483492
Si Si3 0.826933 0.067298 0.022457
Si Si4 0.834161 0.474385 0.660076
Si Si5 0.130562 0.673263 0.064427
O O1 0.875551 0.884955 0.660418
O O2 0.000000 0.955311 0.750000
O O3 0.950657 0.745882 0.878700
O O4 0.873712 0.959347 0.930745
O O5 0.107730 0.636658 0.399016
O O6 0.000000 0.500000 0.500000
O O7 0.955628 0.713044 0.407782
O O8 0.748160 0.031817 0.094046
O O9 0.818861 0.197322 0.919386
O O10 0.864655 0.612976 0.599315
O O11 0.840391 0.445814 0.832235
#
# Coordination Sequence:
#
# PCOD9457922 Si02
#       5
#     8   8   8   8   8
#     4  12  27  51  76 113 160 211 270 322 403 483
#     4  10  25  47  80 108 150 208 261 325 387 475
#     4  12  29  46  80 114 160 215 260 339 406 471
#     4  11  27  45  77 112 159 198 271 324 403 464
#     4  11  26  48  75 112 151 207 267 322 397 477
#
# _framework density 24.415749999999999
#
# number of rings (size 3 to 8) (size 9 to 14) (size 15 to 20)
#    0.000    0.800    2.000    2.400   14.000    0.000 
#    0.000    0.000    0.000    0.000    0.000    0.000 
#    0.000    0.000    0.000    0.000    0.000    0.000 
#
# Total GULP energy -223327.765644 kJ/mol
# GULP energy per Si atom -5583.194141 kJ/mol
# Density = 2.436018 g / cm^3
# Si number density = 24.415750 Si / 1000 Ang^3
#
#
#
# Elastic Constant Matrix: (Units=GPa)
#
#
# Indices 1 2 3 4 5 6 
#
# 1 161.3484 21.4385 43.4534 0.0000 0.0000 0.0000
# 2 21.4385 93.7328 49.9766 0.0000 0.0000 0.0000
# 3 43.4534 49.9766 114.4349 0.0000 0.0000 0.0000
# 4 0.0000 0.0000 0.0000 34.2548 0.0000 0.0000
# 5 0.0000 0.0000 0.0000 0.0000 49.6317 0.0000
# 6 0.0000 0.0000 0.0000 0.0000 0.0000 19.2624
#
#
#
# Elastic Compliance Matrix: (Units=1/GPa)
#
#
# Indices 1 2 3 4 5 6 
#
# 1 0.006908 -0.000236 -0.002520 0.000000 0.000000 0.000000
# 2 -0.000236 0.013915 -0.005987 0.000000 0.000000 0.000000
# 3 -0.002520 -0.005987 0.012310 0.000000 0.000000 0.000000
# 4 0.000000 0.000000 0.000000 0.029193 0.000000 0.000000
# 5 0.000000 0.000000 0.000000 0.000000 0.020148 0.000000
# 6 0.000000 0.000000 0.000000 0.000000 0.000000 0.051914
#
#
# Mechanical properties :
#
#
# Convention : Reuss Voigt Hill
#
# Bulk Modulus (GPa) = 63.91391 66.58366 65.24879
# Shear Modulus (GPa) = 31.82864 37.60628 34.71746
#
# Velocity S-wave (km/s) = 3.61447 3.92886 3.77494
# Velocity P-wave (km/s) = 6.60707 6.92179 6.76626
#
# Compressibility (1/GPa) = 0.01564605
#
# Stress axis : x y z
#
# Youngs Moduli (GPa) = 144.76390 71.86492 81.23350
#
# Poissons Ratio (x) = 0.01699 0.20469
# Poissons Ratio (y) = 0.03423 0.48636
# Poissons Ratio (z) = 0.36477 0.43027
#
# Static dielectric constant tensor:
#      x y z
#    x 2.029130 0.000000 0.000000 
#    y 0.000000 1.968780 0.000000 
#    z 0.000000 0.000000 2.011460 
# 
# From -- ./inp_files/5647.got.cif
#   From: 2010.05.17/outbox.cif.g08.bks.cpg/sg60_3_cif.got.tgz:5647.got - 2010.06.03 14:59:27.
