data_PCOD9457797
_publ_section_title
;
Structure prediction by ZEFSAII (Michael W. Deem and Ramdas Pophale) SiO2 
 PCOD9457797
Probable space group: P B C N
;
_chemical_formula_sum "Si O2"
_cell_formula_units_Z 24
_cell_length_a 5.504492
_cell_length_b 21.649535
_cell_length_c 7.565986
_cell_angle_alpha 90.000000
_cell_angle_beta 90.000000
_cell_angle_gamma 90.000000
_cell_volume 901.636223
_symmetry_space_group_name_H-M "P B C N"
_symmetry_group_IT_number 60
_symmetry_cell_setting 'orthorhombic'
loop_
_space_group_symop_operation_xyz
x,y,z
1/2-x,1/2-y,1/2+z
1/2+x,1/2-y,-z
-x,y,1/2-z
-x,-y,-z
1/2+x,1/2+y,1/2-z
1/2-x,1/2+y,z
x,-y,1/2+z
loop_
_atom_site_type_symbol
_atom_site_label
_atom_site_fract_x
_atom_site_fract_y
_atom_site_fract_z
Si Si1 0.500000 0.266657 0.250000
Si Si2 0.000000 0.619408 0.750000
Si Si3 0.254357 0.537219 0.514691
Si Si4 0.258612 0.833073 0.944377
O O1 0.563135 0.308734 0.416016
O O2 0.290005 0.218019 0.297833
O O3 0.779501 0.573576 0.797922
O O4 0.998735 0.660183 0.926583
O O5 0.500000 0.500000 0.500000
O O6 0.268379 0.596342 0.382770
O O7 0.000000 0.500000 0.500000
#
# Coordination Sequence:
#
# PCOD9457797 Si02
#       4
#     4   4   8   8
#     4  12  24  49  74 116 161 214 268 338 406 502
#     4   8  22  45  70 114 145 202 264 330 394 474
#     4  10  24  45  76 112 156 209 266 336 407 477
#     4  10  25  43  79 109 160 204 273 327 418 467
#
# _framework density 26.618272000000001
#
# number of rings (size 3 to 8) (size 9 to 14) (size 15 to 20)
#    2.000    0.000    0.000    2.000    4.667    2.667 
#    0.000    3.333    0.000    0.000    0.000    0.000 
#    0.000    0.000    0.000    0.000    0.000    0.000 
#
# Total GULP energy -133792.545679 kJ/mol
# GULP energy per Si atom -5574.689403 kJ/mol
# Density = 2.655769 g / cm^3
# Si number density = 26.618272 Si / 1000 Ang^3
#
#
#
# Elastic Constant Matrix: (Units=GPa)
#
#
# Indices 1 2 3 4 5 6 
#
# 1 162.0103 96.0565 26.3935 0.0000 0.0000 0.0000
# 2 96.0565 199.6185 1.2667 0.0000 0.0000 0.0000
# 3 26.3935 1.2667 46.7339 0.0000 0.0000 0.0000
# 4 0.0000 0.0000 0.0000 25.6660 0.0000 0.0000
# 5 0.0000 0.0000 0.0000 0.0000 51.1735 0.0000
# 6 0.0000 0.0000 0.0000 0.0000 0.0000 40.1608
#
#
#
# Elastic Compliance Matrix: (Units=1/GPa)
#
#
# Indices 1 2 3 4 5 6 
#
# 1 0.009846 -0.004704 -0.005433 0.000000 0.000000 0.000000
# 2 -0.004704 0.007257 0.002460 0.000000 0.000000 0.000000
# 3 -0.005433 0.002460 0.024400 0.000000 0.000000 0.000000
# 4 0.000000 0.000000 0.000000 0.038962 0.000000 0.000000
# 5 0.000000 0.000000 0.000000 0.000000 0.019541 0.000000
# 6 0.000000 0.000000 0.000000 0.000000 0.000000 0.024900
#
#
# Mechanical properties :
#
#
# Convention : Reuss Voigt Hill
#
# Bulk Modulus (GPa) = 38.24264 72.86624 55.55444
# Shear Modulus (GPa) = 33.56210 42.37645 37.96928
#
# Velocity S-wave (km/s) = 3.55472 3.99432 3.78092
# Velocity P-wave (km/s) = 5.58984 6.97902 6.32270
#
# Compressibility (1/GPa) = 0.02614882
#
# Stress axis : x y z
#
# Youngs Moduli (GPa) = 101.55989 137.79176 40.98418
#
# Poissons Ratio (x) = 0.64812 0.22268
# Poissons Ratio (y) = 0.47770 -0.10081
# Poissons Ratio (z) = 0.55181 -0.33893
#
# Static dielectric constant tensor:
#      x y z
#    x 2.264940 0.000000 0.000000 
#    y 0.000000 2.198040 0.000000 
#    z 0.000000 0.000000 2.223690 
# 
# From -- ./inp_files/2920.got.cif
#   From: 2010.05.17/outbox.cif.g08.bks.cpg/sg60_2_cif.got.tgz:2920.got - 2010.06.03 14:59:27.
