data_PCOD9457794
_publ_section_title
;
Structure prediction by ZEFSAII (Michael W. Deem and Ramdas Pophale) SiO2 
 PCOD9457794
Probable space group: P B C N
;
_chemical_formula_sum "Si O2"
_cell_formula_units_Z 32
_cell_length_a 5.512793
_cell_length_b 29.049157
_cell_length_c 8.839779
_cell_angle_alpha 90.000000
_cell_angle_beta 90.000000
_cell_angle_gamma 90.000000
_cell_volume 1415.619795
_symmetry_space_group_name_H-M "P B C N"
_symmetry_group_IT_number 60
_symmetry_cell_setting 'orthorhombic'
loop_
_space_group_symop_operation_xyz
x,y,z
1/2-x,1/2-y,1/2+z
1/2+x,1/2-y,-z
-x,y,1/2-z
-x,-y,-z
1/2+x,1/2+y,1/2-z
1/2-x,1/2+y,z
x,-y,1/2+z
loop_
_atom_site_type_symbol
_atom_site_label
_atom_site_fract_x
_atom_site_fract_y
_atom_site_fract_z
Si Si1 0.000000 0.925429 0.750000
Si Si2 0.177879 0.542830 0.987017
Si Si3 0.029261 0.270353 0.931800
Si Si4 0.185779 0.625489 0.486111
Si Si5 0.500000 0.417040 0.250000
O O1 0.129355 0.955760 0.622511
O O2 0.184080 0.891728 0.834634
O O3 0.311060 0.548990 0.829258
O O4 0.000000 0.500000 0.000000
O O5 0.033006 0.590322 0.997053
O O6 0.093382 0.323008 0.973020
O O7 0.000000 0.265018 0.750000
O O8 0.270216 0.243136 0.991449
O O9 0.368901 0.614711 0.624798
#
# Coordination Sequence:
#
# PCOD9457794 Si02
#       5
#     4   8   8   8   4
#     4  10  24  45  74 102 146 196 248 306 383 454
#     4  11  25  45  72 107 147 197 251 308 380 457
#     4  12  30  51  83 119 159 210 268 331 404 475
#     4  11  26  47  75 108 150 194 251 315 382 462
#     4  10  26  45  74 106 148 194 252 310 383 452
#
# _framework density 22.604939999999999
#
# number of rings (size 3 to 8) (size 9 to 14) (size 15 to 20)
#    0.000    1.000    0.000    3.750   12.250   12.000 
#    0.000    3.750    0.000    0.000    0.000    0.000 
#    0.000    0.000    0.000    0.000    0.000    0.000 
#
# Total GULP energy -179287.715033 kJ/mol
# GULP energy per Si atom -5602.741095 kJ/mol
# Density = 2.255349 g / cm^3
# Si number density = 22.604940 Si / 1000 Ang^3
#
#
#
# Elastic Constant Matrix: (Units=GPa)
#
#
# Indices 1 2 3 4 5 6 
#
# 1 114.8831 50.4034 39.6285 0.0000 0.0000 0.0000
# 2 50.4034 147.4178 38.0266 0.0000 0.0000 0.0000
# 3 39.6285 38.0266 112.6777 0.0000 0.0000 0.0000
# 4 0.0000 0.0000 0.0000 34.8175 0.0000 0.0000
# 5 0.0000 0.0000 0.0000 0.0000 56.3107 0.0000
# 6 0.0000 0.0000 0.0000 0.0000 0.0000 46.8135
#
#
#
# Elastic Compliance Matrix: (Units=1/GPa)
#
#
# Indices 1 2 3 4 5 6 
#
# 1 0.011018 -0.003032 -0.002852 0.000000 0.000000 0.000000
# 2 -0.003032 0.008264 -0.001723 0.000000 0.000000 0.000000
# 3 -0.002852 -0.001723 0.010459 0.000000 0.000000 0.000000
# 4 0.000000 0.000000 0.000000 0.028721 0.000000 0.000000
# 5 0.000000 0.000000 0.000000 0.000000 0.017759 0.000000
# 6 0.000000 0.000000 0.000000 0.000000 0.000000 0.021361
#
#
# Mechanical properties :
#
#
# Convention : Reuss Voigt Hill
#
# Bulk Modulus (GPa) = 68.82725 70.12174 69.47450
# Shear Modulus (GPa) = 42.50280 44.04968 43.27624
#
# Velocity S-wave (km/s) = 4.34088 4.41917 4.38020
# Velocity P-wave (km/s) = 7.45911 7.55822 7.50883
#
# Compressibility (1/GPa) = 0.01452913
#
# Stress axis : x y z
#
# Youngs Moduli (GPa) = 90.75753 121.00122 95.60808
#
# Poissons Ratio (x) = 0.36683 0.27268
# Poissons Ratio (y) = 0.27514 0.16472
# Poissons Ratio (z) = 0.25884 0.20847
#
# Static dielectric constant tensor:
#      x y z
#    x 1.816500 0.000000 0.000000 
#    y 0.000000 1.786660 0.000000 
#    z 0.000000 0.000000 1.849440 
# 
# From -- ./inp_files/3074.got.cif
#   From: 2010.05.17/outbox.cif.g08.bks.cpg/sg60_2_cif.got.tgz:3074.got - 2010.06.03 14:59:27.
