data_PCOD9457583
_publ_section_title
;
Structure prediction by ZEFSAII (Michael W. Deem and Ramdas Pophale) SiO2 
 PCOD9457583
Probable space group: P B C N
;
_chemical_formula_sum "Si O2"
_cell_formula_units_Z 40
_cell_length_a 9.265952
_cell_length_b 22.876372
_cell_length_c 8.738253
_cell_angle_alpha 90.000000
_cell_angle_beta 90.000000
_cell_angle_gamma 90.000000
_cell_volume 1852.259415
_symmetry_space_group_name_H-M "P B C N"
_symmetry_group_IT_number 60
_symmetry_cell_setting 'orthorhombic'
loop_
_space_group_symop_operation_xyz
x,y,z
1/2-x,1/2-y,1/2+z
1/2+x,1/2-y,-z
-x,y,1/2-z
-x,-y,-z
1/2+x,1/2+y,1/2-z
1/2-x,1/2+y,z
x,-y,1/2+z
loop_
_atom_site_type_symbol
_atom_site_label
_atom_site_fract_x
_atom_site_fract_y
_atom_site_fract_z
Si Si1 0.931561 0.445353 0.082523
Si Si2 0.824725 0.789178 0.498709
Si Si3 0.502095 0.821208 0.933567
Si Si4 0.500000 0.634388 0.250000
Si Si5 0.894068 0.943987 0.004668
Si Si6 0.000000 0.851329 0.250000
O O1 0.761941 0.458472 0.070417
O O2 0.000000 0.440366 0.250000
O O3 0.000000 0.500000 0.000000
O O4 0.967292 0.385558 0.995145
O O5 0.654800 0.798133 0.514366
O O6 0.907902 0.825444 0.632829
O O7 0.876731 0.722404 0.499789
O O8 0.879423 0.812645 0.333457
O O9 0.500000 0.821110 0.750000
O O10 0.604829 0.590098 0.342719
O O11 0.948560 0.894410 0.118918
O O12 0.000000 0.000000 0.000000
#
# Coordination Sequence:
#
# PCOD9457583 Si02
#       6
#     8   8   8   4   8   4
#     4  12  30  48  73 104 149 195 246 307 374 446
#     4  11  26  44  75 107 147 190 244 311 371 443
#     4  12  28  48  75 107 153 194 252 303 379 446
#     4  10  25  42  74 106 145 188 248 308 378 440
#     4  11  25  44  76 101 143 190 251 298 367 441
#     4  10  23  46  70 104 141 182 246 298 372 430
#
# _framework density 21.595247000000001
#
# number of rings (size 3 to 8) (size 9 to 14) (size 15 to 20)
#    0.000    0.800    1.000    3.600   21.000    0.000 
#    0.000    0.000    0.000    0.000    0.000    0.000 
#    0.000    0.000    0.000    0.000    0.000    0.000 
#
# Total GULP energy -223861.221053 kJ/mol
# GULP energy per Si atom -5596.530526 kJ/mol
# Density = 2.154609 g / cm^3
# Si number density = 21.595247 Si / 1000 Ang^3
#
#
#
# Elastic Constant Matrix: (Units=GPa)
#
#
# Indices 1 2 3 4 5 6 
#
# 1 140.8585 62.6288 31.8634 0.0000 0.0000 0.0000
# 2 62.6288 186.1422 52.0497 0.0000 0.0000 0.0000
# 3 31.8634 52.0497 118.2379 0.0000 0.0000 0.0000
# 4 0.0000 0.0000 0.0000 28.3116 0.0000 0.0000
# 5 0.0000 0.0000 0.0000 0.0000 36.6559 0.0000
# 6 0.0000 0.0000 0.0000 0.0000 0.0000 26.0721
#
#
#
# Elastic Compliance Matrix: (Units=1/GPa)
#
#
# Indices 1 2 3 4 5 6 
#
# 1 0.008489 -0.002528 -0.001175 0.000000 0.000000 0.000000
# 2 -0.002528 0.006879 -0.002347 0.000000 0.000000 0.000000
# 3 -0.001175 -0.002347 0.009807 0.000000 0.000000 0.000000
# 4 0.000000 0.000000 0.000000 0.035321 0.000000 0.000000
# 5 0.000000 0.000000 0.000000 0.000000 0.027281 0.000000
# 6 0.000000 0.000000 0.000000 0.000000 0.000000 0.038355
#
#
# Mechanical properties :
#
#
# Convention : Reuss Voigt Hill
#
# Bulk Modulus (GPa) = 76.47588 82.03582 79.25585
# Shear Modulus (GPa) = 35.06551 38.12104 36.59328
#
# Velocity S-wave (km/s) = 4.03396 4.20605 4.12090
# Velocity P-wave (km/s) = 7.56223 7.85227 7.70861
#
# Compressibility (1/GPa) = 0.01307602
#
# Stress axis : x y z
#
# Youngs Moduli (GPa) = 117.80031 145.37087 101.96425
#
# Poissons Ratio (x) = 0.36744 0.11980
# Poissons Ratio (y) = 0.29775 0.23931
# Poissons Ratio (z) = 0.13841 0.34119
#
# Static dielectric constant tensor:
#      x y z
#    x 1.761300 0.000000 0.000000 
#    y 0.000000 1.825200 0.000000 
#    z 0.000000 0.000000 1.781850 
# 
# From -- ./inp_files/3887.got.cif
#   From: 2010.05.17/outbox.cif.g08.bks.cpg/sg60_2_cif.got.tgz:3887.got - 2010.06.03 14:59:27.
