data_PCOD9457926
_publ_section_title
;
Structure prediction by ZEFSAII (Michael W. Deem and Ramdas Pophale) SiO2 
 PCOD9457926
Probable space group: P B C N
;
_chemical_formula_sum "Si O2"
_cell_formula_units_Z 32
_cell_length_a 6.937756
_cell_length_b 9.794826
_cell_length_c 17.763794
_cell_angle_alpha 90.000000
_cell_angle_beta 90.000000
_cell_angle_gamma 90.000000
_cell_volume 1207.122862
_symmetry_space_group_name_H-M "P B C N"
_symmetry_group_IT_number 60
_symmetry_cell_setting 'orthorhombic'
loop_
_space_group_symop_operation_xyz
x,y,z
1/2-x,1/2-y,1/2+z
1/2+x,1/2-y,-z
-x,y,1/2-z
-x,-y,-z
1/2+x,1/2+y,1/2-z
1/2-x,1/2+y,z
x,-y,1/2+z
loop_
_atom_site_type_symbol
_atom_site_label
_atom_site_fract_x
_atom_site_fract_y
_atom_site_fract_z
Si Si1 0.298689 0.650409 0.227014
Si Si2 0.799299 0.787322 0.119376
Si Si3 0.934104 0.423551 0.361792
Si Si4 0.862992 0.875714 0.479684
O O1 0.500000 0.577112 0.250000
O O2 0.201884 0.711662 0.301406
O O3 0.164820 0.544668 0.183921
O O4 0.373181 0.780103 0.177839
O O5 0.665820 0.921502 0.133061
O O6 0.011131 0.803657 0.085556
O O7 0.681182 0.711594 0.053116
O O8 0.835268 0.424061 0.443091
O O9 0.000000 0.000000 0.500000
#
# Coordination Sequence:
#
# PCOD9457926 Si02
#       4
#     8   8   8   8
#     4  10  25  48  74 110 151 192 258 308 372 455
#     4  11  26  49  72 115 146 201 252 311 385 453
#     4  11  25  50  76 107 152 198 249 314 378 453
#     4  12  26  46  77 107 154 194 250 316 381 459
#
# _framework density 26.509315000000001
#
# number of rings (size 3 to 8) (size 9 to 14) (size 15 to 20)
#    0.000    1.000    2.500    3.000    7.000    3.000 
#    9.000    0.000    0.000    0.000    0.000    0.000 
#    0.000    0.000    0.000    0.000    0.000    0.000 
#
# Total GULP energy -179675.320627 kJ/mol
# GULP energy per Si atom -5614.853770 kJ/mol
# Density = 2.644898 g / cm^3
# Si number density = 26.509315 Si / 1000 Ang^3
#
#
#
# Elastic Constant Matrix: (Units=GPa)
#
#
# Indices 1 2 3 4 5 6 
#
# 1 117.4355 33.7723 24.9160 0.0000 0.0000 0.0000
# 2 33.7723 72.9629 18.1347 0.0000 0.0000 0.0000
# 3 24.9160 18.1347 124.2472 0.0000 0.0000 0.0000
# 4 0.0000 0.0000 0.0000 37.3358 0.0000 0.0000
# 5 0.0000 0.0000 0.0000 0.0000 53.2221 0.0000
# 6 0.0000 0.0000 0.0000 0.0000 0.0000 43.4127
#
#
#
# Elastic Compliance Matrix: (Units=1/GPa)
#
#
# Indices 1 2 3 4 5 6 
#
# 1 0.010048 -0.004306 -0.001386 0.000000 0.000000 0.000000
# 2 -0.004306 0.016067 -0.001482 0.000000 0.000000 0.000000
# 3 -0.001386 -0.001482 0.008543 0.000000 0.000000 0.000000
# 4 0.000000 0.000000 0.000000 0.026784 0.000000 0.000000
# 5 0.000000 0.000000 0.000000 0.000000 0.018789 0.000000
# 6 0.000000 0.000000 0.000000 0.000000 0.000000 0.023035
#
#
# Mechanical properties :
#
#
# Convention : Reuss Voigt Hill
#
# Bulk Modulus (GPa) = 49.23869 52.03239 50.63554
# Shear Modulus (GPa) = 40.19818 42.64895 41.42356
#
# Velocity S-wave (km/s) = 3.89830 4.01537 3.95727
# Velocity P-wave (km/s) = 6.23512 6.41624 6.32633
#
# Compressibility (1/GPa) = 0.02030923
#
# Stress axis : x y z
#
# Youngs Moduli (GPa) = 99.52356 62.23911 117.05845
#
# Poissons Ratio (x) = 0.26802 0.16229
# Poissons Ratio (y) = 0.42857 0.17343
# Poissons Ratio (z) = 0.13798 0.09221
#
# Static dielectric constant tensor:
#      x y z
#    x 0.470490 0.000000 0.000000 
#    y 0.000000 2.134880 0.000000 
#    z 0.000000 0.000000 2.086000 
# 
# From -- ./inp_files/18950.got.cif
#   From: 2010.05.17/outbox.cif.g08.bks.cpg/sg60_10_cif.got.tgz:18950.got - 2010.06.03 14:59:27.
