data_PCOD9457743
_publ_section_title
;
Structure prediction by ZEFSAII (Michael W. Deem and Ramdas Pophale) SiO2 
 PCOD9457743
Probable space group: P B C N
;
_chemical_formula_sum "Si O2"
_cell_formula_units_Z 56
_cell_length_a 14.199115
_cell_length_b 9.319557
_cell_length_c 20.382852
_cell_angle_alpha 90.000000
_cell_angle_beta 90.000000
_cell_angle_gamma 90.000000
_cell_volume 2697.251831
_symmetry_space_group_name_H-M "P B C N"
_symmetry_group_IT_number 60
_symmetry_cell_setting 'orthorhombic'
loop_
_space_group_symop_operation_xyz
x,y,z
1/2-x,1/2-y,1/2+z
1/2+x,1/2-y,-z
-x,y,1/2-z
-x,-y,-z
1/2+x,1/2+y,1/2-z
1/2-x,1/2+y,z
x,-y,1/2+z
loop_
_atom_site_type_symbol
_atom_site_label
_atom_site_fract_x
_atom_site_fract_y
_atom_site_fract_z
Si Si1 0.706297 0.675842 0.282758
Si Si2 0.500000 0.557248 0.250000
Si Si3 0.306391 0.290483 0.408412
Si Si4 0.257024 0.975622 0.996343
Si Si5 0.312434 0.778174 0.583154
Si Si6 0.493439 0.295430 0.153055
Si Si7 0.808996 0.559322 0.705366
Si Si8 0.000000 0.447733 0.750000
O O1 0.595598 0.642138 0.268688
O O2 0.751107 0.659061 0.355344
O O3 0.722195 0.841180 0.265983
O O4 0.759468 0.588317 0.225309
O O5 0.507317 0.445869 0.189614
O O6 0.318795 0.412987 0.464906
O O7 0.280244 0.136494 0.438361
O O8 0.403437 0.262101 0.372036
O O9 0.229166 0.361717 0.359476
O O10 0.238985 0.859951 0.053013
O O11 0.324880 0.094803 0.029527
O O12 0.413154 0.709805 0.599677
O O13 0.456231 0.166734 0.199698
O O14 0.920871 0.537236 0.712178
#
# Coordination Sequence:
#
# PCOD9457743 Si02
#       8
#     8   4   8   8   8   8   8   4
#     4  12  23  41  67  99 134 168 213 279 340 404
#     4  11  23  38  62 106 136 168 212 266 360 406
#     4  11  23  42  67  94 132 179 224 279 331 400
#     4  10  24  44  64  90 128 184 230 272 334 386
#     4  11  23  42  67  94 132 179 224 279 331 400
#     4  11  22  38  66  98 134 174 219 276 338 410
#     4  12  23  41  67  99 134 168 213 279 340 404
#     4  11  23  38  62 106 136 168 212 266 360 406
#
# _framework density 20.761873000000001
#
# number of rings (size 3 to 8) (size 9 to 14) (size 15 to 20)
#    0.000    0.857    2.857    5.571    0.000    1.143 
#    0.000    0.000    0.000    0.000    0.000    0.000 
#    0.000    0.000    0.000    0.000    0.000    0.000 
#
# Total GULP energy -311747.963703 kJ/mol
# GULP energy per Si atom -5566.927923 kJ/mol
# Density = 2.071462 g / cm^3
# Si number density = 20.761873 Si / 1000 Ang^3
#
#
#
# Elastic Constant Matrix: (Units=GPa)
#
#
# Indices 1 2 3 4 5 6 
#
# 1 94.6050 15.9749 22.4129 0.0000 0.0000 0.0000
# 2 15.9749 111.7111 25.5830 0.0000 0.0000 0.0000
# 3 22.4129 25.5830 62.1439 0.0000 0.0000 0.0000
# 4 0.0000 0.0000 0.0000 66.2153 0.0000 0.0000
# 5 0.0000 0.0000 0.0000 0.0000 -11.0022 0.0000
# 6 0.0000 0.0000 0.0000 0.0000 0.0000 39.2951
#
#
#
# Elastic Compliance Matrix: (Units=1/GPa)
#
#
# Indices 1 2 3 4 5 6 
#
# 1 0.011618 -0.000775 -0.003871 0.000000 0.000000 0.000000
# 2 -0.000775 0.009935 -0.003811 0.000000 0.000000 0.000000
# 3 -0.003871 -0.003811 0.019057 0.000000 0.000000 0.000000
# 4 0.000000 0.000000 0.000000 0.015102 0.000000 0.000000
# 5 0.000000 0.000000 0.000000 0.000000 -0.090891 0.000000
# 6 0.000000 0.000000 0.000000 0.000000 0.000000 0.025448
#
#
# Mechanical properties :
#
#
# Convention : Reuss Voigt Hill
#
# Bulk Modulus (GPa) = 42.20015 44.04462 43.12239
# Shear Modulus (GPa) = 331.52556 32.53426 182.02991
#
# Velocity S-wave (km/s) = 12.65016 3.96285 9.37366
# Velocity P-wave (km/s) = 15.28852 6.49609 11.74602
#
# Compressibility (1/GPa) = 0.02369660
#
# Stress axis : x y z
#
# Youngs Moduli (GPa) = 86.07149 100.65296 52.47521
#
# Poissons Ratio (x) = 0.07799 0.20315
# Poissons Ratio (y) = 0.06669 0.19996
# Poissons Ratio (z) = 0.33321 0.38354
#
# Static dielectric constant tensor:
#      x y z
#    x 1.954670 0.000000 0.000000 
#    y 0.000000 1.768580 0.000000 
#    z 0.000000 0.000000 1.495400 
# 
# From -- ./inp_files/17754.got.cif
#   From: 2010.05.17/outbox.cif.g08.bks.cpg/sg60_9_cif.got.tgz:17754.got - 2010.06.03 14:59:27.
