data_PCOD9457689
_publ_section_title
;
Structure prediction by ZEFSAII (Michael W. Deem and Ramdas Pophale) SiO2 
 PCOD9457689
Probable space group: P B C N
;
_chemical_formula_sum "Si O2"
_cell_formula_units_Z 32
_cell_length_a 13.756499
_cell_length_b 18.326143
_cell_length_c 5.490889
_cell_angle_alpha 90.000000
_cell_angle_beta 90.000000
_cell_angle_gamma 90.000000
_cell_volume 1384.272708
_symmetry_space_group_name_H-M "P B C N"
_symmetry_group_IT_number 60
_symmetry_cell_setting 'orthorhombic'
loop_
_space_group_symop_operation_xyz
x,y,z
1/2-x,1/2-y,1/2+z
1/2+x,1/2-y,-z
-x,y,1/2-z
-x,-y,-z
1/2+x,1/2+y,1/2-z
1/2-x,1/2+y,z
x,-y,1/2+z
loop_
_atom_site_type_symbol
_atom_site_label
_atom_site_fract_x
_atom_site_fract_y
_atom_site_fract_z
Si Si1 0.609383 0.974945 0.571113
Si Si2 0.000000 0.747844 0.750000
Si Si3 0.500000 0.453980 0.250000
Si Si4 0.158980 0.680874 0.446345
Si Si5 0.629026 0.674334 0.867967
O O1 0.613011 0.891855 0.664764
O O2 0.500000 0.000000 0.500000
O O3 0.654562 0.019966 0.797324
O O4 0.091445 0.697913 0.678841
O O5 0.959306 0.799173 0.538535
O O6 0.500000 0.500000 0.500000
O O7 0.406593 0.400148 0.252037
O O8 0.151163 0.755955 0.300055
O O9 0.271143 0.663535 0.488368
#
# Coordination Sequence:
#
# PCOD9457689 Si02
#       5
#     8   4   4   8   8
#     4  10  24  42  66 106 146 192 231 293 389 452
#     4  12  23  46  74 111 152 190 258 332 401 452
#     4  12  29  52  78 111 164 218 264 326 401 486
#     4  12  26  45  79 111 150 194 264 326 387 474
#     4  12  27  46  78 113 148 208 265 328 396 469
#
# _framework density 23.116831000000001
#
# number of rings (size 3 to 8) (size 9 to 14) (size 15 to 20)
#    0.000    0.500    5.000    2.250   10.500    2.000 
#    0.000    0.000    0.000    0.000    0.000    0.000 
#    0.000    0.000    0.000    0.000    0.000    0.000 
#
# Total GULP energy -178705.393879 kJ/mol
# GULP energy per Si atom -5584.543559 kJ/mol
# Density = 2.306422 g / cm^3
# Si number density = 23.116831 Si / 1000 Ang^3
#
#
#
# Elastic Constant Matrix: (Units=GPa)
#
#
# Indices 1 2 3 4 5 6 
#
# 1 122.7008 44.3592 18.8050 0.0000 0.0000 0.0000
# 2 44.3592 151.9630 36.1915 0.0000 0.0000 0.0000
# 3 18.8050 36.1915 104.3882 0.0000 0.0000 0.0000
# 4 0.0000 0.0000 0.0000 49.5918 0.0000 0.0000
# 5 0.0000 0.0000 0.0000 0.0000 34.4767 0.0000
# 6 0.0000 0.0000 0.0000 0.0000 0.0000 -5.7456
#
#
#
# Elastic Compliance Matrix: (Units=1/GPa)
#
#
# Indices 1 2 3 4 5 6 
#
# 1 0.009171 -0.002489 -0.000789 0.000000 0.000000 0.000000
# 2 -0.002489 0.007848 -0.002273 0.000000 0.000000 0.000000
# 3 -0.000789 -0.002273 0.010510 0.000000 0.000000 0.000000
# 4 0.000000 0.000000 0.000000 0.020165 0.000000 0.000000
# 5 0.000000 0.000000 0.000000 0.000000 0.029005 0.000000
# 6 0.000000 0.000000 0.000000 0.000000 0.000000 -0.174048
#
#
# Mechanical properties :
#
#
# Convention : Reuss Voigt Hill
#
# Bulk Modulus (GPa) = 60.87477 64.19595 62.53536
# Shear Modulus (GPa) = -61.90286 34.31099 -13.79593
#
# Velocity S-wave (km/s) = -5.18039 3.85677 -2.44558
# Velocity P-wave (km/s) = 3.06450 6.90387 4.37448
#
# Compressibility (1/GPa) = 0.01642717
#
# Stress axis : x y z
#
# Youngs Moduli (GPa) = 109.04290 127.41473 95.15006
#
# Poissons Ratio (x) = 0.31714 0.07508
# Poissons Ratio (y) = 0.27142 0.21624
# Poissons Ratio (z) = 0.08604 0.28957
#
# Static dielectric constant tensor:
#      x y z
#    x 1.812120 0.000000 0.000000 
#    y 0.000000 1.913840 0.000000 
#    z 0.000000 0.000000 2.035930 
# 
# From -- ./inp_files/1056.got.cif
#   From: 2010.05.17/outbox.cif.g08.bks.cpg/sg60_1_cif.got.tgz:1056.got - 2010.06.03 14:59:27.
