data_PCOD9457641
_publ_section_title
;
Structure prediction by ZEFSAII (Michael W. Deem and Ramdas Pophale) SiO2 
 PCOD9457641
Probable space group: P B C N
;
_chemical_formula_sum "Si O2"
_cell_formula_units_Z 48
_cell_length_a 19.094195
_cell_length_b 20.894412
_cell_length_c 5.486197
_cell_angle_alpha 90.000000
_cell_angle_beta 90.000000
_cell_angle_gamma 90.000000
_cell_volume 2188.784002
_symmetry_space_group_name_H-M "P B C N"
_symmetry_group_IT_number 60
_symmetry_cell_setting 'orthorhombic'
loop_
_space_group_symop_operation_xyz
x,y,z
1/2-x,1/2-y,1/2+z
1/2+x,1/2-y,-z
-x,y,1/2-z
-x,-y,-z
1/2+x,1/2+y,1/2-z
1/2-x,1/2+y,z
x,-y,1/2+z
loop_
_atom_site_type_symbol
_atom_site_label
_atom_site_fract_x
_atom_site_fract_y
_atom_site_fract_z
Si Si1 0.830336 0.700853 0.049602
Si Si2 0.428100 0.274336 0.842155
Si Si3 0.062596 0.354891 0.594495
Si Si4 0.289503 0.463381 0.363690
Si Si5 0.879325 0.535066 0.674393
Si Si6 0.811319 0.169190 0.829160
O O1 0.871677 0.653898 0.227943
O O2 0.803464 0.762649 0.196739
O O3 0.881233 0.734937 0.853462
O O4 0.763712 0.662087 0.956608
O O5 0.500000 0.305671 0.750000
O O6 0.455338 0.217078 0.015484
O O7 0.375597 0.320717 0.985849
O O8 0.084195 0.396903 0.365440
O O9 0.000000 0.383326 0.750000
O O10 0.309178 0.497742 0.617167
O O11 0.204737 0.458702 0.349730
O O12 0.320336 0.391789 0.343227
O O13 0.899162 0.494797 0.432739
#
# Coordination Sequence:
#
# PCOD9457641 Si02
#       6
#     8   8   8   8   8   8
#     4  11  23  39  62  97 130 163 221 274 336 396
#     4  11  23  41  64  95 133 169 212 279 348 407
#     4  11  24  39  61  87 131 181 220 274 335 402
#     4  10  24  42  67  95 133 174 220 278 337 396
#     4  10  24  40  61  91 128 180 234 279 319 381
#     4  11  24  38  67 100 126 171 221 276 333 404
#
# _framework density 21.929984999999999
#
# number of rings (size 3 to 8) (size 9 to 14) (size 15 to 20)
#    0.000    1.333    3.333    1.000   14.000    0.667 
#    0.000    0.000    0.000    1.000    0.000    0.000 
#    0.000    0.000    0.000    0.000    0.000    0.000 
#
# Total GULP energy -268495.987764 kJ/mol
# GULP energy per Si atom -5593.666412 kJ/mol
# Density = 2.188007 g / cm^3
# Si number density = 21.929985 Si / 1000 Ang^3
#
#
#
# Elastic Constant Matrix: (Units=GPa)
#
#
# Indices 1 2 3 4 5 6 
#
# 1 47.8449 16.5730 23.5738 0.0000 0.0000 0.0000
# 2 16.5730 69.0660 29.5415 0.0000 0.0000 0.0000
# 3 23.5738 29.5415 95.9583 0.0000 0.0000 0.0000
# 4 0.0000 0.0000 0.0000 17.2025 0.0000 0.0000
# 5 0.0000 0.0000 0.0000 0.0000 28.5552 0.0000
# 6 0.0000 0.0000 0.0000 0.0000 0.0000 8.3775
#
#
#
# Elastic Compliance Matrix: (Units=1/GPa)
#
#
# Indices 1 2 3 4 5 6 
#
# 1 0.024627 -0.003825 -0.004872 0.000000 0.000000 0.000000
# 2 -0.003825 0.017269 -0.004377 0.000000 0.000000 0.000000
# 3 -0.004872 -0.004377 0.012966 0.000000 0.000000 0.000000
# 4 0.000000 0.000000 0.000000 0.058131 0.000000 0.000000
# 5 0.000000 0.000000 0.000000 0.000000 0.035020 0.000000
# 6 0.000000 0.000000 0.000000 0.000000 0.000000 0.119368
#
#
# Mechanical properties :
#
#
# Convention : Reuss Voigt Hill
#
# Bulk Modulus (GPa) = 34.82803 39.13841 36.98322
# Shear Modulus (GPa) = 16.49628 20.37243 18.43435
#
# Velocity S-wave (km/s) = 2.74565 3.05122 2.90246
# Velocity P-wave (km/s) = 5.09582 5.50445 5.30407
#
# Compressibility (1/GPa) = 0.02871250
#
# Stress axis : x y z
#
# Youngs Moduli (GPa) = 40.60653 57.90790 77.12765
#
# Poissons Ratio (x) = 0.22152 0.37579
# Poissons Ratio (y) = 0.15533 0.33755
# Poissons Ratio (z) = 0.19785 0.25344
#
# Static dielectric constant tensor:
#      x y z
#    x 1.811150 0.000000 0.000000 
#    y 0.000000 1.788710 0.000000 
#    z 0.000000 0.000000 1.891960 
# 
# From -- ./inp_files/1741.got.cif
#   From: 2010.05.17/outbox.cif.g08.bks.cpg/sg60_1_cif.got.tgz:1741.got - 2010.06.03 14:59:27.
