data_PCOD9457071
_publ_section_title
;
Structure prediction by ZEFSAII (Michael W. Deem and Ramdas Pophale) SiO2 
 PCOD9457071
Probable space group: P B C N
;
_chemical_formula_sum "Si O2"
_cell_formula_units_Z 56
_cell_length_a 5.674548
_cell_length_b 26.629936
_cell_length_c 15.767483
_cell_angle_alpha 90.000000
_cell_angle_beta 90.000000
_cell_angle_gamma 90.000000
_cell_volume 2382.669295
_symmetry_space_group_name_H-M "P B C N"
_symmetry_group_IT_number 60
_symmetry_cell_setting 'orthorhombic'
loop_
_space_group_symop_operation_xyz
x,y,z
1/2-x,1/2-y,1/2+z
1/2+x,1/2-y,-z
-x,y,1/2-z
-x,-y,-z
1/2+x,1/2+y,1/2-z
1/2-x,1/2+y,z
x,-y,1/2+z
loop_
_atom_site_type_symbol
_atom_site_label
_atom_site_fract_x
_atom_site_fract_y
_atom_site_fract_z
Si Si1 0.379484 0.449617 0.613465
Si Si2 0.683604 0.244904 0.048321
Si Si3 0.500000 0.481730 0.250000
Si Si4 0.642535 0.095385 0.824934
Si Si5 0.857663 0.419532 0.033578
Si Si6 0.458405 0.342045 0.352804
Si Si7 0.768127 0.368942 0.595584
Si Si8 0.500000 0.084874 0.250000
O O1 0.549519 0.486484 0.665094
O O2 0.276315 0.461125 0.521211
O O3 0.520786 0.398626 0.589056
O O4 0.174130 0.443596 0.684737
O O5 0.623497 0.287699 0.117637
O O6 0.746186 0.189872 0.081676
O O7 0.429679 0.239972 0.999153
O O8 0.705118 0.443699 0.272495
O O9 0.500000 0.122342 0.750000
O O10 0.522869 0.059836 0.893542
O O11 0.782075 0.137632 0.877670
O O12 0.704994 0.380975 0.092967
O O13 0.025863 0.391439 0.965148
O O14 0.500000 0.344305 0.250000
O O15 0.841340 0.380592 0.691228
#
# Coordination Sequence:
#
# PCOD9457071 Si02
#       8
#     8   8   4   8   8   8   8   4
#     4  11  24  46  77 105 150 194 253 317 398 466
#     4  12  27  47  75 117 156 201 263 322 393 472
#     4  12  26  46  73 112 150 195 252 332 398 482
#     4  12  25  46  74 103 153 197 258 323 393 464
#     4  11  23  45  74 105 144 203 245 315 383 458
#     4  12  25  49  74 111 152 205 257 318 390 460
#     4  11  23  44  74 108 153 191 252 309 385 463
#     4  10  22  42  71 106 140 197 240 310 384 458
#
# _framework density 23.503053999999999
#
# number of rings (size 3 to 8) (size 9 to 14) (size 15 to 20)
#    0.000    0.571    5.000    2.571    4.000    0.571 
#    0.000    5.000    0.000    0.000    0.000    0.000 
#    0.000    0.000    0.000    0.000    0.000    0.000 
#
# Total GULP energy -312206.034226 kJ/mol
# GULP energy per Si atom -5575.107754 kJ/mol
# Density = 2.344956 g / cm^3
# Si number density = 23.503054 Si / 1000 Ang^3
#
#
#
# Elastic Constant Matrix: (Units=GPa)
#
#
# Indices 1 2 3 4 5 6 
#
# 1 87.0508 12.2732 34.1311 0.0000 0.0000 0.0000
# 2 12.2732 80.0922 2.7257 0.0000 0.0000 0.0000
# 3 34.1311 2.7257 129.2814 0.0000 0.0000 0.0000
# 4 0.0000 0.0000 0.0000 17.3927 0.0000 0.0000
# 5 0.0000 0.0000 0.0000 0.0000 51.9443 0.0000
# 6 0.0000 0.0000 0.0000 0.0000 0.0000 0.9964
#
#
#
# Elastic Compliance Matrix: (Units=1/GPa)
#
#
# Indices 1 2 3 4 5 6 
#
# 1 0.013094 -0.001890 -0.003417 0.000000 0.000000 0.000000
# 2 -0.001890 0.012767 0.000230 0.000000 0.000000 0.000000
# 3 -0.003417 0.000230 0.008632 0.000000 0.000000 0.000000
# 4 0.000000 0.000000 0.000000 0.057495 0.000000 0.000000
# 5 0.000000 0.000000 0.000000 0.000000 0.019251 0.000000
# 6 0.000000 0.000000 0.000000 0.000000 0.000000 1.003623
#
#
# Mechanical properties :
#
#
# Convention : Reuss Voigt Hill
#
# Bulk Modulus (GPa) = 41.08652 43.85382 42.47017
# Shear Modulus (GPa) = 4.41255 30.55297 17.48276
#
# Velocity S-wave (km/s) = 1.37168 3.60940 2.73032
# Velocity P-wave (km/s) = 4.47526 6.00580 5.29611
#
# Compressibility (1/GPa) = 0.02433888
#
# Stress axis : x y z
#
# Youngs Moduli (GPa) = 76.37211 78.32429 115.84364
#
# Poissons Ratio (x) = 0.14805 0.39584
# Poissons Ratio (y) = 0.14436 -0.02663
# Poissons Ratio (z) = 0.26096 -0.01800
#
# Static dielectric constant tensor:
#      x y z
#    x 2.196860 0.000000 0.000000 
#    y 0.000000 1.856700 0.000000 
#    z 0.000000 0.000000 1.925040 
# 
# From -- ./inp_files/14125.got.cif
#   From: 2010.05.17/outbox.cif.g08.bks.cpg/sg60_8_cif.got.tgz:14125.got - 2010.06.03 14:59:27.
