data_PCOD9457251
_publ_section_title
;
Structure prediction by ZEFSAII (Michael W. Deem and Ramdas Pophale) SiO2 
 PCOD9457251
Probable space group: P B C N
;
_chemical_formula_sum "Si O2"
_cell_formula_units_Z 48
_cell_length_a 16.327083
_cell_length_b 27.964144
_cell_length_c 4.922570
_cell_angle_alpha 90.000000
_cell_angle_beta 90.000000
_cell_angle_gamma 90.000000
_cell_volume 2247.512061
_symmetry_space_group_name_H-M "P B C N"
_symmetry_group_IT_number 60
_symmetry_cell_setting 'orthorhombic'
loop_
_space_group_symop_operation_xyz
x,y,z
1/2-x,1/2-y,1/2+z
1/2+x,1/2-y,-z
-x,y,1/2-z
-x,-y,-z
1/2+x,1/2+y,1/2-z
1/2-x,1/2+y,z
x,-y,1/2+z
loop_
_atom_site_type_symbol
_atom_site_label
_atom_site_fract_x
_atom_site_fract_y
_atom_site_fract_z
Si Si1 0.591084 0.967852 0.687249
Si Si2 0.782845 0.611697 0.373002
Si Si3 0.177563 0.134772 0.654728
Si Si4 0.201326 0.760127 0.406883
Si Si5 0.000000 0.838959 0.250000
Si Si6 0.915551 0.692386 0.372759
Si Si7 0.000000 0.767794 0.750000
O O1 0.500000 0.947841 0.750000
O O2 0.662449 0.931865 0.766678
O O3 0.596473 0.985090 0.377777
O O4 0.726229 0.601620 0.632505
O O5 0.850028 0.652378 0.452106
O O6 0.722184 0.628836 0.132792
O O7 0.189602 0.188129 0.775914
O O8 0.079261 0.130561 0.659965
O O9 0.227648 0.762203 0.716573
O O10 0.127260 0.724259 0.357861
O O11 0.022744 0.804449 0.505469
O O12 0.000000 0.672291 0.250000
O O13 0.938526 0.731016 0.601165
#
# Coordination Sequence:
#
# PCOD9457251 Si02
#       7
#     8   8   8   8   4   8   4
#     4  10  22  46  72  98 131 167 200 248 323 404
#     4  12  26  41  65  98 126 160 212 270 322 378
#     4  12  24  41  61  91 125 168 221 267 313 369
#     4  12  23  39  54  77 120 171 217 260 304 352
#     4  12  26  42  64  84 126 182 228 268 314 368
#     4  12  26  38  57  87 127 171 219 262 311 362
#     4  12  24  38  58  82 122 184 234 256 306 372
#
# _framework density 21.356949
#
# number of rings (size 3 to 8) (size 9 to 14) (size 15 to 20)
#    0.000    0.333    5.833    2.500    7.000    0.000 
#    4.500    0.000    0.000    0.000    0.000   11.667 
#    0.000    0.000    0.000    0.000    0.000    0.000 
#
# Total GULP energy -268372.391062 kJ/mol
# GULP energy per Si atom -5591.091480 kJ/mol
# Density = 2.130834 g / cm^3
# Si number density = 21.356949 Si / 1000 Ang^3
#
#
#
# Elastic Constant Matrix: (Units=GPa)
#
#
# Indices 1 2 3 4 5 6 
#
# 1 154.9275 26.0562 35.6102 0.0000 0.0000 0.0000
# 2 26.0562 34.7322 -3.3531 0.0000 0.0000 0.0000
# 3 35.6102 -3.3531 105.7315 0.0000 0.0000 0.0000
# 4 0.0000 0.0000 0.0000 14.6415 0.0000 0.0000
# 5 0.0000 0.0000 0.0000 0.0000 31.8097 0.0000
# 6 0.0000 0.0000 0.0000 0.0000 0.0000 15.5512
#
#
#
# Elastic Compliance Matrix: (Units=1/GPa)
#
#
# Indices 1 2 3 4 5 6 
#
# 1 0.008224 -0.006457 -0.002975 0.000000 0.000000 0.000000
# 2 -0.006457 0.033950 0.003251 0.000000 0.000000 0.000000
# 3 -0.002975 0.003251 0.010563 0.000000 0.000000 0.000000
# 4 0.000000 0.000000 0.000000 0.068299 0.000000 0.000000
# 5 0.000000 0.000000 0.000000 0.000000 0.031437 0.000000
# 6 0.000000 0.000000 0.000000 0.000000 0.000000 0.064304
#
#
# Mechanical properties :
#
#
# Convention : Reuss Voigt Hill
#
# Bulk Modulus (GPa) = 24.76710 45.77975 35.27343
# Shear Modulus (GPa) = 20.61040 28.20569 24.40804
#
# Velocity S-wave (km/s) = 3.10989 3.63806 3.38429
# Velocity P-wave (km/s) = 4.95147 6.25535 5.64121
#
# Compressibility (1/GPa) = 0.04037614
#
# Stress axis : x y z
#
# Youngs Moduli (GPa) = 121.59015 29.45530 94.67086
#
# Poissons Ratio (x) = 0.19020 0.28162
# Poissons Ratio (y) = 0.78512 -0.30781
# Poissons Ratio (z) = 0.36170 -0.09577
#
# Static dielectric constant tensor:
#      x y z
#    x 1.903870 0.000000 0.000000 
#    y 0.000000 1.752110 0.000000 
#    z 0.000000 0.000000 1.830870 
# 
# From -- ./inp_files/1348.got.cif
#   From: 2010.05.17/outbox.cif.g08.bks.cpg/sg60_1_cif.got.tgz:1348.got - 2010.06.03 14:59:27.
