data_PCOD9457323
_publ_section_title
;
Structure prediction by ZEFSAII (Michael W. Deem and Ramdas Pophale) SiO2 
 PCOD9457323
Probable space group: P B C N
;
_chemical_formula_sum "Si O2"
_cell_formula_units_Z 56
_cell_length_a 11.672167
_cell_length_b 13.953651
_cell_length_c 16.332843
_cell_angle_alpha 90.000000
_cell_angle_beta 90.000000
_cell_angle_gamma 90.000000
_cell_volume 2660.119437
_symmetry_space_group_name_H-M "P B C N"
_symmetry_group_IT_number 60
_symmetry_cell_setting 'orthorhombic'
loop_
_space_group_symop_operation_xyz
x,y,z
1/2-x,1/2-y,1/2+z
1/2+x,1/2-y,-z
-x,y,1/2-z
-x,-y,-z
1/2+x,1/2+y,1/2-z
1/2-x,1/2+y,z
x,-y,1/2+z
loop_
_atom_site_type_symbol
_atom_site_label
_atom_site_fract_x
_atom_site_fract_y
_atom_site_fract_z
Si Si1 0.115801 0.738354 0.301386
Si Si2 0.123672 0.173070 0.484941
Si Si3 0.877383 0.154750 0.417811
Si Si4 0.369618 0.499007 0.726295
Si Si5 0.234399 0.190420 0.653206
Si Si6 0.264294 0.145097 0.922566
Si Si7 0.715228 0.058043 0.123121
O O1 0.208927 0.739831 0.228863
O O2 0.158567 0.820792 0.364254
O O3 0.124116 0.637762 0.349218
O O4 0.000000 0.751996 0.250000
O O5 0.142054 0.196398 0.579797
O O6 0.152850 0.264578 0.428897
O O7 0.218118 0.095842 0.456980
O O8 0.997040 0.143675 0.463681
O O9 0.848246 0.263590 0.387492
O O10 0.783019 0.130390 0.486134
O O11 0.877087 0.080856 0.343718
O O12 0.500000 0.529306 0.750000
O O13 0.289379 0.585519 0.691688
O O14 0.310032 0.454092 0.805950
O O15 0.325272 0.049690 0.891945
#
# Coordination Sequence:
#
# PCOD9457323 Si02
#       7
#     8   8   8   8   8   8   8
#     4  11  22  39  62  87 124 166 204 251 308 364
#     4  10  23  40  63  90 122 164 204 252 311 362
#     4  11  23  42  64  91 126 159 206 259 302 365
#     4  12  23  38  66  95 122 162 207 252 306 362
#     4  11  23  39  62  93 123 158 208 256 304 364
#     4  10  23  41  63  89 126 161 206 254 307 369
#     4  11  22  40  58  93 126 156 206 256 300 370
#
# _framework density 21.051687999999999
#
# number of rings (size 3 to 8) (size 9 to 14) (size 15 to 20)
#    0.000    1.143    4.286    2.143    2.000    1.143 
#    2.571    0.000    0.000    6.000    0.000    0.000 
#    0.000    0.000    0.000    0.000    0.000    0.000 
#
# Total GULP energy -312401.094274 kJ/mol
# GULP energy per Si atom -5578.590969 kJ/mol
# Density = 2.100377 g / cm^3
# Si number density = 21.051688 Si / 1000 Ang^3
#
#
#
# Elastic Constant Matrix: (Units=GPa)
#
#
# Indices 1 2 3 4 5 6 
#
# 1 10.0271 0.5145 -3.5219 0.0000 0.0000 0.0000
# 2 0.5145 116.4314 12.3569 0.0000 0.0000 0.0000
# 3 -3.5219 12.3569 83.3854 0.0000 0.0000 0.0000
# 4 0.0000 0.0000 0.0000 25.3684 0.0000 0.0000
# 5 0.0000 0.0000 0.0000 0.0000 20.9066 0.0000
# 6 0.0000 0.0000 0.0000 0.0000 0.0000 9.2621
#
#
#
# Elastic Compliance Matrix: (Units=1/GPa)
#
#
# Indices 1 2 3 4 5 6 
#
# 1 0.101328 -0.000916 0.004416 0.000000 0.000000 0.000000
# 2 -0.000916 0.008734 -0.001333 0.000000 0.000000 0.000000
# 3 0.004416 -0.001333 0.012377 0.000000 0.000000 0.000000
# 4 0.000000 0.000000 0.000000 0.039419 0.000000 0.000000
# 5 0.000000 0.000000 0.000000 0.000000 0.047832 0.000000
# 6 0.000000 0.000000 0.000000 0.000000 0.000000 0.107967
#
#
# Mechanical properties :
#
#
# Convention : Reuss Voigt Hill
#
# Bulk Modulus (GPa) = 7.88825 25.39365 16.64095
# Shear Modulus (GPa) = 14.06149 24.47370 19.26760
#
# Velocity S-wave (km/s) = 2.58728 3.41332 3.02860
# Velocity P-wave (km/s) = 3.56098 5.25577 4.48908
#
# Compressibility (1/GPa) = 0.12677077
#
# Stress axis : x y z
#
# Youngs Moduli (GPa) = 9.86897 114.49151 80.79798
#
# Poissons Ratio (x) = 0.10492 -0.35677
# Poissons Ratio (y) = 0.00904 0.10771
# Poissons Ratio (z) = -0.04358 0.15262
#
# Static dielectric constant tensor:
#      x y z
#    x 1.752680 0.000000 0.000000 
#    y 0.000000 1.787120 0.000000 
#    z 0.000000 0.000000 1.755540 
# 
# From -- ./inp_files/16190.got.cif
#   From: 2010.05.17/outbox.cif.g08.bks.cpg/sg60_9_cif.got.tgz:16190.got - 2010.06.03 14:59:27.
