data_PCOD9457250
_publ_section_title
;
Structure prediction by ZEFSAII (Michael W. Deem and Ramdas Pophale) SiO2 
 PCOD9457250
Probable space group: P B C N
;
_chemical_formula_sum "Si O2"
_cell_formula_units_Z 40
_cell_length_a 8.787916
_cell_length_b 22.128262
_cell_length_c 9.017931
_cell_angle_alpha 90.000000
_cell_angle_beta 90.000000
_cell_angle_gamma 90.000000
_cell_volume 1753.638655
_symmetry_space_group_name_H-M "P B C N"
_symmetry_group_IT_number 60
_symmetry_cell_setting 'orthorhombic'
loop_
_space_group_symop_operation_xyz
x,y,z
1/2-x,1/2-y,1/2+z
1/2+x,1/2-y,-z
-x,y,1/2-z
-x,-y,-z
1/2+x,1/2+y,1/2-z
1/2-x,1/2+y,z
x,-y,1/2+z
loop_
_atom_site_type_symbol
_atom_site_label
_atom_site_fract_x
_atom_site_fract_y
_atom_site_fract_z
Si Si1 0.320024 0.577953 0.772381
Si Si2 0.747225 0.674872 0.104735
Si Si3 0.500000 0.909241 0.750000
Si Si4 0.500000 0.594034 0.250000
Si Si5 0.318215 0.201141 0.734973
Si Si6 0.255306 0.019215 0.072043
O O1 0.500000 0.582344 0.750000
O O2 0.251669 0.642436 0.815005
O O3 0.250925 0.550233 0.621634
O O4 0.272359 0.530891 0.900031
O O5 0.883699 0.633343 0.162560
O O6 0.594624 0.637164 0.140061
O O7 0.741271 0.736510 0.198748
O O8 0.767933 0.693101 0.934850
O O9 0.592833 0.950228 0.865833
O O10 0.615020 0.552860 0.344534
O O11 0.500000 0.200042 0.750000
#
# Coordination Sequence:
#
# PCOD9457250 Si02
#       6
#     8   8   4   4   8   8
#     4  12  27  44  72 102 141 185 238 291 355 424
#     4  11  26  46  72 101 141 186 234 297 353 426
#     4  10  26  44  74  98 144 186 234 294 362 416
#     4  10  22  46  72  94 138 182 238 284 354 414
#     4  12  29  46  72 105 145 185 240 292 361 426
#     4  11  25  45  69 101 139 183 235 291 353 422
#
# _framework density 22.809716000000002
#
# number of rings (size 3 to 8) (size 9 to 14) (size 15 to 20)
#    0.000    0.800    2.000    3.000   16.800    0.800 
#    0.000    0.000    0.000    0.000    0.000    0.000 
#    0.000    0.000    0.000    0.000    0.000    0.000 
#
# Total GULP energy -224386.437432 kJ/mol
# GULP energy per Si atom -5609.660936 kJ/mol
# Density = 2.275780 g / cm^3
# Si number density = 22.809716 Si / 1000 Ang^3
#
#
#
# Elastic Constant Matrix: (Units=GPa)
#
#
# Indices 1 2 3 4 5 6 
#
# 1 119.9337 40.3434 20.1130 0.0000 0.0000 0.0000
# 2 40.3434 121.5515 6.8912 0.0000 0.0000 0.0000
# 3 20.1130 6.8912 95.6130 0.0000 0.0000 0.0000
# 4 0.0000 0.0000 0.0000 40.6517 0.0000 0.0000
# 5 0.0000 0.0000 0.0000 0.0000 24.5194 0.0000
# 6 0.0000 0.0000 0.0000 0.0000 0.0000 -6.1466
#
#
#
# Elastic Compliance Matrix: (Units=1/GPa)
#
#
# Indices 1 2 3 4 5 6 
#
# 1 0.009689 -0.003113 -0.001814 0.000000 0.000000 0.000000
# 2 -0.003113 0.009261 -0.000013 0.000000 0.000000 0.000000
# 3 -0.001814 -0.000013 0.010841 0.000000 0.000000 0.000000
# 4 0.000000 0.000000 0.000000 0.024599 0.000000 0.000000
# 5 0.000000 0.000000 0.000000 0.000000 0.040784 0.000000
# 6 0.000000 0.000000 0.000000 0.000000 0.000000 -0.162691
#
#
# Mechanical properties :
#
#
# Convention : Reuss Voigt Hill
#
# Bulk Modulus (GPa) = 50.21988 52.42149 51.32069
# Shear Modulus (GPa) = -98.04072 29.78826 -34.12623
#
# Velocity S-wave (km/s) = -6.56318 3.61771 -3.87218
# Velocity P-wave (km/s) = 5.94719 6.36258 1.59896
#
# Compressibility (1/GPa) = 0.01991243
#
# Stress axis : x y z
#
# Youngs Moduli (GPa) = 103.20654 107.98055 92.23989
#
# Poissons Ratio (x) = 0.33615 0.16731
# Poissons Ratio (y) = 0.32129 0.00116
# Poissons Ratio (z) = 0.18720 0.00136
#
# Static dielectric constant tensor:
#      x y z
#    x 1.814760 0.000000 0.000000 
#    y 0.000000 1.827260 0.000000 
#    z 0.000000 0.000000 1.834500 
# 
# From -- ./inp_files/3891.got.cif
#   From: 2010.05.17/outbox.cif.g08.bks.cpg/sg60_2_cif.got.tgz:3891.got - 2010.06.03 14:59:27.
