data_PCOD9457618
_publ_section_title
;
Structure prediction by ZEFSAII (Michael W. Deem and Ramdas Pophale) SiO2 
 PCOD9457618
Probable space group: P B C N
;
_chemical_formula_sum "Si O2"
_cell_formula_units_Z 48
_cell_length_a 17.761982
_cell_length_b 12.873669
_cell_length_c 10.228174
_cell_angle_alpha 90.000000
_cell_angle_beta 90.000000
_cell_angle_gamma 90.000000
_cell_volume 2338.793466
_symmetry_space_group_name_H-M "P B C N"
_symmetry_group_IT_number 60
_symmetry_cell_setting 'orthorhombic'
loop_
_space_group_symop_operation_xyz
x,y,z
1/2-x,1/2-y,1/2+z
1/2+x,1/2-y,-z
-x,y,1/2-z
-x,-y,-z
1/2+x,1/2+y,1/2-z
1/2-x,1/2+y,z
x,-y,1/2+z
loop_
_atom_site_type_symbol
_atom_site_label
_atom_site_fract_x
_atom_site_fract_y
_atom_site_fract_z
Si Si1 0.001571 0.711028 0.969178
Si Si2 0.500000 0.618954 0.250000
Si Si3 0.000000 0.354073 0.750000
Si Si4 0.251940 0.540842 0.486406
Si Si5 0.164724 0.075799 0.218444
Si Si6 0.164426 0.691861 0.630239
Si Si7 0.893691 0.464387 0.151373
O O1 0.041789 0.608592 0.910829
O O2 0.021652 0.806153 0.872796
O O3 0.911745 0.702937 0.953529
O O4 0.020113 0.713234 0.122309
O O5 0.575062 0.557036 0.283965
O O6 0.067379 0.432521 0.791189
O O7 0.294617 0.479488 0.598699
O O8 0.299523 0.541621 0.354569
O O9 0.233072 0.655332 0.540933
O O10 0.170292 0.492535 0.452912
O O11 0.176813 0.199088 0.200354
O O12 0.146015 0.602740 0.735630
#
# Coordination Sequence:
#
# PCOD9457618 Si02
#       7
#     8   4   4   8   8   8   8
#     4  11  20  37  64  97 131 173 210 259 331 396
#     4  10  23  50  68  83 124 178 234 277 326 385
#     4  12  21  30  62 107 138 166 206 263 334 411
#     4  12  26  42  65 103 134 172 220 272 337 402
#     4  11  27  46  70  91 127 178 225 284 336 388
#     4  11  22  42  64  97 139 172 214 267 332 396
#     4  12  20  37  63  99 138 173 205 260 331 407
#
# _framework density 20.523403999999999
#
# number of rings (size 3 to 8) (size 9 to 14) (size 15 to 20)
#    0.000    0.667    8.333    1.500    2.333    0.667 
#    0.000    3.333    0.000    0.000    0.000    0.000 
#    0.000    0.000    0.000    0.000    0.000    0.000 
#
# Total GULP energy -268358.013884 kJ/mol
# GULP energy per Si atom -5590.791956 kJ/mol
# Density = 2.047669 g / cm^3
# Si number density = 20.523404 Si / 1000 Ang^3
#
#
#
# Elastic Constant Matrix: (Units=GPa)
#
#
# Indices 1 2 3 4 5 6 
#
# 1 96.7310 35.8015 43.4270 0.0000 0.0000 0.0000
# 2 35.8015 21.0823 23.8930 0.0000 0.0000 0.0000
# 3 43.4270 23.8930 156.1564 0.0000 0.0000 0.0000
# 4 0.0000 0.0000 0.0000 2.0721 0.0000 0.0000
# 5 0.0000 0.0000 0.0000 0.0000 26.0643 0.0000
# 6 0.0000 0.0000 0.0000 0.0000 0.0000 24.4894
#
#
#
# Elastic Compliance Matrix: (Units=1/GPa)
#
#
# Indices 1 2 3 4 5 6 
#
# 1 0.027878 -0.046643 -0.000616 0.000000 0.000000 0.000000
# 2 -0.046643 0.135424 -0.007749 0.000000 0.000000 0.000000
# 3 -0.000616 -0.007749 0.007761 0.000000 0.000000 0.000000
# 4 0.000000 0.000000 0.000000 0.482609 0.000000 0.000000
# 5 0.000000 0.000000 0.000000 0.000000 0.038367 0.000000
# 6 0.000000 0.000000 0.000000 0.000000 0.000000 0.040834
#
#
# Mechanical properties :
#
#
# Convention : Reuss Voigt Hill
#
# Bulk Modulus (GPa) = 16.38126 53.35697 34.86912
# Shear Modulus (GPa) = 5.79215 21.91505 13.85360
#
# Velocity S-wave (km/s) = 1.68177 3.27128 2.60092
# Velocity P-wave (km/s) = 3.43077 6.35003 5.10358
#
# Compressibility (1/GPa) = 0.06104536
#
# Stress axis : x y z
#
# Youngs Moduli (GPa) = 35.87072 7.38422 128.85172
#
# Poissons Ratio (x) = 0.34442 0.07939
# Poissons Ratio (y) = 1.67313 0.99851
# Poissons Ratio (z) = 0.02210 0.05722
#
# Static dielectric constant tensor:
#      x y z
#    x 1.735880 0.000000 0.000000 
#    y 0.000000 1.731560 0.000000 
#    z 0.000000 0.000000 1.751980 
# 
# From -- ./inp_files/12439.got.cif
#   From: 2010.05.17/outbox.cif.g08.bks.cpg/sg60_7_cif.got.tgz:12439.got - 2010.06.03 14:59:27.
