data_PCOD9457977
_publ_section_title
;
Structure prediction by ZEFSAII (Michael W. Deem and Ramdas Pophale) SiO2 
 PCOD9457977
Probable space group: P B C N
;
_chemical_formula_sum "Si O2"
_cell_formula_units_Z 36
_cell_length_a 18.437749
_cell_length_b 9.340874
_cell_length_c 8.736782
_cell_angle_alpha 90.000000
_cell_angle_beta 90.000000
_cell_angle_gamma 90.000000
_cell_volume 1504.689574
_symmetry_space_group_name_H-M "P B C N"
_symmetry_group_IT_number 60
_symmetry_cell_setting 'orthorhombic'
loop_
_space_group_symop_operation_xyz
x,y,z
1/2-x,1/2-y,1/2+z
1/2+x,1/2-y,-z
-x,y,1/2-z
-x,-y,-z
1/2+x,1/2+y,1/2-z
1/2-x,1/2+y,z
x,-y,1/2+z
loop_
_atom_site_type_symbol
_atom_site_label
_atom_site_fract_x
_atom_site_fract_y
_atom_site_fract_z
Si Si1 0.372584 0.910656 0.756127
Si Si2 0.384404 0.355210 0.456596
Si Si3 0.710672 0.852672 0.048051
Si Si4 0.000000 0.387973 0.250000
Si Si5 0.599831 0.344368 0.681411
O O1 0.405356 0.782452 0.856623
O O2 0.321295 0.853250 0.622469
O O3 0.324368 0.013317 0.863336
O O4 0.436788 0.009580 0.687880
O O5 0.296659 0.359167 0.445926
O O6 0.401411 0.347364 0.635495
O O7 0.415502 0.501452 0.387199
O O8 0.677955 0.711382 0.127085
O O9 0.043026 0.280537 0.363401
#
# Coordination Sequence:
#
# PCOD9457977 Si02
#       5
#     8   8   8   4   8
#     4  11  24  41  71  94 134 176 211 269 318 394
#     4  12  23  41  66  99 127 168 215 271 333 378
#     4  11  22  41  65  99 130 166 213 268 333 389
#     4  10  26  48  62  94 128 174 226 254 324 384
#     4  11  26  41  65  93 133 169 214 273 318 392
#
# _framework density 23.925201000000001
#
# number of rings (size 3 to 8) (size 9 to 14) (size 15 to 20)
#    0.000    0.889    0.000    8.000    0.000    9.778 
#    0.000    0.000    0.000    0.000    0.000    0.000 
#    0.000    0.000    0.000    0.000    0.000    0.000 
#
# Total GULP energy -201686.874838 kJ/mol
# GULP energy per Si atom -5602.413190 kJ/mol
# Density = 2.387075 g / cm^3
# Si number density = 23.925201 Si / 1000 Ang^3
#
#
#
# Elastic Constant Matrix: (Units=GPa)
#
#
# Indices 1 2 3 4 5 6 
#
# 1 102.6299 20.5885 12.0912 0.0000 0.0000 0.0000
# 2 20.5885 149.5969 51.7809 0.0000 0.0000 0.0000
# 3 12.0912 51.7809 132.4035 0.0000 0.0000 0.0000
# 4 0.0000 0.0000 0.0000 41.1257 0.0000 0.0000
# 5 0.0000 0.0000 0.0000 0.0000 20.2896 0.0000
# 6 0.0000 0.0000 0.0000 0.0000 0.0000 34.1532
#
#
#
# Elastic Compliance Matrix: (Units=1/GPa)
#
#
# Indices 1 2 3 4 5 6 
#
# 1 0.010042 -0.001231 -0.000436 0.000000 0.000000 0.000000
# 2 -0.001231 0.007882 -0.002970 0.000000 0.000000 0.000000
# 3 -0.000436 -0.002970 0.008754 0.000000 0.000000 0.000000
# 4 0.000000 0.000000 0.000000 0.024316 0.000000 0.000000
# 5 0.000000 0.000000 0.000000 0.000000 0.049286 0.000000
# 6 0.000000 0.000000 0.000000 0.000000 0.000000 0.029280
#
#
# Mechanical properties :
#
#
# Convention : Reuss Voigt Hill
#
# Bulk Modulus (GPa) = 57.45697 61.50573 59.48135
# Shear Modulus (GPa) = 34.56965 39.12501 36.84733
#
# Velocity S-wave (km/s) = 3.80532 4.04828 3.92868
# Velocity P-wave (km/s) = 6.58594 6.90034 6.74497
#
# Compressibility (1/GPa) = 0.01740433
#
# Stress axis : x y z
#
# Youngs Moduli (GPa) = 99.58106 126.86867 114.23323
#
# Poissons Ratio (x) = 0.15621 0.04975
# Poissons Ratio (y) = 0.12262 0.33929
# Poissons Ratio (z) = 0.04337 0.37682
#
# Static dielectric constant tensor:
#      x y z
#    x 1.940500 0.000000 0.000000 
#    y 0.000000 1.914790 0.000000 
#    z 0.000000 0.000000 1.868830 
# 
# From -- ./inp_files/7164.got.cif
#   From: 2010.05.17/outbox.cif.g08.bks.cpg/sg60_4_cif.got.tgz:7164.got - 2010.06.03 14:59:27.
