data_PCOD9457192
_publ_section_title
;
Structure prediction by ZEFSAII (Michael W. Deem and Ramdas Pophale) SiO2 
 PCOD9457192
Probable space group: P B C N
;
_chemical_formula_sum "Si O2"
_cell_formula_units_Z 32
_cell_length_a 23.407669
_cell_length_b 6.044731
_cell_length_c 8.349650
_cell_angle_alpha 90.000000
_cell_angle_beta 90.000000
_cell_angle_gamma 90.000000
_cell_volume 1181.417549
_symmetry_space_group_name_H-M "P B C N"
_symmetry_group_IT_number 60
_symmetry_cell_setting 'orthorhombic'
loop_
_space_group_symop_operation_xyz
x,y,z
1/2-x,1/2-y,1/2+z
1/2+x,1/2-y,-z
-x,y,1/2-z
-x,-y,-z
1/2+x,1/2+y,1/2-z
1/2-x,1/2+y,z
x,-y,1/2+z
loop_
_atom_site_type_symbol
_atom_site_label
_atom_site_fract_x
_atom_site_fract_y
_atom_site_fract_z
Si Si1 0.635041 0.052028 0.051218
Si Si2 0.629962 0.324862 0.367097
Si Si3 0.961261 0.849502 0.883594
Si Si4 0.750493 0.485102 0.337814
O O1 0.640433 0.140870 0.229718
O O2 0.584945 0.192970 0.968721
O O3 0.698616 0.031815 0.969760
O O4 0.614201 0.801479 0.029166
O O5 0.579402 0.469942 0.301339
O O6 0.686040 0.466138 0.405796
O O7 0.000000 0.732716 0.750000
O O8 0.000000 0.000000 0.000000
O O9 0.746662 0.734662 0.260290
#
# Coordination Sequence:
#
# PCOD9457192 Si02
#       4
#     8   8   8   8
#     4  11  26  47  73 109 150 200 254 323 389 468
#     4  11  26  47  73 110 149 200 257 320 393 462
#     4  12  26  48  74 105 149 202 256 315 385 471
#     4  10  22  44  74 112 151 198 250 319 388 459
#
# _framework density 27.086107999999999
#
# number of rings (size 3 to 8) (size 9 to 14) (size 15 to 20)
#    0.000    1.000    5.000    0.000    3.500   10.000 
#    0.000    0.000    0.000    0.000    0.000    0.000 
#    0.000    0.000    0.000    0.000    0.000    0.000 
#
# Total GULP energy -178521.812274 kJ/mol
# GULP energy per Si atom -5578.806634 kJ/mol
# Density = 2.702446 g / cm^3
# Si number density = 27.086108 Si / 1000 Ang^3
#
#
#
# Elastic Constant Matrix: (Units=GPa)
#
#
# Indices 1 2 3 4 5 6 
#
# 1 152.9591 30.6372 54.1297 0.0000 0.0000 0.0000
# 2 30.6372 147.5461 33.3703 0.0000 0.0000 0.0000
# 3 54.1297 33.3703 78.9739 0.0000 0.0000 0.0000
# 4 0.0000 0.0000 0.0000 40.1332 0.0000 0.0000
# 5 0.0000 0.0000 0.0000 0.0000 50.2003 0.0000
# 6 0.0000 0.0000 0.0000 0.0000 0.0000 47.5188
#
#
#
# Elastic Compliance Matrix: (Units=1/GPa)
#
#
# Indices 1 2 3 4 5 6 
#
# 1 0.008665 -0.000504 -0.005726 0.000000 0.000000 0.000000
# 2 -0.000504 0.007523 -0.002833 0.000000 0.000000 0.000000
# 3 -0.005726 -0.002833 0.017784 0.000000 0.000000 0.000000
# 4 0.000000 0.000000 0.000000 0.024917 0.000000 0.000000
# 5 0.000000 0.000000 0.000000 0.000000 0.019920 0.000000
# 6 0.000000 0.000000 0.000000 0.000000 0.000000 0.021044
#
#
# Mechanical properties :
#
#
# Convention : Reuss Voigt Hill
#
# Bulk Modulus (GPa) = 63.11010 68.41705 65.76357
# Shear Modulus (GPa) = 40.56375 44.99326 42.77850
#
# Velocity S-wave (km/s) = 3.87406 4.08010 3.97842
# Velocity P-wave (km/s) = 6.58495 6.89277 6.74062
#
# Compressibility (1/GPa) = 0.01584533
#
# Stress axis : x y z
#
# Youngs Moduli (GPa) = 115.40619 132.92518 56.22934
#
# Poissons Ratio (x) = 0.06702 0.32197
# Poissons Ratio (y) = 0.05819 0.15931
# Poissons Ratio (z) = 0.66082 0.37661
#
# Static dielectric constant tensor:
#      x y z
#    x 2.127840 0.000000 0.000000 
#    y 0.000000 2.233330 0.000000 
#    z 0.000000 0.000000 2.098720 
# 
# From -- ./inp_files/12961.got.cif
#   From: 2010.05.17/outbox.cif.g08.bks.cpg/sg60_7_cif.got.tgz:12961.got - 2010.06.03 14:59:27.
