data_PCOD9457234
_publ_section_title
;
Structure prediction by ZEFSAII (Michael W. Deem and Ramdas Pophale) SiO2 
 PCOD9457234
Probable space group: P B C N
;
_chemical_formula_sum "Si O2"
_cell_formula_units_Z 60
_cell_length_a 27.459632
_cell_length_b 9.104076
_cell_length_c 11.456166
_cell_angle_alpha 90.000000
_cell_angle_beta 90.000000
_cell_angle_gamma 90.000000
_cell_volume 2863.979369
_symmetry_space_group_name_H-M "P B C N"
_symmetry_group_IT_number 60
_symmetry_cell_setting 'orthorhombic'
loop_
_space_group_symop_operation_xyz
x,y,z
1/2-x,1/2-y,1/2+z
1/2+x,1/2-y,-z
-x,y,1/2-z
-x,-y,-z
1/2+x,1/2+y,1/2-z
1/2-x,1/2+y,z
x,-y,1/2+z
loop_
_atom_site_type_symbol
_atom_site_label
_atom_site_fract_x
_atom_site_fract_y
_atom_site_fract_z
Si Si1 0.925683 0.735551 0.580264
Si Si2 0.758787 0.985619 0.539425
Si Si3 0.637574 0.560280 0.954646
Si Si4 0.591093 0.983946 0.387741
Si Si5 0.637289 0.713036 0.308566
Si Si6 0.739753 0.228984 0.697030
Si Si7 0.000000 0.377726 0.250000
Si Si8 0.184622 0.356887 0.634524
O O1 0.912592 0.888739 0.515559
O O2 0.919315 0.590778 0.497857
O O3 0.887922 0.740144 0.687740
O O4 0.977105 0.718746 0.645715
O O5 0.816090 0.019581 0.517599
O O6 0.757333 0.815255 0.573916
O O7 0.741199 0.061694 0.658740
O O8 0.721680 0.039169 0.439275
O O9 0.628359 0.455057 0.845103
O O10 0.660273 0.721329 0.934114
O O11 0.638031 0.052603 0.323165
O O12 0.612144 0.818373 0.405884
O O13 0.543264 0.971932 0.308157
O O14 0.693961 0.733301 0.277947
O O15 0.786656 0.273280 0.766972
#
# Coordination Sequence:
#
# PCOD9457234 Si02
#       8
#     8   8   8   8   8   8   4   8
#     4  10  22  46  68 100 129 168 226 284 346 398
#     4  12  23  37  56  89 135 182 217 261 315 384
#     4  11  23  41  59  92 138 176 220 270 331 401
#     4  10  23  42  70  99 131 170 226 287 335 403
#     4  11  22  41  64  95 137 182 219 271 332 395
#     4  12  23  36  59  90 133 184 222 255 315 389
#     4  10  22  46  78  98 126 170 224 296 354 396
#     4  11  24  39  59  92 134 174 228 266 312 399
#
# _framework density 20.949871000000002
#
# number of rings (size 3 to 8) (size 9 to 14) (size 15 to 20)
#    0.000    1.067    4.000    2.800    3.733    2.133 
#    0.000    2.667    0.000   13.600    0.000    0.000 
#    0.000    0.000    0.000    0.000    0.000    0.000 
#
# Total GULP energy -334205.551850 kJ/mol
# GULP energy per Si atom -5570.092531 kJ/mol
# Density = 2.090219 g / cm^3
# Si number density = 20.949871 Si / 1000 Ang^3
#
#
#
# Elastic Constant Matrix: (Units=GPa)
#
#
# Indices 1 2 3 4 5 6 
#
# 1 121.6084 30.2735 35.4608 0.0000 0.0000 0.0000
# 2 30.2735 74.7064 17.2551 0.0000 0.0000 0.0000
# 3 35.4608 17.2551 55.8676 0.0000 0.0000 0.0000
# 4 0.0000 0.0000 0.0000 32.6868 0.0000 0.0000
# 5 0.0000 0.0000 0.0000 0.0000 39.4280 0.0000
# 6 0.0000 0.0000 0.0000 0.0000 0.0000 24.3675
#
#
#
# Elastic Compliance Matrix: (Units=1/GPa)
#
#
# Indices 1 2 3 4 5 6 
#
# 1 0.010670 -0.002972 -0.005855 0.000000 0.000000 0.000000
# 2 -0.002972 0.015242 -0.002821 0.000000 0.000000 0.000000
# 3 -0.005855 -0.002821 0.022487 0.000000 0.000000 0.000000
# 4 0.000000 0.000000 0.000000 0.030593 0.000000 0.000000
# 5 0.000000 0.000000 0.000000 0.000000 0.025363 0.000000
# 6 0.000000 0.000000 0.000000 0.000000 0.000000 0.041038
#
#
# Mechanical properties :
#
#
# Convention : Reuss Voigt Hill
#
# Bulk Modulus (GPa) = 39.83545 46.46238 43.14891
# Shear Modulus (GPa) = 28.23957 30.57598 29.40777
#
# Velocity S-wave (km/s) = 3.67544 3.82446 3.75069
# Velocity P-wave (km/s) = 6.08833 6.45972 6.27677
#
# Compressibility (1/GPa) = 0.02510327
#
# Stress axis : x y z
#
# Youngs Moduli (GPa) = 93.71949 65.61008 44.46994
#
# Poissons Ratio (x) = 0.19497 0.26037
# Poissons Ratio (y) = 0.27849 0.12546
# Poissons Ratio (z) = 0.54871 0.18511
#
# Static dielectric constant tensor:
#      x y z
#    x 1.878340 0.000000 0.000000 
#    y 0.000000 1.773620 0.000000 
#    z 0.000000 0.000000 1.865580 
# 
# From -- ./inp_files/13278.got.cif
#   From: 2010.05.17/outbox.cif.g08.bks.cpg/sg60_7_cif.got.tgz:13278.got - 2010.06.03 14:59:27.
