data_PCOD9457498
_publ_section_title
;
Structure prediction by ZEFSAII (Michael W. Deem and Ramdas Pophale) SiO2 
 PCOD9457498
Probable space group: P B C N
;
_chemical_formula_sum "Si O2"
_cell_formula_units_Z 48
_cell_length_a 16.030013
_cell_length_b 24.951381
_cell_length_c 5.169580
_cell_angle_alpha 90.000000
_cell_angle_beta 90.000000
_cell_angle_gamma 90.000000
_cell_volume 2067.681885
_symmetry_space_group_name_H-M "P B C N"
_symmetry_group_IT_number 60
_symmetry_cell_setting 'orthorhombic'
loop_
_space_group_symop_operation_xyz
x,y,z
1/2-x,1/2-y,1/2+z
1/2+x,1/2-y,-z
-x,y,1/2-z
-x,-y,-z
1/2+x,1/2+y,1/2-z
1/2-x,1/2+y,z
x,-y,1/2+z
loop_
_atom_site_type_symbol
_atom_site_label
_atom_site_fract_x
_atom_site_fract_y
_atom_site_fract_z
Si Si1 0.500000 0.785959 0.250000
Si Si2 0.311327 0.037674 0.045539
Si Si3 0.091126 0.352721 0.612384
Si Si4 0.436838 0.310663 0.062418
Si Si5 0.798886 0.743397 0.182049
Si Si6 0.875526 0.033014 0.544220
Si Si7 0.500000 0.395397 0.750000
O O1 0.425745 0.825543 0.331250
O O2 0.489523 0.742081 0.476175
O O3 0.370027 0.089061 0.076551
O O4 0.215174 0.057451 0.023332
O O5 0.323945 0.998305 0.289667
O O6 0.151587 0.311955 0.767064
O O7 0.000000 0.354621 0.750000
O O8 0.500000 0.340010 0.250000
O O9 0.355152 0.290848 0.200675
O O10 0.427684 0.353670 0.838694
O O11 0.721213 0.745049 0.383024
O O12 0.953648 0.066902 0.452396
O O13 0.876993 0.017841 0.845915
#
# Coordination Sequence:
#
# PCOD9457498 Si02
#       7
#     4   8   8   8   8   8   4
#     4   9  20  42  62  92 130 176 212 279 334 408
#     4  10  25  47  68 101 140 177 229 294 343 408
#     4  11  26  43  75  98 139 185 234 283 354 409
#     4  10  24  41  66  96 142 171 228 286 333 407
#     4  11  27  44  68 101 140 183 226 278 340 416
#     4  10  23  44  66  97 141 179 227 284 345 413
#     4  11  24  38  72 100 130 186 226 283 342 416
#
# _framework density 23.214400999999999
#
# number of rings (size 3 to 8) (size 9 to 14) (size 15 to 20)
#    0.000    1.667    0.000    2.500   18.667    0.667 
#    3.000    0.000    0.000    0.000    0.000    0.000 
#    0.000    0.000    0.000    0.000    0.000    0.000 
#
# Total GULP energy -267899.598155 kJ/mol
# GULP energy per Si atom -5581.241628 kJ/mol
# Density = 2.316156 g / cm^3
# Si number density = 23.214401 Si / 1000 Ang^3
#
#
#
# Elastic Constant Matrix: (Units=GPa)
#
#
# Indices 1 2 3 4 5 6 
#
# 1 93.2129 58.1760 18.2447 0.0000 0.0000 0.0000
# 2 58.1760 94.9323 14.2218 0.0000 0.0000 0.0000
# 3 18.2447 14.2218 88.5718 0.0000 0.0000 0.0000
# 4 0.0000 0.0000 0.0000 13.3656 0.0000 0.0000
# 5 0.0000 0.0000 0.0000 0.0000 41.0099 0.0000
# 6 0.0000 0.0000 0.0000 0.0000 0.0000 24.0210
#
#
#
# Elastic Compliance Matrix: (Units=1/GPa)
#
#
# Indices 1 2 3 4 5 6 
#
# 1 0.017696 -0.010552 -0.001951 0.000000 0.000000 0.000000
# 2 -0.010552 0.017086 -0.000570 0.000000 0.000000 0.000000
# 3 -0.001951 -0.000570 0.011784 0.000000 0.000000 0.000000
# 4 0.000000 0.000000 0.000000 0.074819 0.000000 0.000000
# 5 0.000000 0.000000 0.000000 0.000000 0.024384 0.000000
# 6 0.000000 0.000000 0.000000 0.000000 0.000000 0.041630
#
#
# Mechanical properties :
#
#
# Convention : Reuss Voigt Hill
#
# Bulk Modulus (GPa) = 48.97221 50.88913 49.93067
# Shear Modulus (GPa) = 22.69120 28.08427 25.38773
#
# Velocity S-wave (km/s) = 3.12983 3.48196 3.31058
# Velocity P-wave (km/s) = 5.84829 6.17530 6.01402
#
# Compressibility (1/GPa) = 0.02041974
#
# Stress axis : x y z
#
# Youngs Moduli (GPa) = 56.51121 58.52898 84.86365
#
# Poissons Ratio (x) = 0.61759 0.16555
# Poissons Ratio (y) = 0.59630 0.04836
# Poissons Ratio (z) = 0.11024 0.03335
#
# Static dielectric constant tensor:
#      x y z
#    x 1.909460 0.000000 0.000000 
#    y 0.000000 1.817900 0.000000 
#    z 0.000000 0.000000 2.026060 
# 
# From -- ./inp_files/1342.got.cif
#   From: 2010.05.17/outbox.cif.g08.bks.cpg/sg60_1_cif.got.tgz:1342.got - 2010.06.03 14:59:27.
