data_PCOD9457337
_publ_section_title
;
Structure prediction by ZEFSAII (Michael W. Deem and Ramdas Pophale) SiO2 
 PCOD9457337
Probable space group: P B C N
;
_chemical_formula_sum "Si O2"
_cell_formula_units_Z 64
_cell_length_a 5.370974
_cell_length_b 16.642753
_cell_length_c 32.210077
_cell_angle_alpha 90.000000
_cell_angle_beta 90.000000
_cell_angle_gamma 90.000000
_cell_volume 2879.187716
_symmetry_space_group_name_H-M "P B C N"
_symmetry_group_IT_number 60
_symmetry_cell_setting 'orthorhombic'
loop_
_space_group_symop_operation_xyz
x,y,z
1/2-x,1/2-y,1/2+z
1/2+x,1/2-y,-z
-x,y,1/2-z
-x,-y,-z
1/2+x,1/2+y,1/2-z
1/2-x,1/2+y,z
x,-y,1/2+z
loop_
_atom_site_type_symbol
_atom_site_label
_atom_site_fract_x
_atom_site_fract_y
_atom_site_fract_z
Si Si1 0.254391 0.223817 0.227185
Si Si2 0.760264 0.384164 0.003729
Si Si3 0.747333 0.580860 0.772814
Si Si4 0.888815 0.266747 0.549206
Si Si5 0.301450 0.775906 0.629932
Si Si6 0.983451 0.878952 0.572284
Si Si7 0.298680 0.412564 0.130088
Si Si8 0.687716 0.973104 0.086683
O O1 0.500000 0.193365 0.250000
O O2 0.249770 0.321436 0.230508
O O3 0.301190 0.206694 0.178698
O O4 0.000000 0.195989 0.250000
O O5 0.593738 0.321402 0.030502
O O6 0.846032 0.443838 0.039287
O O7 0.621207 0.424860 0.965015
O O8 0.962248 0.328879 0.979841
O O9 0.500000 0.551071 0.750000
O O10 0.714776 0.563834 0.821504
O O11 0.000000 0.552648 0.750000
O O12 0.606167 0.296440 0.550886
O O13 0.970223 0.271882 0.597310
O O14 0.221884 0.681918 0.627160
O O15 0.140654 0.847171 0.610184
O O16 0.759373 0.933911 0.586320
O O17 0.571964 0.431109 0.110020
O O18 0.074617 0.458357 0.108029
#
# Coordination Sequence:
#
# PCOD9457337 Si02
#       8
#     8   8   8   8   8   8   8   8
#     4   9  19  34  60  99 129 157 202 267 323 375
#     4  11  23  40  63  91 124 170 222 272 320 384
#     4   9  17  34  61  93 127 155 204 266 320 372
#     4  11  22  39  65  93 124 167 223 272 327 377
#     4  10  23  40  68  95 130 171 221 268 329 383
#     4  11  26  42  62  92 130 180 212 274 322 393
#     4  11  24  41  66  99 127 172 215 271 325 391
#     4  12  27  42  63  94 137 171 220 264 331 388
#
# _framework density 22.228491999999999
#
# number of rings (size 3 to 8) (size 9 to 14) (size 15 to 20)
#    0.000    1.500    2.500    1.875    8.750    2.500 
#    0.000    0.000    0.000    3.000    0.000    0.000 
#    0.000    0.000    0.000    0.000    0.000    0.000 
#
# Total GULP energy -356977.940217 kJ/mol
# GULP energy per Si atom -5577.780316 kJ/mol
# Density = 2.217790 g / cm^3
# Si number density = 22.228492 Si / 1000 Ang^3
#
#
#
# Elastic Constant Matrix: (Units=GPa)
#
#
# Indices 1 2 3 4 5 6 
#
# 1 103.6328 2.9125 71.5921 0.0000 0.0000 0.0000
# 2 2.9125 41.3223 25.5704 0.0000 0.0000 0.0000
# 3 71.5921 25.5704 180.7438 0.0000 0.0000 0.0000
# 4 0.0000 0.0000 0.0000 9.6959 0.0000 0.0000
# 5 0.0000 0.0000 0.0000 0.0000 23.3223 0.0000
# 6 0.0000 0.0000 0.0000 0.0000 0.0000 3.8941
#
#
#
# Elastic Compliance Matrix: (Units=1/GPa)
#
#
# Indices 1 2 3 4 5 6 
#
# 1 0.013533 0.002590 -0.005727 0.000000 0.000000 0.000000
# 2 0.002590 0.027018 -0.004848 0.000000 0.000000 0.000000
# 3 -0.005727 -0.004848 0.008487 0.000000 0.000000 0.000000
# 4 0.000000 0.000000 0.000000 0.103136 0.000000 0.000000
# 5 0.000000 0.000000 0.000000 0.000000 0.042877 0.000000
# 6 0.000000 0.000000 0.000000 0.000000 0.000000 0.256796
#
#
# Mechanical properties :
#
#
# Convention : Reuss Voigt Hill
#
# Bulk Modulus (GPa) = 30.24127 58.42765 44.33446
# Shear Modulus (GPa) = 10.44192 22.42407 16.43299
#
# Velocity S-wave (km/s) = 2.16973 3.17960 2.72191
# Velocity P-wave (km/s) = 4.46220 6.31046 5.46503
#
# Compressibility (1/GPa) = 0.03306739
#
# Stress axis : x y z
#
# Youngs Moduli (GPa) = 73.89436 37.01304 117.82852
#
# Poissons Ratio (x) = -0.09586 0.67477
# Poissons Ratio (y) = -0.19138 0.57125
# Poissons Ratio (z) = 0.42317 0.17944
#
# Static dielectric constant tensor:
#      x y z
#    x 1.889810 0.000000 0.000000 
#    y 0.000000 1.817620 0.000000 
#    z 0.000000 0.000000 1.843250 
# 
# From -- ./inp_files/25817.got.cif
#   From: 2010.05.17/outbox.cif.g08.bks.cpg/sg60_13_cif.got.tgz:25817.got - 2010.06.03 14:59:27.
