data_PCOD9457106
_publ_section_title
;
Structure prediction by ZEFSAII (Michael W. Deem and Ramdas Pophale) SiO2 
 PCOD9457106
Probable space group: P B C N
;
_chemical_formula_sum "Si O2"
_cell_formula_units_Z 40
_cell_length_a 4.884588
_cell_length_b 12.204609
_cell_length_c 26.854341
_cell_angle_alpha 90.000000
_cell_angle_beta 90.000000
_cell_angle_gamma 90.000000
_cell_volume 1600.907753
_symmetry_space_group_name_H-M "P B C N"
_symmetry_group_IT_number 60
_symmetry_cell_setting 'orthorhombic'
loop_
_space_group_symop_operation_xyz
x,y,z
1/2-x,1/2-y,1/2+z
1/2+x,1/2-y,-z
-x,y,1/2-z
-x,-y,-z
1/2+x,1/2+y,1/2-z
1/2-x,1/2+y,z
x,-y,1/2+z
loop_
_atom_site_type_symbol
_atom_site_label
_atom_site_fract_x
_atom_site_fract_y
_atom_site_fract_z
Si Si1 0.695280 0.437941 0.538863
Si Si2 0.424871 0.174113 0.335096
Si Si3 0.895109 0.044866 0.302634
Si Si4 0.019647 0.109535 0.884616
Si Si5 0.185674 0.690871 0.061289
O O1 0.500000 0.500000 0.500000
O O2 0.703765 0.524580 0.584557
O O3 0.999325 0.835316 0.553859
O O4 0.983185 0.379335 0.525237
O O5 0.655312 0.134151 0.296426
O O6 0.345865 0.299398 0.348247
O O7 0.582421 0.143948 0.386109
O O8 0.154262 0.109260 0.324006
O O9 0.831208 0.953689 0.344480
O O10 0.000000 0.997592 0.250000
O O11 0.871487 0.181592 0.927953
#
# Coordination Sequence:
#
# PCOD9457106 Si02
#       5
#     8   8   8   8   8
#     4  12  24  42  66  96 125 163 213 261 306 370
#     4  10  23  42  64  88 129 164 205 253 311 373
#     4  12  24  42  66  96 125 163 213 261 306 370
#     4  10  22  43  66  88 130 166 205 250 329 359
#     4  10  23  41  65  90 127 164 205 253 310 374
#
# _framework density 24.985824999999998
#
# number of rings (size 3 to 8) (size 9 to 14) (size 15 to 20)
#    1.200    0.000    4.000    1.200    0.000    9.600 
#    0.000    0.000    0.000    0.000    0.000    0.000 
#    0.000    0.000    0.000    0.000    0.000    0.000 
#
# Total GULP energy -222810.321996 kJ/mol
# GULP energy per Si atom -5570.258050 kJ/mol
# Density = 2.492896 g / cm^3
# Si number density = 24.985825 Si / 1000 Ang^3
#
#
#
# Elastic Constant Matrix: (Units=GPa)
#
#
# Indices 1 2 3 4 5 6 
#
# 1 105.7430 2.3714 -1.0296 0.0000 0.0000 0.0000
# 2 2.3714 98.1856 25.6641 0.0000 0.0000 0.0000
# 3 -1.0296 25.6641 81.9485 0.0000 0.0000 0.0000
# 4 0.0000 0.0000 0.0000 23.6032 0.0000 0.0000
# 5 0.0000 0.0000 0.0000 0.0000 26.9691 0.0000
# 6 0.0000 0.0000 0.0000 0.0000 0.0000 -34.5204
#
#
#
# Elastic Compliance Matrix: (Units=1/GPa)
#
#
# Indices 1 2 3 4 5 6 
#
# 1 0.009465 -0.000283 0.000208 0.000000 0.000000 0.000000
# 2 -0.000283 0.011101 -0.003480 0.000000 0.000000 0.000000
# 3 0.000208 -0.003480 0.013295 0.000000 0.000000 0.000000
# 4 0.000000 0.000000 0.000000 0.042367 0.000000 0.000000
# 5 0.000000 0.000000 0.000000 0.000000 0.037079 0.000000
# 6 0.000000 0.000000 0.000000 0.000000 0.000000 -0.028968
#
#
# Mechanical properties :
#
#
# Convention : Reuss Voigt Hill
#
# Bulk Modulus (GPa) = 37.38210 37.76545 37.57377
# Shear Modulus (GPa) = 49.81672 20.46848 35.14260
#
# Velocity S-wave (km/s) = 4.47004 2.86528 3.75440
# Velocity P-wave (km/s) = 6.45256 5.10823 5.81934
#
# Compressibility (1/GPa) = 0.02675077
#
# Stress axis : x y z
#
# Youngs Moduli (GPa) = 105.64959 90.07967 75.21461
#
# Poissons Ratio (x) = 0.02548 -0.01561
# Poissons Ratio (y) = 0.02988 0.26176
# Poissons Ratio (z) = -0.02192 0.31349
#
# Static dielectric constant tensor:
#      x y z
#    x 1.766920 0.000000 0.000000 
#    y 0.000000 2.060590 0.000000 
#    z 0.000000 0.000000 2.118930 
# 
# From -- ./inp_files/25603.got.cif
#   From: 2010.05.17/outbox.cif.g08.bks.cpg/sg60_13_cif.got.tgz:25603.got - 2010.06.03 14:59:27.
