data_PCOD9457279
_publ_section_title
;
Structure prediction by ZEFSAII (Michael W. Deem and Ramdas Pophale) SiO2 
 PCOD9457279
Probable space group: P B C N
;
_chemical_formula_sum "Si O2"
_cell_formula_units_Z 48
_cell_length_a 13.762217
_cell_length_b 15.863876
_cell_length_c 8.879831
_cell_angle_alpha 90.000000
_cell_angle_beta 90.000000
_cell_angle_gamma 90.000000
_cell_volume 1938.663387
_symmetry_space_group_name_H-M "P B C N"
_symmetry_group_IT_number 60
_symmetry_cell_setting 'orthorhombic'
loop_
_space_group_symop_operation_xyz
x,y,z
1/2-x,1/2-y,1/2+z
1/2+x,1/2-y,-z
-x,y,1/2-z
-x,-y,-z
1/2+x,1/2+y,1/2-z
1/2-x,1/2+y,z
x,-y,1/2+z
loop_
_atom_site_type_symbol
_atom_site_label
_atom_site_fract_x
_atom_site_fract_y
_atom_site_fract_z
Si Si1 0.000000 0.871374 0.750000
Si Si2 0.903396 0.234931 0.505992
Si Si3 0.825667 0.387823 0.630653
Si Si4 0.639300 0.542410 0.994564
Si Si5 0.500000 0.383591 0.250000
Si Si6 0.435652 0.948158 0.382050
Si Si7 0.740086 0.867812 0.958261
O O1 0.933639 0.927195 0.631604
O O2 0.063939 0.806693 0.650120
O O3 0.908312 0.332215 0.550329
O O4 0.789772 0.214506 0.523532
O O5 0.956052 0.178879 0.628405
O O6 0.738238 0.405921 0.516139
O O7 0.868347 0.477340 0.685902
O O8 0.782427 0.351927 0.784098
O O9 0.682554 0.446294 0.984468
O O10 0.581445 0.564625 0.842559
O O11 0.500000 0.910192 0.250000
O O12 0.500000 0.000000 0.500000
O O13 0.360568 0.886785 0.460718
#
# Coordination Sequence:
#
# PCOD9457279 Si02
#       7
#     4   8   8   8   4   8   8
#     4  10  22  49  70 110 141 184 244 302 365 436
#     4  11  26  44  72 103 148 189 227 298 371 442
#     4  11  25  47  70 100 149 188 236 296 363 439
#     4  10  24  44  71 105 143 185 244 300 356 432
#     4  10  26  39  70 112 139 186 238 288 365 430
#     4  11  24  47  74 103 131 184 246 301 345 420
#     4  11  25  45  74 102 143 192 239 294 371 418
#
# _framework density 24.759325
#
# number of rings (size 3 to 8) (size 9 to 14) (size 15 to 20)
#    0.000    1.333    3.333    0.000    8.167    4.000 
#    4.500    0.000    0.000    0.000    0.000    0.000 
#    0.000    0.000    0.000    0.000    0.000    0.000 
#
# Total GULP energy -268439.034901 kJ/mol
# GULP energy per Si atom -5592.479894 kJ/mol
# Density = 2.470297 g / cm^3
# Si number density = 24.759325 Si / 1000 Ang^3
#
#
#
# Elastic Constant Matrix: (Units=GPa)
#
#
# Indices 1 2 3 4 5 6 
#
# 1 96.4789 23.7453 39.0923 0.0000 0.0000 0.0000
# 2 23.7453 84.6301 36.1085 0.0000 0.0000 0.0000
# 3 39.0923 36.1085 121.8405 0.0000 0.0000 0.0000
# 4 0.0000 0.0000 0.0000 17.0501 0.0000 0.0000
# 5 0.0000 0.0000 0.0000 0.0000 48.3010 0.0000
# 6 0.0000 0.0000 0.0000 0.0000 0.0000 21.5142
#
#
#
# Elastic Compliance Matrix: (Units=1/GPa)
#
#
# Indices 1 2 3 4 5 6 
#
# 1 0.012205 -0.002007 -0.003321 0.000000 0.000000 0.000000
# 2 -0.002007 0.013857 -0.003462 0.000000 0.000000 0.000000
# 3 -0.003321 -0.003462 0.010299 0.000000 0.000000 0.000000
# 4 0.000000 0.000000 0.000000 0.058651 0.000000 0.000000
# 5 0.000000 0.000000 0.000000 0.000000 0.020703 0.000000
# 6 0.000000 0.000000 0.000000 0.000000 0.000000 0.046481
#
#
# Mechanical properties :
#
#
# Convention : Reuss Voigt Hill
#
# Bulk Modulus (GPa) = 53.25165 55.64910 54.45038
# Shear Modulus (GPa) = 26.87642 30.97329 28.92486
#
# Velocity S-wave (km/s) = 3.29828 3.54075 3.42166
# Velocity P-wave (km/s) = 6.00494 6.26424 6.13596
#
# Compressibility (1/GPa) = 0.01877876
#
# Stress axis : x y z
#
# Youngs Moduli (GPa) = 81.93614 72.16739 97.09590
#
# Poissons Ratio (x) = 0.14487 0.32245
# Poissons Ratio (y) = 0.16448 0.33619
# Poissons Ratio (z) = 0.27210 0.24988
#
# Static dielectric constant tensor:
#      x y z
#    x 1.998480 0.000000 0.000000 
#    y 0.000000 2.030940 0.000000 
#    z 0.000000 0.000000 1.958350 
# 
# From -- ./inp_files/5952.got.cif
#   From: 2010.05.17/outbox.cif.g08.bks.cpg/sg60_3_cif.got.tgz:5952.got - 2010.06.03 14:59:27.
