data_PCOD9457060
_publ_section_title
;
Structure prediction by ZEFSAII (Michael W. Deem and Ramdas Pophale) SiO2 
 PCOD9457060
Probable space group: P B C N
;
_chemical_formula_sum "Si O2"
_cell_formula_units_Z 40
_cell_length_a 7.762334
_cell_length_b 8.622598
_cell_length_c 25.769337
_cell_angle_alpha 90.000000
_cell_angle_beta 90.000000
_cell_angle_gamma 90.000000
_cell_volume 1724.780009
_symmetry_space_group_name_H-M "P B C N"
_symmetry_group_IT_number 60
_symmetry_cell_setting 'orthorhombic'
loop_
_space_group_symop_operation_xyz
x,y,z
1/2-x,1/2-y,1/2+z
1/2+x,1/2-y,-z
-x,y,1/2-z
-x,-y,-z
1/2+x,1/2+y,1/2-z
1/2-x,1/2+y,z
x,-y,1/2+z
loop_
_atom_site_type_symbol
_atom_site_label
_atom_site_fract_x
_atom_site_fract_y
_atom_site_fract_z
Si Si1 0.327193 0.913854 0.646233
Si Si2 0.986548 0.717872 0.811463
Si Si3 0.951747 0.679995 0.004473
Si Si4 0.572151 0.622133 0.911794
Si Si5 0.635456 0.325006 0.585539
O O1 0.166152 0.838116 0.675253
O O2 0.432795 0.764626 0.628028
O O3 0.433468 0.040422 0.677364
O O4 0.236079 0.013758 0.600703
O O5 0.000000 0.733670 0.750000
O O6 0.130260 0.759517 0.855520
O O7 0.801716 0.692762 0.048573
O O8 0.088935 0.794205 0.033334
O O9 0.000000 0.500000 0.000000
O O10 0.975062 0.747050 0.946221
O O11 0.411299 0.506437 0.910832
#
# Coordination Sequence:
#
# PCOD9457060 Si02
#       5
#     8   8   8   8   8
#     4   9  21  43  74 100 135 192 237 308 367 422
#     4  10  22  48  74 102 144 188 251 302 370 443
#     4  12  26  42  70 107 150 191 244 303 368 443
#     4  10  22  42  69  96 141 185 239 288 372 429
#     4  11  26  45  70 110 144 196 242 304 373 439
#
# _framework density 23.191365000000001
#
# number of rings (size 3 to 8) (size 9 to 14) (size 15 to 20)
#    0.000    1.600    0.000    3.000   11.200    0.000 
#   14.400    7.000    0.000    0.000    0.000    0.000 
#    0.000    0.000    0.000    0.000    0.000    0.000 
#
# Total GULP energy -223078.013050 kJ/mol
# GULP energy per Si atom -5576.950326 kJ/mol
# Density = 2.313858 g / cm^3
# Si number density = 23.191365 Si / 1000 Ang^3
#
#
#
# Elastic Constant Matrix: (Units=GPa)
#
#
# Indices 1 2 3 4 5 6 
#
# 1 78.9267 33.0832 58.1423 0.0000 0.0000 0.0000
# 2 33.0832 190.3564 65.1485 0.0000 0.0000 0.0000
# 3 58.1423 65.1485 167.6010 0.0000 0.0000 0.0000
# 4 0.0000 0.0000 0.0000 20.6455 0.0000 0.0000
# 5 0.0000 0.0000 0.0000 0.0000 17.9632 0.0000
# 6 0.0000 0.0000 0.0000 0.0000 0.0000 18.7326
#
#
#
# Elastic Compliance Matrix: (Units=1/GPa)
#
#
# Indices 1 2 3 4 5 6 
#
# 1 0.017214 -0.001093 -0.005547 0.000000 0.000000 0.000000
# 2 -0.001093 0.006129 -0.002003 0.000000 0.000000 0.000000
# 3 -0.005547 -0.002003 0.008669 0.000000 0.000000 0.000000
# 4 0.000000 0.000000 0.000000 0.048437 0.000000 0.000000
# 5 0.000000 0.000000 0.000000 0.000000 0.055669 0.000000
# 6 0.000000 0.000000 0.000000 0.000000 0.000000 0.053383
#
#
# Mechanical properties :
#
#
# Convention : Reuss Voigt Hill
#
# Bulk Modulus (GPa) = 67.90652 83.29246 75.59949
# Shear Modulus (GPa) = 23.61867 30.16893 26.89380
#
# Velocity S-wave (km/s) = 3.19474 3.61067 3.40905
# Velocity P-wave (km/s) = 6.55385 7.30588 6.94006
#
# Compressibility (1/GPa) = 0.01472613
#
# Stress axis : x y z
#
# Youngs Moduli (GPa) = 58.09073 163.16226 115.34828
#
# Poissons Ratio (x) = 0.17841 0.63982
# Poissons Ratio (y) = 0.06352 0.23105
# Poissons Ratio (z) = 0.32222 0.32682
#
# Static dielectric constant tensor:
#      x y z
#    x 2.047340 0.000000 0.000000 
#    y 0.000000 1.832460 0.000000 
#    z 0.000000 0.000000 1.921480 
# 
# From -- ./inp_files/23819.got.cif
#   From: 2010.05.17/outbox.cif.g08.bks.cpg/sg60_12_cif.got.tgz:23819.got - 2010.06.03 14:59:27.
