data_PCOD9457867
_publ_section_title
;
Structure prediction by ZEFSAII (Michael W. Deem and Ramdas Pophale) SiO2 
 PCOD9457867
Probable space group: P B C N
;
_chemical_formula_sum "Si O2"
_cell_formula_units_Z 24
_cell_length_a 5.056812
_cell_length_b 21.359313
_cell_length_c 8.683556
_cell_angle_alpha 90.000000
_cell_angle_beta 90.000000
_cell_angle_gamma 90.000000
_cell_volume 937.911147
_symmetry_space_group_name_H-M "P B C N"
_symmetry_group_IT_number 60
_symmetry_cell_setting 'orthorhombic'
loop_
_space_group_symop_operation_xyz
x,y,z
1/2-x,1/2-y,1/2+z
1/2+x,1/2-y,-z
-x,y,1/2-z
-x,-y,-z
1/2+x,1/2+y,1/2-z
1/2-x,1/2+y,z
x,-y,1/2+z
loop_
_atom_site_type_symbol
_atom_site_label
_atom_site_fract_x
_atom_site_fract_y
_atom_site_fract_z
Si Si1 0.000000 0.007942 0.250000
Si Si2 0.615390 0.288809 0.452306
Si Si3 0.208844 0.087937 0.005382
Si Si4 0.000000 0.649781 0.750000
O O1 0.784900 0.052622 0.332559
O O2 0.097380 0.961862 0.382507
O O3 0.383495 0.236965 0.464308
O O4 0.479591 0.351337 0.521358
O O5 0.748442 0.308620 0.289922
O O6 0.459770 0.110870 0.906663
#
# Coordination Sequence:
#
# PCOD9457867 Si02
#       4
#     4   8   8   4
#     4  10  24  49  78 114 159 208 272 328 402 502
#     4  12  26  48  79 111 160 207 265 332 405 482
#     4  11  24  50  78 116 158 210 267 334 414 476
#     4  12  24  49  74 120 157 216 262 342 408 490
#
# _framework density 25.588774999999998
#
# number of rings (size 3 to 8) (size 9 to 14) (size 15 to 20)
#    0.000    0.667    6.667    0.000    0.000    2.667 
#    6.000    0.000    0.000    0.000    0.000    0.000 
#    0.000    0.000    0.000    0.000    0.000    0.000 
#
# Total GULP energy -133935.739605 kJ/mol
# GULP energy per Si atom -5580.655817 kJ/mol
# Density = 2.553053 g / cm^3
# Si number density = 25.588775 Si / 1000 Ang^3
#
#
#
# Elastic Constant Matrix: (Units=GPa)
#
#
# Indices 1 2 3 4 5 6 
#
# 1 154.4630 48.3542 9.6376 0.0000 0.0000 0.0000
# 2 48.3542 142.9855 48.1362 0.0000 0.0000 0.0000
# 3 9.6376 48.1362 56.4251 0.0000 0.0000 0.0000
# 4 0.0000 0.0000 0.0000 -48.0586 0.0000 0.0000
# 5 0.0000 0.0000 0.0000 0.0000 29.0158 0.0000
# 6 0.0000 0.0000 0.0000 0.0000 0.0000 58.3860
#
#
#
# Elastic Compliance Matrix: (Units=1/GPa)
#
#
# Indices 1 2 3 4 5 6 
#
# 1 0.007299 -0.002874 0.001205 0.000000 0.000000 0.000000
# 2 -0.002874 0.010943 -0.008845 0.000000 0.000000 0.000000
# 3 0.001205 -0.008845 0.025062 0.000000 0.000000 0.000000
# 4 0.000000 0.000000 0.000000 -0.020808 0.000000 0.000000
# 5 0.000000 0.000000 0.000000 0.000000 0.034464 0.000000
# 6 0.000000 0.000000 0.000000 0.000000 0.000000 0.017127
#
#
# Mechanical properties :
#
#
# Convention : Reuss Voigt Hill
#
# Bulk Modulus (GPa) = 44.88967 62.90330 53.89648
# Shear Modulus (GPa) = 48.76146 24.38503 36.57325
#
# Velocity S-wave (km/s) = 4.37003 3.09035 3.78467
# Velocity P-wave (km/s) = 6.56077 6.11305 6.34086
#
# Compressibility (1/GPa) = 0.02227684
#
# Stress axis : x y z
#
# Youngs Moduli (GPa) = 137.01431 91.38107 39.90070
#
# Poissons Ratio (x) = 0.26262 -0.04808
# Poissons Ratio (y) = 0.39376 0.35291
# Poissons Ratio (z) = -0.16512 0.80824
#
# Static dielectric constant tensor:
#      x y z
#    x 2.143090 0.000000 0.000000 
#    y 0.000000 2.101930 0.000000 
#    z 0.000000 0.000000 2.157510 
# 
# From -- ./inp_files/2903.got.cif
#   From: 2010.05.17/outbox.cif.g08.bks.cpg/sg60_2_cif.got.tgz:2903.got - 2010.06.03 14:59:27.
