data_PCOD9457413
_publ_section_title
;
Structure prediction by ZEFSAII (Michael W. Deem and Ramdas Pophale) SiO2 
 PCOD9457413
Probable space group: P B C N
;
_chemical_formula_sum "Si O2"
_cell_formula_units_Z 56
_cell_length_a 26.999294
_cell_length_b 5.622547
_cell_length_c 14.038885
_cell_angle_alpha 90.000000
_cell_angle_beta 90.000000
_cell_angle_gamma 90.000000
_cell_volume 2131.170122
_symmetry_space_group_name_H-M "P B C N"
_symmetry_group_IT_number 60
_symmetry_cell_setting 'orthorhombic'
loop_
_space_group_symop_operation_xyz
x,y,z
1/2-x,1/2-y,1/2+z
1/2+x,1/2-y,-z
-x,y,1/2-z
-x,-y,-z
1/2+x,1/2+y,1/2-z
1/2-x,1/2+y,z
x,-y,1/2+z
loop_
_atom_site_type_symbol
_atom_site_label
_atom_site_fract_x
_atom_site_fract_y
_atom_site_fract_z
Si Si1 0.777612 0.351944 0.468472
Si Si2 0.474312 0.884936 0.616337
Si Si3 0.072293 0.880651 0.968483
Si Si4 0.756268 0.824404 0.681889
Si Si5 0.136142 0.656905 0.826304
Si Si6 0.430484 0.241026 0.302812
Si Si7 0.614927 0.256503 0.884900
O O1 0.750514 0.602541 0.443904
O O2 0.776667 0.340269 0.585554
O O3 0.832307 0.345030 0.422358
O O4 0.474696 0.740089 0.518203
O O5 0.528007 0.947965 0.657111
O O6 0.451075 0.713295 0.698035
O O7 0.433101 0.086609 0.606144
O O8 0.107389 0.682209 0.924563
O O9 0.064616 0.051066 0.878430
O O10 0.102803 0.022654 0.047826
O O11 0.745198 0.576634 0.734325
O O12 0.812145 0.777707 0.651428
O O13 0.123166 0.383366 0.798892
O O14 0.120031 0.791427 0.728918
#
# Coordination Sequence:
#
# PCOD9457413 Si02
#       7
#     8   8   8   8   8   8   8
#     4  10  23  42  70 102 140 188 241 305 369 442
#     4  10  24  45  69 102 144 187 238 301 367 440
#     4  12  23  40  72 100 140 188 242 294 363 436
#     4  10  23  42  70 102 140 188 241 305 369 442
#     4  11  26  44  68 103 144 187 239 303 369 442
#     4  10  24  45  69 102 144 187 238 301 367 440
#     4  11  26  44  68 103 144 187 239 303 369 442
#
# _framework density 26.276641000000001
#
# number of rings (size 3 to 8) (size 9 to 14) (size 15 to 20)
#    0.000    1.429    0.000    3.857   12.000    4.571 
#    0.000    2.857    0.000    0.000    0.000    0.000 
#    0.000    0.000    0.000    0.000    0.000    0.000 
#
# Total GULP energy -312917.122696 kJ/mol
# GULP energy per Si atom -5587.805762 kJ/mol
# Density = 2.621683 g / cm^3
# Si number density = 26.276641 Si / 1000 Ang^3
#
#
#
# Elastic Constant Matrix: (Units=GPa)
#
#
# Indices 1 2 3 4 5 6 
#
# 1 90.1697 15.9363 6.7386 0.0000 0.0000 0.0000
# 2 15.9363 108.4262 19.1162 0.0000 0.0000 0.0000
# 3 6.7386 19.1162 141.8490 0.0000 0.0000 0.0000
# 4 0.0000 0.0000 0.0000 47.6736 0.0000 0.0000
# 5 0.0000 0.0000 0.0000 0.0000 15.0367 0.0000
# 6 0.0000 0.0000 0.0000 0.0000 0.0000 26.2457
#
#
#
# Elastic Compliance Matrix: (Units=1/GPa)
#
#
# Indices 1 2 3 4 5 6 
#
# 1 0.011400 -0.001619 -0.000323 0.000000 0.000000 0.000000
# 2 -0.001619 0.009677 -0.001227 0.000000 0.000000 0.000000
# 3 -0.000323 -0.001227 0.007231 0.000000 0.000000 0.000000
# 4 0.000000 0.000000 0.000000 0.020976 0.000000 0.000000
# 5 0.000000 0.000000 0.000000 0.000000 0.066504 0.000000
# 6 0.000000 0.000000 0.000000 0.000000 0.000000 0.038101
#
#
# Mechanical properties :
#
#
# Convention : Reuss Voigt Hill
#
# Bulk Modulus (GPa) = 45.51763 47.11411 46.31587
# Shear Modulus (GPa) = 29.84165 37.70146 33.77156
#
# Velocity S-wave (km/s) = 3.37363 3.79197 3.58890
# Velocity P-wave (km/s) = 5.70397 6.09434 5.90238
#
# Compressibility (1/GPa) = 0.02196951
#
# Stress axis : x y z
#
# Youngs Moduli (GPa) = 87.71589 103.33639 138.30294
#
# Poissons Ratio (x) = 0.16726 0.04474
# Poissons Ratio (y) = 0.14198 0.16973
# Poissons Ratio (z) = 0.02837 0.12682
#
# Static dielectric constant tensor:
#      x y z
#    x 2.072380 0.000000 0.000000 
#    y 0.000000 2.156230 0.000000 
#    z 0.000000 0.000000 2.003720 
# 
# From -- ./inp_files/18181.got.cif
#   From: 2010.05.17/outbox.cif.g08.bks.cpg/sg60_10_cif.got.tgz:18181.got - 2010.06.03 14:59:27.
