data_PCOD9457806
_publ_section_title
;
Structure prediction by ZEFSAII (Michael W. Deem and Ramdas Pophale) SiO2 
 PCOD9457806
Probable space group: P B C N
;
_chemical_formula_sum "Si O2"
_cell_formula_units_Z 40
_cell_length_a 9.343510
_cell_length_b 9.864939
_cell_length_c 17.869339
_cell_angle_alpha 90.000000
_cell_angle_beta 90.000000
_cell_angle_gamma 90.000000
_cell_volume 1647.073375
_symmetry_space_group_name_H-M "P B C N"
_symmetry_group_IT_number 60
_symmetry_cell_setting 'orthorhombic'
loop_
_space_group_symop_operation_xyz
x,y,z
1/2-x,1/2-y,1/2+z
1/2+x,1/2-y,-z
-x,y,1/2-z
-x,-y,-z
1/2+x,1/2+y,1/2-z
1/2-x,1/2+y,z
x,-y,1/2+z
loop_
_atom_site_type_symbol
_atom_site_label
_atom_site_fract_x
_atom_site_fract_y
_atom_site_fract_z
Si Si1 0.368948 0.003496 0.295728
Si Si2 0.340130 0.587840 0.165769
Si Si3 0.272063 0.169921 0.570333
Si Si4 0.582313 0.389354 0.177635
Si Si5 0.484242 0.176629 0.437136
O O1 0.500000 0.947023 0.250000
O O2 0.269414 0.088891 0.236316
O O3 0.439496 0.077860 0.367684
O O4 0.250697 0.894163 0.315246
O O5 0.280390 0.468058 0.110180
O O6 0.344184 0.735780 0.132278
O O7 0.501567 0.533325 0.175274
O O8 0.386373 0.137167 0.506491
O O9 0.146833 0.276531 0.543079
O O10 0.500000 0.323330 0.250000
O O11 0.559781 0.318796 0.099453
#
# Coordination Sequence:
#
# PCOD9457806 Si02
#       5
#     8   8   8   8   8
#     4  11  22  42  68  98 131 182 235 285 329 406
#     4  10  24  46  68  98 139 178 229 285 341 413
#     4  11  26  44  69 101 142 179 226 285 350 411
#     4   9  22  42  67  96 133 183 231 278 346 403
#     4  11  25  42  70  96 144 181 225 285 353 406
#
# _framework density 24.285498
#
# number of rings (size 3 to 8) (size 9 to 14) (size 15 to 20)
#    0.000    1.600    2.000    0.600   11.200    4.000 
#    0.000    0.000    0.000    0.000    0.000    0.000 
#    0.000    0.000    0.000    0.000    0.000    0.000 
#
# Total GULP energy -222919.474136 kJ/mol
# GULP energy per Si atom -5572.986853 kJ/mol
# Density = 2.423022 g / cm^3
# Si number density = 24.285498 Si / 1000 Ang^3
#
#
#
# Elastic Constant Matrix: (Units=GPa)
#
#
# Indices 1 2 3 4 5 6 
#
# 1 121.5435 6.8405 -1.8588 0.0000 0.0000 0.0000
# 2 6.8405 64.1983 7.5708 0.0000 0.0000 0.0000
# 3 -1.8588 7.5708 64.0351 0.0000 0.0000 0.0000
# 4 0.0000 0.0000 0.0000 33.6181 0.0000 0.0000
# 5 0.0000 0.0000 0.0000 0.0000 37.1012 0.0000
# 6 0.0000 0.0000 0.0000 0.0000 0.0000 36.1604
#
#
#
# Elastic Compliance Matrix: (Units=1/GPa)
#
#
# Indices 1 2 3 4 5 6 
#
# 1 0.008285 -0.000924 0.000350 0.000000 0.000000 0.000000
# 2 -0.000924 0.015900 -0.001907 0.000000 0.000000 0.000000
# 3 0.000350 -0.001907 0.015852 0.000000 0.000000 0.000000
# 4 0.000000 0.000000 0.000000 0.029746 0.000000 0.000000
# 5 0.000000 0.000000 0.000000 0.000000 0.026953 0.000000
# 6 0.000000 0.000000 0.000000 0.000000 0.000000 0.027655
#
#
# Mechanical properties :
#
#
# Convention : Reuss Voigt Hill
#
# Bulk Modulus (GPa) = 28.51033 30.54245 29.52639
# Shear Modulus (GPa) = 35.44986 37.19089 36.32038
#
# Velocity S-wave (km/s) = 3.82476 3.91756 3.87144
# Velocity P-wave (km/s) = 5.59198 5.75037 5.67173
#
# Compressibility (1/GPa) = 0.03507500
#
# Stress axis : x y z
#
# Youngs Moduli (GPa) = 120.70211 62.89286 63.08346
#
# Poissons Ratio (x) = 0.05811 -0.02206
# Poissons Ratio (y) = 0.11153 0.12028
# Poissons Ratio (z) = -0.04221 0.11992
#
# Static dielectric constant tensor:
#      x y z
#    x 1.929280 0.000000 0.000000 
#    y 0.000000 1.960720 0.000000 
#    z 0.000000 0.000000 2.023410 
# 
# From -- ./inp_files/18997.got.cif
#   From: 2010.05.17/outbox.cif.g08.bks.cpg/sg60_10_cif.got.tgz:18997.got - 2010.06.03 14:59:27.
