data_PCOD9457255
_publ_section_title
;
Structure prediction by ZEFSAII (Michael W. Deem and Ramdas Pophale) SiO2 
 PCOD9457255
Probable space group: P B C N
;
_chemical_formula_sum "Si O2"
_cell_formula_units_Z 40
_cell_length_a 6.012363
_cell_length_b 29.642173
_cell_length_c 10.748311
_cell_angle_alpha 90.000000
_cell_angle_beta 90.000000
_cell_angle_gamma 90.000000
_cell_volume 1915.558657
_symmetry_space_group_name_H-M "P B C N"
_symmetry_group_IT_number 60
_symmetry_cell_setting 'orthorhombic'
loop_
_space_group_symop_operation_xyz
x,y,z
1/2-x,1/2-y,1/2+z
1/2+x,1/2-y,-z
-x,y,1/2-z
-x,-y,-z
1/2+x,1/2+y,1/2-z
1/2-x,1/2+y,z
x,-y,1/2+z
loop_
_atom_site_type_symbol
_atom_site_label
_atom_site_fract_x
_atom_site_fract_y
_atom_site_fract_z
Si Si1 0.741164 0.355699 0.455307
Si Si2 0.975548 0.433233 0.609439
Si Si3 0.000000 0.700606 0.750000
Si Si4 0.000000 0.089719 0.750000
Si Si5 0.311069 0.261801 0.942485
Si Si6 0.294517 0.523943 0.931320
O O1 0.844069 0.396596 0.530895
O O2 0.906461 0.331646 0.357142
O O3 0.561996 0.378261 0.364375
O O4 0.673304 0.315928 0.549344
O O5 0.858902 0.482078 0.606653
O O6 0.000000 0.417977 0.750000
O O7 0.200761 0.442778 0.536165
O O8 0.178094 0.734398 0.813107
O O9 0.174181 0.054459 0.808839
O O10 0.558350 0.248723 0.003551
O O11 0.500000 0.500000 0.000000
#
# Coordination Sequence:
#
# PCOD9457255 Si02
#       6
#     8   8   4   4   8   8
#     4  11  23  43  68 108 125 184 232 286 346 424
#     4  11  25  43  63 100 140 180 228 283 341 420
#     4  10  22  46  73  98 140 178 227 298 356 432
#     4  12  22  40  71  98 132 178 233 284 332 426
#     4  10  23  45  70 103 139 178 229 297 367 423
#     4  11  23  43  66  95 139 182 225 278 352 395
#
# _framework density 20.881636
#
# number of rings (size 3 to 8) (size 9 to 14) (size 15 to 20)
#    0.000    1.200    2.000    3.600    2.800    4.000 
#   18.000    0.000    0.000    0.000    0.000    0.000 
#    0.000    0.000    0.000    0.000    0.000    0.000 
#
# Total GULP energy -222728.454429 kJ/mol
# GULP energy per Si atom -5568.211361 kJ/mol
# Density = 2.083411 g / cm^3
# Si number density = 20.881636 Si / 1000 Ang^3
#
#
#
# Elastic Constant Matrix: (Units=GPa)
#
#
# Indices 1 2 3 4 5 6 
#
# 1 48.4751 6.0420 -3.0675 0.0000 0.0000 0.0000
# 2 6.0420 128.2093 20.7924 0.0000 0.0000 0.0000
# 3 -3.0675 20.7924 73.1501 0.0000 0.0000 0.0000
# 4 0.0000 0.0000 0.0000 -17.9792 0.0000 0.0000
# 5 0.0000 0.0000 0.0000 0.0000 30.2590 0.0000
# 6 0.0000 0.0000 0.0000 0.0000 0.0000 233.2300
#
#
#
# Elastic Compliance Matrix: (Units=1/GPa)
#
#
# Indices 1 2 3 4 5 6 
#
# 1 0.020853 -0.001179 0.001210 0.000000 0.000000 0.000000
# 2 -0.001179 0.008243 -0.002393 0.000000 0.000000 0.000000
# 3 0.001210 -0.002393 0.014401 0.000000 0.000000 0.000000
# 4 0.000000 0.000000 0.000000 -0.055620 0.000000 0.000000
# 5 0.000000 0.000000 0.000000 0.000000 0.033048 0.000000
# 6 0.000000 0.000000 0.000000 0.000000 0.000000 0.004288
#
#
# Mechanical properties :
#
#
# Convention : Reuss Voigt Hill
#
# Bulk Modulus (GPa) = 25.79084 33.04093 29.41589
# Shear Modulus (GPa) = 116.65543 64.17313 90.41428
#
# Velocity S-wave (km/s) = 7.48240 5.54965 6.58730
# Velocity P-wave (km/s) = 9.32879 7.54467 8.48376
#
# Compressibility (1/GPa) = 0.03877346
#
# Stress axis : x y z
#
# Youngs Moduli (GPa) = 47.95564 121.31048 69.43819
#
# Poissons Ratio (x) = 0.14301 -0.08399
# Poissons Ratio (y) = 0.05653 0.16613
# Poissons Ratio (z) = -0.05800 0.29024
#
# Static dielectric constant tensor:
#      x y z
#    x 1.824300 0.000000 0.000000 
#    y 0.000000 1.737310 0.000000 
#    z 0.000000 0.000000 1.714730 
# 
# From -- ./inp_files/9211.got.cif
#   From: 2010.05.17/outbox.cif.g08.bks.cpg/sg60_5_cif.got.tgz:9211.got - 2010.06.03 14:59:27.
