data_PCOD9457629
_publ_section_title
;
Structure prediction by ZEFSAII (Michael W. Deem and Ramdas Pophale) SiO2 
 PCOD9457629
Probable space group: P B C N
;
_chemical_formula_sum "Si O2"
_cell_formula_units_Z 40
_cell_length_a 11.121737
_cell_length_b 8.593913
_cell_length_c 20.208548
_cell_angle_alpha 90.000000
_cell_angle_beta 90.000000
_cell_angle_gamma 90.000000
_cell_volume 1931.517663
_symmetry_space_group_name_H-M "P B C N"
_symmetry_group_IT_number 60
_symmetry_cell_setting 'orthorhombic'
loop_
_space_group_symop_operation_xyz
x,y,z
1/2-x,1/2-y,1/2+z
1/2+x,1/2-y,-z
-x,y,1/2-z
-x,-y,-z
1/2+x,1/2+y,1/2-z
1/2-x,1/2+y,z
x,-y,1/2+z
loop_
_atom_site_type_symbol
_atom_site_label
_atom_site_fract_x
_atom_site_fract_y
_atom_site_fract_z
Si Si1 0.369938 0.873742 0.779594
Si Si2 0.127427 0.027961 0.729833
Si Si3 0.383496 0.652505 0.580815
Si Si4 0.873976 0.342665 0.569541
Si Si5 0.244623 0.597459 0.007994
O O1 0.500000 0.925150 0.750000
O O2 0.368511 0.686740 0.772511
O O3 0.362744 0.910856 0.857172
O O4 0.251008 0.937429 0.743509
O O5 0.120111 0.083125 0.653945
O O6 0.000000 0.948103 0.750000
O O7 0.505511 0.742801 0.566362
O O8 0.286766 0.789961 0.568956
O O9 0.352840 0.514275 0.530191
O O10 0.858180 0.479362 0.516121
O O11 0.773327 0.214622 0.551576
#
# Coordination Sequence:
#
# PCOD9457629 Si02
#       5
#     8   8   8   8   8
#     4  11  23  42  66  92 128 170 214 268 321 381
#     4  11  23  42  66  92 128 170 214 268 321 381
#     4  11  21  41  63  92 128 164 214 264 319 384
#     4  11  21  41  63  92 128 164 214 264 319 384
#     4  10  24  38  64  96 126 164 212 264 328 378
#
# _framework density 20.709104
#
# number of rings (size 3 to 8) (size 9 to 14) (size 15 to 20)
#    0.000    1.200    4.000    3.600    0.000    0.800 
#    0.000    0.000    0.000    0.000    0.000    0.000 
#    0.000    0.000    0.000    0.000    0.000    0.000 
#
# Total GULP energy -223144.937995 kJ/mol
# GULP energy per Si atom -5578.623450 kJ/mol
# Density = 2.066197 g / cm^3
# Si number density = 20.709104 Si / 1000 Ang^3
#
#
#
# Elastic Constant Matrix: (Units=GPa)
#
#
# Indices 1 2 3 4 5 6 
#
# 1 140.6127 37.9967 27.8671 0.0000 0.0000 0.0000
# 2 37.9967 60.4761 18.0883 0.0000 0.0000 0.0000
# 3 27.8671 18.0883 96.5394 0.0000 0.0000 0.0000
# 4 0.0000 0.0000 0.0000 15.6839 0.0000 0.0000
# 5 0.0000 0.0000 0.0000 0.0000 26.9555 0.0000
# 6 0.0000 0.0000 0.0000 0.0000 0.0000 27.0726
#
#
#
# Elastic Compliance Matrix: (Units=1/GPa)
#
#
# Indices 1 2 3 4 5 6 
#
# 1 0.008791 -0.005047 -0.001592 0.000000 0.000000 0.000000
# 2 -0.005047 0.020415 -0.002368 0.000000 0.000000 0.000000
# 3 -0.001592 -0.002368 0.011262 0.000000 0.000000 0.000000
# 4 0.000000 0.000000 0.000000 0.063760 0.000000 0.000000
# 5 0.000000 0.000000 0.000000 0.000000 0.037098 0.000000
# 6 0.000000 0.000000 0.000000 0.000000 0.000000 0.036938
#
#
# Mechanical properties :
#
#
# Convention : Reuss Voigt Hill
#
# Bulk Modulus (GPa) = 44.53739 51.72584 48.13161
# Shear Modulus (GPa) = 24.53839 28.18746 26.36293
#
# Velocity S-wave (km/s) = 3.44598 3.69333 3.57180
# Velocity P-wave (km/s) = 6.11441 6.57413 6.34843
#
# Compressibility (1/GPa) = 0.02245305
#
# Stress axis : x y z
#
# Youngs Moduli (GPa) = 113.75128 48.98380 88.79645
#
# Poissons Ratio (x) = 0.24723 0.14136
# Poissons Ratio (y) = 0.57413 0.21028
# Poissons Ratio (z) = 0.18109 0.11600
#
# Static dielectric constant tensor:
#      x y z
#    x 1.793390 0.000000 0.000000 
#    y 0.000000 1.731400 0.000000 
#    z 0.000000 0.000000 1.748340 
# 
# From -- ./inp_files/12309.got.cif
#   From: 2010.05.17/outbox.cif.g08.bks.cpg/sg60_7_cif.got.tgz:12309.got - 2010.06.03 14:59:27.
