data_PCOD9457643
_publ_section_title
;
Structure prediction by ZEFSAII (Michael W. Deem and Ramdas Pophale) SiO2 
 PCOD9457643
Probable space group: P B C N
;
_chemical_formula_sum "Si O2"
_cell_formula_units_Z 48
_cell_length_a 8.112236
_cell_length_b 17.334107
_cell_length_c 16.395597
_cell_angle_alpha 90.000000
_cell_angle_beta 90.000000
_cell_angle_gamma 90.000000
_cell_volume 2305.522073
_symmetry_space_group_name_H-M "P B C N"
_symmetry_group_IT_number 60
_symmetry_cell_setting 'orthorhombic'
loop_
_space_group_symop_operation_xyz
x,y,z
1/2-x,1/2-y,1/2+z
1/2+x,1/2-y,-z
-x,y,1/2-z
-x,-y,-z
1/2+x,1/2+y,1/2-z
1/2-x,1/2+y,z
x,-y,1/2+z
loop_
_atom_site_type_symbol
_atom_site_label
_atom_site_fract_x
_atom_site_fract_y
_atom_site_fract_z
Si Si1 0.604367 0.079553 0.993868
Si Si2 0.940362 0.046987 0.080664
Si Si3 0.734872 0.346191 0.331598
Si Si4 0.084791 0.790928 0.609202
Si Si5 0.831601 0.310438 0.029981
Si Si6 0.627969 0.395731 0.158799
O O1 0.760957 0.076084 0.052917
O O2 0.672753 0.103925 0.902642
O O3 0.477091 0.146565 0.017506
O O4 0.500000 0.000000 0.000000
O O5 0.054709 0.117691 0.109510
O O6 0.928495 0.983418 0.150547
O O7 0.000000 0.000000 0.000000
O O8 0.823495 0.262724 0.325125
O O9 0.726307 0.382634 0.241944
O O10 0.538361 0.344315 0.351373
O O11 0.202485 0.776021 0.531750
O O12 0.910467 0.752250 0.589187
O O13 0.744072 0.374963 0.084035
#
# Coordination Sequence:
#
# PCOD9457643 Si02
#       6
#     8   8   8   8   8   8
#     4  11  20  36  63 102 130 170 224 279 337 412
#     4  12  21  40  68  99 130 172 233 290 337 407
#     4  10  24  40  65  93 133 179 219 276 354 411
#     4  11  22  38  64  98 130 172 229 277 341 415
#     4  11  21  37  65  95 130 167 223 280 327 409
#     4  11  22  43  65  96 136 177 225 282 352 407
#
# _framework density 20.819578
#
# number of rings (size 3 to 8) (size 9 to 14) (size 15 to 20)
#    0.000    1.000    5.000    3.000    0.000    2.667 
#    0.000    3.333    0.000    0.000    0.000    0.000 
#    0.000    0.000    0.000    0.000    0.000    0.000 
#
# Total GULP energy -267791.760126 kJ/mol
# GULP energy per Si atom -5578.995003 kJ/mol
# Density = 2.077219 g / cm^3
# Si number density = 20.819578 Si / 1000 Ang^3
#
#
#
# Elastic Constant Matrix: (Units=GPa)
#
#
# Indices 1 2 3 4 5 6 
#
# 1 77.4758 31.8687 14.5004 0.0000 0.0000 0.0000
# 2 31.8687 141.7019 28.2039 0.0000 0.0000 0.0000
# 3 14.5004 28.2039 61.4078 0.0000 0.0000 0.0000
# 4 0.0000 0.0000 0.0000 24.9953 0.0000 0.0000
# 5 0.0000 0.0000 0.0000 0.0000 30.5218 0.0000
# 6 0.0000 0.0000 0.0000 0.0000 0.0000 44.3745
#
#
#
# Elastic Compliance Matrix: (Units=1/GPa)
#
#
# Indices 1 2 3 4 5 6 
#
# 1 0.014468 -0.002833 -0.002115 0.000000 0.000000 0.000000
# 2 -0.002833 0.008322 -0.003153 0.000000 0.000000 0.000000
# 3 -0.002115 -0.003153 0.018232 0.000000 0.000000 0.000000
# 4 0.000000 0.000000 0.000000 0.040008 0.000000 0.000000
# 5 0.000000 0.000000 0.000000 0.000000 0.032763 0.000000
# 6 0.000000 0.000000 0.000000 0.000000 0.000000 0.022535
#
#
# Mechanical properties :
#
#
# Convention : Reuss Voigt Hill
#
# Bulk Modulus (GPa) = 40.29060 47.74794 44.01927
# Shear Modulus (GPa) = 31.09355 33.71248 32.40301
#
# Velocity S-wave (km/s) = 3.86874 4.02838 3.94937
# Velocity P-wave (km/s) = 6.27300 6.67990 6.47964
#
# Compressibility (1/GPa) = 0.02481969
#
# Stress axis : x y z
#
# Youngs Moduli (GPa) = 69.11589 120.16651 54.84771
#
# Poissons Ratio (x) = 0.34042 0.11602
# Poissons Ratio (y) = 0.19580 0.17294
# Poissons Ratio (z) = 0.14620 0.37890
#
# Static dielectric constant tensor:
#      x y z
#    x 1.763570 0.000000 0.000000 
#    y 0.000000 1.808460 0.000000 
#    z 0.000000 0.000000 1.770870 
# 
# From -- ./inp_files/14982.got.cif
#   From: 2010.05.17/outbox.cif.g08.bks.cpg/sg60_8_cif.got.tgz:14982.got - 2010.06.03 14:59:27.
