data_PCOD9457063
_publ_section_title
;
Structure prediction by ZEFSAII (Michael W. Deem and Ramdas Pophale) SiO2 
 PCOD9457063
Probable space group: P B C N
;
_chemical_formula_sum "Si O2"
_cell_formula_units_Z 60
_cell_length_a 10.288198
_cell_length_b 10.858125
_cell_length_c 21.904728
_cell_angle_alpha 90.000000
_cell_angle_beta 90.000000
_cell_angle_gamma 90.000000
_cell_volume 2446.988991
_symmetry_space_group_name_H-M "P B C N"
_symmetry_group_IT_number 60
_symmetry_cell_setting 'orthorhombic'
loop_
_space_group_symop_operation_xyz
x,y,z
1/2-x,1/2-y,1/2+z
1/2+x,1/2-y,-z
-x,y,1/2-z
-x,-y,-z
1/2+x,1/2+y,1/2-z
1/2-x,1/2+y,z
x,-y,1/2+z
loop_
_atom_site_type_symbol
_atom_site_label
_atom_site_fract_x
_atom_site_fract_y
_atom_site_fract_z
Si Si1 0.333198 0.928139 0.467632
Si Si2 0.389492 0.500109 0.552634
Si Si3 0.009630 0.625685 0.178731
Si Si4 0.181150 0.191520 0.644316
Si Si5 0.000000 0.927506 0.250000
Si Si6 0.016611 0.640432 0.633803
Si Si7 0.931412 0.109610 0.151453
Si Si8 0.814603 0.311250 0.584025
O O1 0.249037 0.950612 0.529203
O O2 0.230879 0.821563 0.440286
O O3 0.539518 0.136143 0.564258
O O4 0.371148 0.075030 0.455803
O O5 0.500000 0.500000 0.500000
O O6 0.374276 0.636722 0.580895
O O7 0.445913 0.422608 0.609025
O O8 0.149421 0.665036 0.153005
O O9 0.975780 0.487622 0.162587
O O10 0.000000 0.641880 0.250000
O O11 0.908325 0.709404 0.141454
O O12 0.330809 0.157704 0.642020
O O13 0.101094 0.136941 0.702841
O O14 0.083032 0.015811 0.294079
O O15 0.948133 0.750006 0.670535
O O16 0.809209 0.111327 0.107536
#
# Coordination Sequence:
#
# PCOD9457063 Si02
#       8
#     8   8   8   8   4   8   8   8
#     4  10  22  45  70 105 141 190 239 309 372 446
#     4  11  22  42  75 100 137 190 247 294 363 447
#     4  11  25  44  69 104 142 197 241 309 375 443
#     4  11  25  45  69 102 142 191 247 301 373 443
#     4  10  24  42  68 102 134 190 240 300 358 444
#     4  10  26  46  67 106 149 186 246 310 378 445
#     4  10  23  43  71 105 137 189 240 300 368 446
#     4  10  22  42  70 100 144 179 248 299 372 445
#
# _framework density 24.519929000000001
#
# number of rings (size 3 to 8) (size 9 to 14) (size 15 to 20)
#    0.000    1.600    2.000    0.800    8.400    1.600 
#    2.400    2.667    0.000    0.000    0.000    0.000 
#    0.000    0.000    0.000    0.000    0.000    0.000 
#
# Total GULP energy -334225.962734 kJ/mol
# GULP energy per Si atom -5570.432712 kJ/mol
# Density = 2.446412 g / cm^3
# Si number density = 24.519929 Si / 1000 Ang^3
#
#
#
# Elastic Constant Matrix: (Units=GPa)
#
#
# Indices 1 2 3 4 5 6 
#
# 1 66.4142 -11.3313 17.9346 0.0000 0.0000 0.0000
# 2 -11.3313 83.4193 10.3125 0.0000 0.0000 0.0000
# 3 17.9346 10.3125 81.1062 0.0000 0.0000 0.0000
# 4 0.0000 0.0000 0.0000 12.8957 0.0000 0.0000
# 5 0.0000 0.0000 0.0000 0.0000 -52.3737 0.0000
# 6 0.0000 0.0000 0.0000 0.0000 0.0000 274.6909
#
#
#
# Elastic Compliance Matrix: (Units=1/GPa)
#
#
# Indices 1 2 3 4 5 6 
#
# 1 0.016614 0.002754 -0.004024 0.000000 0.000000 0.000000
# 2 0.002754 0.012636 -0.002216 0.000000 0.000000 0.000000
# 3 -0.004024 -0.002216 0.013501 0.000000 0.000000 0.000000
# 4 0.000000 0.000000 0.000000 0.077545 0.000000 0.000000
# 5 0.000000 0.000000 0.000000 0.000000 -0.019094 0.000000
# 6 0.000000 0.000000 0.000000 0.000000 0.000000 0.003640
#
#
# Mechanical properties :
#
#
# Convention : Reuss Voigt Hill
#
# Bulk Modulus (GPa) = 27.94892 29.41902 28.68397
# Shear Modulus (GPa) = 40.40746 61.31084 50.85915
#
# Velocity S-wave (km/s) = 4.06389 5.00587 4.55928
# Velocity P-wave (km/s) = 5.78303 6.74060 6.28010
#
# Compressibility (1/GPa) = 0.03577956
#
# Stress axis : x y z
#
# Youngs Moduli (GPa) = 60.19195 79.14117 74.06866
#
# Poissons Ratio (x) = -0.21797 0.29804
# Poissons Ratio (y) = -0.16578 0.16411
# Poissons Ratio (z) = 0.24220 0.17535
#
# Static dielectric constant tensor:
#      x y z
#    x 2.030730 0.000000 0.000000 
#    y 0.000000 2.039100 0.000000 
#    z 0.000000 0.000000 2.103180 
# 
# From -- ./inp_files/22693.got.cif
#   From: 2010.05.17/outbox.cif.g08.bks.cpg/sg60_12_cif.got.tgz:22693.got - 2010.06.03 14:59:27.
