data_PCOD9457248
_publ_section_title
;
Structure prediction by ZEFSAII (Michael W. Deem and Ramdas Pophale) SiO2 
 PCOD9457248
Probable space group: P B C N
;
_chemical_formula_sum "Si O2"
_cell_formula_units_Z 28
_cell_length_a 8.555205
_cell_length_b 9.393790
_cell_length_c 13.973301
_cell_angle_alpha 90.000000
_cell_angle_beta 90.000000
_cell_angle_gamma 90.000000
_cell_volume 1122.975502
_symmetry_space_group_name_H-M "P B C N"
_symmetry_group_IT_number 60
_symmetry_cell_setting 'orthorhombic'
loop_
_space_group_symop_operation_xyz
x,y,z
1/2-x,1/2-y,1/2+z
1/2+x,1/2-y,-z
-x,y,1/2-z
-x,-y,-z
1/2+x,1/2+y,1/2-z
1/2-x,1/2+y,z
x,-y,1/2+z
loop_
_atom_site_type_symbol
_atom_site_label
_atom_site_fract_x
_atom_site_fract_y
_atom_site_fract_z
Si Si1 0.000000 0.982309 0.250000
Si Si2 0.349391 0.905497 0.971626
Si Si3 0.831149 0.488110 0.741586
Si Si4 0.159066 0.115739 0.086509
O O1 0.826832 0.915697 0.243208
O O2 0.983968 0.079565 0.344218
O O3 0.337539 0.904435 0.857745
O O4 0.359080 0.755458 0.024555
O O5 0.500000 0.000000 0.000000
O O6 0.201398 0.986757 0.016776
O O7 0.799617 0.388499 0.834144
O O8 0.000000 0.562173 0.750000
#
# Coordination Sequence:
#
# PCOD9457248 Si02
#       4
#     4   8   8   8
#     4   8  22  46  64 106 146 190 246 306 366 446
#     4  12  25  47  78 107 150 202 249 308 388 450
#     4  10  22  46  72 108 147 195 242 321 366 448
#     4  10  26  45  70 108 143 197 247 307 374 444
#
# _framework density 24.933757
#
# number of rings (size 3 to 8) (size 9 to 14) (size 15 to 20)
#    1.714    0.000    2.857    0.000    4.000    5.714 
#    2.571    0.000    0.000    0.000    0.000    0.000 
#    0.000    0.000    0.000    0.000    0.000    0.000 
#
# Total GULP energy -156205.700504 kJ/mol
# GULP energy per Si atom -5578.775018 kJ/mol
# Density = 2.487701 g / cm^3
# Si number density = 24.933757 Si / 1000 Ang^3
#
#
#
# Elastic Constant Matrix: (Units=GPa)
#
#
# Indices 1 2 3 4 5 6 
#
# 1 199.7422 0.6659 10.7936 0.0000 0.0000 0.0000
# 2 0.6659 59.8373 19.8295 0.0000 0.0000 0.0000
# 3 10.7936 19.8295 191.9081 0.0000 0.0000 0.0000
# 4 0.0000 0.0000 0.0000 26.0250 0.0000 0.0000
# 5 0.0000 0.0000 0.0000 0.0000 48.0615 0.0000
# 6 0.0000 0.0000 0.0000 0.0000 0.0000 10.0562
#
#
#
# Elastic Compliance Matrix: (Units=1/GPa)
#
#
# Indices 1 2 3 4 5 6 
#
# 1 0.005022 0.000039 -0.000286 0.000000 0.000000 0.000000
# 2 0.000039 0.017305 -0.001790 0.000000 0.000000 0.000000
# 3 -0.000286 -0.001790 0.005412 0.000000 0.000000 0.000000
# 4 0.000000 0.000000 0.000000 0.038425 0.000000 0.000000
# 5 0.000000 0.000000 0.000000 0.000000 0.020807 0.000000
# 6 0.000000 0.000000 0.000000 0.000000 0.000000 0.099441
#
#
# Mechanical properties :
#
#
# Convention : Reuss Voigt Hill
#
# Bulk Modulus (GPa) = 42.25981 57.11841 49.68911
# Shear Modulus (GPa) = 25.20495 44.84179 35.02337
#
# Velocity S-wave (km/s) = 3.18288 4.24540 3.75194
# Velocity P-wave (km/s) = 5.52207 6.85485 6.22424
#
# Compressibility (1/GPa) = 0.02366314
#
# Stress axis : x y z
#
# Youngs Moduli (GPa) = 199.13167 57.78738 184.77707
#
# Poissons Ratio (x) = -0.00226 0.05293
# Poissons Ratio (y) = -0.00778 0.33080
# Poissons Ratio (z) = 0.05705 0.10346
#
# Static dielectric constant tensor:
#      x y z
#    x 2.110100 0.000000 0.000000 
#    y 0.000000 1.865870 0.000000 
#    z 0.000000 0.000000 1.912240 
# 
# From -- ./inp_files/14261.got.cif
#   From: 2010.05.17/outbox.cif.g08.bks.cpg/sg60_8_cif.got.tgz:14261.got - 2010.06.03 14:59:27.
