data_PCOD9457524
_publ_section_title
;
Structure prediction by ZEFSAII (Michael W. Deem and Ramdas Pophale) SiO2 
 PCOD9457524
Probable space group: P B C N
;
_chemical_formula_sum "Si O2"
_cell_formula_units_Z 40
_cell_length_a 7.401759
_cell_length_b 24.210019
_cell_length_c 8.493611
_cell_angle_alpha 90.000000
_cell_angle_beta 90.000000
_cell_angle_gamma 90.000000
_cell_volume 1522.027283
_symmetry_space_group_name_H-M "P B C N"
_symmetry_group_IT_number 60
_symmetry_cell_setting 'orthorhombic'
loop_
_space_group_symop_operation_xyz
x,y,z
1/2-x,1/2-y,1/2+z
1/2+x,1/2-y,-z
-x,y,1/2-z
-x,-y,-z
1/2+x,1/2+y,1/2-z
1/2-x,1/2+y,z
x,-y,1/2+z
loop_
_atom_site_type_symbol
_atom_site_label
_atom_site_fract_x
_atom_site_fract_y
_atom_site_fract_z
Si Si1 0.768357 0.422834 0.687849
Si Si2 0.820534 0.031163 0.855606
Si Si3 0.904997 0.785448 0.411888
Si Si4 0.000000 0.172163 0.250000
Si Si5 0.983171 0.668339 0.026205
Si Si6 0.500000 0.109830 0.750000
O O1 0.661767 0.452423 0.540143
O O2 0.762095 0.470518 0.818715
O O3 0.665049 0.370151 0.753662
O O4 0.937584 0.390264 0.609547
O O5 0.661466 0.071392 0.803301
O O6 0.000000 0.039372 0.750000
O O7 0.707357 0.809830 0.451421
O O8 0.000000 0.807063 0.250000
O O9 0.995667 0.796156 0.584028
O O10 0.916884 0.719060 0.393396
O O11 0.093353 0.649353 0.876672
#
# Coordination Sequence:
#
# PCOD9457524 Si02
#       6
#     8   8   8   4   8   4
#     4  10  23  44  69 109 141 189 247 293 373 432
#     4  11  23  45  72 106 144 196 241 298 372 438
#     4  11  26  47  73 106 139 198 245 297 384 439
#     4  10  23  44  70 102 152 180 249 318 344 452
#     4  10  25  47  69 107 147 187 249 310 367 444
#     4  10  25  46  70 104 152 182 245 310 354 440
#
# _framework density 26.280739000000001
#
# number of rings (size 3 to 8) (size 9 to 14) (size 15 to 20)
#    0.000    1.600    1.000    1.200    8.400   10.400 
#    5.400    0.000    0.000    0.000    0.000    0.000 
#    0.000    0.000    0.000    0.000    0.000    0.000 
#
# Total GULP energy -223292.578878 kJ/mol
# GULP energy per Si atom -5582.314472 kJ/mol
# Density = 2.622092 g / cm^3
# Si number density = 26.280739 Si / 1000 Ang^3
#
#
#
# Elastic Constant Matrix: (Units=GPa)
#
#
# Indices 1 2 3 4 5 6 
#
# 1 78.6627 20.5946 27.6117 0.0000 0.0000 0.0000
# 2 20.5946 154.4677 69.1597 0.0000 0.0000 0.0000
# 3 27.6117 69.1597 133.7749 0.0000 0.0000 0.0000
# 4 0.0000 0.0000 0.0000 -79.3861 0.0000 0.0000
# 5 0.0000 0.0000 0.0000 0.0000 29.3883 0.0000
# 6 0.0000 0.0000 0.0000 0.0000 0.0000 96.5136
#
#
#
# Elastic Compliance Matrix: (Units=1/GPa)
#
#
# Indices 1 2 3 4 5 6 
#
# 1 0.013769 -0.000733 -0.002463 0.000000 0.000000 0.000000
# 2 -0.000733 0.008463 -0.004224 0.000000 0.000000 0.000000
# 3 -0.002463 -0.004224 0.010167 0.000000 0.000000 0.000000
# 4 0.000000 0.000000 0.000000 -0.012597 0.000000 0.000000
# 5 0.000000 0.000000 0.000000 0.000000 0.034027 0.000000
# 6 0.000000 0.000000 0.000000 0.000000 0.000000 0.010361
#
#
# Mechanical properties :
#
#
# Convention : Reuss Voigt Hill
#
# Bulk Modulus (GPa) = 56.94991 66.84859 61.89925
# Shear Modulus (GPa) = 58.90441 25.93913 42.42177
#
# Velocity S-wave (km/s) = 4.73943 3.14507 4.02204
# Velocity P-wave (km/s) = 7.18794 6.21934 6.72111
#
# Compressibility (1/GPa) = 0.01755929
#
# Stress axis : x y z
#
# Youngs Moduli (GPa) = 72.62710 118.16579 98.35493
#
# Poissons Ratio (x) = 0.08662 0.24225
# Poissons Ratio (y) = 0.05324 0.41543
# Poissons Ratio (z) = 0.17888 0.49911
#
# Static dielectric constant tensor:
#      x y z
#    x 2.200310 0.000000 0.000000 
#    y 0.000000 2.011760 0.000000 
#    z 0.000000 0.000000 2.341820 
# 
# From -- ./inp_files/3919.got.cif
#   From: 2010.05.17/outbox.cif.g08.bks.cpg/sg60_2_cif.got.tgz:3919.got - 2010.06.03 14:59:27.
