data_PCOD9457685
_publ_section_title
;
Structure prediction by ZEFSAII (Michael W. Deem and Ramdas Pophale) SiO2 
 PCOD9457685
Probable space group: P B C N
;
_chemical_formula_sum "Si O2"
_cell_formula_units_Z 48
_cell_length_a 5.470625
_cell_length_b 13.797687
_cell_length_c 25.252257
_cell_angle_alpha 90.000000
_cell_angle_beta 90.000000
_cell_angle_gamma 90.000000
_cell_volume 1906.090142
_symmetry_space_group_name_H-M "P B C N"
_symmetry_group_IT_number 60
_symmetry_cell_setting 'orthorhombic'
loop_
_space_group_symop_operation_xyz
x,y,z
1/2-x,1/2-y,1/2+z
1/2+x,1/2-y,-z
-x,y,1/2-z
-x,-y,-z
1/2+x,1/2+y,1/2-z
1/2-x,1/2+y,z
x,-y,1/2+z
loop_
_atom_site_type_symbol
_atom_site_label
_atom_site_fract_x
_atom_site_fract_y
_atom_site_fract_z
Si Si1 0.279987 0.579292 0.461336
Si Si2 0.058134 0.794789 0.691682
Si Si3 0.103066 0.873058 0.190512
Si Si4 0.982286 0.601118 0.939476
Si Si5 0.322705 0.759590 0.890219
Si Si6 0.307112 0.452333 0.626225
O O1 0.247743 0.617680 0.521273
O O2 0.101349 0.654745 0.429977
O O3 0.520847 0.572990 0.424495
O O4 0.185522 0.468765 0.466028
O O5 0.136707 0.682344 0.693236
O O6 0.258089 0.855112 0.658219
O O7 0.000000 0.827719 0.750000
O O8 0.816667 0.809651 0.658097
O O9 0.984565 0.819714 0.139238
O O10 0.000000 0.856227 0.250000
O O11 0.071938 0.983890 0.173458
O O12 0.892515 0.529551 0.893188
O O13 0.112722 0.698551 0.921679
#
# Coordination Sequence:
#
# PCOD9457685 Si02
#       6
#     8   8   8   8   8   8
#     4  10  24  42  65  93 131 168 217 270 324 397
#     4  11  23  43  63  93 131 171 217 265 330 387
#     4  12  23  40  66  94 128 170 216 269 327 386
#     4  11  22  44  66  94 129 171 215 271 331 386
#     4  11  23  42  65  96 132 171 218 269 327 397
#     4  11  23  41  66  94 127 171 215 271 324 392
#
# _framework density 25.182438999999999
#
# number of rings (size 3 to 8) (size 9 to 14) (size 15 to 20)
#    0.000    1.000    5.000    2.000    0.000    1.333 
#   12.000    0.833    0.000    0.000    0.000    0.000 
#    0.000    0.000    0.000    0.000    0.000    0.000 
#
# Total GULP energy -267633.239867 kJ/mol
# GULP energy per Si atom -5575.692497 kJ/mol
# Density = 2.512512 g / cm^3
# Si number density = 25.182439 Si / 1000 Ang^3
#
#
#
# Elastic Constant Matrix: (Units=GPa)
#
#
# Indices 1 2 3 4 5 6 
#
# 1 36.6217 -1.0978 13.8716 0.0000 0.0000 0.0000
# 2 -1.0978 105.7973 35.1386 0.0000 0.0000 0.0000
# 3 13.8716 35.1386 134.9261 0.0000 0.0000 0.0000
# 4 0.0000 0.0000 0.0000 37.5568 0.0000 0.0000
# 5 0.0000 0.0000 0.0000 0.0000 28.4844 0.0000
# 6 0.0000 0.0000 0.0000 0.0000 0.0000 31.2968
#
#
#
# Elastic Compliance Matrix: (Units=1/GPa)
#
#
# Indices 1 2 3 4 5 6 
#
# 1 0.028599 0.001394 -0.003303 0.000000 0.000000 0.000000
# 2 0.001394 0.010415 -0.002856 0.000000 0.000000 0.000000
# 3 -0.003303 -0.002856 0.008495 0.000000 0.000000 0.000000
# 4 0.000000 0.000000 0.000000 0.026626 0.000000 0.000000
# 5 0.000000 0.000000 0.000000 0.000000 0.035107 0.000000
# 6 0.000000 0.000000 0.000000 0.000000 0.000000 0.031952
#
#
# Mechanical properties :
#
#
# Convention : Reuss Voigt Hill
#
# Bulk Modulus (GPa) = 26.33044 41.46332 33.89688
# Shear Modulus (GPa) = 30.60275 34.76312 32.68294
#
# Velocity S-wave (km/s) = 3.48981 3.71947 3.60647
# Velocity P-wave (km/s) = 5.16885 5.91159 5.55265
#
# Compressibility (1/GPa) = 0.03797886
#
# Stress axis : x y z
#
# Youngs Moduli (GPa) = 34.96598 96.01581 117.71957
#
# Poissons Ratio (x) = -0.13383 0.38886
# Poissons Ratio (y) = -0.04874 0.33617
# Poissons Ratio (z) = 0.11550 0.27419
#
# Static dielectric constant tensor:
#      x y z
#    x 2.239430 0.000000 0.000000 
#    y 0.000000 2.031480 0.000000 
#    z 0.000000 0.000000 2.030830 
# 
# From -- ./inp_files/24883.got.cif
#   From: 2010.05.17/outbox.cif.g08.bks.cpg/sg60_13_cif.got.tgz:24883.got - 2010.06.03 14:59:27.
