data_PCOD9457939
_publ_section_title
;
Structure prediction by ZEFSAII (Michael W. Deem and Ramdas Pophale) SiO2 
 PCOD9457939
Probable space group: P B C N
;
_chemical_formula_sum "Si O2"
_cell_formula_units_Z 32
_cell_length_a 5.035008
_cell_length_b 15.101191
_cell_length_c 15.188122
_cell_angle_alpha 90.000000
_cell_angle_beta 90.000000
_cell_angle_gamma 90.000000
_cell_volume 1154.823047
_symmetry_space_group_name_H-M "P B C N"
_symmetry_group_IT_number 60
_symmetry_cell_setting 'orthorhombic'
loop_
_space_group_symop_operation_xyz
x,y,z
1/2-x,1/2-y,1/2+z
1/2+x,1/2-y,-z
-x,y,1/2-z
-x,-y,-z
1/2+x,1/2+y,1/2-z
1/2-x,1/2+y,z
x,-y,1/2+z
loop_
_atom_site_type_symbol
_atom_site_label
_atom_site_fract_x
_atom_site_fract_y
_atom_site_fract_z
Si Si1 0.544595 0.942615 0.606193
Si Si2 0.943627 0.880680 0.983469
Si Si3 0.686235 0.595557 0.825808
Si Si4 0.195467 0.207058 0.176933
O O1 0.847088 0.935884 0.576462
O O2 0.346911 0.923646 0.523478
O O3 0.450713 0.855384 0.661331
O O4 0.427704 0.029081 0.653465
O O5 0.927705 0.792284 0.923269
O O6 0.041511 0.880824 0.081954
O O7 0.500000 0.555310 0.750000
O O8 0.758049 0.693486 0.793981
O O9 0.000000 0.166587 0.250000
#
# Coordination Sequence:
#
# PCOD9457939 Si02
#       4
#     8   8   8   8
#     4  10  25  51  77 103 157 199 261 315 394 455
#     4  10  26  50  78 105 155 206 255 317 390 463
#     4  12  27  46  78 120 153 202 264 327 391 471
#     4  10  27  45  75 110 153 199 258 314 389 457
#
# _framework density 27.709875
#
# number of rings (size 3 to 8) (size 9 to 14) (size 15 to 20)
#    1.500    0.000    0.000    2.250    7.000    4.000 
#    0.000    0.000    0.000    0.000    0.000    0.000 
#    0.000    0.000    0.000    0.000    0.000    0.000 
#
# Total GULP energy -179062.872421 kJ/mol
# GULP energy per Si atom -5595.714763 kJ/mol
# Density = 2.764681 g / cm^3
# Si number density = 27.709875 Si / 1000 Ang^3
#
#
#
# Elastic Constant Matrix: (Units=GPa)
#
#
# Indices 1 2 3 4 5 6 
#
# 1 126.1025 13.3296 51.5225 0.0000 0.0000 0.0000
# 2 13.3296 117.4816 -16.4514 0.0000 0.0000 0.0000
# 3 51.5225 -16.4514 174.6574 0.0000 0.0000 0.0000
# 4 0.0000 0.0000 0.0000 56.0151 0.0000 0.0000
# 5 0.0000 0.0000 0.0000 0.0000 63.3155 0.0000
# 6 0.0000 0.0000 0.0000 0.0000 0.0000 30.0829
#
#
#
# Elastic Compliance Matrix: (Units=1/GPa)
#
#
# Indices 1 2 3 4 5 6 
#
# 1 0.009255 -0.001452 -0.002867 0.000000 0.000000 0.000000
# 2 -0.001452 0.008853 0.001262 0.000000 0.000000 0.000000
# 3 -0.002867 0.001262 0.006690 0.000000 0.000000 0.000000
# 4 0.000000 0.000000 0.000000 0.017852 0.000000 0.000000
# 5 0.000000 0.000000 0.000000 0.000000 0.015794 0.000000
# 6 0.000000 0.000000 0.000000 0.000000 0.000000 0.033242
#
#
# Mechanical properties :
#
#
# Convention : Reuss Voigt Hill
#
# Bulk Modulus (GPa) = 53.51650 57.22700 55.37175
# Shear Modulus (GPa) = 48.06440 54.53873 51.30157
#
# Velocity S-wave (km/s) = 4.16932 4.44126 4.30744
# Velocity P-wave (km/s) = 6.52171 6.85542 6.69065
#
# Compressibility (1/GPa) = 0.01868583
#
# Stress axis : x y z
#
# Youngs Moduli (GPa) = 108.05202 112.95095 149.47543
#
# Poissons Ratio (x) = 0.16395 0.42852
# Poissons Ratio (y) = 0.15684 -0.18865
# Poissons Ratio (z) = 0.30976 -0.14256
#
# Static dielectric constant tensor:
#      x y z
#    x 2.203350 0.000000 0.000000 
#    y 0.000000 2.164370 0.000000 
#    z 0.000000 0.000000 2.197670 
# 
# From -- ./inp_files/13631.got.cif
#   From: 2010.05.17/outbox.cif.g08.bks.cpg/sg60_7_cif.got.tgz:13631.got - 2010.06.03 14:59:27.
