data_PCOD9457230
_publ_section_title
;
Structure prediction by ZEFSAII (Michael W. Deem and Ramdas Pophale) SiO2 
 PCOD9457230
Probable space group: P B C N
;
_chemical_formula_sum "Si O2"
_cell_formula_units_Z 32
_cell_length_a 8.586087
_cell_length_b 12.599924
_cell_length_c 11.984976
_cell_angle_alpha 90.000000
_cell_angle_beta 90.000000
_cell_angle_gamma 90.000000
_cell_volume 1296.583167
_symmetry_space_group_name_H-M "P B C N"
_symmetry_group_IT_number 60
_symmetry_cell_setting 'orthorhombic'
loop_
_space_group_symop_operation_xyz
x,y,z
1/2-x,1/2-y,1/2+z
1/2+x,1/2-y,-z
-x,y,1/2-z
-x,-y,-z
1/2+x,1/2+y,1/2-z
1/2-x,1/2+y,z
x,-y,1/2+z
loop_
_atom_site_type_symbol
_atom_site_label
_atom_site_fract_x
_atom_site_fract_y
_atom_site_fract_z
Si Si1 0.325342 0.880623 0.064068
Si Si2 0.857751 0.660101 0.167015
Si Si3 0.478168 0.312774 0.499215
Si Si4 0.643897 0.458826 0.815133
O O1 0.452122 0.788961 0.080439
O O2 0.288348 0.965196 0.157699
O O3 0.365887 0.920555 0.938627
O O4 0.153215 0.828119 0.042936
O O5 0.703986 0.634741 0.235292
O O6 0.000000 0.650064 0.250000
O O7 0.875569 0.773812 0.106181
O O8 0.414201 0.412096 0.567265
O O9 0.500000 0.510987 0.750000
#
# Coordination Sequence:
#
# PCOD9457230 Si02
#       4
#     8   8   8   8
#     4  10  24  44  69 100 138 182 237 291 334 435
#     4  10  24  44  66 101 143 182 228 293 356 409
#     4  10  22  46  65 102 140 178 236 288 338 435
#     4  12  23  43  73 105 137 188 236 283 362 415
#
# _framework density 24.680253
#
# number of rings (size 3 to 8) (size 9 to 14) (size 15 to 20)
#    1.500    0.000    2.500    2.250    0.000    4.000 
#    0.000    1.250    0.000    0.000    0.000    0.000 
#    0.000    0.000    0.000    0.000    0.000    0.000 
#
# Total GULP energy -178456.823110 kJ/mol
# GULP energy per Si atom -5576.775722 kJ/mol
# Density = 2.462408 g / cm^3
# Si number density = 24.680253 Si / 1000 Ang^3
#
#
#
# Elastic Constant Matrix: (Units=GPa)
#
#
# Indices 1 2 3 4 5 6 
#
# 1 18.8349 15.5939 7.7743 0.0000 0.0000 0.0000
# 2 15.5939 55.7184 41.8564 0.0000 0.0000 0.0000
# 3 7.7743 41.8564 93.0843 0.0000 0.0000 0.0000
# 4 0.0000 0.0000 0.0000 30.7764 0.0000 0.0000
# 5 0.0000 0.0000 0.0000 0.0000 55.1925 0.0000
# 6 0.0000 0.0000 0.0000 0.0000 0.0000 6.5351
#
#
#
# Elastic Compliance Matrix: (Units=1/GPa)
#
#
# Indices 1 2 3 4 5 6 
#
# 1 0.070330 -0.023060 0.004495 0.000000 0.000000 0.000000
# 2 -0.023060 0.034664 -0.013661 0.000000 0.000000 0.000000
# 3 0.004495 -0.013661 0.016510 0.000000 0.000000 0.000000
# 4 0.000000 0.000000 0.000000 0.032492 0.000000 0.000000
# 5 0.000000 0.000000 0.000000 0.000000 0.018118 0.000000
# 6 0.000000 0.000000 0.000000 0.000000 0.000000 0.153020
#
#
# Mechanical properties :
#
#
# Convention : Reuss Voigt Hill
#
# Bulk Modulus (GPa) = 17.52781 33.12074 25.32427
# Shear Modulus (GPa) = 12.23682 25.32833 18.78258
#
# Velocity S-wave (km/s) = 2.22910 3.20700 2.76168
# Velocity P-wave (km/s) = 3.70710 5.21174 4.52243
#
# Compressibility (1/GPa) = 0.05705219
#
# Stress axis : x y z
#
# Youngs Moduli (GPa) = 14.21873 28.84878 60.56841
#
# Poissons Ratio (x) = 0.66526 -0.27228
# Poissons Ratio (y) = 0.32789 0.82742
# Poissons Ratio (z) = -0.06392 0.39410
#
# Static dielectric constant tensor:
#      x y z
#    x 1.963110 0.000000 0.000000 
#    y 0.000000 1.989100 0.000000 
#    z 0.000000 0.000000 2.007810 
# 
# From -- ./inp_files/9573.got.cif
#   From: 2010.05.17/outbox.cif.g08.bks.cpg/sg60_5_cif.got.tgz:9573.got - 2010.06.03 14:59:27.
