data_PCOD9457504
_publ_section_title
;
Structure prediction by ZEFSAII (Michael W. Deem and Ramdas Pophale) SiO2 
 PCOD9457504
Probable space group: P B C N
;
_chemical_formula_sum "Si O2"
_cell_formula_units_Z 52
_cell_length_a 6.719061
_cell_length_b 20.246161
_cell_length_c 18.503986
_cell_angle_alpha 90.000000
_cell_angle_beta 90.000000
_cell_angle_gamma 90.000000
_cell_volume 2517.193266
_symmetry_space_group_name_H-M "P B C N"
_symmetry_group_IT_number 60
_symmetry_cell_setting 'orthorhombic'
loop_
_space_group_symop_operation_xyz
x,y,z
1/2-x,1/2-y,1/2+z
1/2+x,1/2-y,-z
-x,y,1/2-z
-x,-y,-z
1/2+x,1/2+y,1/2-z
1/2-x,1/2+y,z
x,-y,1/2+z
loop_
_atom_site_type_symbol
_atom_site_label
_atom_site_fract_x
_atom_site_fract_y
_atom_site_fract_z
Si Si1 0.500000 0.915546 0.250000
Si Si2 0.884604 0.850121 0.675742
Si Si3 0.129366 0.952261 0.451176
Si Si4 0.607120 0.623244 0.825236
Si Si5 0.766460 0.616627 0.412900
Si Si6 0.523479 0.227108 0.164127
Si Si7 0.600154 0.030156 0.148471
O O1 0.658818 0.879262 0.302135
O O2 0.613193 0.967375 0.199659
O O3 0.756004 0.787410 0.650599
O O4 0.000000 0.837196 0.750000
O O5 0.048456 0.873035 0.619230
O O6 0.724690 0.909419 0.682265
O O7 0.237016 0.898399 0.502581
O O8 0.294761 0.002153 0.421650
O O9 0.985582 0.921461 0.389172
O O10 0.000000 0.000000 0.500000
O O11 0.500000 0.605266 0.750000
O O12 0.545379 0.698102 0.843704
O O13 0.895740 0.679846 0.387936
O O14 0.882137 0.556505 0.372734
O O15 0.500000 0.210141 0.250000
#
# Coordination Sequence:
#
# PCOD9457504 Si02
#       7
#     4   8   8   8   8   8   8
#     4  12  24  42  74 100 132 182 226 292 346 406
#     4  11  21  38  69  98 136 178 228 292 335 409
#     4  12  24  46  68 100 147 182 223 292 366 430
#     4  11  26  48  68 101 137 187 242 292 347 426
#     4  11  23  42  66 100 136 189 223 289 357 410
#     4  10  23  44  67  97 137 178 247 288 343 414
#     4  11  24  39  68 103 139 173 232 279 352 425
#
# _framework density 20.65793
#
# number of rings (size 3 to 8) (size 9 to 14) (size 15 to 20)
#    0.000    0.923    4.615    2.308    4.308    2.462 
#    2.769    0.000    0.000    0.000    0.000    0.000 
#    0.000    0.000    0.000    0.000    0.000    0.000 
#
# Total GULP energy -290167.558042 kJ/mol
# GULP energy per Si atom -5580.145347 kJ/mol
# Density = 2.061091 g / cm^3
# Si number density = 20.657930 Si / 1000 Ang^3
#
#
#
# Elastic Constant Matrix: (Units=GPa)
#
#
# Indices 1 2 3 4 5 6 
#
# 1 113.4078 62.2685 15.7818 0.0000 0.0000 0.0000
# 2 62.2685 114.3730 50.1105 0.0000 0.0000 0.0000
# 3 15.7818 50.1105 72.2493 0.0000 0.0000 0.0000
# 4 0.0000 0.0000 0.0000 31.3014 0.0000 0.0000
# 5 0.0000 0.0000 0.0000 0.0000 43.7390 0.0000
# 6 0.0000 0.0000 0.0000 0.0000 0.0000 46.6733
#
#
#
# Elastic Compliance Matrix: (Units=1/GPa)
#
#
# Indices 1 2 3 4 5 6 
#
# 1 0.013008 -0.008385 0.002974 0.000000 0.000000 0.000000
# 2 -0.008385 0.017965 -0.010629 0.000000 0.000000 0.000000
# 3 0.002974 -0.010629 0.020563 0.000000 0.000000 0.000000
# 4 0.000000 0.000000 0.000000 0.031947 0.000000 0.000000
# 5 0.000000 0.000000 0.000000 0.000000 0.022863 0.000000
# 6 0.000000 0.000000 0.000000 0.000000 0.000000 0.021426
#
#
# Mechanical properties :
#
#
# Convention : Reuss Voigt Hill
#
# Bulk Modulus (GPa) = 51.39463 61.81685 56.60574
# Shear Modulus (GPa) = 30.05956 35.80069 32.93012
#
# Velocity S-wave (km/s) = 3.81873 4.16748 3.99691
# Velocity P-wave (km/s) = 6.66157 7.29014 6.98293
#
# Compressibility (1/GPa) = 0.01945729
#
# Stress axis : x y z
#
# Youngs Moduli (GPa) = 76.87709 55.66323 48.63082
#
# Poissons Ratio (x) = 0.46674 -0.14464
# Poissons Ratio (y) = 0.64462 0.51688
# Poissons Ratio (z) = -0.22866 0.59163
#
# Static dielectric constant tensor:
#      x y z
#    x 1.781260 0.000000 0.000000 
#    y 0.000000 1.744690 0.000000 
#    z 0.000000 0.000000 1.747790 
# 
# From -- ./inp_files/21656.got.cif
#   From: 2010.05.17/outbox.cif.g08.bks.cpg/sg60_11_cif.got.tgz:21656.got - 2010.06.03 14:59:27.
