data_PCOD9457172
_publ_section_title
;
Structure prediction by ZEFSAII (Michael W. Deem and Ramdas Pophale) SiO2 
 PCOD9457172
Probable space group: P B C N
;
_chemical_formula_sum "Si O2"
_cell_formula_units_Z 48
_cell_length_a 22.261013
_cell_length_b 7.009021
_cell_length_c 11.686931
_cell_angle_alpha 90.000000
_cell_angle_beta 90.000000
_cell_angle_gamma 90.000000
_cell_volume 1823.487390
_symmetry_space_group_name_H-M "P B C N"
_symmetry_group_IT_number 60
_symmetry_cell_setting 'orthorhombic'
loop_
_space_group_symop_operation_xyz
x,y,z
1/2-x,1/2-y,1/2+z
1/2+x,1/2-y,-z
-x,y,1/2-z
-x,-y,-z
1/2+x,1/2+y,1/2-z
1/2-x,1/2+y,z
x,-y,1/2+z
loop_
_atom_site_type_symbol
_atom_site_label
_atom_site_fract_x
_atom_site_fract_y
_atom_site_fract_z
Si Si1 0.500000 0.178907 0.750000
Si Si2 0.376651 0.693432 0.915775
Si Si3 0.827914 0.229801 0.341530
Si Si4 0.500000 0.330669 0.250000
Si Si5 0.577567 0.883036 0.898890
Si Si6 0.104481 0.772695 0.876482
Si Si7 0.809227 0.787590 0.300065
O O1 0.543961 0.328096 0.690868
O O2 0.537976 0.040712 0.832495
O O3 0.437475 0.725804 0.840745
O O4 0.371038 0.463262 0.931016
O O5 0.320530 0.750897 0.834514
O O6 0.366213 0.771269 0.044069
O O7 0.852766 0.308500 0.220711
O O8 0.757836 0.276290 0.346596
O O9 0.831036 0.002728 0.319741
O O10 0.455780 0.313669 0.140770
O O11 0.646565 0.857230 0.863319
O O12 0.580305 0.881974 0.035162
#
# Coordination Sequence:
#
# PCOD9457172 Si02
#       7
#     4   8   8   4   8   8   8
#     4  11  25  42  68 108 143 201 246 304 381 435
#     4  10  22  44  70 102 147 186 245 306 370 445
#     4  11  25  43  71 105 141 196 244 301 375 442
#     4   9  21  40  70 100 135 187 228 306 379 425
#     4  10  22  45  66  96 147 182 242 306 358 438
#     4  11  24  42  66 105 138 188 246 299 368 443
#     4  10  24  44  67 103 140 192 243 296 368 441
#
# _framework density 26.323186
#
# number of rings (size 3 to 8) (size 9 to 14) (size 15 to 20)
#    0.000    1.667    1.667    1.000    7.000    0.667 
#    3.000    0.000    0.000    0.000    0.000    0.000 
#    0.000    0.000    0.000    0.000    0.000    0.000 
#
# Total GULP energy -267375.161962 kJ/mol
# GULP energy per Si atom -5570.315874 kJ/mol
# Density = 2.626327 g / cm^3
# Si number density = 26.323186 Si / 1000 Ang^3
#
#
#
# Elastic Constant Matrix: (Units=GPa)
#
#
# Indices 1 2 3 4 5 6 
#
# 1 147.1669 -13.6053 47.2910 0.0000 0.0000 0.0000
# 2 -13.6053 68.4601 10.3671 0.0000 0.0000 0.0000
# 3 47.2910 10.3671 154.3439 0.0000 0.0000 0.0000
# 4 0.0000 0.0000 0.0000 8.5370 0.0000 0.0000
# 5 0.0000 0.0000 0.0000 0.0000 35.4524 0.0000
# 6 0.0000 0.0000 0.0000 0.0000 0.0000 26.4955
#
#
#
# Elastic Compliance Matrix: (Units=1/GPa)
#
#
# Indices 1 2 3 4 5 6 
#
# 1 0.007781 0.001927 -0.002513 0.000000 0.000000 0.000000
# 2 0.001927 0.015234 -0.001614 0.000000 0.000000 0.000000
# 3 -0.002513 -0.001614 0.007358 0.000000 0.000000 0.000000
# 4 0.000000 0.000000 0.000000 0.117137 0.000000 0.000000
# 5 0.000000 0.000000 0.000000 0.000000 0.028207 0.000000
# 6 0.000000 0.000000 0.000000 0.000000 0.000000 0.037742
#
#
# Mechanical properties :
#
#
# Convention : Reuss Voigt Hill
#
# Bulk Modulus (GPa) = 38.50259 50.89740 44.69999
# Shear Modulus (GPa) = 22.07344 35.82485 28.94914
#
# Velocity S-wave (km/s) = 2.89892 3.69312 3.31986
# Velocity P-wave (km/s) = 5.08563 6.12887 5.63146
#
# Compressibility (1/GPa) = 0.02597228
#
# Stress axis : x y z
#
# Youngs Moduli (GPa) = 128.52088 65.64111 135.91465
#
# Poissons Ratio (x) = -0.12649 0.34162
# Poissons Ratio (y) = -0.24765 0.21932
# Poissons Ratio (z) = 0.32303 0.10592
#
# Static dielectric constant tensor:
#      x y z
#    x 2.126080 0.000000 0.000000 
#    y 0.000000 2.729290 0.000000 
#    z 0.000000 0.000000 2.090170 
# 
# From -- ./inp_files/13092.got.cif
#   From: 2010.05.17/outbox.cif.g08.bks.cpg/sg60_7_cif.got.tgz:13092.got - 2010.06.03 14:59:27.
