data_PCOD9457472
_publ_section_title
;
Structure prediction by ZEFSAII (Michael W. Deem and Ramdas Pophale) SiO2 
 PCOD9457472
Probable space group: P B C N
;
_chemical_formula_sum "Si O2"
_cell_formula_units_Z 48
_cell_length_a 9.074642
_cell_length_b 28.163633
_cell_length_c 9.104913
_cell_angle_alpha 90.000000
_cell_angle_beta 90.000000
_cell_angle_gamma 90.000000
_cell_volume 2326.987110
_symmetry_space_group_name_H-M "P B C N"
_symmetry_group_IT_number 60
_symmetry_cell_setting 'orthorhombic'
loop_
_space_group_symop_operation_xyz
x,y,z
1/2-x,1/2-y,1/2+z
1/2+x,1/2-y,-z
-x,y,1/2-z
-x,-y,-z
1/2+x,1/2+y,1/2-z
1/2-x,1/2+y,z
x,-y,1/2+z
loop_
_atom_site_type_symbol
_atom_site_label
_atom_site_fract_x
_atom_site_fract_y
_atom_site_fract_z
Si Si1 0.352945 0.025844 0.558181
Si Si2 0.500475 0.278938 0.576921
Si Si3 0.993288 0.374278 0.407528
Si Si4 0.835030 0.300606 0.601734
Si Si5 0.256103 0.354597 0.619702
Si Si6 0.173863 0.955080 0.767316
O O1 0.417022 0.075127 0.617776
O O2 0.237055 0.037996 0.430069
O O3 0.500000 0.000000 0.500000
O O4 0.270404 0.991601 0.670981
O O5 0.500000 0.263362 0.750000
O O6 0.670645 0.288725 0.549262
O O7 0.435426 0.241912 0.460020
O O8 0.401524 0.326550 0.569450
O O9 0.889692 0.346765 0.518382
O O10 0.000000 0.349710 0.250000
O O11 0.151433 0.372116 0.487875
O O12 0.825450 0.316393 0.772692
O O13 0.296785 0.401414 0.711917
O O14 0.000000 0.964901 0.750000
#
# Coordination Sequence:
#
# PCOD9457472 Si02
#       6
#     8   8   8   8   8   8
#     4  12  25  44  71 105 139 188 240 289 350 421
#     4  10  23  43  69 104 138 175 228 287 344 422
#     4  12  25  43  65  99 138 180 232 292 342 418
#     4  11  22  42  69 100 133 179 228 279 350 415
#     4  11  24  45  74  98 136 185 232 284 356 419
#     4  12  25  46  72 105 144 188 237 294 355 418
#
# _framework density 20.627531999999999
#
# number of rings (size 3 to 8) (size 9 to 14) (size 15 to 20)
#    0.000    0.667    3.333    5.500    0.000    2.667 
#    0.000    4.167    0.000    0.000    0.000    0.000 
#    0.000    0.000    0.000    0.000    0.000    0.000 
#
# Total GULP energy -268247.050717 kJ/mol
# GULP energy per Si atom -5588.480223 kJ/mol
# Density = 2.058058 g / cm^3
# Si number density = 20.627532 Si / 1000 Ang^3
#
#
#
# Elastic Constant Matrix: (Units=GPa)
#
#
# Indices 1 2 3 4 5 6 
#
# 1 119.7161 16.9812 24.9546 0.0000 0.0000 0.0000
# 2 16.9812 98.0137 0.8280 0.0000 0.0000 0.0000
# 3 24.9546 0.8280 64.4002 0.0000 0.0000 0.0000
# 4 0.0000 0.0000 0.0000 29.1462 0.0000 0.0000
# 5 0.0000 0.0000 0.0000 0.0000 33.1391 0.0000
# 6 0.0000 0.0000 0.0000 0.0000 0.0000 -126.6322
#
#
#
# Elastic Compliance Matrix: (Units=1/GPa)
#
#
# Indices 1 2 3 4 5 6 
#
# 1 0.009327 -0.001586 -0.003594 0.000000 0.000000 0.000000
# 2 -0.001586 0.010473 0.000480 0.000000 0.000000 0.000000
# 3 -0.003594 0.000480 0.016914 0.000000 0.000000 0.000000
# 4 0.000000 0.000000 0.000000 0.034310 0.000000 0.000000
# 5 0.000000 0.000000 0.000000 0.000000 0.030176 0.000000
# 6 0.000000 0.000000 0.000000 0.000000 0.000000 -0.007897
#
#
# Mechanical properties :
#
#
# Convention : Reuss Voigt Hill
#
# Bulk Modulus (GPa) = 36.60932 40.85084 38.73008
# Shear Modulus (GPa) = 44.71952 3.08834 23.90393
#
# Velocity S-wave (km/s) = 4.66118 1.22493 3.40786
# Velocity P-wave (km/s) = 6.83777 4.67414 5.85674
#
# Compressibility (1/GPa) = 0.02731545
#
# Stress axis : x y z
#
# Youngs Moduli (GPa) = 107.21412 95.48074 59.12156
#
# Poissons Ratio (x) = 0.15139 0.21247
# Poissons Ratio (y) = 0.17000 -0.02836
# Poissons Ratio (z) = 0.38531 -0.04581
#
# Static dielectric constant tensor:
#      x y z
#    x 1.752770 0.000000 0.000000 
#    y 0.000000 1.809480 0.000000 
#    z 0.000000 0.000000 1.660070 
# 
# From -- ./inp_files/4204.got.cif
#   From: 2010.05.17/outbox.cif.g08.bks.cpg/sg60_3_cif.got.tgz:4204.got - 2010.06.03 14:59:27.
