data_PCOD9457600
_publ_section_title
;
Structure prediction by ZEFSAII (Michael W. Deem and Ramdas Pophale) SiO2 
 PCOD9457600
Probable space group: P B C N
;
_chemical_formula_sum "Si O2"
_cell_formula_units_Z 48
_cell_length_a 8.991291
_cell_length_b 9.904249
_cell_length_c 24.426403
_cell_angle_alpha 90.000000
_cell_angle_beta 90.000000
_cell_angle_gamma 90.000000
_cell_volume 2175.219671
_symmetry_space_group_name_H-M "P B C N"
_symmetry_group_IT_number 60
_symmetry_cell_setting 'orthorhombic'
loop_
_space_group_symop_operation_xyz
x,y,z
1/2-x,1/2-y,1/2+z
1/2+x,1/2-y,-z
-x,y,1/2-z
-x,-y,-z
1/2+x,1/2+y,1/2-z
1/2-x,1/2+y,z
x,-y,1/2+z
loop_
_atom_site_type_symbol
_atom_site_label
_atom_site_fract_x
_atom_site_fract_y
_atom_site_fract_z
Si Si1 0.665322 0.025714 0.430457
Si Si2 0.934341 0.139023 0.806426
Si Si3 0.323117 0.764796 0.133438
Si Si4 0.858687 0.940331 0.033150
Si Si5 0.098600 0.311946 0.893664
Si Si6 0.894833 0.891105 0.644784
O O1 0.762158 0.121300 0.389401
O O2 0.721715 0.050303 0.491472
O O3 0.495362 0.064331 0.417713
O O4 0.696160 0.872502 0.414750
O O5 0.757631 0.165434 0.814030
O O6 0.000000 0.192221 0.750000
O O7 0.984304 0.223327 0.858893
O O8 0.017374 0.995245 0.815966
O O9 0.497069 0.736726 0.142152
O O10 0.858660 0.787527 0.056452
O O11 0.866263 0.033623 0.086838
O O12 0.000000 0.000000 0.000000
O O13 0.225700 0.343740 0.848778
#
# Coordination Sequence:
#
# PCOD9457600 Si02
#       6
#     8   8   8   8   8   8
#     4  11  23  41  68  94 139 183 231 264 340 400
#     4  10  23  47  70  93 128 171 227 287 350 405
#     4  11  22  44  69  99 129 185 223 280 331 415
#     4  11  22  40  63  97 135 185 226 272 327 399
#     4  10  26  41  63 101 137 173 228 288 327 415
#     4  11  24  42  65  96 141 167 228 282 338 403
#
# _framework density 22.066738000000001
#
# number of rings (size 3 to 8) (size 9 to 14) (size 15 to 20)
#    0.000    1.333    3.333    2.000    9.333    2.000 
#    0.000    0.000    0.000    0.000    0.000    0.000 
#    0.000    0.000    0.000    0.000    0.000    0.000 
#
# Total GULP energy -267430.167795 kJ/mol
# GULP energy per Si atom -5571.461829 kJ/mol
# Density = 2.201651 g / cm^3
# Si number density = 22.066738 Si / 1000 Ang^3
#
#
#
# Elastic Constant Matrix: (Units=GPa)
#
#
# Indices 1 2 3 4 5 6 
#
# 1 110.8405 15.2399 14.5481 0.0000 0.0000 0.0000
# 2 15.2399 54.7293 -12.9261 0.0000 0.0000 0.0000
# 3 14.5481 -12.9261 56.7106 0.0000 0.0000 0.0000
# 4 0.0000 0.0000 0.0000 2.9125 0.0000 0.0000
# 5 0.0000 0.0000 0.0000 0.0000 17.9427 0.0000
# 6 0.0000 0.0000 0.0000 0.0000 0.0000 24.1319
#
#
#
# Elastic Compliance Matrix: (Units=1/GPa)
#
#
# Indices 1 2 3 4 5 6 
#
# 1 0.009954 -0.003567 -0.003367 0.000000 0.000000 0.000000
# 2 -0.003567 0.020590 0.005608 0.000000 0.000000 0.000000
# 3 -0.003367 0.005608 0.019775 0.000000 0.000000 0.000000
# 4 0.000000 0.000000 0.000000 0.343350 0.000000 0.000000
# 5 0.000000 0.000000 0.000000 0.000000 0.055733 0.000000
# 6 0.000000 0.000000 0.000000 0.000000 0.000000 0.041439
#
#
# Mechanical properties :
#
#
# Convention : Reuss Voigt Hill
#
# Bulk Modulus (GPa) = 20.97844 28.44490 24.71167
# Shear Modulus (GPa) = 9.81582 22.69199 16.25391
#
# Velocity S-wave (km/s) = 2.11137 3.21024 2.71694
# Velocity P-wave (km/s) = 3.93336 5.16326 4.58969
#
# Compressibility (1/GPa) = 0.04766800
#
# Stress axis : x y z
#
# Youngs Moduli (GPa) = 100.45916 48.56830 50.56813
#
# Poissons Ratio (x) = 0.17324 0.17024
# Poissons Ratio (y) = 0.35834 -0.28359
# Poissons Ratio (z) = 0.33821 -0.27237
#
# Static dielectric constant tensor:
#      x y z
#    x 2.021500 0.000000 0.000000 
#    y 0.000000 1.909240 0.000000 
#    z 0.000000 0.000000 1.794580 
# 
# From -- ./inp_files/23914.got.cif
#   From: 2010.05.17/outbox.cif.g08.bks.cpg/sg60_12_cif.got.tgz:23914.got - 2010.06.03 14:59:27.
