data_PCOD9457814
_publ_section_title
;
Structure prediction by ZEFSAII (Michael W. Deem and Ramdas Pophale) SiO2 
 PCOD9457814
Probable space group: P B C N
;
_chemical_formula_sum "Si O2"
_cell_formula_units_Z 40
_cell_length_a 28.165164
_cell_length_b 10.790578
_cell_length_c 5.071169
_cell_angle_alpha 90.000000
_cell_angle_beta 90.000000
_cell_angle_gamma 90.000000
_cell_volume 1541.221564
_symmetry_space_group_name_H-M "P B C N"
_symmetry_group_IT_number 60
_symmetry_cell_setting 'orthorhombic'
loop_
_space_group_symop_operation_xyz
x,y,z
1/2-x,1/2-y,1/2+z
1/2+x,1/2-y,-z
-x,y,1/2-z
-x,-y,-z
1/2+x,1/2+y,1/2-z
1/2-x,1/2+y,z
x,-y,1/2+z
loop_
_atom_site_type_symbol
_atom_site_label
_atom_site_fract_x
_atom_site_fract_y
_atom_site_fract_z
Si Si1 0.750224 0.319710 0.232452
Si Si2 0.104219 0.572710 0.157110
Si Si3 0.000000 0.340800 0.750000
Si Si4 0.397121 0.574535 0.354044
Si Si5 0.000000 0.174266 0.250000
Si Si6 0.336581 0.745071 0.995112
O O1 0.727714 0.232645 0.461977
O O2 0.700594 0.364566 0.104162
O O3 0.797319 0.349491 0.403349
O O4 0.116544 0.462774 0.360829
O O5 0.047293 0.587201 0.170502
O O6 0.129537 0.691286 0.283600
O O7 0.986585 0.257565 0.499828
O O8 0.387381 0.461537 0.153103
O O9 0.367497 0.686208 0.227391
O O10 0.453220 0.600329 0.329621
#
# Coordination Sequence:
#
# PCOD9457814 Si02
#       6
#     8   8   4   8   4   8
#     4   8  20  38  72  90 130 176 224 280 332 396
#     4  12  27  42  70 104 137 177 229 277 336 409
#     4  12  24  46  72  96 140 186 218 280 340 396
#     4  12  27  42  70 104 137 177 229 277 336 409
#     4  12  24  46  72  96 140 186 218 280 340 396
#     4  10  24  46  70  94 142 178 226 280 348 382
#
# _framework density 25.953440000000001
#
# number of rings (size 3 to 8) (size 9 to 14) (size 15 to 20)
#    1.200    0.000    2.000    3.600    5.600    0.000 
#    0.000    6.000    0.000    0.000    0.000    0.000 
#    0.000    0.000    0.000    0.000    0.000    0.000 
#
# Total GULP energy -222919.411829 kJ/mol
# GULP energy per Si atom -5572.985296 kJ/mol
# Density = 2.589437 g / cm^3
# Si number density = 25.953440 Si / 1000 Ang^3
#
#
#
# Elastic Constant Matrix: (Units=GPa)
#
#
# Indices 1 2 3 4 5 6 
#
# 1 177.0181 14.2528 -8.1283 0.0000 0.0000 0.0000
# 2 14.2528 55.0633 -2.3513 0.0000 0.0000 0.0000
# 3 -8.1283 -2.3513 102.9500 0.0000 0.0000 0.0000
# 4 0.0000 0.0000 0.0000 23.7913 0.0000 0.0000
# 5 0.0000 0.0000 0.0000 0.0000 51.0111 0.0000
# 6 0.0000 0.0000 0.0000 0.0000 0.0000 -11.7701
#
#
#
# Elastic Compliance Matrix: (Units=1/GPa)
#
#
# Indices 1 2 3 4 5 6 
#
# 1 0.005788 -0.001480 0.000423 0.000000 0.000000 0.000000
# 2 -0.001480 0.018557 0.000307 0.000000 0.000000 0.000000
# 3 0.000423 0.000307 0.009754 0.000000 0.000000 0.000000
# 4 0.000000 0.000000 0.000000 0.042032 0.000000 0.000000
# 5 0.000000 0.000000 0.000000 0.000000 0.019604 0.000000
# 6 0.000000 0.000000 0.000000 0.000000 0.000000 -0.084961
#
#
# Mechanical properties :
#
#
# Convention : Reuss Voigt Hill
#
# Bulk Modulus (GPa) = 30.67589 38.06421 34.37005
# Shear Modulus (GPa) = 216.08214 34.69035 125.38624
#
# Velocity S-wave (km/s) = 9.13446 3.65997 6.95822
# Velocity P-wave (km/s) = 11.09488 5.70602 8.82199
#
# Compressibility (1/GPa) = 0.03259889
#
# Stress axis : x y z
#
# Youngs Moduli (GPa) = 172.77901 53.88770 102.52337
#
# Poissons Ratio (x) = 0.07976 -0.04338
# Poissons Ratio (y) = 0.25572 -0.03147
# Poissons Ratio (z) = -0.07311 -0.01654
#
# Static dielectric constant tensor:
#      x y z
#    x 1.993680 0.000000 0.000000 
#    y 0.000000 2.234270 0.000000 
#    z 0.000000 0.000000 2.051300 
# 
# From -- ./inp_files/2516.got.cif
#   From: 2010.05.17/outbox.cif.g08.bks.cpg/sg60_2_cif.got.tgz:2516.got - 2010.06.03 14:59:27.
