data_PCOD9457750
_publ_section_title
;
Structure prediction by ZEFSAII (Michael W. Deem and Ramdas Pophale) SiO2 
 PCOD9457750
Probable space group: P B C N
;
_chemical_formula_sum "Si O2"
_cell_formula_units_Z 56
_cell_length_a 18.619087
_cell_length_b 15.075359
_cell_length_c 8.245440
_cell_angle_alpha 90.000000
_cell_angle_beta 90.000000
_cell_angle_gamma 90.000000
_cell_volume 2314.407778
_symmetry_space_group_name_H-M "P B C N"
_symmetry_group_IT_number 60
_symmetry_cell_setting 'orthorhombic'
loop_
_space_group_symop_operation_xyz
x,y,z
1/2-x,1/2-y,1/2+z
1/2+x,1/2-y,-z
-x,y,1/2-z
-x,-y,-z
1/2+x,1/2+y,1/2-z
1/2-x,1/2+y,z
x,-y,1/2+z
loop_
_atom_site_type_symbol
_atom_site_label
_atom_site_fract_x
_atom_site_fract_y
_atom_site_fract_z
Si Si1 0.743317 0.027028 0.010297
Si Si2 0.500000 0.772124 0.750000
Si Si3 0.429867 0.368015 0.060661
Si Si4 0.798650 0.154704 0.448612
Si Si5 0.500000 0.934616 0.250000
Si Si6 0.388805 0.537479 0.268756
Si Si7 0.586253 0.087011 0.071266
Si Si8 0.788484 0.187481 0.813193
O O1 0.756591 0.090912 0.856162
O O2 0.739573 0.924286 0.961475
O O3 0.814814 0.031757 0.123034
O O4 0.670446 0.067425 0.076802
O O5 0.512023 0.703967 0.895620
O O6 0.436272 0.836502 0.803604
O O7 0.415147 0.444896 0.194943
O O8 0.356344 0.309797 0.065848
O O9 0.442869 0.419050 0.895106
O O10 0.866734 0.105446 0.371824
O O11 0.812738 0.189086 0.628496
O O12 0.767868 0.235348 0.345658
O O13 0.551785 0.892083 0.391485
O O14 0.550656 0.997386 0.141132
#
# Coordination Sequence:
#
# PCOD9457750 Si02
#       8
#     8   4   8   8   4   8   8   8
#     4  11  23  41  70 101 136 183 225 305 371 429
#     4  11  28  46  72  97 146 200 246 305 346 422
#     4  11  23  46  66 102 142 186 240 298 352 444
#     4  12  23  41  64 109 141 182 223 288 384 436
#     4   9  22  44  62  87 136 186 238 283 342 420
#     4  11  22  43  72  98 140 175 235 299 376 429
#     4  10  24  44  66  97 133 185 245 294 348 432
#     4  11  24  39  65 105 139 177 230 295 369 429
#
# _framework density 24.196255000000001
#
# number of rings (size 3 to 8) (size 9 to 14) (size 15 to 20)
#    0.000    1.143    4.286    1.714    8.000    2.857 
#    2.571    0.000    0.000    0.000    0.000    0.000 
#    0.000    0.000    0.000    0.000    0.000    0.000 
#
# Total GULP energy -313056.011996 kJ/mol
# GULP energy per Si atom -5590.285929 kJ/mol
# Density = 2.414118 g / cm^3
# Si number density = 24.196255 Si / 1000 Ang^3
#
#
#
# Elastic Constant Matrix: (Units=GPa)
#
#
# Indices 1 2 3 4 5 6 
#
# 1 50.6386 18.3832 3.7964 0.0000 0.0000 0.0000
# 2 18.3832 112.4497 23.1152 0.0000 0.0000 0.0000
# 3 3.7964 23.1152 103.0324 0.0000 0.0000 0.0000
# 4 0.0000 0.0000 0.0000 24.9266 0.0000 0.0000
# 5 0.0000 0.0000 0.0000 0.0000 26.0962 0.0000
# 6 0.0000 0.0000 0.0000 0.0000 0.0000 33.0196
#
#
#
# Elastic Compliance Matrix: (Units=1/GPa)
#
#
# Indices 1 2 3 4 5 6 
#
# 1 0.020994 -0.003431 -0.000004 0.000000 0.000000 0.000000
# 2 -0.003431 0.009884 -0.002091 0.000000 0.000000 0.000000
# 3 -0.000004 -0.002091 0.010175 0.000000 0.000000 0.000000
# 4 0.000000 0.000000 0.000000 0.040118 0.000000 0.000000
# 5 0.000000 0.000000 0.000000 0.000000 0.038320 0.000000
# 6 0.000000 0.000000 0.000000 0.000000 0.000000 0.030285
#
#
# Mechanical properties :
#
#
# Convention : Reuss Voigt Hill
#
# Bulk Modulus (GPa) = 33.33297 39.63448 36.48372
# Shear Modulus (GPa) = 29.26936 31.53018 30.39977
#
# Velocity S-wave (km/s) = 3.48180 3.61377 3.54840
# Velocity P-wave (km/s) = 5.47447 5.81622 5.64793
#
# Compressibility (1/GPa) = 0.03000033
#
# Stress axis : x y z
#
# Youngs Moduli (GPa) = 47.63329 101.17744 98.28080
#
# Poissons Ratio (x) = 0.34717 0.00037
# Poissons Ratio (y) = 0.16344 0.20550
# Poissons Ratio (z) = 0.00018 0.21156
#
# Static dielectric constant tensor:
#      x y z
#    x 1.996280 0.000000 0.000000 
#    y 0.000000 1.881240 0.000000 
#    z 0.000000 0.000000 1.997440 
# 
# From -- ./inp_files/7463.got.cif
#   From: 2010.05.17/outbox.cif.g08.bks.cpg/sg60_4_cif.got.tgz:7463.got - 2010.06.03 14:59:27.
