data_PCOD9457756
_publ_section_title
;
Structure prediction by ZEFSAII (Michael W. Deem and Ramdas Pophale) SiO2 
 PCOD9457756
Probable space group: P B C N
;
_chemical_formula_sum "Si O2"
_cell_formula_units_Z 40
_cell_length_a 12.374586
_cell_length_b 8.677455
_cell_length_c 14.254164
_cell_angle_alpha 90.000000
_cell_angle_beta 90.000000
_cell_angle_gamma 90.000000
_cell_volume 1530.610892
_symmetry_space_group_name_H-M "P B C N"
_symmetry_group_IT_number 60
_symmetry_cell_setting 'orthorhombic'
loop_
_space_group_symop_operation_xyz
x,y,z
1/2-x,1/2-y,1/2+z
1/2+x,1/2-y,-z
-x,y,1/2-z
-x,-y,-z
1/2+x,1/2+y,1/2-z
1/2-x,1/2+y,z
x,-y,1/2+z
loop_
_atom_site_type_symbol
_atom_site_label
_atom_site_fract_x
_atom_site_fract_y
_atom_site_fract_z
Si Si1 0.571723 0.104980 0.843677
Si Si2 0.223767 0.457462 0.887903
Si Si3 0.446256 0.367447 0.938185
Si Si4 0.000000 0.964006 0.250000
Si Si5 0.500000 0.000000 0.000000
Si Si6 0.214009 0.207279 0.749333
O O1 0.500000 0.099994 0.750000
O O2 0.504931 0.198528 0.931177
O O3 0.684213 0.183088 0.818435
O O4 0.576111 0.950773 0.902750
O O5 0.318418 0.380850 0.949847
O O6 0.207514 0.380304 0.785048
O O7 0.261936 0.624079 0.850593
O O8 0.112907 0.457658 0.940787
O O9 0.462659 0.424585 0.832125
O O10 0.500000 0.500000 0.000000
O O11 0.101385 0.863707 0.217329
#
# Coordination Sequence:
#
# PCOD9457756 Si02
#       6
#     8   8   8   4   4   8
#     4  12  23  51  73 101 152 203 242 321 395 447
#     4  11  24  47  69 107 150 186 250 312 369 465
#     4  11  24  46  72 100 140 196 251 292 369 474
#     4  10  24  44  68 112 134 188 252 304 368 460
#     4  12  28  40  74 114 146 194 260 326 386 456
#     4  11  24  48  76 100 151 197 244 312 387 461
#
# _framework density 26.133357
#
# number of rings (size 3 to 8) (size 9 to 14) (size 15 to 20)
#    0.000    0.800    5.000    1.200    8.400    1.600 
#    3.600    0.000    0.000    0.000    0.000    0.000 
#    0.000    0.000    0.000    0.000    0.000    0.000 
#
# Total GULP energy -223117.623244 kJ/mol
# GULP energy per Si atom -5577.940581 kJ/mol
# Density = 2.607388 g / cm^3
# Si number density = 26.133357 Si / 1000 Ang^3
#
#
#
# Elastic Constant Matrix: (Units=GPa)
#
#
# Indices 1 2 3 4 5 6 
#
# 1 207.2094 24.9795 38.1405 0.0000 0.0000 0.0000
# 2 24.9795 70.7312 11.6221 0.0000 0.0000 0.0000
# 3 38.1405 11.6221 120.2558 0.0000 0.0000 0.0000
# 4 0.0000 0.0000 0.0000 54.0291 0.0000 0.0000
# 5 0.0000 0.0000 0.0000 0.0000 63.6774 0.0000
# 6 0.0000 0.0000 0.0000 0.0000 0.0000 31.2690
#
#
#
# Elastic Compliance Matrix: (Units=1/GPa)
#
#
# Indices 1 2 3 4 5 6 
#
# 1 0.005302 -0.001622 -0.001525 0.000000 0.000000 0.000000
# 2 -0.001622 0.014862 -0.000922 0.000000 0.000000 0.000000
# 3 -0.001525 -0.000922 0.008888 0.000000 0.000000 0.000000
# 4 0.000000 0.000000 0.000000 0.018509 0.000000 0.000000
# 5 0.000000 0.000000 0.000000 0.000000 0.015704 0.000000
# 6 0.000000 0.000000 0.000000 0.000000 0.000000 0.031981
#
#
# Mechanical properties :
#
#
# Convention : Reuss Voigt Hill
#
# Bulk Modulus (GPa) = 47.81194 60.85340 54.33267
# Shear Modulus (GPa) = 45.30805 51.35872 48.33339
#
# Velocity S-wave (km/s) = 4.16832 4.43793 4.30524
# Velocity P-wave (km/s) = 6.44217 7.04248 6.74901
#
# Compressibility (1/GPa) = 0.02091528
#
# Stress axis : x y z
#
# Youngs Moduli (GPa) = 188.59895 67.28412 112.50681
#
# Poissons Ratio (x) = 0.10913 0.17156
# Poissons Ratio (y) = 0.30591 0.10372
# Poissons Ratio (z) = 0.28760 0.06203
#
# Static dielectric constant tensor:
#      x y z
#    x 2.087600 0.000000 0.000000 
#    y 0.000000 2.724350 0.000000 
#    z 0.000000 0.000000 2.393440 
# 
# From -- ./inp_files/15868.got.cif
#   From: 2010.05.17/outbox.cif.g08.bks.cpg/sg60_8_cif.got.tgz:15868.got - 2010.06.03 14:59:27.
