data_PCOD9457461
_publ_section_title
;
Structure prediction by ZEFSAII (Michael W. Deem and Ramdas Pophale) SiO2 
 PCOD9457461
Probable space group: P B C N
;
_chemical_formula_sum "Si O2"
_cell_formula_units_Z 32
_cell_length_a 12.640742
_cell_length_b 9.753410
_cell_length_c 12.632266
_cell_angle_alpha 90.000000
_cell_angle_beta 90.000000
_cell_angle_gamma 90.000000
_cell_volume 1557.436363
_symmetry_space_group_name_H-M "P B C N"
_symmetry_group_IT_number 60
_symmetry_cell_setting 'orthorhombic'
loop_
_space_group_symop_operation_xyz
x,y,z
1/2-x,1/2-y,1/2+z
1/2+x,1/2-y,-z
-x,y,1/2-z
-x,-y,-z
1/2+x,1/2+y,1/2-z
1/2-x,1/2+y,z
x,-y,1/2+z
loop_
_atom_site_type_symbol
_atom_site_label
_atom_site_fract_x
_atom_site_fract_y
_atom_site_fract_z
Si Si1 0.652359 0.127790 0.161574
Si Si2 0.500000 0.365216 0.250000
Si Si3 0.839902 0.696303 0.917611
Si Si4 0.186377 0.970512 0.672367
Si Si5 0.500000 0.894556 0.250000
O O1 0.587882 0.262870 0.200313
O O2 0.764536 0.102168 0.221585
O O3 0.583817 0.996487 0.195667
O O4 0.654153 0.141145 0.035932
O O5 0.430703 0.468051 0.179220
O O6 0.803800 0.853138 0.915636
O O7 0.758587 0.598300 0.857695
O O8 0.944735 0.688925 0.844428
#
# Coordination Sequence:
#
# PCOD9457461 Si02
#       5
#     8   4   8   8   4
#     4  10  23  43  67  94 135 174 216 281 338 386
#     4  11  23  46  66  98 138 172 222 282 320 406
#     4  11  23  41  67  97 132 177 220 277 334 393
#     4  11  24  43  64  99 135 170 227 275 325 402
#     4   9  21  42  64  96 130 170 224 276 330 404
#
# _framework density 20.546585
#
# number of rings (size 3 to 8) (size 9 to 14) (size 15 to 20)
#    0.000    1.500    2.500    1.500    3.500    1.000 
#    4.500    0.000    0.000    0.000    0.000    0.000 
#    0.000    0.000    0.000    0.000    0.000    0.000 
#
# Total GULP energy -178446.090148 kJ/mol
# GULP energy per Si atom -5576.440317 kJ/mol
# Density = 2.049982 g / cm^3
# Si number density = 20.546585 Si / 1000 Ang^3
#
#
#
# Elastic Constant Matrix: (Units=GPa)
#
#
# Indices 1 2 3 4 5 6 
#
# 1 40.6925 14.7367 3.5006 0.0000 0.0000 0.0000
# 2 14.7367 99.6728 -4.2249 0.0000 0.0000 0.0000
# 3 3.5006 -4.2249 76.3152 0.0000 0.0000 0.0000
# 4 0.0000 0.0000 0.0000 145.0752 0.0000 0.0000
# 5 0.0000 0.0000 0.0000 0.0000 14.8130 0.0000
# 6 0.0000 0.0000 0.0000 0.0000 0.0000 -11.7593
#
#
#
# Elastic Compliance Matrix: (Units=1/GPa)
#
#
# Indices 1 2 3 4 5 6 
#
# 1 0.026116 -0.003921 -0.001415 0.000000 0.000000 0.000000
# 2 -0.003921 0.010645 0.000769 0.000000 0.000000 0.000000
# 3 -0.001415 0.000769 0.013211 0.000000 0.000000 0.000000
# 4 0.000000 0.000000 0.000000 0.006893 0.000000 0.000000
# 5 0.000000 0.000000 0.000000 0.000000 0.067508 0.000000
# 6 0.000000 0.000000 0.000000 0.000000 0.000000 -0.085039
#
#
# Mechanical properties :
#
#
# Convention : Reuss Voigt Hill
#
# Bulk Modulus (GPa) = 24.48684 27.18949 25.83816
# Shear Modulus (GPa) = 80.53882 43.13698 61.83790
#
# Velocity S-wave (km/s) = 6.26764 4.58697 5.49197
# Velocity P-wave (km/s) = 8.02005 6.42772 7.26763
#
# Compressibility (1/GPa) = 0.04083827
#
# Stress axis : x y z
#
# Youngs Moduli (GPa) = 38.29019 93.93902 75.69426
#
# Poissons Ratio (x) = 0.36836 0.10711
# Poissons Ratio (y) = 0.15015 -0.05822
# Poissons Ratio (z) = 0.05418 -0.07226
#
# Static dielectric constant tensor:
#      x y z
#    x 1.774360 0.000000 0.000000 
#    y 0.000000 1.716110 0.000000 
#    z 0.000000 0.000000 1.710660 
# 
# From -- ./inp_files/11591.got.cif
#   From: 2010.05.17/outbox.cif.g08.bks.cpg/sg60_6_cif.got.tgz:11591.got - 2010.06.03 14:59:27.
