data_PCOD9457811
_publ_section_title
;
Structure prediction by ZEFSAII (Michael W. Deem and Ramdas Pophale) SiO2 
 PCOD9457811
Probable space group: P B C N
;
_chemical_formula_sum "Si O2"
_cell_formula_units_Z 28
_cell_length_a 5.062752
_cell_length_b 7.900007
_cell_length_c 24.080840
_cell_angle_alpha 90.000000
_cell_angle_beta 90.000000
_cell_angle_gamma 90.000000
_cell_volume 963.131888
_symmetry_space_group_name_H-M "P B C N"
_symmetry_group_IT_number 60
_symmetry_cell_setting 'orthorhombic'
loop_
_space_group_symop_operation_xyz
x,y,z
1/2-x,1/2-y,1/2+z
1/2+x,1/2-y,-z
-x,y,1/2-z
-x,-y,-z
1/2+x,1/2+y,1/2-z
1/2-x,1/2+y,z
x,-y,1/2+z
loop_
_atom_site_type_symbol
_atom_site_label
_atom_site_fract_x
_atom_site_fract_y
_atom_site_fract_z
Si Si1 0.000000 0.337490 0.250000
Si Si2 0.824904 0.390536 0.822493
Si Si3 0.551675 0.284606 0.537341
Si Si4 0.913011 0.904118 0.112329
O O1 0.238430 0.221817 0.230339
O O2 0.975777 0.462497 0.197540
O O3 0.551355 0.479663 0.840186
O O4 0.951987 0.275702 0.870399
O O5 0.307746 0.221102 0.501838
O O6 0.508634 0.471225 0.561654
O O7 0.628868 0.161432 0.589251
#
# Coordination Sequence:
#
# PCOD9457811 Si02
#       4
#     4   8   8   8
#     4  10  24  46  70 104 148 196 246 306 376 446
#     4  10  25  47  74 110 152 198 250 309 375 450
#     4  12  27  49  78 112 152 200 254 313 375 446
#     4  11  26  47  75 111 152 200 253 312 376 447
#
# _framework density 29.071821
#
# number of rings (size 3 to 8) (size 9 to 14) (size 15 to 20)
#    0.000    1.143    0.000    3.429    0.000   20.571 
#    0.000    0.000    0.000    0.000    0.000    0.000 
#    0.000    0.000    0.000    0.000    0.000    0.000 
#
# Total GULP energy -156608.167323 kJ/mol
# GULP energy per Si atom -5593.148833 kJ/mol
# Density = 2.900565 g / cm^3
# Si number density = 29.071821 Si / 1000 Ang^3
#
#
#
# Elastic Constant Matrix: (Units=GPa)
#
#
# Indices 1 2 3 4 5 6 
#
# 1 182.6837 54.0377 85.6198 0.0000 0.0000 0.0000
# 2 54.0377 158.6510 89.6015 0.0000 0.0000 0.0000
# 3 85.6198 89.6015 170.6789 0.0000 0.0000 0.0000
# 4 0.0000 0.0000 0.0000 54.3269 0.0000 0.0000
# 5 0.0000 0.0000 0.0000 0.0000 57.1788 0.0000
# 6 0.0000 0.0000 0.0000 0.0000 0.0000 39.0425
#
#
#
# Elastic Compliance Matrix: (Units=1/GPa)
#
#
# Indices 1 2 3 4 5 6 
#
# 1 0.007195 -0.000586 -0.003302 0.000000 0.000000 0.000000
# 2 -0.000586 0.009007 -0.004435 0.000000 0.000000 0.000000
# 3 -0.003302 -0.004435 0.009843 0.000000 0.000000 0.000000
# 4 0.000000 0.000000 0.000000 0.018407 0.000000 0.000000
# 5 0.000000 0.000000 0.000000 0.000000 0.017489 0.000000
# 6 0.000000 0.000000 0.000000 0.000000 0.000000 0.025613
#
#
# Mechanical properties :
#
#
# Convention : Reuss Voigt Hill
#
# Bulk Modulus (GPa) = 106.37277 107.83682 107.10479
# Shear Modulus (GPa) = 46.58440 48.95994 47.77217
#
# Velocity S-wave (km/s) = 4.00733 4.10823 4.05810
# Velocity P-wave (km/s) = 7.62107 7.72510 7.67326
#
# Compressibility (1/GPa) = 0.00940090
#
# Stress axis : x y z
#
# Youngs Moduli (GPa) = 138.99291 111.02158 101.59307
#
# Poissons Ratio (x) = 0.06505 0.33541
# Poissons Ratio (y) = 0.08144 0.45053
# Poissons Ratio (z) = 0.45889 0.49234
#
# Static dielectric constant tensor:
#      x y z
#    x 2.241590 0.000000 0.000000 
#    y 0.000000 2.239560 0.000000 
#    z 0.000000 0.000000 2.433360 
# 
# From -- ./inp_files/24686.got.cif
#   From: 2010.05.17/outbox.cif.g08.bks.cpg/sg60_13_cif.got.tgz:24686.got - 2010.06.03 14:59:27.
