data_PCOD9457200
_publ_section_title
;
Structure prediction by ZEFSAII (Michael W. Deem and Ramdas Pophale) SiO2 
 PCOD9457200
Probable space group: P B C N
;
_chemical_formula_sum "Si O2"
_cell_formula_units_Z 40
_cell_length_a 7.686597
_cell_length_b 14.363601
_cell_length_c 15.835697
_cell_angle_alpha 90.000000
_cell_angle_beta 90.000000
_cell_angle_gamma 90.000000
_cell_volume 1748.375161
_symmetry_space_group_name_H-M "P B C N"
_symmetry_group_IT_number 60
_symmetry_cell_setting 'orthorhombic'
loop_
_space_group_symop_operation_xyz
x,y,z
1/2-x,1/2-y,1/2+z
1/2+x,1/2-y,-z
-x,y,1/2-z
-x,-y,-z
1/2+x,1/2+y,1/2-z
1/2-x,1/2+y,z
x,-y,1/2+z
loop_
_atom_site_type_symbol
_atom_site_label
_atom_site_fract_x
_atom_site_fract_y
_atom_site_fract_z
Si Si1 0.907261 0.613946 0.539594
Si Si2 0.359957 0.324540 0.176196
Si Si3 0.701073 0.350843 0.745794
Si Si4 0.648814 0.996892 0.871815
Si Si5 0.854721 0.279919 0.575829
O O1 0.830506 0.553431 0.462610
O O2 0.779384 0.697089 0.560715
O O3 0.962465 0.548709 0.617702
O O4 0.086777 0.658708 0.503442
O O5 0.500000 0.340457 0.250000
O O6 0.218704 0.252230 0.212972
O O7 0.284041 0.421489 0.146850
O O8 0.466872 0.268763 0.105694
O O9 0.500000 0.379977 0.750000
O O10 0.820044 0.419332 0.801216
O O11 0.775561 0.341387 0.651435
#
# Coordination Sequence:
#
# PCOD9457200 Si02
#       5
#     8   8   8   8   8
#     4  11  25  44  72 106 143 188 236 299 367 427
#     4  10  22  45  66 104 140 181 242 292 347 427
#     4  11  24  46  73 103 142 196 242 294 358 427
#     4  11  24  46  68 107 141 184 248 292 358 434
#     4  11  24  47  74  99 149 193 234 302 365 436
#
# _framework density 22.878385999999999
#
# number of rings (size 3 to 8) (size 9 to 14) (size 15 to 20)
#    0.000    1.200    2.000    3.000    2.800    0.800 
#   32.400    0.000    0.000    0.000    0.000    0.000 
#    0.000    0.000    0.000    0.000    0.000    0.000 
#
# Total GULP energy -223890.932265 kJ/mol
# GULP energy per Si atom -5597.273307 kJ/mol
# Density = 2.282631 g / cm^3
# Si number density = 22.878386 Si / 1000 Ang^3
#
#
#
# Elastic Constant Matrix: (Units=GPa)
#
#
# Indices 1 2 3 4 5 6 
#
# 1 72.4694 38.5934 23.5290 0.0000 0.0000 0.0000
# 2 38.5934 127.0766 38.0545 0.0000 0.0000 0.0000
# 3 23.5290 38.0545 37.9575 0.0000 0.0000 0.0000
# 4 0.0000 0.0000 0.0000 39.4091 0.0000 0.0000
# 5 0.0000 0.0000 0.0000 0.0000 11.2453 0.0000
# 6 0.0000 0.0000 0.0000 0.0000 0.0000 22.6086
#
#
#
# Elastic Compliance Matrix: (Units=1/GPa)
#
#
# Indices 1 2 3 4 5 6 
#
# 1 0.018066 -0.003048 -0.008143 0.000000 0.000000 0.000000
# 2 -0.003048 0.011760 -0.009900 0.000000 0.000000 0.000000
# 3 -0.008143 -0.009900 0.041318 0.000000 0.000000 0.000000
# 4 0.000000 0.000000 0.000000 0.025375 0.000000 0.000000
# 5 0.000000 0.000000 0.000000 0.000000 0.088926 0.000000
# 6 0.000000 0.000000 0.000000 0.000000 0.000000 0.044231
#
#
# Mechanical properties :
#
#
# Convention : Reuss Voigt Hill
#
# Bulk Modulus (GPa) = 34.52841 48.65082 41.58962
# Shear Modulus (GPa) = 17.76121 23.80769 20.78445
#
# Velocity S-wave (km/s) = 2.78930 3.22936 3.01736
# Velocity P-wave (km/s) = 5.04960 5.93432 5.50975
#
# Compressibility (1/GPa) = 0.02896165
#
# Stress axis : x y z
#
# Youngs Moduli (GPa) = 55.35261 85.03547 24.20235
#
# Poissons Ratio (x) = 0.25921 0.19707
# Poissons Ratio (y) = 0.16873 0.23961
# Poissons Ratio (z) = 0.45072 0.84188
#
# Static dielectric constant tensor:
#      x y z
#    x 1.827880 0.000000 0.000000 
#    y 0.000000 1.841070 0.000000 
#    z 0.000000 0.000000 1.902770 
# 
# From -- ./inp_files/19013.got.cif
#   From: 2010.05.17/outbox.cif.g08.bks.cpg/sg60_10_cif.got.tgz:19013.got - 2010.06.03 14:59:27.
