data_PCOD9457204
_publ_section_title
;
Structure prediction by ZEFSAII (Michael W. Deem and Ramdas Pophale) SiO2 
 PCOD9457204
Probable space group: P B C N
;
_chemical_formula_sum "Si O2"
_cell_formula_units_Z 60
_cell_length_a 11.841827
_cell_length_b 11.267495
_cell_length_c 20.090092
_cell_angle_alpha 90.000000
_cell_angle_beta 90.000000
_cell_angle_gamma 90.000000
_cell_volume 2680.575301
_symmetry_space_group_name_H-M "P B C N"
_symmetry_group_IT_number 60
_symmetry_cell_setting 'orthorhombic'
loop_
_space_group_symop_operation_xyz
x,y,z
1/2-x,1/2-y,1/2+z
1/2+x,1/2-y,-z
-x,y,1/2-z
-x,-y,-z
1/2+x,1/2+y,1/2-z
1/2-x,1/2+y,z
x,-y,1/2+z
loop_
_atom_site_type_symbol
_atom_site_label
_atom_site_fract_x
_atom_site_fract_y
_atom_site_fract_z
Si Si1 0.271370 0.924655 0.460296
Si Si2 0.062483 0.976540 0.190130
Si Si3 0.500000 0.912498 0.250000
Si Si4 0.537813 0.951720 0.613903
Si Si5 0.333091 0.797855 0.583136
Si Si6 0.237214 0.691635 0.716240
Si Si7 0.136099 0.793959 0.346653
Si Si8 0.901408 0.044218 0.953689
O O1 0.266829 0.821899 0.515498
O O2 0.202401 0.882742 0.395592
O O3 0.395399 0.961991 0.435801
O O4 0.210421 0.027203 0.502532
O O5 0.185726 0.927668 0.209858
O O6 0.083745 0.025998 0.116211
O O7 0.000000 0.046629 0.250000
O O8 0.973118 0.866439 0.180432
O O9 0.392914 0.837465 0.225376
O O10 0.462974 0.991946 0.312749
O O11 0.411057 0.913012 0.595157
O O12 0.602942 0.826771 0.617103
O O13 0.265531 0.765885 0.650048
O O14 0.406324 0.681293 0.566456
O O15 0.287347 0.744829 0.784009
O O16 0.000000 0.000000 0.000000
#
# Coordination Sequence:
#
# PCOD9457204 Si02
#       8
#     8   8   4   8   8   8   8   8
#     4  12  25  42  68 108 146 184 243 302 359 436
#     4   9  19  38  69  93 131 184 239 280 347 431
#     4  12  26  42  74 108 144 186 242 320 350 444
#     4  12  24  44  72 103 141 194 244 291 378 434
#     4  11  25  45  69 100 143 196 233 302 368 439
#     4  10  22  45  68 101 140 181 243 296 364 426
#     4  11  20  46  71 101 135 189 234 295 356 437
#     4  11  21  41  68  99 136 187 239 286 357 434
#
# _framework density 22.383254999999998
#
# number of rings (size 3 to 8) (size 9 to 14) (size 15 to 20)
#    0.000    1.067    5.333    2.000    4.667    0.000 
#    4.800    0.000    1.467    0.000    0.000    0.000 
#    0.000    0.000    0.000    0.000    0.000    0.000 
#
# Total GULP energy -334955.093156 kJ/mol
# GULP energy per Si atom -5582.584886 kJ/mol
# Density = 2.233231 g / cm^3
# Si number density = 22.383255 Si / 1000 Ang^3
#
#
#
# Elastic Constant Matrix: (Units=GPa)
#
#
# Indices 1 2 3 4 5 6 
#
# 1 116.1107 19.1566 43.7663 0.0000 0.0000 0.0000
# 2 19.1566 39.4853 19.2044 0.0000 0.0000 0.0000
# 3 43.7663 19.2044 151.7290 0.0000 0.0000 0.0000
# 4 0.0000 0.0000 0.0000 25.1752 0.0000 0.0000
# 5 0.0000 0.0000 0.0000 0.0000 42.5159 0.0000
# 6 0.0000 0.0000 0.0000 0.0000 0.0000 16.9118
#
#
#
# Elastic Compliance Matrix: (Units=1/GPa)
#
#
# Indices 1 2 3 4 5 6 
#
# 1 0.010154 -0.003732 -0.002457 0.000000 0.000000 0.000000
# 2 -0.003732 0.028358 -0.002513 0.000000 0.000000 0.000000
# 3 -0.002457 -0.002513 0.007617 0.000000 0.000000 0.000000
# 4 0.000000 0.000000 0.000000 0.039722 0.000000 0.000000
# 5 0.000000 0.000000 0.000000 0.000000 0.023521 0.000000
# 6 0.000000 0.000000 0.000000 0.000000 0.000000 0.059130
#
#
# Mechanical properties :
#
#
# Convention : Reuss Voigt Hill
#
# Bulk Modulus (GPa) = 34.80963 52.39773 43.60368
# Shear Modulus (GPa) = 25.57799 31.93378 28.75588
#
# Velocity S-wave (km/s) = 3.38409 3.78124 3.58817
# Velocity P-wave (km/s) = 5.55472 6.52103 6.05717
#
# Compressibility (1/GPa) = 0.02872768
#
# Stress axis : x y z
#
# Youngs Moduli (GPa) = 98.48224 35.26283 131.27850
#
# Poissons Ratio (x) = 0.13158 0.32251
# Poissons Ratio (y) = 0.36749 0.32990
# Poissons Ratio (z) = 0.24194 0.08862
#
# Static dielectric constant tensor:
#      x y z
#    x 1.599470 0.000000 0.000000 
#    y 0.000000 1.910340 0.000000 
#    z 0.000000 0.000000 1.815150 
# 
# From -- ./inp_files/22678.got.cif
#   From: 2010.05.17/outbox.cif.g08.bks.cpg/sg60_12_cif.got.tgz:22678.got - 2010.06.03 14:59:27.
