data_PCOD9457266
_publ_section_title
;
Structure prediction by ZEFSAII (Michael W. Deem and Ramdas Pophale) SiO2 
 PCOD9457266
Probable space group: P B C N
;
_chemical_formula_sum "Si O2"
_cell_formula_units_Z 40
_cell_length_a 5.336795
_cell_length_b 23.852425
_cell_length_c 12.514595
_cell_angle_alpha 90.000000
_cell_angle_beta 90.000000
_cell_angle_gamma 90.000000
_cell_volume 1593.051659
_symmetry_space_group_name_H-M "P B C N"
_symmetry_group_IT_number 60
_symmetry_cell_setting 'orthorhombic'
loop_
_space_group_symop_operation_xyz
x,y,z
1/2-x,1/2-y,1/2+z
1/2+x,1/2-y,-z
-x,y,1/2-z
-x,-y,-z
1/2+x,1/2+y,1/2-z
1/2-x,1/2+y,z
x,-y,1/2+z
loop_
_atom_site_type_symbol
_atom_site_label
_atom_site_fract_x
_atom_site_fract_y
_atom_site_fract_z
Si Si1 0.000000 0.945998 0.750000
Si Si2 0.052144 0.132969 0.873623
Si Si3 0.731486 0.637036 0.086093
Si Si4 0.500000 0.023599 0.750000
Si Si5 0.568542 0.062244 0.532836
Si Si6 0.201206 0.745350 0.932241
O O1 0.048365 0.903893 0.849394
O O2 0.251834 0.984091 0.751840
O O3 0.154450 0.076113 0.928631
O O4 0.250656 0.184840 0.879810
O O5 0.000000 0.125379 0.750000
O O6 0.852187 0.148922 0.963854
O O7 0.749422 0.698449 0.137771
O O8 0.985687 0.603222 0.061726
O O9 0.444530 0.064172 0.650025
O O10 0.500000 0.000000 0.500000
O O11 0.420936 0.749831 0.021971
#
# Coordination Sequence:
#
# PCOD9457266 Si02
#       6
#     4   8   8   4   8   8
#     4  12  28  48  71 108 149 206 250 310 366 462
#     4  11  25  46  74 111 149 199 254 320 381 455
#     4  11  25  47  73 106 152 197 256 309 384 450
#     4  12  28  44  71 110 149 198 254 300 386 448
#     4  12  24  43  73 104 153 196 245 315 368 451
#     4  10  22  47  73 104 146 193 247 312 377 454
#
# _framework density 25.109041000000001
#
# number of rings (size 3 to 8) (size 9 to 14) (size 15 to 20)
#    0.000    0.800    4.000    2.400    4.200    1.600 
#   16.200    0.000    0.000    0.000    0.000    0.000 
#    0.000    0.000    0.000    0.000    0.000    0.000 
#
# Total GULP energy -223027.211269 kJ/mol
# GULP energy per Si atom -5575.680282 kJ/mol
# Density = 2.505189 g / cm^3
# Si number density = 25.109041 Si / 1000 Ang^3
#
#
#
# Elastic Constant Matrix: (Units=GPa)
#
#
# Indices 1 2 3 4 5 6 
#
# 1 94.3305 22.9677 26.3622 0.0000 0.0000 0.0000
# 2 22.9677 81.2672 -0.4617 0.0000 0.0000 0.0000
# 3 26.3622 -0.4617 111.9633 0.0000 0.0000 0.0000
# 4 0.0000 0.0000 0.0000 22.5528 0.0000 0.0000
# 5 0.0000 0.0000 0.0000 0.0000 32.2407 0.0000
# 6 0.0000 0.0000 0.0000 0.0000 0.0000 47.9683
#
#
#
# Elastic Compliance Matrix: (Units=1/GPa)
#
#
# Indices 1 2 3 4 5 6 
#
# 1 0.012259 -0.003481 -0.002901 0.000000 0.000000 0.000000
# 2 -0.003481 0.013294 0.000874 0.000000 0.000000 0.000000
# 3 -0.002901 0.000874 0.009618 0.000000 0.000000 0.000000
# 4 0.000000 0.000000 0.000000 0.044340 0.000000 0.000000
# 5 0.000000 0.000000 0.000000 0.000000 0.031017 0.000000
# 6 0.000000 0.000000 0.000000 0.000000 0.000000 0.020847
#
#
# Mechanical properties :
#
#
# Convention : Reuss Voigt Hill
#
# Bulk Modulus (GPa) = 41.39725 42.81083 42.10404
# Shear Modulus (GPa) = 33.23523 36.46521 34.85022
#
# Velocity S-wave (km/s) = 3.64213 3.81501 3.72957
# Velocity P-wave (km/s) = 5.84890 6.04092 5.94568
#
# Compressibility (1/GPa) = 0.02415619
#
# Stress axis : x y z
#
# Youngs Moduli (GPa) = 81.57052 75.22237 103.97037
#
# Poissons Ratio (x) = 0.26186 0.30160
# Poissons Ratio (y) = 0.28396 -0.09092
# Poissons Ratio (z) = 0.23663 -0.06578
#
# Static dielectric constant tensor:
#      x y z
#    x -19.563610 0.000000 0.000000 
#    y 0.000000 2.185090 0.000000 
#    z 0.000000 0.000000 -16.800160 
# 
# From -- ./inp_files/9138.got.cif
#   From: 2010.05.17/outbox.cif.g08.bks.cpg/sg60_5_cif.got.tgz:9138.got - 2010.06.03 14:59:27.
