data_PCOD9457591
_publ_section_title
;
Structure prediction by ZEFSAII (Michael W. Deem and Ramdas Pophale) SiO2 
 PCOD9457591
Probable space group: P B C N
;
_chemical_formula_sum "Si O2"
_cell_formula_units_Z 40
_cell_length_a 15.975788
_cell_length_b 12.069121
_cell_length_c 8.640591
_cell_angle_alpha 90.000000
_cell_angle_beta 90.000000
_cell_angle_gamma 90.000000
_cell_volume 1666.024480
_symmetry_space_group_name_H-M "P B C N"
_symmetry_group_IT_number 60
_symmetry_cell_setting 'orthorhombic'
loop_
_space_group_symop_operation_xyz
x,y,z
1/2-x,1/2-y,1/2+z
1/2+x,1/2-y,-z
-x,y,1/2-z
-x,-y,-z
1/2+x,1/2+y,1/2-z
1/2-x,1/2+y,z
x,-y,1/2+z
loop_
_atom_site_type_symbol
_atom_site_label
_atom_site_fract_x
_atom_site_fract_y
_atom_site_fract_z
Si Si1 0.953743 0.248719 0.094998
Si Si2 0.893138 0.159139 0.590278
Si Si3 0.641286 0.448305 0.760860
Si Si4 0.823303 0.388624 0.644963
Si Si5 0.089787 0.458170 0.560271
O O1 0.910124 0.137692 0.154218
O O2 0.893597 0.343865 0.032096
O O3 0.000000 0.293008 0.250000
O O4 0.020797 0.219285 0.961420
O O5 0.868813 0.089963 0.437124
O O6 0.828509 0.257108 0.627140
O O7 0.893267 0.070754 0.727981
O O8 0.736724 0.433219 0.710257
O O9 0.844781 0.446873 0.484081
O O10 0.896220 0.427157 0.762696
O O11 0.000000 0.500000 0.500000
#
# Coordination Sequence:
#
# PCOD9457591 Si02
#       5
#     8   8   8   8   8
#     4  10  23  46  74 101 145 191 243 297 360 439
#     4  11  26  49  70 109 145 199 246 297 368 444
#     4  11  27  45  73 104 150 192 242 305 371 433
#     4  12  28  44  75 107 149 190 250 306 370 427
#     4  12  25  47  72 105 141 191 248 302 360 433
#
# _framework density 24.009250999999999
#
# number of rings (size 3 to 8) (size 9 to 14) (size 15 to 20)
#    0.000    0.800    2.000    3.600   11.200    0.000 
#    0.000    0.000    0.000    0.000    0.000    0.000 
#    0.000    0.000    0.000    0.000    0.000    0.000 
#
# Total GULP energy -224124.348335 kJ/mol
# GULP energy per Si atom -5603.108708 kJ/mol
# Density = 2.395460 g / cm^3
# Si number density = 24.009251 Si / 1000 Ang^3
#
#
#
# Elastic Constant Matrix: (Units=GPa)
#
#
# Indices 1 2 3 4 5 6 
#
# 1 63.6779 -10.6732 5.1272 0.0000 0.0000 0.0000
# 2 -10.6732 126.9751 33.5961 0.0000 0.0000 0.0000
# 3 5.1272 33.5961 84.6894 0.0000 0.0000 0.0000
# 4 0.0000 0.0000 0.0000 41.3238 0.0000 0.0000
# 5 0.0000 0.0000 0.0000 0.0000 13.3805 0.0000
# 6 0.0000 0.0000 0.0000 0.0000 0.0000 7.2301
#
#
#
# Elastic Compliance Matrix: (Units=1/GPa)
#
#
# Indices 1 2 3 4 5 6 
#
# 1 0.016143 0.001805 -0.001693 0.000000 0.000000 0.000000
# 2 0.001805 0.009001 -0.003680 0.000000 0.000000 0.000000
# 3 -0.001693 -0.003680 0.013370 0.000000 0.000000 0.000000
# 4 0.000000 0.000000 0.000000 0.024199 0.000000 0.000000
# 5 0.000000 0.000000 0.000000 0.000000 0.074735 0.000000
# 6 0.000000 0.000000 0.000000 0.000000 0.000000 0.138310
#
#
# Mechanical properties :
#
#
# Convention : Reuss Voigt Hill
#
# Bulk Modulus (GPa) = 31.87003 36.82696 34.34850
# Shear Modulus (GPa) = 17.04421 28.87304 22.95862
#
# Velocity S-wave (km/s) = 2.66729 3.47159 3.09567
# Velocity P-wave (km/s) = 4.77376 5.60724 5.20720
#
# Compressibility (1/GPa) = 0.03137744
#
# Stress axis : x y z
#
# Youngs Moduli (GPa) = 61.94669 111.09943 74.79321
#
# Poissons Ratio (x) = -0.20053 0.12665
# Poissons Ratio (y) = -0.11181 0.27523
# Poissons Ratio (z) = 0.10490 0.40884
#
# Static dielectric constant tensor:
#      x y z
#    x 1.924400 0.000000 0.000000 
#    y 0.000000 1.886590 0.000000 
#    z 0.000000 0.000000 1.956860 
# 
# From -- ./inp_files/6510.got.cif
#   From: 2010.05.17/outbox.cif.g08.bks.cpg/sg60_4_cif.got.tgz:6510.got - 2010.06.03 14:59:27.
