data_PCOD9457354
_publ_section_title
;
Structure prediction by ZEFSAII (Michael W. Deem and Ramdas Pophale) SiO2 
 PCOD9457354
Probable space group: P B C N
;
_chemical_formula_sum "Si O2"
_cell_formula_units_Z 48
_cell_length_a 11.014997
_cell_length_b 9.288421
_cell_length_c 21.081057
_cell_angle_alpha 90.000000
_cell_angle_beta 90.000000
_cell_angle_gamma 90.000000
_cell_volume 2156.843617
_symmetry_space_group_name_H-M "P B C N"
_symmetry_group_IT_number 60
_symmetry_cell_setting 'orthorhombic'
loop_
_space_group_symop_operation_xyz
x,y,z
1/2-x,1/2-y,1/2+z
1/2+x,1/2-y,-z
-x,y,1/2-z
-x,-y,-z
1/2+x,1/2+y,1/2-z
1/2-x,1/2+y,z
x,-y,1/2+z
loop_
_atom_site_type_symbol
_atom_site_label
_atom_site_fract_x
_atom_site_fract_y
_atom_site_fract_z
Si Si1 0.079815 0.865141 0.600398
Si Si2 0.683607 0.984273 0.117662
Si Si3 0.004807 0.676990 0.175109
Si Si4 0.090974 0.024613 0.809690
Si Si5 0.711270 0.327778 0.397458
Si Si6 0.352900 0.304268 0.960512
O O1 0.151017 0.718986 0.614039
O O2 0.976027 0.901226 0.651280
O O3 0.995227 0.849794 0.538741
O O4 0.168257 0.005420 0.602680
O O5 0.554159 0.052521 0.133838
O O6 0.764877 0.996873 0.182987
O O7 0.763591 0.072952 0.066534
O O8 0.664330 0.830323 0.086113
O O9 0.000000 0.644324 0.250000
O O10 0.134921 0.735642 0.153415
O O11 0.922605 0.817491 0.160091
O O12 0.000000 0.035908 0.750000
O O13 0.683246 0.270160 0.467796
#
# Coordination Sequence:
#
# PCOD9457354 Si02
#       6
#     8   8   8   8   8   8
#     4  10  24  41  61  98 126 169 218 266 331 388
#     4  11  22  41  66  98 127 171 219 269 324 389
#     4  10  23  41  63  93 128 170 215 266 326 379
#     4   9  20  42  66  90 128 171 212 271 322 383
#     4  11  24  42  67  91 135 171 213 276 325 389
#     4  11  24  41  67  94 132 168 220 267 332 391
#
# _framework density 22.254742
#
# number of rings (size 3 to 8) (size 9 to 14) (size 15 to 20)
#    0.000    1.667    1.667    1.500    7.000    0.667 
#    0.000    3.333    0.000    0.000    0.000    0.000 
#    0.000    0.000    0.000    0.000    0.000    0.000 
#
# Total GULP energy -267511.487063 kJ/mol
# GULP energy per Si atom -5573.155980 kJ/mol
# Density = 2.220409 g / cm^3
# Si number density = 22.254742 Si / 1000 Ang^3
#
#
#
# Elastic Constant Matrix: (Units=GPa)
#
#
# Indices 1 2 3 4 5 6 
#
# 1 63.9454 39.8848 6.3789 0.0000 0.0000 0.0000
# 2 39.8848 107.1015 18.3902 0.0000 0.0000 0.0000
# 3 6.3789 18.3902 54.5968 0.0000 0.0000 0.0000
# 4 0.0000 0.0000 0.0000 19.3232 0.0000 0.0000
# 5 0.0000 0.0000 0.0000 0.0000 6.3283 0.0000
# 6 0.0000 0.0000 0.0000 0.0000 0.0000 6.1179
#
#
#
# Elastic Compliance Matrix: (Units=1/GPa)
#
#
# Indices 1 2 3 4 5 6 
#
# 1 0.020372 -0.007618 0.000186 0.000000 0.000000 0.000000
# 2 -0.007618 0.012759 -0.003408 0.000000 0.000000 0.000000
# 3 0.000186 -0.003408 0.019442 0.000000 0.000000 0.000000
# 4 0.000000 0.000000 0.000000 0.051751 0.000000 0.000000
# 5 0.000000 0.000000 0.000000 0.000000 0.158020 0.000000
# 6 0.000000 0.000000 0.000000 0.000000 0.000000 0.163454
#
#
# Mechanical properties :
#
#
# Convention : Reuss Voigt Hill
#
# Bulk Modulus (GPa) = 32.36989 39.43907 35.90448
# Shear Modulus (GPa) = 10.92238 17.08655 14.00446
#
# Velocity S-wave (km/s) = 2.21778 2.77387 2.51127
# Velocity P-wave (km/s) = 4.59726 5.29333 4.95752
#
# Compressibility (1/GPa) = 0.03089290
#
# Stress axis : x y z
#
# Youngs Moduli (GPa) = 49.08795 78.37516 51.43456
#
# Poissons Ratio (x) = 0.59709 -0.00957
# Poissons Ratio (y) = 0.37397 0.17527
# Poissons Ratio (z) = -0.00913 0.26708
#
# Static dielectric constant tensor:
#      x y z
#    x 1.906530 0.000000 0.000000 
#    y 0.000000 1.832580 0.000000 
#    z 0.000000 0.000000 1.890040 
# 
# From -- ./inp_files/24233.got.cif
#   From: 2010.05.17/outbox.cif.g08.bks.cpg/sg60_13_cif.got.tgz:24233.got - 2010.06.03 14:59:27.
