data_PCOD9457117
_publ_section_title
;
Structure prediction by ZEFSAII (Michael W. Deem and Ramdas Pophale) SiO2 
 PCOD9457117
Probable space group: P B C N
;
_chemical_formula_sum "Si O2"
_cell_formula_units_Z 32
_cell_length_a 9.576023
_cell_length_b 8.944768
_cell_length_c 16.339783
_cell_angle_alpha 90.000000
_cell_angle_beta 90.000000
_cell_angle_gamma 90.000000
_cell_volume 1399.589082
_symmetry_space_group_name_H-M "P B C N"
_symmetry_group_IT_number 60
_symmetry_cell_setting 'orthorhombic'
loop_
_space_group_symop_operation_xyz
x,y,z
1/2-x,1/2-y,1/2+z
1/2+x,1/2-y,-z
-x,y,1/2-z
-x,-y,-z
1/2+x,1/2+y,1/2-z
1/2-x,1/2+y,z
x,-y,1/2+z
loop_
_atom_site_type_symbol
_atom_site_label
_atom_site_fract_x
_atom_site_fract_y
_atom_site_fract_z
Si Si1 0.390434 0.844775 0.191108
Si Si2 0.148560 0.794038 0.396828
Si Si3 0.721303 0.442234 0.720109
Si Si4 0.453430 0.167630 0.975765
O O1 0.500000 0.927506 0.250000
O O2 0.709229 0.811868 0.048072
O O3 0.265428 0.960723 0.200187
O O4 0.456678 0.805046 0.105873
O O5 0.144431 0.938736 0.338359
O O6 0.171533 0.645432 0.341228
O O7 0.012780 0.772721 0.452674
O O8 0.645033 0.302105 0.758491
O O9 0.500000 0.000000 0.000000
#
# Coordination Sequence:
#
# PCOD9457117 Si02
#       4
#     8   8   8   8
#     4  11  22  44  69  94 136 181 231 283 350 411
#     4  11  23  46  68 100 142 179 226 288 346 415
#     4  10  22  43  67  96 136 176 229 285 339 411
#     4  12  25  45  71 103 142 184 230 292 354 417
#
# _framework density 22.863852000000001
#
# number of rings (size 3 to 8) (size 9 to 14) (size 15 to 20)
#    0.000    1.000    7.500    0.000    3.500    1.000 
#    4.500    2.500    0.000    0.000    0.000    0.000 
#    0.000    0.000    0.000    0.000    0.000    0.000 
#
# Total GULP energy -178529.671831 kJ/mol
# GULP energy per Si atom -5579.052245 kJ/mol
# Density = 2.281181 g / cm^3
# Si number density = 22.863852 Si / 1000 Ang^3
#
#
#
# Elastic Constant Matrix: (Units=GPa)
#
#
# Indices 1 2 3 4 5 6 
#
# 1 45.7129 14.7637 -10.5764 0.0000 0.0000 0.0000
# 2 14.7637 106.0212 13.2824 0.0000 0.0000 0.0000
# 3 -10.5764 13.2824 44.2535 0.0000 0.0000 0.0000
# 4 0.0000 0.0000 0.0000 14.4808 0.0000 0.0000
# 5 0.0000 0.0000 0.0000 0.0000 32.4318 0.0000
# 6 0.0000 0.0000 0.0000 0.0000 0.0000 73.5280
#
#
#
# Elastic Compliance Matrix: (Units=1/GPa)
#
#
# Indices 1 2 3 4 5 6 
#
# 1 0.024980 -0.004392 0.007288 0.000000 0.000000 0.000000
# 2 -0.004392 0.010573 -0.004223 0.000000 0.000000 0.000000
# 3 0.007288 -0.004223 0.025606 0.000000 0.000000 0.000000
# 4 0.000000 0.000000 0.000000 0.069057 0.000000 0.000000
# 5 0.000000 0.000000 0.000000 0.000000 0.030834 0.000000
# 6 0.000000 0.000000 0.000000 0.000000 0.000000 0.013600
#
#
# Mechanical properties :
#
#
# Convention : Reuss Voigt Hill
#
# Bulk Modulus (GPa) = 17.09200 25.65855 21.37527
# Shear Modulus (GPa) = 25.40580 35.98931 30.69755
#
# Velocity S-wave (km/s) = 3.33705 3.97176 3.66816
# Velocity P-wave (km/s) = 4.72648 5.68154 5.22587
#
# Compressibility (1/GPa) = 0.05850692
#
# Stress axis : x y z
#
# Youngs Moduli (GPa) = 40.03155 94.58347 39.05271
#
# Poissons Ratio (x) = 0.41538 -0.28463
# Poissons Ratio (y) = 0.17580 0.16492
# Poissons Ratio (z) = -0.29176 0.39942
#
# Static dielectric constant tensor:
#      x y z
#    x 1.643770 0.000000 0.000000 
#    y 0.000000 1.820600 0.000000 
#    z 0.000000 0.000000 1.919730 
# 
# From -- ./inp_files/15726.got.cif
#   From: 2010.05.17/outbox.cif.g08.bks.cpg/sg60_8_cif.got.tgz:15726.got - 2010.06.03 14:59:27.
