data_PCOD9457716
_publ_section_title
;
Structure prediction by ZEFSAII (Michael W. Deem and Ramdas Pophale) SiO2 
 PCOD9457716
Probable space group: P B C N
;
_chemical_formula_sum "Si O2"
_cell_formula_units_Z 48
_cell_length_a 12.581646
_cell_length_b 9.310130
_cell_length_c 18.131739
_cell_angle_alpha 90.000000
_cell_angle_beta 90.000000
_cell_angle_gamma 90.000000
_cell_volume 2123.893157
_symmetry_space_group_name_H-M "P B C N"
_symmetry_group_IT_number 60
_symmetry_cell_setting 'orthorhombic'
loop_
_space_group_symop_operation_xyz
x,y,z
1/2-x,1/2-y,1/2+z
1/2+x,1/2-y,-z
-x,y,1/2-z
-x,-y,-z
1/2+x,1/2+y,1/2-z
1/2-x,1/2+y,z
x,-y,1/2+z
loop_
_atom_site_type_symbol
_atom_site_label
_atom_site_fract_x
_atom_site_fract_y
_atom_site_fract_z
Si Si1 0.973555 0.603352 0.566460
Si Si2 0.909100 0.274611 0.310870
Si Si3 0.562602 0.537507 0.880019
Si Si4 0.877760 0.091557 0.034525
Si Si5 0.676054 0.675384 0.748897
Si Si6 0.709088 0.942455 0.652586
O O1 0.942612 0.759882 0.536162
O O2 0.877572 0.547672 0.617613
O O3 0.000000 0.500000 0.500000
O O4 0.072342 0.619662 0.621115
O O5 0.927966 0.114898 0.340328
O O6 0.791140 0.288867 0.282511
O O7 0.000000 0.302914 0.250000
O O8 0.449461 0.529177 0.923219
O O9 0.591864 0.647416 0.814572
O O10 0.641584 0.551250 0.949764
O O11 0.774569 0.117241 0.083316
O O12 0.654620 0.812623 0.697188
O O13 0.705790 0.531067 0.702635
#
# Coordination Sequence:
#
# PCOD9457716 Si02
#       6
#     8   8   8   8   8   8
#     4  11  26  46  69  99 142 193 231 288 362 429
#     4  11  22  45  67  95 146 184 225 298 363 411
#     4  10  24  42  73  99 137 182 237 287 363 423
#     4  10  24  48  68 103 142 186 236 304 353 423
#     4  12  24  41  73 107 134 190 237 293 350 430
#     4  12  24  46  73 103 144 185 240 292 359 423
#
# _framework density 22.600007000000002
#
# number of rings (size 3 to 8) (size 9 to 14) (size 15 to 20)
#    0.000    1.000    5.000    1.000    2.333    6.667 
#    0.000    1.667    0.000    0.000    0.000    0.000 
#    0.000    0.000    0.000    0.000    0.000    0.000 
#
# Total GULP energy -268298.362051 kJ/mol
# GULP energy per Si atom -5589.549209 kJ/mol
# Density = 2.254857 g / cm^3
# Si number density = 22.600007 Si / 1000 Ang^3
#
#
#
# Elastic Constant Matrix: (Units=GPa)
#
#
# Indices 1 2 3 4 5 6 
#
# 1 36.4442 0.9401 19.2094 0.0000 0.0000 0.0000
# 2 0.9401 58.7738 29.0900 0.0000 0.0000 0.0000
# 3 19.2094 29.0900 129.8341 0.0000 0.0000 0.0000
# 4 0.0000 0.0000 0.0000 53.5609 0.0000 0.0000
# 5 0.0000 0.0000 0.0000 0.0000 38.1223 0.0000
# 6 0.0000 0.0000 0.0000 0.0000 0.0000 27.5993
#
#
#
# Elastic Compliance Matrix: (Units=1/GPa)
#
#
# Indices 1 2 3 4 5 6 
#
# 1 0.029953 0.001928 -0.004864 0.000000 0.000000 0.000000
# 2 0.001928 0.019261 -0.004601 0.000000 0.000000 0.000000
# 3 -0.004864 -0.004601 0.009453 0.000000 0.000000 0.000000
# 4 0.000000 0.000000 0.000000 0.018670 0.000000 0.000000
# 5 0.000000 0.000000 0.000000 0.000000 0.026231 0.000000
# 6 0.000000 0.000000 0.000000 0.000000 0.000000 0.036233
#
#
# Mechanical properties :
#
#
# Convention : Reuss Voigt Hill
#
# Bulk Modulus (GPa) = 22.93903 35.94790 29.44346
# Shear Modulus (GPa) = 29.51515 35.57735 32.54625
#
# Velocity S-wave (km/s) = 3.61775 3.97195 3.79898
# Velocity P-wave (km/s) = 5.25575 6.08077 5.68325
#
# Compressibility (1/GPa) = 0.04359383
#
# Stress axis : x y z
#
# Youngs Moduli (GPa) = 33.38554 51.91925 105.79147
#
# Poissons Ratio (x) = -0.10011 0.51454
# Poissons Ratio (y) = -0.06437 0.48672
# Poissons Ratio (z) = 0.16238 0.23887
#
# Static dielectric constant tensor:
#      x y z
#    x 1.864410 0.000000 0.000000 
#    y 0.000000 1.821290 0.000000 
#    z 0.000000 0.000000 1.858490 
# 
# From -- ./inp_files/20487.got.cif
#   From: 2010.05.17/outbox.cif.g08.bks.cpg/sg60_11_cif.got.tgz:20487.got - 2010.06.03 14:59:27.
