data_PCOD9457158
_publ_section_title
;
Structure prediction by ZEFSAII (Michael W. Deem and Ramdas Pophale) SiO2 
 PCOD9457158
Probable space group: P B C N
;
_chemical_formula_sum "Si O2"
_cell_formula_units_Z 60
_cell_length_a 8.265393
_cell_length_b 27.019064
_cell_length_c 12.505320
_cell_angle_alpha 90.000000
_cell_angle_beta 90.000000
_cell_angle_gamma 90.000000
_cell_volume 2792.727860
_symmetry_space_group_name_H-M "P B C N"
_symmetry_group_IT_number 60
_symmetry_cell_setting 'orthorhombic'
loop_
_space_group_symop_operation_xyz
x,y,z
1/2-x,1/2-y,1/2+z
1/2+x,1/2-y,-z
-x,y,1/2-z
-x,-y,-z
1/2+x,1/2+y,1/2-z
1/2-x,1/2+y,z
x,-y,1/2+z
loop_
_atom_site_type_symbol
_atom_site_label
_atom_site_fract_x
_atom_site_fract_y
_atom_site_fract_z
Si Si1 0.153274 0.900062 0.973917
Si Si2 0.018081 0.658931 0.434612
Si Si3 0.172633 0.969848 0.797864
Si Si4 0.308608 0.744205 0.939382
Si Si5 0.131228 0.665864 0.831256
Si Si6 0.500000 0.090879 0.250000
Si Si7 0.991396 0.192207 0.381228
Si Si8 0.177165 0.917163 0.223049
O O1 0.311225 0.869927 0.936781
O O2 0.147990 0.953847 0.920139
O O3 0.011935 0.862851 0.933129
O O4 0.180408 0.910137 0.097159
O O5 0.054031 0.716107 0.411591
O O6 0.943931 0.656651 0.552353
O O7 0.933470 0.628325 0.341708
O O8 0.342404 0.943427 0.768956
O O9 0.000000 0.951813 0.750000
O O10 0.187320 0.026854 0.765339
O O11 0.284103 0.700791 0.853979
O O12 0.143112 0.775415 0.925378
O O13 0.343612 0.720005 0.056502
O O14 0.187769 0.615546 0.778234
O O15 0.000000 0.689209 0.750000
O O16 0.000000 0.190324 0.250000
O O17 0.000000 0.897604 0.250000
#
# Coordination Sequence:
#
# PCOD9457158 Si02
#       8
#     8   8   8   8   8   4   8   8
#     4  10  22  44  66  99 145 175 240 297 354 441
#     4  10  23  44  65 103 136 182 244 291 364 447
#     4  10  24  44  71 104 144 191 242 303 375 437
#     4  11  24  42  65 101 134 182 238 291 358 442
#     4  12  24  44  71  97 144 190 236 301 372 433
#     4  10  24  46  72 104 144 192 242 310 370 456
#     4  11  24  44  69  96 142 188 233 296 370 430
#     4  11  25  43  70 108 138 186 241 304 366 440
#
# _framework density 21.484369999999998
#
# number of rings (size 3 to 8) (size 9 to 14) (size 15 to 20)
#    0.000    1.333    2.667    1.600    0.933    8.533 
#    3.600    3.333    0.000    0.000    0.000    0.000 
#    0.000    0.000    0.000    0.000    0.000    0.000 
#
# Total GULP energy -334405.812597 kJ/mol
# GULP energy per Si atom -5573.430210 kJ/mol
# Density = 2.143547 g / cm^3
# Si number density = 21.484370 Si / 1000 Ang^3
#
#
#
# Elastic Constant Matrix: (Units=GPa)
#
#
# Indices 1 2 3 4 5 6 
#
# 1 80.8982 30.9398 28.9180 0.0000 0.0000 0.0000
# 2 30.9398 106.7355 69.5815 0.0000 0.0000 0.0000
# 3 28.9180 69.5815 97.9180 0.0000 0.0000 0.0000
# 4 0.0000 0.0000 0.0000 30.4612 0.0000 0.0000
# 5 0.0000 0.0000 0.0000 0.0000 27.9370 0.0000
# 6 0.0000 0.0000 0.0000 0.0000 0.0000 -23.4601
#
#
#
# Elastic Compliance Matrix: (Units=1/GPa)
#
#
# Indices 1 2 3 4 5 6 
#
# 1 0.014190 -0.002574 -0.002362 0.000000 0.000000 0.000000
# 2 -0.002574 0.017922 -0.011975 0.000000 0.000000 0.000000
# 3 -0.002362 -0.011975 0.019420 0.000000 0.000000 0.000000
# 4 0.000000 0.000000 0.000000 0.032829 0.000000 0.000000
# 5 0.000000 0.000000 0.000000 0.000000 0.035795 0.000000
# 6 0.000000 0.000000 0.000000 0.000000 0.000000 -0.042625
#
#
# Mechanical properties :
#
#
# Convention : Reuss Voigt Hill
#
# Bulk Modulus (GPa) = 56.46529 60.49223 58.47876
# Shear Modulus (GPa) = 42.64241 17.39511 30.01876
#
# Velocity S-wave (km/s) = 4.45995 2.84855 3.74202
# Velocity P-wave (km/s) = 7.27054 6.24792 6.77854
#
# Compressibility (1/GPa) = 0.01770999
#
# Stress axis : x y z
#
# Youngs Moduli (GPa) = 70.47348 55.79815 51.49344
#
# Poissons Ratio (x) = 0.14360 0.12162
# Poissons Ratio (y) = 0.18136 0.61665
# Poissons Ratio (z) = 0.16645 0.66820
#
# Static dielectric constant tensor:
#      x y z
#    x 1.782380 0.000000 0.000000 
#    y 0.000000 2.009260 0.000000 
#    z 0.000000 0.000000 1.601510 
# 
# From -- ./inp_files/10300.got.cif
#   From: 2010.05.17/outbox.cif.g08.bks.cpg/sg60_6_cif.got.tgz:10300.got - 2010.06.03 14:59:27.
