data_PCOD9457403
_publ_section_title
;
Structure prediction by ZEFSAII (Michael W. Deem and Ramdas Pophale) SiO2 
 PCOD9457403
Probable space group: P B C N
;
_chemical_formula_sum "Si O2"
_cell_formula_units_Z 48
_cell_length_a 8.087749
_cell_length_b 9.337992
_cell_length_c 26.198345
_cell_angle_alpha 90.000000
_cell_angle_beta 90.000000
_cell_angle_gamma 90.000000
_cell_volume 1978.586398
_symmetry_space_group_name_H-M "P B C N"
_symmetry_group_IT_number 60
_symmetry_cell_setting 'orthorhombic'
loop_
_space_group_symop_operation_xyz
x,y,z
1/2-x,1/2-y,1/2+z
1/2+x,1/2-y,-z
-x,y,1/2-z
-x,-y,-z
1/2+x,1/2+y,1/2-z
1/2-x,1/2+y,z
x,-y,1/2+z
loop_
_atom_site_type_symbol
_atom_site_label
_atom_site_fract_x
_atom_site_fract_y
_atom_site_fract_z
Si Si1 0.697426 0.021490 0.503237
Si Si2 0.598190 0.369303 0.336445
Si Si3 0.156637 0.576006 0.222660
Si Si4 0.257921 0.218793 0.562082
Si Si5 0.216322 0.924889 0.831166
Si Si6 0.619383 0.854717 0.106121
O O1 0.750339 0.119285 0.455924
O O2 0.728309 0.092089 0.557775
O O3 0.500000 0.000000 0.500000
O O4 0.776551 0.869533 0.489990
O O5 0.741807 0.472958 0.314515
O O6 0.600422 0.223320 0.303879
O O7 0.630903 0.321552 0.394182
O O8 0.432279 0.460906 0.333460
O O9 0.266356 0.616212 0.272135
O O10 0.000000 0.502454 0.250000
O O11 0.436692 0.180419 0.585357
O O12 0.371029 0.011532 0.855145
O O13 0.182615 0.786432 0.865454
#
# Coordination Sequence:
#
# PCOD9457403 Si02
#       6
#     8   8   8   8   8   8
#     4  10  23  42  67  99 133 175 224 276 335 401
#     4  12  26  44  70 100 134 176 223 278 335 398
#     4  12  25  44  66  95 131 174 219 271 329 396
#     4  11  23  44  67  97 134 177 225 276 335 402
#     4  12  25  43  66  99 133 170 221 274 334 398
#     4  11  24  43  68  98 134 178 221 277 337 403
#
# _framework density 24.259741999999999
#
# number of rings (size 3 to 8) (size 9 to 14) (size 15 to 20)
#    0.000    0.667    0.000    8.500    0.000    8.000 
#    0.000    5.833    0.000    0.000    0.000    0.000 
#    0.000    0.000    0.000    0.000    0.000    0.000 
#
# Total GULP energy -268905.890464 kJ/mol
# GULP energy per Si atom -5602.206051 kJ/mol
# Density = 2.420453 g / cm^3
# Si number density = 24.259742 Si / 1000 Ang^3
#
#
#
# Elastic Constant Matrix: (Units=GPa)
#
#
# Indices 1 2 3 4 5 6 
#
# 1 51.1024 0.9168 -5.7864 0.0000 0.0000 0.0000
# 2 0.9168 109.1483 21.7601 0.0000 0.0000 0.0000
# 3 -5.7864 21.7601 99.7429 0.0000 0.0000 0.0000
# 4 0.0000 0.0000 0.0000 47.2230 0.0000 0.0000
# 5 0.0000 0.0000 0.0000 0.0000 36.4549 0.0000
# 6 0.0000 0.0000 0.0000 0.0000 0.0000 32.4930
#
#
#
# Elastic Compliance Matrix: (Units=1/GPa)
#
#
# Indices 1 2 3 4 5 6 
#
# 1 0.019716 -0.000412 0.001234 0.000000 0.000000 0.000000
# 2 -0.000412 0.009587 -0.002115 0.000000 0.000000 0.000000
# 3 0.001234 -0.002115 0.010559 0.000000 0.000000 0.000000
# 4 0.000000 0.000000 0.000000 0.021176 0.000000 0.000000
# 5 0.000000 0.000000 0.000000 0.000000 0.027431 0.000000
# 6 0.000000 0.000000 0.000000 0.000000 0.000000 0.030776
#
#
# Mechanical properties :
#
#
# Convention : Reuss Voigt Hill
#
# Bulk Modulus (GPa) = 26.82783 32.64161 29.73472
# Shear Modulus (GPa) = 37.24221 39.44107 38.34164
#
# Velocity S-wave (km/s) = 3.92234 4.03647 3.97982
# Velocity P-wave (km/s) = 5.62100 5.93367 5.77945
#
# Compressibility (1/GPa) = 0.03727473
#
# Stress axis : x y z
#
# Youngs Moduli (GPa) = 50.72126 104.30749 94.70736
#
# Poissons Ratio (x) = 0.04293 -0.11683
# Poissons Ratio (y) = 0.02087 0.20034
# Poissons Ratio (z) = -0.06257 0.22065
#
# Static dielectric constant tensor:
#      x y z
#    x 1.981010 0.000000 0.000000 
#    y 0.000000 1.860430 0.000000 
#    z 0.000000 0.000000 1.941250 
# 
# From -- ./inp_files/25908.got.cif
#   From: 2010.05.17/outbox.cif.g08.bks.cpg/sg60_13_cif.got.tgz:25908.got - 2010.06.03 14:59:27.
