data_PCOD9457530
_publ_section_title
;
Structure prediction by ZEFSAII (Michael W. Deem and Ramdas Pophale) SiO2 
 PCOD9457530
Probable space group: P B C N
;
_chemical_formula_sum "Si O2"
_cell_formula_units_Z 64
_cell_length_a 8.027423
_cell_length_b 24.209143
_cell_length_c 14.316416
_cell_angle_alpha 90.000000
_cell_angle_beta 90.000000
_cell_angle_gamma 90.000000
_cell_volume 2782.209785
_symmetry_space_group_name_H-M "P B C N"
_symmetry_group_IT_number 60
_symmetry_cell_setting 'orthorhombic'
loop_
_space_group_symop_operation_xyz
x,y,z
1/2-x,1/2-y,1/2+z
1/2+x,1/2-y,-z
-x,y,1/2-z
-x,-y,-z
1/2+x,1/2+y,1/2-z
1/2-x,1/2+y,z
x,-y,1/2+z
loop_
_atom_site_type_symbol
_atom_site_label
_atom_site_fract_x
_atom_site_fract_y
_atom_site_fract_z
Si Si1 0.040697 0.453260 0.425235
Si Si2 0.613159 0.166428 0.938897
Si Si3 0.593400 0.749821 0.607803
Si Si4 0.230913 0.754724 0.702081
Si Si5 0.001603 0.137611 0.541522
Si Si6 0.379294 0.379776 0.662686
Si Si7 0.593613 0.536277 0.635303
Si Si8 0.242032 0.992441 0.671133
O O1 0.001414 0.388111 0.436547
O O2 0.908372 0.473187 0.346616
O O3 0.000000 0.500000 0.500000
O O4 0.237707 0.461886 0.422389
O O5 0.618405 0.207688 0.848546
O O6 0.802453 0.146248 0.950407
O O7 0.583668 0.201834 0.032293
O O8 0.414917 0.747513 0.658574
O O9 0.737295 0.753054 0.686092
O O10 0.604582 0.693220 0.550888
O O11 0.172155 0.816373 0.676982
O O12 0.964562 0.114606 0.438452
O O13 0.956645 0.100191 0.630370
O O14 0.500000 0.393279 0.750000
O O15 0.235494 0.426446 0.667288
O O16 0.666183 0.511743 0.730517
O O17 0.420584 0.506810 0.606946
#
# Coordination Sequence:
#
# PCOD9457530 Si02
#       8
#     8   8   8   8   8   8   8   8
#     4  12  28  44  74 112 145 195 251 305 378 448
#     4  11  24  45  71 109 153 185 253 309 371 452
#     4  10  23  44  71 105 147 196 238 317 374 444
#     4  10  24  44  70 104 146 196 248 301 380 443
#     4  11  24  42  77  98 148 192 245 304 380 440
#     4  12  24  45  70 104 138 195 246 302 375 450
#     4  11  25  48  74 102 144 197 242 306 376 438
#     4  11  26  50  71 105 150 189 255 307 368 452
#
# _framework density 23.003299999999999
#
# number of rings (size 3 to 8) (size 9 to 14) (size 15 to 20)
#    0.000    1.000    3.750    1.875    7.000    3.000 
#    4.500    0.000    0.000    0.000    0.000    0.000 
#    0.000    0.000    0.000    0.000    0.000    0.000 
#
# Total GULP energy -357075.160170 kJ/mol
# GULP energy per Si atom -5579.299378 kJ/mol
# Density = 2.295094 g / cm^3
# Si number density = 23.003300 Si / 1000 Ang^3
#
#
#
# Elastic Constant Matrix: (Units=GPa)
#
#
# Indices 1 2 3 4 5 6 
#
# 1 76.6457 24.7189 26.1997 0.0000 0.0000 0.0000
# 2 24.7189 140.3526 46.1424 0.0000 0.0000 0.0000
# 3 26.1997 46.1424 93.1515 0.0000 0.0000 0.0000
# 4 0.0000 0.0000 0.0000 36.8564 0.0000 0.0000
# 5 0.0000 0.0000 0.0000 0.0000 21.0434 0.0000
# 6 0.0000 0.0000 0.0000 0.0000 0.0000 90.3377
#
#
#
# Elastic Compliance Matrix: (Units=1/GPa)
#
#
# Indices 1 2 3 4 5 6 
#
# 1 0.014684 -0.001467 -0.003403 0.000000 0.000000 0.000000
# 2 -0.001467 0.008658 -0.003876 0.000000 0.000000 0.000000
# 3 -0.003403 -0.003876 0.013612 0.000000 0.000000 0.000000
# 4 0.000000 0.000000 0.000000 0.027132 0.000000 0.000000
# 5 0.000000 0.000000 0.000000 0.000000 0.047521 0.000000
# 6 0.000000 0.000000 0.000000 0.000000 0.000000 0.011070
#
#
# Mechanical properties :
#
#
# Convention : Reuss Voigt Hill
#
# Bulk Modulus (GPa) = 51.38486 56.03021 53.70754
# Shear Modulus (GPa) = 34.09357 43.85343 38.97350
#
# Velocity S-wave (km/s) = 3.85400 4.37097 4.12060
# Velocity P-wave (km/s) = 6.49546 7.06287 6.78510
#
# Compressibility (1/GPa) = 0.01946098
#
# Stress axis : x y z
#
# Youngs Moduli (GPa) = 68.10361 115.50626 73.46336
#
# Poissons Ratio (x) = 0.16948 0.25000
# Poissons Ratio (y) = 0.09993 0.28473
# Poissons Ratio (z) = 0.23176 0.44768
#
# Static dielectric constant tensor:
#      x y z
#    x 2.222390 0.000000 0.000000 
#    y 0.000000 1.735970 0.000000 
#    z 0.000000 0.000000 2.009410 
# 
# From -- ./inp_files/15427.got.cif
#   From: 2010.05.17/outbox.cif.g08.bks.cpg/sg60_8_cif.got.tgz:15427.got - 2010.06.03 14:59:27.
