data_PCOD9457157
_publ_section_title
;
Structure prediction by ZEFSAII (Michael W. Deem and Ramdas Pophale) SiO2 
 PCOD9457157
Probable space group: P B C N
;
_chemical_formula_sum "Si O2"
_cell_formula_units_Z 32
_cell_length_a 8.180719
_cell_length_b 8.079853
_cell_length_c 21.666193
_cell_angle_alpha 90.000000
_cell_angle_beta 90.000000
_cell_angle_gamma 90.000000
_cell_volume 1432.113842
_symmetry_space_group_name_H-M "P B C N"
_symmetry_group_IT_number 60
_symmetry_cell_setting 'orthorhombic'
loop_
_space_group_symop_operation_xyz
x,y,z
1/2-x,1/2-y,1/2+z
1/2+x,1/2-y,-z
-x,y,1/2-z
-x,-y,-z
1/2+x,1/2+y,1/2-z
1/2-x,1/2+y,z
x,-y,1/2+z
loop_
_atom_site_type_symbol
_atom_site_label
_atom_site_fract_x
_atom_site_fract_y
_atom_site_fract_z
Si Si1 0.637607 0.361761 0.510184
Si Si2 0.037214 0.228587 0.180427
Si Si3 0.252395 0.464299 0.118853
Si Si4 0.591796 0.955664 0.085947
O O1 0.500000 0.500000 0.500000
O O2 0.717826 0.358909 0.442768
O O3 0.765685 0.428103 0.561513
O O4 0.575324 0.184350 0.532676
O O5 0.196812 0.347415 0.175166
O O6 0.000000 0.183792 0.250000
O O7 0.896262 0.338706 0.147293
O O8 0.095600 0.075427 0.138367
O O9 0.077449 0.548863 0.101538
#
# Coordination Sequence:
#
# PCOD9457157 Si02
#       4
#     8   8   8   8
#     4  12  20  40  67 103 139 166 219 278 347 405
#     4  10  23  44  65  93 131 177 228 270 329 399
#     4  10  22  44  66  96 133 173 221 278 329 403
#     4  10  24  38  65 100 133 172 218 271 345 388
#
# _framework density 22.344594000000001
#
# number of rings (size 3 to 8) (size 9 to 14) (size 15 to 20)
#    1.500    0.000    2.500    3.750    0.000    4.000 
#    0.000    1.250    0.000    0.000    0.000    0.000 
#    0.000    0.000    0.000    0.000    0.000    0.000 
#
# Total GULP energy -178138.863533 kJ/mol
# GULP energy per Si atom -5566.839485 kJ/mol
# Density = 2.229374 g / cm^3
# Si number density = 22.344594 Si / 1000 Ang^3
#
#
#
# Elastic Constant Matrix: (Units=GPa)
#
#
# Indices 1 2 3 4 5 6 
#
# 1 77.3181 26.9075 42.7224 0.0000 0.0000 0.0000
# 2 26.9075 62.2014 21.0263 0.0000 0.0000 0.0000
# 3 42.7224 21.0263 136.7787 0.0000 0.0000 0.0000
# 4 0.0000 0.0000 0.0000 28.7241 0.0000 0.0000
# 5 0.0000 0.0000 0.0000 0.0000 33.2456 0.0000
# 6 0.0000 0.0000 0.0000 0.0000 0.0000 39.1714
#
#
#
# Elastic Compliance Matrix: (Units=1/GPa)
#
#
# Indices 1 2 3 4 5 6 
#
# 1 0.017557 -0.006056 -0.004553 0.000000 0.000000 0.000000
# 2 -0.006056 0.019047 -0.001036 0.000000 0.000000 0.000000
# 3 -0.004553 -0.001036 0.008892 0.000000 0.000000 0.000000
# 4 0.000000 0.000000 0.000000 0.034814 0.000000 0.000000
# 5 0.000000 0.000000 0.000000 0.000000 0.030079 0.000000
# 6 0.000000 0.000000 0.000000 0.000000 0.000000 0.025529
#
#
# Mechanical properties :
#
#
# Convention : Reuss Voigt Hill
#
# Bulk Modulus (GPa) = 45.03326 50.84564 47.93945
# Shear Modulus (GPa) = 30.01015 32.60436 31.30726
#
# Velocity S-wave (km/s) = 3.66876 3.82404 3.74720
# Velocity P-wave (km/s) = 6.17609 6.50403 6.34218
#
# Compressibility (1/GPa) = 0.02220581
#
# Stress axis : x y z
#
# Youngs Moduli (GPa) = 56.95805 52.50221 112.45449
#
# Poissons Ratio (x) = 0.31794 0.51199
# Poissons Ratio (y) = 0.34493 0.11655
# Poissons Ratio (z) = 0.25932 0.05442
#
# Static dielectric constant tensor:
#      x y z
#    x 1.889020 0.000000 0.000000 
#    y 0.000000 1.865780 0.000000 
#    z 0.000000 0.000000 1.821520 
# 
# From -- ./inp_files/23802.got.cif
#   From: 2010.05.17/outbox.cif.g08.bks.cpg/sg60_12_cif.got.tgz:23802.got - 2010.06.03 14:59:27.
