data_PCOD9457763
_publ_section_title
;
Structure prediction by ZEFSAII (Michael W. Deem and Ramdas Pophale) SiO2 
 PCOD9457763
Probable space group: P B C N
;
_chemical_formula_sum "Si O2"
_cell_formula_units_Z 24
_cell_length_a 8.677102
_cell_length_b 10.061993
_cell_length_c 10.237446
_cell_angle_alpha 90.000000
_cell_angle_beta 90.000000
_cell_angle_gamma 90.000000
_cell_volume 893.820554
_symmetry_space_group_name_H-M "P B C N"
_symmetry_group_IT_number 60
_symmetry_cell_setting 'orthorhombic'
loop_
_space_group_symop_operation_xyz
x,y,z
1/2-x,1/2-y,1/2+z
1/2+x,1/2-y,-z
-x,y,1/2-z
-x,-y,-z
1/2+x,1/2+y,1/2-z
1/2-x,1/2+y,z
x,-y,1/2+z
loop_
_atom_site_type_symbol
_atom_site_label
_atom_site_fract_x
_atom_site_fract_y
_atom_site_fract_z
Si Si1 0.326562 0.034224 0.800529
Si Si2 0.112651 0.125486 0.129206
Si Si3 0.310869 0.302277 0.974110
O O1 0.500000 0.024264 0.750000
O O2 0.789449 0.999612 0.819640
O O3 0.288668 0.916153 0.903896
O O4 0.308654 0.169597 0.882122
O O5 0.985595 0.141527 0.014036
O O6 0.000000 0.150167 0.250000
O O7 0.234071 0.240956 0.102282
#
# Coordination Sequence:
#
# PCOD9457763 Si02
#       3
#     8   8   8
#     4  11  24  43  71 104 141 183 230 286 349 415
#     4  10  24  44  70 102 138 180 232 284 345 410
#     4  11  25  44  70 101 141 184 232 287 345 412
#
# _framework density 26.851026999999998
#
# number of rings (size 3 to 8) (size 9 to 14) (size 15 to 20)
#    0.000    1.333    0.000    5.000    0.000   20.000 
#    0.000    3.333    0.000    0.000    0.000    0.000 
#    0.000    0.000    0.000    0.000    0.000    0.000 
#
# Total GULP energy -134316.380464 kJ/mol
# GULP energy per Si atom -5596.515853 kJ/mol
# Density = 2.678991 g / cm^3
# Si number density = 26.851027 Si / 1000 Ang^3
#
#
#
# Elastic Constant Matrix: (Units=GPa)
#
#
# Indices 1 2 3 4 5 6 
#
# 1 171.8236 77.8473 46.1290 0.0000 0.0000 0.0000
# 2 77.8473 249.2873 24.3329 0.0000 0.0000 0.0000
# 3 46.1290 24.3329 58.6205 0.0000 0.0000 0.0000
# 4 0.0000 0.0000 0.0000 45.9550 0.0000 0.0000
# 5 0.0000 0.0000 0.0000 0.0000 65.6376 0.0000
# 6 0.0000 0.0000 0.0000 0.0000 0.0000 38.8495
#
#
#
# Elastic Compliance Matrix: (Units=1/GPa)
#
#
# Indices 1 2 3 4 5 6 
#
# 1 0.008256 -0.002026 -0.005656 0.000000 0.000000 0.000000
# 2 -0.002026 0.004678 -0.000347 0.000000 0.000000 0.000000
# 3 -0.005656 -0.000347 0.021654 0.000000 0.000000 0.000000
# 4 0.000000 0.000000 0.000000 0.021760 0.000000 0.000000
# 5 0.000000 0.000000 0.000000 0.000000 0.015235 0.000000
# 6 0.000000 0.000000 0.000000 0.000000 0.000000 0.025740
#
#
# Mechanical properties :
#
#
# Convention : Reuss Voigt Hill
#
# Bulk Modulus (GPa) = 53.96904 86.26108 70.11506
# Shear Modulus (GPa) = 41.82013 52.18323 47.00168
#
# Velocity S-wave (km/s) = 3.95078 4.41322 4.18839
# Velocity P-wave (km/s) = 6.39958 7.62655 7.03985
#
# Compressibility (1/GPa) = 0.01852914
#
# Stress axis : x y z
#
# Youngs Moduli (GPa) = 121.11868 213.76244 46.18132
#
# Poissons Ratio (x) = 0.43313 0.26120
# Poissons Ratio (y) = 0.24541 0.01604
# Poissons Ratio (z) = 0.68504 0.07426
#
# Static dielectric constant tensor:
#      x y z
#    x 2.094560 0.000000 0.000000 
#    y 0.000000 2.103600 0.000000 
#    z 0.000000 0.000000 2.396060 
# 
# From -- ./inp_files/9345.got.cif
#   From: 2010.05.17/outbox.cif.g08.bks.cpg/sg60_5_cif.got.tgz:9345.got - 2010.06.03 14:59:27.
