data_PCOD9457614
_publ_section_title
;
Structure prediction by ZEFSAII (Michael W. Deem and Ramdas Pophale) SiO2 
 PCOD9457614
Probable space group: P B C N
;
_chemical_formula_sum "Si O2"
_cell_formula_units_Z 28
_cell_length_a 5.277990
_cell_length_b 20.783011
_cell_length_c 12.429403
_cell_angle_alpha 90.000000
_cell_angle_beta 90.000000
_cell_angle_gamma 90.000000
_cell_volume 1363.412590
_symmetry_space_group_name_H-M "P B C N"
_symmetry_group_IT_number 60
_symmetry_cell_setting 'orthorhombic'
loop_
_space_group_symop_operation_xyz
x,y,z
1/2-x,1/2-y,1/2+z
1/2+x,1/2-y,-z
-x,y,1/2-z
-x,-y,-z
1/2+x,1/2+y,1/2-z
1/2-x,1/2+y,z
x,-y,1/2+z
loop_
_atom_site_type_symbol
_atom_site_label
_atom_site_fract_x
_atom_site_fract_y
_atom_site_fract_z
Si Si1 0.835393 0.352717 0.838175
Si Si2 0.956419 0.641141 0.936457
Si Si3 0.000000 0.742843 0.750000
Si Si4 0.056425 0.925434 0.487445
O O1 0.727088 0.291052 0.777728
O O2 0.612428 0.393341 0.895346
O O3 0.000000 0.390318 0.750000
O O4 0.004248 0.333816 0.941480
O O5 0.017945 0.696531 0.852488
O O6 0.177922 0.587586 0.926781
O O7 0.677362 0.611073 0.931312
O O8 0.000000 0.000000 0.500000
#
# Coordination Sequence:
#
# PCOD9457614 Si02
#       4
#     8   8   4   8
#     4  10  25  41  73 101 139 186 225 290 352 410
#     4  10  26  42  72 102 133 187 226 290 348 411
#     4  12  26  44  66 106 144 178 236 280 360 418
#     4  10  23  48  71 100 140 178 238 285 346 413
#
# _framework density 20.536704
#
# number of rings (size 3 to 8) (size 9 to 14) (size 15 to 20)
#    1.714    0.000    0.000    2.571   12.000    0.000 
#    2.571    2.857    0.000    0.000    0.000    0.000 
#    0.000    0.000    0.000    0.000    0.000    0.000 
#
# Total GULP energy -156004.167209 kJ/mol
# GULP energy per Si atom -5571.577400 kJ/mol
# Density = 2.048996 g / cm^3
# Si number density = 20.536704 Si / 1000 Ang^3
#
#
#
# Elastic Constant Matrix: (Units=GPa)
#
#
# Indices 1 2 3 4 5 6 
#
# 1 102.3217 27.6964 15.9741 0.0000 0.0000 0.0000
# 2 27.6964 95.7563 29.9565 0.0000 0.0000 0.0000
# 3 15.9741 29.9565 89.6017 0.0000 0.0000 0.0000
# 4 0.0000 0.0000 0.0000 -16.1270 0.0000 0.0000
# 5 0.0000 0.0000 0.0000 0.0000 13.3014 0.0000
# 6 0.0000 0.0000 0.0000 0.0000 0.0000 41.0559
#
#
#
# Elastic Compliance Matrix: (Units=1/GPa)
#
#
# Indices 1 2 3 4 5 6 
#
# 1 0.010679 -0.002784 -0.000973 0.000000 0.000000 0.000000
# 2 -0.002784 0.012389 -0.003646 0.000000 0.000000 0.000000
# 3 -0.000973 -0.003646 0.012553 0.000000 0.000000 0.000000
# 4 0.000000 0.000000 0.000000 -0.062008 0.000000 0.000000
# 5 0.000000 0.000000 0.000000 0.000000 0.075180 0.000000
# 6 0.000000 0.000000 0.000000 0.000000 0.000000 0.024357
#
#
# Mechanical properties :
#
#
# Convention : Reuss Voigt Hill
#
# Bulk Modulus (GPa) = 48.04282 48.32597 48.18439
# Shear Modulus (GPa) = 52.69058 21.91623 37.30341
#
# Velocity S-wave (km/s) = 5.07075 3.27031 4.26658
# Velocity P-wave (km/s) = 7.59788 6.15162 6.91268
#
# Compressibility (1/GPa) = 0.02081476
#
# Stress axis : x y z
#
# Youngs Moduli (GPa) = 93.64489 80.71668 79.66349
#
# Poissons Ratio (x) = 0.22474 0.07750
# Poissons Ratio (y) = 0.26074 0.29042
# Poissons Ratio (z) = 0.09111 0.29426
#
# Static dielectric constant tensor:
#      x y z
#    x 1.787490 0.000000 0.000000 
#    y 0.000000 1.692910 0.000000 
#    z 0.000000 0.000000 1.750180 
# 
# From -- ./inp_files/8886.got.cif
#   From: 2010.05.17/outbox.cif.g08.bks.cpg/sg60_5_cif.got.tgz:8886.got - 2010.06.03 14:59:27.
