data_PCOD9457025
_publ_section_title
;
Structure prediction by ZEFSAII (Michael W. Deem and Ramdas Pophale) SiO2 
 PCOD9457025
Probable space group: P B C N
;
_chemical_formula_sum "Si O2"
_cell_formula_units_Z 40
_cell_length_a 7.356765
_cell_length_b 24.432333
_cell_length_c 9.354224
_cell_angle_alpha 90.000000
_cell_angle_beta 90.000000
_cell_angle_gamma 90.000000
_cell_volume 1681.355651
_symmetry_space_group_name_H-M "P B C N"
_symmetry_group_IT_number 60
_symmetry_cell_setting 'orthorhombic'
loop_
_space_group_symop_operation_xyz
x,y,z
1/2-x,1/2-y,1/2+z
1/2+x,1/2-y,-z
-x,y,1/2-z
-x,-y,-z
1/2+x,1/2+y,1/2-z
1/2-x,1/2+y,z
x,-y,1/2+z
loop_
_atom_site_type_symbol
_atom_site_label
_atom_site_fract_x
_atom_site_fract_y
_atom_site_fract_z
Si Si1 0.767553 0.530567 0.592721
Si Si2 0.221433 0.225453 0.259070
Si Si3 0.120649 0.875838 0.609604
Si Si4 0.696938 0.680604 0.942032
Si Si5 0.309941 0.061363 0.600792
O O1 0.701552 0.572942 0.472585
O O2 0.724588 0.469948 0.535084
O O3 0.708903 0.543881 0.753826
O O4 0.984443 0.539949 0.602982
O O5 0.260193 0.169866 0.169795
O O6 0.271958 0.214477 0.422412
O O7 0.000000 0.232107 0.250000
O O8 0.306141 0.278508 0.189187
O O9 0.000000 0.889839 0.750000
O O10 0.993359 0.844187 0.496004
O O11 0.811819 0.626386 0.910539
#
# Coordination Sequence:
#
# PCOD9457025 Si02
#       5
#     8   8   8   8   8
#     4  10  23  44  65  94 133 165 221 273 318 399
#     4   9  22  41  63  90 135 166 216 262 311 387
#     4   9  22  43  65  95 134 170 215 273 327 387
#     4  10  22  42  65  97 125 175 214 262 333 378
#     4  10  24  41  69  93 126 175 219 264 329 386
#
# _framework density 23.790327999999999
#
# number of rings (size 3 to 8) (size 9 to 14) (size 15 to 20)
#    0.000    2.800    0.000    0.000   11.200    3.200 
#    3.600    8.000    0.000    0.000    0.000    0.000 
#    0.000    0.000    0.000    0.000    0.000    0.000 
#
# Total GULP energy -223650.801919 kJ/mol
# GULP energy per Si atom -5591.270048 kJ/mol
# Density = 2.373618 g / cm^3
# Si number density = 23.790328 Si / 1000 Ang^3
#
#
#
# Elastic Constant Matrix: (Units=GPa)
#
#
# Indices 1 2 3 4 5 6 
#
# 1 48.6328 14.2604 26.5985 0.0000 0.0000 0.0000
# 2 14.2604 143.9075 90.6342 0.0000 0.0000 0.0000
# 3 26.5985 90.6342 147.3856 0.0000 0.0000 0.0000
# 4 0.0000 0.0000 0.0000 104.8365 0.0000 0.0000
# 5 0.0000 0.0000 0.0000 0.0000 21.8936 0.0000
# 6 0.0000 0.0000 0.0000 0.0000 0.0000 7.5909
#
#
#
# Elastic Compliance Matrix: (Units=1/GPa)
#
#
# Indices 1 2 3 4 5 6 
#
# 1 0.022840 0.000543 -0.004456 0.000000 0.000000 0.000000
# 2 0.000543 0.011354 -0.007080 0.000000 0.000000 0.000000
# 3 -0.004456 -0.007080 0.011943 0.000000 0.000000 0.000000
# 4 0.000000 0.000000 0.000000 0.009539 0.000000 0.000000
# 5 0.000000 0.000000 0.000000 0.000000 0.045676 0.000000
# 6 0.000000 0.000000 0.000000 0.000000 0.000000 0.131736
#
#
# Mechanical properties :
#
#
# Convention : Reuss Voigt Hill
#
# Bulk Modulus (GPa) = 41.40582 66.99025 54.19803
# Shear Modulus (GPa) = 19.00239 40.75970 29.88105
#
# Velocity S-wave (km/s) = 2.82927 4.14368 3.54788
# Velocity P-wave (km/s) = 5.30239 7.14935 6.29398
#
# Compressibility (1/GPa) = 0.02415120
#
# Stress axis : x y z
#
# Youngs Moduli (GPa) = 43.78272 88.07206 83.73055
#
# Poissons Ratio (x) = -0.04782 0.37309
# Poissons Ratio (y) = -0.02377 0.59284
# Poissons Ratio (z) = 0.19509 0.62358
#
# Static dielectric constant tensor:
#      x y z
#    x 1.964940 0.000000 0.000000 
#    y 0.000000 1.880290 0.000000 
#    z 0.000000 0.000000 1.916240 
# 
# From -- ./inp_files/3826.got.cif
#   From: 2010.05.17/outbox.cif.g08.bks.cpg/sg60_2_cif.got.tgz:3826.got - 2010.06.03 14:59:27.
