data_PCOD9457533
_publ_section_title
;
Structure prediction by ZEFSAII (Michael W. Deem and Ramdas Pophale) SiO2 
 PCOD9457533
Probable space group: P B C N
;
_chemical_formula_sum "Si O2"
_cell_formula_units_Z 56
_cell_length_a 28.322127
_cell_length_b 5.121858
_cell_length_c 15.295919
_cell_angle_alpha 90.000000
_cell_angle_beta 90.000000
_cell_angle_gamma 90.000000
_cell_volume 2218.855267
_symmetry_space_group_name_H-M "P B C N"
_symmetry_group_IT_number 60
_symmetry_cell_setting 'orthorhombic'
loop_
_space_group_symop_operation_xyz
x,y,z
1/2-x,1/2-y,1/2+z
1/2+x,1/2-y,-z
-x,y,1/2-z
-x,-y,-z
1/2+x,1/2+y,1/2-z
1/2-x,1/2+y,z
x,-y,1/2+z
loop_
_atom_site_type_symbol
_atom_site_label
_atom_site_fract_x
_atom_site_fract_y
_atom_site_fract_z
Si Si1 0.439849 0.492788 0.409377
Si Si2 0.781857 0.030433 0.966777
Si Si3 0.143317 0.652540 0.463029
Si Si4 0.605618 0.981800 0.354832
Si Si5 0.280844 0.570892 0.739357
Si Si6 0.143867 0.269082 0.318313
Si Si7 0.546292 0.462403 0.387826
O O1 0.407732 0.238749 0.426032
O O2 0.407333 0.678549 0.351734
O O3 0.490942 0.448241 0.368269
O O4 0.448466 0.598455 0.508027
O O5 0.742424 0.807006 0.984831
O O6 0.793190 0.038832 0.863161
O O7 0.827548 0.915043 0.015231
O O8 0.135916 0.511199 0.556144
O O9 0.164318 0.457303 0.392390
O O10 0.637967 0.918687 0.272789
O O11 0.568619 0.744658 0.369032
O O12 0.577460 0.247012 0.340148
O O13 0.259275 0.852663 0.755967
O O14 0.324628 0.482087 0.797040
#
# Coordination Sequence:
#
# PCOD9457533 Si02
#       7
#     8   8   8   8   8   8   8
#     4  10  25  44  71 104 137 189 235 297 343 426
#     4  10  23  44  71  99 134 186 230 282 358 426
#     4  11  25  45  70 104 141 179 239 286 356 416
#     4  11  25  46  72 101 140 194 223 298 345 419
#     4  10  24  45  69 100 142 183 229 291 350 415
#     4  12  26  44  72 108 141 183 245 285 356 423
#     4  10  24  48  72  96 147 184 237 285 364 402
#
# _framework density 25.238242
#
# number of rings (size 3 to 8) (size 9 to 14) (size 15 to 20)
#    0.000    1.429    2.857    0.000    8.000    3.429 
#    0.000    0.000    0.000    0.000    0.000    0.000 
#    0.000    0.000    0.000    0.000    0.000    0.000 
#
# Total GULP energy -314261.910666 kJ/mol
# GULP energy per Si atom -5611.819833 kJ/mol
# Density = 2.518080 g / cm^3
# Si number density = 25.238242 Si / 1000 Ang^3
#
#
#
# Elastic Constant Matrix: (Units=GPa)
#
#
# Indices 1 2 3 4 5 6 
#
# 1 107.7140 18.8060 37.5514 0.0000 0.0000 0.0000
# 2 18.8060 74.3674 18.4010 0.0000 0.0000 0.0000
# 3 37.5514 18.4010 110.1276 0.0000 0.0000 0.0000
# 4 0.0000 0.0000 0.0000 30.1003 0.0000 0.0000
# 5 0.0000 0.0000 0.0000 0.0000 28.1908 0.0000
# 6 0.0000 0.0000 0.0000 0.0000 0.0000 33.9876
#
#
#
# Elastic Compliance Matrix: (Units=1/GPa)
#
#
# Indices 1 2 3 4 5 6 
#
# 1 0.010787 -0.001896 -0.003361 0.000000 0.000000 0.000000
# 2 -0.001896 0.014360 -0.001753 0.000000 0.000000 0.000000
# 3 -0.003361 -0.001753 0.010519 0.000000 0.000000 0.000000
# 4 0.000000 0.000000 0.000000 0.033222 0.000000 0.000000
# 5 0.000000 0.000000 0.000000 0.000000 0.035473 0.000000
# 6 0.000000 0.000000 0.000000 0.000000 0.000000 0.029422
#
#
# Mechanical properties :
#
#
# Convention : Reuss Voigt Hill
#
# Bulk Modulus (GPa) = 46.19852 49.08062 47.63957
# Shear Modulus (GPa) = 32.25415 32.95246 32.60331
#
# Velocity S-wave (km/s) = 3.57877 3.61731 3.59809
# Velocity P-wave (km/s) = 5.95160 6.07747 6.01487
#
# Compressibility (1/GPa) = 0.02164571
#
# Stress axis : x y z
#
# Youngs Moduli (GPa) = 92.70697 69.63815 95.06268
#
# Poissons Ratio (x) = 0.13204 0.31953
# Poissons Ratio (y) = 0.17578 0.16663
# Poissons Ratio (z) = 0.31161 0.12207
#
# Static dielectric constant tensor:
#      x y z
#    x 1.958970 0.000000 0.000000 
#    y 0.000000 1.967770 0.000000 
#    z 0.000000 0.000000 1.977040 
# 
# From -- ./inp_files/18166.got.cif
#   From: 2010.05.17/outbox.cif.g08.bks.cpg/sg60_10_cif.got.tgz:18166.got - 2010.06.03 14:59:27.
