data_PCOD9457850
_publ_section_title
;
Structure prediction by ZEFSAII (Michael W. Deem and Ramdas Pophale) SiO2 
 PCOD9457850
Probable space group: P B C N
;
_chemical_formula_sum "Si O2"
_cell_formula_units_Z 24
_cell_length_a 6.381173
_cell_length_b 18.874848
_cell_length_c 7.873757
_cell_angle_alpha 90.000000
_cell_angle_beta 90.000000
_cell_angle_gamma 90.000000
_cell_volume 948.344193
_symmetry_space_group_name_H-M "P B C N"
_symmetry_group_IT_number 60
_symmetry_cell_setting 'orthorhombic'
loop_
_space_group_symop_operation_xyz
x,y,z
1/2-x,1/2-y,1/2+z
1/2+x,1/2-y,-z
-x,y,1/2-z
-x,-y,-z
1/2+x,1/2+y,1/2-z
1/2-x,1/2+y,z
x,-y,1/2+z
loop_
_atom_site_type_symbol
_atom_site_label
_atom_site_fract_x
_atom_site_fract_y
_atom_site_fract_z
Si Si1 0.000000 0.214933 0.750000
Si Si2 0.682239 0.940997 0.489226
Si Si3 0.000000 0.976781 0.750000
Si Si4 0.088806 0.303603 0.416623
O O1 0.819016 0.174049 0.647921
O O2 0.090921 0.261901 0.593633
O O3 0.856684 0.972083 0.363904
O O4 0.563676 0.869881 0.441416
O O5 0.500000 0.000000 0.500000
O O6 0.822527 0.930881 0.656720
O O7 0.000000 0.262638 0.250000
#
# Coordination Sequence:
#
# PCOD9457850 Si02
#       4
#     4   8   4   8
#     4  12  28  53  82 116 154 227 276 338 406 482
#     4  11  25  48  78 119 162 208 265 340 414 489
#     4  10  24  47  74 122 162 211 262 316 438 484
#     4  12  27  52  79 115 167 208 281 339 405 490
#
# _framework density 25.307267
#
# number of rings (size 3 to 8) (size 9 to 14) (size 15 to 20)
#    0.000    0.667    3.333    3.000    4.667    8.000 
#    3.000    0.000    0.000    0.000    0.000    0.000 
#    0.000    0.000    0.000    0.000    0.000    0.000 
#
# Total GULP energy -134217.493638 kJ/mol
# GULP energy per Si atom -5592.395568 kJ/mol
# Density = 2.524967 g / cm^3
# Si number density = 25.307267 Si / 1000 Ang^3
#
#
#
# Elastic Constant Matrix: (Units=GPa)
#
#
# Indices 1 2 3 4 5 6 
#
# 1 211.3319 66.8998 74.8228 0.0000 0.0000 0.0000
# 2 66.8998 76.0009 49.9817 0.0000 0.0000 0.0000
# 3 74.8228 49.9817 146.6059 0.0000 0.0000 0.0000
# 4 0.0000 0.0000 0.0000 21.6474 0.0000 0.0000
# 5 0.0000 0.0000 0.0000 0.0000 87.2464 0.0000
# 6 0.0000 0.0000 0.0000 0.0000 0.0000 42.0579
#
#
#
# Elastic Compliance Matrix: (Units=1/GPa)
#
#
# Indices 1 2 3 4 5 6 
#
# 1 0.006940 -0.004872 -0.001881 0.000000 0.000000 0.000000
# 2 -0.004872 0.020381 -0.004462 0.000000 0.000000 0.000000
# 3 -0.001881 -0.004462 0.009302 0.000000 0.000000 0.000000
# 4 0.000000 0.000000 0.000000 0.046195 0.000000 0.000000
# 5 0.000000 0.000000 0.000000 0.000000 0.011462 0.000000
# 6 0.000000 0.000000 0.000000 0.000000 0.000000 0.023777
#
#
# Mechanical properties :
#
#
# Convention : Reuss Voigt Hill
#
# Bulk Modulus (GPa) = 70.45578 90.81636 80.63607
# Shear Modulus (GPa) = 34.43119 46.33930 40.38525
#
# Velocity S-wave (km/s) = 3.69253 4.28374 3.99908
# Velocity P-wave (km/s) = 6.78825 7.77371 7.29763
#
# Compressibility (1/GPa) = 0.01419330
#
# Stress axis : x y z
#
# Youngs Moduli (GPa) = 144.08824 49.06619 107.50197
#
# Poissons Ratio (x) = 0.23905 0.20222
# Poissons Ratio (y) = 0.70201 0.47965
# Poissons Ratio (z) = 0.27104 0.21892
#
# Static dielectric constant tensor:
#      x y z
#    x 2.046340 0.000000 0.000000 
#    y 0.000000 1.943040 0.000000 
#    z 0.000000 0.000000 2.173100 
# 
# From -- ./inp_files/2916.got.cif
#   From: 2010.05.17/outbox.cif.g08.bks.cpg/sg60_2_cif.got.tgz:2916.got - 2010.06.03 14:59:27.
