data_PCOD9457725
_publ_section_title
;
Structure prediction by ZEFSAII (Michael W. Deem and Ramdas Pophale) SiO2 
 PCOD9457725
Probable space group: P B C N
;
_chemical_formula_sum "Si O2"
_cell_formula_units_Z 32
_cell_length_a 13.821686
_cell_length_b 18.098314
_cell_length_c 5.489882
_cell_angle_alpha 90.000000
_cell_angle_beta 90.000000
_cell_angle_gamma 90.000000
_cell_volume 1373.289663
_symmetry_space_group_name_H-M "P B C N"
_symmetry_group_IT_number 60
_symmetry_cell_setting 'orthorhombic'
loop_
_space_group_symop_operation_xyz
x,y,z
1/2-x,1/2-y,1/2+z
1/2+x,1/2-y,-z
-x,y,1/2-z
-x,-y,-z
1/2+x,1/2+y,1/2-z
1/2-x,1/2+y,z
x,-y,1/2+z
loop_
_atom_site_type_symbol
_atom_site_label
_atom_site_fract_x
_atom_site_fract_y
_atom_site_fract_z
Si Si1 0.613408 0.967831 0.785934
Si Si2 0.000000 0.733490 0.750000
Si Si3 0.500000 0.453653 0.250000
Si Si4 0.158789 0.679609 0.404381
Si Si5 0.634937 0.674094 0.884073
O O1 0.500000 0.986474 0.750000
O O2 0.623590 0.879535 0.793005
O O3 0.655828 0.996080 0.528510
O O4 0.080008 0.682716 0.619015
O O5 0.944372 0.786855 0.559506
O O6 0.500000 0.500000 0.500000
O O7 0.408979 0.398330 0.236071
O O8 0.161062 0.762940 0.309520
O O9 0.266364 0.657832 0.477129
#
# Coordination Sequence:
#
# PCOD9457725 Si02
#       5
#     8   4   4   8   8
#     4  10  24  43  68 103 150 194 237 301 389 462
#     4  12  23  46  74 109 152 194 248 336 397 450
#     4  12  29  52  80 111 164 216 262 328 403 484
#     4  12  26  44  78 110 149 201 261 329 385 470
#     4  12  26  46  77 112 149 203 271 326 395 470
#
# _framework density 23.301711999999998
#
# number of rings (size 3 to 8) (size 9 to 14) (size 15 to 20)
#    0.000    0.500    5.000    2.250    8.750    2.000 
#    0.000    0.000    0.000    0.000    0.000    0.000 
#    0.000    0.000    0.000    0.000    0.000    0.000 
#
# Total GULP energy -179199.466314 kJ/mol
# GULP energy per Si atom -5599.983322 kJ/mol
# Density = 2.324868 g / cm^3
# Si number density = 23.301712 Si / 1000 Ang^3
#
#
#
# Elastic Constant Matrix: (Units=GPa)
#
#
# Indices 1 2 3 4 5 6 
#
# 1 98.5216 15.2537 34.0720 0.0000 0.0000 0.0000
# 2 15.2537 129.4758 54.9452 0.0000 0.0000 0.0000
# 3 34.0720 54.9452 106.9514 0.0000 0.0000 0.0000
# 4 0.0000 0.0000 0.0000 52.3802 0.0000 0.0000
# 5 0.0000 0.0000 0.0000 0.0000 18.0172 0.0000
# 6 0.0000 0.0000 0.0000 0.0000 0.0000 0.5776
#
#
#
# Elastic Compliance Matrix: (Units=1/GPa)
#
#
# Indices 1 2 3 4 5 6 
#
# 1 0.011413 0.000254 -0.003766 0.000000 0.000000 0.000000
# 2 0.000254 0.009882 -0.005158 0.000000 0.000000 0.000000
# 3 -0.003766 -0.005158 0.013200 0.000000 0.000000 0.000000
# 4 0.000000 0.000000 0.000000 0.019091 0.000000 0.000000
# 5 0.000000 0.000000 0.000000 0.000000 0.055503 0.000000
# 6 0.000000 0.000000 0.000000 0.000000 0.000000 1.731437
#
#
# Mechanical properties :
#
#
# Convention : Reuss Voigt Hill
#
# Bulk Modulus (GPa) = 58.29379 60.38784 59.34081
# Shear Modulus (GPa) = 2.68300 29.57350 16.12825
#
# Velocity S-wave (km/s) = 1.07421 3.56639 2.63373
# Velocity P-wave (km/s) = 5.15847 6.55215 5.89663
#
# Compressibility (1/GPa) = 0.01715449
#
# Stress axis : x y z
#
# Youngs Moduli (GPa) = 87.61709 101.19047 75.75959
#
# Poissons Ratio (x) = -0.02567 0.28533
# Poissons Ratio (y) = -0.02223 0.39075
# Poissons Ratio (z) = 0.32999 0.52192
#
# Static dielectric constant tensor:
#      x y z
#    x 1.871190 0.000000 0.000000 
#    y 0.000000 1.855740 0.000000 
#    z 0.000000 0.000000 2.097810 
# 
# From -- ./inp_files/1054.got.cif
#   From: 2010.05.17/outbox.cif.g08.bks.cpg/sg60_1_cif.got.tgz:1054.got - 2010.06.03 14:59:27.
