data_PCOD9457068
_publ_section_title
;
Structure prediction by ZEFSAII (Michael W. Deem and Ramdas Pophale) SiO2 
 PCOD9457068
Probable space group: P B C N
;
_chemical_formula_sum "Si O2"
_cell_formula_units_Z 60
_cell_length_a 9.796747
_cell_length_b 16.049079
_cell_length_c 18.239418
_cell_angle_alpha 90.000000
_cell_angle_beta 90.000000
_cell_angle_gamma 90.000000
_cell_volume 2867.761195
_symmetry_space_group_name_H-M "P B C N"
_symmetry_group_IT_number 60
_symmetry_cell_setting 'orthorhombic'
loop_
_space_group_symop_operation_xyz
x,y,z
1/2-x,1/2-y,1/2+z
1/2+x,1/2-y,-z
-x,y,1/2-z
-x,-y,-z
1/2+x,1/2+y,1/2-z
1/2-x,1/2+y,z
x,-y,1/2+z
loop_
_atom_site_type_symbol
_atom_site_label
_atom_site_fract_x
_atom_site_fract_y
_atom_site_fract_z
Si Si1 0.628546 0.769447 0.052500
Si Si2 0.151613 0.895685 0.394013
Si Si3 0.133638 0.174000 0.296554
Si Si4 0.267047 0.338296 0.237216
Si Si5 0.144248 0.865854 0.074614
Si Si6 0.920824 0.412357 0.491298
Si Si7 0.500000 0.048232 0.750000
Si Si8 0.666304 0.950392 0.637984
O O1 0.769011 0.819199 0.067833
O O2 0.597522 0.712322 0.123462
O O3 0.638821 0.712278 0.980862
O O4 0.513702 0.840878 0.044135
O O5 0.149533 0.873322 0.307026
O O6 0.003009 0.909464 0.427352
O O7 0.246832 0.976494 0.400066
O O8 0.218134 0.245993 0.256384
O O9 0.231127 0.095616 0.307817
O O10 0.000000 0.154288 0.250000
O O11 0.336939 0.339935 0.158885
O O12 0.129950 0.394326 0.233984
O O13 0.277693 0.918093 0.051441
O O14 0.883878 0.388452 0.575063
O O15 0.000000 0.500000 0.500000
O O16 0.542359 0.991659 0.681490
#
# Coordination Sequence:
#
# PCOD9457068 Si02
#       8
#     8   8   8   8   8   8   4   8
#     4  11  24  45  68  98 139 181 225 289 344 415
#     4  10  24  45  66  95 143 178 225 290 345 405
#     4  11  23  43  67  97 139 181 229 284 345 411
#     4  10  22  42  70  96 130 188 228 279 342 424
#     4  12  24  41  70 105 134 176 231 283 356 404
#     4  12  24  44  70  96 137 183 229 275 347 416
#     4  10  22  46  72  94 136 184 234 270 354 410
#     4  11  24  44  67 101 134 178 231 293 331 417
#
# _framework density 20.922243999999999
#
# number of rings (size 3 to 8) (size 9 to 14) (size 15 to 20)
#    0.000    1.067    3.333    2.800    3.733    3.733 
#    0.000    0.000    0.000    0.000    0.000    0.000 
#    0.000    0.000    0.000    0.000    0.000    0.000 
#
# Total GULP energy -335527.928025 kJ/mol
# GULP energy per Si atom -5592.132134 kJ/mol
# Density = 2.087462 g / cm^3
# Si number density = 20.922244 Si / 1000 Ang^3
#
#
#
# Elastic Constant Matrix: (Units=GPa)
#
#
# Indices 1 2 3 4 5 6 
#
# 1 131.8181 34.3822 40.5441 0.0000 0.0000 0.0000
# 2 34.3822 62.7622 17.3588 0.0000 0.0000 0.0000
# 3 40.5441 17.3588 82.7779 0.0000 0.0000 0.0000
# 4 0.0000 0.0000 0.0000 29.5044 0.0000 0.0000
# 5 0.0000 0.0000 0.0000 0.0000 31.1661 0.0000
# 6 0.0000 0.0000 0.0000 0.0000 0.0000 -2.4227
#
#
#
# Elastic Compliance Matrix: (Units=1/GPa)
#
#
# Indices 1 2 3 4 5 6 
#
# 1 0.009937 -0.004350 -0.003955 0.000000 0.000000 0.000000
# 2 -0.004350 0.018818 -0.001816 0.000000 0.000000 0.000000
# 3 -0.003955 -0.001816 0.014398 0.000000 0.000000 0.000000
# 4 0.000000 0.000000 0.000000 0.033893 0.000000 0.000000
# 5 0.000000 0.000000 0.000000 0.000000 0.032086 0.000000
# 6 0.000000 0.000000 0.000000 0.000000 0.000000 -0.412771
#
#
# Mechanical properties :
#
#
# Convention : Reuss Voigt Hill
#
# Bulk Modulus (GPa) = 43.64387 51.32537 47.48462
# Shear Modulus (GPa) = -18.13181 23.98778 2.92798
#
# Velocity S-wave (km/s) = -2.94705 3.38970 1.18427
# Velocity P-wave (km/s) = 3.05372 6.31703 4.96135
#
# Compressibility (1/GPa) = 0.02291273
#
# Stress axis : x y z
#
# Youngs Moduli (GPa) = 100.63114 53.13970 69.45206
#
# Poissons Ratio (x) = 0.23115 0.27468
# Poissons Ratio (y) = 0.43774 0.12610
# Poissons Ratio (z) = 0.39800 0.09649
#
# Static dielectric constant tensor:
#      x y z
#    x 1.762160 0.000000 0.000000 
#    y 0.000000 1.720680 0.000000 
#    z 0.000000 0.000000 1.775670 
# 
# From -- ./inp_files/19574.got.cif
#   From: 2010.05.17/outbox.cif.g08.bks.cpg/sg60_10_cif.got.tgz:19574.got - 2010.06.03 14:59:27.
