data_PCOD9457127
_publ_section_title
;
Structure prediction by ZEFSAII (Michael W. Deem and Ramdas Pophale) SiO2 
 PCOD9457127
Probable space group: P B C N
;
_chemical_formula_sum "Si O2"
_cell_formula_units_Z 40
_cell_length_a 17.518359
_cell_length_b 7.991218
_cell_length_c 10.905468
_cell_angle_alpha 90.000000
_cell_angle_beta 90.000000
_cell_angle_gamma 90.000000
_cell_volume 1526.689463
_symmetry_space_group_name_H-M "P B C N"
_symmetry_group_IT_number 60
_symmetry_cell_setting 'orthorhombic'
loop_
_space_group_symop_operation_xyz
x,y,z
1/2-x,1/2-y,1/2+z
1/2+x,1/2-y,-z
-x,y,1/2-z
-x,-y,-z
1/2+x,1/2+y,1/2-z
1/2-x,1/2+y,z
x,-y,1/2+z
loop_
_atom_site_type_symbol
_atom_site_label
_atom_site_fract_x
_atom_site_fract_y
_atom_site_fract_z
Si Si1 0.000000 0.828421 0.750000
Si Si2 0.866573 0.291297 0.425296
Si Si3 0.400168 0.383855 0.318707
Si Si4 0.722131 0.355238 0.725592
Si Si5 0.360962 0.955657 0.391915
Si Si6 0.000000 0.394683 0.750000
O O1 0.934542 0.740321 0.829853
O O2 0.956221 0.958629 0.662711
O O3 0.790881 0.227038 0.358348
O O4 0.860761 0.482852 0.467964
O O5 0.887091 0.192039 0.547508
O O6 0.324315 0.470727 0.270340
O O7 0.435531 0.249018 0.223216
O O8 0.803591 0.414034 0.677068
O O9 0.677782 0.223259 0.635362
O O10 0.448099 0.993978 0.343861
#
# Coordination Sequence:
#
# PCOD9457127 Si02
#       6
#     4   8   8   8   8   4
#     4   9  18  37  68 105 136 175 228 275 344 433
#     4  10  22  43  68  98 139 182 227 288 353 416
#     4   9  19  41  70  99 136 180 224 284 349 411
#     4  11  25  45  71 103 139 184 242 291 355 434
#     4  11  24  45  68 103 142 187 236 297 359 421
#     4   9  20  41  70 101 134 177 234 281 344 425
#
# _framework density 26.200482999999998
#
# number of rings (size 3 to 8) (size 9 to 14) (size 15 to 20)
#    0.000    2.000    0.000    3.000    0.000    8.800 
#    0.000   34.000    0.000    1.200    0.000    0.000 
#    0.000    0.000    0.000    0.000    0.000    0.000 
#
# Total GULP energy -223052.673615 kJ/mol
# GULP energy per Si atom -5576.316840 kJ/mol
# Density = 2.614085 g / cm^3
# Si number density = 26.200483 Si / 1000 Ang^3
#
#
#
# Elastic Constant Matrix: (Units=GPa)
#
#
# Indices 1 2 3 4 5 6 
#
# 1 149.4611 50.6382 24.5432 0.0000 0.0000 0.0000
# 2 50.6382 103.1780 41.0672 0.0000 0.0000 0.0000
# 3 24.5432 41.0672 91.6618 0.0000 0.0000 0.0000
# 4 0.0000 0.0000 0.0000 -57.7750 0.0000 0.0000
# 5 0.0000 0.0000 0.0000 0.0000 21.2826 0.0000
# 6 0.0000 0.0000 0.0000 0.0000 0.0000 44.8611
#
#
#
# Elastic Compliance Matrix: (Units=1/GPa)
#
#
# Indices 1 2 3 4 5 6 
#
# 1 0.008042 -0.003760 -0.000469 0.000000 0.000000 0.000000
# 2 -0.003760 0.013554 -0.005066 0.000000 0.000000 0.000000
# 3 -0.000469 -0.005066 0.013305 0.000000 0.000000 0.000000
# 4 0.000000 0.000000 0.000000 -0.017309 0.000000 0.000000
# 5 0.000000 0.000000 0.000000 0.000000 0.046987 0.000000
# 6 0.000000 0.000000 0.000000 0.000000 0.000000 0.022291
#
#
# Mechanical properties :
#
#
# Convention : Reuss Voigt Hill
#
# Bulk Modulus (GPa) = 61.30739 64.08868 62.69804
# Shear Modulus (GPa) = 45.08765 16.87721 30.98243
#
# Velocity S-wave (km/s) = 4.15284 2.54078 3.44250
# Velocity P-wave (km/s) = 6.81505 5.75512 6.30739
#
# Compressibility (1/GPa) = 0.01631125
#
# Stress axis : x y z
#
# Youngs Moduli (GPa) = 124.35304 73.78069 75.16155
#
# Poissons Ratio (x) = 0.27743 0.03521
# Poissons Ratio (y) = 0.46760 0.38074
# Poissons Ratio (z) = 0.05826 0.37375
#
# Static dielectric constant tensor:
#      x y z
#    x 2.213420 0.000000 0.000000 
#    y 0.000000 2.305100 0.000000 
#    z 0.000000 0.000000 2.049430 
# 
# From -- ./inp_files/12780.got.cif
#   From: 2010.05.17/outbox.cif.g08.bks.cpg/sg60_7_cif.got.tgz:12780.got - 2010.06.03 14:59:27.
