data_PCOD9457652
_publ_section_title
;
Structure prediction by ZEFSAII (Michael W. Deem and Ramdas Pophale) SiO2 
 PCOD9457652
Probable space group: P B C N
;
_chemical_formula_sum "Si O2"
_cell_formula_units_Z 36
_cell_length_a 9.489481
_cell_length_b 21.263744
_cell_length_c 8.805492
_cell_angle_alpha 90.000000
_cell_angle_beta 90.000000
_cell_angle_gamma 90.000000
_cell_volume 1776.788859
_symmetry_space_group_name_H-M "P B C N"
_symmetry_group_IT_number 60
_symmetry_cell_setting 'orthorhombic'
loop_
_space_group_symop_operation_xyz
x,y,z
1/2-x,1/2-y,1/2+z
1/2+x,1/2-y,-z
-x,y,1/2-z
-x,-y,-z
1/2+x,1/2+y,1/2-z
1/2-x,1/2+y,z
x,-y,1/2+z
loop_
_atom_site_type_symbol
_atom_site_label
_atom_site_fract_x
_atom_site_fract_y
_atom_site_fract_z
Si Si1 0.500000 0.984246 0.250000
Si Si2 0.380666 0.788954 0.856442
Si Si3 0.023554 0.068007 0.427834
Si Si4 0.851707 0.419955 0.524589
Si Si5 0.875019 0.807177 0.871771
O O1 0.595703 0.943197 0.361709
O O2 0.599329 0.028006 0.146256
O O3 0.500000 0.759801 0.750000
O O4 0.426208 0.854892 0.931075
O O5 0.257986 0.807878 0.739523
O O6 0.348163 0.742990 0.995608
O O7 0.183205 0.087882 0.467738
O O8 0.000000 0.057841 0.250000
O O9 0.918192 0.127009 0.453604
O O10 0.000000 0.000000 0.500000
O O11 0.000000 0.792103 0.750000
#
# Coordination Sequence:
#
# PCOD9457652 Si02
#       5
#     4   8   8   8   8
#     4  10  24  40  68 100 142 180 224 284 362 424
#     4  12  25  44  70  97 137 184 233 295 351 425
#     4  11  23  43  69  97 135 178 229 292 353 421
#     4  11  22  43  65 100 136 179 230 287 350 426
#     4  11  25  47  68 101 140 183 239 294 358 424
#
# _framework density 20.26127
#
# number of rings (size 3 to 8) (size 9 to 14) (size 15 to 20)
#    0.000    0.889    5.556    2.667    1.556    0.889 
#    4.000    0.000    0.000    0.000    0.000    0.000 
#    0.000    0.000    0.000    0.000    0.000    0.000 
#
# Total GULP energy -200928.200481 kJ/mol
# GULP energy per Si atom -5581.338902 kJ/mol
# Density = 2.021515 g / cm^3
# Si number density = 20.261270 Si / 1000 Ang^3
#
#
#
# Elastic Constant Matrix: (Units=GPa)
#
#
# Indices 1 2 3 4 5 6 
#
# 1 72.5838 18.0157 21.5335 0.0000 0.0000 0.0000
# 2 18.0157 115.8079 73.4021 0.0000 0.0000 0.0000
# 3 21.5335 73.4021 116.9231 0.0000 0.0000 0.0000
# 4 0.0000 0.0000 0.0000 67.4898 0.0000 0.0000
# 5 0.0000 0.0000 0.0000 0.0000 32.9040 0.0000
# 6 0.0000 0.0000 0.0000 0.0000 0.0000 19.2551
#
#
#
# Elastic Compliance Matrix: (Units=1/GPa)
#
#
# Indices 1 2 3 4 5 6 
#
# 1 0.014635 -0.000944 -0.002103 0.000000 0.000000 0.000000
# 2 -0.000944 0.014402 -0.008868 0.000000 0.000000 0.000000
# 3 -0.002103 -0.008868 0.014507 0.000000 0.000000 0.000000
# 4 0.000000 0.000000 0.000000 0.014817 0.000000 0.000000
# 5 0.000000 0.000000 0.000000 0.000000 0.030391 0.000000
# 6 0.000000 0.000000 0.000000 0.000000 0.000000 0.051934
#
#
# Mechanical properties :
#
#
# Convention : Reuss Voigt Hill
#
# Bulk Modulus (GPa) = 50.72093 59.02416 54.87254
# Shear Modulus (GPa) = 29.22471 36.75402 32.98937
#
# Velocity S-wave (km/s) = 3.80201 4.26373 4.03947
# Velocity P-wave (km/s) = 6.66044 7.30986 6.99269
#
# Compressibility (1/GPa) = 0.01971573
#
# Stress axis : x y z
#
# Youngs Moduli (GPa) = 68.32797 69.43271 68.93284
#
# Poissons Ratio (x) = 0.06554 0.14495
# Poissons Ratio (y) = 0.06450 0.61128
# Poissons Ratio (z) = 0.14368 0.61571
#
# Static dielectric constant tensor:
#      x y z
#    x 1.789990 0.000000 0.000000 
#    y 0.000000 1.766540 0.000000 
#    z 0.000000 0.000000 1.713830 
# 
# From -- ./inp_files/3665.got.cif
#   From: 2010.05.17/outbox.cif.g08.bks.cpg/sg60_2_cif.got.tgz:3665.got - 2010.06.03 14:59:27.
