data_PCOD9457133
_publ_section_title
;
Structure prediction by ZEFSAII (Michael W. Deem and Ramdas Pophale) SiO2 
 PCOD9457133
Probable space group: P B C N
;
_chemical_formula_sum "Si O2"
_cell_formula_units_Z 48
_cell_length_a 8.071697
_cell_length_b 30.734782
_cell_length_c 8.533064
_cell_angle_alpha 90.000000
_cell_angle_beta 90.000000
_cell_angle_gamma 90.000000
_cell_volume 2116.898283
_symmetry_space_group_name_H-M "P B C N"
_symmetry_group_IT_number 60
_symmetry_cell_setting 'orthorhombic'
loop_
_space_group_symop_operation_xyz
x,y,z
1/2-x,1/2-y,1/2+z
1/2+x,1/2-y,-z
-x,y,1/2-z
-x,-y,-z
1/2+x,1/2+y,1/2-z
1/2-x,1/2+y,z
x,-y,1/2+z
loop_
_atom_site_type_symbol
_atom_site_label
_atom_site_fract_x
_atom_site_fract_y
_atom_site_fract_z
Si Si1 0.128951 0.462624 0.557190
Si Si2 0.451237 0.693546 0.576090
Si Si3 0.527051 0.874888 0.443199
Si Si4 0.933896 0.719427 0.924125
Si Si5 0.341981 0.514720 0.350464
Si Si6 0.398750 0.607019 0.416716
O O1 0.280887 0.473658 0.444571
O O2 0.195594 0.469356 0.732470
O O3 0.000000 0.500000 0.500000
O O4 0.071940 0.414068 0.522680
O O5 0.500000 0.682823 0.750000
O O6 0.543122 0.736950 0.520905
O O7 0.258233 0.706674 0.574963
O O8 0.490129 0.649621 0.482554
O O9 0.500000 0.879258 0.250000
O O10 0.474960 0.825057 0.479388
O O11 0.709795 0.880224 0.524082
O O12 0.000000 0.728535 0.750000
O O13 0.500000 0.503738 0.250000
O O14 0.385232 0.555934 0.459504
O O15 0.500000 0.602476 0.250000
#
# Coordination Sequence:
#
# PCOD9457133 Si02
#       6
#     8   8   8   8   8   8
#     4  12  23  43  76  98 141 186 244 293 360 429
#     4  11  23  44  72 104 141 192 238 293 366 429
#     4  10  22  43  70 106 138 189 243 301 357 435
#     4  10  22  44  67 100 146 178 245 293 360 434
#     4  11  25  46  66 106 142 187 237 297 365 432
#     4  10  23  45  67 101 151 186 236 293 365 432
#
# _framework density 22.674685
#
# number of rings (size 3 to 8) (size 9 to 14) (size 15 to 20)
#    0.000    1.333    1.667    3.500    0.000    1.333 
#   33.000    0.833    0.000    0.000    0.000    0.000 
#    0.000    0.000    0.000    0.000    0.000    0.000 
#
# Total GULP energy -267391.907289 kJ/mol
# GULP energy per Si atom -5570.664735 kJ/mol
# Density = 2.262308 g / cm^3
# Si number density = 22.674685 Si / 1000 Ang^3
#
#
#
# Elastic Constant Matrix: (Units=GPa)
#
#
# Indices 1 2 3 4 5 6 
#
# 1 70.3714 30.9439 18.2904 0.0000 0.0000 0.0000
# 2 30.9439 91.9845 23.1519 0.0000 0.0000 0.0000
# 3 18.2904 23.1519 56.3560 0.0000 0.0000 0.0000
# 4 0.0000 0.0000 0.0000 24.2517 0.0000 0.0000
# 5 0.0000 0.0000 0.0000 0.0000 38.8940 0.0000
# 6 0.0000 0.0000 0.0000 0.0000 0.0000 33.1287
#
#
#
# Elastic Compliance Matrix: (Units=1/GPa)
#
#
# Indices 1 2 3 4 5 6 
#
# 1 0.017307 -0.004917 -0.003597 0.000000 0.000000 0.000000
# 2 -0.004917 0.013522 -0.003959 0.000000 0.000000 0.000000
# 3 -0.003597 -0.003959 0.020538 0.000000 0.000000 0.000000
# 4 0.000000 0.000000 0.000000 0.041234 0.000000 0.000000
# 5 0.000000 0.000000 0.000000 0.000000 0.025711 0.000000
# 6 0.000000 0.000000 0.000000 0.000000 0.000000 0.030185
#
#
# Mechanical properties :
#
#
# Convention : Reuss Voigt Hill
#
# Bulk Modulus (GPa) = 37.84867 40.38715 39.11791
# Shear Modulus (GPa) = 27.43458 29.00991 28.22225
#
# Velocity S-wave (km/s) = 3.48217 3.58075 3.53180
# Velocity P-wave (km/s) = 5.73547 5.91150 5.82415
#
# Compressibility (1/GPa) = 0.02642101
#
# Stress axis : x y z
#
# Youngs Moduli (GPa) = 57.77907 73.95379 48.68943
#
# Poissons Ratio (x) = 0.36362 0.17515
# Poissons Ratio (y) = 0.28409 0.19277
# Poissons Ratio (z) = 0.20784 0.29280
#
# Static dielectric constant tensor:
#      x y z
#    x 1.969450 0.000000 0.000000 
#    y 0.000000 1.803930 0.000000 
#    z 0.000000 0.000000 1.917960 
# 
# From -- ./inp_files/4220.got.cif
#   From: 2010.05.17/outbox.cif.g08.bks.cpg/sg60_3_cif.got.tgz:4220.got - 2010.06.03 14:59:27.
