data_PCOD9457272
_publ_section_title
;
Structure prediction by ZEFSAII (Michael W. Deem and Ramdas Pophale) SiO2 
 PCOD9457272
Probable space group: P B C N
;
_chemical_formula_sum "Si O2"
_cell_formula_units_Z 64
_cell_length_a 8.551061
_cell_length_b 24.264532
_cell_length_c 14.261310
_cell_angle_alpha 90.000000
_cell_angle_beta 90.000000
_cell_angle_gamma 90.000000
_cell_volume 2959.043463
_symmetry_space_group_name_H-M "P B C N"
_symmetry_group_IT_number 60
_symmetry_cell_setting 'orthorhombic'
loop_
_space_group_symop_operation_xyz
x,y,z
1/2-x,1/2-y,1/2+z
1/2+x,1/2-y,-z
-x,y,1/2-z
-x,-y,-z
1/2+x,1/2+y,1/2-z
1/2-x,1/2+y,z
x,-y,1/2+z
loop_
_atom_site_type_symbol
_atom_site_label
_atom_site_fract_x
_atom_site_fract_y
_atom_site_fract_z
Si Si1 0.872998 0.686633 0.012229
Si Si2 0.867164 0.753990 0.383979
Si Si3 0.767544 0.913141 0.633285
Si Si4 0.551164 0.638364 0.657294
Si Si5 0.086230 0.360793 0.348228
Si Si6 0.642202 0.978127 0.059876
Si Si7 0.168405 0.164205 0.200965
Si Si8 0.091489 0.913875 0.539226
O O1 0.740114 0.727499 0.972326
O O2 0.983958 0.670406 0.925481
O O3 0.798114 0.632014 0.058973
O O4 0.986814 0.716996 0.084552
O O5 0.764914 0.719837 0.310185
O O6 0.935679 0.810215 0.344566
O O7 0.757865 0.882213 0.732196
O O8 0.946091 0.927900 0.605314
O O9 0.684594 0.971355 0.626892
O O10 0.500000 0.605238 0.750000
O O11 0.732283 0.656403 0.657977
O O12 0.528485 0.605496 0.561325
O O13 0.098024 0.424018 0.382308
O O14 0.000000 0.355570 0.250000
O O15 0.781253 0.959694 0.988200
O O16 0.500000 0.000000 0.000000
O O17 0.162315 0.138175 0.096320
O O18 0.000000 0.175086 0.250000
#
# Coordination Sequence:
#
# PCOD9457272 Si02
#       8
#     8   8   8   8   8   8   8   8
#     4  12  25  44  69  98 144 184 237 290 355 425
#     4  12  25  43  69 103 136 192 228 291 354 419
#     4  11  24  45  69 104 138 184 232 290 352 435
#     4  11  24  42  69  99 135 180 240 281 346 426
#     4  11  25  46  65  99 138 178 231 295 347 422
#     4  11  23  43  73 100 137 183 230 292 365 410
#     4  10  25  45  70 105 144 186 238 296 357 425
#     4  10  22  48  69  98 141 183 233 291 349 427
#
# _framework density 21.628610999999999
#
# number of rings (size 3 to 8) (size 9 to 14) (size 15 to 20)
#    0.000    1.000    2.500    4.125    3.500    2.500 
#    0.000    7.500    0.000    0.000    0.000    0.000 
#    0.000    0.000    0.000    0.000    0.000    0.000 
#
# Total GULP energy -357885.139888 kJ/mol
# GULP energy per Si atom -5591.955311 kJ/mol
# Density = 2.157938 g / cm^3
# Si number density = 21.628611 Si / 1000 Ang^3
#
#
#
# Elastic Constant Matrix: (Units=GPa)
#
#
# Indices 1 2 3 4 5 6 
#
# 1 50.0561 26.6769 -0.3156 0.0000 0.0000 0.0000
# 2 26.6769 86.8128 12.8872 0.0000 0.0000 0.0000
# 3 -0.3156 12.8872 86.5013 0.0000 0.0000 0.0000
# 4 0.0000 0.0000 0.0000 27.4220 0.0000 0.0000
# 5 0.0000 0.0000 0.0000 0.0000 27.9581 0.0000
# 6 0.0000 0.0000 0.0000 0.0000 0.0000 45.2581
#
#
#
# Elastic Compliance Matrix: (Units=1/GPa)
#
#
# Indices 1 2 3 4 5 6 
#
# 1 0.024014 -0.007559 0.001214 0.000000 0.000000 0.000000
# 2 -0.007559 0.014159 -0.002137 0.000000 0.000000 0.000000
# 3 0.001214 -0.002137 0.011883 0.000000 0.000000 0.000000
# 4 0.000000 0.000000 0.000000 0.036467 0.000000 0.000000
# 5 0.000000 0.000000 0.000000 0.000000 0.035768 0.000000
# 6 0.000000 0.000000 0.000000 0.000000 0.000000 0.022095
#
#
# Mechanical properties :
#
#
# Convention : Reuss Voigt Hill
#
# Bulk Modulus (GPa) = 30.21955 33.54080 31.88017
# Shear Modulus (GPa) = 29.00522 32.40243 30.70382
#
# Velocity S-wave (km/s) = 3.66602 3.87476 3.77184
# Velocity P-wave (km/s) = 5.64995 5.96319 5.80868
#
# Compressibility (1/GPa) = 0.03309116
#
# Stress axis : x y z
#
# Youngs Moduli (GPa) = 41.64238 70.62521 84.15148
#
# Poissons Ratio (x) = 0.53389 -0.10215
# Poissons Ratio (y) = 0.31480 0.17984
# Poissons Ratio (z) = -0.05055 0.15093
#
# Static dielectric constant tensor:
#      x y z
#    x 1.772450 0.000000 0.000000 
#    y 0.000000 1.758670 0.000000 
#    z 0.000000 0.000000 1.804250 
# 
# From -- ./inp_files/15403.got.cif
#   From: 2010.05.17/outbox.cif.g08.bks.cpg/sg60_8_cif.got.tgz:15403.got - 2010.06.03 14:59:27.
