data_PCOD9457962
_publ_section_title
;
Structure prediction by ZEFSAII (Michael W. Deem and Ramdas Pophale) SiO2 
 PCOD9457962
Probable space group: P B C N
;
_chemical_formula_sum "Si O2"
_cell_formula_units_Z 44
_cell_length_a 5.103060
_cell_length_b 16.388745
_cell_length_c 24.012387
_cell_angle_alpha 90.000000
_cell_angle_beta 90.000000
_cell_angle_gamma 90.000000
_cell_volume 2008.221936
_symmetry_space_group_name_H-M "P B C N"
_symmetry_group_IT_number 60
_symmetry_cell_setting 'orthorhombic'
loop_
_space_group_symop_operation_xyz
x,y,z
1/2-x,1/2-y,1/2+z
1/2+x,1/2-y,-z
-x,y,1/2-z
-x,-y,-z
1/2+x,1/2+y,1/2-z
1/2-x,1/2+y,z
x,-y,1/2+z
loop_
_atom_site_type_symbol
_atom_site_label
_atom_site_fract_x
_atom_site_fract_y
_atom_site_fract_z
Si Si1 0.750235 0.554915 0.015049
Si Si2 0.500000 0.620991 0.750000
Si Si3 0.838983 0.774724 0.144180
Si Si4 0.189105 0.492044 0.171088
Si Si5 0.193627 0.090056 0.354299
Si Si6 0.330416 0.844193 0.086982
O O1 0.733962 0.576804 0.079727
O O2 0.500000 0.500000 0.000000
O O3 0.775863 0.635749 0.977147
O O4 0.000000 0.500000 0.000000
O O5 0.628975 0.674477 0.701109
O O6 0.715764 0.564623 0.779022
O O7 0.758467 0.683190 0.158322
O O8 0.616704 0.813436 0.104393
O O9 0.115347 0.783149 0.112354
O O10 0.403731 0.562748 0.162592
O O11 0.204516 0.431408 0.118015
O O12 0.904225 0.530961 0.174737
#
# Coordination Sequence:
#
# PCOD9457962 Si02
#       6
#     8   4   8   8   8   8
#     4  12  22  39  70 101 137 178 219 271 332 401
#     4  10  26  46  68  94 130 188 224 280 356 398
#     4  11  26  42  66  97 141 169 223 285 339 396
#     4  11  23  42  69  93 128 174 232 268 322 406
#     4  12  24  43  67 105 133 169 224 287 326 397
#     4  11  22  42  66  97 136 182 216 262 337 412
#
# _framework density 21.909929999999999
#
# number of rings (size 3 to 8) (size 9 to 14) (size 15 to 20)
#    0.000    0.727    3.636    4.364    0.000    9.455 
#    0.000    0.000    0.000    0.000    0.000    0.000 
#    0.000    0.000    0.000    0.000    0.000    0.000 
#
# Total GULP energy -246495.487047 kJ/mol
# GULP energy per Si atom -5602.170160 kJ/mol
# Density = 2.186006 g / cm^3
# Si number density = 21.909930 Si / 1000 Ang^3
#
#
#
# Elastic Constant Matrix: (Units=GPa)
#
#
# Indices 1 2 3 4 5 6 
#
# 1 89.7501 -7.2186 16.7269 0.0000 0.0000 0.0000
# 2 -7.2186 84.2741 23.9968 0.0000 0.0000 0.0000
# 3 16.7269 23.9968 111.3963 0.0000 0.0000 0.0000
# 4 0.0000 0.0000 0.0000 22.1838 0.0000 0.0000
# 5 0.0000 0.0000 0.0000 0.0000 31.3179 0.0000
# 6 0.0000 0.0000 0.0000 0.0000 0.0000 32.7788
#
#
#
# Elastic Compliance Matrix: (Units=1/GPa)
#
#
# Indices 1 2 3 4 5 6 
#
# 1 0.011661 0.001595 -0.002095 0.000000 0.000000 0.000000
# 2 0.001595 0.012860 -0.003010 0.000000 0.000000 0.000000
# 3 -0.002095 -0.003010 0.009940 0.000000 0.000000 0.000000
# 4 0.000000 0.000000 0.000000 0.045078 0.000000 0.000000
# 5 0.000000 0.000000 0.000000 0.000000 0.031931 0.000000
# 6 0.000000 0.000000 0.000000 0.000000 0.000000 0.030508
#
#
# Mechanical properties :
#
#
# Convention : Reuss Voigt Hill
#
# Bulk Modulus (GPa) = 36.44040 39.15897 37.79969
# Shear Modulus (GPa) = 31.61718 34.05046 32.83382
#
# Velocity S-wave (km/s) = 3.80287 3.94650 3.87535
# Velocity P-wave (km/s) = 5.99587 6.21916 6.10854
#
# Compressibility (1/GPa) = 0.02744207
#
# Stress axis : x y z
#
# Youngs Moduli (GPa) = 85.75799 77.76231 100.60538
#
# Poissons Ratio (x) = -0.12405 0.21073
# Poissons Ratio (y) = -0.13680 0.30280
# Poissons Ratio (z) = 0.17963 0.23404
#
# Static dielectric constant tensor:
#      x y z
#    x 1.779040 0.000000 0.000000 
#    y 0.000000 1.770820 0.000000 
#    z 0.000000 0.000000 1.864320 
# 
# From -- ./inp_files/24825.got.cif
#   From: 2010.05.17/outbox.cif.g08.bks.cpg/sg60_13_cif.got.tgz:24825.got - 2010.06.03 14:59:27.
