data_PCOD9457994
_publ_section_title
;
Structure prediction by ZEFSAII (Michael W. Deem and Ramdas Pophale) SiO2 
 PCOD9457994
Probable space group: P B C N
;
_chemical_formula_sum "Si O2"
_cell_formula_units_Z 60
_cell_length_a 8.037213
_cell_length_b 11.957682
_cell_length_c 27.920064
_cell_angle_alpha 90.000000
_cell_angle_beta 90.000000
_cell_angle_gamma 90.000000
_cell_volume 2683.297878
_symmetry_space_group_name_H-M "P B C N"
_symmetry_group_IT_number 60
_symmetry_cell_setting 'orthorhombic'
loop_
_space_group_symop_operation_xyz
x,y,z
1/2-x,1/2-y,1/2+z
1/2+x,1/2-y,-z
-x,y,1/2-z
-x,-y,-z
1/2+x,1/2+y,1/2-z
1/2-x,1/2+y,z
x,-y,1/2+z
loop_
_atom_site_type_symbol
_atom_site_label
_atom_site_fract_x
_atom_site_fract_y
_atom_site_fract_z
Si Si1 0.507613 0.562195 0.052552
Si Si2 0.694675 0.233045 0.967758
Si Si3 0.337567 0.059035 0.281792
Si Si4 0.490055 0.131210 0.454308
Si Si5 0.257342 0.819977 0.880710
Si Si6 0.000000 0.160877 0.250000
Si Si7 0.533286 0.846622 0.172526
Si Si8 0.308530 0.047255 0.601309
O O1 0.461471 0.687198 0.037291
O O2 0.663854 0.581839 0.088477
O O3 0.359578 0.518167 0.087639
O O4 0.500000 0.500000 0.000000
O O5 0.844860 0.316792 0.977091
O O6 0.723950 0.170242 0.918767
O O7 0.651768 0.135853 0.005385
O O8 0.500000 0.086672 0.250000
O O9 0.324554 0.130017 0.331023
O O10 0.165184 0.087873 0.255871
O O11 0.351602 0.929113 0.296540
O O12 0.412943 0.211882 0.413869
O O13 0.546353 0.018605 0.428011
O O14 0.138338 0.715228 0.869222
O O15 0.975296 0.243679 0.295018
O O16 0.386724 0.927256 0.152991
#
# Coordination Sequence:
#
# PCOD9457994 Si02
#       8
#     8   8   8   8   8   4   8   8
#     4  11  24  43  68 105 144 190 250 300 361 447
#     4  11  23  39  60  97 137 186 238 294 352 417
#     4  11  25  49  76 110 147 188 249 307 376 467
#     4  11  23  40  64  94 137 186 239 293 349 430
#     4  11  24  45  69 102 144 188 240 303 371 441
#     4  10  26  50  78 112 154 188 234 322 384 454
#     4  11  23  46  76 103 143 185 238 304 376 444
#     4  11  23  41  69  98 136 189 233 298 360 431
#
# _framework density 22.360544999999998
#
# number of rings (size 3 to 8) (size 9 to 14) (size 15 to 20)
#    0.000    1.067    3.333    2.800    0.000    6.400 
#    4.800    0.000    0.000    0.000    0.000    0.000 
#    0.000    0.000    0.000    0.000    0.000    0.000 
#
# Total GULP energy -334512.046579 kJ/mol
# GULP energy per Si atom -5575.200776 kJ/mol
# Density = 2.230965 g / cm^3
# Si number density = 22.360545 Si / 1000 Ang^3
#
#
#
# Elastic Constant Matrix: (Units=GPa)
#
#
# Indices 1 2 3 4 5 6 
#
# 1 115.0884 32.3352 64.3645 0.0000 0.0000 0.0000
# 2 32.3352 63.6212 26.1507 0.0000 0.0000 0.0000
# 3 64.3645 26.1507 90.7335 0.0000 0.0000 0.0000
# 4 0.0000 0.0000 0.0000 33.0337 0.0000 0.0000
# 5 0.0000 0.0000 0.0000 0.0000 46.3390 0.0000
# 6 0.0000 0.0000 0.0000 0.0000 0.0000 28.7199
#
#
#
# Elastic Compliance Matrix: (Units=1/GPa)
#
#
# Indices 1 2 3 4 5 6 
#
# 1 0.015142 -0.003722 -0.009669 0.000000 0.000000 0.000000
# 2 -0.003722 0.018745 -0.002763 0.000000 0.000000 0.000000
# 3 -0.009669 -0.002763 0.018676 0.000000 0.000000 0.000000
# 4 0.000000 0.000000 0.000000 0.030272 0.000000 0.000000
# 5 0.000000 0.000000 0.000000 0.000000 0.021580 0.000000
# 6 0.000000 0.000000 0.000000 0.000000 0.000000 0.034819
#
#
# Mechanical properties :
#
#
# Convention : Reuss Voigt Hill
#
# Bulk Modulus (GPa) = 49.36457 57.23821 53.30139
# Shear Modulus (GPa) = 28.04372 31.39136 29.71754
#
# Velocity S-wave (km/s) = 3.54526 3.75089 3.64952
# Velocity P-wave (km/s) = 6.23562 6.66426 6.45350
#
# Compressibility (1/GPa) = 0.02025744
#
# Stress axis : x y z
#
# Youngs Moduli (GPa) = 66.04154 53.34745 53.54367
#
# Poissons Ratio (x) = 0.19854 0.51770
# Poissons Ratio (y) = 0.24578 0.14792
# Poissons Ratio (z) = 0.63854 0.14738
#
# Static dielectric constant tensor:
#      x y z
#    x 1.916690 0.000000 0.000000 
#    y 0.000000 1.776310 0.000000 
#    z 0.000000 0.000000 1.901370 
# 
# From -- ./inp_files/25222.got.cif
#   From: 2010.05.17/outbox.cif.g08.bks.cpg/sg60_13_cif.got.tgz:25222.got - 2010.06.03 14:59:27.
