data_PCOD9457566
_publ_section_title
;
Structure prediction by ZEFSAII (Michael W. Deem and Ramdas Pophale) SiO2 
 PCOD9457566
Probable space group: P B C N
;
_chemical_formula_sum "Si O2"
_cell_formula_units_Z 56
_cell_length_a 14.018775
_cell_length_b 11.667090
_cell_length_c 15.562295
_cell_angle_alpha 90.000000
_cell_angle_beta 90.000000
_cell_angle_gamma 90.000000
_cell_volume 2545.342664
_symmetry_space_group_name_H-M "P B C N"
_symmetry_group_IT_number 60
_symmetry_cell_setting 'orthorhombic'
loop_
_space_group_symop_operation_xyz
x,y,z
1/2-x,1/2-y,1/2+z
1/2+x,1/2-y,-z
-x,y,1/2-z
-x,-y,-z
1/2+x,1/2+y,1/2-z
1/2-x,1/2+y,z
x,-y,1/2+z
loop_
_atom_site_type_symbol
_atom_site_label
_atom_site_fract_x
_atom_site_fract_y
_atom_site_fract_z
Si Si1 0.639473 0.780940 0.814853
Si Si2 0.599717 0.468111 0.603405
Si Si3 0.424394 0.270244 0.365903
Si Si4 0.706003 0.593779 0.930291
Si Si5 0.454507 0.728137 0.164263
Si Si6 0.083342 0.405693 0.015328
Si Si7 0.205883 0.932231 0.723152
O O1 0.640575 0.724214 0.719546
O O2 0.529849 0.772128 0.841029
O O3 0.695403 0.722720 0.894478
O O4 0.684051 0.904109 0.793790
O O5 0.569548 0.600999 0.597531
O O6 0.640957 0.427804 0.512701
O O7 0.516549 0.382380 0.634766
O O8 0.678236 0.460143 0.679658
O O9 0.392452 0.175329 0.433792
O O10 0.812349 0.552829 0.954484
O O11 0.673254 0.525627 0.845622
O O12 0.500000 0.779850 0.250000
O O13 0.451599 0.818702 0.088830
O O14 0.352896 0.680847 0.195773
O O15 0.000000 0.500000 0.000000
#
# Coordination Sequence:
#
# PCOD9457566 Si02
#       7
#     8   8   8   8   8   8   8
#     4  11  23  42  68  99 137 182 230 299 361 417
#     4  11  24  42  74 105 131 180 239 307 351 416
#     4  11  24  45  70 103 140 179 244 299 358 423
#     4  12  24  42  68 100 137 181 236 290 356 423
#     4  10  23  45  73  98 138 179 230 291 358 423
#     4  12  26  48  65 104 148 191 232 282 368 450
#     4  11  22  44  67 101 137 179 236 288 359 428
#
# _framework density 22.000966999999999
#
# number of rings (size 3 to 8) (size 9 to 14) (size 15 to 20)
#    0.000    0.857    2.857    4.286    4.000    1.714 
#   12.857    0.000    0.000    0.000    0.000    0.000 
#    0.000    0.000    0.000    0.000    0.000    0.000 
#
# Total GULP energy -312725.789681 kJ/mol
# GULP energy per Si atom -5584.389101 kJ/mol
# Density = 2.195089 g / cm^3
# Si number density = 22.000967 Si / 1000 Ang^3
#
#
#
# Elastic Constant Matrix: (Units=GPa)
#
#
# Indices 1 2 3 4 5 6 
#
# 1 63.5008 6.9908 23.6190 0.0000 0.0000 0.0000
# 2 6.9908 46.1675 33.8493 0.0000 0.0000 0.0000
# 3 23.6190 33.8493 155.5620 0.0000 0.0000 0.0000
# 4 0.0000 0.0000 0.0000 -35.0791 0.0000 0.0000
# 5 0.0000 0.0000 0.0000 0.0000 29.4289 0.0000
# 6 0.0000 0.0000 0.0000 0.0000 0.0000 14.6900
#
#
#
# Elastic Compliance Matrix: (Units=1/GPa)
#
#
# Indices 1 2 3 4 5 6 
#
# 1 0.016715 -0.000798 -0.002364 0.000000 0.000000 0.000000
# 2 -0.000798 0.025810 -0.005495 0.000000 0.000000 0.000000
# 3 -0.002364 -0.005495 0.007983 0.000000 0.000000 0.000000
# 4 0.000000 0.000000 0.000000 -0.028507 0.000000 0.000000
# 5 0.000000 0.000000 0.000000 0.000000 0.033980 0.000000
# 6 0.000000 0.000000 0.000000 0.000000 0.000000 0.068074
#
#
# Mechanical properties :
#
#
# Convention : Reuss Voigt Hill
#
# Bulk Modulus (GPa) = 30.12575 43.79428 36.96001
# Shear Modulus (GPa) = 32.80130 15.19269 23.99700
#
# Velocity S-wave (km/s) = 3.86541 2.63068 3.30619
# Velocity P-wave (km/s) = 5.80039 5.40149 5.60449
#
# Compressibility (1/GPa) = 0.03319420
#
# Stress axis : x y z
#
# Youngs Moduli (GPa) = 59.82634 38.74490 125.26696
#
# Poissons Ratio (x) = 0.03090 0.29617
# Poissons Ratio (y) = 0.04771 0.68834
# Poissons Ratio (z) = 0.14145 0.21290
#
# Static dielectric constant tensor:
#      x y z
#    x 1.851330 0.000000 0.000000 
#    y 0.000000 1.825290 0.000000 
#    z 0.000000 0.000000 1.811700 
# 
# From -- ./inp_files/16861.got.cif
#   From: 2010.05.17/outbox.cif.g08.bks.cpg/sg60_9_cif.got.tgz:16861.got - 2010.06.03 14:59:27.
