data_PCOD9457223
_publ_section_title
;
Structure prediction by ZEFSAII (Michael W. Deem and Ramdas Pophale) SiO2 
 PCOD9457223
Probable space group: P B C N
;
_chemical_formula_sum "Si O2"
_cell_formula_units_Z 32
_cell_length_a 9.941208
_cell_length_b 9.545957
_cell_length_c 14.225436
_cell_angle_alpha 90.000000
_cell_angle_beta 90.000000
_cell_angle_gamma 90.000000
_cell_volume 1349.970320
_symmetry_space_group_name_H-M "P B C N"
_symmetry_group_IT_number 60
_symmetry_cell_setting 'orthorhombic'
loop_
_space_group_symop_operation_xyz
x,y,z
1/2-x,1/2-y,1/2+z
1/2+x,1/2-y,-z
-x,y,1/2-z
-x,-y,-z
1/2+x,1/2+y,1/2-z
1/2-x,1/2+y,z
x,-y,1/2+z
loop_
_atom_site_type_symbol
_atom_site_label
_atom_site_fract_x
_atom_site_fract_y
_atom_site_fract_z
Si Si1 0.092712 0.390687 0.561263
Si Si2 0.647425 0.910273 0.684874
Si Si3 0.243828 0.127377 0.524936
Si Si4 0.853858 0.712102 0.778929
O O1 0.114360 0.228791 0.532972
O O2 0.240619 0.462184 0.550685
O O3 0.000000 0.500000 0.500000
O O4 0.009829 0.391946 0.658051
O O5 0.713841 0.869776 0.583379
O O6 0.733755 0.813556 0.752702
O O7 0.665900 0.070376 0.717695
O O8 0.340253 0.181418 0.610253
O O9 0.000000 0.768239 0.750000
#
# Coordination Sequence:
#
# PCOD9457223 Si02
#       4
#     8   8   8   8
#     4  10  22  45  73 103 146 191 240 300 368 434
#     4  11  25  47  71 105 147 192 242 310 368 439
#     4  11  23  43  76 104 143 197 240 307 370 434
#     4  12  26  46  74 107 147 193 249 300 373 448
#
# _framework density 23.704225000000001
#
# number of rings (size 3 to 8) (size 9 to 14) (size 15 to 20)
#    0.000    1.000    2.500    4.500    3.500    0.000 
#    9.000    6.250    0.000    0.000    0.000    0.000 
#    0.000    0.000    0.000    0.000    0.000    0.000 
#
# Total GULP energy -178191.535205 kJ/mol
# GULP energy per Si atom -5568.485475 kJ/mol
# Density = 2.365027 g / cm^3
# Si number density = 23.704225 Si / 1000 Ang^3
#
#
#
# Elastic Constant Matrix: (Units=GPa)
#
#
# Indices 1 2 3 4 5 6 
#
# 1 112.4628 80.8110 48.8343 0.0000 0.0000 0.0000
# 2 80.8110 114.0378 21.8645 0.0000 0.0000 0.0000
# 3 48.8343 21.8645 115.0658 0.0000 0.0000 0.0000
# 4 0.0000 0.0000 0.0000 38.7974 0.0000 0.0000
# 5 0.0000 0.0000 0.0000 0.0000 45.7358 0.0000
# 6 0.0000 0.0000 0.0000 0.0000 0.0000 59.6017
#
#
#
# Elastic Compliance Matrix: (Units=1/GPa)
#
#
# Indices 1 2 3 4 5 6 
#
# 1 0.022138 -0.014411 -0.006657 0.000000 0.000000 0.000000
# 2 -0.014411 0.018482 0.002604 0.000000 0.000000 0.000000
# 3 -0.006657 0.002604 0.011021 0.000000 0.000000 0.000000
# 4 0.000000 0.000000 0.000000 0.025775 0.000000 0.000000
# 5 0.000000 0.000000 0.000000 0.000000 0.021865 0.000000
# 6 0.000000 0.000000 0.000000 0.000000 0.000000 0.016778
#
#
# Mechanical properties :
#
#
# Convention : Reuss Voigt Hill
#
# Bulk Modulus (GPa) = 67.96719 71.62068 69.79393
# Shear Modulus (GPa) = 31.66753 41.49742 36.58247
#
# Velocity S-wave (km/s) = 3.65902 4.18860 3.93273
# Velocity P-wave (km/s) = 6.82543 7.32614 7.08022
#
# Compressibility (1/GPa) = 0.01471298
#
# Stress axis : x y z
#
# Youngs Moduli (GPa) = 45.17177 54.10682 90.73548
#
# Poissons Ratio (x) = 0.77974 0.60402
# Poissons Ratio (y) = 0.65098 -0.23630
# Poissons Ratio (z) = 0.30071 -0.14091
#
# Static dielectric constant tensor:
#      x y z
#    x 2.032000 0.000000 0.000000 
#    y 0.000000 1.890970 0.000000 
#    z 0.000000 0.000000 2.062340 
# 
# From -- ./inp_files/14432.got.cif
#   From: 2010.05.17/outbox.cif.g08.bks.cpg/sg60_8_cif.got.tgz:14432.got - 2010.06.03 14:59:27.
