data_PCOD9457046
_publ_section_title
;
Structure prediction by ZEFSAII (Michael W. Deem and Ramdas Pophale) SiO2 
 PCOD9457046
Probable space group: P B C N
;
_chemical_formula_sum "Si O2"
_cell_formula_units_Z 52
_cell_length_a 18.794667
_cell_length_b 4.983920
_cell_length_c 23.062072
_cell_angle_alpha 90.000000
_cell_angle_beta 90.000000
_cell_angle_gamma 90.000000
_cell_volume 2160.250039
_symmetry_space_group_name_H-M "P B C N"
_symmetry_group_IT_number 60
_symmetry_cell_setting 'orthorhombic'
loop_
_space_group_symop_operation_xyz
x,y,z
1/2-x,1/2-y,1/2+z
1/2+x,1/2-y,-z
-x,y,1/2-z
-x,-y,-z
1/2+x,1/2+y,1/2-z
1/2-x,1/2+y,z
x,-y,1/2+z
loop_
_atom_site_type_symbol
_atom_site_label
_atom_site_fract_x
_atom_site_fract_y
_atom_site_fract_z
Si Si1 0.000000 0.605320 0.250000
Si Si2 0.992271 0.795837 0.122534
Si Si3 0.706987 0.621507 0.173459
Si Si4 0.347430 0.299065 0.130719
Si Si5 0.356532 0.820199 0.207570
Si Si6 0.412526 0.211105 0.917499
Si Si7 0.294616 0.338595 0.004161
O O1 0.980603 0.777616 0.192589
O O2 0.932845 0.425510 0.269054
O O3 0.940020 0.587532 0.091534
O O4 0.976790 0.085713 0.096014
O O5 0.073216 0.705822 0.113118
O O6 0.775428 0.811235 0.163790
O O7 0.683461 0.695560 0.237978
O O8 0.645662 0.716386 0.130959
O O9 0.320728 0.078249 0.176821
O O10 0.301529 0.324011 0.073407
O O11 0.360618 0.583382 0.161127
O O12 0.370279 0.265915 0.976483
O O13 0.265262 0.625856 0.985489
#
# Coordination Sequence:
#
# PCOD9457046 Si02
#       7
#     4   8   8   8   8   8   8
#     4  10  22  42  68 102 140 182 214 264 358 410
#     4  11  24  40  71 103 141 171 221 285 338 416
#     4  12  25  40  62  95 135 172 222 279 333 398
#     4  11  26  43  68 105 131 179 229 279 342 404
#     4  11  24  41  67  99 135 177 223 277 338 412
#     4  12  25  44  69 101 131 185 226 281 337 403
#     4  12  27  49  73  93 135 188 234 284 337 405
#
# _framework density 24.071290000000001
#
# number of rings (size 3 to 8) (size 9 to 14) (size 15 to 20)
#    0.000    0.615    1.538    6.462    4.308    6.154 
#    0.000    0.000    0.000    0.000    0.000    0.000 
#    0.000    0.000    0.000    0.000    0.000    0.000 
#
# Total GULP energy -291573.498140 kJ/mol
# GULP energy per Si atom -5607.182657 kJ/mol
# Density = 2.401650 g / cm^3
# Si number density = 24.071290 Si / 1000 Ang^3
#
#
#
# Elastic Constant Matrix: (Units=GPa)
#
#
# Indices 1 2 3 4 5 6 
#
# 1 42.2085 -10.2550 5.0122 0.0000 0.0000 0.0000
# 2 -10.2550 72.4794 19.6481 0.0000 0.0000 0.0000
# 3 5.0122 19.6481 86.4517 0.0000 0.0000 0.0000
# 4 0.0000 0.0000 0.0000 14.1994 0.0000 0.0000
# 5 0.0000 0.0000 0.0000 0.0000 44.5965 0.0000
# 6 0.0000 0.0000 0.0000 0.0000 0.0000 16.9080
#
#
#
# Elastic Compliance Matrix: (Units=1/GPa)
#
#
# Indices 1 2 3 4 5 6 
#
# 1 0.024994 0.004187 -0.002401 0.000000 0.000000 0.000000
# 2 0.004187 0.015404 -0.003744 0.000000 0.000000 0.000000
# 3 -0.002401 -0.003744 0.012557 0.000000 0.000000 0.000000
# 4 0.000000 0.000000 0.000000 0.070426 0.000000 0.000000
# 5 0.000000 0.000000 0.000000 0.000000 0.022423 0.000000
# 6 0.000000 0.000000 0.000000 0.000000 0.000000 0.059143
#
#
# Mechanical properties :
#
#
# Convention : Reuss Voigt Hill
#
# Bulk Modulus (GPa) = 20.39097 25.55002 22.97050
# Shear Modulus (GPa) = 22.20151 27.58973 24.89562
#
# Velocity S-wave (km/s) = 3.04027 3.38918 3.21946
# Velocity P-wave (km/s) = 4.56222 5.09439 4.83563
#
# Compressibility (1/GPa) = 0.04904131
#
# Stress axis : x y z
#
# Youngs Moduli (GPa) = 40.00910 64.91672 79.63561
#
# Poissons Ratio (x) = -0.27182 0.19118
# Poissons Ratio (y) = -0.16753 0.29814
# Poissons Ratio (z) = 0.09605 0.24303
#
# Static dielectric constant tensor:
#      x y z
#    x 1.930110 0.000000 0.000000 
#    y 0.000000 1.875820 0.000000 
#    z 0.000000 0.000000 1.914030 
# 
# From -- ./inp_files/23198.got.cif
#   From: 2010.05.17/outbox.cif.g08.bks.cpg/sg60_12_cif.got.tgz:23198.got - 2010.06.03 14:59:27.
