data_PCOD9457565
_publ_section_title
;
Structure prediction by ZEFSAII (Michael W. Deem and Ramdas Pophale) SiO2 
 PCOD9457565
Probable space group: P B C N
;
_chemical_formula_sum "Si O2"
_cell_formula_units_Z 40
_cell_length_a 10.209417
_cell_length_b 9.724789
_cell_length_c 17.291485
_cell_angle_alpha 90.000000
_cell_angle_beta 90.000000
_cell_angle_gamma 90.000000
_cell_volume 1716.775165
_symmetry_space_group_name_H-M "P B C N"
_symmetry_group_IT_number 60
_symmetry_cell_setting 'orthorhombic'
loop_
_space_group_symop_operation_xyz
x,y,z
1/2-x,1/2-y,1/2+z
1/2+x,1/2-y,-z
-x,y,1/2-z
-x,-y,-z
1/2+x,1/2+y,1/2-z
1/2-x,1/2+y,z
x,-y,1/2+z
loop_
_atom_site_type_symbol
_atom_site_label
_atom_site_fract_x
_atom_site_fract_y
_atom_site_fract_z
Si Si1 0.788992 0.661427 0.243192
Si Si2 0.637657 0.479722 0.957080
Si Si3 0.511651 0.075655 0.375059
Si Si4 0.613142 0.159798 0.972474
Si Si5 0.367156 0.431482 0.219018
O O1 0.884299 0.610032 0.175638
O O2 0.658319 0.574227 0.239357
O O3 0.865374 0.621517 0.322878
O O4 0.761560 0.822058 0.251530
O O5 0.657253 0.314692 0.955349
O O6 0.761568 0.562239 0.992378
O O7 0.627071 0.542720 0.871262
O O8 0.500000 0.500000 0.000000
O O9 0.486687 0.156290 0.455146
O O10 0.540803 0.919567 0.402119
O O11 0.500000 0.366837 0.250000
#
# Coordination Sequence:
#
# PCOD9457565 Si02
#       5
#     8   8   8   8   8
#     4  11  24  45  72  95 144 178 232 283 348 403
#     4  12  28  45  72 104 142 183 237 287 350 418
#     4  10  23  45  73  97 138 188 224 287 349 407
#     4  11  26  45  73 101 143 181 235 287 351 411
#     4  12  26  45  69 101 137 181 228 286 340 414
#
# _framework density 23.299498
#
# number of rings (size 3 to 8) (size 9 to 14) (size 15 to 20)
#    0.000    0.800    4.000    2.400    8.400    1.600 
#    0.000    0.000    0.000    0.000    0.000    0.000 
#    0.000    0.000    0.000    0.000    0.000    0.000 
#
# Total GULP energy -223613.121076 kJ/mol
# GULP energy per Si atom -5590.328027 kJ/mol
# Density = 2.324647 g / cm^3
# Si number density = 23.299498 Si / 1000 Ang^3
#
#
#
# Elastic Constant Matrix: (Units=GPa)
#
#
# Indices 1 2 3 4 5 6 
#
# 1 59.8968 23.6825 19.8590 0.0000 0.0000 0.0000
# 2 23.6825 177.7092 31.9658 0.0000 0.0000 0.0000
# 3 19.8590 31.9658 72.7478 0.0000 0.0000 0.0000
# 4 0.0000 0.0000 0.0000 21.7718 0.0000 0.0000
# 5 0.0000 0.0000 0.0000 0.0000 25.3977 0.0000
# 6 0.0000 0.0000 0.0000 0.0000 0.0000 36.6232
#
#
#
# Elastic Compliance Matrix: (Units=1/GPa)
#
#
# Indices 1 2 3 4 5 6 
#
# 1 0.018829 -0.001721 -0.004384 0.000000 0.000000 0.000000
# 2 -0.001721 0.006267 -0.002284 0.000000 0.000000 0.000000
# 3 -0.004384 -0.002284 0.015947 0.000000 0.000000 0.000000
# 4 0.000000 0.000000 0.000000 0.045931 0.000000 0.000000
# 5 0.000000 0.000000 0.000000 0.000000 0.039374 0.000000
# 6 0.000000 0.000000 0.000000 0.000000 0.000000 0.027305
#
#
# Mechanical properties :
#
#
# Convention : Reuss Voigt Hill
#
# Bulk Modulus (GPa) = 41.21097 51.26316 46.23706
# Shear Modulus (GPa) = 28.00820 32.41497 30.21159
#
# Velocity S-wave (km/s) = 3.47089 3.73397 3.60483
# Velocity P-wave (km/s) = 5.81280 6.37492 6.10034
#
# Compressibility (1/GPa) = 0.02426538
#
# Stress axis : x y z
#
# Youngs Moduli (GPa) = 53.10883 159.55693 62.70936
#
# Poissons Ratio (x) = 0.27455 0.27492
# Poissons Ratio (y) = 0.09138 0.14324
# Poissons Ratio (z) = 0.23283 0.36446
#
# Static dielectric constant tensor:
#      x y z
#    x 1.858570 0.000000 0.000000 
#    y 0.000000 1.901930 0.000000 
#    z 0.000000 0.000000 1.853290 
# 
# From -- ./inp_files/19857.got.cif
#   From: 2010.05.17/outbox.cif.g08.bks.cpg/sg60_10_cif.got.tgz:19857.got - 2010.06.03 14:59:27.
