data_PCOD9457130
_publ_section_title
;
Structure prediction by ZEFSAII (Michael W. Deem and Ramdas Pophale) SiO2 
 PCOD9457130
Probable space group: P B C N
;
_chemical_formula_sum "Si O2"
_cell_formula_units_Z 60
_cell_length_a 15.277125
_cell_length_b 14.655063
_cell_length_c 9.839308
_cell_angle_alpha 90.000000
_cell_angle_beta 90.000000
_cell_angle_gamma 90.000000
_cell_volume 2202.895407
_symmetry_space_group_name_H-M "P B C N"
_symmetry_group_IT_number 60
_symmetry_cell_setting 'orthorhombic'
loop_
_space_group_symop_operation_xyz
x,y,z
1/2-x,1/2-y,1/2+z
1/2+x,1/2-y,-z
-x,y,1/2-z
-x,-y,-z
1/2+x,1/2+y,1/2-z
1/2-x,1/2+y,z
x,-y,1/2+z
loop_
_atom_site_type_symbol
_atom_site_label
_atom_site_fract_x
_atom_site_fract_y
_atom_site_fract_z
Si Si1 0.000000 0.927443 0.750000
Si Si2 0.266648 0.508222 0.986068
Si Si3 0.905545 0.445397 0.629346
Si Si4 0.177776 0.171050 0.813953
Si Si5 0.439000 0.590406 0.587320
Si Si6 0.543295 0.864806 0.070868
Si Si7 0.077181 0.206241 0.081327
Si Si8 0.315637 0.166035 0.141022
O O1 0.080423 0.859851 0.713054
O O2 0.995486 0.002671 0.867833
O O3 0.350151 0.447455 0.018964
O O4 0.247777 0.582387 0.103631
O O5 0.179744 0.449666 0.966922
O O6 0.281356 0.573315 0.854119
O O7 0.921587 0.552191 0.662438
O O8 0.880599 0.376716 0.747620
O O9 0.991392 0.412144 0.553570
O O10 0.095180 0.145330 0.719895
O O11 0.225035 0.245872 0.717720
O O12 0.149586 0.211161 0.962359
O O13 0.497009 0.657176 0.498553
O O14 0.628004 0.817365 0.997652
O O15 0.465440 0.800755 0.122989
#
# Coordination Sequence:
#
# PCOD9457130 Si02
#       8
#     4   8   8   8   8   8   8   8
#     4  12  24  40  62 104 140 170 224 294 328 406
#     4  11  26  44  61 104 142 182 225 275 356 412
#     4  10  22  43  69  93 131 177 227 280 336 406
#     4  12  23  42  72  97 137 181 233 278 339 417
#     4  12  23  43  72  97 134 184 227 283 343 412
#     4  10  22  44  70 102 127 175 238 280 337 405
#     4  12  23  43  69 104 134 176 231 288 341 397
#     4  11  23  44  71  97 138 180 227 286 340 410
#
# _framework density 27.236882000000001
#
# number of rings (size 3 to 8) (size 9 to 14) (size 15 to 20)
#    0.000    0.800    5.333    2.400    0.000    1.067 
#   12.000    0.000    0.000    0.000    0.000    0.000 
#    0.000    0.000    0.000    0.000    0.000    0.000 
#
# Total GULP energy -335302.451281 kJ/mol
# GULP energy per Si atom -5588.374188 kJ/mol
# Density = 2.717489 g / cm^3
# Si number density = 27.236882 Si / 1000 Ang^3
#
#
#
# Elastic Constant Matrix: (Units=GPa)
#
#
# Indices 1 2 3 4 5 6 
#
# 1 84.0694 -21.2946 -4.1739 0.0000 0.0000 0.0000
# 2 -21.2946 66.9318 6.5547 0.0000 0.0000 0.0000
# 3 -4.1739 6.5547 82.7842 0.0000 0.0000 0.0000
# 4 0.0000 0.0000 0.0000 40.9713 0.0000 0.0000
# 5 0.0000 0.0000 0.0000 0.0000 33.5328 0.0000
# 6 0.0000 0.0000 0.0000 0.0000 0.0000 39.3512
#
#
#
# Elastic Compliance Matrix: (Units=1/GPa)
#
#
# Indices 1 2 3 4 5 6 
#
# 1 0.012946 0.004087 0.000329 0.000000 0.000000 0.000000
# 2 0.004087 0.016347 -0.001088 0.000000 0.000000 0.000000
# 3 0.000329 -0.001088 0.012182 0.000000 0.000000 0.000000
# 4 0.000000 0.000000 0.000000 0.024407 0.000000 0.000000
# 5 0.000000 0.000000 0.000000 0.000000 0.029822 0.000000
# 6 0.000000 0.000000 0.000000 0.000000 0.000000 0.025412
#
#
# Mechanical properties :
#
#
# Convention : Reuss Voigt Hill
#
# Bulk Modulus (GPa) = 20.77649 21.77309 21.27479
# Shear Modulus (GPa) = 38.31246 39.61767 38.96507
#
# Velocity S-wave (km/s) = 3.75459 3.81801 3.78643
# Velocity P-wave (km/s) = 5.14204 5.23904 5.19077
#
# Compressibility (1/GPa) = 0.04813133
#
# Stress axis : x y z
#
# Youngs Moduli (GPa) = 77.24132 61.17197 82.08585
#
# Poissons Ratio (x) = -0.24999 -0.02702
# Poissons Ratio (y) = -0.31566 0.08933
# Poissons Ratio (z) = -0.02543 0.06657
#
# Static dielectric constant tensor:
#      x y z
#    x 2.154550 0.000000 0.000000 
#    y 0.000000 2.152150 0.000000 
#    z 0.000000 0.000000 2.296290 
# 
# From -- ./inp_files/12523.got.cif
#   From: 2010.05.17/outbox.cif.g08.bks.cpg/sg60_7_cif.got.tgz:12523.got - 2010.06.03 14:59:27.
