data_PCOD9457688
_publ_section_title
;
Structure prediction by ZEFSAII (Michael W. Deem and Ramdas Pophale) SiO2 
 PCOD9457688
Probable space group: P B C N
;
_chemical_formula_sum "Si O2"
_cell_formula_units_Z 64
_cell_length_a 8.885335
_cell_length_b 10.022134
_cell_length_c 32.838095
_cell_angle_alpha 90.000000
_cell_angle_beta 90.000000
_cell_angle_gamma 90.000000
_cell_volume 2924.232951
_symmetry_space_group_name_H-M "P B C N"
_symmetry_group_IT_number 60
_symmetry_cell_setting 'orthorhombic'
loop_
_space_group_symop_operation_xyz
x,y,z
1/2-x,1/2-y,1/2+z
1/2+x,1/2-y,-z
-x,y,1/2-z
-x,-y,-z
1/2+x,1/2+y,1/2-z
1/2-x,1/2+y,z
x,-y,1/2+z
loop_
_atom_site_type_symbol
_atom_site_label
_atom_site_fract_x
_atom_site_fract_y
_atom_site_fract_z
Si Si1 0.492843 0.757101 0.189863
Si Si2 0.008668 0.507448 0.135559
Si Si3 0.630229 0.503258 0.358318
Si Si4 0.249827 0.248614 0.752071
Si Si5 0.001654 0.386549 0.446844
Si Si6 0.248396 0.008235 0.999915
Si Si7 0.008899 0.247340 0.690318
Si Si8 0.992977 0.091677 0.061092
O O1 0.543886 0.878595 0.161363
O O2 0.416739 0.637548 0.165225
O O3 0.628873 0.692722 0.216209
O O4 0.367328 0.818831 0.220837
O O5 0.191200 0.505980 0.134455
O O6 0.956621 0.640274 0.158711
O O7 0.965987 0.494422 0.088257
O O8 0.587926 0.373381 0.332691
O O9 0.537731 0.501815 0.400606
O O10 0.132445 0.316603 0.720555
O O11 0.127165 0.186831 0.782779
O O12 0.130834 0.391545 0.480704
O O13 0.002316 0.244469 0.425351
O O14 0.846444 0.413812 0.470577
O O15 0.123161 0.076323 0.027500
O O16 0.160337 0.941393 0.962373
#
# Coordination Sequence:
#
# PCOD9457688 Si02
#       8
#     8   8   8   8   8   8   8   8
#     4  11  24  42  70  91 127 174 219 265 336 388
#     4  12  23  43  66  95 130 175 218 264 326 393
#     4  12  23  43  66  95 130 175 218 264 326 393
#     4  10  24  44  66  96 130 168 216 282 324 386
#     4  11  23  44  70  95 136 173 218 270 330 393
#     4  10  24  42  66 106 128 168 220 272 328 394
#     4  11  26  42  66  97 131 168 221 267 330 388
#     4  11  23  44  70  95 136 173 218 270 330 393
#
# _framework density 21.886081999999998
#
# number of rings (size 3 to 8) (size 9 to 14) (size 15 to 20)
#    0.000    1.000    5.000    0.750    0.000    9.000 
#   11.250    0.000    0.000    0.000    0.000    0.000 
#    0.000    0.000    0.000    0.000    0.000    0.000 
#
# Total GULP energy -356856.632586 kJ/mol
# GULP energy per Si atom -5575.884884 kJ/mol
# Density = 2.183627 g / cm^3
# Si number density = 21.886082 Si / 1000 Ang^3
#
#
#
# Elastic Constant Matrix: (Units=GPa)
#
#
# Indices 1 2 3 4 5 6 
#
# 1 73.6172 0.8858 29.4528 0.0000 0.0000 0.0000
# 2 0.8858 68.7971 15.0344 0.0000 0.0000 0.0000
# 3 29.4528 15.0344 106.6929 0.0000 0.0000 0.0000
# 4 0.0000 0.0000 0.0000 -35.2960 0.0000 0.0000
# 5 0.0000 0.0000 0.0000 0.0000 21.6666 0.0000
# 6 0.0000 0.0000 0.0000 0.0000 0.0000 6.6416
#
#
#
# Elastic Compliance Matrix: (Units=1/GPa)
#
#
# Indices 1 2 3 4 5 6 
#
# 1 0.015308 0.000749 -0.004331 0.000000 0.000000 0.000000
# 2 0.000749 0.015034 -0.002325 0.000000 0.000000 0.000000
# 3 -0.004331 -0.002325 0.010896 0.000000 0.000000 0.000000
# 4 0.000000 0.000000 0.000000 -0.028332 0.000000 0.000000
# 5 0.000000 0.000000 0.000000 0.000000 0.046154 0.000000
# 6 0.000000 0.000000 0.000000 0.000000 0.000000 0.150565
#
#
# Mechanical properties :
#
#
# Convention : Reuss Voigt Hill
#
# Bulk Modulus (GPa) = 33.98676 37.76144 35.87410
# Shear Modulus (GPa) = 21.62187 12.18473 16.90330
#
# Velocity S-wave (km/s) = 3.14654 2.36208 2.78210
# Velocity P-wave (km/s) = 5.36317 4.97296 5.17175
#
# Compressibility (1/GPa) = 0.02942322
#
# Stress axis : x y z
#
# Youngs Moduli (GPa) = 65.32691 66.51586 91.77649
#
# Poissons Ratio (x) = -0.04985 0.39751
# Poissons Ratio (y) = -0.04896 0.21341
# Poissons Ratio (z) = 0.28295 0.15467
#
# Static dielectric constant tensor:
#      x y z
#    x 1.799460 0.000000 0.000000 
#    y 0.000000 1.770940 0.000000 
#    z 0.000000 0.000000 1.801470 
# 
# From -- ./inp_files/26034.got.cif
#   From: 2010.05.17/outbox.cif.g08.bks.cpg/sg60_14_cif.got.tgz:26034.got - 2010.06.03 14:59:27.
