data_PCOD9457147
_publ_section_title
;
Structure prediction by ZEFSAII (Michael W. Deem and Ramdas Pophale) SiO2 
 PCOD9457147
Probable space group: P B C N
;
_chemical_formula_sum "Si O2"
_cell_formula_units_Z 36
_cell_length_a 16.460058
_cell_length_b 9.284533
_cell_length_c 8.889887
_cell_angle_alpha 90.000000
_cell_angle_beta 90.000000
_cell_angle_gamma 90.000000
_cell_volume 1358.587661
_symmetry_space_group_name_H-M "P B C N"
_symmetry_group_IT_number 60
_symmetry_cell_setting 'orthorhombic'
loop_
_space_group_symop_operation_xyz
x,y,z
1/2-x,1/2-y,1/2+z
1/2+x,1/2-y,-z
-x,y,1/2-z
-x,-y,-z
1/2+x,1/2+y,1/2-z
1/2-x,1/2+y,z
x,-y,1/2+z
loop_
_atom_site_type_symbol
_atom_site_label
_atom_site_fract_x
_atom_site_fract_y
_atom_site_fract_z
Si Si1 0.223543 0.948157 0.225535
Si Si2 0.411046 0.834562 0.951983
Si Si3 0.000000 0.437532 0.250000
Si Si4 0.941262 0.019993 0.636826
Si Si5 0.732893 0.211789 0.487474
O O1 0.151122 0.018900 0.324911
O O2 0.278174 0.859702 0.346964
O O3 0.184125 0.832132 0.108017
O O4 0.260623 0.076819 0.127216
O O5 0.455753 0.857612 0.111658
O O6 0.317557 0.799052 0.990706
O O7 0.436918 0.692472 0.863320
O O8 0.434717 0.964076 0.841037
O O9 0.000000 0.940997 0.750000
O O10 0.000000 0.000000 0.500000
#
# Coordination Sequence:
#
# PCOD9457147 Si02
#       5
#     8   8   4   8   8
#     4  11  25  46  70 107 144 197 244 308 371 449
#     4  10  23  42  68  98 138 184 234 296 358 444
#     4  10  22  44  64 102 140 184 232 290 374 430
#     4  11  23  41  68 101 141 182 243 301 362 435
#     4  11  25  46  71 104 144 191 247 299 375 440
#
# _framework density 26.498104999999999
#
# number of rings (size 3 to 8) (size 9 to 14) (size 15 to 20)
#    0.000    1.333    1.111    4.000    4.667    5.333 
#    0.000    0.000    0.000    0.000    0.000    0.000 
#    0.000    0.000    0.000    0.000    0.000    0.000 
#
# Total GULP energy -200756.909782 kJ/mol
# GULP energy per Si atom -5576.580827 kJ/mol
# Density = 2.643779 g / cm^3
# Si number density = 26.498105 Si / 1000 Ang^3
#
#
#
# Elastic Constant Matrix: (Units=GPa)
#
#
# Indices 1 2 3 4 5 6 
#
# 1 68.8422 17.2741 10.9851 0.0000 0.0000 0.0000
# 2 17.2741 99.5316 21.5615 0.0000 0.0000 0.0000
# 3 10.9851 21.5615 171.6441 0.0000 0.0000 0.0000
# 4 0.0000 0.0000 0.0000 -91.2032 0.0000 0.0000
# 5 0.0000 0.0000 0.0000 0.0000 43.2520 0.0000
# 6 0.0000 0.0000 0.0000 0.0000 0.0000 21.2199
#
#
#
# Elastic Compliance Matrix: (Units=1/GPa)
#
#
# Indices 1 2 3 4 5 6 
#
# 1 0.015260 -0.002505 -0.000662 0.000000 0.000000 0.000000
# 2 -0.002505 0.010739 -0.001189 0.000000 0.000000 0.000000
# 3 -0.000662 -0.001189 0.006018 0.000000 0.000000 0.000000
# 4 0.000000 0.000000 0.000000 -0.010965 0.000000 0.000000
# 5 0.000000 0.000000 0.000000 0.000000 0.023120 0.000000
# 6 0.000000 0.000000 0.000000 0.000000 0.000000 0.047126
#
#
# Mechanical properties :
#
#
# Convention : Reuss Voigt Hill
#
# Bulk Modulus (GPa) = 42.90791 48.85102 45.87947
# Shear Modulus (GPa) = 46.39136 14.00021 30.19578
#
# Velocity S-wave (km/s) = 4.18873 2.30107 3.37938
# Velocity P-wave (km/s) = 6.29459 5.05328 5.70778
#
# Compressibility (1/GPa) = 0.02330573
#
# Stress axis : x y z
#
# Youngs Moduli (GPa) = 65.52999 93.11558 166.17642
#
# Poissons Ratio (x) = 0.23326 0.11000
# Poissons Ratio (y) = 0.16416 0.19754
# Poissons Ratio (z) = 0.04338 0.11069
#
# Static dielectric constant tensor:
#      x y z
#    x 2.143820 0.000000 0.000000 
#    y 0.000000 2.031990 0.000000 
#    z 0.000000 0.000000 2.158270 
# 
# From -- ./inp_files/7182.got.cif
#   From: 2010.05.17/outbox.cif.g08.bks.cpg/sg60_4_cif.got.tgz:7182.got - 2010.06.03 14:59:27.
