data_PCOD9457238
_publ_section_title
;
Structure prediction by ZEFSAII (Michael W. Deem and Ramdas Pophale) SiO2 
 PCOD9457238
Probable space group: P B C N
;
_chemical_formula_sum "Si O2"
_cell_formula_units_Z 40
_cell_length_a 9.022464
_cell_length_b 13.707789
_cell_length_c 14.060416
_cell_angle_alpha 90.000000
_cell_angle_beta 90.000000
_cell_angle_gamma 90.000000
_cell_volume 1738.964591
_symmetry_space_group_name_H-M "P B C N"
_symmetry_group_IT_number 60
_symmetry_cell_setting 'orthorhombic'
loop_
_space_group_symop_operation_xyz
x,y,z
1/2-x,1/2-y,1/2+z
1/2+x,1/2-y,-z
-x,y,1/2-z
-x,-y,-z
1/2+x,1/2+y,1/2-z
1/2-x,1/2+y,z
x,-y,1/2+z
loop_
_atom_site_type_symbol
_atom_site_label
_atom_site_fract_x
_atom_site_fract_y
_atom_site_fract_z
Si Si1 0.892996 0.052304 0.139850
Si Si2 0.750591 0.756139 0.620599
Si Si3 0.654951 0.601155 0.485416
Si Si4 0.500000 0.845415 0.250000
Si Si5 0.797483 0.517482 0.322028
Si Si6 0.000000 0.691376 0.250000
O O1 0.763757 0.127607 0.109962
O O2 0.841581 0.024010 0.247226
O O3 0.031475 0.114261 0.096208
O O4 0.901928 0.954155 0.078858
O O5 0.734095 0.697679 0.522765
O O6 0.600551 0.744118 0.681302
O O7 0.890036 0.716685 0.682615
O O8 0.758152 0.524328 0.431888
O O9 0.390735 0.920747 0.196691
O O10 0.890181 0.616451 0.303452
#
# Coordination Sequence:
#
# PCOD9457238 Si02
#       6
#     8   8   8   4   8   4
#     4  10  24  45  63 106 141 170 234 282 345 410
#     4  11  25  43  69 104 134 183 237 274 352 406
#     4  11  24  42  71 100 136 187 225 288 340 416
#     4  11  24  44  69  98 134 184 229 280 349 408
#     4  10  22  46  68  93 139 183 222 287 346 399
#     4   9  24  44  65  96 142 174 223 288 333 410
#
# _framework density 23.002191
#
# number of rings (size 3 to 8) (size 9 to 14) (size 15 to 20)
#    0.000    1.600    2.000    0.600    8.400    5.600 
#    0.000    0.000    0.000    0.000    0.000    0.000 
#    0.000    0.000    0.000    0.000    0.000    0.000 
#
# Total GULP energy -222871.063833 kJ/mol
# GULP energy per Si atom -5571.776596 kJ/mol
# Density = 2.294984 g / cm^3
# Si number density = 23.002191 Si / 1000 Ang^3
#
#
#
# Elastic Constant Matrix: (Units=GPa)
#
#
# Indices 1 2 3 4 5 6 
#
# 1 87.1196 9.2297 30.9340 0.0000 0.0000 0.0000
# 2 9.2297 75.7544 18.5279 0.0000 0.0000 0.0000
# 3 30.9340 18.5279 91.2253 0.0000 0.0000 0.0000
# 4 0.0000 0.0000 0.0000 4.0436 0.0000 0.0000
# 5 0.0000 0.0000 0.0000 0.0000 5.0681 0.0000
# 6 0.0000 0.0000 0.0000 0.0000 0.0000 12.5101
#
#
#
# Elastic Compliance Matrix: (Units=1/GPa)
#
#
# Indices 1 2 3 4 5 6 
#
# 1 0.013070 -0.000535 -0.004323 0.000000 0.000000 0.000000
# 2 -0.000535 0.013912 -0.002644 0.000000 0.000000 0.000000
# 3 -0.004323 -0.002644 0.012965 0.000000 0.000000 0.000000
# 4 0.000000 0.000000 0.000000 0.247303 0.000000 0.000000
# 5 0.000000 0.000000 0.000000 0.000000 0.197312 0.000000
# 6 0.000000 0.000000 0.000000 0.000000 0.000000 0.079935
#
#
# Mechanical properties :
#
#
# Convention : Reuss Voigt Hill
#
# Bulk Modulus (GPa) = 40.09230 41.27581 40.68406
# Shear Modulus (GPa) = 8.50605 17.35156 12.92880
#
# Velocity S-wave (km/s) = 1.92509 2.74951 2.37337
# Velocity P-wave (km/s) = 4.73380 5.29745 5.02354
#
# Compressibility (1/GPa) = 0.02494244
#
# Stress axis : x y z
#
# Youngs Moduli (GPa) = 76.50945 71.87801 77.13106
#
# Poissons Ratio (x) = 0.03846 0.33347
# Poissons Ratio (y) = 0.04094 0.20395
# Poissons Ratio (z) = 0.33078 0.19006
#
# Static dielectric constant tensor:
#      x y z
#    x 2.026670 0.000000 0.000000 
#    y 0.000000 1.808180 0.000000 
#    z 0.000000 0.000000 1.914250 
# 
# From -- ./inp_files/14722.got.cif
#   From: 2010.05.17/outbox.cif.g08.bks.cpg/sg60_8_cif.got.tgz:14722.got - 2010.06.03 14:59:27.
