data_PCOD9457852
_publ_section_title
;
Structure prediction by ZEFSAII (Michael W. Deem and Ramdas Pophale) SiO2 
 PCOD9457852
Probable space group: P B C N
;
_chemical_formula_sum "Si O2"
_cell_formula_units_Z 40
_cell_length_a 18.732179
_cell_length_b 10.527337
_cell_length_c 7.552311
_cell_angle_alpha 90.000000
_cell_angle_beta 90.000000
_cell_angle_gamma 90.000000
_cell_volume 1489.315435
_symmetry_space_group_name_H-M "P B C N"
_symmetry_group_IT_number 60
_symmetry_cell_setting 'orthorhombic'
loop_
_space_group_symop_operation_xyz
x,y,z
1/2-x,1/2-y,1/2+z
1/2+x,1/2-y,-z
-x,y,1/2-z
-x,-y,-z
1/2+x,1/2+y,1/2-z
1/2-x,1/2+y,z
x,-y,1/2+z
loop_
_atom_site_type_symbol
_atom_site_label
_atom_site_fract_x
_atom_site_fract_y
_atom_site_fract_z
Si Si1 0.092025 0.827478 0.698984
Si Si2 0.714812 0.820768 0.380959
Si Si3 0.636038 0.035376 0.188196
Si Si4 0.500000 0.441953 0.250000
Si Si5 0.119435 0.779608 0.110827
Si Si6 0.500000 0.899975 0.250000
O O1 0.173951 0.814081 0.639835
O O2 0.046857 0.949736 0.641482
O O3 0.093774 0.818461 0.914001
O O4 0.049511 0.700126 0.641762
O O5 0.682299 0.880690 0.556924
O O6 0.798897 0.822358 0.374397
O O7 0.683297 0.912187 0.230529
O O8 0.623371 0.129373 0.354256
O O9 0.556503 0.986520 0.149037
O O10 0.566363 0.342237 0.244352
#
# Coordination Sequence:
#
# PCOD9457852 Si02
#       6
#     8   8   8   4   8   4
#     4  10  24  48  66 105 142 189 234 299 358 428
#     4  11  26  44  73 102 146 190 237 304 358 434
#     4  11  24  44  71 106 135 188 241 298 360 424
#     4  11  27  44  72 104 145 191 238 300 354 435
#     4  12  26  43  72 103 146 190 242 293 364 434
#     4   9  21  42  72  94 137 171 236 290 348 417
#
# _framework density 26.857977000000002
#
# number of rings (size 3 to 8) (size 9 to 14) (size 15 to 20)
#    0.000    1.200    0.000    4.800    5.600   15.200 
#    0.000    0.000    0.000    0.000    0.000    0.000 
#    0.000    0.000    0.000    0.000    0.000    0.000 
#
# Total GULP energy -223519.128815 kJ/mol
# GULP energy per Si atom -5587.978220 kJ/mol
# Density = 2.679685 g / cm^3
# Si number density = 26.857977 Si / 1000 Ang^3
#
#
#
# Elastic Constant Matrix: (Units=GPa)
#
#
# Indices 1 2 3 4 5 6 
#
# 1 288.1657 70.4789 49.2697 0.0000 0.0000 0.0000
# 2 70.4789 101.2436 17.1733 0.0000 0.0000 0.0000
# 3 49.2697 17.1733 91.0003 0.0000 0.0000 0.0000
# 4 0.0000 0.0000 0.0000 32.5571 0.0000 0.0000
# 5 0.0000 0.0000 0.0000 0.0000 46.2462 0.0000
# 6 0.0000 0.0000 0.0000 0.0000 0.0000 21.9515
#
#
#
# Elastic Compliance Matrix: (Units=1/GPa)
#
#
# Indices 1 2 3 4 5 6 
#
# 1 0.004478 -0.002796 -0.001897 0.000000 0.000000 0.000000
# 2 -0.002796 0.011949 -0.000741 0.000000 0.000000 0.000000
# 3 -0.001897 -0.000741 0.012156 0.000000 0.000000 0.000000
# 4 0.000000 0.000000 0.000000 0.030715 0.000000 0.000000
# 5 0.000000 0.000000 0.000000 0.000000 0.021623 0.000000
# 6 0.000000 0.000000 0.000000 0.000000 0.000000 0.045555
#
#
# Mechanical properties :
#
#
# Convention : Reuss Voigt Hill
#
# Bulk Modulus (GPa) = 56.44877 83.80594 70.12736
# Shear Modulus (GPa) = 34.90389 43.05012 38.97701
#
# Velocity S-wave (km/s) = 3.60887 4.00794 3.81363
# Velocity P-wave (km/s) = 6.19906 7.25874 6.74973
#
# Compressibility (1/GPa) = 0.01771518
#
# Stress axis : x y z
#
# Youngs Moduli (GPa) = 223.29612 83.68817 82.26392
#
# Poissons Ratio (x) = 0.23397 0.15606
# Poissons Ratio (y) = 0.62428 0.06098
# Poissons Ratio (z) = 0.42361 0.06204
#
# Static dielectric constant tensor:
#      x y z
#    x 2.044510 0.000000 0.000000 
#    y 0.000000 2.085370 0.000000 
#    z 0.000000 0.000000 2.326850 
# 
# From -- ./inp_files/6555.got.cif
#   From: 2010.05.17/outbox.cif.g08.bks.cpg/sg60_4_cif.got.tgz:6555.got - 2010.06.03 14:59:27.
