data_PCOD9457753
_publ_section_title
;
Structure prediction by ZEFSAII (Michael W. Deem and Ramdas Pophale) SiO2 
 PCOD9457753
Probable space group: P B C N
;
_chemical_formula_sum "Si O2"
_cell_formula_units_Z 36
_cell_length_a 28.509072
_cell_length_b 5.094792
_cell_length_c 9.158792
_cell_angle_alpha 90.000000
_cell_angle_beta 90.000000
_cell_angle_gamma 90.000000
_cell_volume 1330.294315
_symmetry_space_group_name_H-M "P B C N"
_symmetry_group_IT_number 60
_symmetry_cell_setting 'orthorhombic'
loop_
_space_group_symop_operation_xyz
x,y,z
1/2-x,1/2-y,1/2+z
1/2+x,1/2-y,-z
-x,y,1/2-z
-x,-y,-z
1/2+x,1/2+y,1/2-z
1/2-x,1/2+y,z
x,-y,1/2+z
loop_
_atom_site_type_symbol
_atom_site_label
_atom_site_fract_x
_atom_site_fract_y
_atom_site_fract_z
Si Si1 0.836257 0.118898 0.763552
Si Si2 0.584315 0.027439 0.409090
Si Si3 0.279352 0.741045 0.016220
Si Si4 0.000000 0.177619 0.750000
Si Si5 0.579124 0.334951 0.675467
O O1 0.868388 0.330320 0.850241
O O2 0.797280 0.222373 0.650845
O O3 0.873905 0.992658 0.651967
O O4 0.814738 0.893226 0.868045
O O5 0.537381 0.158209 0.342208
O O6 0.581586 0.073834 0.580210
O O7 0.581608 0.737430 0.346408
O O8 0.234700 0.544729 0.036330
O O9 0.967775 0.992501 0.650085
#
# Coordination Sequence:
#
# PCOD9457753 Si02
#       5
#     8   8   8   4   8
#     4  11  26  45  70 106 144 190 240 301 370 435
#     4  11  25  43  71 101 145 186 238 297 359 440
#     4  12  28  48  76 107 148 193 248 308 372 444
#     4  10  24  44  68 104 138 184 242 294 362 424
#     4  11  25  43  71 101 145 186 238 297 359 440
#
# _framework density 27.061679000000002
#
# number of rings (size 3 to 8) (size 9 to 14) (size 15 to 20)
#    0.000    0.889    2.222    2.667    9.333    5.333 
#    0.000    0.000    0.000    0.000    0.000    0.000 
#    0.000    0.000    0.000    0.000    0.000    0.000 
#
# Total GULP energy -201743.100529 kJ/mol
# GULP energy per Si atom -5603.975015 kJ/mol
# Density = 2.700009 g / cm^3
# Si number density = 27.061679 Si / 1000 Ang^3
#
#
#
# Elastic Constant Matrix: (Units=GPa)
#
#
# Indices 1 2 3 4 5 6 
#
# 1 130.5109 12.7458 29.0030 0.0000 0.0000 0.0000
# 2 12.7458 56.8430 -6.2197 0.0000 0.0000 0.0000
# 3 29.0030 -6.2197 102.8997 0.0000 0.0000 0.0000
# 4 0.0000 0.0000 0.0000 35.3030 0.0000 0.0000
# 5 0.0000 0.0000 0.0000 0.0000 28.4767 0.0000
# 6 0.0000 0.0000 0.0000 0.0000 0.0000 34.7365
#
#
#
# Elastic Compliance Matrix: (Units=1/GPa)
#
#
# Indices 1 2 3 4 5 6 
#
# 1 0.008431 -0.002165 -0.002507 0.000000 0.000000 0.000000
# 2 -0.002165 0.018265 0.001714 0.000000 0.000000 0.000000
# 3 -0.002507 0.001714 0.010528 0.000000 0.000000 0.000000
# 4 0.000000 0.000000 0.000000 0.028326 0.000000 0.000000
# 5 0.000000 0.000000 0.000000 0.000000 0.035116 0.000000
# 6 0.000000 0.000000 0.000000 0.000000 0.000000 0.028788
#
#
# Mechanical properties :
#
#
# Convention : Reuss Voigt Hill
#
# Bulk Modulus (GPa) = 31.93954 40.14574 36.04264
# Shear Modulus (GPa) = 34.29192 36.68489 35.48840
#
# Velocity S-wave (km/s) = 3.56360 3.68585 3.62524
# Velocity P-wave (km/s) = 5.36288 5.74291 5.55615
#
# Compressibility (1/GPa) = 0.03130916
#
# Stress axis : x y z
#
# Youngs Moduli (GPa) = 118.61340 54.74870 94.98063
#
# Poissons Ratio (x) = 0.11852 0.23813
# Poissons Ratio (y) = 0.25677 -0.16281
# Poissons Ratio (z) = 0.29738 -0.09385
#
# Static dielectric constant tensor:
#      x y z
#    x 2.099550 0.000000 0.000000 
#    y 0.000000 2.062540 0.000000 
#    z 0.000000 0.000000 2.050410 
# 
# From -- ./inp_files/12988.got.cif
#   From: 2010.05.17/outbox.cif.g08.bks.cpg/sg60_7_cif.got.tgz:12988.got - 2010.06.03 14:59:27.
