data_PCOD9457139
_publ_section_title
;
Structure prediction by ZEFSAII (Michael W. Deem and Ramdas Pophale) SiO2 
 PCOD9457139
Probable space group: P B C N
;
_chemical_formula_sum "Si O2"
_cell_formula_units_Z 28
_cell_length_a 8.649798
_cell_length_b 8.583788
_cell_length_c 13.385356
_cell_angle_alpha 90.000000
_cell_angle_beta 90.000000
_cell_angle_gamma 90.000000
_cell_volume 993.836344
_symmetry_space_group_name_H-M "P B C N"
_symmetry_group_IT_number 60
_symmetry_cell_setting 'orthorhombic'
loop_
_space_group_symop_operation_xyz
x,y,z
1/2-x,1/2-y,1/2+z
1/2+x,1/2-y,-z
-x,y,1/2-z
-x,-y,-z
1/2+x,1/2+y,1/2-z
1/2-x,1/2+y,z
x,-y,1/2+z
loop_
_atom_site_type_symbol
_atom_site_label
_atom_site_fract_x
_atom_site_fract_y
_atom_site_fract_z
Si Si1 0.463552 0.287809 0.392274
Si Si2 0.321312 0.962551 0.380821
Si Si3 0.500000 0.294490 0.750000
Si Si4 0.278266 0.338120 0.583192
O O1 0.359528 0.431152 0.355042
O O2 0.412661 0.286134 0.507852
O O3 0.646595 0.285759 0.386218
O O4 0.394945 0.126047 0.350945
O O5 0.410710 0.824274 0.325716
O O6 0.315814 0.946741 0.503259
O O7 0.369124 0.377703 0.682979
#
# Coordination Sequence:
#
# PCOD9457139 Si02
#       4
#     8   8   4   8
#     4  10  22  45  71  96 150 180 230 304 356 404
#     4  10  23  45  67 105 139 190 232 301 347 426
#     4  12  24  42  72 106 140 196 242 284 370 430
#     4  10  22  43  72 103 144 189 237 297 352 427
#
# _framework density 28.173652000000001
#
# number of rings (size 3 to 8) (size 9 to 14) (size 15 to 20)
#    1.714    0.000    2.857    0.857    0.000    4.571 
#    0.000    0.000    0.000    0.000    0.000    0.000 
#    0.000    0.000    0.000    0.000    0.000    0.000 
#
# Total GULP energy -156344.057251 kJ/mol
# GULP energy per Si atom -5583.716330 kJ/mol
# Density = 2.810953 g / cm^3
# Si number density = 28.173652 Si / 1000 Ang^3
#
#
#
# Elastic Constant Matrix: (Units=GPa)
#
#
# Indices 1 2 3 4 5 6 
#
# 1 174.8114 17.1611 88.1754 0.0000 0.0000 0.0000
# 2 17.1611 73.6548 63.1854 0.0000 0.0000 0.0000
# 3 88.1754 63.1854 183.7869 0.0000 0.0000 0.0000
# 4 0.0000 0.0000 0.0000 37.9410 0.0000 0.0000
# 5 0.0000 0.0000 0.0000 0.0000 58.1210 0.0000
# 6 0.0000 0.0000 0.0000 0.0000 0.0000 39.2867
#
#
#
# Elastic Compliance Matrix: (Units=1/GPa)
#
#
# Indices 1 2 3 4 5 6 
#
# 1 0.007741 0.001961 -0.004388 0.000000 0.000000 0.000000
# 2 0.001961 0.019753 -0.007732 0.000000 0.000000 0.000000
# 3 -0.004388 -0.007732 0.010204 0.000000 0.000000 0.000000
# 4 0.000000 0.000000 0.000000 0.026357 0.000000 0.000000
# 5 0.000000 0.000000 0.000000 0.000000 0.017205 0.000000
# 6 0.000000 0.000000 0.000000 0.000000 0.000000 0.025454
#
#
# Mechanical properties :
#
#
# Convention : Reuss Voigt Hill
#
# Bulk Modulus (GPa) = 57.53597 85.47744 71.50670
# Shear Modulus (GPa) = 37.64319 44.65183 41.14751
#
# Velocity S-wave (km/s) = 3.65925 3.98537 3.82579
# Velocity P-wave (km/s) = 6.19030 7.18213 6.70458
#
# Compressibility (1/GPa) = 0.01738043
#
# Stress axis : x y z
#
# Youngs Moduli (GPa) = 129.17603 50.62618 97.99599
#
# Poissons Ratio (x) = -0.09926 0.43002
# Poissons Ratio (y) = -0.25328 0.75767
# Poissons Ratio (z) = 0.56685 0.39142
#
# Static dielectric constant tensor:
#      x y z
#    x 2.126940 0.000000 0.000000 
#    y 0.000000 2.191650 0.000000 
#    z 0.000000 0.000000 2.145470 
# 
# From -- ./inp_files/14248.got.cif
#   From: 2010.05.17/outbox.cif.g08.bks.cpg/sg60_8_cif.got.tgz:14248.got - 2010.06.03 14:59:27.
