data_PCOD9457122
_publ_section_title
;
Structure prediction by ZEFSAII (Michael W. Deem and Ramdas Pophale) SiO2 
 PCOD9457122
Probable space group: P B C N
;
_chemical_formula_sum "Si O2"
_cell_formula_units_Z 40
_cell_length_a 5.771983
_cell_length_b 21.538626
_cell_length_c 13.246378
_cell_angle_alpha 90.000000
_cell_angle_beta 90.000000
_cell_angle_gamma 90.000000
_cell_volume 1646.797437
_symmetry_space_group_name_H-M "P B C N"
_symmetry_group_IT_number 60
_symmetry_cell_setting 'orthorhombic'
loop_
_space_group_symop_operation_xyz
x,y,z
1/2-x,1/2-y,1/2+z
1/2+x,1/2-y,-z
-x,y,1/2-z
-x,-y,-z
1/2+x,1/2+y,1/2-z
1/2-x,1/2+y,z
x,-y,1/2+z
loop_
_atom_site_type_symbol
_atom_site_label
_atom_site_fract_x
_atom_site_fract_y
_atom_site_fract_z
Si Si1 0.839536 0.648137 0.982454
Si Si2 0.089695 0.040775 0.639514
Si Si3 0.688612 0.053059 0.479496
Si Si4 0.747527 0.217270 0.794461
Si Si5 0.753305 0.141709 0.216010
O O1 0.750111 0.595587 0.903823
O O2 0.783056 0.708143 0.915388
O O3 0.730695 0.646588 0.093667
O O4 0.095826 0.622797 0.010090
O O5 0.000000 0.050671 0.750000
O O6 0.873303 0.043529 0.565916
O O7 0.206487 0.973921 0.623189
O O8 0.500000 0.000000 0.500000
O O9 0.500000 0.191176 0.750000
O O10 0.750206 0.289164 0.763442
O O11 0.000000 0.193818 0.750000
O O12 0.500000 0.114762 0.250000
O O13 0.000000 0.114912 0.250000
#
# Coordination Sequence:
#
# PCOD9457122 Si02
#       5
#     8   8   8   8   8
#     4  11  24  40  69  99 140 182 245 288 360 439
#     4  10  22  43  68 100 139 181 243 296 368 430
#     4   9  22  43  62  99 135 184 229 299 355 423
#     4  10  24  42  68 101 137 186 233 294 355 422
#     4  10  25  46  65 101 140 188 236 295 364 423
#
# _framework density 24.289570000000001
#
# number of rings (size 3 to 8) (size 9 to 14) (size 15 to 20)
#    0.000    2.000    0.000    0.600    8.400    8.800 
#   10.800    0.000    0.000    0.000    0.000    0.000 
#    0.000    0.000    0.000    0.000    0.000    0.000 
#
# Total GULP energy -222945.523106 kJ/mol
# GULP energy per Si atom -5573.638078 kJ/mol
# Density = 2.423429 g / cm^3
# Si number density = 24.289570 Si / 1000 Ang^3
#
#
#
# Elastic Constant Matrix: (Units=GPa)
#
#
# Indices 1 2 3 4 5 6 
#
# 1 144.4061 30.3843 32.6532 0.0000 0.0000 0.0000
# 2 30.3843 69.4104 50.0509 0.0000 0.0000 0.0000
# 3 32.6532 50.0509 154.7442 0.0000 0.0000 0.0000
# 4 0.0000 0.0000 0.0000 67.7405 0.0000 0.0000
# 5 0.0000 0.0000 0.0000 0.0000 24.6971 0.0000
# 6 0.0000 0.0000 0.0000 0.0000 0.0000 34.0773
#
#
#
# Elastic Compliance Matrix: (Units=1/GPa)
#
#
# Indices 1 2 3 4 5 6 
#
# 1 0.007684 -0.002862 -0.000696 0.000000 0.000000 0.000000
# 2 -0.002862 0.019855 -0.005818 0.000000 0.000000 0.000000
# 3 -0.000696 -0.005818 0.008491 0.000000 0.000000 0.000000
# 4 0.000000 0.000000 0.000000 0.014762 0.000000 0.000000
# 5 0.000000 0.000000 0.000000 0.000000 0.040491 0.000000
# 6 0.000000 0.000000 0.000000 0.000000 0.000000 0.029345
#
#
# Mechanical properties :
#
#
# Convention : Reuss Voigt Hill
#
# Bulk Modulus (GPa) = 57.87498 66.08197 61.97847
# Shear Modulus (GPa) = 34.44945 42.33447 38.39196
#
# Velocity S-wave (km/s) = 3.77009 4.17934 3.97998
# Velocity P-wave (km/s) = 6.54449 7.11015 6.83317
#
# Compressibility (1/GPa) = 0.01727862
#
# Stress axis : x y z
#
# Youngs Moduli (GPa) = 130.13265 50.36433 117.77277
#
# Poissons Ratio (x) = 0.14415 0.08195
# Poissons Ratio (y) = 0.37246 0.68522
# Poissons Ratio (z) = 0.09055 0.29303
#
# Static dielectric constant tensor:
#      x y z
#    x 2.047250 0.000000 0.000000 
#    y 0.000000 1.910890 0.000000 
#    z 0.000000 0.000000 1.928480 
# 
# From -- ./inp_files/9090.got.cif
#   From: 2010.05.17/outbox.cif.g08.bks.cpg/sg60_5_cif.got.tgz:9090.got - 2010.06.03 14:59:27.
