data_PCOD9457543
_publ_section_title
;
Structure prediction by ZEFSAII (Michael W. Deem and Ramdas Pophale) SiO2 
 PCOD9457543
Probable space group: P B C N
;
_chemical_formula_sum "Si O2"
_cell_formula_units_Z 36
_cell_length_a 12.820424
_cell_length_b 4.916905
_cell_length_c 23.075857
_cell_angle_alpha 90.000000
_cell_angle_beta 90.000000
_cell_angle_gamma 90.000000
_cell_volume 1454.628341
_symmetry_space_group_name_H-M "P B C N"
_symmetry_group_IT_number 60
_symmetry_cell_setting 'orthorhombic'
loop_
_space_group_symop_operation_xyz
x,y,z
1/2-x,1/2-y,1/2+z
1/2+x,1/2-y,-z
-x,y,1/2-z
-x,-y,-z
1/2+x,1/2+y,1/2-z
1/2-x,1/2+y,z
x,-y,1/2+z
loop_
_atom_site_type_symbol
_atom_site_label
_atom_site_fract_x
_atom_site_fract_y
_atom_site_fract_z
Si Si1 0.500000 0.097166 0.250000
Si Si2 0.179517 0.764171 0.724399
Si Si3 0.821448 0.764617 0.590710
Si Si4 0.467698 0.506176 0.640302
Si Si5 0.320941 0.755719 0.546215
O O1 0.513523 0.291022 0.305547
O O2 0.405551 0.889141 0.262368
O O3 0.278344 0.567643 0.731173
O O4 0.117652 0.788376 0.663675
O O5 0.725301 0.968959 0.603891
O O6 0.845816 0.774163 0.521834
O O7 0.925668 0.864946 0.621421
O O8 0.415044 0.669550 0.587528
O O9 0.276458 0.054154 0.556651
#
# Coordination Sequence:
#
# PCOD9457543 Si02
#       5
#     4   8   8   8   8
#     4  12  30  48  70 114 146 196 256 294 368 436
#     4  12  27  49  72 103 146 190 244 303 355 430
#     4  10  25  46  72 109 150 189 242 310 380 436
#     4  12  26  48  76 108 147 200 253 300 368 445
#     4  10  23  44  74 111 143 187 244 308 375 442
#
# _framework density 24.74859
#
# number of rings (size 3 to 8) (size 9 to 14) (size 15 to 20)
#    0.000    0.889    2.222    2.667    6.222    1.778 
#    0.000    6.667    0.000    0.000    0.000    0.000 
#    0.000    0.000    0.000    0.000    0.000    0.000 
#
# Total GULP energy -201608.455705 kJ/mol
# GULP energy per Si atom -5600.234881 kJ/mol
# Density = 2.469226 g / cm^3
# Si number density = 24.748590 Si / 1000 Ang^3
#
#
#
# Elastic Constant Matrix: (Units=GPa)
#
#
# Indices 1 2 3 4 5 6 
#
# 1 33.2301 -29.4487 17.5376 0.0000 0.0000 0.0000
# 2 -29.4487 87.9831 17.8532 0.0000 0.0000 0.0000
# 3 17.5376 17.8532 85.6652 0.0000 0.0000 0.0000
# 4 0.0000 0.0000 0.0000 26.2351 0.0000 0.0000
# 5 0.0000 0.0000 0.0000 0.0000 49.8772 0.0000
# 6 0.0000 0.0000 0.0000 0.0000 0.0000 39.3078
#
#
#
# Elastic Compliance Matrix: (Units=1/GPa)
#
#
# Indices 1 2 3 4 5 6 
#
# 1 0.060116 0.023617 -0.017229 0.000000 0.000000 0.000000
# 2 0.023617 0.021146 -0.009242 0.000000 0.000000 0.000000
# 3 -0.017229 -0.009242 0.017127 0.000000 0.000000 0.000000
# 4 0.000000 0.000000 0.000000 0.038117 0.000000 0.000000
# 5 0.000000 0.000000 0.000000 0.000000 0.020049 0.000000
# 6 0.000000 0.000000 0.000000 0.000000 0.000000 0.025440
#
#
# Mechanical properties :
#
#
# Convention : Reuss Voigt Hill
#
# Bulk Modulus (GPa) = 10.78966 24.30694 17.54830
# Shear Modulus (GPa) = 22.87324 36.47979 29.67651
#
# Velocity S-wave (km/s) = 3.04340 3.84346 3.46659
# Velocity P-wave (km/s) = 4.08888 5.43499 4.80926
#
# Compressibility (1/GPa) = 0.09268131
#
# Stress axis : x y z
#
# Youngs Moduli (GPa) = 16.63453 47.28998 58.38866
#
# Poissons Ratio (x) = -1.11687 1.00598
# Poissons Ratio (y) = -0.39286 0.53963
# Poissons Ratio (z) = 0.28660 0.43705
#
# Static dielectric constant tensor:
#      x y z
#    x 1.966100 0.000000 0.000000 
#    y 0.000000 1.940520 0.000000 
#    z 0.000000 0.000000 2.005180 
# 
# From -- ./inp_files/24173.got.cif
#   From: 2010.05.17/outbox.cif.g08.bks.cpg/sg60_13_cif.got.tgz:24173.got - 2010.06.03 14:59:27.
