data_PCOD9457359
_publ_section_title
;
Structure prediction by ZEFSAII (Michael W. Deem and Ramdas Pophale) SiO2 
 PCOD9457359
Probable space group: P B C N
;
_chemical_formula_sum "Si O2"
_cell_formula_units_Z 64
_cell_length_a 22.437638
_cell_length_b 11.706924
_cell_length_c 11.811944
_cell_angle_alpha 90.000000
_cell_angle_beta 90.000000
_cell_angle_gamma 90.000000
_cell_volume 3102.710928
_symmetry_space_group_name_H-M "P B C N"
_symmetry_group_IT_number 60
_symmetry_cell_setting 'orthorhombic'
loop_
_space_group_symop_operation_xyz
x,y,z
1/2-x,1/2-y,1/2+z
1/2+x,1/2-y,-z
-x,y,1/2-z
-x,-y,-z
1/2+x,1/2+y,1/2-z
1/2-x,1/2+y,z
x,-y,1/2+z
loop_
_atom_site_type_symbol
_atom_site_label
_atom_site_fract_x
_atom_site_fract_y
_atom_site_fract_z
Si Si1 0.566887 0.063177 0.281640
Si Si2 0.976866 0.772846 0.383155
Si Si3 0.340289 0.919064 0.131981
Si Si4 0.693596 0.411505 0.022812
Si Si5 0.787213 0.286547 0.164227
Si Si6 0.275050 0.160905 0.165767
Si Si7 0.854302 0.836195 0.473946
Si Si8 0.392790 0.216432 0.425181
O O1 0.500000 0.038646 0.250000
O O2 0.558216 0.151771 0.383893
O O3 0.600135 0.137421 0.185812
O O4 0.597387 0.946847 0.309852
O O5 0.923114 0.850036 0.432058
O O6 0.000000 0.794935 0.250000
O O7 0.038403 0.753974 0.450338
O O8 0.305364 0.840377 0.217628
O O9 0.309715 0.043897 0.135573
O O10 0.356571 0.860239 0.014697
O O11 0.713704 0.358042 0.903242
O O12 0.751850 0.384994 0.097748
O O13 0.673770 0.540158 0.000669
O O14 0.642457 0.335470 0.081361
O O15 0.742160 0.185281 0.203855
O O16 0.840423 0.237631 0.087543
O O17 0.314431 0.266922 0.118600
#
# Coordination Sequence:
#
# PCOD9457359 Si02
#       8
#     8   8   8   8   8   8   8   8
#     4   9  21  38  63  91 121 167 210 262 327 388
#     4   9  21  45  66  96 125 175 223 260 330 395
#     4  12  22  38  65  94 130 167 211 275 327 386
#     4  11  24  41  65  92 132 171 216 268 321 394
#     4  11  25  40  61 100 134 166 215 269 337 390
#     4  11  23  42  63  94 131 173 213 264 332 398
#     4  11  24  42  67  96 131 173 221 267 324 394
#     4  10  23  41  65  91 129 169 221 268 321 385
#
# _framework density 20.627123999999998
#
# number of rings (size 3 to 8) (size 9 to 14) (size 15 to 20)
#    0.000    1.750    2.500    2.250    7.000    3.500 
#    0.000    0.000    0.000    0.000    0.000    0.000 
#    0.000    0.000    0.000    0.000    0.000    0.000 
#
# Total GULP energy -356412.977863 kJ/mol
# GULP energy per Si atom -5568.952779 kJ/mol
# Density = 2.058018 g / cm^3
# Si number density = 20.627124 Si / 1000 Ang^3
#
#
#
# Elastic Constant Matrix: (Units=GPa)
#
#
# Indices 1 2 3 4 5 6 
#
# 1 59.2733 19.9624 22.2107 0.0000 0.0000 0.0000
# 2 19.9624 88.5710 27.5401 0.0000 0.0000 0.0000
# 3 22.2107 27.5401 65.3915 0.0000 0.0000 0.0000
# 4 0.0000 0.0000 0.0000 12.3039 0.0000 0.0000
# 5 0.0000 0.0000 0.0000 0.0000 28.7585 0.0000
# 6 0.0000 0.0000 0.0000 0.0000 0.0000 24.4911
#
#
#
# Elastic Compliance Matrix: (Units=1/GPa)
#
#
# Indices 1 2 3 4 5 6 
#
# 1 0.019894 -0.002742 -0.005602 0.000000 0.000000 0.000000
# 2 -0.002742 0.013370 -0.004699 0.000000 0.000000 0.000000
# 3 -0.005602 -0.004699 0.019175 0.000000 0.000000 0.000000
# 4 0.000000 0.000000 0.000000 0.081275 0.000000 0.000000
# 5 0.000000 0.000000 0.000000 0.000000 0.034772 0.000000
# 6 0.000000 0.000000 0.000000 0.000000 0.000000 0.040831
#
#
# Mechanical properties :
#
#
# Convention : Reuss Voigt Hill
#
# Bulk Modulus (GPa) = 37.94949 39.18469 38.56709
# Shear Modulus (GPa) = 20.47608 22.67885 21.57746
#
# Velocity S-wave (km/s) = 3.15410 3.31942 3.23781
# Velocity P-wave (km/s) = 5.63047 5.80769 5.71977
#
# Compressibility (1/GPa) = 0.02635082
#
# Stress axis : x y z
#
# Youngs Moduli (GPa) = 50.26720 74.79685 52.15233
#
# Poissons Ratio (x) = 0.20507 0.29218
# Poissons Ratio (y) = 0.13782 0.24509
# Poissons Ratio (z) = 0.28161 0.35150
#
# Static dielectric constant tensor:
#      x y z
#    x 1.858320 0.000000 0.000000 
#    y 0.000000 1.764670 0.000000 
#    z 0.000000 0.000000 1.827260 
# 
# From -- ./inp_files/13161.got.cif
#   From: 2010.05.17/outbox.cif.g08.bks.cpg/sg60_7_cif.got.tgz:13161.got - 2010.06.03 14:59:27.
