data_PCOD9457381
_publ_section_title
;
Structure prediction by ZEFSAII (Michael W. Deem and Ramdas Pophale) SiO2 
 PCOD9457381
Probable space group: P B C N
;
_chemical_formula_sum "Si O2"
_cell_formula_units_Z 48
_cell_length_a 15.349761
_cell_length_b 11.711840
_cell_length_c 13.924032
_cell_angle_alpha 90.000000
_cell_angle_beta 90.000000
_cell_angle_gamma 90.000000
_cell_volume 2503.178161
_symmetry_space_group_name_H-M "P B C N"
_symmetry_group_IT_number 60
_symmetry_cell_setting 'orthorhombic'
loop_
_space_group_symop_operation_xyz
x,y,z
1/2-x,1/2-y,1/2+z
1/2+x,1/2-y,-z
-x,y,1/2-z
-x,-y,-z
1/2+x,1/2+y,1/2-z
1/2-x,1/2+y,z
x,-y,1/2+z
loop_
_atom_site_type_symbol
_atom_site_label
_atom_site_fract_x
_atom_site_fract_y
_atom_site_fract_z
Si Si1 0.670518 0.678523 0.392578
Si Si2 0.877926 0.595941 0.989480
Si Si3 0.821205 0.958462 0.524872
Si Si4 0.854944 0.202773 0.855438
Si Si5 0.397423 0.509445 0.265565
Si Si6 0.028520 0.420781 0.645885
O O1 0.615929 0.782593 0.436484
O O2 0.678761 0.581001 0.473078
O O3 0.763648 0.731508 0.364416
O O4 0.630638 0.615196 0.301041
O O5 0.902485 0.500375 0.910370
O O6 0.779932 0.579603 0.028436
O O7 0.945406 0.587079 0.076420
O O8 0.867811 0.868172 0.454025
O O9 0.868219 0.966727 0.626361
O O10 0.928745 0.296648 0.840160
O O11 0.852492 0.106269 0.773580
O O12 0.500000 0.492468 0.250000
O O13 0.000000 0.466188 0.750000
#
# Coordination Sequence:
#
# PCOD9457381 Si02
#       6
#     8   8   8   8   8   8
#     4  10  23  43  66  90 134 163 222 264 324 399
#     4  10  24  43  63  97 129 176 211 278 323 391
#     4  10  23  43  65  92 132 171 218 268 331 391
#     4  10  23  42  64  96 128 170 219 268 324 395
#     4  11  26  41  67 102 128 174 218 276 339 393
#     4  11  24  41  67  94 131 167 222 265 331 391
#
# _framework density 19.175623000000002
#
# number of rings (size 3 to 8) (size 9 to 14) (size 15 to 20)
#    0.000    1.667    1.667    0.500    9.333    3.333 
#    3.000    0.000    0.000    0.000    0.000    0.000 
#    0.000    0.000    0.000    0.000    0.000    0.000 
#
# Total GULP energy -268202.498051 kJ/mol
# GULP energy per Si atom -5587.552043 kJ/mol
# Density = 1.913198 g / cm^3
# Si number density = 19.175623 Si / 1000 Ang^3
#
#
#
# Elastic Constant Matrix: (Units=GPa)
#
#
# Indices 1 2 3 4 5 6 
#
# 1 48.5549 8.5798 26.5805 0.0000 0.0000 0.0000
# 2 8.5798 76.6688 3.4983 0.0000 0.0000 0.0000
# 3 26.5805 3.4983 72.1451 0.0000 0.0000 0.0000
# 4 0.0000 0.0000 0.0000 10.2444 0.0000 0.0000
# 5 0.0000 0.0000 0.0000 0.0000 21.8162 0.0000
# 6 0.0000 0.0000 0.0000 0.0000 0.0000 15.7115
#
#
#
# Elastic Compliance Matrix: (Units=1/GPa)
#
#
# Indices 1 2 3 4 5 6 
#
# 1 0.026269 -0.002504 -0.009557 0.000000 0.000000 0.000000
# 2 -0.002504 0.013311 0.000277 0.000000 0.000000 0.000000
# 3 -0.009557 0.000277 0.017369 0.000000 0.000000 0.000000
# 4 0.000000 0.000000 0.000000 0.097614 0.000000 0.000000
# 5 0.000000 0.000000 0.000000 0.000000 0.045838 0.000000
# 6 0.000000 0.000000 0.000000 0.000000 0.000000 0.063647
#
#
# Mechanical properties :
#
#
# Convention : Reuss Voigt Hill
#
# Bulk Modulus (GPa) = 29.95692 30.52068 30.23880
# Shear Modulus (GPa) = 16.73681 20.13511 18.43596
#
# Velocity S-wave (km/s) = 2.95755 3.24394 3.10405
# Velocity P-wave (km/s) = 5.22677 5.47557 5.35261
#
# Compressibility (1/GPa) = 0.03338127
#
# Stress axis : x y z
#
# Youngs Moduli (GPa) = 38.06698 75.12781 57.57499
#
# Poissons Ratio (x) = 0.18809 0.55025
# Poissons Ratio (y) = 0.09531 -0.01595
# Poissons Ratio (z) = 0.36381 -0.02081
#
# Static dielectric constant tensor:
#      x y z
#    x 1.664620 0.000000 0.000000 
#    y 0.000000 1.655460 0.000000 
#    z 0.000000 0.000000 1.639100 
# 
# From -- ./inp_files/12421.got.cif
#   From: 2010.05.17/outbox.cif.g08.bks.cpg/sg60_7_cif.got.tgz:12421.got - 2010.06.03 14:59:27.
