data_PCOD9457362
_publ_section_title
;
Structure prediction by ZEFSAII (Michael W. Deem and Ramdas Pophale) SiO2 
 PCOD9457362
Probable space group: P B C N
;
_chemical_formula_sum "Si O2"
_cell_formula_units_Z 40
_cell_length_a 8.314523
_cell_length_b 10.547621
_cell_length_c 18.148001
_cell_angle_alpha 90.000000
_cell_angle_beta 90.000000
_cell_angle_gamma 90.000000
_cell_volume 1591.551330
_symmetry_space_group_name_H-M "P B C N"
_symmetry_group_IT_number 60
_symmetry_cell_setting 'orthorhombic'
loop_
_space_group_symop_operation_xyz
x,y,z
1/2-x,1/2-y,1/2+z
1/2+x,1/2-y,-z
-x,y,1/2-z
-x,-y,-z
1/2+x,1/2+y,1/2-z
1/2-x,1/2+y,z
x,-y,1/2+z
loop_
_atom_site_type_symbol
_atom_site_label
_atom_site_fract_x
_atom_site_fract_y
_atom_site_fract_z
Si Si1 0.071443 0.522988 0.668138
Si Si2 0.559589 0.505834 0.833269
Si Si3 0.649689 0.645424 0.073140
Si Si4 0.551829 0.769281 0.664792
Si Si5 0.137520 0.417198 0.461876
O O1 0.257877 0.554892 0.668803
O O2 0.000000 0.523676 0.750000
O O3 0.068597 0.377938 0.638259
O O4 0.943270 0.597325 0.619560
O O5 0.500000 0.474577 0.750000
O O6 0.517495 0.390986 0.887780
O O7 0.460427 0.627204 0.862574
O O8 0.777106 0.674129 0.140004
O O9 0.716437 0.517189 0.034962
O O10 0.659414 0.768543 0.020550
O O11 0.500000 0.756608 0.750000
O O12 0.000000 0.500000 0.500000
#
# Coordination Sequence:
#
# PCOD9457362 Si02
#       5
#     8   8   8   8   8
#     4  10  23  41  66 102 138 175 225 285 336 407
#     4  11  21  36  67 101 138 184 221 277 345 398
#     4  11  23  45  67  97 134 185 228 279 337 412
#     4   9  19  36  60  96 139 169 223 271 328 395
#     4  11  26  48  70  96 138 176 229 284 343 404
#
# _framework density 25.132712000000001
#
# number of rings (size 3 to 8) (size 9 to 14) (size 15 to 20)
#    0.000    1.600    2.000    3.600    5.600    2.400 
#    3.600    2.000    0.000    0.000    0.000    0.000 
#    0.000    0.000    0.000    0.000    0.000    0.000 
#
# Total GULP energy -223140.066910 kJ/mol
# GULP energy per Si atom -5578.501673 kJ/mol
# Density = 2.507551 g / cm^3
# Si number density = 25.132712 Si / 1000 Ang^3
#
#
#
# Elastic Constant Matrix: (Units=GPa)
#
#
# Indices 1 2 3 4 5 6 
#
# 1 79.8670 -4.6967 -5.3538 0.0000 0.0000 0.0000
# 2 -4.6967 114.0595 -1.9275 0.0000 0.0000 0.0000
# 3 -5.3538 -1.9275 39.8450 0.0000 0.0000 0.0000
# 4 0.0000 0.0000 0.0000 25.7523 0.0000 0.0000
# 5 0.0000 0.0000 0.0000 0.0000 35.1976 0.0000
# 6 0.0000 0.0000 0.0000 0.0000 0.0000 30.6241
#
#
#
# Elastic Compliance Matrix: (Units=1/GPa)
#
#
# Indices 1 2 3 4 5 6 
#
# 1 0.012669 0.000551 0.001729 0.000000 0.000000 0.000000
# 2 0.000551 0.008798 0.000500 0.000000 0.000000 0.000000
# 3 0.001729 0.000500 0.025354 0.000000 0.000000 0.000000
# 4 0.000000 0.000000 0.000000 0.038831 0.000000 0.000000
# 5 0.000000 0.000000 0.000000 0.000000 0.028411 0.000000
# 6 0.000000 0.000000 0.000000 0.000000 0.000000 0.032654
#
#
# Mechanical properties :
#
#
# Convention : Reuss Voigt Hill
#
# Bulk Modulus (GPa) = 19.09114 23.31283 21.20198
# Shear Modulus (GPa) = 31.52209 34.69811 33.11010
#
# Velocity S-wave (km/s) = 3.54535 3.71967 3.63355
# Velocity P-wave (km/s) = 4.93679 5.26725 5.10470
#
# Compressibility (1/GPa) = 0.05238033
#
# Stress axis : x y z
#
# Youngs Moduli (GPa) = 78.93216 113.65593 39.44191
#
# Poissons Ratio (x) = -0.06261 -0.06819
# Poissons Ratio (y) = -0.04348 -0.01971
# Poissons Ratio (z) = -0.13647 -0.05679
#
# Static dielectric constant tensor:
#      x y z
#    x 1.925090 0.000000 0.000000 
#    y 0.000000 2.071260 0.000000 
#    z 0.000000 0.000000 2.255180 
# 
# From -- ./inp_files/18994.got.cif
#   From: 2010.05.17/outbox.cif.g08.bks.cpg/sg60_10_cif.got.tgz:18994.got - 2010.06.03 14:59:27.
