data_PCOD9457466
_publ_section_title
;
Structure prediction by ZEFSAII (Michael W. Deem and Ramdas Pophale) SiO2 
 PCOD9457466
Probable space group: P B C N
;
_chemical_formula_sum "Si O2"
_cell_formula_units_Z 52
_cell_length_a 8.537535
_cell_length_b 11.327820
_cell_length_c 23.788671
_cell_angle_alpha 90.000000
_cell_angle_beta 90.000000
_cell_angle_gamma 90.000000
_cell_volume 2300.641855
_symmetry_space_group_name_H-M "P B C N"
_symmetry_group_IT_number 60
_symmetry_cell_setting 'orthorhombic'
loop_
_space_group_symop_operation_xyz
x,y,z
1/2-x,1/2-y,1/2+z
1/2+x,1/2-y,-z
-x,y,1/2-z
-x,-y,-z
1/2+x,1/2+y,1/2-z
1/2-x,1/2+y,z
x,-y,1/2+z
loop_
_atom_site_type_symbol
_atom_site_label
_atom_site_fract_x
_atom_site_fract_y
_atom_site_fract_z
Si Si1 0.440970 0.167498 0.448775
Si Si2 0.432754 0.434966 0.055810
Si Si3 0.500000 0.230982 0.250000
Si Si4 0.399339 0.583923 0.837963
Si Si5 0.654144 0.243150 0.609591
Si Si6 0.329098 0.372220 0.773358
Si Si7 0.566151 0.928424 0.430325
O O1 0.520521 0.295613 0.442380
O O2 0.254583 0.192193 0.439526
O O3 0.493996 0.119127 0.509239
O O4 0.492778 0.054191 0.411639
O O5 0.495212 0.483223 0.116091
O O6 0.248008 0.447196 0.059770
O O7 0.500000 0.500000 0.000000
O O8 0.514634 0.307755 0.192722
O O9 0.334353 0.162524 0.245022
O O10 0.256906 0.627471 0.876174
O O11 0.337733 0.510969 0.784980
O O12 0.675834 0.319916 0.664372
O O13 0.482135 0.187849 0.604722
O O14 0.500000 0.335884 0.750000
#
# Coordination Sequence:
#
# PCOD9457466 Si02
#       7
#     8   8   4   8   8   8   8
#     4  10  24  42  63  96 144 179 234 290 343 421
#     4  11  27  42  68 101 147 189 239 297 350 435
#     4  10  24  50  68 104 140 182 232 304 366 426
#     4  10  23  47  66 100 143 178 233 299 354 425
#     4  10  23  43  68  97 141 178 233 288 358 420
#     4  11  24  45  77  99 137 180 235 299 365 434
#     4  11  24  40  69 101 133 194 235 280 362 426
#
# _framework density 22.60239
#
# number of rings (size 3 to 8) (size 9 to 14) (size 15 to 20)
#    0.000    1.538    0.769    1.846   17.231    0.000 
#   13.846    0.000    0.000    0.000    0.000    0.000 
#    0.000    0.000    0.000    0.000    0.000    0.000 
#
# Total GULP energy -289541.692938 kJ/mol
# GULP energy per Si atom -5568.109480 kJ/mol
# Density = 2.255095 g / cm^3
# Si number density = 22.602390 Si / 1000 Ang^3
#
#
#
# Elastic Constant Matrix: (Units=GPa)
#
#
# Indices 1 2 3 4 5 6 
#
# 1 138.0123 56.1987 19.7843 0.0000 0.0000 0.0000
# 2 56.1987 100.1606 16.0493 0.0000 0.0000 0.0000
# 3 19.7843 16.0493 45.3266 0.0000 0.0000 0.0000
# 4 0.0000 0.0000 0.0000 29.6879 0.0000 0.0000
# 5 0.0000 0.0000 0.0000 0.0000 34.5550 0.0000
# 6 0.0000 0.0000 0.0000 0.0000 0.0000 36.4996
#
#
#
# Elastic Compliance Matrix: (Units=1/GPa)
#
#
# Indices 1 2 3 4 5 6 
#
# 1 0.009637 -0.005018 -0.002430 0.000000 0.000000 0.000000
# 2 -0.005018 0.013197 -0.002483 0.000000 0.000000 0.000000
# 3 -0.002430 -0.002483 0.024002 0.000000 0.000000 0.000000
# 4 0.000000 0.000000 0.000000 0.033684 0.000000 0.000000
# 5 0.000000 0.000000 0.000000 0.000000 0.028939 0.000000
# 6 0.000000 0.000000 0.000000 0.000000 0.000000 0.027398
#
#
# Mechanical properties :
#
#
# Convention : Reuss Voigt Hill
#
# Bulk Modulus (GPa) = 37.07065 51.95157 44.51111
# Shear Modulus (GPa) = 30.17319 32.91296 31.54308
#
# Velocity S-wave (km/s) = 3.65767 3.82012 3.73978
# Velocity P-wave (km/s) = 5.85447 6.51864 6.19546
#
# Compressibility (1/GPa) = 0.02697552
#
# Stress axis : x y z
#
# Youngs Moduli (GPa) = 103.76227 75.77275 41.66373
#
# Poissons Ratio (x) = 0.38023 0.10123
# Poissons Ratio (y) = 0.52069 0.10344
# Poissons Ratio (z) = 0.25212 0.18812
#
# Static dielectric constant tensor:
#      x y z
#    x 1.971900 0.000000 0.000000 
#    y 0.000000 2.026250 0.000000 
#    z 0.000000 0.000000 1.916060 
# 
# From -- ./inp_files/25184.got.cif
#   From: 2010.05.17/outbox.cif.g08.bks.cpg/sg60_13_cif.got.tgz:25184.got - 2010.06.03 14:59:27.
