data_PCOD9457580
_publ_section_title
;
Structure prediction by ZEFSAII (Michael W. Deem and Ramdas Pophale) SiO2 
 PCOD9457580
Probable space group: P B C N
;
_chemical_formula_sum "Si O2"
_cell_formula_units_Z 40
_cell_length_a 13.327503
_cell_length_b 13.871677
_cell_length_c 9.258706
_cell_angle_alpha 90.000000
_cell_angle_beta 90.000000
_cell_angle_gamma 90.000000
_cell_volume 1711.701576
_symmetry_space_group_name_H-M "P B C N"
_symmetry_group_IT_number 60
_symmetry_cell_setting 'orthorhombic'
loop_
_space_group_symop_operation_xyz
x,y,z
1/2-x,1/2-y,1/2+z
1/2+x,1/2-y,-z
-x,y,1/2-z
-x,-y,-z
1/2+x,1/2+y,1/2-z
1/2-x,1/2+y,z
x,-y,1/2+z
loop_
_atom_site_type_symbol
_atom_site_label
_atom_site_fract_x
_atom_site_fract_y
_atom_site_fract_z
Si Si1 0.796903 0.773483 0.126355
Si Si2 0.286448 0.376516 0.665946
Si Si3 0.523151 0.186010 0.010154
Si Si4 0.000000 0.456719 0.750000
Si Si5 0.319340 0.071901 0.688182
Si Si6 0.500000 0.687697 0.250000
O O1 0.760841 0.671963 0.191682
O O2 0.753065 0.854420 0.231473
O O3 0.761878 0.806504 0.967918
O O4 0.916751 0.762399 0.109364
O O5 0.246437 0.482481 0.634236
O O6 0.405705 0.371905 0.693842
O O7 0.612118 0.127587 0.927829
O O8 0.466777 0.242572 0.882935
O O9 0.470199 0.110907 0.115648
O O10 0.094612 0.522906 0.788462
#
# Coordination Sequence:
#
# PCOD9457580 Si02
#       6
#     8   8   8   4   8   4
#     4  11  23  45  66 101 137 184 228 280 354 410
#     4  11  25  42  71  98 139 185 229 286 347 418
#     4  11  24  45  67 106 137 188 225 290 353 407
#     4  12  25  40  71 110 132 176 237 288 345 422
#     4  12  24  43  71 102 141 177 238 286 347 415
#     4  10  23  46  69  94 146 182 229 282 357 400
#
# _framework density 23.368559999999999
#
# number of rings (size 3 to 8) (size 9 to 14) (size 15 to 20)
#    0.000    0.800    6.000    2.400    2.800    0.000 
#    0.000    5.000    0.000    0.000    0.000    0.000 
#    0.000    0.000    0.000    0.000    0.000    0.000 
#
# Total GULP energy -223696.923202 kJ/mol
# GULP energy per Si atom -5592.423080 kJ/mol
# Density = 2.331537 g / cm^3
# Si number density = 23.368560 Si / 1000 Ang^3
#
#
#
# Elastic Constant Matrix: (Units=GPa)
#
#
# Indices 1 2 3 4 5 6 
#
# 1 45.5650 37.3105 27.9614 0.0000 0.0000 0.0000
# 2 37.3105 94.1246 18.7530 0.0000 0.0000 0.0000
# 3 27.9614 18.7530 78.8648 0.0000 0.0000 0.0000
# 4 0.0000 0.0000 0.0000 28.4879 0.0000 0.0000
# 5 0.0000 0.0000 0.0000 0.0000 43.1859 0.0000
# 6 0.0000 0.0000 0.0000 0.0000 0.0000 29.9263
#
#
#
# Elastic Compliance Matrix: (Units=1/GPa)
#
#
# Indices 1 2 3 4 5 6 
#
# 1 0.039736 -0.013588 -0.010857 0.000000 0.000000 0.000000
# 2 -0.013588 0.015799 0.001061 0.000000 0.000000 0.000000
# 3 -0.010857 0.001061 0.016277 0.000000 0.000000 0.000000
# 4 0.000000 0.000000 0.000000 0.035103 0.000000 0.000000
# 5 0.000000 0.000000 0.000000 0.000000 0.023156 0.000000
# 6 0.000000 0.000000 0.000000 0.000000 0.000000 0.033415
#
#
# Mechanical properties :
#
#
# Convention : Reuss Voigt Hill
#
# Bulk Modulus (GPa) = 39.93107 42.95601 41.44354
# Shear Modulus (GPa) = 22.87264 29.28865 26.08064
#
# Velocity S-wave (km/s) = 3.13194 3.54409 3.34437
# Velocity P-wave (km/s) = 5.49575 5.93037 5.71719
#
# Compressibility (1/GPa) = 0.02504316
#
# Stress axis : x y z
#
# Youngs Moduli (GPa) = 25.16633 63.29508 61.43595
#
# Poissons Ratio (x) = 0.86004 0.66702
# Poissons Ratio (y) = 0.34196 -0.06517
# Poissons Ratio (z) = 0.27324 -0.06714
#
# Static dielectric constant tensor:
#      x y z
#    x 1.908320 0.000000 0.000000 
#    y 0.000000 1.883400 0.000000 
#    z 0.000000 0.000000 1.933400 
# 
# From -- ./inp_files/5700.got.cif
#   From: 2010.05.17/outbox.cif.g08.bks.cpg/sg60_3_cif.got.tgz:5700.got - 2010.06.03 14:59:27.
