data_PCOD9457195
_publ_section_title
;
Structure prediction by ZEFSAII (Michael W. Deem and Ramdas Pophale) SiO2 
 PCOD9457195
Probable space group: P B C N
;
_chemical_formula_sum "Si O2"
_cell_formula_units_Z 40
_cell_length_a 13.273330
_cell_length_b 9.357635
_cell_length_c 13.412802
_cell_angle_alpha 90.000000
_cell_angle_beta 90.000000
_cell_angle_gamma 90.000000
_cell_volume 1665.963595
_symmetry_space_group_name_H-M "P B C N"
_symmetry_group_IT_number 60
_symmetry_cell_setting 'orthorhombic'
loop_
_space_group_symop_operation_xyz
x,y,z
1/2-x,1/2-y,1/2+z
1/2+x,1/2-y,-z
-x,y,1/2-z
-x,-y,-z
1/2+x,1/2+y,1/2-z
1/2-x,1/2+y,z
x,-y,1/2+z
loop_
_atom_site_type_symbol
_atom_site_label
_atom_site_fract_x
_atom_site_fract_y
_atom_site_fract_z
Si Si1 0.500000 0.610925 0.750000
Si Si2 0.000000 0.623577 0.750000
Si Si3 0.709478 0.744095 0.699942
Si Si4 0.826898 0.084055 0.504998
Si Si5 0.476281 0.634992 0.402661
Si Si6 0.303402 0.993043 0.181924
O O1 0.593090 0.707058 0.721081
O O2 0.479634 0.499122 0.661175
O O3 0.049398 0.734129 0.829786
O O4 0.922912 0.526009 0.811423
O O5 0.725709 0.674848 0.592319
O O6 0.764296 0.662288 0.789604
O O7 0.728626 0.908347 0.723903
O O8 0.926503 0.172758 0.469338
O O9 0.747938 0.049671 0.417794
O O10 0.880507 0.936653 0.543471
#
# Coordination Sequence:
#
# PCOD9457195 Si02
#       6
#     4   4   8   8   8   8
#     4   9  17  40  68  98 140 174 240 294 364 418
#     4  11  25  46  72 106 158 188 246 306 380 430
#     4  11  25  42  71 105 143 194 244 301 363 440
#     4  10  22  44  75 105 142 190 252 296 376 440
#     4   9  19  42  74 106 133 192 239 305 358 452
#     4  12  26  46  70 106 152 195 242 310 368 440
#
# _framework density 24.010128999999999
#
# number of rings (size 3 to 8) (size 9 to 14) (size 15 to 20)
#    0.000    1.600    2.000    1.800    5.600    3.200 
#    0.000    2.000    0.000    0.000    0.000    0.000 
#    0.000    0.000    0.000    0.000    0.000    0.000 
#
# Total GULP energy -223507.021801 kJ/mol
# GULP energy per Si atom -5587.675545 kJ/mol
# Density = 2.395548 g / cm^3
# Si number density = 24.010129 Si / 1000 Ang^3
#
#
#
# Elastic Constant Matrix: (Units=GPa)
#
#
# Indices 1 2 3 4 5 6 
#
# 1 93.2945 17.0012 58.0873 0.0000 0.0000 0.0000
# 2 17.0012 83.5333 36.9659 0.0000 0.0000 0.0000
# 3 58.0873 36.9659 134.5502 0.0000 0.0000 0.0000
# 4 0.0000 0.0000 0.0000 19.3537 0.0000 0.0000
# 5 0.0000 0.0000 0.0000 0.0000 46.1045 0.0000
# 6 0.0000 0.0000 0.0000 0.0000 0.0000 26.9763
#
#
#
# Elastic Compliance Matrix: (Units=1/GPa)
#
#
# Indices 1 2 3 4 5 6 
#
# 1 0.014662 -0.000208 -0.006273 0.000000 0.000000 0.000000
# 2 -0.000208 0.013631 -0.003655 0.000000 0.000000 0.000000
# 3 -0.006273 -0.003655 0.011144 0.000000 0.000000 0.000000
# 4 0.000000 0.000000 0.000000 0.051670 0.000000 0.000000
# 5 0.000000 0.000000 0.000000 0.000000 0.021690 0.000000
# 6 0.000000 0.000000 0.000000 0.000000 0.000000 0.037070
#
#
# Mechanical properties :
#
#
# Convention : Reuss Voigt Hill
#
# Bulk Modulus (GPa) = 52.17668 59.49852 55.83760
# Shear Modulus (GPa) = 28.32420 31.77513 30.04967
#
# Velocity S-wave (km/s) = 3.43837 3.64181 3.54155
# Velocity P-wave (km/s) = 6.12711 6.52059 6.32691
#
# Compressibility (1/GPa) = 0.01916565
#
# Stress axis : x y z
#
# Youngs Moduli (GPa) = 68.20259 73.36153 89.73167
#
# Poissons Ratio (x) = 0.01528 0.56286
# Poissons Ratio (y) = 0.01421 0.32797
# Poissons Ratio (z) = 0.42781 0.26814
#
# Static dielectric constant tensor:
#      x y z
#    x 2.014490 0.000000 0.000000 
#    y 0.000000 1.859400 0.000000 
#    z 0.000000 0.000000 1.962590 
# 
# From -- ./inp_files/16638.got.cif
#   From: 2010.05.17/outbox.cif.g08.bks.cpg/sg60_9_cif.got.tgz:16638.got - 2010.06.03 14:59:27.
