data_PCOD9457464
_publ_section_title
;
Structure prediction by ZEFSAII (Michael W. Deem and Ramdas Pophale) SiO2 
 PCOD9457464
Probable space group: P B C N
;
_chemical_formula_sum "Si O2"
_cell_formula_units_Z 64
_cell_length_a 9.150804
_cell_length_b 13.561079
_cell_length_c 19.285385
_cell_angle_alpha 90.000000
_cell_angle_beta 90.000000
_cell_angle_gamma 90.000000
_cell_volume 2393.215531
_symmetry_space_group_name_H-M "P B C N"
_symmetry_group_IT_number 60
_symmetry_cell_setting 'orthorhombic'
loop_
_space_group_symop_operation_xyz
x,y,z
1/2-x,1/2-y,1/2+z
1/2+x,1/2-y,-z
-x,y,1/2-z
-x,-y,-z
1/2+x,1/2+y,1/2-z
1/2-x,1/2+y,z
x,-y,1/2+z
loop_
_atom_site_type_symbol
_atom_site_label
_atom_site_fract_x
_atom_site_fract_y
_atom_site_fract_z
Si Si1 0.854445 0.932998 0.210479
Si Si2 0.374774 0.961785 0.931572
Si Si3 0.711470 0.681509 0.385918
Si Si4 0.447894 0.782038 0.506605
Si Si5 0.095179 0.524509 0.190358
Si Si6 0.101618 0.926601 0.454320
Si Si7 0.390564 0.331104 0.876813
Si Si8 0.156067 0.285267 0.248804
O O1 0.720917 0.970969 0.261404
O O2 0.889695 0.946006 0.129075
O O3 0.000000 0.957494 0.250000
O O4 0.801126 0.820781 0.213487
O O5 0.465267 0.883663 0.978404
O O6 0.477295 0.008949 0.870545
O O7 0.269541 0.039510 0.971980
O O8 0.252896 0.889572 0.897410
O O9 0.797171 0.723381 0.450848
O O10 0.816556 0.603582 0.352181
O O11 0.554321 0.630091 0.391195
O O12 0.688557 0.767990 0.330732
O O13 0.540195 0.684522 0.532650
O O14 0.404998 0.764795 0.426371
O O15 0.000000 0.574246 0.250000
O O16 0.000000 0.000000 0.500000
O O17 0.381817 0.309403 0.795691
O O18 0.000000 0.343276 0.250000
#
# Coordination Sequence:
#
# PCOD9457464 Si02
#       8
#     8   8   8   8   8   8   8   8
#     4  12  27  45  74 107 153 199 257 337 394 474
#     4  11  24  45  73 110 154 209 259 330 395 478
#     4  10  24  42  72 107 140 194 260 314 388 483
#     4  11  24  46  76 111 158 207 261 326 402 482
#     4  11  23  42  71 101 146 195 253 314 398 462
#     4  12  26  45  76 114 154 202 270 322 407 484
#     4  11  22  42  74 106 150 199 255 317 399 472
#     4  10  23  43  68 105 144 193 252 318 390 465
#
# _framework density 26.742263000000001
#
# number of rings (size 3 to 8) (size 9 to 14) (size 15 to 20)
#    0.000    1.000    2.500    3.375    1.750    3.000 
#    0.000    0.000    2.750    3.750    0.000    0.000 
#    0.000    0.000    0.000    0.000    0.000    0.000 
#
# Total GULP energy -357027.960989 kJ/mol
# GULP energy per Si atom -5578.561890 kJ/mol
# Density = 2.668140 g / cm^3
# Si number density = 26.742263 Si / 1000 Ang^3
#
#
#
# Elastic Constant Matrix: (Units=GPa)
#
#
# Indices 1 2 3 4 5 6 
#
# 1 199.3634 53.1677 71.0211 0.0000 0.0000 0.0000
# 2 53.1677 74.8797 41.8626 0.0000 0.0000 0.0000
# 3 71.0211 41.8626 153.2092 0.0000 0.0000 0.0000
# 4 0.0000 0.0000 0.0000 111.0429 0.0000 0.0000
# 5 0.0000 0.0000 0.0000 0.0000 61.6414 0.0000
# 6 0.0000 0.0000 0.0000 0.0000 0.0000 41.3953
#
#
#
# Elastic Compliance Matrix: (Units=1/GPa)
#
#
# Indices 1 2 3 4 5 6 
#
# 1 0.006735 -0.003584 -0.002143 0.000000 0.000000 0.000000
# 2 -0.003584 0.017670 -0.003167 0.000000 0.000000 0.000000
# 3 -0.002143 -0.003167 0.008386 0.000000 0.000000 0.000000
# 4 0.000000 0.000000 0.000000 0.009006 0.000000 0.000000
# 5 0.000000 0.000000 0.000000 0.000000 0.016223 0.000000
# 6 0.000000 0.000000 0.000000 0.000000 0.000000 0.024157
#
#
# Mechanical properties :
#
#
# Convention : Reuss Voigt Hill
#
# Bulk Modulus (GPa) = 66.65131 84.39501 75.52316
# Shear Modulus (GPa) = 47.63486 60.24266 53.93876
#
# Velocity S-wave (km/s) = 4.22507 4.75143 4.49596
# Velocity P-wave (km/s) = 6.98422 7.85675 7.43330
#
# Compressibility (1/GPa) = 0.01500346
#
# Stress axis : x y z
#
# Youngs Moduli (GPa) = 148.47373 56.59275 119.25266
#
# Poissons Ratio (x) = 0.20285 0.25553
# Poissons Ratio (y) = 0.53218 0.37763
# Poissons Ratio (z) = 0.31815 0.17921
#
# Static dielectric constant tensor:
#      x y z
#    x 2.028550 0.000000 0.000000 
#    y 0.000000 2.342880 0.000000 
#    z 0.000000 0.000000 1.863470 
# 
# From -- ./inp_files/24096.got.cif
#   From: 2010.05.17/outbox.cif.g08.bks.cpg/sg60_13_cif.got.tgz:24096.got - 2010.06.03 14:59:27.
