data_PCOD9457864
_publ_section_title
;
Structure prediction by ZEFSAII (Michael W. Deem and Ramdas Pophale) SiO2 
 PCOD9457864
Probable space group: P B C N
;
_chemical_formula_sum "Si O2"
_cell_formula_units_Z 32
_cell_length_a 13.214949
_cell_length_b 11.192018
_cell_length_c 7.247727
_cell_angle_alpha 90.000000
_cell_angle_beta 90.000000
_cell_angle_gamma 90.000000
_cell_volume 1071.952935
_symmetry_space_group_name_H-M "P B C N"
_symmetry_group_IT_number 60
_symmetry_cell_setting 'orthorhombic'
loop_
_space_group_symop_operation_xyz
x,y,z
1/2-x,1/2-y,1/2+z
1/2+x,1/2-y,-z
-x,y,1/2-z
-x,-y,-z
1/2+x,1/2+y,1/2-z
1/2-x,1/2+y,z
x,-y,1/2+z
loop_
_atom_site_type_symbol
_atom_site_label
_atom_site_fract_x
_atom_site_fract_y
_atom_site_fract_z
Si Si1 0.659406 0.868586 0.720249
Si Si2 0.840594 0.631414 0.779752
Si Si3 0.568182 0.683035 0.000000
Si Si4 0.659219 0.583929 0.500001
O O1 0.766390 0.881383 0.830723
O O2 0.597623 0.769795 0.831597
O O3 0.668282 0.849411 0.500001
O O4 0.613394 0.000000 0.750000
O O5 0.902377 0.730205 0.668403
O O6 0.733610 0.618618 0.669278
O O7 0.451578 0.642429 1.000000
O O8 0.628435 0.556667 0.000001
#
# Coordination Sequence:
#
# PCOD9457864 Si02
#       4
#     8   8   8   8
#     4  11  23  48  84 134 198 261 322 392 490 576
#     4  11  23  48  84 134 198 261 322 392 490 576
#     4  10  24  48  82 138 202 256 326 409 476 575
#     4  10  24  48  84 140 198 251 330 400 482 576
#
# _framework density 29.852058
#
# number of rings (size 3 to 8) (size 9 to 14) (size 15 to 20)
#    0.000    1.500    5.000    0.000    0.000    6.000 
#    0.000   10.000    0.000   24.000    0.000   56.000 
#    0.000   16.000    0.000    0.000    0.000    0.000 
#
# Total GULP energy -179725.360605 kJ/mol
# GULP energy per Si atom -5616.417519 kJ/mol
# Density = 2.978411 g / cm^3
# Si number density = 29.852058 Si / 1000 Ang^3
#
#
#
# Elastic Constant Matrix: (Units=GPa)
#
#
# Indices 1 2 3 4 5 6 
#
# 1 305.2409 166.8559 150.9252 0.0000 0.0000 0.0000
# 2 166.8559 319.2614 164.1860 0.0000 0.0000 0.0000
# 3 150.9252 164.1860 384.7873 0.0000 0.0000 0.0000
# 4 0.0000 0.0000 0.0000 60.9150 0.0000 0.0000
# 5 0.0000 0.0000 0.0000 0.0000 46.9954 0.0000
# 6 0.0000 0.0000 0.0000 0.0000 0.0000 77.3455
#
#
#
# Elastic Compliance Matrix: (Units=1/GPa)
#
#
# Indices 1 2 3 4 5 6 
#
# 1 0.004904 -0.002016 -0.001063 0.000000 0.000000 0.000000
# 2 -0.002016 0.004842 -0.001275 0.000000 0.000000 0.000000
# 3 -0.001063 -0.001275 0.003560 0.000000 0.000000 0.000000
# 4 0.000000 0.000000 0.000000 0.016416 0.000000 0.000000
# 5 0.000000 0.000000 0.000000 0.000000 0.021279 0.000000
# 6 0.000000 0.000000 0.000000 0.000000 0.000000 0.012929
#
#
# Mechanical properties :
#
#
# Convention : Reuss Voigt Hill
#
# Bulk Modulus (GPa) = 217.55179 219.24709 218.39944
# Shear Modulus (GPa) = 67.41213 72.20602 69.80907
#
# Velocity S-wave (km/s) = 4.75722 4.92346 4.84105
# Velocity P-wave (km/s) = 10.15922 10.29197 10.22581
#
# Compressibility (1/GPa) = 0.00459661
#
# Stress axis : x y z
#
# Youngs Moduli (GPa) = 203.91951 206.53926 280.90471
#
# Poissons Ratio (x) = 0.41642 0.29865
# Poissons Ratio (y) = 0.41114 0.35819
# Poissons Ratio (z) = 0.21680 0.26336
#
# Static dielectric constant tensor:
#      x y z
#    x 2.320440 0.000000 0.000000 
#    y 0.000000 2.486720 0.000000 
#    z 0.000000 0.000000 2.404530 
# 
# From -- ./inp_files/16509.got.cif
#   From: 2010.05.17/outbox.cif.g08.bks.cpg/sg60_9_cif.got.tgz:16509.got - 2010.06.03 14:59:27.
