data_PCOD9457916
_publ_section_title
;
Structure prediction by ZEFSAII (Michael W. Deem and Ramdas Pophale) SiO2 
 PCOD9457916
Probable space group: P B C N
;
_chemical_formula_sum "Si O2"
_cell_formula_units_Z 20
_cell_length_a 5.154403
_cell_length_b 15.157927
_cell_length_c 11.076368
_cell_angle_alpha 90.000000
_cell_angle_beta 90.000000
_cell_angle_gamma 90.000000
_cell_volume 865.397345
_symmetry_space_group_name_H-M "P B C N"
_symmetry_group_IT_number 60
_symmetry_cell_setting 'orthorhombic'
loop_
_space_group_symop_operation_xyz
x,y,z
1/2-x,1/2-y,1/2+z
1/2+x,1/2-y,-z
-x,y,1/2-z
-x,-y,-z
1/2+x,1/2+y,1/2-z
1/2-x,1/2+y,z
x,-y,1/2+z
loop_
_atom_site_type_symbol
_atom_site_label
_atom_site_fract_x
_atom_site_fract_y
_atom_site_fract_z
Si Si1 0.749670 0.943705 0.034645
Si Si2 0.761356 0.693270 0.327820
Si Si3 0.500000 0.636482 0.750000
O O1 0.796752 0.918967 0.173428
O O2 0.751159 0.855159 0.954436
O O3 0.500000 0.000000 0.000000
O O4 0.000000 0.000000 0.000000
O O5 0.500000 0.684745 0.250000
O O6 0.840694 0.796287 0.336307
O O7 0.000000 0.653555 0.250000
#
# Coordination Sequence:
#
# PCOD9457916 Si02
#       3
#     8   8   4
#     4  12  29  46  76 111 154 192 254 323 389 452
#     4  10  25  46  76 104 150 195 259 300 387 465
#     4  10  30  44  82 102 154 204 256 306 396 460
#
# _framework density 23.110772999999998
#
# number of rings (size 3 to 8) (size 9 to 14) (size 15 to 20)
#    1.200    0.000    0.000    2.400   19.600    0.000 
#    0.000    0.000    0.000    0.000    0.000    0.000 
#    0.000    0.000    0.000    0.000    0.000    0.000 
#
# Total GULP energy -111902.971337 kJ/mol
# GULP energy per Si atom -5595.148567 kJ/mol
# Density = 2.305817 g / cm^3
# Si number density = 23.110773 Si / 1000 Ang^3
#
#
#
# Elastic Constant Matrix: (Units=GPa)
#
#
# Indices 1 2 3 4 5 6 
#
# 1 200.7448 53.4835 54.6533 0.0000 0.0000 0.0000
# 2 53.4835 108.4941 56.0037 0.0000 0.0000 0.0000
# 3 54.6533 56.0037 109.6733 0.0000 0.0000 0.0000
# 4 0.0000 0.0000 0.0000 41.7372 0.0000 0.0000
# 5 0.0000 0.0000 0.0000 0.0000 39.5035 0.0000
# 6 0.0000 0.0000 0.0000 0.0000 0.0000 17.4397
#
#
#
# Elastic Compliance Matrix: (Units=1/GPa)
#
#
# Indices 1 2 3 4 5 6 
#
# 1 0.006049 -0.001936 -0.002026 0.000000 0.000000 0.000000
# 2 -0.001936 0.013136 -0.005743 0.000000 0.000000 0.000000
# 3 -0.002026 -0.005743 0.013060 0.000000 0.000000 0.000000
# 4 0.000000 0.000000 0.000000 0.023959 0.000000 0.000000
# 5 0.000000 0.000000 0.000000 0.000000 0.025314 0.000000
# 6 0.000000 0.000000 0.000000 0.000000 0.000000 0.057341
#
#
# Mechanical properties :
#
#
# Convention : Reuss Voigt Hill
#
# Bulk Modulus (GPa) = 77.90992 83.02146 80.46569
# Shear Modulus (GPa) = 30.76038 36.72087 33.74062
#
# Velocity S-wave (km/s) = 3.65224 3.99043 3.82508
# Velocity P-wave (km/s) = 7.18122 7.56523 7.37572
#
# Compressibility (1/GPa) = 0.01283534
#
# Stress axis : x y z
#
# Youngs Moduli (GPa) = 165.32277 76.12648 76.56999
#
# Poissons Ratio (x) = 0.14740 0.15510
# Poissons Ratio (y) = 0.32011 0.43974
# Poissons Ratio (z) = 0.33487 0.43719
#
# Static dielectric constant tensor:
#      x y z
#    x 1.827020 0.000000 0.000000 
#    y 0.000000 1.867030 0.000000 
#    z 0.000000 0.000000 1.856720 
# 
# From -- ./inp_files/2835.got.cif
#   From: 2010.05.17/outbox.cif.g08.bks.cpg/sg60_2_cif.got.tgz:2835.got - 2010.06.03 14:59:27.
