data_PCOD9457599
_publ_section_title
;
Structure prediction by ZEFSAII (Michael W. Deem and Ramdas Pophale) SiO2 
 PCOD9457599
Probable space group: P B C N
;
_chemical_formula_sum "Si O2"
_cell_formula_units_Z 60
_cell_length_a 9.097077
_cell_length_b 13.172724
_cell_length_c 23.683701
_cell_angle_alpha 90.000000
_cell_angle_beta 90.000000
_cell_angle_gamma 90.000000
_cell_volume 2838.095681
_symmetry_space_group_name_H-M "P B C N"
_symmetry_group_IT_number 60
_symmetry_cell_setting 'orthorhombic'
loop_
_space_group_symop_operation_xyz
x,y,z
1/2-x,1/2-y,1/2+z
1/2+x,1/2-y,-z
-x,y,1/2-z
-x,-y,-z
1/2+x,1/2+y,1/2-z
1/2-x,1/2+y,z
x,-y,1/2+z
loop_
_atom_site_type_symbol
_atom_site_label
_atom_site_fract_x
_atom_site_fract_y
_atom_site_fract_z
Si Si1 0.056401 0.235210 0.643553
Si Si2 0.773014 0.487426 0.213680
Si Si3 0.000000 0.350783 0.750000
Si Si4 0.794326 0.022878 0.844855
Si Si5 0.068180 0.091876 0.378237
Si Si6 0.282375 0.016188 0.957363
Si Si7 0.905795 0.429308 0.925297
Si Si8 0.209884 0.690685 0.865889
O O1 0.087579 0.282170 0.705523
O O2 0.133858 0.128102 0.636644
O O3 0.105052 0.315161 0.596709
O O4 0.880267 0.222288 0.641360
O O5 0.895043 0.574876 0.215100
O O6 0.717571 0.477246 0.277477
O O7 0.647920 0.528273 0.171774
O O8 0.827631 0.381492 0.187427
O O9 0.638525 0.003185 0.873959
O O10 0.898604 0.933197 0.868356
O O11 0.139620 0.044436 0.435171
O O12 0.111817 0.209192 0.372109
O O13 0.426111 0.949337 0.942652
O O14 0.296857 0.118665 0.920652
O O15 0.299660 0.043787 0.022648
#
# Coordination Sequence:
#
# PCOD9457599 Si02
#       8
#     8   8   4   8   8   8   8   8
#     4  12  22  43  67  96 129 180 214 270 336 394
#     4  11  23  41  65  97 132 175 218 264 330 400
#     4  12  22  42  72  92 138 180 214 264 342 398
#     4  12  26  41  66 103 135 164 224 276 324 396
#     4  11  23  43  67  97 134 168 218 273 329 389
#     4  10  23  47  70  91 129 177 220 268 334 399
#     4  11  25  46  67  97 134 171 218 280 333 388
#     4  11  22  43  71  94 126 181 225 263 332 402
#
# _framework density 21.140937000000001
#
# number of rings (size 3 to 8) (size 9 to 14) (size 15 to 20)
#    0.000    0.800    6.667    2.000    0.000    2.667 
#    4.800    0.000    0.000    0.000    0.000    0.000 
#    0.000    0.000    0.000    0.000    0.000    0.000 
#
# Total GULP energy -335591.956689 kJ/mol
# GULP energy per Si atom -5593.199278 kJ/mol
# Density = 2.109282 g / cm^3
# Si number density = 21.140937 Si / 1000 Ang^3
#
#
#
# Elastic Constant Matrix: (Units=GPa)
#
#
# Indices 1 2 3 4 5 6 
#
# 1 31.6130 5.9981 6.1229 0.0000 0.0000 0.0000
# 2 5.9981 132.1575 15.7969 0.0000 0.0000 0.0000
# 3 6.1229 15.7969 83.2530 0.0000 0.0000 0.0000
# 4 0.0000 0.0000 0.0000 18.8388 0.0000 0.0000
# 5 0.0000 0.0000 0.0000 0.0000 28.3518 0.0000
# 6 0.0000 0.0000 0.0000 0.0000 0.0000 21.9088
#
#
#
# Elastic Compliance Matrix: (Units=1/GPa)
#
#
# Indices 1 2 3 4 5 6 
#
# 1 0.032277 -0.001209 -0.002145 0.000000 0.000000 0.000000
# 2 -0.001209 0.007788 -0.001389 0.000000 0.000000 0.000000
# 3 -0.002145 -0.001389 0.012433 0.000000 0.000000 0.000000
# 4 0.000000 0.000000 0.000000 0.053082 0.000000 0.000000
# 5 0.000000 0.000000 0.000000 0.000000 0.035271 0.000000
# 6 0.000000 0.000000 0.000000 0.000000 0.000000 0.045644
#
#
# Mechanical properties :
#
#
# Convention : Reuss Voigt Hill
#
# Bulk Modulus (GPa) = 23.24837 33.65104 28.44970
# Shear Modulus (GPa) = 23.77375 28.42694 26.10035
#
# Velocity S-wave (km/s) = 3.35705 3.67091 3.51748
# Velocity P-wave (km/s) = 5.10363 5.82404 5.47570
#
# Compressibility (1/GPa) = 0.04301378
#
# Stress axis : x y z
#
# Youngs Moduli (GPa) = 30.98163 128.40957 80.43228
#
# Poissons Ratio (x) = 0.15520 0.17249
# Poissons Ratio (y) = 0.03744 0.11170
# Poissons Ratio (z) = 0.06644 0.17833
#
# Static dielectric constant tensor:
#      x y z
#    x 1.792490 0.000000 0.000000 
#    y 0.000000 1.740770 0.000000 
#    z 0.000000 0.000000 1.770640 
# 
# From -- ./inp_files/24032.got.cif
#   From: 2010.05.17/outbox.cif.g08.bks.cpg/sg60_13_cif.got.tgz:24032.got - 2010.06.03 14:59:27.
