data_PCOD9457177
_publ_section_title
;
Structure prediction by ZEFSAII (Michael W. Deem and Ramdas Pophale) SiO2 
 PCOD9457177
Probable space group: P B C N
;
_chemical_formula_sum "Si O2"
_cell_formula_units_Z 56
_cell_length_a 6.069775
_cell_length_b 30.326997
_cell_length_c 13.950474
_cell_angle_alpha 90.000000
_cell_angle_beta 90.000000
_cell_angle_gamma 90.000000
_cell_volume 2567.976026
_symmetry_space_group_name_H-M "P B C N"
_symmetry_group_IT_number 60
_symmetry_cell_setting 'orthorhombic'
loop_
_space_group_symop_operation_xyz
x,y,z
1/2-x,1/2-y,1/2+z
1/2+x,1/2-y,-z
-x,y,1/2-z
-x,-y,-z
1/2+x,1/2+y,1/2-z
1/2-x,1/2+y,z
x,-y,1/2+z
loop_
_atom_site_type_symbol
_atom_site_label
_atom_site_fract_x
_atom_site_fract_y
_atom_site_fract_z
Si Si1 0.175631 0.076136 0.663558
Si Si2 0.370597 0.903859 0.839881
Si Si3 0.527595 0.576942 0.448972
Si Si4 0.385359 0.827420 0.154915
Si Si5 0.874019 0.344824 0.964926
Si Si6 0.324522 0.750602 0.549628
Si Si7 0.378990 0.991023 0.599474
O O1 0.284606 0.124274 0.674366
O O2 0.000000 0.070306 0.750000
O O3 0.081811 0.074387 0.554209
O O4 0.344231 0.034994 0.660491
O O5 0.500000 0.884287 0.750000
O O6 0.411602 0.869394 0.925426
O O7 0.486990 0.950966 0.854429
O O8 0.117998 0.914065 0.854775
O O9 0.691641 0.618035 0.456306
O O10 0.647992 0.531265 0.427393
O O11 0.500000 0.809931 0.250000
O O12 0.208653 0.792379 0.115101
O O13 0.573955 0.832710 0.074165
O O14 0.824897 0.300065 0.908564
O O15 0.579170 0.748260 0.506076
O O16 0.500000 0.000000 0.500000
#
# Coordination Sequence:
#
# PCOD9457177 Si02
#       7
#     8   8   8   8   8   8   8
#     4  12  24  38  66  98 133 186 230 281 359 433
#     4  11  25  42  66  96 133 178 234 297 356 420
#     4  11  22  43  67  91 139 176 229 299 353 420
#     4  11  23  45  66 105 144 184 231 296 355 441
#     4  10  22  44  70  97 135 178 229 290 359 430
#     4  10  23  44  75 103 139 186 232 288 359 429
#     4  11  24  41  63  95 135 182 235 291 353 424
#
# _framework density 21.807055999999999
#
# number of rings (size 3 to 8) (size 9 to 14) (size 15 to 20)
#    0.000    1.143    2.857    3.000    4.000    3.429 
#    2.571    0.714    0.000    0.000    0.000    0.000 
#    0.000    0.000    0.000    0.000    0.000    0.000 
#
# Total GULP energy -312079.891131 kJ/mol
# GULP energy per Si atom -5572.855199 kJ/mol
# Density = 2.175742 g / cm^3
# Si number density = 21.807056 Si / 1000 Ang^3
#
#
#
# Elastic Constant Matrix: (Units=GPa)
#
#
# Indices 1 2 3 4 5 6 
#
# 1 81.8058 23.2876 28.9045 0.0000 0.0000 0.0000
# 2 23.2876 154.5753 10.8932 0.0000 0.0000 0.0000
# 3 28.9045 10.8932 90.2607 0.0000 0.0000 0.0000
# 4 0.0000 0.0000 0.0000 -1.4653 0.0000 0.0000
# 5 0.0000 0.0000 0.0000 0.0000 31.0270 0.0000
# 6 0.0000 0.0000 0.0000 0.0000 0.0000 16.0678
#
#
#
# Elastic Compliance Matrix: (Units=1/GPa)
#
#
# Indices 1 2 3 4 5 6 
#
# 1 0.014287 -0.001846 -0.004353 0.000000 0.000000 0.000000
# 2 -0.001846 0.006763 -0.000225 0.000000 0.000000 0.000000
# 3 -0.004353 -0.000225 0.012500 0.000000 0.000000 0.000000
# 4 0.000000 0.000000 0.000000 -0.682433 0.000000 0.000000
# 5 0.000000 0.000000 0.000000 0.000000 0.032230 0.000000
# 6 0.000000 0.000000 0.000000 0.000000 0.000000 0.062236
#
#
# Mechanical properties :
#
#
# Convention : Reuss Voigt Hill
#
# Bulk Modulus (GPa) = 48.30035 50.31250 49.30642
# Shear Modulus (GPa) = -9.35161 26.69631 8.67235
#
# Velocity S-wave (km/s) = -2.07308 3.50266 1.99637
# Velocity P-wave (km/s) = 4.05794 6.28330 5.28899
#
# Compressibility (1/GPa) = 0.02070378
#
# Stress axis : x y z
#
# Youngs Moduli (GPa) = 69.99183 147.85727 79.99991
#
# Poissons Ratio (x) = 0.27291 0.34820
# Poissons Ratio (y) = 0.12919 0.01801
# Poissons Ratio (z) = 0.30464 0.03329
#
# Static dielectric constant tensor:
#      x y z
#    x 1.843810 0.000000 0.000000 
#    y 0.000000 1.773520 0.000000 
#    z 0.000000 0.000000 1.846580 
# 
# From -- ./inp_files/14098.got.cif
#   From: 2010.05.17/outbox.cif.g08.bks.cpg/sg60_8_cif.got.tgz:14098.got - 2010.06.03 14:59:27.
