data_PCOD9457065
_publ_section_title
;
Structure prediction by ZEFSAII (Michael W. Deem and Ramdas Pophale) SiO2 
 PCOD9457065
Probable space group: P B C N
;
_chemical_formula_sum "Si O2"
_cell_formula_units_Z 40
_cell_length_a 6.362274
_cell_length_b 9.848181
_cell_length_c 27.076717
_cell_angle_alpha 90.000000
_cell_angle_beta 90.000000
_cell_angle_gamma 90.000000
_cell_volume 1696.541144
_symmetry_space_group_name_H-M "P B C N"
_symmetry_group_IT_number 60
_symmetry_cell_setting 'orthorhombic'
loop_
_space_group_symop_operation_xyz
x,y,z
1/2-x,1/2-y,1/2+z
1/2+x,1/2-y,-z
-x,y,1/2-z
-x,-y,-z
1/2+x,1/2+y,1/2-z
1/2-x,1/2+y,z
x,-y,1/2+z
loop_
_atom_site_type_symbol
_atom_site_label
_atom_site_fract_x
_atom_site_fract_y
_atom_site_fract_z
Si Si1 0.299145 0.325335 0.845900
Si Si2 0.322231 0.511084 0.119058
Si Si3 0.109254 0.895542 0.463211
Si Si4 0.460526 0.940471 0.306508
Si Si5 0.944247 0.393955 0.554700
O O1 0.533922 0.384188 0.850696
O O2 0.155501 0.415329 0.810268
O O3 0.203857 0.348021 0.899771
O O4 0.307956 0.171264 0.829809
O O5 0.478033 0.414359 0.087910
O O6 0.165395 0.443398 0.158442
O O7 0.172755 0.583019 0.078182
O O8 0.343204 0.960790 0.460192
O O9 0.000000 0.000000 0.500000
O O10 0.084711 0.739263 0.479159
O O11 0.500000 0.905370 0.250000
#
# Coordination Sequence:
#
# PCOD9457065 Si02
#       5
#     8   8   8   8   8
#     4  10  22  44  65  93 127 168 215 264 326 387
#     4  10  22  42  70  92 128 172 210 272 337 372
#     4  11  25  41  66  98 131 169 219 269 322 399
#     4  11  25  41  66  98 131 169 219 269 322 399
#     4  10  22  43  65  93 128 168 215 264 326 388
#
# _framework density 23.577382
#
# number of rings (size 3 to 8) (size 9 to 14) (size 15 to 20)
#    0.000    1.600    0.000    4.800    5.600    4.000 
#    0.000    0.000    0.000    0.000    0.000    0.000 
#    0.000    0.000    0.000    0.000    0.000    0.000 
#
# Total GULP energy -223762.348136 kJ/mol
# GULP energy per Si atom -5594.058703 kJ/mol
# Density = 2.352372 g / cm^3
# Si number density = 23.577382 Si / 1000 Ang^3
#
#
#
# Elastic Constant Matrix: (Units=GPa)
#
#
# Indices 1 2 3 4 5 6 
#
# 1 97.1317 31.3538 19.0066 0.0000 0.0000 0.0000
# 2 31.3538 112.7981 21.7936 0.0000 0.0000 0.0000
# 3 19.0066 21.7936 66.0195 0.0000 0.0000 0.0000
# 4 0.0000 0.0000 0.0000 25.4923 0.0000 0.0000
# 5 0.0000 0.0000 0.0000 0.0000 14.9826 0.0000
# 6 0.0000 0.0000 0.0000 0.0000 0.0000 37.8862
#
#
#
# Elastic Compliance Matrix: (Units=1/GPa)
#
#
# Indices 1 2 3 4 5 6 
#
# 1 0.011668 -0.002771 -0.002444 0.000000 0.000000 0.000000
# 2 -0.002771 0.010127 -0.002545 0.000000 0.000000 0.000000
# 3 -0.002444 -0.002545 0.016691 0.000000 0.000000 0.000000
# 4 0.000000 0.000000 0.000000 0.039228 0.000000 0.000000
# 5 0.000000 0.000000 0.000000 0.000000 0.066744 0.000000
# 6 0.000000 0.000000 0.000000 0.000000 0.000000 0.026395
#
#
# Mechanical properties :
#
#
# Convention : Reuss Voigt Hill
#
# Bulk Modulus (GPa) = 43.54478 46.69526 45.12002
# Shear Modulus (GPa) = 25.76923 29.25857 27.51390
#
# Velocity S-wave (km/s) = 3.30959 3.52655 3.41979
# Velocity P-wave (km/s) = 5.75443 6.03574 5.89676
#
# Compressibility (1/GPa) = 0.02296487
#
# Stress axis : x y z
#
# Youngs Moduli (GPa) = 85.70371 98.74174 59.91245
#
# Poissons Ratio (x) = 0.27362 0.14645
# Poissons Ratio (y) = 0.23749 0.15250
# Poissons Ratio (z) = 0.20950 0.25134
#
# Static dielectric constant tensor:
#      x y z
#    x 1.906900 0.000000 0.000000 
#    y 0.000000 1.937210 0.000000 
#    z 0.000000 0.000000 1.925300 
# 
# From -- ./inp_files/24742.got.cif
#   From: 2010.05.17/outbox.cif.g08.bks.cpg/sg60_13_cif.got.tgz:24742.got - 2010.06.03 14:59:27.
