data_PCOD9457042
_publ_section_title
;
Structure prediction by ZEFSAII (Michael W. Deem and Ramdas Pophale) SiO2 
 PCOD9457042
Probable space group: P B C N
;
_chemical_formula_sum "Si O2"
_cell_formula_units_Z 52
_cell_length_a 14.784417
_cell_length_b 9.098648
_cell_length_c 17.378717
_cell_angle_alpha 90.000000
_cell_angle_beta 90.000000
_cell_angle_gamma 90.000000
_cell_volume 2337.753836
_symmetry_space_group_name_H-M "P B C N"
_symmetry_group_IT_number 60
_symmetry_cell_setting 'orthorhombic'
loop_
_space_group_symop_operation_xyz
x,y,z
1/2-x,1/2-y,1/2+z
1/2+x,1/2-y,-z
-x,y,1/2-z
-x,-y,-z
1/2+x,1/2+y,1/2-z
1/2-x,1/2+y,z
x,-y,1/2+z
loop_
_atom_site_type_symbol
_atom_site_label
_atom_site_fract_x
_atom_site_fract_y
_atom_site_fract_z
Si Si1 0.445384 0.816467 0.821023
Si Si2 0.739845 0.005243 0.174059
Si Si3 0.716095 0.135667 0.922244
Si Si4 0.069199 0.606343 0.041573
Si Si5 0.303906 0.729701 0.427374
Si Si6 0.500000 0.532112 0.750000
Si Si7 0.166240 0.930962 0.665597
O O1 0.500000 0.890420 0.750000
O O2 0.353563 0.902605 0.835760
O O3 0.513388 0.813877 0.892272
O O4 0.433413 0.649112 0.792404
O O5 0.813768 0.078811 0.117927
O O6 0.770776 0.027637 0.261332
O O7 0.720002 0.846435 0.138993
O O8 0.689641 0.270499 0.867395
O O9 0.646180 0.000338 0.923309
O O10 0.809293 0.058017 0.895823
O O11 0.727330 0.201246 0.007782
O O12 0.113888 0.709722 0.977666
O O13 0.000000 0.500000 0.000000
O O14 0.563070 0.440174 0.806302
#
# Coordination Sequence:
#
# PCOD9457042 Si02
#       7
#     8   8   8   8   8   4   8
#     4  10  22  42  67  96 136 180 228 285 348 406
#     4  12  24  43  68 102 134 185 228 288 349 415
#     4  12  24  45  71 101 137 192 233 280 356 430
#     4  12  23  42  67 101 135 179 231 285 348 425
#     4  12  23  42  67  97 138 175 230 279 345 417
#     4  10  24  42  64 100 138 168 228 296 346 390
#     4  12  25  45  71 100 140 185 237 290 348 419
#
# _framework density 22.243573000000001
#
# number of rings (size 3 to 8) (size 9 to 14) (size 15 to 20)
#    0.462    0.000    4.615    4.615    0.000    1.231 
#    4.154    0.000    0.000    7.385    0.000    0.000 
#    0.000    0.000    0.000    0.000    0.000    0.000 
#
# Total GULP energy -290695.478841 kJ/mol
# GULP energy per Si atom -5590.297670 kJ/mol
# Density = 2.219295 g / cm^3
# Si number density = 22.243573 Si / 1000 Ang^3
#
#
#
# Elastic Constant Matrix: (Units=GPa)
#
#
# Indices 1 2 3 4 5 6 
#
# 1 64.8243 8.6635 0.7531 0.0000 0.0000 0.0000
# 2 8.6635 29.6158 -14.3645 0.0000 0.0000 0.0000
# 3 0.7531 -14.3645 78.3071 0.0000 0.0000 0.0000
# 4 0.0000 0.0000 0.0000 34.6673 0.0000 0.0000
# 5 0.0000 0.0000 0.0000 0.0000 44.5629 0.0000
# 6 0.0000 0.0000 0.0000 0.0000 0.0000 15.4638
#
#
#
# Elastic Compliance Matrix: (Units=1/GPa)
#
#
# Indices 1 2 3 4 5 6 
#
# 1 0.016143 -0.005266 -0.001121 0.000000 0.000000 0.000000
# 2 -0.005266 0.038781 0.007165 0.000000 0.000000 0.000000
# 3 -0.001121 0.007165 0.014095 0.000000 0.000000 0.000000
# 4 0.000000 0.000000 0.000000 0.028846 0.000000 0.000000
# 5 0.000000 0.000000 0.000000 0.000000 0.022440 0.000000
# 6 0.000000 0.000000 0.000000 0.000000 0.000000 0.064667
#
#
# Mechanical properties :
#
#
# Convention : Reuss Voigt Hill
#
# Bulk Modulus (GPa) = 14.16952 18.09460 16.13206
# Shear Modulus (GPa) = 24.16126 30.78516 27.47321
#
# Velocity S-wave (km/s) = 3.29935 3.72425 3.51822
# Velocity P-wave (km/s) = 4.57146 5.16196 4.87566
#
# Compressibility (1/GPa) = 0.07057400
#
# Stress axis : x y z
#
# Youngs Moduli (GPa) = 61.94583 25.78564 70.94579
#
# Poissons Ratio (x) = 0.13579 0.07955
# Poissons Ratio (y) = 0.32622 -0.50830
# Poissons Ratio (z) = 0.06946 -0.18474
#
# Static dielectric constant tensor:
#      x y z
#    x 2.182110 0.000000 0.000000 
#    y 0.000000 1.791340 0.000000 
#    z 0.000000 0.000000 1.850720 
# 
# From -- ./inp_files/22848.got.cif
#   From: 2010.05.17/outbox.cif.g08.bks.cpg/sg60_12_cif.got.tgz:22848.got - 2010.06.03 14:59:27.
