data_PCOD9457389
_publ_section_title
;
Structure prediction by ZEFSAII (Michael W. Deem and Ramdas Pophale) SiO2 
 PCOD9457389
Probable space group: P B C N
;
_chemical_formula_sum "Si O2"
_cell_formula_units_Z 48
_cell_length_a 9.504076
_cell_length_b 9.120434
_cell_length_c 28.386642
_cell_angle_alpha 90.000000
_cell_angle_beta 90.000000
_cell_angle_gamma 90.000000
_cell_volume 2460.590971
_symmetry_space_group_name_H-M "P B C N"
_symmetry_group_IT_number 60
_symmetry_cell_setting 'orthorhombic'
loop_
_space_group_symop_operation_xyz
x,y,z
1/2-x,1/2-y,1/2+z
1/2+x,1/2-y,-z
-x,y,1/2-z
-x,-y,-z
1/2+x,1/2+y,1/2-z
1/2-x,1/2+y,z
x,-y,1/2+z
loop_
_atom_site_type_symbol
_atom_site_label
_atom_site_fract_x
_atom_site_fract_y
_atom_site_fract_z
Si Si1 0.915756 0.880794 0.703221
Si Si2 0.360549 0.589688 0.007345
Si Si3 0.395943 0.912330 0.967226
Si Si4 0.077235 0.482162 0.622493
Si Si5 0.861955 0.829045 0.881978
Si Si6 0.614045 0.965073 0.210115
O O1 0.876402 0.710856 0.711648
O O2 0.769804 0.969091 0.705309
O O3 0.000000 0.929262 0.750000
O O4 0.014104 0.881731 0.655018
O O5 0.351050 0.606512 0.064405
O O6 0.500000 0.500000 0.000000
O O7 0.369714 0.750696 0.985900
O O8 0.245867 0.503161 0.976152
O O9 0.483718 0.913674 0.919199
O O10 0.500000 0.000000 0.000000
O O11 0.124862 0.651927 0.612895
O O12 0.211378 0.384494 0.637016
O O13 0.967257 0.492349 0.663686
O O14 0.500000 0.010552 0.250000
#
# Coordination Sequence:
#
# PCOD9457389 Si02
#       6
#     8   8   8   8   8   8
#     4  10  23  42  66  93 128 161 209 259 319 384
#     4  12  26  41  65  91 130 171 215 267 320 376
#     4  12  24  43  63  93 128 170 217 263 318 383
#     4  11  25  41  66  93 131 167 219 264 320 384
#     4  11  23  42  62  93 125 168 212 262 317 379
#     4  10  23  43  66  97 128 164 209 265 316 383
#
# _framework density 19.507507
#
# number of rings (size 3 to 8) (size 9 to 14) (size 15 to 20)
#    0.000    1.000    3.333    2.000    4.667    3.333 
#    0.000    0.000    0.000    0.000    0.000    0.000 
#    0.000    0.000    0.000    0.000    0.000    0.000 
#
# Total GULP energy -267343.515592 kJ/mol
# GULP energy per Si atom -5569.656575 kJ/mol
# Density = 1.946311 g / cm^3
# Si number density = 19.507507 Si / 1000 Ang^3
#
#
#
# Elastic Constant Matrix: (Units=GPa)
#
#
# Indices 1 2 3 4 5 6 
#
# 1 165.3457 64.5709 13.0103 0.0000 0.0000 0.0000
# 2 64.5709 85.6680 12.7541 0.0000 0.0000 0.0000
# 3 13.0103 12.7541 42.3397 0.0000 0.0000 0.0000
# 4 0.0000 0.0000 0.0000 16.4552 0.0000 0.0000
# 5 0.0000 0.0000 0.0000 0.0000 32.9610 0.0000
# 6 0.0000 0.0000 0.0000 0.0000 0.0000 40.8055
#
#
#
# Elastic Compliance Matrix: (Units=1/GPa)
#
#
# Indices 1 2 3 4 5 6 
#
# 1 0.008592 -0.006368 -0.000722 0.000000 0.000000 0.000000
# 2 -0.006368 0.016942 -0.003146 0.000000 0.000000 0.000000
# 3 -0.000722 -0.003146 0.024788 0.000000 0.000000 0.000000
# 4 0.000000 0.000000 0.000000 0.060771 0.000000 0.000000
# 5 0.000000 0.000000 0.000000 0.000000 0.030339 0.000000
# 6 0.000000 0.000000 0.000000 0.000000 0.000000 0.024507
#
#
# Mechanical properties :
#
#
# Convention : Reuss Voigt Hill
#
# Bulk Modulus (GPa) = 33.50290 52.66931 43.08610
# Shear Modulus (GPa) = 25.46338 31.57887 28.52112
#
# Velocity S-wave (km/s) = 3.61683 4.02780 3.82784
# Velocity P-wave (km/s) = 5.88673 6.97775 6.45533
#
# Compressibility (1/GPa) = 0.02984817
#
# Stress axis : x y z
#
# Youngs Moduli (GPa) = 116.39099 59.02659 40.34202
#
# Poissons Ratio (x) = 0.37591 0.02912
# Poissons Ratio (y) = 0.74123 0.12693
# Poissons Ratio (z) = 0.08400 0.18572
#
# Static dielectric constant tensor:
#      x y z
#    x 1.631740 0.000000 0.000000 
#    y 0.000000 1.694550 0.000000 
#    z 0.000000 0.000000 1.732930 
# 
# From -- ./inp_files/25909.got.cif
#   From: 2010.05.17/outbox.cif.g08.bks.cpg/sg60_13_cif.got.tgz:25909.got - 2010.06.03 14:59:27.
