data_PCOD9457733
_publ_section_title
;
Structure prediction by ZEFSAII (Michael W. Deem and Ramdas Pophale) SiO2 
 PCOD9457733
Probable space group: P B C N
;
_chemical_formula_sum "Si O2"
_cell_formula_units_Z 40
_cell_length_a 19.361082
_cell_length_b 8.507535
_cell_length_c 11.175026
_cell_angle_alpha 90.000000
_cell_angle_beta 90.000000
_cell_angle_gamma 90.000000
_cell_volume 1840.695332
_symmetry_space_group_name_H-M "P B C N"
_symmetry_group_IT_number 60
_symmetry_cell_setting 'orthorhombic'
loop_
_space_group_symop_operation_xyz
x,y,z
1/2-x,1/2-y,1/2+z
1/2+x,1/2-y,-z
-x,y,1/2-z
-x,-y,-z
1/2+x,1/2+y,1/2-z
1/2-x,1/2+y,z
x,-y,1/2+z
loop_
_atom_site_type_symbol
_atom_site_label
_atom_site_fract_x
_atom_site_fract_y
_atom_site_fract_z
Si Si1 0.961472 0.444942 0.622485
Si Si2 0.333155 0.692851 0.602629
Si Si3 0.991676 0.894059 0.382322
Si Si4 0.269418 0.593576 0.228806
Si Si5 0.680605 0.867883 0.139276
O O1 0.957141 0.255347 0.614535
O O2 0.888428 0.532037 0.626980
O O3 0.000000 0.478447 0.750000
O O4 0.000000 0.500000 0.500000
O O5 0.414916 0.677818 0.611896
O O6 0.301380 0.821448 0.691708
O O7 0.300551 0.524227 0.632000
O O8 0.311235 0.761008 0.476207
O O9 0.000000 0.971414 0.250000
O O10 0.000000 0.000000 0.500000
O O11 0.320772 0.736870 0.255940
O O12 0.245982 0.479496 0.336279
#
# Coordination Sequence:
#
# PCOD9457733 Si02
#       5
#     8   8   8   8   8
#     4  11  24  45  72 101 137 184 234 286 348 422
#     4  11  23  45  66 101 136 179 235 289 346 424
#     4  11  26  46  70 101 143 183 234 291 353 422
#     4  10  24  43  70  97 137 181 233 288 352 409
#     4  11  23  44  70 100 136 182 235 286 353 419
#
# _framework density 21.730917999999999
#
# number of rings (size 3 to 8) (size 9 to 14) (size 15 to 20)
#    0.000    1.200    2.000    3.600    2.800    2.400 
#    7.200    0.000    0.000    0.000    0.000    0.000 
#    0.000    0.000    0.000    0.000    0.000    0.000 
#
# Total GULP energy -223354.461215 kJ/mol
# GULP energy per Si atom -5583.861530 kJ/mol
# Density = 2.168146 g / cm^3
# Si number density = 21.730918 Si / 1000 Ang^3
#
#
#
# Elastic Constant Matrix: (Units=GPa)
#
#
# Indices 1 2 3 4 5 6 
#
# 1 75.0154 61.9615 22.4805 0.0000 0.0000 0.0000
# 2 61.9615 142.8796 58.5076 0.0000 0.0000 0.0000
# 3 22.4805 58.5076 129.7541 0.0000 0.0000 0.0000
# 4 0.0000 0.0000 0.0000 39.2189 0.0000 0.0000
# 5 0.0000 0.0000 0.0000 0.0000 26.7728 0.0000
# 6 0.0000 0.0000 0.0000 0.0000 0.0000 17.5485
#
#
#
# Elastic Compliance Matrix: (Units=1/GPa)
#
#
# Indices 1 2 3 4 5 6 
#
# 1 0.020805 -0.009255 0.000569 0.000000 0.000000 0.000000
# 2 -0.009255 0.012701 -0.004124 0.000000 0.000000 0.000000
# 3 0.000569 -0.004124 0.009468 0.000000 0.000000 0.000000
# 4 0.000000 0.000000 0.000000 0.025498 0.000000 0.000000
# 5 0.000000 0.000000 0.000000 0.000000 0.037351 0.000000
# 6 0.000000 0.000000 0.000000 0.000000 0.000000 0.056985
#
#
# Mechanical properties :
#
#
# Convention : Reuss Voigt Hill
#
# Bulk Modulus (GPa) = 57.62498 70.39426 64.00962
# Shear Modulus (GPa) = 25.74504 30.35467 28.04985
#
# Velocity S-wave (km/s) = 3.44571 3.74149 3.59664
# Velocity P-wave (km/s) = 6.51196 7.15045 6.83866
#
# Compressibility (1/GPa) = 0.01735358
#
# Stress axis : x y z
#
# Youngs Moduli (GPa) = 48.06604 78.73370 105.62210
#
# Poissons Ratio (x) = 0.72869 -0.06007
# Poissons Ratio (y) = 0.44486 0.43554
# Poissons Ratio (z) = -0.02734 0.32466
#
# Static dielectric constant tensor:
#      x y z
#    x 1.788290 0.000000 0.000000 
#    y 0.000000 1.810900 0.000000 
#    z 0.000000 0.000000 1.856680 
# 
# From -- ./inp_files/12289.got.cif
#   From: 2010.05.17/outbox.cif.g08.bks.cpg/sg60_7_cif.got.tgz:12289.got - 2010.06.03 14:59:27.
