data_PCOD9457000
_publ_section_title
;
Structure prediction by ZEFSAII (Michael W. Deem and Ramdas Pophale) SiO2 
 PCOD9457000
Probable space group: P B C N
;
_chemical_formula_sum "Si O2"
_cell_formula_units_Z 32
_cell_length_a 12.145966
_cell_length_b 14.257298
_cell_length_c 7.051718
_cell_angle_alpha 90.000000
_cell_angle_beta 90.000000
_cell_angle_gamma 90.000000
_cell_volume 1221.136534
_symmetry_space_group_name_H-M "P B C N"
_symmetry_group_IT_number 60
_symmetry_cell_setting 'orthorhombic'
loop_
_space_group_symop_operation_xyz
x,y,z
1/2-x,1/2-y,1/2+z
1/2+x,1/2-y,-z
-x,y,1/2-z
-x,-y,-z
1/2+x,1/2+y,1/2-z
1/2-x,1/2+y,z
x,-y,1/2+z
loop_
_atom_site_type_symbol
_atom_site_label
_atom_site_fract_x
_atom_site_fract_y
_atom_site_fract_z
Si Si1 0.152492 0.281501 0.091933
Si Si2 0.683526 0.120993 0.525260
Si Si3 0.000000 0.659269 0.250000
Si Si4 0.825611 0.059447 0.000917
Si Si5 0.000000 0.946324 0.750000
O O1 0.126648 0.319698 0.304386
O O2 0.243470 0.361004 0.052988
O O3 0.221743 0.185858 0.069105
O O4 0.066312 0.285076 0.915911
O O5 0.590693 0.101223 0.367603
O O6 0.747812 0.025220 0.578020
O O7 0.919694 0.112090 0.122804
O O8 0.910840 0.010461 0.855956
#
# Coordination Sequence:
#
# PCOD9457000 Si02
#       5
#     8   8   4   8   4
#     4  12  27  50  74 108 149 189 245 303 360 440
#     4  12  27  50  74 108 149 189 245 303 360 440
#     4  12  28  49  74 107 144 202 240 295 372 429
#     4  11  24  47  70 110 146 187 244 301 356 432
#     4  10  22  41  78 103 140 190 232 305 370 411
#
# _framework density 26.205098
#
# number of rings (size 3 to 8) (size 9 to 14) (size 15 to 20)
#    0.000    0.500    5.000    2.250    0.000    7.000 
#    0.000    0.000    0.000    0.000    0.000    0.000 
#    0.000    0.000    0.000    0.000    0.000    0.000 
#
# Total GULP energy -178556.734773 kJ/mol
# GULP energy per Si atom -5579.897962 kJ/mol
# Density = 2.614545 g / cm^3
# Si number density = 26.205098 Si / 1000 Ang^3
#
#
#
# Elastic Constant Matrix: (Units=GPa)
#
#
# Indices 1 2 3 4 5 6 
#
# 1 162.8478 34.1033 75.1260 0.0000 0.0000 0.0000
# 2 34.1033 105.2138 -5.2653 0.0000 0.0000 0.0000
# 3 75.1260 -5.2653 113.9817 0.0000 0.0000 0.0000
# 4 0.0000 0.0000 0.0000 37.2432 0.0000 0.0000
# 5 0.0000 0.0000 0.0000 0.0000 100.4058 0.0000
# 6 0.0000 0.0000 0.0000 0.0000 0.0000 16.0236
#
#
#
# Elastic Compliance Matrix: (Units=1/GPa)
#
#
# Indices 1 2 3 4 5 6 
#
# 1 0.010012 -0.003584 -0.006764 0.000000 0.000000 0.000000
# 2 -0.003584 0.010809 0.002861 0.000000 0.000000 0.000000
# 3 -0.006764 0.002861 0.013364 0.000000 0.000000 0.000000
# 4 0.000000 0.000000 0.000000 0.026851 0.000000 0.000000
# 5 0.000000 0.000000 0.000000 0.000000 0.009960 0.000000
# 6 0.000000 0.000000 0.000000 0.000000 0.000000 0.062408
#
#
# Mechanical properties :
#
#
# Convention : Reuss Voigt Hill
#
# Bulk Modulus (GPa) = 52.05196 65.55238 58.80217
# Shear Modulus (GPa) = 32.30384 49.27313 40.78848
#
# Velocity S-wave (km/s) = 3.51484 4.34093 3.94954
# Velocity P-wave (km/s) = 6.03146 7.08480 6.57924
#
# Compressibility (1/GPa) = 0.01921157
#
# Stress axis : x y z
#
# Youngs Moduli (GPa) = 99.88253 92.51349 74.82824
#
# Poissons Ratio (x) = 0.33154 0.50616
# Poissons Ratio (y) = 0.35795 -0.21411
# Poissons Ratio (z) = 0.67564 -0.26471
#
# Static dielectric constant tensor:
#      x y z
#    x 1.994050 0.000000 0.000000 
#    y 0.000000 2.084530 0.000000 
#    z 0.000000 0.000000 2.352190 
# 
# From -- ./inp_files/4564.got.cif
#   From: 2010.05.17/outbox.cif.g08.bks.cpg/sg60_3_cif.got.tgz:4564.got - 2010.06.03 14:59:27.
