data_PCOD9457520
_publ_section_title
;
Structure prediction by ZEFSAII (Michael W. Deem and Ramdas Pophale) SiO2 
 PCOD9457520
Probable space group: P B C N
;
_chemical_formula_sum "Si O2"
_cell_formula_units_Z 32
_cell_length_a 7.395337
_cell_length_b 19.334485
_cell_length_c 8.629043
_cell_angle_alpha 90.000000
_cell_angle_beta 90.000000
_cell_angle_gamma 90.000000
_cell_volume 1233.823992
_symmetry_space_group_name_H-M "P B C N"
_symmetry_group_IT_number 60
_symmetry_cell_setting 'orthorhombic'
loop_
_space_group_symop_operation_xyz
x,y,z
1/2-x,1/2-y,1/2+z
1/2+x,1/2-y,-z
-x,y,1/2-z
-x,-y,-z
1/2+x,1/2+y,1/2-z
1/2-x,1/2+y,z
x,-y,1/2+z
loop_
_atom_site_type_symbol
_atom_site_label
_atom_site_fract_x
_atom_site_fract_y
_atom_site_fract_z
Si Si1 0.648728 0.592664 0.497379
Si Si2 0.784920 0.215934 0.291437
Si Si3 0.185563 0.474947 0.199126
Si Si4 0.754186 0.649183 0.977814
O O1 0.741808 0.661990 0.431560
O O2 0.687508 0.531784 0.376166
O O3 0.716696 0.564187 0.660663
O O4 0.438578 0.612016 0.500962
O O5 0.733563 0.291580 0.348794
O O6 0.000000 0.217929 0.250000
O O7 0.691957 0.186993 0.136496
O O8 0.125268 0.414088 0.080768
O O9 0.000000 0.510285 0.250000
#
# Coordination Sequence:
#
# PCOD9457520 Si02
#       4
#     8   8   8   8
#     4  11  25  46  73 103 140 186 234 290 352 423
#     4  10  23  44  69 103 139 183 232 290 356 423
#     4  12  25  45  69 102 142 186 235 292 353 421
#     4  11  23  43  71 102 139 183 235 290 353 425
#
# _framework density 25.935628000000001
#
# number of rings (size 3 to 8) (size 9 to 14) (size 15 to 20)
#    0.000    1.000    0.000    6.000    0.000    8.000 
#    0.000    7.500    0.000    0.000    0.000    0.000 
#    0.000    0.000    0.000    0.000    0.000    0.000 
#
# Total GULP energy -179647.648286 kJ/mol
# GULP energy per Si atom -5613.989009 kJ/mol
# Density = 2.587660 g / cm^3
# Si number density = 25.935628 Si / 1000 Ang^3
#
#
#
# Elastic Constant Matrix: (Units=GPa)
#
#
# Indices 1 2 3 4 5 6 
#
# 1 57.3984 46.7615 36.2502 0.0000 0.0000 0.0000
# 2 46.7615 180.8260 61.0011 0.0000 0.0000 0.0000
# 3 36.2502 61.0011 121.0014 0.0000 0.0000 0.0000
# 4 0.0000 0.0000 0.0000 49.1503 0.0000 0.0000
# 5 0.0000 0.0000 0.0000 0.0000 30.8326 0.0000
# 6 0.0000 0.0000 0.0000 0.0000 0.0000 96.1917
#
#
#
# Elastic Compliance Matrix: (Units=1/GPa)
#
#
# Indices 1 2 3 4 5 6 
#
# 1 0.024312 -0.004615 -0.004957 0.000000 0.000000 0.000000
# 2 -0.004615 0.007539 -0.002418 0.000000 0.000000 0.000000
# 3 -0.004957 -0.002418 0.010969 0.000000 0.000000 0.000000
# 4 0.000000 0.000000 0.000000 0.020346 0.000000 0.000000
# 5 0.000000 0.000000 0.000000 0.000000 0.032433 0.000000
# 6 0.000000 0.000000 0.000000 0.000000 0.000000 0.010396
#
#
# Mechanical properties :
#
#
# Convention : Reuss Voigt Hill
#
# Bulk Modulus (GPa) = 53.07916 71.91682 62.49799
# Shear Modulus (GPa) = 36.69564 49.58246 43.13905
#
# Velocity S-wave (km/s) = 3.76556 4.37710 4.08280
# Velocity P-wave (km/s) = 6.27822 7.30305 6.80994
#
# Compressibility (1/GPa) = 0.01883979
#
# Stress axis : x y z
#
# Youngs Moduli (GPa) = 41.13113 132.63643 91.16940
#
# Poissons Ratio (x) = 0.61211 0.45194
# Poissons Ratio (y) = 0.18982 0.22048
# Poissons Ratio (z) = 0.20389 0.32076
#
# Static dielectric constant tensor:
#      x y z
#    x 2.027950 0.000000 0.000000 
#    y 0.000000 1.969810 0.000000 
#    z 0.000000 0.000000 2.091940 
# 
# From -- ./inp_files/3581.got.cif
#   From: 2010.05.17/outbox.cif.g08.bks.cpg/sg60_2_cif.got.tgz:3581.got - 2010.06.03 14:59:27.
