data_PCOD9457897
_publ_section_title
;
Structure prediction by ZEFSAII (Michael W. Deem and Ramdas Pophale) SiO2 
 PCOD9457897
Probable space group: P B C N
;
_chemical_formula_sum "Si O2"
_cell_formula_units_Z 44
_cell_length_a 17.568876
_cell_length_b 12.407650
_cell_length_c 8.458203
_cell_angle_alpha 90.000000
_cell_angle_beta 90.000000
_cell_angle_gamma 90.000000
_cell_volume 1843.790683
_symmetry_space_group_name_H-M "P B C N"
_symmetry_group_IT_number 60
_symmetry_cell_setting 'orthorhombic'
loop_
_space_group_symop_operation_xyz
x,y,z
1/2-x,1/2-y,1/2+z
1/2+x,1/2-y,-z
-x,y,1/2-z
-x,-y,-z
1/2+x,1/2+y,1/2-z
1/2-x,1/2+y,z
x,-y,1/2+z
loop_
_atom_site_type_symbol
_atom_site_label
_atom_site_fract_x
_atom_site_fract_y
_atom_site_fract_z
Si Si1 0.571170 0.281509 0.850373
Si Si2 0.221949 0.663286 0.735382
Si Si3 0.000000 0.997002 0.750000
Si Si4 0.171127 0.475297 0.940461
Si Si5 0.396323 0.700174 0.792971
Si Si6 0.925559 0.596719 0.337283
O O1 0.500000 0.231336 0.750000
O O2 0.651277 0.248129 0.767180
O O3 0.546161 0.407876 0.853814
O O4 0.585011 0.250976 0.033177
O O5 0.213882 0.581818 0.882825
O O6 0.212598 0.597270 0.570296
O O7 0.307436 0.701072 0.754703
O O8 0.066636 0.081621 0.793430
O O9 0.146457 0.418705 0.779437
O O10 0.094632 0.523038 0.017761
O O11 0.431403 0.774192 0.652662
O O12 0.000000 0.558158 0.250000
#
# Coordination Sequence:
#
# PCOD9457897 Si02
#       6
#     8   8   4   8   8   8
#     4  10  26  48  73 107 148 201 246 316 376 459
#     4  11  26  45  75 107 155 184 255 307 384 450
#     4  10  26  48  76  98 152 194 256 306 378 448
#     4  10  25  44  66 105 139 196 225 311 372 450
#     4  12  25  45  73 109 141 197 253 310 377 450
#     4  11  23  41  70  99 142 180 250 293 371 438
#
# _framework density 23.863882
#
# number of rings (size 3 to 8) (size 9 to 14) (size 15 to 20)
#    0.545    0.727    2.727    1.091    7.636    4.364 
#    0.000    0.000    0.000    0.000    0.000    0.000 
#    0.000    0.000    0.000    0.000    0.000    0.000 
#
# Total GULP energy -245192.416905 kJ/mol
# GULP energy per Si atom -5572.554930 kJ/mol
# Density = 2.380957 g / cm^3
# Si number density = 23.863882 Si / 1000 Ang^3
#
#
#
# Elastic Constant Matrix: (Units=GPa)
#
#
# Indices 1 2 3 4 5 6 
#
# 1 185.9073 40.0122 40.5701 0.0000 0.0000 0.0000
# 2 40.0122 95.8041 21.1922 0.0000 0.0000 0.0000
# 3 40.5701 21.1922 58.2679 0.0000 0.0000 0.0000
# 4 0.0000 0.0000 0.0000 41.8278 0.0000 0.0000
# 5 0.0000 0.0000 0.0000 0.0000 25.4094 0.0000
# 6 0.0000 0.0000 0.0000 0.0000 0.0000 -47.1275
#
#
#
# Elastic Compliance Matrix: (Units=1/GPa)
#
#
# Indices 1 2 3 4 5 6 
#
# 1 0.006648 -0.001906 -0.003936 0.000000 0.000000 0.000000
# 2 -0.001906 0.011898 -0.003000 0.000000 0.000000 0.000000
# 3 -0.003936 -0.003000 0.020994 0.000000 0.000000 0.000000
# 4 0.000000 0.000000 0.000000 0.023908 0.000000 0.000000
# 5 0.000000 0.000000 0.000000 0.000000 0.039355 0.000000
# 6 0.000000 0.000000 0.000000 0.000000 0.000000 -0.021219
#
#
# Mechanical properties :
#
#
# Convention : Reuss Voigt Hill
#
# Bulk Modulus (GPa) = 45.75456 60.39204 53.07330
# Shear Modulus (GPa) = 46.92541 19.90225 33.41383
#
# Velocity S-wave (km/s) = 4.43920 2.89102 3.74596
# Velocity P-wave (km/s) = 6.74463 6.04201 6.40296
#
# Compressibility (1/GPa) = 0.02185575
#
# Stress axis : x y z
#
# Youngs Moduli (GPa) = 150.41863 84.05036 47.63367
#
# Poissons Ratio (x) = 0.16020 0.18747
# Poissons Ratio (y) = 0.28669 0.14291
# Poissons Ratio (z) = 0.59200 0.25216
#
# Static dielectric constant tensor:
#      x y z
#    x 1.969940 0.000000 0.000000 
#    y 0.000000 2.003090 0.000000 
#    z 0.000000 0.000000 1.944170 
# 
# From -- ./inp_files/6659.got.cif
#   From: 2010.05.17/outbox.cif.g08.bks.cpg/sg60_4_cif.got.tgz:6659.got - 2010.06.03 14:59:27.
