data_PCOD9457755
_publ_section_title
;
Structure prediction by ZEFSAII (Michael W. Deem and Ramdas Pophale) SiO2 
 PCOD9457755
Probable space group: P B C N
;
_chemical_formula_sum "Si O2"
_cell_formula_units_Z 36
_cell_length_a 7.647759
_cell_length_b 15.258133
_cell_length_c 13.852533
_cell_angle_alpha 90.000000
_cell_angle_beta 90.000000
_cell_angle_gamma 90.000000
_cell_volume 1616.459334
_symmetry_space_group_name_H-M "P B C N"
_symmetry_group_IT_number 60
_symmetry_cell_setting 'orthorhombic'
loop_
_space_group_symop_operation_xyz
x,y,z
1/2-x,1/2-y,1/2+z
1/2+x,1/2-y,-z
-x,y,1/2-z
-x,-y,-z
1/2+x,1/2+y,1/2-z
1/2-x,1/2+y,z
x,-y,1/2+z
loop_
_atom_site_type_symbol
_atom_site_label
_atom_site_fract_x
_atom_site_fract_y
_atom_site_fract_z
Si Si1 0.619657 0.693370 0.041983
Si Si2 0.500000 0.726818 0.250000
Si Si3 0.679890 0.959679 0.459594
Si Si4 0.289041 0.624920 0.738845
Si Si5 0.203682 0.876988 0.449355
O O1 0.538419 0.679448 0.148556
O O2 0.668613 0.795238 0.031696
O O3 0.776358 0.626403 0.022373
O O4 0.483795 0.668525 0.958620
O O5 0.325761 0.786070 0.233573
O O6 0.714465 0.931857 0.349264
O O7 0.500000 0.000000 0.500000
O O8 0.805145 0.041831 0.479473
O O9 0.500000 0.636225 0.750000
O O10 0.245952 0.586599 0.844564
#
# Coordination Sequence:
#
# PCOD9457755 Si02
#       5
#     8   4   8   8   8
#     4  11  23  43  70 104 143 191 247 310 383 462
#     4  10  24  44  68 108 146 190 246 310 378 464
#     4  12  25  45  72 106 145 196 251 315 384 462
#     4  11  23  44  72 101 149 189 243 315 383 439
#     4  11  24  43  71 101 141 188 245 307 381 449
#
# _framework density 22.270897000000001
#
# number of rings (size 3 to 8) (size 9 to 14) (size 15 to 20)
#    0.000    0.889    2.222    6.000    0.000    1.778 
#    0.000    0.000    0.000    0.000    0.000    0.000 
#    0.000    0.000    0.000    0.000    0.000    0.000 
#
# Total GULP energy -200787.537547 kJ/mol
# GULP energy per Si atom -5577.431599 kJ/mol
# Density = 2.222021 g / cm^3
# Si number density = 22.270897 Si / 1000 Ang^3
#
#
#
# Elastic Constant Matrix: (Units=GPa)
#
#
# Indices 1 2 3 4 5 6 
#
# 1 125.4638 27.3430 40.7667 0.0000 0.0000 0.0000
# 2 27.3430 88.4070 77.0061 0.0000 0.0000 0.0000
# 3 40.7667 77.0061 192.7089 0.0000 0.0000 0.0000
# 4 0.0000 0.0000 0.0000 44.1003 0.0000 0.0000
# 5 0.0000 0.0000 0.0000 0.0000 22.1497 0.0000
# 6 0.0000 0.0000 0.0000 0.0000 0.0000 43.5253
#
#
#
# Elastic Compliance Matrix: (Units=1/GPa)
#
#
# Indices 1 2 3 4 5 6 
#
# 1 0.008717 -0.001672 -0.001176 0.000000 0.000000 0.000000
# 2 -0.001672 0.017671 -0.006708 0.000000 0.000000 0.000000
# 3 -0.001176 -0.006708 0.008118 0.000000 0.000000 0.000000
# 4 0.000000 0.000000 0.000000 0.022676 0.000000 0.000000
# 5 0.000000 0.000000 0.000000 0.000000 0.045147 0.000000
# 6 0.000000 0.000000 0.000000 0.000000 0.000000 0.022975
#
#
# Mechanical properties :
#
#
# Convention : Reuss Voigt Hill
#
# Bulk Modulus (GPa) = 64.95398 77.42349 71.18874
# Shear Modulus (GPa) = 33.43437 39.38598 36.41018
#
# Velocity S-wave (km/s) = 3.87881 4.20991 4.04775
# Velocity P-wave (km/s) = 7.02061 7.64663 7.34030
#
# Compressibility (1/GPa) = 0.01539551
#
# Stress axis : x y z
#
# Youngs Moduli (GPa) = 114.72023 56.58992 123.17802
#
# Poissons Ratio (x) = 0.09460 0.14486
# Poissons Ratio (y) = 0.19177 0.82624
# Poissons Ratio (z) = 0.13491 0.37959
#
# Static dielectric constant tensor:
#      x y z
#    x 2.061120 0.000000 0.000000 
#    y 0.000000 1.845770 0.000000 
#    z 0.000000 0.000000 1.907420 
# 
# From -- ./inp_files/14570.got.cif
#   From: 2010.05.17/outbox.cif.g08.bks.cpg/sg60_8_cif.got.tgz:14570.got - 2010.06.03 14:59:27.
