data_PCOD9457421
_publ_section_title
;
Structure prediction by ZEFSAII (Michael W. Deem and Ramdas Pophale) SiO2 
 PCOD9457421
Probable space group: P B C N
;
_chemical_formula_sum "Si O2"
_cell_formula_units_Z 48
_cell_length_a 18.337675
_cell_length_b 17.685288
_cell_length_c 5.575300
_cell_angle_alpha 90.000000
_cell_angle_beta 90.000000
_cell_angle_gamma 90.000000
_cell_volume 1808.109172
_symmetry_space_group_name_H-M "P B C N"
_symmetry_group_IT_number 60
_symmetry_cell_setting 'orthorhombic'
loop_
_space_group_symop_operation_xyz
x,y,z
1/2-x,1/2-y,1/2+z
1/2+x,1/2-y,-z
-x,y,1/2-z
-x,-y,-z
1/2+x,1/2+y,1/2-z
1/2-x,1/2+y,z
x,-y,1/2+z
loop_
_atom_site_type_symbol
_atom_site_label
_atom_site_fract_x
_atom_site_fract_y
_atom_site_fract_z
Si Si1 0.000000 0.451964 0.250000
Si Si2 0.838207 0.585462 0.780289
Si Si3 0.000000 0.928070 0.750000
Si Si4 0.639368 0.567326 0.011191
Si Si5 0.788136 0.275658 0.539816
Si Si6 0.753951 0.563586 0.338402
Si Si7 0.572450 0.682691 0.631367
O O1 0.924208 0.405956 0.252906
O O2 0.000000 0.500000 0.500000
O O3 0.790049 0.610997 0.552489
O O4 0.819887 0.495510 0.775891
O O5 0.807015 0.633237 0.006192
O O6 0.933927 0.969742 0.617417
O O7 0.039372 0.872310 0.566716
O O8 0.687864 0.609003 0.211052
O O9 0.697695 0.504062 0.936673
O O10 0.614019 0.627996 0.819576
O O11 0.744893 0.250987 0.297188
O O12 0.869151 0.240687 0.534618
O O13 0.500000 0.718877 0.750000
#
# Coordination Sequence:
#
# PCOD9457421 Si02
#       7
#     4   8   4   8   8   8   8
#     4  12  26  51  82 118 164 207 262 332 406 486
#     4  11  25  49  81 116 155 209 258 329 405 473
#     4  10  24  41  74  98 154 203 256 306 392 452
#     4  10  23  42  71 108 151 203 253 317 388 466
#     4  12  31  50  84 117 156 205 273 327 394 474
#     4  10  23  43  80 110 158 196 259 319 395 465
#     4  10  25  50  73 105 157 210 258 327 391 469
#
# _framework density 26.547072
#
# number of rings (size 3 to 8) (size 9 to 14) (size 15 to 20)
#    0.000    1.333    1.667    1.000   14.000    4.000 
#    3.000    0.000    0.000    0.000    0.000    0.000 
#    0.000    0.000    0.000    0.000    0.000    0.000 
#
# Total GULP energy -268208.726105 kJ/mol
# GULP energy per Si atom -5587.681794 kJ/mol
# Density = 2.648665 g / cm^3
# Si number density = 26.547072 Si / 1000 Ang^3
#
#
#
# Elastic Constant Matrix: (Units=GPa)
#
#
# Indices 1 2 3 4 5 6 
#
# 1 219.4293 3.9637 7.2344 0.0000 0.0000 0.0000
# 2 3.9637 87.4698 -18.6311 0.0000 0.0000 0.0000
# 3 7.2344 -18.6311 66.9572 0.0000 0.0000 0.0000
# 4 0.0000 0.0000 0.0000 34.0460 0.0000 0.0000
# 5 0.0000 0.0000 0.0000 0.0000 59.9314 0.0000
# 6 0.0000 0.0000 0.0000 0.0000 0.0000 31.9465
#
#
#
# Elastic Compliance Matrix: (Units=1/GPa)
#
#
# Indices 1 2 3 4 5 6 
#
# 1 0.004583 -0.000333 -0.000588 0.000000 0.000000 0.000000
# 2 -0.000333 0.012177 0.003424 0.000000 0.000000 0.000000
# 3 -0.000588 0.003424 0.015951 0.000000 0.000000 0.000000
# 4 0.000000 0.000000 0.000000 0.029372 0.000000 0.000000
# 5 0.000000 0.000000 0.000000 0.000000 0.016686 0.000000
# 6 0.000000 0.000000 0.000000 0.000000 0.000000 0.031302
#
#
# Mechanical properties :
#
#
# Convention : Reuss Voigt Hill
#
# Bulk Modulus (GPa) = 26.51243 39.88781 33.20012
# Shear Modulus (GPa) = 42.50383 50.60405 46.55394
#
# Velocity S-wave (km/s) = 4.00568 4.37074 4.19219
# Velocity P-wave (km/s) = 5.60381 6.36625 5.99716
#
# Compressibility (1/GPa) = 0.03771815
#
# Stress axis : x y z
#
# Youngs Moduli (GPa) = 218.21354 82.12229 62.69105
#
# Poissons Ratio (x) = 0.02733 0.03685
# Poissons Ratio (y) = 0.07263 -0.21467
# Poissons Ratio (z) = 0.12826 -0.28121
#
# Static dielectric constant tensor:
#      x y z
#    x 2.020870 0.000000 0.000000 
#    y 0.000000 2.240250 0.000000 
#    z 0.000000 0.000000 2.639850 
# 
# From -- ./inp_files/1806.got.cif
#   From: 2010.05.17/outbox.cif.g08.bks.cpg/sg60_1_cif.got.tgz:1806.got - 2010.06.03 14:59:27.
