data_PCOD9457269
_publ_section_title
;
Structure prediction by ZEFSAII (Michael W. Deem and Ramdas Pophale) SiO2 
 PCOD9457269
Probable space group: P B C N
;
_chemical_formula_sum "Si O2"
_cell_formula_units_Z 32
_cell_length_a 8.023361
_cell_length_b 16.376598
_cell_length_c 9.553561
_cell_angle_alpha 90.000000
_cell_angle_beta 90.000000
_cell_angle_gamma 90.000000
_cell_volume 1255.293565
_symmetry_space_group_name_H-M "P B C N"
_symmetry_group_IT_number 60
_symmetry_cell_setting 'orthorhombic'
loop_
_space_group_symop_operation_xyz
x,y,z
1/2-x,1/2-y,1/2+z
1/2+x,1/2-y,-z
-x,y,1/2-z
-x,-y,-z
1/2+x,1/2+y,1/2-z
1/2-x,1/2+y,z
x,-y,1/2+z
loop_
_atom_site_type_symbol
_atom_site_label
_atom_site_fract_x
_atom_site_fract_y
_atom_site_fract_z
Si Si1 0.000000 0.196191 0.750000
Si Si2 0.000000 0.504895 0.750000
Si Si3 0.526262 0.594629 0.007566
Si Si4 0.346114 0.732703 0.352411
Si Si5 0.853894 0.611534 0.493789
O O1 0.837879 0.244420 0.697502
O O2 0.076799 0.133353 0.638080
O O3 0.892245 0.564138 0.643021
O O4 0.080628 0.444231 0.633283
O O5 0.652263 0.636391 0.113142
O O6 0.500000 0.500000 0.000000
O O7 0.340498 0.623851 0.036603
O O8 0.500000 0.746452 0.250000
O O9 0.401925 0.793701 0.479752
#
# Coordination Sequence:
#
# PCOD9457269 Si02
#       5
#     4   4   8   8   8
#     4  10  28  51  79 116 160 210 278 329 428 513
#     4  10  22  47  79 116 176 216 278 349 430 493
#     4  11  28  49  79 114 160 213 282 352 417 506
#     4  11  26  51  80 113 161 213 279 339 420 499
#     4  10  24  47  77 120 161 223 278 346 422 512
#
# _framework density 25.492045999999998
#
# number of rings (size 3 to 8) (size 9 to 14) (size 15 to 20)
#    0.000    1.500    1.250    0.000   15.750    1.000 
#    4.500    0.000    0.000    0.000    0.000    0.000 
#    0.000    0.000    0.000    0.000    0.000    0.000 
#
# Total GULP energy -178675.372186 kJ/mol
# GULP energy per Si atom -5583.605381 kJ/mol
# Density = 2.543403 g / cm^3
# Si number density = 25.492046 Si / 1000 Ang^3
#
#
#
# Elastic Constant Matrix: (Units=GPa)
#
#
# Indices 1 2 3 4 5 6 
#
# 1 108.1931 53.7846 55.6567 0.0000 0.0000 0.0000
# 2 53.7846 207.7000 61.6020 0.0000 0.0000 0.0000
# 3 55.6567 61.6020 137.3008 0.0000 0.0000 0.0000
# 4 0.0000 0.0000 0.0000 28.4382 0.0000 0.0000
# 5 0.0000 0.0000 0.0000 0.0000 42.1855 0.0000
# 6 0.0000 0.0000 0.0000 0.0000 0.0000 40.2529
#
#
#
# Elastic Compliance Matrix: (Units=1/GPa)
#
#
# Indices 1 2 3 4 5 6 
#
# 1 0.012342 -0.001975 -0.004117 0.000000 0.000000 0.000000
# 2 -0.001975 0.005870 -0.001833 0.000000 0.000000 0.000000
# 3 -0.004117 -0.001833 0.009775 0.000000 0.000000 0.000000
# 4 0.000000 0.000000 0.000000 0.035164 0.000000 0.000000
# 5 0.000000 0.000000 0.000000 0.000000 0.023705 0.000000
# 6 0.000000 0.000000 0.000000 0.000000 0.000000 0.024843
#
#
# Mechanical properties :
#
#
# Convention : Reuss Voigt Hill
#
# Bulk Modulus (GPa) = 82.39481 88.36452 85.37966
# Shear Modulus (GPa) = 37.99564 40.98535 39.49050
#
# Velocity S-wave (km/s) = 3.86487 4.01405 3.94017
# Velocity P-wave (km/s) = 7.23245 7.49815 7.36650
#
# Compressibility (1/GPa) = 0.01213669
#
# Stress axis : x y z
#
# Youngs Moduli (GPa) = 81.02120 170.36627 102.30648
#
# Poissons Ratio (x) = 0.33648 0.42120
# Poissons Ratio (y) = 0.16002 0.18752
# Poissons Ratio (z) = 0.33357 0.31227
#
# Static dielectric constant tensor:
#      x y z
#    x 1.707470 0.000000 0.000000 
#    y 0.000000 2.425250 0.000000 
#    z 0.000000 0.000000 2.303390 
# 
# From -- ./inp_files/9637.got.cif
#   From: 2010.05.17/outbox.cif.g08.bks.cpg/sg60_5_cif.got.tgz:9637.got - 2010.06.03 14:59:27.
