data_PCOD9457406
_publ_section_title
;
Structure prediction by ZEFSAII (Michael W. Deem and Ramdas Pophale) SiO2 
 PCOD9457406
Probable space group: P B C N
;
_chemical_formula_sum "Si O2"
_cell_formula_units_Z 32
_cell_length_a 7.452501
_cell_length_b 9.451727
_cell_length_c 16.401521
_cell_angle_alpha 90.000000
_cell_angle_beta 90.000000
_cell_angle_gamma 90.000000
_cell_volume 1155.306818
_symmetry_space_group_name_H-M "P B C N"
_symmetry_group_IT_number 60
_symmetry_cell_setting 'orthorhombic'
loop_
_space_group_symop_operation_xyz
x,y,z
1/2-x,1/2-y,1/2+z
1/2+x,1/2-y,-z
-x,y,1/2-z
-x,-y,-z
1/2+x,1/2+y,1/2-z
1/2-x,1/2+y,z
x,-y,1/2+z
loop_
_atom_site_type_symbol
_atom_site_label
_atom_site_fract_x
_atom_site_fract_y
_atom_site_fract_z
Si Si1 0.294592 0.490283 0.766725
Si Si2 0.674635 0.902215 0.484051
Si Si3 0.152782 0.123054 0.930589
Si Si4 0.298936 0.744800 0.659437
O O1 0.500000 0.441143 0.750000
O O2 0.265428 0.515153 0.862674
O O3 0.279094 0.651112 0.738962
O O4 0.187111 0.398946 0.699238
O O5 0.735783 0.772572 0.542172
O O6 0.645929 0.812296 0.401158
O O7 0.500000 0.000000 0.500000
O O8 0.824892 0.025321 0.488601
O O9 0.971926 0.186096 0.889433
#
# Coordination Sequence:
#
# PCOD9457406 Si02
#       4
#     8   8   8   8
#     4  10  23  42  68  98 133 180 234 292 353 429
#     4  12  25  42  70 106 144 187 237 299 368 436
#     4  11  24  44  69 102 141 186 237 297 362 434
#     4  11  23  44  67  98 138 181 233 292 359 431
#
# _framework density 27.698267999999999
#
# number of rings (size 3 to 8) (size 9 to 14) (size 15 to 20)
#    0.000    1.000    0.000    6.750    0.000    8.000 
#    0.000    6.250    0.000    0.000    0.000    0.000 
#    0.000    0.000    0.000    0.000    0.000    0.000 
#
# Total GULP energy -178193.052210 kJ/mol
# GULP energy per Si atom -5568.532882 kJ/mol
# Density = 2.763523 g / cm^3
# Si number density = 27.698268 Si / 1000 Ang^3
#
#
#
# Elastic Constant Matrix: (Units=GPa)
#
#
# Indices 1 2 3 4 5 6 
#
# 1 79.0310 3.9254 7.8832 0.0000 0.0000 0.0000
# 2 3.9254 187.4202 52.6525 0.0000 0.0000 0.0000
# 3 7.8832 52.6525 94.3185 0.0000 0.0000 0.0000
# 4 0.0000 0.0000 0.0000 65.3154 0.0000 0.0000
# 5 0.0000 0.0000 0.0000 0.0000 32.2684 0.0000
# 6 0.0000 0.0000 0.0000 0.0000 0.0000 30.0771
#
#
#
# Elastic Compliance Matrix: (Units=1/GPa)
#
#
# Indices 1 2 3 4 5 6 
#
# 1 0.012760 0.000038 -0.001088 0.000000 0.000000 0.000000
# 2 0.000038 0.006328 -0.003536 0.000000 0.000000 0.000000
# 3 -0.001088 -0.003536 0.012667 0.000000 0.000000 0.000000
# 4 0.000000 0.000000 0.000000 0.015310 0.000000 0.000000
# 5 0.000000 0.000000 0.000000 0.000000 0.030990 0.000000
# 6 0.000000 0.000000 0.000000 0.000000 0.000000 0.033248
#
#
# Mechanical properties :
#
#
# Convention : Reuss Voigt Hill
#
# Bulk Modulus (GPa) = 44.27830 54.41022 49.34426
# Shear Modulus (GPa) = 39.06181 45.28609 42.17395
#
# Velocity S-wave (km/s) = 3.75942 4.04787 3.90631
# Velocity P-wave (km/s) = 5.90466 6.44466 6.18056
#
# Compressibility (1/GPa) = 0.02258443
#
# Stress axis : x y z
#
# Youngs Moduli (GPa) = 78.37072 158.02452 78.94437
#
# Poissons Ratio (x) = -0.00607 0.08588
# Poissons Ratio (y) = -0.00301 0.27913
# Poissons Ratio (z) = 0.08526 0.55875
#
# Static dielectric constant tensor:
#      x y z
#    x 2.548480 0.000000 0.000000 
#    y 0.000000 2.059230 0.000000 
#    z 0.000000 0.000000 2.240840 
# 
# From -- ./inp_files/21890.got.cif
#   From: 2010.05.17/outbox.cif.g08.bks.cpg/sg60_11_cif.got.tgz:21890.got - 2010.06.03 14:59:27.
