data_PCOD9457499
_publ_section_title
;
Structure prediction by ZEFSAII (Michael W. Deem and Ramdas Pophale) SiO2 
 PCOD9457499
Probable space group: P B C N
;
_chemical_formula_sum "Si O2"
_cell_formula_units_Z 48
_cell_length_a 7.822560
_cell_length_b 26.434583
_cell_length_c 10.792558
_cell_angle_alpha 90.000000
_cell_angle_beta 90.000000
_cell_angle_gamma 90.000000
_cell_volume 2231.751103
_symmetry_space_group_name_H-M "P B C N"
_symmetry_group_IT_number 60
_symmetry_cell_setting 'orthorhombic'
loop_
_space_group_symop_operation_xyz
x,y,z
1/2-x,1/2-y,1/2+z
1/2+x,1/2-y,-z
-x,y,1/2-z
-x,-y,-z
1/2+x,1/2+y,1/2-z
1/2-x,1/2+y,z
x,-y,1/2+z
loop_
_atom_site_type_symbol
_atom_site_label
_atom_site_fract_x
_atom_site_fract_y
_atom_site_fract_z
Si Si1 0.853034 0.195116 0.515114
Si Si2 0.500000 0.339851 0.250000
Si Si3 0.500000 0.160956 0.250000
Si Si4 0.884752 0.496272 0.876640
Si Si5 0.173193 0.392791 0.171393
Si Si6 0.032525 0.698980 0.522504
Si Si7 0.329346 0.601973 0.169848
O O1 0.661942 0.197517 0.570229
O O2 0.869404 0.144715 0.433215
O O3 0.988184 0.192138 0.625603
O O4 0.884790 0.247490 0.443268
O O5 0.333196 0.374279 0.249094
O O6 0.513843 0.193095 0.125309
O O7 0.670644 0.126955 0.255866
O O8 0.792780 0.550624 0.873569
O O9 0.752268 0.449771 0.882487
O O10 0.000000 0.490804 0.750000
O O11 0.000000 0.500000 0.000000
O O12 0.000000 0.395541 0.250000
O O13 0.133874 0.349943 0.069664
O O14 0.500000 0.593308 0.250000
#
# Coordination Sequence:
#
# PCOD9457499 Si02
#       7
#     8   4   4   8   8   8   8
#     4  11  25  43  69 102 145 184 239 285 356 417
#     4  12  25  44  66 104 140 186 235 290 346 422
#     4  10  23  44  66  98 142 182 233 288 358 410
#     4  11  25  47  78 105 146 188 236 303 366 426
#     4  11  25  45  71 100 141 181 236 288 353 418
#     4  11  23  44  69 101 141 187 231 294 347 425
#     4  11  26  45  72 106 139 183 242 291 355 431
#
# _framework density 21.507774999999999
#
# number of rings (size 3 to 8) (size 9 to 14) (size 15 to 20)
#    0.000    1.000    2.500    3.500    8.167    2.000 
#    0.000    1.667    0.000    0.000    0.000    0.000 
#    0.000    0.000    0.000    0.000    0.000    0.000 
#
# Total GULP energy -268232.542877 kJ/mol
# GULP energy per Si atom -5588.177977 kJ/mol
# Density = 2.145882 g / cm^3
# Si number density = 21.507775 Si / 1000 Ang^3
#
#
#
# Elastic Constant Matrix: (Units=GPa)
#
#
# Indices 1 2 3 4 5 6 
#
# 1 118.0580 51.2838 27.7046 0.0000 0.0000 0.0000
# 2 51.2838 212.0443 47.8786 0.0000 0.0000 0.0000
# 3 27.7046 47.8786 74.8065 0.0000 0.0000 0.0000
# 4 0.0000 0.0000 0.0000 -329.5300 0.0000 0.0000
# 5 0.0000 0.0000 0.0000 0.0000 30.7167 0.0000
# 6 0.0000 0.0000 0.0000 0.0000 0.0000 37.9702
#
#
#
# Elastic Compliance Matrix: (Units=1/GPa)
#
#
# Indices 1 2 3 4 5 6 
#
# 1 0.009843 -0.001821 -0.002480 0.000000 0.000000 0.000000
# 2 -0.001821 0.005849 -0.003070 0.000000 0.000000 0.000000
# 3 -0.002480 -0.003070 0.016251 0.000000 0.000000 0.000000
# 4 0.000000 0.000000 0.000000 -0.003035 0.000000 0.000000
# 5 0.000000 0.000000 0.000000 0.000000 0.032556 0.000000
# 6 0.000000 0.000000 0.000000 0.000000 0.000000 0.026336
#
#
# Mechanical properties :
#
#
# Convention : Reuss Voigt Hill
#
# Bulk Modulus (GPa) = 58.12961 73.18253 65.65607
# Shear Modulus (GPa) = 46.17822 -33.63249 6.27287
#
# Velocity S-wave (km/s) = 4.63865 -3.95870 1.70965
# Velocity P-wave (km/s) = 7.46829 3.63385 5.87283
#
# Compressibility (1/GPa) = 0.01720294
#
# Stress axis : x y z
#
# Youngs Moduli (GPa) = 101.59183 170.95742 61.53479
#
# Poissons Ratio (x) = 0.31125 0.15262
# Poissons Ratio (y) = 0.18496 0.18888
# Poissons Ratio (z) = 0.25197 0.52476
#
# Static dielectric constant tensor:
#      x y z
#    x 1.763900 0.000000 0.000000 
#    y 0.000000 1.815240 0.000000 
#    z 0.000000 0.000000 1.853090 
# 
# From -- ./inp_files/10164.got.cif
#   From: 2010.05.17/outbox.cif.g08.bks.cpg/sg60_6_cif.got.tgz:10164.got - 2010.06.03 14:59:27.
