data_PCOD9457637
_publ_section_title
;
Structure prediction by ZEFSAII (Michael W. Deem and Ramdas Pophale) SiO2 
 PCOD9457637
Probable space group: P B C N
;
_chemical_formula_sum "Si O2"
_cell_formula_units_Z 52
_cell_length_a 23.452100
_cell_length_b 8.245426
_cell_length_c 13.511443
_cell_angle_alpha 90.000000
_cell_angle_beta 90.000000
_cell_angle_gamma 90.000000
_cell_volume 2612.742256
_symmetry_space_group_name_H-M "P B C N"
_symmetry_group_IT_number 60
_symmetry_cell_setting 'orthorhombic'
loop_
_space_group_symop_operation_xyz
x,y,z
1/2-x,1/2-y,1/2+z
1/2+x,1/2-y,-z
-x,y,1/2-z
-x,-y,-z
1/2+x,1/2+y,1/2-z
1/2-x,1/2+y,z
x,-y,1/2+z
loop_
_atom_site_type_symbol
_atom_site_label
_atom_site_fract_x
_atom_site_fract_y
_atom_site_fract_z
Si Si1 0.325846 0.879283 0.991491
Si Si2 0.500000 0.012332 0.250000
Si Si3 0.009230 0.236886 0.930968
Si Si4 0.622634 0.659180 0.659084
Si Si5 0.924713 0.312213 0.377200
Si Si6 0.393411 0.432842 0.119764
Si Si7 0.795594 0.022783 0.515446
O O1 0.357003 0.830353 0.888627
O O2 0.270507 0.985377 0.977521
O O3 0.301152 0.705036 0.025510
O O4 0.374237 0.916942 0.071559
O O5 0.447779 0.895998 0.220719
O O6 0.491713 0.126496 0.345442
O O7 0.062736 0.124950 0.896102
O O8 0.949570 0.144505 0.928833
O O9 0.026057 0.302883 0.038532
O O10 0.614860 0.651454 0.774603
O O11 0.671212 0.535881 0.620280
O O12 0.905609 0.125234 0.363400
O O13 0.336390 0.416296 0.054276
#
# Coordination Sequence:
#
# PCOD9457637 Si02
#       7
#     8   4   8   8   8   8   8
#     4   8  19  42  57  84 124 153 200 257 299 361
#     4  12  24  36  60  96 126 166 194 256 324 368
#     4  11  21  41  62  88 128 162 194 261 309 370
#     4   9  20  38  60  89 120 149 211 239 311 362
#     4  10  24  39  61  93 127 158 212 254 305 380
#     4  11  20  38  68  87 119 168 208 250 303 378
#     4   9  20  38  61  84 120 158 203 255 302 357
#
# _framework density 19.902462
#
# number of rings (size 3 to 8) (size 9 to 14) (size 15 to 20)
#    0.923    1.231    3.077    0.923    2.154    1.231 
#    5.538    4.615    0.000    0.000    0.000    0.000 
#    0.000    0.000    0.000    0.000    0.000    0.000 
#
# Total GULP energy -289564.067300 kJ/mol
# GULP energy per Si atom -5568.539756 kJ/mol
# Density = 1.985716 g / cm^3
# Si number density = 19.902462 Si / 1000 Ang^3
#
#
#
# Elastic Constant Matrix: (Units=GPa)
#
#
# Indices 1 2 3 4 5 6 
#
# 1 77.8738 16.1916 13.3212 0.0000 0.0000 0.0000
# 2 16.1916 24.9911 6.4726 0.0000 0.0000 0.0000
# 3 13.3212 6.4726 37.9832 0.0000 0.0000 0.0000
# 4 0.0000 0.0000 0.0000 20.9957 0.0000 0.0000
# 5 0.0000 0.0000 0.0000 0.0000 14.2550 0.0000
# 6 0.0000 0.0000 0.0000 0.0000 0.0000 30.2299
#
#
#
# Elastic Compliance Matrix: (Units=1/GPa)
#
#
# Indices 1 2 3 4 5 6 
#
# 1 0.015364 -0.008954 -0.003862 0.000000 0.000000 0.000000
# 2 -0.008954 0.047080 -0.004883 0.000000 0.000000 0.000000
# 3 -0.003862 -0.004883 0.028514 0.000000 0.000000 0.000000
# 4 0.000000 0.000000 0.000000 0.047629 0.000000 0.000000
# 5 0.000000 0.000000 0.000000 0.000000 0.070151 0.000000
# 6 0.000000 0.000000 0.000000 0.000000 0.000000 0.033080
#
#
# Mechanical properties :
#
#
# Convention : Reuss Voigt Hill
#
# Bulk Modulus (GPa) = 17.99850 23.64653 20.82252
# Shear Modulus (GPa) = 16.90705 20.08696 18.49701
#
# Velocity S-wave (km/s) = 2.91777 3.18035 3.05189
# Velocity P-wave (km/s) = 4.51821 5.03916 4.78578
#
# Compressibility (1/GPa) = 0.05556018
#
# Stress axis : x y z
#
# Youngs Moduli (GPa) = 65.08867 21.24054 35.07041
#
# Poissons Ratio (x) = 0.19018 0.13546
# Poissons Ratio (y) = 0.58278 0.17123
# Poissons Ratio (z) = 0.25140 0.10371
#
# Static dielectric constant tensor:
#      x y z
#    x 1.741250 0.000000 0.000000 
#    y 0.000000 1.765080 0.000000 
#    z 0.000000 0.000000 1.686030 
# 
# From -- ./inp_files/17892.got.cif
#   From: 2010.05.17/outbox.cif.g08.bks.cpg/sg60_9_cif.got.tgz:17892.got - 2010.06.03 14:59:27.
