data_PCOD9457527
_publ_section_title
;
Structure prediction by ZEFSAII (Michael W. Deem and Ramdas Pophale) SiO2 
 PCOD9457527
Probable space group: P B C N
;
_chemical_formula_sum "Si O2"
_cell_formula_units_Z 56
_cell_length_a 13.994158
_cell_length_b 22.036719
_cell_length_c 7.576388
_cell_angle_alpha 90.000000
_cell_angle_beta 90.000000
_cell_angle_gamma 90.000000
_cell_volume 2336.446895
_symmetry_space_group_name_H-M "P B C N"
_symmetry_group_IT_number 60
_symmetry_cell_setting 'orthorhombic'
loop_
_space_group_symop_operation_xyz
x,y,z
1/2-x,1/2-y,1/2+z
1/2+x,1/2-y,-z
-x,y,1/2-z
-x,-y,-z
1/2+x,1/2+y,1/2-z
1/2-x,1/2+y,z
x,-y,1/2+z
loop_
_atom_site_type_symbol
_atom_site_label
_atom_site_fract_x
_atom_site_fract_y
_atom_site_fract_z
Si Si1 0.774555 0.467415 0.343502
Si Si2 0.027076 0.808317 0.039589
Si Si3 0.309222 0.775984 0.654467
Si Si4 0.944292 0.941065 0.431679
Si Si5 0.376404 0.217884 0.556356
Si Si6 0.325856 0.909956 0.535017
Si Si7 0.537688 0.087340 0.932833
O O1 0.668277 0.452535 0.407898
O O2 0.781882 0.540033 0.335564
O O3 0.793375 0.432454 0.159658
O O4 0.863497 0.447300 0.469588
O O5 0.115226 0.761934 0.039608
O O6 0.046459 0.876045 0.973561
O O7 0.000000 0.809390 0.250000
O O8 0.943160 0.776219 0.934487
O O9 0.217883 0.732611 0.664176
O O10 0.348265 0.788092 0.850093
O O11 0.291761 0.841796 0.570074
O O12 0.000000 0.930919 0.250000
O O13 0.000000 0.000000 0.500000
O O14 0.429778 0.156245 0.602571
O O15 0.442239 0.911545 0.550583
O O16 0.500000 0.058856 0.750000
#
# Coordination Sequence:
#
# PCOD9457527 Si02
#       7
#     8   8   8   8   8   8   8
#     4  11  25  43  69  97 139 186 236 291 355 430
#     4   9  21  42  66  94 129 176 220 285 349 414
#     4  11  25  42  71 102 138 184 235 293 365 432
#     4  11  24  44  70  94 136 181 237 286 352 420
#     4  11  24  42  70 100 140 180 233 293 358 428
#     4  11  25  45  69 102 142 186 238 292 371 435
#     4  10  23  44  71 103 140 183 232 297 357 431
#
# _framework density 23.968018000000001
#
# number of rings (size 3 to 8) (size 9 to 14) (size 15 to 20)
#    0.000    1.429    1.429    2.143   14.000    0.000 
#    2.571    0.714    0.000    0.000    0.000    0.000 
#    0.000    0.000    0.000    0.000    0.000    0.000 
#
# Total GULP energy -313216.789634 kJ/mol
# GULP energy per Si atom -5593.156958 kJ/mol
# Density = 2.391347 g / cm^3
# Si number density = 23.968018 Si / 1000 Ang^3
#
#
#
# Elastic Constant Matrix: (Units=GPa)
#
#
# Indices 1 2 3 4 5 6 
#
# 1 137.8320 32.6086 -8.3228 0.0000 0.0000 0.0000
# 2 32.6086 181.1468 0.4248 0.0000 0.0000 0.0000
# 3 -8.3228 0.4248 31.9939 0.0000 0.0000 0.0000
# 4 0.0000 0.0000 0.0000 18.2738 0.0000 0.0000
# 5 0.0000 0.0000 0.0000 0.0000 29.1084 0.0000
# 6 0.0000 0.0000 0.0000 0.0000 0.0000 37.8332
#
#
#
# Elastic Compliance Matrix: (Units=1/GPa)
#
#
# Indices 1 2 3 4 5 6 
#
# 1 0.007707 -0.001392 0.002023 0.000000 0.000000 0.000000
# 2 -0.001392 0.005772 -0.000439 0.000000 0.000000 0.000000
# 3 0.002023 -0.000439 0.031788 0.000000 0.000000 0.000000
# 4 0.000000 0.000000 0.000000 0.054723 0.000000 0.000000
# 5 0.000000 0.000000 0.000000 0.000000 0.034354 0.000000
# 6 0.000000 0.000000 0.000000 0.000000 0.000000 0.026432
#
#
# Mechanical properties :
#
#
# Convention : Reuss Voigt Hill
#
# Bulk Modulus (GPa) = 21.90492 44.48820 33.19656
# Shear Modulus (GPa) = 28.47244 38.79389 33.63316
#
# Velocity S-wave (km/s) = 3.45038 4.02751 3.75006
# Velocity P-wave (km/s) = 5.00326 6.34268 5.71236
#
# Compressibility (1/GPa) = 0.04565184
#
# Stress axis : x y z
#
# Youngs Moduli (GPa) = 129.75693 173.25022 31.45826
#
# Poissons Ratio (x) = 0.24117 -0.06365
# Poissons Ratio (y) = 0.18063 0.01380
# Poissons Ratio (z) = -0.26254 0.07602
#
# Static dielectric constant tensor:
#      x y z
#    x 1.906150 0.000000 0.000000 
#    y 0.000000 1.920880 0.000000 
#    z 0.000000 0.000000 1.980900 
# 
# From -- ./inp_files/6171.got.cif
#   From: 2010.05.17/outbox.cif.g08.bks.cpg/sg60_4_cif.got.tgz:6171.got - 2010.06.03 14:59:27.
