data_PCOD9457355
_publ_section_title
;
Structure prediction by ZEFSAII (Michael W. Deem and Ramdas Pophale) SiO2 
 PCOD9457355
Probable space group: P B C N
;
_chemical_formula_sum "Si O2"
_cell_formula_units_Z 40
_cell_length_a 15.167151
_cell_length_b 10.115136
_cell_length_c 9.519775
_cell_angle_alpha 90.000000
_cell_angle_beta 90.000000
_cell_angle_gamma 90.000000
_cell_volume 1460.502890
_symmetry_space_group_name_H-M "P B C N"
_symmetry_group_IT_number 60
_symmetry_cell_setting 'orthorhombic'
loop_
_space_group_symop_operation_xyz
x,y,z
1/2-x,1/2-y,1/2+z
1/2+x,1/2-y,-z
-x,y,1/2-z
-x,-y,-z
1/2+x,1/2+y,1/2-z
1/2-x,1/2+y,z
x,-y,1/2+z
loop_
_atom_site_type_symbol
_atom_site_label
_atom_site_fract_x
_atom_site_fract_y
_atom_site_fract_z
Si Si1 0.586303 0.749077 0.163013
Si Si2 0.237385 0.229170 0.674230
Si Si3 0.520709 0.196188 0.086620
Si Si4 0.865962 0.054858 0.631925
Si Si5 0.799288 0.412437 0.585091
O O1 0.500000 0.785428 0.250000
O O2 0.670140 0.803030 0.246299
O O3 0.594378 0.589574 0.156004
O O4 0.565708 0.802651 0.008227
O O5 0.259262 0.204048 0.513316
O O6 0.210563 0.365174 0.752317
O O7 0.162722 0.125941 0.723526
O O8 0.500000 0.184387 0.250000
O O9 0.568342 0.340064 0.061981
O O10 0.597224 0.089481 0.053430
O O11 0.771871 0.025634 0.558019
#
# Coordination Sequence:
#
# PCOD9457355 Si02
#       5
#     8   8   8   8   8
#     4  11  22  41  65  94 131 165 210 272 324 370
#     4  10  23  41  63  94 132 172 214 265 328 389
#     4  11  24  43  65  98 133 168 215 270 325 377
#     4  10  24  38  67  95 125 169 217 258 316 387
#     4  10  23  42  64  93 132 173 212 264 327 389
#
# _framework density 27.387827999999999
#
# number of rings (size 3 to 8) (size 9 to 14) (size 15 to 20)
#    0.000    1.600    2.000    1.200   14.000    1.600 
#    0.000    2.000    0.000    0.000    0.000    0.000 
#    0.000    0.000    0.000    0.000    0.000    0.000 
#
# Total GULP energy -223870.618736 kJ/mol
# GULP energy per Si atom -5596.765468 kJ/mol
# Density = 2.732549 g / cm^3
# Si number density = 27.387828 Si / 1000 Ang^3
#
#
#
# Elastic Constant Matrix: (Units=GPa)
#
#
# Indices 1 2 3 4 5 6 
#
# 1 105.2977 17.2008 -4.5908 0.0000 0.0000 0.0000
# 2 17.2008 115.2111 38.5969 0.0000 0.0000 0.0000
# 3 -4.5908 38.5969 82.2841 0.0000 0.0000 0.0000
# 4 0.0000 0.0000 0.0000 13.4440 0.0000 0.0000
# 5 0.0000 0.0000 0.0000 0.0000 54.2299 0.0000
# 6 0.0000 0.0000 0.0000 0.0000 0.0000 47.3879
#
#
#
# Elastic Compliance Matrix: (Units=1/GPa)
#
#
# Indices 1 2 3 4 5 6 
#
# 1 0.009883 -0.001970 0.001475 0.000000 0.000000 0.000000
# 2 -0.001970 0.010691 -0.005125 0.000000 0.000000 0.000000
# 3 0.001475 -0.005125 0.014639 0.000000 0.000000 0.000000
# 4 0.000000 0.000000 0.000000 0.074383 0.000000 0.000000
# 5 0.000000 0.000000 0.000000 0.000000 0.018440 0.000000
# 6 0.000000 0.000000 0.000000 0.000000 0.000000 0.021102
#
#
# Mechanical properties :
#
#
# Convention : Reuss Voigt Hill
#
# Bulk Modulus (GPa) = 41.71055 45.02299 43.36677
# Shear Modulus (GPa) = 29.69699 39.78475 34.74087
#
# Velocity S-wave (km/s) = 3.29646 3.81549 3.56543
# Velocity P-wave (km/s) = 5.45450 5.99044 5.72874
#
# Compressibility (1/GPa) = 0.02397475
#
# Stress axis : x y z
#
# Youngs Moduli (GPa) = 101.18410 93.54039 68.31033
#
# Poissons Ratio (x) = 0.18425 -0.10078
# Poissons Ratio (y) = 0.19931 0.35006
# Poissons Ratio (z) = -0.14928 0.47935
#
# Static dielectric constant tensor:
#      x y z
#    x 2.138510 0.000000 0.000000 
#    y 0.000000 2.145730 0.000000 
#    z 0.000000 0.000000 2.177300 
# 
# From -- ./inp_files/11714.got.cif
#   From: 2010.05.17/outbox.cif.g08.bks.cpg/sg60_6_cif.got.tgz:11714.got - 2010.06.03 14:59:27.
