data_PCOD9457474
_publ_section_title
;
Structure prediction by ZEFSAII (Michael W. Deem and Ramdas Pophale) SiO2 
 PCOD9457474
Probable space group: P B C N
;
_chemical_formula_sum "Si O2"
_cell_formula_units_Z 40
_cell_length_a 9.313216
_cell_length_b 9.975635
_cell_length_c 19.832062
_cell_angle_alpha 90.000000
_cell_angle_beta 90.000000
_cell_angle_gamma 90.000000
_cell_volume 1842.502549
_symmetry_space_group_name_H-M "P B C N"
_symmetry_group_IT_number 60
_symmetry_cell_setting 'orthorhombic'
loop_
_space_group_symop_operation_xyz
x,y,z
1/2-x,1/2-y,1/2+z
1/2+x,1/2-y,-z
-x,y,1/2-z
-x,-y,-z
1/2+x,1/2+y,1/2-z
1/2-x,1/2+y,z
x,-y,1/2+z
loop_
_atom_site_type_symbol
_atom_site_label
_atom_site_fract_x
_atom_site_fract_y
_atom_site_fract_z
Si Si1 0.834343 0.010364 0.481871
Si Si2 0.076479 0.540431 0.930678
Si Si3 0.625647 0.880950 0.698683
Si Si4 0.320424 0.777622 0.098394
Si Si5 0.329063 0.827201 0.250796
O O1 0.741434 0.052853 0.547453
O O2 0.811436 0.126554 0.426752
O O3 0.773369 0.872560 0.450610
O O4 0.000000 0.000000 0.500000
O O5 0.065148 0.426695 0.873546
O O6 0.984933 0.667787 0.906457
O O7 0.000000 0.500000 0.000000
O O8 0.500000 0.839966 0.750000
O O9 0.744743 0.767198 0.697921
O O10 0.690517 0.018269 0.729500
O O11 0.274683 0.796956 0.175474
O O12 0.500000 0.802026 0.250000
#
# Coordination Sequence:
#
# PCOD9457474 Si02
#       5
#     8   8   8   8   8
#     4  11  25  41  70 100 136 177 229 278 340 406
#     4  10  23  43  69  96 136 178 219 278 341 403
#     4  11  24  46  68 100 132 178 223 276 340 402
#     4  11  22  45  67  98 138 176 223 280 341 401
#     4  11  24  43  72  95 138 176 225 280 336 401
#
# _framework density 21.709603999999999
#
# number of rings (size 3 to 8) (size 9 to 14) (size 15 to 20)
#    0.000    1.200    4.000    2.400    5.600    4.000 
#    3.600    0.000    0.000    0.000    0.000    0.000 
#    0.000    0.000    0.000    0.000    0.000    0.000 
#
# Total GULP energy -223696.173068 kJ/mol
# GULP energy per Si atom -5592.404327 kJ/mol
# Density = 2.166019 g / cm^3
# Si number density = 21.709604 Si / 1000 Ang^3
#
#
#
# Elastic Constant Matrix: (Units=GPa)
#
#
# Indices 1 2 3 4 5 6 
#
# 1 94.6348 13.6987 -2.5655 0.0000 0.0000 0.0000
# 2 13.6987 64.3063 -14.9915 0.0000 0.0000 0.0000
# 3 -2.5655 -14.9915 93.3586 0.0000 0.0000 0.0000
# 4 0.0000 0.0000 0.0000 23.8524 0.0000 0.0000
# 5 0.0000 0.0000 0.0000 0.0000 34.6620 0.0000
# 6 0.0000 0.0000 0.0000 0.0000 0.0000 31.7329
#
#
#
# Elastic Compliance Matrix: (Units=1/GPa)
#
#
# Indices 1 2 3 4 5 6 
#
# 1 0.010904 -0.002340 -0.000076 0.000000 0.000000 0.000000
# 2 -0.002340 0.016658 0.002611 0.000000 0.000000 0.000000
# 3 -0.000076 0.002611 0.011129 0.000000 0.000000 0.000000
# 4 0.000000 0.000000 0.000000 0.041925 0.000000 0.000000
# 5 0.000000 0.000000 0.000000 0.000000 0.028850 0.000000
# 6 0.000000 0.000000 0.000000 0.000000 0.000000 0.031513
#
#
# Mechanical properties :
#
#
# Convention : Reuss Voigt Hill
#
# Bulk Modulus (GPa) = 25.59005 27.17590 26.38298
# Shear Modulus (GPa) = 32.54876 35.12665 33.83770
#
# Velocity S-wave (km/s) = 3.87625 4.02683 3.95226
# Velocity P-wave (km/s) = 5.64330 5.84513 5.74510
#
# Compressibility (1/GPa) = 0.03907768
#
# Stress axis : x y z
#
# Youngs Moduli (GPa) = 91.71228 60.03211 89.85935
#
# Poissons Ratio (x) = 0.14050 0.00685
# Poissons Ratio (y) = 0.21465 -0.23459
# Poissons Ratio (z) = 0.00699 -0.15672
#
# Static dielectric constant tensor:
#      x y z
#    x 1.805130 0.000000 0.000000 
#    y 0.000000 1.729770 0.000000 
#    z 0.000000 0.000000 1.825910 
# 
# From -- ./inp_files/21990.got.cif
#   From: 2010.05.17/outbox.cif.g08.bks.cpg/sg60_11_cif.got.tgz:21990.got - 2010.06.03 14:59:27.
