data_PCOD9457331
_publ_section_title
;
Structure prediction by ZEFSAII (Michael W. Deem and Ramdas Pophale) SiO2 
 PCOD9457331
Probable space group: P B C N
;
_chemical_formula_sum "Si O2"
_cell_formula_units_Z 32
_cell_length_a 7.703633
_cell_length_b 35.393461
_cell_length_c 5.212426
_cell_angle_alpha 90.000000
_cell_angle_beta 90.000000
_cell_angle_gamma 90.000000
_cell_volume 1421.210869
_symmetry_space_group_name_H-M "P B C N"
_symmetry_group_IT_number 60
_symmetry_cell_setting 'orthorhombic'
loop_
_space_group_symop_operation_xyz
x,y,z
1/2-x,1/2-y,1/2+z
1/2+x,1/2-y,-z
-x,y,1/2-z
-x,-y,-z
1/2+x,1/2+y,1/2-z
1/2-x,1/2+y,z
x,-y,1/2+z
loop_
_atom_site_type_symbol
_atom_site_label
_atom_site_fract_x
_atom_site_fract_y
_atom_site_fract_z
Si Si1 0.703263 0.357770 0.324110
Si Si2 0.303242 0.728800 0.650111
Si Si3 0.803709 0.984138 0.971694
Si Si4 0.304734 0.902531 0.669821
O O1 0.500000 0.358295 0.250000
O O2 0.759982 0.314410 0.361380
O O3 0.726599 0.380274 0.588472
O O4 0.801331 0.377011 0.085584
O O5 0.294484 0.747610 0.370560
O O6 0.500000 0.728125 0.750000
O O7 0.798037 0.940756 0.893535
O O8 0.719834 0.008743 0.746732
O O9 0.000000 0.000000 0.000000
O O10 0.500000 0.912738 0.750000
#
# Coordination Sequence:
#
# PCOD9457331 Si02
#       4
#     8   8   8   8
#     4  11  26  44  69  98 136 183 227 266 341 415
#     4  11  24  43  68 101 135 179 226 276 331 404
#     4  10  23  40  65  95 126 173 229 264 345 402
#     4  12  26  43  68 102 137 171 226 292 340 393
#
# _framework density 22.516010999999999
#
# number of rings (size 3 to 8) (size 9 to 14) (size 15 to 20)
#    0.000    1.000    0.000    5.250   10.500   11.000 
#    0.000    0.000    0.000    0.000    0.000    0.000 
#    0.000    0.000    0.000    0.000    0.000    0.000 
#
# Total GULP energy -179135.394837 kJ/mol
# GULP energy per Si atom -5597.981089 kJ/mol
# Density = 2.246476 g / cm^3
# Si number density = 22.516011 Si / 1000 Ang^3
#
#
#
# Elastic Constant Matrix: (Units=GPa)
#
#
# Indices 1 2 3 4 5 6 
#
# 1 58.4545 35.7925 9.1418 0.0000 0.0000 0.0000
# 2 35.7925 203.4231 89.2203 0.0000 0.0000 0.0000
# 3 9.1418 89.2203 196.9832 0.0000 0.0000 0.0000
# 4 0.0000 0.0000 0.0000 66.7224 0.0000 0.0000
# 5 0.0000 0.0000 0.0000 0.0000 31.7067 0.0000
# 6 0.0000 0.0000 0.0000 0.0000 0.0000 -10.0782
#
#
#
# Elastic Compliance Matrix: (Units=1/GPa)
#
#
# Indices 1 2 3 4 5 6 
#
# 1 0.019274 -0.003742 0.000801 0.000000 0.000000 0.000000
# 2 -0.003742 0.006861 -0.002934 0.000000 0.000000 0.000000
# 3 0.000801 -0.002934 0.006368 0.000000 0.000000 0.000000
# 4 0.000000 0.000000 0.000000 0.014987 0.000000 0.000000
# 5 0.000000 0.000000 0.000000 0.000000 0.031539 0.000000
# 6 0.000000 0.000000 0.000000 0.000000 0.000000 -0.099224
#
#
# Mechanical properties :
#
#
# Convention : Reuss Voigt Hill
#
# Bulk Modulus (GPa) = 48.18908 80.79666 64.49287
# Shear Modulus (GPa) = -3277.71539 39.31726 -1619.19907
#
# Velocity S-wave (km/s) = -38.19538 4.18328 -26.84573
# Velocity P-wave (km/s) = 43.86039 7.70033 30.53227
#
# Compressibility (1/GPa) = 0.02075159
#
# Stress axis : x y z
#
# Youngs Moduli (GPa) = 51.88444 145.74814 157.02745
#
# Poissons Ratio (x) = 0.54544 -0.12571
# Poissons Ratio (y) = 0.19417 0.46071
# Poissons Ratio (z) = -0.04154 0.42762
#
# Static dielectric constant tensor:
#      x y z
#    x 1.867650 0.000000 0.000000 
#    y 0.000000 1.800690 0.000000 
#    z 0.000000 0.000000 1.877370 
# 
# From -- ./inp_files/438.got.cif
#   From: 2010.05.17/outbox.cif.g08.bks.cpg/sg60_1_cif.got.tgz:438.got - 2010.06.03 14:59:27.
