data_PCOD9457215
_publ_section_title
;
Structure prediction by ZEFSAII (Michael W. Deem and Ramdas Pophale) SiO2 
 PCOD9457215
Probable space group: P B C N
;
_chemical_formula_sum "Si O2"
_cell_formula_units_Z 40
_cell_length_a 13.383439
_cell_length_b 13.123971
_cell_length_c 9.425131
_cell_angle_alpha 90.000000
_cell_angle_beta 90.000000
_cell_angle_gamma 90.000000
_cell_volume 1655.466440
_symmetry_space_group_name_H-M "P B C N"
_symmetry_group_IT_number 60
_symmetry_cell_setting 'orthorhombic'
loop_
_space_group_symop_operation_xyz
x,y,z
1/2-x,1/2-y,1/2+z
1/2+x,1/2-y,-z
-x,y,1/2-z
-x,-y,-z
1/2+x,1/2+y,1/2-z
1/2-x,1/2+y,z
x,-y,1/2+z
loop_
_atom_site_type_symbol
_atom_site_label
_atom_site_fract_x
_atom_site_fract_y
_atom_site_fract_z
Si Si1 0.612399 0.069384 0.776413
Si Si2 0.546769 0.348875 0.393784
Si Si3 0.195758 0.590259 0.408573
Si Si4 0.789686 0.294741 0.037587
Si Si5 0.142661 0.955821 0.534204
O O1 0.500000 0.101463 0.750000
O O2 0.643930 0.072266 0.938751
O O3 0.675805 0.141769 0.673652
O O4 0.628890 0.957432 0.712616
O O5 0.500000 0.308112 0.250000
O O6 0.618682 0.265639 0.465369
O O7 0.608724 0.453629 0.360760
O O8 0.455469 0.392301 0.489538
O O9 0.216548 0.708517 0.403245
O O10 0.300955 0.528031 0.417724
O O11 0.726544 0.370324 0.935644
#
# Coordination Sequence:
#
# PCOD9457215 Si02
#       5
#     8   8   8   8   8
#     4  11  25  48  70 104 145 190 241 296 367 430
#     4  10  22  45  71 101 142 189 240 295 359 432
#     4  10  24  46  71 101 146 190 234 302 360 427
#     4  10  24  43  70 108 139 186 244 298 357 431
#     4   9  22  44  65 101 141 183 237 289 358 422
#
# _framework density 24.162375999999998
#
# number of rings (size 3 to 8) (size 9 to 14) (size 15 to 20)
#    0.000    2.000    0.000    0.600   14.000    3.200 
#    7.200    0.000    0.000    0.000    0.000    0.000 
#    0.000    0.000    0.000    0.000    0.000    0.000 
#
# Total GULP energy -223627.884417 kJ/mol
# GULP energy per Si atom -5590.697110 kJ/mol
# Density = 2.410738 g / cm^3
# Si number density = 24.162376 Si / 1000 Ang^3
#
#
#
# Elastic Constant Matrix: (Units=GPa)
#
#
# Indices 1 2 3 4 5 6 
#
# 1 98.4886 39.6784 32.5292 0.0000 0.0000 0.0000
# 2 39.6784 122.5278 13.2830 0.0000 0.0000 0.0000
# 3 32.5292 13.2830 65.2713 0.0000 0.0000 0.0000
# 4 0.0000 0.0000 0.0000 181.7308 0.0000 0.0000
# 5 0.0000 0.0000 0.0000 0.0000 33.0573 0.0000
# 6 0.0000 0.0000 0.0000 0.0000 0.0000 -7.4507
#
#
#
# Elastic Compliance Matrix: (Units=1/GPa)
#
#
# Indices 1 2 3 4 5 6 
#
# 1 0.013669 -0.003771 -0.006045 0.000000 0.000000 0.000000
# 2 -0.003771 0.009386 -0.000031 0.000000 0.000000 0.000000
# 3 -0.006045 -0.000031 0.018339 0.000000 0.000000 0.000000
# 4 0.000000 0.000000 0.000000 0.005503 0.000000 0.000000
# 5 0.000000 0.000000 0.000000 0.000000 0.030251 0.000000
# 6 0.000000 0.000000 0.000000 0.000000 0.000000 -0.134215
#
#
# Mechanical properties :
#
#
# Convention : Reuss Voigt Hill
#
# Bulk Modulus (GPa) = 46.08027 50.80765 48.44396
# Shear Modulus (GPa) = -165.89572 54.85393 -55.52089
#
# Velocity S-wave (km/s) = -8.29504 4.76985 -4.79876
# Velocity P-wave (km/s) = 8.52239 7.16998 3.25750
#
# Compressibility (1/GPa) = 0.02170126
#
# Stress axis : x y z
#
# Youngs Moduli (GPa) = 73.15642 106.54183 54.52715
#
# Poissons Ratio (x) = 0.40180 0.32961
# Poissons Ratio (y) = 0.27589 0.00167
# Poissons Ratio (z) = 0.44222 0.00326
#
# Static dielectric constant tensor:
#      x y z
#    x 1.981480 0.000000 0.000000 
#    y 0.000000 1.921980 0.000000 
#    z 0.000000 0.000000 1.925570 
# 
# From -- ./inp_files/5654.got.cif
#   From: 2010.05.17/outbox.cif.g08.bks.cpg/sg60_3_cif.got.tgz:5654.got - 2010.06.03 14:59:27.
