data_PCOD9457825
_publ_section_title
;
Structure prediction by ZEFSAII (Michael W. Deem and Ramdas Pophale) SiO2 
 PCOD9457825
Probable space group: P B C N
;
_chemical_formula_sum "Si O2"
_cell_formula_units_Z 28
_cell_length_a 5.383910
_cell_length_b 24.880227
_cell_length_c 8.698196
_cell_angle_alpha 90.000000
_cell_angle_beta 90.000000
_cell_angle_gamma 90.000000
_cell_volume 1165.148605
_symmetry_space_group_name_H-M "P B C N"
_symmetry_group_IT_number 60
_symmetry_cell_setting 'orthorhombic'
loop_
_space_group_symop_operation_xyz
x,y,z
1/2-x,1/2-y,1/2+z
1/2+x,1/2-y,-z
-x,y,1/2-z
-x,-y,-z
1/2+x,1/2+y,1/2-z
1/2-x,1/2+y,z
x,-y,1/2+z
loop_
_atom_site_type_symbol
_atom_site_label
_atom_site_fract_x
_atom_site_fract_y
_atom_site_fract_z
Si Si1 0.327191 0.550410 0.519399
Si Si2 0.509476 0.660049 0.429968
Si Si3 0.249444 0.235677 0.647464
Si Si4 0.000000 0.507956 0.250000
O O1 0.500000 0.500000 0.500000
O O2 0.492245 0.603800 0.516746
O O3 0.130242 0.545873 0.377865
O O4 0.187023 0.534057 0.672617
O O5 0.500000 0.645866 0.250000
O O6 0.724725 0.705016 0.427467
O O7 0.285817 0.693419 0.509557
O O8 0.500000 0.228295 0.750000
O O9 0.000000 0.231058 0.750000
#
# Coordination Sequence:
#
# PCOD9457825 Si02
#       4
#     8   8   8   4
#     4  11  24  48  73 107 148 194 251 312 382 457
#     4  11  24  47  74 106 150 197 254 314 382 456
#     4  11  26  50  74 113 155 201 256 318 387 460
#     4  10  24  46  72 108 142 194 252 308 390 446
#
# _framework density 24.031269999999999
#
# number of rings (size 3 to 8) (size 9 to 14) (size 15 to 20)
#    0.000    1.143    0.000    6.000    2.000    2.286 
#   64.286    0.000    0.000    0.000    0.000    0.000 
#    0.000    0.000    0.000    0.000    0.000    0.000 
#
# Total GULP energy -156311.331983 kJ/mol
# GULP energy per Si atom -5582.547571 kJ/mol
# Density = 2.397657 g / cm^3
# Si number density = 24.031270 Si / 1000 Ang^3
#
#
#
# Elastic Constant Matrix: (Units=GPa)
#
#
# Indices 1 2 3 4 5 6 
#
# 1 125.6569 17.4943 41.0256 0.0000 0.0000 0.0000
# 2 17.4943 141.6782 4.9336 0.0000 0.0000 0.0000
# 3 41.0256 4.9336 64.7335 0.0000 0.0000 0.0000
# 4 0.0000 0.0000 0.0000 -33.0838 0.0000 0.0000
# 5 0.0000 0.0000 0.0000 0.0000 53.4590 0.0000
# 6 0.0000 0.0000 0.0000 0.0000 0.0000 30.9613
#
#
#
# Elastic Compliance Matrix: (Units=1/GPa)
#
#
# Indices 1 2 3 4 5 6 
#
# 1 0.010184 -0.001035 -0.006375 0.000000 0.000000 0.000000
# 2 -0.001035 0.007182 0.000109 0.000000 0.000000 0.000000
# 3 -0.006375 0.000109 0.019480 0.000000 0.000000 0.000000
# 4 0.000000 0.000000 0.000000 -0.030226 0.000000 0.000000
# 5 0.000000 0.000000 0.000000 0.000000 0.018706 0.000000
# 6 0.000000 0.000000 0.000000 0.000000 0.000000 0.032298
#
#
# Mechanical properties :
#
#
# Convention : Reuss Voigt Hill
#
# Bulk Modulus (GPa) = 44.95899 50.99730 47.97814
# Shear Modulus (GPa) = 62.78110 28.17498 45.47804
#
# Velocity S-wave (km/s) = 5.11678 3.42779 4.35495
# Velocity P-wave (km/s) = 7.32515 6.07730 6.73021
#
# Compressibility (1/GPa) = 0.02224249
#
# Stress axis : x y z
#
# Youngs Moduli (GPa) = 98.19559 139.23084 51.33476
#
# Poissons Ratio (x) = 0.14417 0.32727
# Poissons Ratio (y) = 0.10168 -0.00559
# Poissons Ratio (z) = 0.62601 -0.01516
#
# Static dielectric constant tensor:
#      x y z
#    x 1.859850 0.000000 0.000000 
#    y 0.000000 1.853020 0.000000 
#    z 0.000000 0.000000 0.931300 
# 
# From -- ./inp_files/2966.got.cif
#   From: 2010.05.17/outbox.cif.g08.bks.cpg/sg60_2_cif.got.tgz:2966.got - 2010.06.03 14:59:27.
