data_PCOD9457228
_publ_section_title
;
Structure prediction by ZEFSAII (Michael W. Deem and Ramdas Pophale) SiO2 
 PCOD9457228
Probable space group: P B C N
;
_chemical_formula_sum "Si O2"
_cell_formula_units_Z 44
_cell_length_a 6.824026
_cell_length_b 13.091612
_cell_length_c 25.766151
_cell_angle_alpha 90.000000
_cell_angle_beta 90.000000
_cell_angle_gamma 90.000000
_cell_volume 2301.883532
_symmetry_space_group_name_H-M "P B C N"
_symmetry_group_IT_number 60
_symmetry_cell_setting 'orthorhombic'
loop_
_space_group_symop_operation_xyz
x,y,z
1/2-x,1/2-y,1/2+z
1/2+x,1/2-y,-z
-x,y,1/2-z
-x,-y,-z
1/2+x,1/2+y,1/2-z
1/2-x,1/2+y,z
x,-y,1/2+z
loop_
_atom_site_type_symbol
_atom_site_label
_atom_site_fract_x
_atom_site_fract_y
_atom_site_fract_z
Si Si1 0.377437 0.867684 0.890501
Si Si2 0.763817 0.751475 0.928632
Si Si3 0.411860 0.391990 0.984558
Si Si4 0.500000 0.598852 0.250000
Si Si5 0.637332 0.984403 0.203050
Si Si6 0.458546 0.762335 0.334336
O O1 0.577943 0.815648 0.908485
O O2 0.253372 0.903134 0.940357
O O3 0.233222 0.789003 0.860393
O O4 0.413938 0.959230 0.850468
O O5 0.887287 0.711967 0.879498
O O6 0.914036 0.821882 0.961316
O O7 0.683069 0.663697 0.966071
O O8 0.500000 0.500000 0.000000
O O9 0.346473 0.524536 0.277784
O O10 0.556502 0.678630 0.295913
O O11 0.500000 0.018556 0.250000
O O12 0.610962 0.863993 0.194760
#
# Coordination Sequence:
#
# PCOD9457228 Si02
#       6
#     8   8   8   4   8   8
#     4  10  24  42  62  96 130 169 221 270 320 391
#     4  11  23  43  63  92 136 166 215 273 321 385
#     4  11  25  41  65  94 130 174 217 267 326 391
#     4  10  22  46  60  96 132 156 220 270 302 400
#     4  11  23  41  69  93 124 174 214 260 338 383
#     4  10  23  42  65  96 131 165 216 267 321 388
#
# _framework density 19.114782000000002
#
# number of rings (size 3 to 8) (size 9 to 14) (size 15 to 20)
#    0.000    1.455    2.727    1.091    5.091    2.182 
#    6.545    0.000    0.000    0.000    0.000    0.000 
#    0.000    0.000    0.000    0.000    0.000    0.000 
#
# Total GULP energy -245687.515718 kJ/mol
# GULP energy per Si atom -5583.807175 kJ/mol
# Density = 1.907128 g / cm^3
# Si number density = 19.114782 Si / 1000 Ang^3
#
#
#
# Elastic Constant Matrix: (Units=GPa)
#
#
# Indices 1 2 3 4 5 6 
#
# 1 69.4268 44.7894 42.1142 0.0000 0.0000 0.0000
# 2 44.7894 112.5410 54.1814 0.0000 0.0000 0.0000
# 3 42.1142 54.1814 105.8773 0.0000 0.0000 0.0000
# 4 0.0000 0.0000 0.0000 38.7095 0.0000 0.0000
# 5 0.0000 0.0000 0.0000 0.0000 38.4842 0.0000
# 6 0.0000 0.0000 0.0000 0.0000 0.0000 17.0129
#
#
#
# Elastic Compliance Matrix: (Units=1/GPa)
#
#
# Indices 1 2 3 4 5 6 
#
# 1 0.021594 -0.005917 -0.005562 0.000000 0.000000 0.000000
# 2 -0.005917 0.013412 -0.004510 0.000000 0.000000 0.000000
# 3 -0.005562 -0.004510 0.013965 0.000000 0.000000 0.000000
# 4 0.000000 0.000000 0.000000 0.025833 0.000000 0.000000
# 5 0.000000 0.000000 0.000000 0.000000 0.025985 0.000000
# 6 0.000000 0.000000 0.000000 0.000000 0.000000 0.058779
#
#
# Mechanical properties :
#
#
# Convention : Reuss Voigt Hill
#
# Bulk Modulus (GPa) = 58.84188 63.33501 61.08844
# Shear Modulus (GPa) = 25.35382 28.62533 26.98958
#
# Velocity S-wave (km/s) = 3.64593 3.87402 3.76170
# Velocity P-wave (km/s) = 6.96950 7.29497 7.13410
#
# Compressibility (1/GPa) = 0.01699470
#
# Stress axis : x y z
#
# Youngs Moduli (GPa) = 46.30837 74.56278 71.60770
#
# Poissons Ratio (x) = 0.44116 0.39826
# Poissons Ratio (y) = 0.27399 0.32293
# Poissons Ratio (z) = 0.25756 0.33626
#
# Static dielectric constant tensor:
#      x y z
#    x 1.663990 0.000000 0.000000 
#    y 0.000000 1.635150 0.000000 
#    z 0.000000 0.000000 1.662980 
# 
# From -- ./inp_files/24834.got.cif
#   From: 2010.05.17/outbox.cif.g08.bks.cpg/sg60_13_cif.got.tgz:24834.got - 2010.06.03 14:59:27.
