data_PCOD9457213
_publ_section_title
;
Structure prediction by ZEFSAII (Michael W. Deem and Ramdas Pophale) SiO2 
 PCOD9457213
Probable space group: P B C N
;
_chemical_formula_sum "Si O2"
_cell_formula_units_Z 36
_cell_length_a 7.643638
_cell_length_b 9.038268
_cell_length_c 20.887070
_cell_angle_alpha 90.000000
_cell_angle_beta 90.000000
_cell_angle_gamma 90.000000
_cell_volume 1442.988426
_symmetry_space_group_name_H-M "P B C N"
_symmetry_group_IT_number 60
_symmetry_cell_setting 'orthorhombic'
loop_
_space_group_symop_operation_xyz
x,y,z
1/2-x,1/2-y,1/2+z
1/2+x,1/2-y,-z
-x,y,1/2-z
-x,-y,-z
1/2+x,1/2+y,1/2-z
1/2-x,1/2+y,z
x,-y,1/2+z
loop_
_atom_site_type_symbol
_atom_site_label
_atom_site_fract_x
_atom_site_fract_y
_atom_site_fract_z
Si Si1 0.594226 0.226106 0.642990
Si Si2 0.621255 0.648980 0.939060
Si Si3 0.268667 0.896400 0.641516
Si Si4 0.000000 0.523260 0.750000
Si Si5 0.247606 0.017002 0.434599
O O1 0.405304 0.299953 0.650803
O O2 0.716127 0.362984 0.622080
O O3 0.622910 0.131507 0.707159
O O4 0.608437 0.101987 0.586914
O O5 0.629343 0.817388 0.916890
O O6 0.699513 0.553799 0.881291
O O7 0.425977 0.585680 0.944958
O O8 0.739323 0.612799 0.000708
O O9 0.387221 0.922411 0.702705
#
# Coordination Sequence:
#
# PCOD9457213 Si02
#       5
#     8   8   8   4   8
#     4  11  26  45  72 108 143 203 243 311 373 452
#     4  10  22  45  70 110 147 189 243 318 377 450
#     4  11  24  46  71 104 145 198 247 304 376 439
#     4  12  28  46  70 104 154 202 256 304 358 466
#     4  10  24  43  73 110 146 187 252 306 389 444
#
# _framework density 24.948225999999998
#
# number of rings (size 3 to 8) (size 9 to 14) (size 15 to 20)
#    0.000    1.333    2.222    1.333    6.222    0.889 
#    0.000    0.000    0.000    0.000    0.000    0.000 
#    0.000    0.000    0.000    0.000    0.000    0.000 
#
# Total GULP energy -201392.734877 kJ/mol
# GULP energy per Si atom -5594.242635 kJ/mol
# Density = 2.489144 g / cm^3
# Si number density = 24.948226 Si / 1000 Ang^3
#
#
#
# Elastic Constant Matrix: (Units=GPa)
#
#
# Indices 1 2 3 4 5 6 
#
# 1 83.0067 31.0174 37.3144 0.0000 0.0000 0.0000
# 2 31.0174 122.7375 13.4049 0.0000 0.0000 0.0000
# 3 37.3144 13.4049 97.7149 0.0000 0.0000 0.0000
# 4 0.0000 0.0000 0.0000 57.0123 0.0000 0.0000
# 5 0.0000 0.0000 0.0000 0.0000 39.6109 0.0000
# 6 0.0000 0.0000 0.0000 0.0000 0.0000 28.6135
#
#
#
# Elastic Compliance Matrix: (Units=1/GPa)
#
#
# Indices 1 2 3 4 5 6 
#
# 1 0.015820 -0.003389 -0.005576 0.000000 0.000000 0.000000
# 2 -0.003389 0.008997 0.000060 0.000000 0.000000 0.000000
# 3 -0.005576 0.000060 0.012355 0.000000 0.000000 0.000000
# 4 0.000000 0.000000 0.000000 0.017540 0.000000 0.000000
# 5 0.000000 0.000000 0.000000 0.000000 0.025246 0.000000
# 6 0.000000 0.000000 0.000000 0.000000 0.000000 0.034949
#
#
# Mechanical properties :
#
#
# Convention : Reuss Voigt Hill
#
# Bulk Modulus (GPa) = 51.64815 51.88139 51.76477
# Shear Modulus (GPa) = 35.92674 39.82883 37.87779
#
# Velocity S-wave (km/s) = 3.79892 3.99991 3.90071
# Velocity P-wave (km/s) = 6.32372 6.49408 6.40947
#
# Compressibility (1/GPa) = 0.01936178
#
# Stress axis : x y z
#
# Youngs Moduli (GPa) = 63.20953 111.14359 80.93809
#
# Poissons Ratio (x) = 0.37666 0.45135
# Poissons Ratio (y) = 0.21422 -0.00484
# Poissons Ratio (z) = 0.35248 -0.00665
#
# Static dielectric constant tensor:
#      x y z
#    x 2.022740 0.000000 0.000000 
#    y 0.000000 2.000010 0.000000 
#    z 0.000000 0.000000 1.983840 
# 
# From -- ./inp_files/21904.got.cif
#   From: 2010.05.17/outbox.cif.g08.bks.cpg/sg60_11_cif.got.tgz:21904.got - 2010.06.03 14:59:27.
