data_PCOD9457889
_publ_section_title
;
Structure prediction by ZEFSAII (Michael W. Deem and Ramdas Pophale) SiO2 
 PCOD9457889
Probable space group: P B C N
;
_chemical_formula_sum "Si O2"
_cell_formula_units_Z 56
_cell_length_a 20.574608
_cell_length_b 9.098377
_cell_length_c 13.996562
_cell_angle_alpha 90.000000
_cell_angle_beta 90.000000
_cell_angle_gamma 90.000000
_cell_volume 2620.093985
_symmetry_space_group_name_H-M "P B C N"
_symmetry_group_IT_number 60
_symmetry_cell_setting 'orthorhombic'
loop_
_space_group_symop_operation_xyz
x,y,z
1/2-x,1/2-y,1/2+z
1/2+x,1/2-y,-z
-x,y,1/2-z
-x,-y,-z
1/2+x,1/2+y,1/2-z
1/2-x,1/2+y,z
x,-y,1/2+z
loop_
_atom_site_type_symbol
_atom_site_label
_atom_site_fract_x
_atom_site_fract_y
_atom_site_fract_z
Si Si1 0.232341 0.236318 0.893366
Si Si2 0.228074 0.490091 0.022941
Si Si3 0.398466 0.163206 0.089468
Si Si4 0.019382 0.147045 0.442905
Si Si5 0.183107 0.114539 0.696698
Si Si6 0.940405 0.361315 0.322618
Si Si7 0.362249 0.329144 0.806771
O O1 0.210410 0.208057 0.785649
O O2 0.308130 0.280659 0.882765
O O3 0.199564 0.368125 0.951068
O O4 0.225606 0.091881 0.957913
O O5 0.170789 0.594464 0.058682
O O6 0.266498 0.414104 0.109978
O O7 0.378981 0.297258 0.158371
O O8 0.432962 0.021907 0.134297
O O9 0.442984 0.235008 0.008708
O O10 0.072156 0.116404 0.359210
O O11 0.957987 0.233243 0.398179
O O12 0.000000 0.000000 0.500000
O O13 0.165071 0.957855 0.740876
O O14 0.879110 0.309112 0.260517
O O15 0.000000 0.365158 0.250000
#
# Coordination Sequence:
#
# PCOD9457889 Si02
#       7
#     8   8   8   8   8   8   8
#     4  12  25  42  69 100 145 178 223 276 341 422
#     4  12  25  44  66 104 140 178 223 276 337 420
#     4  12  25  43  68  97 136 175 229 279 343 401
#     4  11  24  45  68  96 131 174 232 290 338 407
#     4  12  26  42  69 103 139 182 222 276 340 427
#     4  10  25  42  67  92 129 176 228 288 336 393
#     4  11  23  44  64  96 135 176 224 277 349 397
#
# _framework density 21.373277999999999
#
# number of rings (size 3 to 8) (size 9 to 14) (size 15 to 20)
#    0.000    0.571    4.286    3.000    4.000    2.286 
#    0.000    0.000    0.000    0.000    0.000    0.000 
#    0.000    0.000    0.000    0.000    0.000    0.000 
#
# Total GULP energy -313087.922068 kJ/mol
# GULP energy per Si atom -5590.855751 kJ/mol
# Density = 2.132463 g / cm^3
# Si number density = 21.373278 Si / 1000 Ang^3
#
#
#
# Elastic Constant Matrix: (Units=GPa)
#
#
# Indices 1 2 3 4 5 6 
#
# 1 30.6086 3.3894 12.5651 0.0000 0.0000 0.0000
# 2 3.3894 102.9005 38.9275 0.0000 0.0000 0.0000
# 3 12.5651 38.9275 94.2538 0.0000 0.0000 0.0000
# 4 0.0000 0.0000 0.0000 56.2332 0.0000 0.0000
# 5 0.0000 0.0000 0.0000 0.0000 20.0542 0.0000
# 6 0.0000 0.0000 0.0000 0.0000 0.0000 32.9797
#
#
#
# Elastic Compliance Matrix: (Units=1/GPa)
#
#
# Indices 1 2 3 4 5 6 
#
# 1 0.034607 0.000717 -0.004910 0.000000 0.000000 0.000000
# 2 0.000717 0.011533 -0.004859 0.000000 0.000000 0.000000
# 3 -0.004910 -0.004859 0.013271 0.000000 0.000000 0.000000
# 4 0.000000 0.000000 0.000000 0.017783 0.000000 0.000000
# 5 0.000000 0.000000 0.000000 0.000000 0.049865 0.000000
# 6 0.000000 0.000000 0.000000 0.000000 0.000000 0.030322
#
#
# Mechanical properties :
#
#
# Convention : Reuss Voigt Hill
#
# Bulk Modulus (GPa) = 24.20834 37.50301 30.85567
# Shear Modulus (GPa) = 26.41993 33.37880 29.89936
#
# Velocity S-wave (km/s) = 3.51966 3.95613 3.74426
# Velocity P-wave (km/s) = 5.27905 6.20103 5.75852
#
# Compressibility (1/GPa) = 0.04130807
#
# Stress axis : x y z
#
# Youngs Moduli (GPa) = 28.89618 86.71110 75.35307
#
# Poissons Ratio (x) = -0.06221 0.36997
# Poissons Ratio (y) = -0.02073 0.36612
# Poissons Ratio (z) = 0.14187 0.42130
#
# Static dielectric constant tensor:
#      x y z
#    x 1.797690 0.000000 0.000000 
#    y 0.000000 1.757510 0.000000 
#    z 0.000000 0.000000 1.805130 
# 
# From -- ./inp_files/17730.got.cif
#   From: 2010.05.17/outbox.cif.g08.bks.cpg/sg60_9_cif.got.tgz:17730.got - 2010.06.03 14:59:27.
