data_PCOD9457320
_publ_section_title
;
Structure prediction by ZEFSAII (Michael W. Deem and Ramdas Pophale) SiO2 
 PCOD9457320
Probable space group: P B C N
;
_chemical_formula_sum "Si O2"
_cell_formula_units_Z 48
_cell_length_a 13.943470
_cell_length_b 29.495013
_cell_length_c 5.523065
_cell_angle_alpha 90.000000
_cell_angle_beta 90.000000
_cell_angle_gamma 90.000000
_cell_volume 2271.431336
_symmetry_space_group_name_H-M "P B C N"
_symmetry_group_IT_number 60
_symmetry_cell_setting 'orthorhombic'
loop_
_space_group_symop_operation_xyz
x,y,z
1/2-x,1/2-y,1/2+z
1/2+x,1/2-y,-z
-x,y,1/2-z
-x,-y,-z
1/2+x,1/2+y,1/2-z
1/2-x,1/2+y,z
x,-y,1/2+z
loop_
_atom_site_type_symbol
_atom_site_label
_atom_site_fract_x
_atom_site_fract_y
_atom_site_fract_z
Si Si1 0.392278 0.653912 0.181735
Si Si2 0.613221 0.026612 0.729695
Si Si3 0.886405 0.024700 0.794290
Si Si4 0.249341 0.694670 0.581900
Si Si5 0.232095 0.897758 0.338564
Si Si6 0.399008 0.745439 0.868611
O O1 0.500000 0.639460 0.250000
O O2 0.319957 0.674637 0.378061
O O3 0.333707 0.612052 0.070976
O O4 0.410444 0.697007 0.002635
O O5 0.500000 0.036431 0.750000
O O6 0.675367 0.070586 0.663361
O O7 0.633621 0.993258 0.499863
O O8 0.841326 0.074278 0.830064
O O9 0.000000 0.027517 0.750000
O O10 0.856209 0.003717 0.532496
O O11 0.239259 0.652446 0.760246
O O12 0.311795 0.736207 0.684287
O O13 0.144937 0.714126 0.524405
O O14 0.500000 0.756658 0.750000
#
# Coordination Sequence:
#
# PCOD9457320 Si02
#       6
#     8   8   8   8   8   8
#     4  11  24  40  67  93 131 174 220 277 341 416
#     4  10  23  47  75  99 134 186 235 281 345 416
#     4  10  23  40  62  93 130 172 212 256 323 401
#     4  11  24  41  63  98 129 173 224 277 341 409
#     4  11  26  39  65  99 132 168 218 284 337 403
#     4  11  22  43  66  92 127 179 226 276 341 417
#
# _framework density 21.13205
#
# number of rings (size 3 to 8) (size 9 to 14) (size 15 to 20)
#    0.000    1.333    3.333    1.000    7.000    0.667 
#    3.000    0.000    0.000    0.000    0.000    0.000 
#    0.000    0.000    0.000    0.000    0.000    0.000 
#
# Total GULP energy -267596.525093 kJ/mol
# GULP energy per Si atom -5574.927606 kJ/mol
# Density = 2.108395 g / cm^3
# Si number density = 21.132050 Si / 1000 Ang^3
#
#
#
# Elastic Constant Matrix: (Units=GPa)
#
#
# Indices 1 2 3 4 5 6 
#
# 1 125.6754 39.5235 11.5284 0.0000 0.0000 0.0000
# 2 39.5235 81.0556 18.5178 0.0000 0.0000 0.0000
# 3 11.5284 18.5178 59.1073 0.0000 0.0000 0.0000
# 4 0.0000 0.0000 0.0000 6.3025 0.0000 0.0000
# 5 0.0000 0.0000 0.0000 0.0000 19.0864 0.0000
# 6 0.0000 0.0000 0.0000 0.0000 0.0000 15.4175
#
#
#
# Elastic Compliance Matrix: (Units=1/GPa)
#
#
# Indices 1 2 3 4 5 6 
#
# 1 0.009408 -0.004490 -0.000428 0.000000 0.000000 0.000000
# 2 -0.004490 0.015431 -0.003959 0.000000 0.000000 0.000000
# 3 -0.000428 -0.003959 0.018242 0.000000 0.000000 0.000000
# 4 0.000000 0.000000 0.000000 0.158668 0.000000 0.000000
# 5 0.000000 0.000000 0.000000 0.000000 0.052393 0.000000
# 6 0.000000 0.000000 0.000000 0.000000 0.000000 0.064861
#
#
# Mechanical properties :
#
#
# Convention : Reuss Voigt Hill
#
# Bulk Modulus (GPa) = 39.48246 44.99752 42.23999
# Shear Modulus (GPa) = 14.48434 21.24584 17.86509
#
# Velocity S-wave (km/s) = 2.62089 3.17422 2.91074
# Velocity P-wave (km/s) = 5.28044 5.89694 5.59719
#
# Compressibility (1/GPa) = 0.02532770
#
# Stress axis : x y z
#
# Youngs Moduli (GPa) = 106.28949 64.80541 54.81806
#
# Poissons Ratio (x) = 0.29096 0.02349
# Poissons Ratio (y) = 0.47721 0.21701
# Poissons Ratio (z) = 0.04554 0.25654
#
# Static dielectric constant tensor:
#      x y z
#    x 1.784280 0.000000 0.000000 
#    y 0.000000 1.816700 0.000000 
#    z 0.000000 0.000000 1.916590 
# 
# From -- ./inp_files/1315.got.cif
#   From: 2010.05.17/outbox.cif.g08.bks.cpg/sg60_1_cif.got.tgz:1315.got - 2010.06.03 14:59:27.
