data_PCOD9457503
_publ_section_title
;
Structure prediction by ZEFSAII (Michael W. Deem and Ramdas Pophale) SiO2 
 PCOD9457503
Probable space group: P B C N
;
_chemical_formula_sum "Si O2"
_cell_formula_units_Z 32
_cell_length_a 7.867087
_cell_length_b 14.382340
_cell_length_c 11.605940
_cell_angle_alpha 90.000000
_cell_angle_beta 90.000000
_cell_angle_gamma 90.000000
_cell_volume 1313.178686
_symmetry_space_group_name_H-M "P B C N"
_symmetry_group_IT_number 60
_symmetry_cell_setting 'orthorhombic'
loop_
_space_group_symop_operation_xyz
x,y,z
1/2-x,1/2-y,1/2+z
1/2+x,1/2-y,-z
-x,y,1/2-z
-x,-y,-z
1/2+x,1/2+y,1/2-z
1/2-x,1/2+y,z
x,-y,1/2+z
loop_
_atom_site_type_symbol
_atom_site_label
_atom_site_fract_x
_atom_site_fract_y
_atom_site_fract_z
Si Si1 0.146502 0.114003 0.165180
Si Si2 0.299017 0.274456 0.326536
Si Si3 0.681249 0.072281 0.813019
Si Si4 0.593853 0.308550 0.474639
O O1 0.217761 0.205613 0.230571
O O2 0.000000 0.076949 0.250000
O O3 0.287942 0.034927 0.159819
O O4 0.047267 0.133924 0.046824
O O5 0.300747 0.379655 0.282505
O O6 0.485529 0.256460 0.376730
O O7 0.172010 0.261718 0.433717
O O8 0.500000 0.086630 0.750000
O O9 0.751214 0.129124 0.924902
#
# Coordination Sequence:
#
# PCOD9457503 Si02
#       4
#     8   8   8   8
#     4  10  23  44  67  97 136 179 230 286 342 406
#     4  11  23  43  68  99 136 179 228 286 345 407
#     4  12  25  42  65  98 137 181 232 284 339 408
#     4  11  23  43  70  98 136 183 226 282 345 403
#
# _framework density 24.368352000000002
#
# number of rings (size 3 to 8) (size 9 to 14) (size 15 to 20)
#    0.000    1.000    0.000    8.250    0.000    6.000 
#    0.000    7.500    0.000    0.000    0.000    0.000 
#    0.000    0.000    0.000    0.000    0.000    0.000 
#
# Total GULP energy -178666.824647 kJ/mol
# GULP energy per Si atom -5583.338270 kJ/mol
# Density = 2.431289 g / cm^3
# Si number density = 24.368352 Si / 1000 Ang^3
#
#
#
# Elastic Constant Matrix: (Units=GPa)
#
#
# Indices 1 2 3 4 5 6 
#
# 1 139.5499 38.4154 50.8381 0.0000 0.0000 0.0000
# 2 38.4154 97.7332 37.9059 0.0000 0.0000 0.0000
# 3 50.8381 37.9059 123.3557 0.0000 0.0000 0.0000
# 4 0.0000 0.0000 0.0000 -0.7924 0.0000 0.0000
# 5 0.0000 0.0000 0.0000 0.0000 54.4713 0.0000
# 6 0.0000 0.0000 0.0000 0.0000 0.0000 20.9612
#
#
#
# Elastic Compliance Matrix: (Units=1/GPa)
#
#
# Indices 1 2 3 4 5 6 
#
# 1 0.008884 -0.002352 -0.002938 0.000000 0.000000 0.000000
# 2 -0.002352 0.012239 -0.002792 0.000000 0.000000 0.000000
# 3 -0.002938 -0.002792 0.010175 0.000000 0.000000 0.000000
# 4 0.000000 0.000000 0.000000 -1.262004 0.000000 0.000000
# 5 0.000000 0.000000 0.000000 0.000000 0.018358 0.000000
# 6 0.000000 0.000000 0.000000 0.000000 0.000000 0.047707
#
#
# Mechanical properties :
#
#
# Convention : Reuss Voigt Hill
#
# Bulk Modulus (GPa) = 66.07617 68.32862 67.20239
# Shear Modulus (GPa) = -4.37281 30.49332 13.06026
#
# Velocity S-wave (km/s) = -1.34103 3.54128 2.31757
# Velocity P-wave (km/s) = 4.97761 6.69490 5.89908
#
# Compressibility (1/GPa) = 0.01513405
#
# Stress axis : x y z
#
# Youngs Moduli (GPa) = 112.56301 81.70442 98.27556
#
# Poissons Ratio (x) = 0.19219 0.28878
# Poissons Ratio (y) = 0.26478 0.27434
# Poissons Ratio (z) = 0.33076 0.22808
#
# Static dielectric constant tensor:
#      x y z
#    x 1.967750 0.000000 0.000000 
#    y 0.000000 1.863910 0.000000 
#    z 0.000000 0.000000 2.047460 
# 
# From -- ./inp_files/9504.got.cif
#   From: 2010.05.17/outbox.cif.g08.bks.cpg/sg60_5_cif.got.tgz:9504.got - 2010.06.03 14:59:27.
