data_PCOD9457665
_publ_section_title
;
Structure prediction by ZEFSAII (Michael W. Deem and Ramdas Pophale) SiO2 
 PCOD9457665
Probable space group: P B C N
;
_chemical_formula_sum "Si O2"
_cell_formula_units_Z 56
_cell_length_a 13.799618
_cell_length_b 22.467390
_cell_length_c 8.124972
_cell_angle_alpha 90.000000
_cell_angle_beta 90.000000
_cell_angle_gamma 90.000000
_cell_volume 2519.077689
_symmetry_space_group_name_H-M "P B C N"
_symmetry_group_IT_number 60
_symmetry_cell_setting 'orthorhombic'
loop_
_space_group_symop_operation_xyz
x,y,z
1/2-x,1/2-y,1/2+z
1/2+x,1/2-y,-z
-x,y,1/2-z
-x,-y,-z
1/2+x,1/2+y,1/2-z
1/2-x,1/2+y,z
x,-y,1/2+z
loop_
_atom_site_type_symbol
_atom_site_label
_atom_site_fract_x
_atom_site_fract_y
_atom_site_fract_z
Si Si1 0.105150 0.790537 0.810210
Si Si2 0.729537 0.010152 0.961616
Si Si3 0.104955 0.801506 0.200273
Si Si4 0.682833 0.828572 0.300355
Si Si5 0.394812 0.935796 0.321068
Si Si6 0.895316 0.667755 0.173498
Si Si7 0.712445 0.407289 0.758010
O O1 0.174722 0.741664 0.731808
O O2 0.132293 0.856747 0.753485
O O3 0.000000 0.773735 0.750000
O O4 0.107386 0.787768 0.006297
O O5 0.794928 0.955127 0.902870
O O6 0.689637 0.047264 0.808852
O O7 0.632442 0.978431 0.030936
O O8 0.778815 0.052979 0.093040
O O9 0.202322 0.839885 0.223233
O O10 0.111278 0.738555 0.295694
O O11 0.000000 0.828040 0.250000
O O12 0.621787 0.865186 0.164862
O O13 0.633018 0.841261 0.479379
O O14 0.500000 0.947101 0.250000
O O15 0.813268 0.629403 0.265332
O O16 0.000000 0.649752 0.250000
#
# Coordination Sequence:
#
# PCOD9457665 Si02
#       7
#     8   8   8   8   8   8   8
#     4  12  25  42  68 100 134 173 229 282 350 417
#     4  10  24  41  62  88 128 181 228 274 335 401
#     4  11  23  41  65  95 138 179 216 270 341 410
#     4  12  23  43  65 103 140 175 224 279 341 420
#     4  11  23  37  60  92 131 174 221 273 330 401
#     4  11  23  39  66  95 139 181 218 268 345 411
#     4  11  23  45  66  93 134 174 226 284 344 407
#
# _framework density 22.230359
#
# number of rings (size 3 to 8) (size 9 to 14) (size 15 to 20)
#    0.000    0.857    4.286    2.571    4.000    4.571 
#    0.000    0.714    0.000    3.429    0.000    0.000 
#    0.000    0.000    0.000    0.000    0.000    0.000 
#
# Total GULP energy -312805.320952 kJ/mol
# GULP energy per Si atom -5585.809303 kJ/mol
# Density = 2.217976 g / cm^3
# Si number density = 22.230359 Si / 1000 Ang^3
#
#
#
# Elastic Constant Matrix: (Units=GPa)
#
#
# Indices 1 2 3 4 5 6 
#
# 1 97.9827 6.3874 7.3360 0.0000 0.0000 0.0000
# 2 6.3874 78.6210 4.6135 0.0000 0.0000 0.0000
# 3 7.3360 4.6135 29.3528 0.0000 0.0000 0.0000
# 4 0.0000 0.0000 0.0000 32.4007 0.0000 0.0000
# 5 0.0000 0.0000 0.0000 0.0000 18.6484 0.0000
# 6 0.0000 0.0000 0.0000 0.0000 0.0000 -65.5840
#
#
#
# Elastic Compliance Matrix: (Units=1/GPa)
#
#
# Indices 1 2 3 4 5 6 
#
# 1 0.010439 -0.000701 -0.002499 0.000000 0.000000 0.000000
# 2 -0.000701 0.012885 -0.001850 0.000000 0.000000 0.000000
# 3 -0.002499 -0.001850 0.034984 0.000000 0.000000 0.000000
# 4 0.000000 0.000000 0.000000 0.030864 0.000000 0.000000
# 5 0.000000 0.000000 0.000000 0.000000 0.053624 0.000000
# 6 0.000000 0.000000 0.000000 0.000000 0.000000 -0.015248
#
#
# Mechanical properties :
#
#
# Convention : Reuss Voigt Hill
#
# Bulk Modulus (GPa) = 20.74382 26.95892 23.85137
# Shear Modulus (GPa) = 32.52756 9.60098 21.06427
#
# Velocity S-wave (km/s) = 3.82934 2.08044 3.08156
# Velocity P-wave (km/s) = 5.37618 4.23372 4.83879
#
# Compressibility (1/GPa) = 0.04820714
#
# Stress axis : x y z
#
# Youngs Moduli (GPa) = 95.79756 77.61093 28.58487
#
# Poissons Ratio (x) = 0.05444 0.07142
# Poissons Ratio (y) = 0.06720 0.05288
# Poissons Ratio (z) = 0.23936 0.14357
#
# Static dielectric constant tensor:
#      x y z
#    x 1.798510 0.000000 0.000000 
#    y 0.000000 1.852420 0.000000 
#    z 0.000000 0.000000 1.943630 
# 
# From -- ./inp_files/6137.got.cif
#   From: 2010.05.17/outbox.cif.g08.bks.cpg/sg60_4_cif.got.tgz:6137.got - 2010.06.03 14:59:27.
