data_PCOD9457456
_publ_section_title
;
Structure prediction by ZEFSAII (Michael W. Deem and Ramdas Pophale) SiO2 
 PCOD9457456
Probable space group: P B C N
;
_chemical_formula_sum "Si O2"
_cell_formula_units_Z 60
_cell_length_a 18.489580
_cell_length_b 14.193356
_cell_length_c 10.373756
_cell_angle_alpha 90.000000
_cell_angle_beta 90.000000
_cell_angle_gamma 90.000000
_cell_volume 2722.376397
_symmetry_space_group_name_H-M "P B C N"
_symmetry_group_IT_number 60
_symmetry_cell_setting 'orthorhombic'
loop_
_space_group_symop_operation_xyz
x,y,z
1/2-x,1/2-y,1/2+z
1/2+x,1/2-y,-z
-x,y,1/2-z
-x,-y,-z
1/2+x,1/2+y,1/2-z
1/2-x,1/2+y,z
x,-y,1/2+z
loop_
_atom_site_type_symbol
_atom_site_label
_atom_site_fract_x
_atom_site_fract_y
_atom_site_fract_z
Si Si1 0.313476 0.510809 0.681863
Si Si2 0.258280 0.093657 0.943736
Si Si3 0.500000 0.990063 0.750000
Si Si4 0.403597 0.854758 0.322092
Si Si5 0.081949 0.155266 0.201729
Si Si6 0.568497 0.345267 0.318169
Si Si7 0.133671 0.778874 0.444947
Si Si8 0.990495 0.332186 0.542163
O O1 0.263519 0.471777 0.565323
O O2 0.270657 0.553177 0.805355
O O3 0.362859 0.426566 0.739775
O O4 0.373353 0.583573 0.622107
O O5 0.341066 0.118417 0.921772
O O6 0.215196 0.192062 0.968167
O O7 0.504060 0.922522 0.872742
O O8 0.573125 0.051819 0.752573
O O9 0.388577 0.757340 0.248705
O O10 0.476400 0.836349 0.402359
O O11 0.000000 0.142387 0.250000
O O12 0.087878 0.157222 0.045880
O O13 0.500000 0.396709 0.250000
O O14 0.614093 0.301378 0.201173
O O15 0.531856 0.258684 0.394854
O O16 0.096153 0.679346 0.465214
#
# Coordination Sequence:
#
# PCOD9457456 Si02
#       8
#     8   8   4   8   8   8   8   8
#     4  10  23  43  67 100 140 179 223 282 354 416
#     4  10  25  45  62 101 141 178 228 276 349 422
#     4  12  24  44  68  92 130 174 236 288 332 414
#     4  12  26  43  65  99 137 179 236 280 342 414
#     4  11  21  40  68 100 133 174 223 287 340 405
#     4   9  18  37  67 100 131 170 228 278 340 416
#     4   9  18  42  62  92 136 163 222 273 332 410
#     4  11  21  41  69  97 125 176 230 281 341 398
#
# _framework density 22.039567000000002
#
# number of rings (size 3 to 8) (size 9 to 14) (size 15 to 20)
#    0.000    1.600    4.000    0.800    3.733    0.000 
#   12.000    5.333    0.000    0.000    0.000    0.000 
#    0.000    0.000    0.000    0.000    0.000    0.000 
#
# Total GULP energy -334363.098195 kJ/mol
# GULP energy per Si atom -5572.718303 kJ/mol
# Density = 2.198940 g / cm^3
# Si number density = 22.039567 Si / 1000 Ang^3
#
#
#
# Elastic Constant Matrix: (Units=GPa)
#
#
# Indices 1 2 3 4 5 6 
#
# 1 76.4332 27.6189 7.3144 0.0000 0.0000 0.0000
# 2 27.6189 88.4255 14.0942 0.0000 0.0000 0.0000
# 3 7.3144 14.0942 62.8852 0.0000 0.0000 0.0000
# 4 0.0000 0.0000 0.0000 23.4070 0.0000 0.0000
# 5 0.0000 0.0000 0.0000 0.0000 33.8094 0.0000
# 6 0.0000 0.0000 0.0000 0.0000 0.0000 7.7454
#
#
#
# Elastic Compliance Matrix: (Units=1/GPa)
#
#
# Indices 1 2 3 4 5 6 
#
# 1 0.014778 -0.004503 -0.000710 0.000000 0.000000 0.000000
# 2 -0.004503 0.013100 -0.002412 0.000000 0.000000 0.000000
# 3 -0.000710 -0.002412 0.016525 0.000000 0.000000 0.000000
# 4 0.000000 0.000000 0.000000 0.042722 0.000000 0.000000
# 5 0.000000 0.000000 0.000000 0.000000 0.029578 0.000000
# 6 0.000000 0.000000 0.000000 0.000000 0.000000 0.129109
#
#
# Mechanical properties :
#
#
# Convention : Reuss Voigt Hill
#
# Bulk Modulus (GPa) = 34.30083 36.19987 35.25035
# Shear Modulus (GPa) = 18.46521 24.90678 21.68600
#
# Velocity S-wave (km/s) = 2.89765 3.36533 3.14021
# Velocity P-wave (km/s) = 5.17613 5.61794 5.40155
#
# Compressibility (1/GPa) = 0.02915382
#
# Stress axis : x y z
#
# Youngs Moduli (GPa) = 67.66682 76.33682 60.51366
#
# Poissons Ratio (x) = 0.34372 0.04295
# Poissons Ratio (y) = 0.30469 0.14598
# Poissons Ratio (z) = 0.04803 0.18415
#
# Static dielectric constant tensor:
#      x y z
#    x 1.729950 0.000000 0.000000 
#    y 0.000000 1.917830 0.000000 
#    z 0.000000 0.000000 1.850780 
# 
# From -- ./inp_files/12521.got.cif
#   From: 2010.05.17/outbox.cif.g08.bks.cpg/sg60_7_cif.got.tgz:12521.got - 2010.06.03 14:59:27.
