data_PCOD9457259
_publ_section_title
;
Structure prediction by ZEFSAII (Michael W. Deem and Ramdas Pophale) SiO2 
 PCOD9457259
Probable space group: P B C N
;
_chemical_formula_sum "Si O2"
_cell_formula_units_Z 48
_cell_length_a 5.548466
_cell_length_b 26.270796
_cell_length_c 14.616036
_cell_angle_alpha 90.000000
_cell_angle_beta 90.000000
_cell_angle_gamma 90.000000
_cell_volume 2130.471678
_symmetry_space_group_name_H-M "P B C N"
_symmetry_group_IT_number 60
_symmetry_cell_setting 'orthorhombic'
loop_
_space_group_symop_operation_xyz
x,y,z
1/2-x,1/2-y,1/2+z
1/2+x,1/2-y,-z
-x,y,1/2-z
-x,-y,-z
1/2+x,1/2+y,1/2-z
1/2-x,1/2+y,z
x,-y,1/2+z
loop_
_atom_site_type_symbol
_atom_site_label
_atom_site_fract_x
_atom_site_fract_y
_atom_site_fract_z
Si Si1 0.012469 0.177636 0.557771
Si Si2 0.879710 0.621819 0.074410
Si Si3 0.000000 0.815901 0.250000
Si Si4 0.704067 0.790810 0.904413
Si Si5 0.301502 0.043336 0.986500
Si Si6 0.500000 0.749950 0.250000
Si Si7 0.090246 0.028366 0.353339
O O1 0.171673 0.147133 0.486093
O O2 0.010723 0.152316 0.656779
O O3 0.111693 0.233838 0.581547
O O4 0.769620 0.190628 0.505525
O O5 0.777978 0.575459 0.135603
O O6 0.014791 0.666985 0.128733
O O7 0.059467 0.595336 0.001539
O O8 0.748322 0.782912 0.237432
O O9 0.931648 0.784813 0.837101
O O10 0.112031 0.040652 0.069878
O O11 0.500000 0.000000 0.000000
O O12 0.187853 0.026014 0.890451
O O13 0.000000 0.026180 0.250000
#
# Coordination Sequence:
#
# PCOD9457259 Si02
#       7
#     8   8   4   8   8   4   8
#     4  11  22  41  65  93 138 200 244 296 349 422
#     4  11  23  41  69 103 143 183 242 291 363 438
#     4  10  24  42  70  90 135 200 265 306 346 414
#     4  11  22  41  67  92 144 198 240 297 354 420
#     4   9  21  44  73  98 138 172 219 296 369 440
#     4  10  24  42  64 102 133 194 267 296 354 418
#     4  10  22  46  77 106 136 174 230 305 378 444
#
# _framework density 22.530224
#
# number of rings (size 3 to 8) (size 9 to 14) (size 15 to 20)
#    0.000    1.667    1.667    2.000    4.667    2.667 
#    9.000    0.000   44.000    0.000    0.000    0.000 
#    0.000    0.000    0.000    0.000    0.000    0.000 
#
# Total GULP energy -267700.798488 kJ/mol
# GULP energy per Si atom -5577.099968 kJ/mol
# Density = 2.247894 g / cm^3
# Si number density = 22.530224 Si / 1000 Ang^3
#
#
#
# Elastic Constant Matrix: (Units=GPa)
#
#
# Indices 1 2 3 4 5 6 
#
# 1 57.2170 14.3102 23.2274 0.0000 0.0000 0.0000
# 2 14.3102 94.1340 27.8857 0.0000 0.0000 0.0000
# 3 23.2274 27.8857 136.9964 0.0000 0.0000 0.0000
# 4 0.0000 0.0000 0.0000 -5.6671 0.0000 0.0000
# 5 0.0000 0.0000 0.0000 0.0000 33.3956 0.0000
# 6 0.0000 0.0000 0.0000 0.0000 0.0000 43.3235
#
#
#
# Elastic Compliance Matrix: (Units=1/GPa)
#
#
# Indices 1 2 3 4 5 6 
#
# 1 0.019142 -0.002074 -0.002823 0.000000 0.000000 0.000000
# 2 -0.002074 0.011529 -0.001995 0.000000 0.000000 0.000000
# 3 -0.002823 -0.001995 0.008184 0.000000 0.000000 0.000000
# 4 0.000000 0.000000 0.000000 -0.176458 0.000000 0.000000
# 5 0.000000 0.000000 0.000000 0.000000 0.029944 0.000000
# 6 0.000000 0.000000 0.000000 0.000000 0.000000 0.023082
#
#
# Mechanical properties :
#
#
# Convention : Reuss Voigt Hill
#
# Bulk Modulus (GPa) = 39.88616 46.57709 43.23162
# Shear Modulus (GPa) = -80.08390 29.07203 -25.50593
#
# Velocity S-wave (km/s) = -5.96844 3.59605 -3.36828
# Velocity P-wave (km/s) = 5.45477 6.16118 2.02554
#
# Compressibility (1/GPa) = 0.02507135
#
# Stress axis : x y z
#
# Youngs Moduli (GPa) = 52.24089 86.73454 122.18518
#
# Poissons Ratio (x) = 0.17985 0.34498
# Poissons Ratio (y) = 0.10833 0.24379
# Poissons Ratio (z) = 0.14750 0.17306
#
# Static dielectric constant tensor:
#      x y z
#    x 1.895200 0.000000 0.000000 
#    y 0.000000 1.861480 0.000000 
#    z 0.000000 0.000000 1.881510 
# 
# From -- ./inp_files/13981.got.cif
#   From: 2010.05.17/outbox.cif.g08.bks.cpg/sg60_7_cif.got.tgz:13981.got - 2010.06.03 14:59:27.
