data_PCOD9457383
_publ_section_title
;
Structure prediction by ZEFSAII (Michael W. Deem and Ramdas Pophale) SiO2 
 PCOD9457383
Probable space group: P B C N
;
_chemical_formula_sum "Si O2"
_cell_formula_units_Z 32
_cell_length_a 11.695376
_cell_length_b 5.420578
_cell_length_c 19.805875
_cell_angle_alpha 90.000000
_cell_angle_beta 90.000000
_cell_angle_gamma 90.000000
_cell_volume 1255.607267
_symmetry_space_group_name_H-M "P B C N"
_symmetry_group_IT_number 60
_symmetry_cell_setting 'orthorhombic'
loop_
_space_group_symop_operation_xyz
x,y,z
1/2-x,1/2-y,1/2+z
1/2+x,1/2-y,-z
-x,y,1/2-z
-x,-y,-z
1/2+x,1/2+y,1/2-z
1/2-x,1/2+y,z
x,-y,1/2+z
loop_
_atom_site_type_symbol
_atom_site_label
_atom_site_fract_x
_atom_site_fract_y
_atom_site_fract_z
Si Si1 0.500959 0.966447 0.113660
Si Si2 0.785213 0.312991 0.663652
Si Si3 0.326716 0.858073 0.506438
Si Si4 0.808504 0.205098 0.314523
O O1 0.433194 0.768145 0.158289
O O2 0.581515 0.122381 0.164022
O O3 0.411082 0.127412 0.071223
O O4 0.584018 0.854059 0.056387
O O5 0.726853 0.549291 0.629760
O O6 0.715943 0.291610 0.733946
O O7 0.243435 0.619875 0.507438
O O8 0.733076 0.439010 0.337496
#
# Coordination Sequence:
#
# PCOD9457383 Si02
#       4
#     8   8   8   8
#     4  11  24  43  74 100 142 192 230 300 366 411
#     4  10  23  42  64  98 136 177 234 284 341 423
#     4  11  26  45  68 106 142 183 244 295 356 430
#     4  10  23  42  64  98 136 177 234 284 341 423
#
# _framework density 25.485676999999999
#
# number of rings (size 3 to 8) (size 9 to 14) (size 15 to 20)
#    0.000    1.500    0.000    3.000    0.000   14.000 
#    0.000   10.000    0.000    0.000    0.000    0.000 
#    0.000    0.000    0.000    0.000    0.000    0.000 
#
# Total GULP energy -178819.878856 kJ/mol
# GULP energy per Si atom -5588.121214 kJ/mol
# Density = 2.542767 g / cm^3
# Si number density = 25.485677 Si / 1000 Ang^3
#
#
#
# Elastic Constant Matrix: (Units=GPa)
#
#
# Indices 1 2 3 4 5 6 
#
# 1 159.3356 77.7369 56.3866 0.0000 0.0000 0.0000
# 2 77.7369 215.1148 16.7826 0.0000 0.0000 0.0000
# 3 56.3866 16.7826 112.3090 0.0000 0.0000 0.0000
# 4 0.0000 0.0000 0.0000 26.1654 0.0000 0.0000
# 5 0.0000 0.0000 0.0000 0.0000 62.8687 0.0000
# 6 0.0000 0.0000 0.0000 0.0000 0.0000 47.4697
#
#
#
# Elastic Compliance Matrix: (Units=1/GPa)
#
#
# Indices 1 2 3 4 5 6 
#
# 1 0.009223 -0.003007 -0.004181 0.000000 0.000000 0.000000
# 2 -0.003007 0.005684 0.000660 0.000000 0.000000 0.000000
# 3 -0.004181 0.000660 0.010905 0.000000 0.000000 0.000000
# 4 0.000000 0.000000 0.000000 0.038218 0.000000 0.000000
# 5 0.000000 0.000000 0.000000 0.000000 0.015906 0.000000
# 6 0.000000 0.000000 0.000000 0.000000 0.000000 0.021066
#
#
# Mechanical properties :
#
#
# Convention : Reuss Voigt Hill
#
# Bulk Modulus (GPa) = 78.39555 87.61906 83.00730
# Shear Modulus (GPa) = 42.26248 49.69097 45.97673
#
# Velocity S-wave (km/s) = 4.07662 4.42040 4.25199
# Velocity P-wave (km/s) = 7.27914 7.77866 7.53304
#
# Compressibility (1/GPa) = 0.01275583
#
# Stress axis : x y z
#
# Youngs Moduli (GPa) = 108.43013 175.94241 91.70512
#
# Poissons Ratio (x) = 0.52899 0.38342
# Poissons Ratio (y) = 0.32600 -0.06054
# Poissons Ratio (z) = 0.45335 -0.11615
#
# Static dielectric constant tensor:
#      x y z
#    x 1.996080 0.000000 0.000000 
#    y 0.000000 2.025820 0.000000 
#    z 0.000000 0.000000 2.183820 
# 
# From -- ./inp_files/24165.got.cif
#   From: 2010.05.17/outbox.cif.g08.bks.cpg/sg60_13_cif.got.tgz:24165.got - 2010.06.03 14:59:27.
