data_PCOD9457648
_publ_section_title
;
Structure prediction by ZEFSAII (Michael W. Deem and Ramdas Pophale) SiO2 
 PCOD9457648
Probable space group: P B C N
;
_chemical_formula_sum "Si O2"
_cell_formula_units_Z 36
_cell_length_a 9.470470
_cell_length_b 7.426843
_cell_length_c 17.054847
_cell_angle_alpha 90.000000
_cell_angle_beta 90.000000
_cell_angle_gamma 90.000000
_cell_volume 1199.564497
_symmetry_space_group_name_H-M "P B C N"
_symmetry_group_IT_number 60
_symmetry_cell_setting 'orthorhombic'
loop_
_space_group_symop_operation_xyz
x,y,z
1/2-x,1/2-y,1/2+z
1/2+x,1/2-y,-z
-x,y,1/2-z
-x,-y,-z
1/2+x,1/2+y,1/2-z
1/2-x,1/2+y,z
x,-y,1/2+z
loop_
_atom_site_type_symbol
_atom_site_label
_atom_site_fract_x
_atom_site_fract_y
_atom_site_fract_z
Si Si1 0.781598 0.389655 0.786444
Si Si2 0.406220 0.670872 0.844571
Si Si3 0.652555 0.006350 0.557837
Si Si4 0.000000 0.716922 0.750000
Si Si5 0.643770 0.706585 0.942582
O O1 0.868598 0.232139 0.742381
O O2 0.628188 0.370070 0.741422
O O3 0.776428 0.323489 0.876150
O O4 0.884201 0.566121 0.782196
O O5 0.427177 0.869712 0.885905
O O6 0.263108 0.598322 0.883060
O O7 0.535589 0.581893 0.892624
O O8 0.743648 0.903337 0.493028
O O9 0.576047 0.167469 0.511855
#
# Coordination Sequence:
#
# PCOD9457648 Si02
#       5
#     8   8   8   4   8
#     4  12  26  50  82 112 162 198 282 312 412 444
#     4  11  22  44  69 104 146 198 254 323 379 472
#     4  10  24  40  66 104 146 200 250 316 390 462
#     4  12  28  52  76 126 148 216 244 350 372 488
#     4  11  22  44  69 104 146 198 254 323 379 472
#
# _framework density 30.01089
#
# number of rings (size 3 to 8) (size 9 to 14) (size 15 to 20)
#    0.000    0.889    2.222    4.000    0.000    0.889 
#   28.000    0.000    0.000    0.000    0.000    0.000 
#    0.000    0.000    0.000    0.000    0.000    0.000 
#
# Total GULP energy -200521.957628 kJ/mol
# GULP energy per Si atom -5570.054379 kJ/mol
# Density = 2.994258 g / cm^3
# Si number density = 30.010890 Si / 1000 Ang^3
#
#
#
# Elastic Constant Matrix: (Units=GPa)
#
#
# Indices 1 2 3 4 5 6 
#
# 1 114.6570 -5.9890 -33.0394 0.0000 0.0000 0.0000
# 2 -5.9890 100.1038 22.4657 0.0000 0.0000 0.0000
# 3 -33.0394 22.4657 132.5156 0.0000 0.0000 0.0000
# 4 0.0000 0.0000 0.0000 17.1156 0.0000 0.0000
# 5 0.0000 0.0000 0.0000 0.0000 14.1586 0.0000
# 6 0.0000 0.0000 0.0000 0.0000 0.0000 60.5038
#
#
#
# Elastic Compliance Matrix: (Units=1/GPa)
#
#
# Indices 1 2 3 4 5 6 
#
# 1 0.009397 0.000038 0.002336 0.000000 0.000000 0.000000
# 2 0.000038 0.010385 -0.001751 0.000000 0.000000 0.000000
# 3 0.002336 -0.001751 0.008426 0.000000 0.000000 0.000000
# 4 0.000000 0.000000 0.000000 0.058426 0.000000 0.000000
# 5 0.000000 0.000000 0.000000 0.000000 0.070629 0.000000
# 6 0.000000 0.000000 0.000000 0.000000 0.000000 0.016528
#
#
# Mechanical properties :
#
#
# Convention : Reuss Voigt Hill
#
# Bulk Modulus (GPa) = 33.95145 34.90567 34.42856
# Shear Modulus (GPa) = 27.41802 42.61154 35.01478
#
# Velocity S-wave (km/s) = 3.02586 3.77220 3.41946
# Velocity P-wave (km/s) = 4.85236 5.53434 5.20453
#
# Compressibility (1/GPa) = 0.02945382
#
# Stress axis : x y z
#
# Youngs Moduli (GPa) = 106.41790 96.29369 118.68458
#
# Poissons Ratio (x) = -0.00364 -0.27730
# Poissons Ratio (y) = -0.00403 0.20783
# Poissons Ratio (z) = -0.24864 0.16862
#
# Static dielectric constant tensor:
#      x y z
#    x 2.580310 0.000000 0.000000 
#    y 0.000000 2.506460 0.000000 
#    z 0.000000 0.000000 2.561650 
# 
# From -- ./inp_files/21926.got.cif
#   From: 2010.05.17/outbox.cif.g08.bks.cpg/sg60_11_cif.got.tgz:21926.got - 2010.06.03 14:59:27.
