data_PCOD9457654
_publ_section_title
;
Structure prediction by ZEFSAII (Michael W. Deem and Ramdas Pophale) SiO2 
 PCOD9457654
Probable space group: P B C N
;
_chemical_formula_sum "Si O2"
_cell_formula_units_Z 60
_cell_length_a 26.223226
_cell_length_b 11.388496
_cell_length_c 8.731100
_cell_angle_alpha 90.000000
_cell_angle_beta 90.000000
_cell_angle_gamma 90.000000
_cell_volume 2607.482809
_symmetry_space_group_name_H-M "P B C N"
_symmetry_group_IT_number 60
_symmetry_cell_setting 'orthorhombic'
loop_
_space_group_symop_operation_xyz
x,y,z
1/2-x,1/2-y,1/2+z
1/2+x,1/2-y,-z
-x,y,1/2-z
-x,-y,-z
1/2+x,1/2+y,1/2-z
1/2-x,1/2+y,z
x,-y,1/2+z
loop_
_atom_site_type_symbol
_atom_site_label
_atom_site_fract_x
_atom_site_fract_y
_atom_site_fract_z
Si Si1 0.476504 0.648858 0.489034
Si Si2 0.335478 0.866193 0.501102
Si Si3 0.645337 0.121391 0.133993
Si Si4 0.628779 0.360866 0.593247
Si Si5 0.311407 0.515803 0.665410
Si Si6 0.000000 0.013509 0.750000
Si Si7 0.774362 0.828051 0.074730
Si Si8 0.977093 0.385187 0.579877
O O1 0.429011 0.601243 0.391317
O O2 0.516151 0.573849 0.390795
O O3 0.465738 0.617646 0.665882
O O4 0.497735 0.778136 0.488142
O O5 0.347612 0.874710 0.681281
O O6 0.374712 0.780043 0.415517
O O7 0.283349 0.793927 0.463082
O O8 0.334975 0.995957 0.430050
O O9 0.682490 0.226550 0.071784
O O10 0.585032 0.127333 0.089294
O O11 0.661407 0.425830 0.719697
O O12 0.649435 0.407025 0.431289
O O13 0.277464 0.606043 0.762238
O O14 0.283434 0.430882 0.548015
O O15 0.000000 0.384662 0.750000
O O16 0.000000 0.500000 0.500000
#
# Coordination Sequence:
#
# PCOD9457654 Si02
#       8
#     8   8   8   8   8   4   8   8
#     4  11  23  43  69  99 140 181 238 294 358 423
#     4  12  28  45  74 101 146 185 242 295 362 427
#     4  12  28  49  74 108 144 193 247 298 364 434
#     4  11  23  42  68 102 138 186 234 291 357 428
#     4  10  24  43  70 102 143 180 235 287 360 422
#     4  10  24  40  68  98 134 182 228 288 364 418
#     4  11  26  46  74 104 143 184 238 296 366 430
#     4  12  27  49  75 102 146 194 248 303 356 425
#
# _framework density 23.010698000000001
#
# number of rings (size 3 to 8) (size 9 to 14) (size 15 to 20)
#    0.000    0.800    2.000    4.000    8.400    5.333 
#    0.000    0.000    0.000    0.000    0.000    0.000 
#    0.000    0.000    0.000    0.000    0.000    0.000 
#
# Total GULP energy -334025.985843 kJ/mol
# GULP energy per Si atom -5567.099764 kJ/mol
# Density = 2.295832 g / cm^3
# Si number density = 23.010698 Si / 1000 Ang^3
#
#
#
# Elastic Constant Matrix: (Units=GPa)
#
#
# Indices 1 2 3 4 5 6 
#
# 1 63.0516 -0.8600 16.8477 0.0000 0.0000 0.0000
# 2 -0.8600 126.0157 24.3051 0.0000 0.0000 0.0000
# 3 16.8477 24.3051 76.6575 0.0000 0.0000 0.0000
# 4 0.0000 0.0000 0.0000 45.5635 0.0000 0.0000
# 5 0.0000 0.0000 0.0000 0.0000 21.0139 0.0000
# 6 0.0000 0.0000 0.0000 0.0000 0.0000 -365.1975
#
#
#
# Elastic Compliance Matrix: (Units=1/GPa)
#
#
# Indices 1 2 3 4 5 6 
#
# 1 0.016942 0.000888 -0.004005 0.000000 0.000000 0.000000
# 2 0.000888 0.008499 -0.002890 0.000000 0.000000 0.000000
# 3 -0.004005 -0.002890 0.014842 0.000000 0.000000 0.000000
# 4 0.000000 0.000000 0.000000 0.021947 0.000000 0.000000
# 5 0.000000 0.000000 0.000000 0.000000 0.047588 0.000000
# 6 0.000000 0.000000 0.000000 0.000000 0.000000 -0.002738
#
#
# Mechanical properties :
#
#
# Convention : Reuss Voigt Hill
#
# Bulk Modulus (GPa) = 35.37444 38.47895 36.92669
# Shear Modulus (GPa) = 38.90553 -44.69523 -2.89485
#
# Velocity S-wave (km/s) = 4.11634 -4.41201 -1.12284
# Velocity P-wave (km/s) = 6.16432 3.03248 3.79492
#
# Compressibility (1/GPa) = 0.02826900
#
# Stress axis : x y z
#
# Youngs Moduli (GPa) = 59.02374 117.66140 67.37831
#
# Poissons Ratio (x) = -0.10450 0.26986
# Poissons Ratio (y) = -0.05242 0.19472
# Poissons Ratio (z) = 0.23640 0.34003
#
# Static dielectric constant tensor:
#      x y z
#    x 1.954620 0.000000 0.000000 
#    y 0.000000 1.976960 0.000000 
#    z 0.000000 0.000000 1.967340 
# 
# From -- ./inp_files/8191.got.cif
#   From: 2010.05.17/outbox.cif.g08.bks.cpg/sg60_5_cif.got.tgz:8191.got - 2010.06.03 14:59:27.
