data_PCOD9457019
_publ_section_title
;
Structure prediction by ZEFSAII (Michael W. Deem and Ramdas Pophale) SiO2 
 PCOD9457019
Probable space group: P B C N
;
_chemical_formula_sum "Si O2"
_cell_formula_units_Z 32
_cell_length_a 17.097503
_cell_length_b 5.388127
_cell_length_c 13.167359
_cell_angle_alpha 90.000000
_cell_angle_beta 90.000000
_cell_angle_gamma 90.000000
_cell_volume 1213.023428
_symmetry_space_group_name_H-M "P B C N"
_symmetry_group_IT_number 60
_symmetry_cell_setting 'orthorhombic'
loop_
_space_group_symop_operation_xyz
x,y,z
1/2-x,1/2-y,1/2+z
1/2+x,1/2-y,-z
-x,y,1/2-z
-x,-y,-z
1/2+x,1/2+y,1/2-z
1/2-x,1/2+y,z
x,-y,1/2+z
loop_
_atom_site_type_symbol
_atom_site_label
_atom_site_fract_x
_atom_site_fract_y
_atom_site_fract_z
Si Si1 0.433047 0.612924 0.107437
Si Si2 0.337302 0.163248 0.433666
Si Si3 0.782345 0.829032 0.384393
Si Si4 0.890463 0.846976 0.662219
O O1 0.374340 0.374558 0.099136
O O2 0.525815 0.592011 0.109116
O O3 0.410095 0.700379 0.220309
O O4 0.404292 0.793608 0.019320
O O5 0.238366 0.670587 0.506331
O O6 0.342447 0.398758 0.357757
O O7 0.353914 0.905137 0.379544
O O8 0.744172 0.073761 0.334088
#
# Coordination Sequence:
#
# PCOD9457019 Si02
#       4
#     8   8   8   8
#     4  10  24  45  70 103 143 182 234 298 350 409
#     4  11  23  44  67 100 143 183 230 287 349 421
#     4  10  22  42  64  90 134 178 216 275 340 397
#     4  11  25  42  73 106 136 185 239 287 354 421
#
# _framework density 26.380367
#
# number of rings (size 3 to 8) (size 9 to 14) (size 15 to 20)
#    0.000    1.500    0.000    4.500    0.000   14.000 
#    0.000   30.000    0.000    0.000    0.000    0.000 
#    0.000    0.000    0.000    0.000    0.000    0.000 
#
# Total GULP energy -179129.271409 kJ/mol
# GULP energy per Si atom -5597.789732 kJ/mol
# Density = 2.632032 g / cm^3
# Si number density = 26.380367 Si / 1000 Ang^3
#
#
#
# Elastic Constant Matrix: (Units=GPa)
#
#
# Indices 1 2 3 4 5 6 
#
# 1 106.9767 25.6456 32.0110 0.0000 0.0000 0.0000
# 2 25.6456 216.0902 57.6078 0.0000 0.0000 0.0000
# 3 32.0110 57.6078 108.2156 0.0000 0.0000 0.0000
# 4 0.0000 0.0000 0.0000 35.1045 0.0000 0.0000
# 5 0.0000 0.0000 0.0000 0.0000 56.6697 0.0000
# 6 0.0000 0.0000 0.0000 0.0000 0.0000 35.9321
#
#
#
# Elastic Compliance Matrix: (Units=1/GPa)
#
#
# Indices 1 2 3 4 5 6 
#
# 1 0.010298 -0.000478 -0.002792 0.000000 0.000000 0.000000
# 2 -0.000478 0.005415 -0.002741 0.000000 0.000000 0.000000
# 3 -0.002792 -0.002741 0.011526 0.000000 0.000000 0.000000
# 4 0.000000 0.000000 0.000000 0.028486 0.000000 0.000000
# 5 0.000000 0.000000 0.000000 0.000000 0.017646 0.000000
# 6 0.000000 0.000000 0.000000 0.000000 0.000000 0.027830
#
#
# Mechanical properties :
#
#
# Convention : Reuss Voigt Hill
#
# Bulk Modulus (GPa) = 65.71628 73.53458 69.62543
# Shear Modulus (GPa) = 42.26679 46.60914 44.43797
#
# Velocity S-wave (km/s) = 4.00710 4.20791 4.10873
# Velocity P-wave (km/s) = 6.80987 7.17941 6.99708
#
# Compressibility (1/GPa) = 0.01521693
#
# Stress axis : x y z
#
# Youngs Moduli (GPa) = 97.10831 184.66373 86.76032
#
# Poissons Ratio (x) = 0.08825 0.24221
# Poissons Ratio (y) = 0.04641 0.23785
# Poissons Ratio (z) = 0.27110 0.50624
#
# Static dielectric constant tensor:
#      x y z
#    x 2.101180 0.000000 0.000000 
#    y 0.000000 2.129060 0.000000 
#    z 0.000000 0.000000 2.123690 
# 
# From -- ./inp_files/17567.got.cif
#   From: 2010.05.17/outbox.cif.g08.bks.cpg/sg60_9_cif.got.tgz:17567.got - 2010.06.03 14:59:27.
