data_PCOD9457592
_publ_section_title
;
Structure prediction by ZEFSAII (Michael W. Deem and Ramdas Pophale) SiO2 
 PCOD9457592
Probable space group: P B C N
;
_chemical_formula_sum "Si O2"
_cell_formula_units_Z 36
_cell_length_a 4.945766
_cell_length_b 20.221813
_cell_length_c 13.865745
_cell_angle_alpha 90.000000
_cell_angle_beta 90.000000
_cell_angle_gamma 90.000000
_cell_volume 1386.745814
_symmetry_space_group_name_H-M "P B C N"
_symmetry_group_IT_number 60
_symmetry_cell_setting 'orthorhombic'
loop_
_space_group_symop_operation_xyz
x,y,z
1/2-x,1/2-y,1/2+z
1/2+x,1/2-y,-z
-x,y,1/2-z
-x,-y,-z
1/2+x,1/2+y,1/2-z
1/2-x,1/2+y,z
x,-y,1/2+z
loop_
_atom_site_type_symbol
_atom_site_label
_atom_site_fract_x
_atom_site_fract_y
_atom_site_fract_z
Si Si1 0.441229 0.780851 0.157019
Si Si2 0.689276 0.537379 0.923512
Si Si3 0.500000 0.815957 0.750000
Si Si4 0.948363 0.834710 0.061039
Si Si5 0.409836 0.905893 0.583345
O O1 0.500000 0.828577 0.250000
O O2 0.255678 0.726934 0.214255
O O3 0.728951 0.785328 0.105041
O O4 0.235323 0.800243 0.072372
O O5 0.510272 0.596537 0.880669
O O6 0.812343 0.474818 0.868159
O O7 0.500000 0.500000 0.000000
O O8 0.920289 0.572309 0.989010
O O9 0.571383 0.862943 0.660127
O O10 0.835194 0.861083 0.959364
#
# Coordination Sequence:
#
# PCOD9457592 Si02
#       5
#     8   8   4   8   8
#     4  12  25  47  70 106 154 199 252 319 373 470
#     4   9  20  44  78 106 140 197 263 315 393 460
#     4  12  28  46  70 114 162 198 260 314 394 462
#     4  11  22  47  76 103 143 201 258 309 392 459
#     4  10  23  46  75 111 152 203 257 328 384 479
#
# _framework density 25.960059000000001
#
# number of rings (size 3 to 8) (size 9 to 14) (size 15 to 20)
#    0.000    1.333    4.444    0.000    0.000    5.333 
#    2.000    4.444    0.000    0.000    0.000    0.000 
#    0.000    0.000    0.000    0.000    0.000    0.000 
#
# Total GULP energy -200509.498826 kJ/mol
# GULP energy per Si atom -5569.708301 kJ/mol
# Density = 2.590097 g / cm^3
# Si number density = 25.960059 Si / 1000 Ang^3
#
#
#
# Elastic Constant Matrix: (Units=GPa)
#
#
# Indices 1 2 3 4 5 6 
#
# 1 156.4353 41.2212 19.4963 0.0000 0.0000 0.0000
# 2 41.2212 149.7305 54.5991 0.0000 0.0000 0.0000
# 3 19.4963 54.5991 81.9271 0.0000 0.0000 0.0000
# 4 0.0000 0.0000 0.0000 22.0403 0.0000 0.0000
# 5 0.0000 0.0000 0.0000 0.0000 24.1506 0.0000
# 6 0.0000 0.0000 0.0000 0.0000 0.0000 28.2054
#
#
#
# Elastic Compliance Matrix: (Units=1/GPa)
#
#
# Indices 1 2 3 4 5 6 
#
# 1 0.006908 -0.001720 -0.000497 0.000000 0.000000 0.000000
# 2 -0.001720 0.009251 -0.005756 0.000000 0.000000 0.000000
# 3 -0.000497 -0.005756 0.016160 0.000000 0.000000 0.000000
# 4 0.000000 0.000000 0.000000 0.045371 0.000000 0.000000
# 5 0.000000 0.000000 0.000000 0.000000 0.041407 0.000000
# 6 0.000000 0.000000 0.000000 0.000000 0.000000 0.035454
#
#
# Mechanical properties :
#
#
# Convention : Reuss Voigt Hill
#
# Bulk Modulus (GPa) = 61.08004 68.74733 64.91369
# Shear Modulus (GPa) = 28.41617 33.06434 30.74026
#
# Velocity S-wave (km/s) = 3.31208 3.57271 3.44486
# Velocity P-wave (km/s) = 6.18110 6.59988 6.39392
#
# Compressibility (1/GPa) = 0.01637196
#
# Stress axis : x y z
#
# Youngs Moduli (GPa) = 144.76549 108.09437 61.88018
#
# Poissons Ratio (x) = 0.18596 0.03077
# Poissons Ratio (y) = 0.24905 0.35618
# Poissons Ratio (z) = 0.07200 0.62218
#
# Static dielectric constant tensor:
#      x y z
#    x 2.151320 0.000000 0.000000 
#    y 0.000000 2.256220 0.000000 
#    z 0.000000 0.000000 3.187340 
# 
# From -- ./inp_files/13722.got.cif
#   From: 2010.05.17/outbox.cif.g08.bks.cpg/sg60_7_cif.got.tgz:13722.got - 2010.06.03 14:59:27.
