data_PCOD9457309
_publ_section_title
;
Structure prediction by ZEFSAII (Michael W. Deem and Ramdas Pophale) SiO2 
 PCOD9457309
Probable space group: P B C N
;
_chemical_formula_sum "Si O2"
_cell_formula_units_Z 48
_cell_length_a 14.365891
_cell_length_b 17.513718
_cell_length_c 9.162782
_cell_angle_alpha 90.000000
_cell_angle_beta 90.000000
_cell_angle_gamma 90.000000
_cell_volume 2305.357452
_symmetry_space_group_name_H-M "P B C N"
_symmetry_group_IT_number 60
_symmetry_cell_setting 'orthorhombic'
loop_
_space_group_symop_operation_xyz
x,y,z
1/2-x,1/2-y,1/2+z
1/2+x,1/2-y,-z
-x,y,1/2-z
-x,-y,-z
1/2+x,1/2+y,1/2-z
1/2-x,1/2+y,z
x,-y,1/2+z
loop_
_atom_site_type_symbol
_atom_site_label
_atom_site_fract_x
_atom_site_fract_y
_atom_site_fract_z
Si Si1 0.788647 0.393874 0.149625
Si Si2 0.103389 0.162434 0.807487
Si Si3 0.931935 0.360188 0.372747
Si Si4 0.204998 0.683878 0.170346
Si Si5 0.903116 0.549610 0.163586
Si Si6 0.078403 0.189443 0.141986
O O1 0.682892 0.401747 0.204341
O O2 0.834866 0.355929 0.291029
O O3 0.842499 0.473870 0.132288
O O4 0.800287 0.339489 0.004722
O O5 0.149191 0.240833 0.734336
O O6 0.000000 0.152515 0.750000
O O7 0.089860 0.157833 0.981534
O O8 0.929752 0.412804 0.510397
O O9 0.959765 0.273878 0.400339
O O10 0.000000 0.389723 0.250000
O O11 0.159724 0.611325 0.250890
O O12 0.315937 0.689528 0.204757
O O13 0.000000 0.542084 0.250000
O O14 0.000000 0.156444 0.250000
#
# Coordination Sequence:
#
# PCOD9457309 Si02
#       6
#     8   8   8   8   8   8
#     4  11  25  42  62  97 136 172 218 267 330 397
#     4  11  24  42  67  96 128 175 224 277 323 384
#     4  11  22  37  64  97 133 172 213 265 324 388
#     4  11  23  43  67  98 135 172 223 270 330 387
#     4  12  25  44  67 101 137 176 213 272 337 398
#     4  10  23  39  65 100 132 170 218 272 325 385
#
# _framework density 20.821065999999998
#
# number of rings (size 3 to 8) (size 9 to 14) (size 15 to 20)
#    0.000    1.000    3.333    3.000    4.667    3.333 
#    0.000    1.667    0.000    5.000    0.000    0.000 
#    0.000    0.000    0.000    0.000    0.000    0.000 
#
# Total GULP energy -267245.801468 kJ/mol
# GULP energy per Si atom -5567.620864 kJ/mol
# Density = 2.077368 g / cm^3
# Si number density = 20.821066 Si / 1000 Ang^3
#
#
#
# Elastic Constant Matrix: (Units=GPa)
#
#
# Indices 1 2 3 4 5 6 
#
# 1 193.8019 38.9430 66.7018 0.0000 0.0000 0.0000
# 2 38.9430 52.6666 2.2822 0.0000 0.0000 0.0000
# 3 66.7018 2.2822 76.8246 0.0000 0.0000 0.0000
# 4 0.0000 0.0000 0.0000 88.3452 0.0000 0.0000
# 5 0.0000 0.0000 0.0000 0.0000 39.9875 0.0000
# 6 0.0000 0.0000 0.0000 0.0000 0.0000 18.2941
#
#
#
# Elastic Compliance Matrix: (Units=1/GPa)
#
#
# Indices 1 2 3 4 5 6 
#
# 1 0.009098 -0.006393 -0.007709 0.000000 0.000000 0.000000
# 2 -0.006393 0.023504 0.004852 0.000000 0.000000 0.000000
# 3 -0.007709 0.004852 0.019566 0.000000 0.000000 0.000000
# 4 0.000000 0.000000 0.000000 0.011319 0.000000 0.000000
# 5 0.000000 0.000000 0.000000 0.000000 0.025008 0.000000
# 6 0.000000 0.000000 0.000000 0.000000 0.000000 0.054662
#
#
# Mechanical properties :
#
#
# Convention : Reuss Voigt Hill
#
# Bulk Modulus (GPa) = 29.70140 59.90524 44.80332
# Shear Modulus (GPa) = 28.92184 43.68312 36.30248
#
# Velocity S-wave (km/s) = 3.73106 4.58539 4.18011
# Velocity P-wave (km/s) = 5.73211 7.54111 6.69796
#
# Compressibility (1/GPa) = 0.03366845
#
# Stress axis : x y z
#
# Youngs Moduli (GPa) = 109.91608 42.54543 51.10941
#
# Poissons Ratio (x) = 0.27200 0.39401
# Poissons Ratio (y) = 0.70271 -0.24801
# Poissons Ratio (z) = 0.84736 -0.20645
#
# Static dielectric constant tensor:
#      x y z
#    x 1.457670 0.000000 0.000000 
#    y 0.000000 1.793960 0.000000 
#    z 0.000000 0.000000 1.454660 
# 
# From -- ./inp_files/5919.got.cif
#   From: 2010.05.17/outbox.cif.g08.bks.cpg/sg60_3_cif.got.tgz:5919.got - 2010.06.03 14:59:27.
