data_PCOD9457659
_publ_section_title
;
Structure prediction by ZEFSAII (Michael W. Deem and Ramdas Pophale) SiO2 
 PCOD9457659
Probable space group: P B C N
;
_chemical_formula_sum "Si O2"
_cell_formula_units_Z 40
_cell_length_a 8.708821
_cell_length_b 10.559131
_cell_length_c 18.714277
_cell_angle_alpha 90.000000
_cell_angle_beta 90.000000
_cell_angle_gamma 90.000000
_cell_volume 1720.919658
_symmetry_space_group_name_H-M "P B C N"
_symmetry_group_IT_number 60
_symmetry_cell_setting 'orthorhombic'
loop_
_space_group_symop_operation_xyz
x,y,z
1/2-x,1/2-y,1/2+z
1/2+x,1/2-y,-z
-x,y,1/2-z
-x,-y,-z
1/2+x,1/2+y,1/2-z
1/2-x,1/2+y,z
x,-y,1/2+z
loop_
_atom_site_type_symbol
_atom_site_label
_atom_site_fract_x
_atom_site_fract_y
_atom_site_fract_z
Si Si1 0.000000 0.866136 0.250000
Si Si2 0.804969 0.610574 0.450168
Si Si3 0.209641 0.232214 0.191799
Si Si4 0.000000 0.571725 0.750000
Si Si5 0.330701 0.849746 0.969764
Si Si6 0.786788 0.059511 0.178488
O O1 0.878069 0.786582 0.294027
O O2 0.907317 0.948421 0.192050
O O3 0.724911 0.637174 0.373835
O O4 0.721293 0.712927 0.501614
O O5 0.794796 0.464889 0.475168
O O6 0.987158 0.644347 0.452115
O O7 0.090916 0.347693 0.189667
O O8 0.166092 0.165922 0.265668
O O9 0.875370 0.491238 0.707760
O O10 0.234980 0.885388 0.899251
#
# Coordination Sequence:
#
# PCOD9457659 Si02
#       6
#     4   8   8   4   8   8
#     4  10  24  40  72 100 134 178 250 288 360 416
#     4  11  28  47  73 107 148 193 240 297 366 429
#     4  11  24  44  69 103 136 186 239 296 352 428
#     4  10  24  40  74  98 140 178 244 296 358 414
#     4  11  28  48  72 107 149 193 239 299 365 431
#     4  11  24  45  70 103 137 186 239 298 353 425
#
# _framework density 23.243386000000001
#
# number of rings (size 3 to 8) (size 9 to 14) (size 15 to 20)
#    0.000    1.200    0.000    3.600   19.600    2.400 
#    0.000    0.000    0.000    0.000    0.000    0.000 
#    0.000    0.000    0.000    0.000    0.000    0.000 
#
# Total GULP energy -223999.000407 kJ/mol
# GULP energy per Si atom -5599.975010 kJ/mol
# Density = 2.319048 g / cm^3
# Si number density = 23.243386 Si / 1000 Ang^3
#
#
#
# Elastic Constant Matrix: (Units=GPa)
#
#
# Indices 1 2 3 4 5 6 
#
# 1 81.0510 12.3023 -2.1905 0.0000 0.0000 0.0000
# 2 12.3023 48.9138 -10.0164 0.0000 0.0000 0.0000
# 3 -2.1905 -10.0164 87.5300 0.0000 0.0000 0.0000
# 4 0.0000 0.0000 0.0000 36.1069 0.0000 0.0000
# 5 0.0000 0.0000 0.0000 0.0000 5.4184 0.0000
# 6 0.0000 0.0000 0.0000 0.0000 0.0000 50.8153
#
#
#
# Elastic Compliance Matrix: (Units=1/GPa)
#
#
# Indices 1 2 3 4 5 6 
#
# 1 0.012828 -0.003236 -0.000049 0.000000 0.000000 0.000000
# 2 -0.003236 0.021751 0.002408 0.000000 0.000000 0.000000
# 3 -0.000049 0.002408 0.011699 0.000000 0.000000 0.000000
# 4 0.000000 0.000000 0.000000 0.027696 0.000000 0.000000
# 5 0.000000 0.000000 0.000000 0.000000 0.184557 0.000000
# 6 0.000000 0.000000 0.000000 0.000000 0.000000 0.019679
#
#
# Mechanical properties :
#
#
# Convention : Reuss Voigt Hill
#
# Bulk Modulus (GPa) = 22.46046 24.18730 23.32388
# Shear Modulus (GPa) = 16.96030 32.96140 24.96085
#
# Velocity S-wave (km/s) = 2.70419 3.76985 3.28058
# Velocity P-wave (km/s) = 4.40844 5.42012 4.94025
#
# Compressibility (1/GPa) = 0.04452268
#
# Stress axis : x y z
#
# Youngs Moduli (GPa) = 77.95555 45.97442 85.47746
#
# Poissons Ratio (x) = 0.14879 0.00422
# Poissons Ratio (y) = 0.25230 -0.20584
# Poissons Ratio (z) = 0.00385 -0.11071
#
# Static dielectric constant tensor:
#      x y z
#    x 1.814110 0.000000 0.000000 
#    y 0.000000 1.906980 0.000000 
#    z 0.000000 0.000000 1.863100 
# 
# From -- ./inp_files/19052.got.cif
#   From: 2010.05.17/outbox.cif.g08.bks.cpg/sg60_10_cif.got.tgz:19052.got - 2010.06.03 14:59:27.
