data_PCOD9457313
_publ_section_title
;
Structure prediction by ZEFSAII (Michael W. Deem and Ramdas Pophale) SiO2 
 PCOD9457313
Probable space group: P B C N
;
_chemical_formula_sum "Si O2"
_cell_formula_units_Z 60
_cell_length_a 6.159462
_cell_length_b 22.258707
_cell_length_c 19.583241
_cell_angle_alpha 90.000000
_cell_angle_beta 90.000000
_cell_angle_gamma 90.000000
_cell_volume 2684.894848
_symmetry_space_group_name_H-M "P B C N"
_symmetry_group_IT_number 60
_symmetry_cell_setting 'orthorhombic'
loop_
_space_group_symop_operation_xyz
x,y,z
1/2-x,1/2-y,1/2+z
1/2+x,1/2-y,-z
-x,y,1/2-z
-x,-y,-z
1/2+x,1/2+y,1/2-z
1/2-x,1/2+y,z
x,-y,1/2+z
loop_
_atom_site_type_symbol
_atom_site_label
_atom_site_fract_x
_atom_site_fract_y
_atom_site_fract_z
Si Si1 0.666259 0.218390 0.093058
Si Si2 0.178099 0.809091 0.061128
Si Si3 0.665221 0.435598 0.191230
Si Si4 0.048681 0.318134 0.331215
Si Si5 0.500000 0.967910 0.750000
Si Si6 0.948956 0.399208 0.875694
Si Si7 0.123515 0.097788 0.010158
Si Si8 0.220895 0.993817 0.930552
O O1 0.437479 0.252470 0.095070
O O2 0.837367 0.260582 0.132534
O O3 0.626807 0.153558 0.126027
O O4 0.718121 0.208374 0.012344
O O5 0.345751 0.832885 0.118086
O O6 0.980924 0.852717 0.038413
O O7 0.500000 0.418134 0.250000
O O8 0.796335 0.376538 0.169378
O O9 0.824847 0.485970 0.221002
O O10 0.573000 0.472761 0.126909
O O11 0.000000 0.307098 0.250000
O O12 0.381072 0.923104 0.697679
O O13 0.073351 0.457713 0.904434
O O14 0.752506 0.379036 0.924205
O O15 0.287852 0.051847 0.973828
O O16 0.925654 0.055020 0.032052
#
# Coordination Sequence:
#
# PCOD9457313 Si02
#       8
#     8   8   8   8   4   8   8   8
#     4  12  26  47  73 100 146 196 246 305 358 448
#     4  12  26  47  73 106 143 197 249 304 372 429
#     4  11  24  45  72 102 143 189 237 301 374 447
#     4  12  30  48  74 109 146 189 249 313 375 447
#     4  10  24  46  70 106 148 190 234 310 376 448
#     4  11  24  43  67 101 142 190 240 294 371 437
#     4  11  23  40  70 103 139 184 239 300 356 446
#     4  10  23  39  66 104 141 178 233 296 365 436
#
# _framework density 22.347242999999999
#
# number of rings (size 3 to 8) (size 9 to 14) (size 15 to 20)
#    0.000    0.800    3.333    2.800    5.600    5.333 
#    0.000    0.667    0.000    0.000    0.000    0.000 
#    0.000    0.000    0.000    0.000    0.000    0.000 
#
# Total GULP energy -334913.891278 kJ/mol
# GULP energy per Si atom -5581.898188 kJ/mol
# Density = 2.229638 g / cm^3
# Si number density = 22.347243 Si / 1000 Ang^3
#
#
#
# Elastic Constant Matrix: (Units=GPa)
#
#
# Indices 1 2 3 4 5 6 
#
# 1 51.3115 32.1269 34.6794 0.0000 0.0000 0.0000
# 2 32.1269 99.9228 63.5044 0.0000 0.0000 0.0000
# 3 34.6794 63.5044 111.0158 0.0000 0.0000 0.0000
# 4 0.0000 0.0000 0.0000 33.5907 0.0000 0.0000
# 5 0.0000 0.0000 0.0000 0.0000 50.6281 0.0000
# 6 0.0000 0.0000 0.0000 0.0000 0.0000 40.8192
#
#
#
# Elastic Compliance Matrix: (Units=1/GPa)
#
#
# Indices 1 2 3 4 5 6 
#
# 1 0.026244 -0.005071 -0.005297 0.000000 0.000000 0.000000
# 2 -0.005071 0.016704 -0.007971 0.000000 0.000000 0.000000
# 3 -0.005297 -0.007971 0.015222 0.000000 0.000000 0.000000
# 4 0.000000 0.000000 0.000000 0.029770 0.000000 0.000000
# 5 0.000000 0.000000 0.000000 0.000000 0.019752 0.000000
# 6 0.000000 0.000000 0.000000 0.000000 0.000000 0.024498
#
#
# Mechanical properties :
#
#
# Convention : Reuss Voigt Hill
#
# Bulk Modulus (GPa) = 46.53068 58.09682 52.31375
# Shear Modulus (GPa) = 28.40358 33.80355 31.10356
#
# Velocity S-wave (km/s) = 3.56899 3.89350 3.73477
# Velocity P-wave (km/s) = 6.15227 6.80193 6.48524
#
# Compressibility (1/GPa) = 0.02149119
#
# Stress axis : x y z
#
# Youngs Moduli (GPa) = 38.10353 59.86527 65.69354
#
# Poissons Ratio (x) = 0.30360 0.34800
# Poissons Ratio (y) = 0.19324 0.52365
# Poissons Ratio (z) = 0.20184 0.47719
#
# Static dielectric constant tensor:
#      x y z
#    x 1.809240 0.000000 0.000000 
#    y 0.000000 1.797660 0.000000 
#    z 0.000000 0.000000 1.924880 
# 
# From -- ./inp_files/21770.got.cif
#   From: 2010.05.17/outbox.cif.g08.bks.cpg/sg60_11_cif.got.tgz:21770.got - 2010.06.03 14:59:27.
