data_PCOD9457955
_publ_section_title
;
Structure prediction by ZEFSAII (Michael W. Deem and Ramdas Pophale) SiO2 
 PCOD9457955
Probable space group: P B C N
;
_chemical_formula_sum "Si O2"
_cell_formula_units_Z 40
_cell_length_a 12.124264
_cell_length_b 7.660907
_cell_length_c 17.932018
_cell_angle_alpha 90.000000
_cell_angle_beta 90.000000
_cell_angle_gamma 90.000000
_cell_volume 1665.577099
_symmetry_space_group_name_H-M "P B C N"
_symmetry_group_IT_number 60
_symmetry_cell_setting 'orthorhombic'
loop_
_space_group_symop_operation_xyz
x,y,z
1/2-x,1/2-y,1/2+z
1/2+x,1/2-y,-z
-x,y,1/2-z
-x,-y,-z
1/2+x,1/2+y,1/2-z
1/2-x,1/2+y,z
x,-y,1/2+z
loop_
_atom_site_type_symbol
_atom_site_label
_atom_site_fract_x
_atom_site_fract_y
_atom_site_fract_z
Si Si1 0.919681 0.069828 0.318500
Si Si2 0.963372 0.352199 0.941398
Si Si3 0.681861 0.815989 0.808383
Si Si4 0.337645 0.948282 0.858612
Si Si5 0.108223 0.828072 0.918966
O O1 0.812256 0.190077 0.321550
O O2 0.000000 0.112702 0.250000
O O3 0.996070 0.086680 0.390339
O O4 0.872304 0.875370 0.306867
O O5 0.878818 0.409848 0.877230
O O6 0.077294 0.314670 0.898121
O O7 0.903573 0.211073 0.993493
O O8 0.000000 0.500000 0.000000
O O9 0.664574 0.906546 0.728654
O O10 0.217316 0.930517 0.894896
O O11 0.379299 0.142627 0.875723
#
# Coordination Sequence:
#
# PCOD9457955 Si02
#       5
#     8   8   8   8   8
#     4  12  28  47  74 115 145 197 256 316 378 456
#     4  10  26  45  74 109 149 201 248 307 385 449
#     4  12  27  48  79 109 150 199 255 311 383 453
#     4  11  24  49  77 105 154 197 248 319 371 456
#     4  11  27  46  75 111 151 193 253 310 385 451
#
# _framework density 24.015699999999999
#
# number of rings (size 3 to 8) (size 9 to 14) (size 15 to 20)
#    0.000    0.800    2.000    3.000   11.200    2.400 
#    0.000    0.000    0.000    0.000    0.000    0.000 
#    0.000    0.000    0.000    0.000    0.000    0.000 
#
# Total GULP energy -224108.480494 kJ/mol
# GULP energy per Si atom -5602.712012 kJ/mol
# Density = 2.396104 g / cm^3
# Si number density = 24.015700 Si / 1000 Ang^3
#
#
#
# Elastic Constant Matrix: (Units=GPa)
#
#
# Indices 1 2 3 4 5 6 
#
# 1 202.2692 47.9044 90.7526 0.0000 0.0000 0.0000
# 2 47.9044 84.7338 32.6178 0.0000 0.0000 0.0000
# 3 90.7526 32.6178 162.6728 0.0000 0.0000 0.0000
# 4 0.0000 0.0000 0.0000 23.4817 0.0000 0.0000
# 5 0.0000 0.0000 0.0000 0.0000 38.1235 0.0000
# 6 0.0000 0.0000 0.0000 0.0000 0.0000 42.7231
#
#
#
# Elastic Compliance Matrix: (Units=1/GPa)
#
#
# Indices 1 2 3 4 5 6 
#
# 1 0.007125 -0.002707 -0.003432 0.000000 0.000000 0.000000
# 2 -0.002707 0.013817 -0.001260 0.000000 0.000000 0.000000
# 3 -0.003432 -0.001260 0.008315 0.000000 0.000000 0.000000
# 4 0.000000 0.000000 0.000000 0.042586 0.000000 0.000000
# 5 0.000000 0.000000 0.000000 0.000000 0.026231 0.000000
# 6 0.000000 0.000000 0.000000 0.000000 0.000000 0.023407
#
#
# Mechanical properties :
#
#
# Convention : Reuss Voigt Hill
#
# Bulk Modulus (GPa) = 69.16545 88.02502 78.59524
# Shear Modulus (GPa) = 35.43627 39.42572 37.43099
#
# Velocity S-wave (km/s) = 3.84545 4.05614 3.95220
# Velocity P-wave (km/s) = 6.96988 7.65957 7.32285
#
# Compressibility (1/GPa) = 0.01445809
#
# Stress axis : x y z
#
# Youngs Moduli (GPa) = 140.35318 72.37361 120.26832
#
# Poissons Ratio (x) = 0.19591 0.41277
# Poissons Ratio (y) = 0.37992 0.15158
# Poissons Ratio (z) = 0.48171 0.09122
#
# Static dielectric constant tensor:
#      x y z
#    x 1.899820 0.000000 0.000000 
#    y 0.000000 1.998710 0.000000 
#    z 0.000000 0.000000 1.904390 
# 
# From -- ./inp_files/19864.got.cif
#   From: 2010.05.17/outbox.cif.g08.bks.cpg/sg60_10_cif.got.tgz:19864.got - 2010.06.03 14:59:27.
