data_PCOD9457803
_publ_section_title
;
Structure prediction by ZEFSAII (Michael W. Deem and Ramdas Pophale) SiO2 
 PCOD9457803
Probable space group: P B C N
;
_chemical_formula_sum "Si O2"
_cell_formula_units_Z 48
_cell_length_a 16.273755
_cell_length_b 9.064086
_cell_length_c 17.333687
_cell_angle_alpha 90.000000
_cell_angle_beta 90.000000
_cell_angle_gamma 90.000000
_cell_volume 2556.835226
_symmetry_space_group_name_H-M "P B C N"
_symmetry_group_IT_number 60
_symmetry_cell_setting 'orthorhombic'
loop_
_space_group_symop_operation_xyz
x,y,z
1/2-x,1/2-y,1/2+z
1/2+x,1/2-y,-z
-x,y,1/2-z
-x,-y,-z
1/2+x,1/2+y,1/2-z
1/2-x,1/2+y,z
x,-y,1/2+z
loop_
_atom_site_type_symbol
_atom_site_label
_atom_site_fract_x
_atom_site_fract_y
_atom_site_fract_z
Si Si1 0.838889 0.520052 0.677171
Si Si2 0.709405 0.739540 0.447409
Si Si3 0.803709 0.829608 0.598344
Si Si4 0.504902 0.176078 0.160130
Si Si5 0.170252 0.534392 0.141985
Si Si6 0.073107 0.072442 0.951972
O O1 0.826355 0.683882 0.645521
O O2 0.773638 0.412763 0.636006
O O3 0.929277 0.457119 0.658947
O O4 0.824193 0.510496 0.768557
O O5 0.776011 0.781496 0.512772
O O6 0.755573 0.639922 0.384350
O O7 0.637992 0.649840 0.490525
O O8 0.674843 0.888450 0.410018
O O9 0.877535 0.945205 0.592797
O O10 0.500000 0.223669 0.250000
O O11 0.416024 0.119691 0.133298
O O12 0.538117 0.306252 0.106678
O O13 0.000000 0.000000 0.000000
#
# Coordination Sequence:
#
# PCOD9457803 Si02
#       6
#     8   8   8   8   8   8
#     4  11  22  43  67  94 130 176 216 265 324 387
#     4  12  23  43  65  97 130 169 216 269 325 388
#     4  12  22  43  68  96 129 173 221 262 323 394
#     4  10  24  46  67  94 134 172 215 271 328 387
#     4  11  25  42  66  98 131 168 217 270 325 386
#     4  12  26  43  65  97 130 171 219 271 332 388
#
# _framework density 18.773206999999999
#
# number of rings (size 3 to 8) (size 9 to 14) (size 15 to 20)
#    0.000    0.667    5.000    2.000    2.333    2.000 
#    3.000    0.000    0.000    0.000    0.000    0.000 
#    0.000    0.000    0.000    0.000    0.000    0.000 
#
# Total GULP energy -268518.548729 kJ/mol
# GULP energy per Si atom -5594.136432 kJ/mol
# Density = 1.873048 g / cm^3
# Si number density = 18.773207 Si / 1000 Ang^3
#
#
#
# Elastic Constant Matrix: (Units=GPa)
#
#
# Indices 1 2 3 4 5 6 
#
# 1 98.5020 56.6316 52.3946 0.0000 0.0000 0.0000
# 2 56.6316 122.7486 63.7047 0.0000 0.0000 0.0000
# 3 52.3946 63.7047 92.0810 0.0000 0.0000 0.0000
# 4 0.0000 0.0000 0.0000 38.2834 0.0000 0.0000
# 5 0.0000 0.0000 0.0000 0.0000 35.1386 0.0000
# 6 0.0000 0.0000 0.0000 0.0000 0.0000 34.2626
#
#
#
# Elastic Compliance Matrix: (Units=1/GPa)
#
#
# Indices 1 2 3 4 5 6 
#
# 1 0.015771 -0.004086 -0.006147 0.000000 0.000000 0.000000
# 2 -0.004086 0.013769 -0.007201 0.000000 0.000000 0.000000
# 3 -0.006147 -0.007201 0.019339 0.000000 0.000000 0.000000
# 4 0.000000 0.000000 0.000000 0.026121 0.000000 0.000000
# 5 0.000000 0.000000 0.000000 0.000000 0.028459 0.000000
# 6 0.000000 0.000000 0.000000 0.000000 0.000000 0.029186
#
#
# Mechanical properties :
#
#
# Convention : Reuss Voigt Hill
#
# Bulk Modulus (GPa) = 71.36860 73.19926 72.28393
# Shear Modulus (GPa) = 29.03877 30.91028 29.97453
#
# Velocity S-wave (km/s) = 3.93723 4.06212 4.00016
# Velocity P-wave (km/s) = 7.66601 7.81519 7.74096
#
# Compressibility (1/GPa) = 0.01401176
#
# Stress axis : x y z
#
# Youngs Moduli (GPa) = 63.40831 72.62682 51.70765
#
# Poissons Ratio (x) = 0.29675 0.31784
# Poissons Ratio (y) = 0.25908 0.37234
# Poissons Ratio (z) = 0.38976 0.52298
#
# Static dielectric constant tensor:
#      x y z
#    x 1.632810 0.000000 0.000000 
#    y 0.000000 1.621170 0.000000 
#    z 0.000000 0.000000 1.634120 
# 
# From -- ./inp_files/20465.got.cif
#   From: 2010.05.17/outbox.cif.g08.bks.cpg/sg60_11_cif.got.tgz:20465.got - 2010.06.03 14:59:27.
