data_PCOD9457180
_publ_section_title
;
Structure prediction by ZEFSAII (Michael W. Deem and Ramdas Pophale) SiO2 
 PCOD9457180
Probable space group: P B C N
;
_chemical_formula_sum "Si O2"
_cell_formula_units_Z 48
_cell_length_a 8.604659
_cell_length_b 17.740555
_cell_length_c 13.293377
_cell_angle_alpha 90.000000
_cell_angle_beta 90.000000
_cell_angle_gamma 90.000000
_cell_volume 2029.252959
_symmetry_space_group_name_H-M "P B C N"
_symmetry_group_IT_number 60
_symmetry_cell_setting 'orthorhombic'
loop_
_space_group_symop_operation_xyz
x,y,z
1/2-x,1/2-y,1/2+z
1/2+x,1/2-y,-z
-x,y,1/2-z
-x,-y,-z
1/2+x,1/2+y,1/2-z
1/2-x,1/2+y,z
x,-y,1/2+z
loop_
_atom_site_type_symbol
_atom_site_label
_atom_site_fract_x
_atom_site_fract_y
_atom_site_fract_z
Si Si1 0.268033 0.575698 0.089572
Si Si2 0.227776 0.918025 0.018898
Si Si3 0.526470 0.299906 0.996508
Si Si4 0.841091 0.141044 0.688435
Si Si5 0.830415 0.961177 0.704350
Si Si6 0.046340 0.363826 0.413038
O O1 0.387384 0.644851 0.081156
O O2 0.217470 0.562018 0.203734
O O3 0.345457 0.495879 0.058726
O O4 0.143852 0.593698 0.002367
O O5 0.233183 0.925607 0.898438
O O6 0.125179 0.844249 0.035021
O O7 0.384581 0.908710 0.082466
O O8 0.494142 0.219049 0.953572
O O9 0.635976 0.303450 0.093350
O O10 0.650729 0.144751 0.687910
O O11 0.000000 0.159533 0.750000
O O12 0.849451 0.050083 0.682165
O O13 0.000000 0.938566 0.750000
#
# Coordination Sequence:
#
# PCOD9457180 Si02
#       6
#     8   8   8   8   8   8
#     4  11  23  42  68 100 135 185 246 293 371 446
#     4  12  21  41  72  96 137 183 242 308 351 446
#     4  11  22  44  69  94 142 194 230 293 383 465
#     4  10  22  44  70  99 137 188 241 297 370 457
#     4  11  21  38  70 101 127 178 247 293 351 443
#     4  11  25  43  66 104 146 184 232 307 391 431
#
# _framework density 23.654026000000002
#
# number of rings (size 3 to 8) (size 9 to 14) (size 15 to 20)
#    0.000    1.000    5.000    5.000    0.000    0.667 
#    6.000    2.500    3.667    0.000    0.000    0.000 
#    0.000    0.000    0.000    0.000    0.000    0.000 
#
# Total GULP energy -267235.855166 kJ/mol
# GULP energy per Si atom -5567.413649 kJ/mol
# Density = 2.360019 g / cm^3
# Si number density = 23.654026 Si / 1000 Ang^3
#
#
#
# Elastic Constant Matrix: (Units=GPa)
#
#
# Indices 1 2 3 4 5 6 
#
# 1 75.0295 29.1776 18.5632 0.0000 0.0000 0.0000
# 2 29.1776 95.8089 12.3422 0.0000 0.0000 0.0000
# 3 18.5632 12.3422 111.2911 0.0000 0.0000 0.0000
# 4 0.0000 0.0000 0.0000 4.7460 0.0000 0.0000
# 5 0.0000 0.0000 0.0000 0.0000 27.5310 0.0000
# 6 0.0000 0.0000 0.0000 0.0000 0.0000 31.5962
#
#
#
# Elastic Compliance Matrix: (Units=1/GPa)
#
#
# Indices 1 2 3 4 5 6 
#
# 1 0.015589 -0.004477 -0.002104 0.000000 0.000000 0.000000
# 2 -0.004477 0.011874 -0.000570 0.000000 0.000000 0.000000
# 3 -0.002104 -0.000570 0.009400 0.000000 0.000000 0.000000
# 4 0.000000 0.000000 0.000000 0.210702 0.000000 0.000000
# 5 0.000000 0.000000 0.000000 0.000000 0.036323 0.000000
# 6 0.000000 0.000000 0.000000 0.000000 0.000000 0.031649
#
#
# Mechanical properties :
#
#
# Convention : Reuss Voigt Hill
#
# Bulk Modulus (GPa) = 44.32221 44.69951 44.51086
# Shear Modulus (GPa) = 14.82100 27.57775 21.19937
#
# Velocity S-wave (km/s) = 2.50586 3.41820 2.99695
# Velocity P-wave (km/s) = 5.21065 5.87512 5.55283
#
# Compressibility (1/GPa) = 0.02256205
#
# Stress axis : x y z
#
# Youngs Moduli (GPa) = 64.14585 84.21625 106.38761
#
# Poissons Ratio (x) = 0.37700 0.22382
# Poissons Ratio (y) = 0.28716 0.06066
# Poissons Ratio (z) = 0.13495 0.04802
#
# Static dielectric constant tensor:
#      x y z
#    x 2.055600 0.000000 0.000000 
#    y 0.000000 1.807860 0.000000 
#    z 0.000000 0.000000 1.971480 
# 
# From -- ./inp_files/15002.got.cif
#   From: 2010.05.17/outbox.cif.g08.bks.cpg/sg60_8_cif.got.tgz:15002.got - 2010.06.03 14:59:27.
