data_PCOD9457695
_publ_section_title
;
Structure prediction by ZEFSAII (Michael W. Deem and Ramdas Pophale) SiO2 
 PCOD9457695
Probable space group: P B C N
;
_chemical_formula_sum "Si O2"
_cell_formula_units_Z 56
_cell_length_a 15.378571
_cell_length_b 19.129647
_cell_length_c 8.272736
_cell_angle_alpha 90.000000
_cell_angle_beta 90.000000
_cell_angle_gamma 90.000000
_cell_volume 2433.728363
_symmetry_space_group_name_H-M "P B C N"
_symmetry_group_IT_number 60
_symmetry_cell_setting 'orthorhombic'
loop_
_space_group_symop_operation_xyz
x,y,z
1/2-x,1/2-y,1/2+z
1/2+x,1/2-y,-z
-x,y,1/2-z
-x,-y,-z
1/2+x,1/2+y,1/2-z
1/2-x,1/2+y,z
x,-y,1/2+z
loop_
_atom_site_type_symbol
_atom_site_label
_atom_site_fract_x
_atom_site_fract_y
_atom_site_fract_z
Si Si1 0.141928 0.699695 0.079926
Si Si2 0.899879 0.906262 0.237610
Si Si3 0.683821 0.727670 0.585958
Si Si4 0.706250 0.946485 0.830223
Si Si5 0.958800 0.692562 0.925644
Si Si6 0.943403 0.553869 0.103494
Si Si7 0.174590 0.039075 0.442136
O O1 0.160346 0.724591 0.261121
O O2 0.161931 0.616875 0.076345
O O3 0.216467 0.732890 0.967421
O O4 0.043058 0.714057 0.031467
O O5 0.841747 0.849960 0.143870
O O6 0.871276 0.914701 0.423607
O O7 0.000000 0.885642 0.250000
O O8 0.885371 0.979699 0.142376
O O9 0.618697 0.752223 0.444137
O O10 0.634930 0.978994 0.707910
O O11 0.780546 0.920636 0.705777
O O12 0.752108 0.999518 0.950551
O O13 0.000000 0.683864 0.750000
O O14 0.920896 0.618553 0.988949
O O15 0.000000 0.584654 0.250000
O O16 0.000000 0.500000 0.000000
#
# Coordination Sequence:
#
# PCOD9457695 Si02
#       7
#     8   8   8   8   8   8   8
#     4  12  25  46  71  97 142 183 234 296 355 422
#     4  11  23  44  70  99 134 177 227 292 361 415
#     4  12  26  46  71 102 137 189 234 291 362 425
#     4  11  22  43  66 100 140 177 231 285 344 418
#     4  12  26  47  66 102 143 185 243 293 347 432
#     4  12  23  40  66  99 140 187 229 293 352 418
#     4  10  24  42  68 100 135 176 231 285 349 433
#
# _framework density 23.009962000000002
#
# number of rings (size 3 to 8) (size 9 to 14) (size 15 to 20)
#    0.000    0.571    4.286    3.857    2.000    1.143 
#    2.571    0.714    0.000    0.000    0.000    0.000 
#    0.000    0.000    0.000    0.000    0.000    0.000 
#
# Total GULP energy -313184.825641 kJ/mol
# GULP energy per Si atom -5592.586172 kJ/mol
# Density = 2.295759 g / cm^3
# Si number density = 23.009962 Si / 1000 Ang^3
#
#
#
# Elastic Constant Matrix: (Units=GPa)
#
#
# Indices 1 2 3 4 5 6 
#
# 1 82.2553 -4.6242 2.1348 0.0000 0.0000 0.0000
# 2 -4.6242 38.4381 -8.5562 0.0000 0.0000 0.0000
# 3 2.1348 -8.5562 80.5812 0.0000 0.0000 0.0000
# 4 0.0000 0.0000 0.0000 31.6230 0.0000 0.0000
# 5 0.0000 0.0000 0.0000 0.0000 55.5768 0.0000
# 6 0.0000 0.0000 0.0000 0.0000 0.0000 17.9162
#
#
#
# Elastic Compliance Matrix: (Units=1/GPa)
#
#
# Indices 1 2 3 4 5 6 
#
# 1 0.012242 0.001434 -0.000172 0.000000 0.000000 0.000000
# 2 0.001434 0.026814 0.002809 0.000000 0.000000 0.000000
# 3 -0.000172 0.002809 0.012713 0.000000 0.000000 0.000000
# 4 0.000000 0.000000 0.000000 0.031623 0.000000 0.000000
# 5 0.000000 0.000000 0.000000 0.000000 0.017993 0.000000
# 6 0.000000 0.000000 0.000000 0.000000 0.000000 0.055815
#
#
# Mechanical properties :
#
#
# Convention : Reuss Voigt Hill
#
# Bulk Modulus (GPa) = 16.69115 19.90926 18.30020
# Shear Modulus (GPa) = 29.58101 35.17787 32.37944
#
# Velocity S-wave (km/s) = 3.58938 3.91424 3.75533
# Velocity P-wave (km/s) = 4.94447 5.39441 5.17433
#
# Compressibility (1/GPa) = 0.05991200
#
# Stress axis : x y z
#
# Youngs Moduli (GPa) = 81.68344 37.29433 78.66159
#
# Poissons Ratio (x) = -0.05350 0.01353
# Poissons Ratio (y) = -0.11717 -0.22097
# Poissons Ratio (z) = 0.01405 -0.10476
#
# Static dielectric constant tensor:
#      x y z
#    x 1.933370 0.000000 0.000000 
#    y 0.000000 1.877710 0.000000 
#    z 0.000000 0.000000 1.853920 
# 
# From -- ./inp_files/6164.got.cif
#   From: 2010.05.17/outbox.cif.g08.bks.cpg/sg60_4_cif.got.tgz:6164.got - 2010.06.03 14:59:27.
