data_PCOD9457334
_publ_section_title
;
Structure prediction by ZEFSAII (Michael W. Deem and Ramdas Pophale) SiO2 
 PCOD9457334
Probable space group: P B C N
;
_chemical_formula_sum "Si O2"
_cell_formula_units_Z 60
_cell_length_a 9.677210
_cell_length_b 11.391778
_cell_length_c 25.226855
_cell_angle_alpha 90.000000
_cell_angle_beta 90.000000
_cell_angle_gamma 90.000000
_cell_volume 2781.024337
_symmetry_space_group_name_H-M "P B C N"
_symmetry_group_IT_number 60
_symmetry_cell_setting 'orthorhombic'
loop_
_space_group_symop_operation_xyz
x,y,z
1/2-x,1/2-y,1/2+z
1/2+x,1/2-y,-z
-x,y,1/2-z
-x,-y,-z
1/2+x,1/2+y,1/2-z
1/2-x,1/2+y,z
x,-y,1/2+z
loop_
_atom_site_type_symbol
_atom_site_label
_atom_site_fract_x
_atom_site_fract_y
_atom_site_fract_z
Si Si1 0.500000 0.752463 0.250000
Si Si2 0.586154 0.392468 0.020937
Si Si3 0.545333 0.903997 0.647293
Si Si4 0.832962 0.616982 0.835224
Si Si5 0.991287 0.764181 0.916803
Si Si6 0.143614 0.919425 0.833142
Si Si7 0.110695 0.473764 0.455061
Si Si8 0.980842 0.140417 0.859419
O O1 0.614846 0.831371 0.279421
O O2 0.424097 0.668307 0.291429
O O3 0.739307 0.445115 0.023464
O O4 0.524932 0.358417 0.078334
O O5 0.500000 0.500000 0.000000
O O6 0.568775 0.297189 0.974247
O O7 0.692348 0.923329 0.675524
O O8 0.492435 0.774301 0.659077
O O9 0.426797 0.000895 0.656310
O O10 0.594144 0.920917 0.586304
O O11 0.872089 0.720534 0.877118
O O12 0.672366 0.593448 0.846024
O O13 0.085755 0.863973 0.889116
O O14 0.079084 0.646346 0.923747
O O15 0.086214 0.051025 0.831674
O O16 0.000000 0.500000 0.500000
#
# Coordination Sequence:
#
# PCOD9457334 Si02
#       8
#     4   8   8   8   8   8   8   8
#     4  10  26  52  82 100 148 182 250 314 384 438
#     4  12  24  38  64 103 147 193 240 290 353 433
#     4  11  25  47  71 102 147 186 245 298 367 436
#     4  10  27  47  74 105 143 193 244 318 370 441
#     4  10  23  40  67  94 146 191 243 295 356 425
#     4  11  24  49  73 104 140 191 240 304 374 437
#     4  11  24  40  64 100 143 197 244 288 348 422
#     4  12  26  45  73 108 151 191 242 303 367 442
#
# _framework density 21.574784999999999
#
# number of rings (size 3 to 8) (size 9 to 14) (size 15 to 20)
#    0.000    1.067    2.667    1.600   14.933    1.067 
#    0.000    0.000    0.000    0.000    0.000    0.000 
#    0.000    0.000    0.000    0.000    0.000    0.000 
#
# Total GULP energy -335155.799969 kJ/mol
# GULP energy per Si atom -5585.929999 kJ/mol
# Density = 2.152568 g / cm^3
# Si number density = 21.574785 Si / 1000 Ang^3
#
#
#
# Elastic Constant Matrix: (Units=GPa)
#
#
# Indices 1 2 3 4 5 6 
#
# 1 160.5827 49.5003 35.2122 0.0000 0.0000 0.0000
# 2 49.5003 123.2738 14.0279 0.0000 0.0000 0.0000
# 3 35.2122 14.0279 70.6164 0.0000 0.0000 0.0000
# 4 0.0000 0.0000 0.0000 15.4747 0.0000 0.0000
# 5 0.0000 0.0000 0.0000 0.0000 10.6410 0.0000
# 6 0.0000 0.0000 0.0000 0.0000 0.0000 22.1465
#
#
#
# Elastic Compliance Matrix: (Units=1/GPa)
#
#
# Indices 1 2 3 4 5 6 
#
# 1 0.007811 -0.002755 -0.003347 0.000000 0.000000 0.000000
# 2 -0.002755 0.009272 -0.000468 0.000000 0.000000 0.000000
# 3 -0.003347 -0.000468 0.015923 0.000000 0.000000 0.000000
# 4 0.000000 0.000000 0.000000 0.064622 0.000000 0.000000
# 5 0.000000 0.000000 0.000000 0.000000 0.093976 0.000000
# 6 0.000000 0.000000 0.000000 0.000000 0.000000 0.045154
#
#
# Mechanical properties :
#
#
# Convention : Reuss Voigt Hill
#
# Bulk Modulus (GPa) = 50.34186 61.32819 55.83502
# Shear Modulus (GPa) = 19.49166 26.70127 23.09646
#
# Velocity S-wave (km/s) = 3.00900 3.52179 3.27545
# Velocity P-wave (km/s) = 5.95453 6.71006 6.34355
#
# Compressibility (1/GPa) = 0.01986418
#
# Stress axis : x y z
#
# Youngs Moduli (GPa) = 128.02945 107.85493 62.80193
#
# Poissons Ratio (x) = 0.29719 0.21022
# Poissons Ratio (y) = 0.35278 0.02938
# Poissons Ratio (z) = 0.42856 0.05046
#
# Static dielectric constant tensor:
#      x y z
#    x 1.745200 0.000000 0.000000 
#    y 0.000000 1.789070 0.000000 
#    z 0.000000 0.000000 1.930450 
# 
# From -- ./inp_files/25200.got.cif
#   From: 2010.05.17/outbox.cif.g08.bks.cpg/sg60_13_cif.got.tgz:25200.got - 2010.06.03 14:59:27.
