data_PCOD9457676
_publ_section_title
;
Structure prediction by ZEFSAII (Michael W. Deem and Ramdas Pophale) SiO2 
 PCOD9457676
Probable space group: P B C N
;
_chemical_formula_sum "Si O2"
_cell_formula_units_Z 56
_cell_length_a 15.269073
_cell_length_b 19.016279
_cell_length_c 8.639054
_cell_angle_alpha 90.000000
_cell_angle_beta 90.000000
_cell_angle_gamma 90.000000
_cell_volume 2508.443946
_symmetry_space_group_name_H-M "P B C N"
_symmetry_group_IT_number 60
_symmetry_cell_setting 'orthorhombic'
loop_
_space_group_symop_operation_xyz
x,y,z
1/2-x,1/2-y,1/2+z
1/2+x,1/2-y,-z
-x,y,1/2-z
-x,-y,-z
1/2+x,1/2+y,1/2-z
1/2-x,1/2+y,z
x,-y,1/2+z
loop_
_atom_site_type_symbol
_atom_site_label
_atom_site_fract_x
_atom_site_fract_y
_atom_site_fract_z
Si Si1 0.147012 0.697380 0.091717
Si Si2 0.902797 0.908784 0.279119
Si Si3 0.682604 0.716653 0.607113
Si Si4 0.706916 0.952571 0.848506
Si Si5 0.968400 0.715717 0.928839
Si Si6 0.055728 0.443150 0.097559
Si Si7 0.169049 0.026526 0.422545
O O1 0.171193 0.725867 0.259573
O O2 0.148449 0.612950 0.101942
O O3 0.223118 0.717675 0.971806
O O4 0.054125 0.725477 0.034502
O O5 0.835844 0.855591 0.198398
O O6 0.878192 0.921453 0.458088
O O7 0.000000 0.881200 0.250000
O O8 0.894673 0.983556 0.190587
O O9 0.608563 0.731472 0.477486
O O10 0.755141 0.940923 0.685469
O O11 0.646839 0.021656 0.852651
O O12 0.782624 0.968745 0.971000
O O13 0.934917 0.635853 0.965629
O O14 0.000000 0.722087 0.750000
O O15 0.000000 0.432423 0.250000
O O16 0.000000 0.500000 0.000000
#
# Coordination Sequence:
#
# PCOD9457676 Si02
#       7
#     8   8   8   8   8   8   8
#     4  12  26  46  70  99 146 193 240 295 365 434
#     4  11  23  47  70 101 133 178 238 301 364 415
#     4  12  28  47  71 101 145 193 241 298 359 438
#     4  11  23  41  67 104 138 180 234 285 365 426
#     4  11  26  47  71 107 144 192 246 295 359 441
#     4  11  23  38  66 100 140 180 225 288 350 423
#     4  10  24  41  71  98 134 175 231 297 354 435
#
# _framework density 22.324597000000001
#
# number of rings (size 3 to 8) (size 9 to 14) (size 15 to 20)
#    0.000    0.857    2.857    3.429    8.000    1.143 
#    2.571    0.714    0.000    0.000    0.000    0.000 
#    0.000    0.000    0.000    0.000    0.000    0.000 
#
# Total GULP energy -313252.526904 kJ/mol
# GULP energy per Si atom -5593.795123 kJ/mol
# Density = 2.227379 g / cm^3
# Si number density = 22.324597 Si / 1000 Ang^3
#
#
#
# Elastic Constant Matrix: (Units=GPa)
#
#
# Indices 1 2 3 4 5 6 
#
# 1 83.5924 9.2749 22.1564 0.0000 0.0000 0.0000
# 2 9.2749 43.8244 8.1544 0.0000 0.0000 0.0000
# 3 22.1564 8.1544 83.2996 0.0000 0.0000 0.0000
# 4 0.0000 0.0000 0.0000 -13.2935 0.0000 0.0000
# 5 0.0000 0.0000 0.0000 0.0000 39.5124 0.0000
# 6 0.0000 0.0000 0.0000 0.0000 0.0000 1.4135
#
#
#
# Elastic Compliance Matrix: (Units=1/GPa)
#
#
# Indices 1 2 3 4 5 6 
#
# 1 0.013068 -0.002158 -0.003264 0.000000 0.000000 0.000000
# 2 -0.002158 0.023598 -0.001736 0.000000 0.000000 0.000000
# 3 -0.003264 -0.001736 0.013043 0.000000 0.000000 0.000000
# 4 0.000000 0.000000 0.000000 -0.075225 0.000000 0.000000
# 5 0.000000 0.000000 0.000000 0.000000 0.025309 0.000000
# 6 0.000000 0.000000 0.000000 0.000000 0.000000 0.707448
#
#
# Mechanical properties :
#
#
# Convention : Reuss Voigt Hill
#
# Bulk Modulus (GPa) = 28.25548 32.20976 30.23262
# Shear Modulus (GPa) = 6.81797 16.93517 11.87657
#
# Velocity S-wave (km/s) = 1.74947 2.75724 2.30900
# Velocity P-wave (km/s) = 4.09451 4.95941 4.54757
#
# Compressibility (1/GPa) = 0.03539137
#
# Stress axis : x y z
#
# Youngs Moduli (GPa) = 76.52552 42.37621 76.66882
#
# Poissons Ratio (x) = 0.09146 0.25028
# Poissons Ratio (y) = 0.16516 0.13310
# Poissons Ratio (z) = 0.24982 0.07357
#
# Static dielectric constant tensor:
#      x y z
#    x 1.805510 0.000000 0.000000 
#    y 0.000000 1.905100 0.000000 
#    z 0.000000 0.000000 1.882580 
# 
# From -- ./inp_files/6163.got.cif
#   From: 2010.05.17/outbox.cif.g08.bks.cpg/sg60_4_cif.got.tgz:6163.got - 2010.06.03 14:59:27.
