data_PCOD9457429
_publ_section_title
;
Structure prediction by ZEFSAII (Michael W. Deem and Ramdas Pophale) SiO2 
 PCOD9457429
Probable space group: P B C N
;
_chemical_formula_sum "Si O2"
_cell_formula_units_Z 60
_cell_length_a 16.976038
_cell_length_b 11.541477
_cell_length_c 12.263172
_cell_angle_alpha 90.000000
_cell_angle_beta 90.000000
_cell_angle_gamma 90.000000
_cell_volume 2402.705534
_symmetry_space_group_name_H-M "P B C N"
_symmetry_group_IT_number 60
_symmetry_cell_setting 'orthorhombic'
loop_
_space_group_symop_operation_xyz
x,y,z
1/2-x,1/2-y,1/2+z
1/2+x,1/2-y,-z
-x,y,1/2-z
-x,-y,-z
1/2+x,1/2+y,1/2-z
1/2-x,1/2+y,z
x,-y,1/2+z
loop_
_atom_site_type_symbol
_atom_site_label
_atom_site_fract_x
_atom_site_fract_y
_atom_site_fract_z
Si Si1 0.524171 0.323759 0.530204
Si Si2 0.835527 0.417022 0.613440
Si Si3 0.893737 0.762111 0.824239
Si Si4 0.251878 0.918211 0.682450
Si Si5 0.183036 0.042214 0.490302
Si Si6 0.588234 0.084874 0.440609
Si Si7 0.377885 0.309719 0.428347
Si Si8 0.000000 0.440407 0.250000
O O1 0.472283 0.335013 0.640080
O O2 0.603166 0.393518 0.531138
O O3 0.544658 0.191371 0.498754
O O4 0.464913 0.362752 0.434551
O O5 0.799693 0.476272 0.719891
O O6 0.755892 0.385569 0.550301
O O7 0.888774 0.494129 0.535860
O O8 0.871251 0.295286 0.653801
O O9 0.814954 0.824957 0.780993
O O10 0.927059 0.654038 0.755620
O O11 0.871345 0.742887 0.953180
O O12 0.200102 0.009203 0.614711
O O13 0.325368 0.877520 0.606327
O O14 0.180327 0.916659 0.430598
O O15 0.533010 0.025139 0.347178
#
# Coordination Sequence:
#
# PCOD9457429 Si02
#       8
#     8   8   8   8   8   8   8   4
#     4  10  23  42  75  97 151 186 244 304 378 431
#     4  11  24  45  68 102 145 193 243 307 369 447
#     4   9  23  42  70 102 141 194 240 312 360 458
#     4  10  25  44  70 102 150 187 253 297 377 452
#     4  10  23  45  71 104 137 200 239 305 366 449
#     4  11  26  43  72 111 144 197 245 311 382 440
#     4   9  21  43  65 100 134 187 238 291 374 427
#     4  12  24  44  72 114 150 188 270 306 370 456
#
# _framework density 24.971848999999999
#
# number of rings (size 3 to 8) (size 9 to 14) (size 15 to 20)
#    0.800    1.067    1.333    0.400   11.200    1.067 
#    4.800    0.000    0.000    0.800    0.000    0.000 
#    0.000    0.000    0.000    0.000    0.000    0.000 
#
# Total GULP energy -334110.227561 kJ/mol
# GULP energy per Si atom -5568.503793 kJ/mol
# Density = 2.491501 g / cm^3
# Si number density = 24.971849 Si / 1000 Ang^3
#
#
#
# Elastic Constant Matrix: (Units=GPa)
#
#
# Indices 1 2 3 4 5 6 
#
# 1 174.1734 52.0438 53.7464 0.0000 0.0000 0.0000
# 2 52.0438 57.2803 22.5229 0.0000 0.0000 0.0000
# 3 53.7464 22.5229 51.9445 0.0000 0.0000 0.0000
# 4 0.0000 0.0000 0.0000 1.8431 0.0000 0.0000
# 5 0.0000 0.0000 0.0000 0.0000 28.6447 0.0000
# 6 0.0000 0.0000 0.0000 0.0000 0.0000 41.5769
#
#
#
# Elastic Compliance Matrix: (Units=1/GPa)
#
#
# Indices 1 2 3 4 5 6 
#
# 1 0.009883 -0.005978 -0.007634 0.000000 0.000000 0.000000
# 2 -0.005978 0.024662 -0.004508 0.000000 0.000000 0.000000
# 3 -0.007634 -0.004508 0.029105 0.000000 0.000000 0.000000
# 4 0.000000 0.000000 0.000000 0.542568 0.000000 0.000000
# 5 0.000000 0.000000 0.000000 0.000000 0.034910 0.000000
# 6 0.000000 0.000000 0.000000 0.000000 0.000000 0.024052
#
#
# Mechanical properties :
#
#
# Convention : Reuss Voigt Hill
#
# Bulk Modulus (GPa) = 36.48294 60.00273 48.24283
# Shear Modulus (GPa) = 7.03672 24.75195 15.89434
#
# Velocity S-wave (km/s) = 1.68047 3.15174 2.52561
# Velocity P-wave (km/s) = 4.29030 6.10941 5.27881
#
# Compressibility (1/GPa) = 0.02741008
#
# Stress axis : x y z
#
# Youngs Moduli (GPa) = 101.17915 40.54801 34.35836
#
# Poissons Ratio (x) = 0.24240 0.26230
# Poissons Ratio (y) = 0.60486 0.15488
# Poissons Ratio (z) = 0.77243 0.18279
#
# Static dielectric constant tensor:
#      x y z
#    x 2.035510 0.000000 0.000000 
#    y 0.000000 2.051150 0.000000 
#    z 0.000000 0.000000 2.137720 
# 
# From -- ./inp_files/17463.got.cif
#   From: 2010.05.17/outbox.cif.g08.bks.cpg/sg60_9_cif.got.tgz:17463.got - 2010.06.03 14:59:27.
