data_PCOD9457281
_publ_section_title
;
Structure prediction by ZEFSAII (Michael W. Deem and Ramdas Pophale) SiO2 
 PCOD9457281
Probable space group: P B C N
;
_chemical_formula_sum "Si O2"
_cell_formula_units_Z 36
_cell_length_a 6.424053
_cell_length_b 11.999660
_cell_length_c 20.765623
_cell_angle_alpha 90.000000
_cell_angle_beta 90.000000
_cell_angle_gamma 90.000000
_cell_volume 1600.748197
_symmetry_space_group_name_H-M "P B C N"
_symmetry_group_IT_number 60
_symmetry_cell_setting 'orthorhombic'
loop_
_space_group_symop_operation_xyz
x,y,z
1/2-x,1/2-y,1/2+z
1/2+x,1/2-y,-z
-x,y,1/2-z
-x,-y,-z
1/2+x,1/2+y,1/2-z
1/2-x,1/2+y,z
x,-y,1/2+z
loop_
_atom_site_type_symbol
_atom_site_label
_atom_site_fract_x
_atom_site_fract_y
_atom_site_fract_z
Si Si1 0.654015 0.908708 0.972327
Si Si2 0.161517 0.025240 0.650884
Si Si3 0.113574 0.208198 0.910905
Si Si4 0.371112 0.322581 0.808039
Si Si5 0.000000 0.459896 0.750000
O O1 0.772524 0.974707 0.917089
O O2 0.521535 0.809065 0.940060
O O3 0.801939 0.862779 0.028758
O O4 0.500000 0.000000 0.000000
O O5 0.356852 0.028255 0.699726
O O6 0.008455 0.930579 0.676929
O O7 0.034807 0.137468 0.636786
O O8 0.313760 0.248989 0.869824
O O9 0.500000 0.265708 0.750000
O O10 0.153027 0.376081 0.787081
#
# Coordination Sequence:
#
# PCOD9457281 Si02
#       5
#     8   8   8   8   4
#     4  12  25  46  73 103 151 186 246 307 361 444
#     4  11  24  46  72 107 146 190 243 306 366 435
#     4  12  24  44  73 111 139 202 242 296 382 440
#     4  10  23  48  70 103 146 184 248 305 355 439
#     4  10  22  50  70 100 150 188 236 318 354 430
#
# _framework density 22.489483
#
# number of rings (size 3 to 8) (size 9 to 14) (size 15 to 20)
#    0.000    0.889    2.222    4.667    0.000    0.000 
#    8.000    0.000    0.000    0.000    0.000    0.000 
#    0.000    0.000    0.000    0.000    0.000    0.000 
#
# Total GULP energy -201485.890229 kJ/mol
# GULP energy per Si atom -5596.830284 kJ/mol
# Density = 2.243830 g / cm^3
# Si number density = 22.489483 Si / 1000 Ang^3
#
#
#
# Elastic Constant Matrix: (Units=GPa)
#
#
# Indices 1 2 3 4 5 6 
#
# 1 105.2090 35.3887 46.6837 0.0000 0.0000 0.0000
# 2 35.3887 97.3617 36.5905 0.0000 0.0000 0.0000
# 3 46.6837 36.5905 117.1618 0.0000 0.0000 0.0000
# 4 0.0000 0.0000 0.0000 11.8419 0.0000 0.0000
# 5 0.0000 0.0000 0.0000 0.0000 71.7182 0.0000
# 6 0.0000 0.0000 0.0000 0.0000 0.0000 -11.7887
#
#
#
# Elastic Compliance Matrix: (Units=1/GPa)
#
#
# Indices 1 2 3 4 5 6 
#
# 1 0.012260 -0.002969 -0.003958 0.000000 0.000000 0.000000
# 2 -0.002969 0.012356 -0.002676 0.000000 0.000000 0.000000
# 3 -0.003958 -0.002676 0.010948 0.000000 0.000000 0.000000
# 4 0.000000 0.000000 0.000000 0.084446 0.000000 0.000000
# 5 0.000000 0.000000 0.000000 0.000000 0.013943 0.000000
# 6 0.000000 0.000000 0.000000 0.000000 0.000000 -0.084827
#
#
# Mechanical properties :
#
#
# Convention : Reuss Voigt Hill
#
# Bulk Modulus (GPa) = 61.13017 61.89536 61.51277
# Shear Modulus (GPa) = 67.76630 27.75892 47.76261
#
# Velocity S-wave (km/s) = 5.49526 3.51708 4.61344
# Velocity P-wave (km/s) = 8.21611 6.63889 7.46925
#
# Compressibility (1/GPa) = 0.01635853
#
# Stress axis : x y z
#
# Youngs Moduli (GPa) = 81.56873 80.93445 91.34170
#
# Poissons Ratio (x) = 0.24027 0.36151
# Poissons Ratio (y) = 0.24215 0.24442
# Poissons Ratio (z) = 0.32283 0.21657
#
# Static dielectric constant tensor:
#      x y z
#    x 1.816390 0.000000 0.000000 
#    y 0.000000 1.573510 0.000000 
#    z 0.000000 0.000000 1.921460 
# 
# From -- ./inp_files/23459.got.cif
#   From: 2010.05.17/outbox.cif.g08.bks.cpg/sg60_12_cif.got.tgz:23459.got - 2010.06.03 14:59:27.
