data_PCOD9457666
_publ_section_title
;
Structure prediction by ZEFSAII (Michael W. Deem and Ramdas Pophale) SiO2 
 PCOD9457666
Probable space group: P B C N
;
_chemical_formula_sum "Si O2"
_cell_formula_units_Z 48
_cell_length_a 11.440974
_cell_length_b 14.454104
_cell_length_c 14.470340
_cell_angle_alpha 90.000000
_cell_angle_beta 90.000000
_cell_angle_gamma 90.000000
_cell_volume 2392.946061
_symmetry_space_group_name_H-M "P B C N"
_symmetry_group_IT_number 60
_symmetry_cell_setting 'orthorhombic'
loop_
_space_group_symop_operation_xyz
x,y,z
1/2-x,1/2-y,1/2+z
1/2+x,1/2-y,-z
-x,y,1/2-z
-x,-y,-z
1/2+x,1/2+y,1/2-z
1/2-x,1/2+y,z
x,-y,1/2+z
loop_
_atom_site_type_symbol
_atom_site_label
_atom_site_fract_x
_atom_site_fract_y
_atom_site_fract_z
Si Si1 0.366302 0.212378 0.244717
Si Si2 0.896710 0.528571 0.372420
Si Si3 0.782156 0.873608 0.595108
Si Si4 0.707814 0.837052 0.387408
Si Si5 0.037414 0.735071 0.855676
Si Si6 0.352628 0.949632 0.409852
O O1 0.500000 0.246779 0.250000
O O2 0.370710 0.116467 0.188337
O O3 0.310151 0.185084 0.343080
O O4 0.284455 0.279776 0.184662
O O5 0.824468 0.437398 0.346059
O O6 0.868267 0.550044 0.479331
O O7 0.032597 0.500479 0.368919
O O8 0.766548 0.852442 0.486724
O O9 0.907405 0.834207 0.624243
O O10 0.754799 0.982179 0.611425
O O11 0.582539 0.788608 0.408168
O O12 0.133192 0.655743 0.877861
O O13 0.000000 0.727898 0.750000
#
# Coordination Sequence:
#
# PCOD9457666 Si02
#       6
#     8   8   8   8   8   8
#     4  12  23  37  65  97 123 168 216 270 309 381
#     4   9  19  37  61  88 121 159 208 259 306 369
#     4  11  23  37  63  95 123 168 214 260 321 377
#     4  10  24  41  62  94 132 167 210 264 325 379
#     4  11  22  39  63  93 124 169 209 266 318 375
#     4   9  19  36  61  90 118 161 206 259 311 367
#
# _framework density 20.058956999999999
#
# number of rings (size 3 to 8) (size 9 to 14) (size 15 to 20)
#    0.000    1.667    3.333    2.000    7.000    0.000 
#    0.000    0.000    7.333    3.000    0.000    0.000 
#    0.000    0.000    0.000    0.000    0.000    0.000 
#
# Total GULP energy -268117.525532 kJ/mol
# GULP energy per Si atom -5585.781782 kJ/mol
# Density = 2.001330 g / cm^3
# Si number density = 20.058957 Si / 1000 Ang^3
#
#
#
# Elastic Constant Matrix: (Units=GPa)
#
#
# Indices 1 2 3 4 5 6 
#
# 1 63.8228 51.1887 9.3218 0.0000 0.0000 0.0000
# 2 51.1887 106.1958 35.0254 0.0000 0.0000 0.0000
# 3 9.3218 35.0254 49.1550 0.0000 0.0000 0.0000
# 4 0.0000 0.0000 0.0000 26.7714 0.0000 0.0000
# 5 0.0000 0.0000 0.0000 0.0000 14.8475 0.0000
# 6 0.0000 0.0000 0.0000 0.0000 0.0000 43.4309
#
#
#
# Elastic Compliance Matrix: (Units=1/GPa)
#
#
# Indices 1 2 3 4 5 6 
#
# 1 0.026576 -0.014573 0.005344 0.000000 0.000000 0.000000
# 2 -0.014573 0.020300 -0.011701 0.000000 0.000000 0.000000
# 3 0.005344 -0.011701 0.027668 0.000000 0.000000 0.000000
# 4 0.000000 0.000000 0.000000 0.037353 0.000000 0.000000
# 5 0.000000 0.000000 0.000000 0.000000 0.067351 0.000000
# 6 0.000000 0.000000 0.000000 0.000000 0.000000 0.023025
#
#
# Mechanical properties :
#
#
# Convention : Reuss Voigt Hill
#
# Bulk Modulus (GPa) = 30.59605 45.58279 38.08942
# Shear Modulus (GPa) = 19.60565 25.25248 22.42907
#
# Velocity S-wave (km/s) = 3.12973 3.55197 3.34751
# Velocity P-wave (km/s) = 5.32414 6.29251 5.82847
#
# Compressibility (1/GPa) = 0.03268396
#
# Stress axis : x y z
#
# Youngs Moduli (GPa) = 37.62833 49.26063 36.14259
#
# Poissons Ratio (x) = 0.71785 -0.19314
# Poissons Ratio (y) = 0.54834 0.42292
# Poissons Ratio (z) = -0.20108 0.57642
#
# Static dielectric constant tensor:
#      x y z
#    x 1.721650 0.000000 0.000000 
#    y 0.000000 1.715580 0.000000 
#    z 0.000000 0.000000 1.725970 
# 
# From -- ./inp_files/16084.got.cif
#   From: 2010.05.17/outbox.cif.g08.bks.cpg/sg60_9_cif.got.tgz:16084.got - 2010.06.03 14:59:27.
