data_PCOD9457934
_publ_section_title
;
Structure prediction by ZEFSAII (Michael W. Deem and Ramdas Pophale) SiO2 
 PCOD9457934
Probable space group: P B C N
;
_chemical_formula_sum "Si O2"
_cell_formula_units_Z 28
_cell_length_a 5.504761
_cell_length_b 9.063828
_cell_length_c 19.907010
_cell_angle_alpha 90.000000
_cell_angle_beta 90.000000
_cell_angle_gamma 90.000000
_cell_volume 993.244475
_symmetry_space_group_name_H-M "P B C N"
_symmetry_group_IT_number 60
_symmetry_cell_setting 'orthorhombic'
loop_
_space_group_symop_operation_xyz
x,y,z
1/2-x,1/2-y,1/2+z
1/2+x,1/2-y,-z
-x,y,1/2-z
-x,-y,-z
1/2+x,1/2+y,1/2-z
1/2-x,1/2+y,z
x,-y,1/2+z
loop_
_atom_site_type_symbol
_atom_site_label
_atom_site_fract_x
_atom_site_fract_y
_atom_site_fract_z
Si Si1 0.400641 0.891714 0.846385
Si Si2 0.721414 0.609523 0.864867
Si Si3 0.795098 0.161941 0.009091
Si Si4 0.000000 0.918320 0.750000
O O1 0.623820 0.776452 0.859017
O O2 0.253036 0.890679 0.915876
O O3 0.510849 0.057313 0.841957
O O4 0.759926 0.844203 0.717911
O O5 0.563008 0.520660 0.812485
O O6 0.693415 0.560411 0.942705
O O7 0.545824 0.249503 0.992386
#
# Coordination Sequence:
#
# PCOD9457934 Si02
#       4
#     8   8   8   4
#     4  11  28  53  85 118 166 214 282 339 425 491
#     4  11  28  52  82 120 162 216 276 342 417 492
#     4  10  25  49  88 124 164 214 282 351 416 489
#     4  12  30  46  84 118 170 220 270 338 416 514
#
# _framework density 28.190442000000001
#
# number of rings (size 3 to 8) (size 9 to 14) (size 15 to 20)
#    0.000    1.143    0.000    1.714   20.000    1.143 
#    0.000    0.000    0.000    1.714    0.000    0.000 
#    0.000    0.000    0.000    0.000    0.000    0.000 
#
# Total GULP energy -156770.429688 kJ/mol
# GULP energy per Si atom -5598.943917 kJ/mol
# Density = 2.812628 g / cm^3
# Si number density = 28.190442 Si / 1000 Ang^3
#
#
#
# Elastic Constant Matrix: (Units=GPa)
#
#
# Indices 1 2 3 4 5 6 
#
# 1 208.2728 80.1924 77.5890 0.0000 0.0000 0.0000
# 2 80.1924 96.5642 51.8236 0.0000 0.0000 0.0000
# 3 77.5890 51.8236 242.3859 0.0000 0.0000 0.0000
# 4 0.0000 0.0000 0.0000 49.7571 0.0000 0.0000
# 5 0.0000 0.0000 0.0000 0.0000 73.1685 0.0000
# 6 0.0000 0.0000 0.0000 0.0000 0.0000 44.0092
#
#
#
# Elastic Compliance Matrix: (Units=1/GPa)
#
#
# Indices 1 2 3 4 5 6 
#
# 1 0.007347 -0.005466 -0.001183 0.000000 0.000000 0.000000
# 2 -0.005466 0.015765 -0.001621 0.000000 0.000000 0.000000
# 3 -0.001183 -0.001621 0.004851 0.000000 0.000000 0.000000
# 4 0.000000 0.000000 0.000000 0.020098 0.000000 0.000000
# 5 0.000000 0.000000 0.000000 0.000000 0.013667 0.000000
# 6 0.000000 0.000000 0.000000 0.000000 0.000000 0.022723
#
#
# Mechanical properties :
#
#
# Convention : Reuss Voigt Hill
#
# Bulk Modulus (GPa) = 87.54671 107.38141 97.46406
# Shear Modulus (GPa) = 47.71069 55.89481 51.80275
#
# Velocity S-wave (km/s) = 4.11839 4.45765 4.29137
# Velocity P-wave (km/s) = 7.33060 8.04166 7.69435
#
# Compressibility (1/GPa) = 0.01142247
#
# Stress axis : x y z
#
# Youngs Moduli (GPa) = 136.11272 63.43057 206.14710
#
# Poissons Ratio (x) = 0.34673 0.24388
# Poissons Ratio (y) = 0.74404 0.33414
# Poissons Ratio (z) = 0.16103 0.10281
#
# Static dielectric constant tensor:
#      x y z
#    x 2.400230 0.000000 0.000000 
#    y 0.000000 2.168290 0.000000 
#    z 0.000000 0.000000 2.126110 
# 
# From -- ./inp_files/21346.got.cif
#   From: 2010.05.17/outbox.cif.g08.bks.cpg/sg60_11_cif.got.tgz:21346.got - 2010.06.03 14:59:27.
