data_PCOD9457375
_publ_section_title
;
Structure prediction by ZEFSAII (Michael W. Deem and Ramdas Pophale) SiO2 
 PCOD9457375
Probable space group: P B C N
;
_chemical_formula_sum "Si O2"
_cell_formula_units_Z 60
_cell_length_a 15.019453
_cell_length_b 12.921487
_cell_length_c 15.071526
_cell_angle_alpha 90.000000
_cell_angle_beta 90.000000
_cell_angle_gamma 90.000000
_cell_volume 2924.986313
_symmetry_space_group_name_H-M "P B C N"
_symmetry_group_IT_number 60
_symmetry_cell_setting 'orthorhombic'
loop_
_space_group_symop_operation_xyz
x,y,z
1/2-x,1/2-y,1/2+z
1/2+x,1/2-y,-z
-x,y,1/2-z
-x,-y,-z
1/2+x,1/2+y,1/2-z
1/2-x,1/2+y,z
x,-y,1/2+z
loop_
_atom_site_type_symbol
_atom_site_label
_atom_site_fract_x
_atom_site_fract_y
_atom_site_fract_z
Si Si1 0.000000 0.074631 0.250000
Si Si2 0.902185 0.269368 0.643355
Si Si3 0.678945 0.465745 0.305463
Si Si4 0.300352 0.058605 0.060834
Si Si5 0.454279 0.222405 0.839805
Si Si6 0.436101 0.904017 0.021603
Si Si7 0.264158 0.882120 0.363538
Si Si8 0.892852 0.253710 0.845981
O O1 0.967902 0.154735 0.173306
O O2 0.917119 0.004635 0.274901
O O3 0.899100 0.357721 0.569613
O O4 0.824393 0.187534 0.626234
O O5 0.889900 0.300765 0.746171
O O6 0.003660 0.227839 0.636337
O O7 0.715613 0.546337 0.376816
O O8 0.743400 0.455066 0.220396
O O9 0.664736 0.350728 0.345030
O O10 0.355094 0.160697 0.087650
O O11 0.279406 0.062260 0.957018
O O12 0.357799 0.955467 0.078326
O O13 0.500000 0.177715 0.750000
O O14 0.352105 0.186763 0.845257
O O15 0.508996 0.179498 0.922906
O O16 0.500000 0.000000 0.000000
#
# Coordination Sequence:
#
# PCOD9457375 Si02
#       8
#     4   8   8   8   8   8   8   8
#     4  10  26  48  74  98 140 196 232 292 368 414
#     4  10  23  41  73  88 142 177 228 286 345 408
#     4  11  26  47  72 101 143 180 243 289 357 419
#     4  12  27  41  72 106 136 183 239 286 357 425
#     4  10  24  43  68  98 144 181 226 294 350 414
#     4  12  23  43  62 103 138 181 228 283 354 420
#     4  11  24  44  68 104 138 184 233 289 348 419
#     4  10  23  47  66 101 137 187 225 292 349 419
#
# _framework density 20.512917000000002
#
# number of rings (size 3 to 8) (size 9 to 14) (size 15 to 20)
#    0.400    0.800    2.667    2.400    9.333    1.067 
#    2.400    1.333    0.000    0.000    0.000    0.000 
#    0.000    0.000    0.000    0.000    0.000    0.000 
#
# Total GULP energy -335100.592624 kJ/mol
# GULP energy per Si atom -5585.009877 kJ/mol
# Density = 2.046623 g / cm^3
# Si number density = 20.512917 Si / 1000 Ang^3
#
#
#
# Elastic Constant Matrix: (Units=GPa)
#
#
# Indices 1 2 3 4 5 6 
#
# 1 102.6040 23.6508 30.1246 0.0000 0.0000 0.0000
# 2 23.6508 67.4411 31.2818 0.0000 0.0000 0.0000
# 3 30.1246 31.2818 79.6225 0.0000 0.0000 0.0000
# 4 0.0000 0.0000 0.0000 32.2569 0.0000 0.0000
# 5 0.0000 0.0000 0.0000 0.0000 29.1629 0.0000
# 6 0.0000 0.0000 0.0000 0.0000 0.0000 30.3379
#
#
#
# Elastic Compliance Matrix: (Units=1/GPa)
#
#
# Indices 1 2 3 4 5 6 
#
# 1 0.011277 -0.002416 -0.003317 0.000000 0.000000 0.000000
# 2 -0.002416 0.018650 -0.006413 0.000000 0.000000 0.000000
# 3 -0.003317 -0.006413 0.016334 0.000000 0.000000 0.000000
# 4 0.000000 0.000000 0.000000 0.031001 0.000000 0.000000
# 5 0.000000 0.000000 0.000000 0.000000 0.034290 0.000000
# 6 0.000000 0.000000 0.000000 0.000000 0.000000 0.032962
#
#
# Mechanical properties :
#
#
# Convention : Reuss Voigt Hill
#
# Bulk Modulus (GPa) = 45.52099 46.64246 46.08172
# Shear Modulus (GPa) = 28.38824 29.32554 28.85689
#
# Velocity S-wave (km/s) = 3.72414 3.78512 3.75476
# Velocity P-wave (km/s) = 6.38215 6.47227 6.42737
#
# Compressibility (1/GPa) = 0.02196789
#
# Stress axis : x y z
#
# Youngs Moduli (GPa) = 88.67517 53.62055 61.22249
#
# Poissons Ratio (x) = 0.12955 0.20310
# Poissons Ratio (y) = 0.21424 0.39261
# Poissons Ratio (z) = 0.29417 0.34386
#
# Static dielectric constant tensor:
#      x y z
#    x 1.785990 0.000000 0.000000 
#    y 0.000000 1.704400 0.000000 
#    z 0.000000 0.000000 1.745550 
# 
# From -- ./inp_files/17017.got.cif
#   From: 2010.05.17/outbox.cif.g08.bks.cpg/sg60_9_cif.got.tgz:17017.got - 2010.06.03 14:59:27.
