data_PCOD9457299
_publ_section_title
;
Structure prediction by ZEFSAII (Michael W. Deem and Ramdas Pophale) SiO2 
 PCOD9457299
Probable space group: P B C N
;
_chemical_formula_sum "Si O2"
_cell_formula_units_Z 40
_cell_length_a 9.187669
_cell_length_b 27.468505
_cell_length_c 8.826593
_cell_angle_alpha 90.000000
_cell_angle_beta 90.000000
_cell_angle_gamma 90.000000
_cell_volume 2227.580797
_symmetry_space_group_name_H-M "P B C N"
_symmetry_group_IT_number 60
_symmetry_cell_setting 'orthorhombic'
loop_
_space_group_symop_operation_xyz
x,y,z
1/2-x,1/2-y,1/2+z
1/2+x,1/2-y,-z
-x,y,1/2-z
-x,-y,-z
1/2+x,1/2+y,1/2-z
1/2-x,1/2+y,z
x,-y,1/2+z
loop_
_atom_site_type_symbol
_atom_site_label
_atom_site_fract_x
_atom_site_fract_y
_atom_site_fract_z
Si Si1 0.500000 0.243294 0.750000
Si Si2 0.000000 0.091927 0.250000
Si Si3 0.991940 0.826676 0.502973
Si Si4 0.329756 0.055822 0.760637
Si Si5 0.758789 0.166787 0.739348
Si Si6 0.159690 0.017353 0.055189
O O1 0.507421 0.278963 0.894241
O O2 0.638764 0.208536 0.733346
O O3 0.959574 0.127533 0.111975
O O4 0.872928 0.057375 0.314589
O O5 0.864607 0.822766 0.380498
O O6 0.140273 0.834584 0.409792
O O7 0.500000 0.043019 0.750000
O O8 0.310891 0.113598 0.742988
O O9 0.243017 0.027637 0.629613
O O10 0.253013 0.039486 0.917774
O O11 0.000000 0.000000 0.000000
#
# Coordination Sequence:
#
# PCOD9457299 Si02
#       6
#     4   4   8   8   8   8
#     4  11  22  42  62  92 122 156 204 267 316 372
#     4  11  20  38  62  94 116 158 222 255 290 370
#     4  10  23  38  66  89 121 161 209 259 309 376
#     4  12  25  41  62  94 133 168 205 266 324 373
#     4  11  22  40  63  90 123 164 207 252 320 377
#     4  12  23  40  66  92 124 170 219 254 304 381
#
# _framework density 17.956700000000001
#
# number of rings (size 3 to 8) (size 9 to 14) (size 15 to 20)
#    0.000    0.800    5.000    3.000    2.800    0.000 
#    0.000    0.000    0.000    0.000    0.000    0.000 
#    0.000    0.000    0.000    0.000    0.000    0.000 
#
# Total GULP energy -223532.909823 kJ/mol
# GULP energy per Si atom -5588.322746 kJ/mol
# Density = 1.791583 g / cm^3
# Si number density = 17.956700 Si / 1000 Ang^3
#
#
#
# Elastic Constant Matrix: (Units=GPa)
#
#
# Indices 1 2 3 4 5 6 
#
# 1 136.8819 48.2767 50.3729 0.0000 0.0000 0.0000
# 2 48.2767 122.5999 44.8735 0.0000 0.0000 0.0000
# 3 50.3729 44.8735 100.8326 0.0000 0.0000 0.0000
# 4 0.0000 0.0000 0.0000 26.5305 0.0000 0.0000
# 5 0.0000 0.0000 0.0000 0.0000 13.8040 0.0000
# 6 0.0000 0.0000 0.0000 0.0000 0.0000 33.1808
#
#
#
# Elastic Compliance Matrix: (Units=1/GPa)
#
#
# Indices 1 2 3 4 5 6 
#
# 1 0.009506 -0.002395 -0.003683 0.000000 0.000000 0.000000
# 2 -0.002395 0.010347 -0.003408 0.000000 0.000000 0.000000
# 3 -0.003683 -0.003408 0.013274 0.000000 0.000000 0.000000
# 4 0.000000 0.000000 0.000000 0.037692 0.000000 0.000000
# 5 0.000000 0.000000 0.000000 0.000000 0.072443 0.000000
# 6 0.000000 0.000000 0.000000 0.000000 0.000000 0.030138
#
#
# Mechanical properties :
#
#
# Convention : Reuss Voigt Hill
#
# Bulk Modulus (GPa) = 70.64924 71.92895 71.28909
# Shear Modulus (GPa) = 25.36907 29.15584 27.26245
#
# Velocity S-wave (km/s) = 3.76279 4.03386 3.90068
# Velocity P-wave (km/s) = 7.63595 7.86383 7.75073
#
# Compressibility (1/GPa) = 0.01415443
#
# Stress axis : x y z
#
# Youngs Moduli (GPa) = 105.20149 96.64425 75.33496
#
# Poissons Ratio (x) = 0.23147 0.27744
# Poissons Ratio (y) = 0.25197 0.25677
# Poissons Ratio (z) = 0.38744 0.32939
#
# Static dielectric constant tensor:
#      x y z
#    x 1.581930 0.000000 0.000000 
#    y 0.000000 1.600010 0.000000 
#    z 0.000000 0.000000 1.611280 
# 
# From -- ./inp_files/3893.got.cif
#   From: 2010.05.17/outbox.cif.g08.bks.cpg/sg60_2_cif.got.tgz:3893.got - 2010.06.03 14:59:27.
