data_PCOD9457824
_publ_section_title
;
Structure prediction by ZEFSAII (Michael W. Deem and Ramdas Pophale) SiO2 
 PCOD9457824
Probable space group: P B C N
;
_chemical_formula_sum "Si O2"
_cell_formula_units_Z 36
_cell_length_a 13.895413
_cell_length_b 10.596863
_cell_length_c 8.771108
_cell_angle_alpha 90.000000
_cell_angle_beta 90.000000
_cell_angle_gamma 90.000000
_cell_volume 1291.526250
_symmetry_space_group_name_H-M "P B C N"
_symmetry_group_IT_number 60
_symmetry_cell_setting 'orthorhombic'
loop_
_space_group_symop_operation_xyz
x,y,z
1/2-x,1/2-y,1/2+z
1/2+x,1/2-y,-z
-x,y,1/2-z
-x,-y,-z
1/2+x,1/2+y,1/2-z
1/2-x,1/2+y,z
x,-y,1/2+z
loop_
_atom_site_type_symbol
_atom_site_label
_atom_site_fract_x
_atom_site_fract_y
_atom_site_fract_z
Si Si1 0.714816 0.825614 0.457736
Si Si2 0.387718 0.584211 0.677188
Si Si3 0.454425 0.339215 0.514905
Si Si4 0.146461 0.411435 0.489166
Si Si5 0.500000 0.990748 0.250000
O O1 0.776529 0.880003 0.319290
O O2 0.605191 0.782964 0.445206
O O3 0.774137 0.698506 0.497264
O O4 0.704029 0.957048 0.547537
O O5 0.417331 0.442333 0.635011
O O6 0.432661 0.655131 0.525360
O O7 0.423068 0.622302 0.842955
O O8 0.568762 0.092517 0.644298
O O9 0.076013 0.429218 0.641514
#
# Coordination Sequence:
#
# PCOD9457824 Si02
#       5
#     8   8   8   8   4
#     4  12  26  44  76 114 140 204 248 318 358 474
#     4  10  24  46  72 106 149 191 242 309 380 449
#     4  10  24  46  72 106 149 191 242 309 380 449
#     4  11  28  48  79 106 160 190 269 300 401 436
#     4  10  28  54  72 112 150 214 234 334 372 470
#
# _framework density 27.873996999999999
#
# number of rings (size 3 to 8) (size 9 to 14) (size 15 to 20)
#    0.000    1.333    2.222    0.000   12.444    1.778 
#    0.000    0.000    0.000    0.000    0.000    0.000 
#    0.000    0.000    0.000    0.000    0.000    0.000 
#
# Total GULP energy -200979.653790 kJ/mol
# GULP energy per Si atom -5582.768161 kJ/mol
# Density = 2.781055 g / cm^3
# Si number density = 27.873997 Si / 1000 Ang^3
#
#
#
# Elastic Constant Matrix: (Units=GPa)
#
#
# Indices 1 2 3 4 5 6 
#
# 1 124.2779 76.9088 37.4987 0.0000 0.0000 0.0000
# 2 76.9088 172.5366 26.3348 0.0000 0.0000 0.0000
# 3 37.4987 26.3348 137.4215 0.0000 0.0000 0.0000
# 4 0.0000 0.0000 0.0000 1.3627 0.0000 0.0000
# 5 0.0000 0.0000 0.0000 0.0000 45.1083 0.0000
# 6 0.0000 0.0000 0.0000 0.0000 0.0000 70.6417
#
#
#
# Elastic Compliance Matrix: (Units=1/GPa)
#
#
# Indices 1 2 3 4 5 6 
#
# 1 0.011762 -0.004896 -0.002271 0.000000 0.000000 0.000000
# 2 -0.004896 0.008009 -0.000199 0.000000 0.000000 0.000000
# 3 -0.002271 -0.000199 0.007935 0.000000 0.000000 0.000000
# 4 0.000000 0.000000 0.000000 0.733852 0.000000 0.000000
# 5 0.000000 0.000000 0.000000 0.000000 0.022169 0.000000
# 6 0.000000 0.000000 0.000000 0.000000 0.000000 0.014156
#
#
# Mechanical properties :
#
#
# Convention : Reuss Voigt Hill
#
# Bulk Modulus (GPa) = 77.08325 79.52453 78.30389
# Shear Modulus (GPa) = 6.12041 42.98878 24.55460
#
# Velocity S-wave (km/s) = 1.48341 3.93141 2.97124
# Velocity P-wave (km/s) = 5.53608 7.01427 6.31855
#
# Compressibility (1/GPa) = 0.01297299
#
# Stress axis : x y z
#
# Youngs Moduli (GPa) = 85.02130 124.86426 126.02853
#
# Poissons Ratio (x) = 0.61136 0.28624
# Poissons Ratio (y) = 0.41628 0.02504
# Poissons Ratio (z) = 0.19310 0.02481
#
# Static dielectric constant tensor:
#      x y z
#    x 2.394520 0.000000 0.000000 
#    y 0.000000 2.295510 0.000000 
#    z 0.000000 0.000000 2.155970 
# 
# From -- ./inp_files/7178.got.cif
#   From: 2010.05.17/outbox.cif.g08.bks.cpg/sg60_4_cif.got.tgz:7178.got - 2010.06.03 14:59:27.
