data_PCOD9457349
_publ_section_title
;
Structure prediction by ZEFSAII (Michael W. Deem and Ramdas Pophale) SiO2 
 PCOD9457349
Probable space group: P B C N
;
_chemical_formula_sum "Si O2"
_cell_formula_units_Z 64
_cell_length_a 19.506600
_cell_length_b 25.550182
_cell_length_c 5.267236
_cell_angle_alpha 90.000000
_cell_angle_beta 90.000000
_cell_angle_gamma 90.000000
_cell_volume 2625.175570
_symmetry_space_group_name_H-M "P B C N"
_symmetry_group_IT_number 60
_symmetry_cell_setting 'orthorhombic'
loop_
_space_group_symop_operation_xyz
x,y,z
1/2-x,1/2-y,1/2+z
1/2+x,1/2-y,-z
-x,y,1/2-z
-x,-y,-z
1/2+x,1/2+y,1/2-z
1/2-x,1/2+y,z
x,-y,1/2+z
loop_
_atom_site_type_symbol
_atom_site_label
_atom_site_fract_x
_atom_site_fract_y
_atom_site_fract_z
Si Si1 0.571895 0.837921 0.121409
Si Si2 0.458105 0.269987 0.012740
Si Si3 0.630098 0.528507 0.970586
Si Si4 0.082506 0.134555 0.272478
Si Si5 0.196937 0.831752 0.425790
Si Si6 0.204742 0.529041 0.538097
Si Si7 0.682809 0.122470 0.314721
Si Si8 0.193804 0.709701 0.543749
O O1 0.500000 0.852998 0.250000
O O2 0.559735 0.789520 0.929739
O O3 0.626407 0.811567 0.313148
O O4 0.614119 0.882348 0.976962
O O5 0.500000 0.264733 0.750000
O O6 0.403105 0.313687 0.943746
O O7 0.500000 0.290398 0.250000
O O8 0.606280 0.487612 0.189260
O O9 0.608500 0.584532 0.076687
O O10 0.712675 0.528254 0.960871
O O11 0.000000 0.130069 0.250000
O O12 0.123018 0.144867 0.009327
O O13 0.246489 0.879153 0.529655
O O14 0.193749 0.772160 0.540290
O O15 0.238638 0.815977 0.170792
O O16 0.182082 0.511656 0.817061
O O17 0.182543 0.584782 0.425822
O O18 0.688435 0.182919 0.228619
#
# Coordination Sequence:
#
# PCOD9457349 Si02
#       8
#     8   8   8   8   8   8   8   8
#     4  10  24  41  66  99 141 181 228 278 348 437
#     4  10  23  41  62  93 136 184 227 271 329 416
#     4  10  23  43  67  90 124 171 230 293 347 404
#     4  11  24  43  64  92 134 183 227 286 348 410
#     4  11  22  41  59 101 137 180 235 285 344 422
#     4  10  23  43  69  99 130 173 232 292 349 415
#     4  11  24  40  68  99 134 184 226 293 351 417
#     4  11  23  39  67  97 142 186 230 284 348 417
#
# _framework density 24.379321000000001
#
# number of rings (size 3 to 8) (size 9 to 14) (size 15 to 20)
#    0.000    1.500    3.750    0.000    7.000    3.500 
#    4.500    0.000    0.000    0.750    0.000    0.000 
#    0.000    0.000    0.000    0.000    0.000    0.000 
#
# Total GULP energy -357325.985769 kJ/mol
# GULP energy per Si atom -5583.218528 kJ/mol
# Density = 2.432383 g / cm^3
# Si number density = 24.379321 Si / 1000 Ang^3
#
#
#
# Elastic Constant Matrix: (Units=GPa)
#
#
# Indices 1 2 3 4 5 6 
#
# 1 135.4674 16.4915 44.0033 0.0000 0.0000 0.0000
# 2 16.4915 83.4402 2.1477 0.0000 0.0000 0.0000
# 3 44.0033 2.1477 63.5366 0.0000 0.0000 0.0000
# 4 0.0000 0.0000 0.0000 36.6821 0.0000 0.0000
# 5 0.0000 0.0000 0.0000 0.0000 37.8636 0.0000
# 6 0.0000 0.0000 0.0000 0.0000 0.0000 33.1478
#
#
#
# Elastic Compliance Matrix: (Units=1/GPa)
#
#
# Indices 1 2 3 4 5 6 
#
# 1 0.009776 -0.001759 -0.006711 0.000000 0.000000 0.000000
# 2 -0.001759 0.012312 0.000802 0.000000 0.000000 0.000000
# 3 -0.006711 0.000802 0.020360 0.000000 0.000000 0.000000
# 4 0.000000 0.000000 0.000000 0.027261 0.000000 0.000000
# 5 0.000000 0.000000 0.000000 0.000000 0.026411 0.000000
# 6 0.000000 0.000000 0.000000 0.000000 0.000000 0.030168
#
#
# Mechanical properties :
#
#
# Convention : Reuss Voigt Hill
#
# Bulk Modulus (GPa) = 36.88520 45.30324 41.09422
# Shear Modulus (GPa) = 33.18724 36.19214 34.68969
#
# Velocity S-wave (km/s) = 3.69356 3.85716 3.77625
# Velocity P-wave (km/s) = 5.77516 6.20160 5.99217
#
# Compressibility (1/GPa) = 0.02711114
#
# Stress axis : x y z
#
# Youngs Moduli (GPa) = 102.29185 81.22340 49.11676
#
# Poissons Ratio (x) = 0.14291 0.32962
# Poissons Ratio (y) = 0.17998 -0.03941
# Poissons Ratio (z) = 0.68648 -0.06517
#
# Static dielectric constant tensor:
#      x y z
#    x 2.013750 0.000000 0.000000 
#    y 0.000000 1.987900 0.000000 
#    z 0.000000 0.000000 2.127300 
# 
# From -- ./inp_files/2230.got.cif
#   From: 2010.05.17/outbox.cif.g08.bks.cpg/sg60_2_cif.got.tgz:2230.got - 2010.06.03 14:59:27.
