data_PCOD9457031
_publ_section_title
;
Structure prediction by ZEFSAII (Michael W. Deem and Ramdas Pophale) SiO2 
 PCOD9457031
Probable space group: P B C N
;
_chemical_formula_sum "Si O2"
_cell_formula_units_Z 40
_cell_length_a 7.759522
_cell_length_b 25.969262
_cell_length_c 7.985863
_cell_angle_alpha 90.000000
_cell_angle_beta 90.000000
_cell_angle_gamma 90.000000
_cell_volume 1609.223745
_symmetry_space_group_name_H-M "P B C N"
_symmetry_group_IT_number 60
_symmetry_cell_setting 'orthorhombic'
loop_
_space_group_symop_operation_xyz
x,y,z
1/2-x,1/2-y,1/2+z
1/2+x,1/2-y,-z
-x,y,1/2-z
-x,-y,-z
1/2+x,1/2+y,1/2-z
1/2-x,1/2+y,z
x,-y,1/2+z
loop_
_atom_site_type_symbol
_atom_site_label
_atom_site_fract_x
_atom_site_fract_y
_atom_site_fract_z
Si Si1 0.388397 0.716189 0.418259
Si Si2 0.169005 0.528220 0.374752
Si Si3 0.709004 0.428385 0.265856
Si Si4 0.705863 0.128659 0.249924
Si Si5 0.695389 0.323477 0.098149
O O1 0.500000 0.714864 0.250000
O O2 0.252409 0.671128 0.388118
O O3 0.312466 0.773019 0.417414
O O4 0.503393 0.700277 0.576130
O O5 0.225701 0.469181 0.373135
O O6 0.193371 0.551036 0.564960
O O7 0.281356 0.572293 0.285535
O O8 0.000000 0.527957 0.250000
O O9 0.500000 0.432771 0.250000
O O10 0.741768 0.367871 0.231213
O O11 0.500000 0.127188 0.250000
O O12 0.776239 0.145923 0.426334
#
# Coordination Sequence:
#
# PCOD9457031 Si02
#       5
#     8   8   8   8   8
#     4  10  23  40  64  98 136 179 234 300 370 441
#     4  11  25  45  69 103 146 193 244 306 378 450
#     4  12  26  44  72 104 143 191 248 307 372 455
#     4  10  22  42  66  93 132 181 233 295 363 437
#     4  11  24  43  68 100 138 186 241 302 366 443
#
# _framework density 24.856704000000001
#
# number of rings (size 3 to 8) (size 9 to 14) (size 15 to 20)
#    0.000    1.200    0.000    4.800    0.000   15.200 
#    0.000    0.000    0.000    0.000    0.000    0.000 
#    0.000    0.000    0.000    0.000    0.000    0.000 
#
# Total GULP energy -222979.653596 kJ/mol
# GULP energy per Si atom -5574.491340 kJ/mol
# Density = 2.480013 g / cm^3
# Si number density = 24.856704 Si / 1000 Ang^3
#
#
#
# Elastic Constant Matrix: (Units=GPa)
#
#
# Indices 1 2 3 4 5 6 
#
# 1 70.3763 62.0229 36.1775 0.0000 0.0000 0.0000
# 2 62.0229 226.1733 62.6371 0.0000 0.0000 0.0000
# 3 36.1775 62.6371 142.1395 0.0000 0.0000 0.0000
# 4 0.0000 0.0000 0.0000 97.9651 0.0000 0.0000
# 5 0.0000 0.0000 0.0000 0.0000 14.1946 0.0000
# 6 0.0000 0.0000 0.0000 0.0000 0.0000 -0.5522
#
#
#
# Elastic Compliance Matrix: (Units=1/GPa)
#
#
# Indices 1 2 3 4 5 6 
#
# 1 0.019812 -0.004598 -0.003017 0.000000 0.000000 0.000000
# 2 -0.004598 0.006103 -0.001519 0.000000 0.000000 0.000000
# 3 -0.003017 -0.001519 0.008473 0.000000 0.000000 0.000000
# 4 0.000000 0.000000 0.000000 0.010208 0.000000 0.000000
# 5 0.000000 0.000000 0.000000 0.000000 0.070449 0.000000
# 6 0.000000 0.000000 0.000000 0.000000 0.000000 -1.810992
#
#
# Mechanical properties :
#
#
# Convention : Reuss Voigt Hill
#
# Bulk Modulus (GPa) = 62.03177 84.48490 73.25833
# Shear Modulus (GPa) = -2.98988 40.84495 18.92753
#
# Velocity S-wave (km/s) = -1.09793 4.05806 2.76246
# Velocity P-wave (km/s) = 4.83763 7.48463 6.30168
#
# Compressibility (1/GPa) = 0.01612077
#
# Stress axis : x y z
#
# Youngs Moduli (GPa) = 50.47488 163.85668 118.02777
#
# Poissons Ratio (x) = 0.75334 0.35603
# Poissons Ratio (y) = 0.23206 0.17931
# Poissons Ratio (z) = 0.15226 0.24893
#
# Static dielectric constant tensor:
#      x y z
#    x 2.433240 0.000000 0.000000 
#    y 0.000000 2.024500 0.000000 
#    z 0.000000 0.000000 2.025710 
# 
# From -- ./inp_files/3846.got.cif
#   From: 2010.05.17/outbox.cif.g08.bks.cpg/sg60_2_cif.got.tgz:3846.got - 2010.06.03 14:59:27.
