data_PCOD9457165
_publ_section_title
;
Structure prediction by ZEFSAII (Michael W. Deem and Ramdas Pophale) SiO2 
 PCOD9457165
Probable space group: P B C N
;
_chemical_formula_sum "Si O2"
_cell_formula_units_Z 64
_cell_length_a 5.261010
_cell_length_b 25.447238
_cell_length_c 22.373547
_cell_angle_alpha 90.000000
_cell_angle_beta 90.000000
_cell_angle_gamma 90.000000
_cell_volume 2995.329609
_symmetry_space_group_name_H-M "P B C N"
_symmetry_group_IT_number 60
_symmetry_cell_setting 'orthorhombic'
loop_
_space_group_symop_operation_xyz
x,y,z
1/2-x,1/2-y,1/2+z
1/2+x,1/2-y,-z
-x,y,1/2-z
-x,-y,-z
1/2+x,1/2+y,1/2-z
1/2-x,1/2+y,z
x,-y,1/2+z
loop_
_atom_site_type_symbol
_atom_site_label
_atom_site_fract_x
_atom_site_fract_y
_atom_site_fract_z
Si Si1 0.566797 0.151762 0.319873
Si Si2 0.490541 0.730025 0.821073
Si Si3 0.145097 0.734769 0.929844
Si Si4 0.947331 0.101477 0.126689
Si Si5 0.538626 0.924675 0.182034
Si Si6 0.988571 0.839259 0.508154
Si Si7 0.721110 0.154608 0.897213
Si Si8 0.032447 0.992940 0.181639
O O1 0.500000 0.149734 0.250000
O O2 0.609970 0.212979 0.336857
O O3 0.329582 0.125302 0.355533
O O4 0.832510 0.123446 0.330357
O O5 0.500000 0.728167 0.750000
O O6 0.236995 0.733818 0.861062
O O7 0.606406 0.675406 0.843856
O O8 0.157819 0.792460 0.956593
O O9 0.868106 0.710100 0.925279
O O10 0.296809 0.693912 0.972256
O O11 0.039385 0.120363 0.061315
O O12 0.959877 0.039233 0.136648
O O13 0.500000 0.904246 0.250000
O O14 0.490697 0.881045 0.132099
O O15 0.818461 0.948162 0.176308
O O16 0.314451 0.968592 0.174575
O O17 0.851595 0.870449 0.454546
O O18 0.000000 0.013151 0.250000
#
# Coordination Sequence:
#
# PCOD9457165 Si02
#       8
#     8   8   8   8   8   8   8   8
#     4  11  23  39  61  99 136 172 213 269 329 402
#     4  10  24  38  60  98 137 169 215 272 337 396
#     4  11  22  41  62  88 135 178 225 262 320 391
#     4  12  24  41  70  95 132 176 225 265 337 397
#     4  10  24  44  70  96 128 165 223 280 346 398
#     4  11  24  39  63  93 130 182 226 261 313 400
#     4  11  25  41  65  90 129 181 221 275 323 396
#     4  10  22  44  68  97 127 165 214 287 347 401
#
# _framework density 21.366593999999999
#
# number of rings (size 3 to 8) (size 9 to 14) (size 15 to 20)
#    0.000    1.250    2.500    2.625    8.750    1.500 
#    0.000    1.250    0.000    0.000    0.000    0.000 
#    0.000    0.000    0.000    0.000    0.000    0.000 
#
# Total GULP energy -356949.437380 kJ/mol
# GULP energy per Si atom -5577.334959 kJ/mol
# Density = 2.131796 g / cm^3
# Si number density = 21.366594 Si / 1000 Ang^3
#
#
#
# Elastic Constant Matrix: (Units=GPa)
#
#
# Indices 1 2 3 4 5 6 
#
# 1 47.9378 -1.2367 4.5371 0.0000 0.0000 0.0000
# 2 -1.2367 48.8338 33.1132 0.0000 0.0000 0.0000
# 3 4.5371 33.1132 104.4783 0.0000 0.0000 0.0000
# 4 0.0000 0.0000 0.0000 20.0653 0.0000 0.0000
# 5 0.0000 0.0000 0.0000 0.0000 23.4545 0.0000
# 6 0.0000 0.0000 0.0000 0.0000 0.0000 11.8567
#
#
#
# Elastic Compliance Matrix: (Units=1/GPa)
#
#
# Indices 1 2 3 4 5 6 
#
# 1 0.021029 0.001467 -0.001378 0.000000 0.000000 0.000000
# 2 0.001467 0.026186 -0.008363 0.000000 0.000000 0.000000
# 3 -0.001378 -0.008363 0.012282 0.000000 0.000000 0.000000
# 4 0.000000 0.000000 0.000000 0.049837 0.000000 0.000000
# 5 0.000000 0.000000 0.000000 0.000000 0.042636 0.000000
# 6 0.000000 0.000000 0.000000 0.000000 0.000000 0.084341
#
#
# Mechanical properties :
#
#
# Convention : Reuss Voigt Hill
#
# Bulk Modulus (GPa) = 23.28405 30.45302 26.86854
# Shear Modulus (GPa) = 18.71441 22.06437 20.38939
#
# Velocity S-wave (km/s) = 2.96272 3.21698 3.09247
# Velocity P-wave (km/s) = 4.75654 5.29927 5.03522
#
# Compressibility (1/GPa) = 0.04294785
#
# Stress axis : x y z
#
# Youngs Moduli (GPa) = 47.55421 38.18902 81.42160
#
# Poissons Ratio (x) = -0.05603 0.11221
# Poissons Ratio (y) = -0.06976 0.68092
# Poissons Ratio (z) = 0.06554 0.31937
#
# Static dielectric constant tensor:
#      x y z
#    x 1.864070 0.000000 0.000000 
#    y 0.000000 1.791050 0.000000 
#    z 0.000000 0.000000 1.818230 
# 
# From -- ./inp_files/21826.got.cif
#   From: 2010.05.17/outbox.cif.g08.bks.cpg/sg60_11_cif.got.tgz:21826.got - 2010.06.03 14:59:27.
