data_PCOD9457625
_publ_section_title
;
Structure prediction by ZEFSAII (Michael W. Deem and Ramdas Pophale) SiO2 
 PCOD9457625
Probable space group: P B C N
;
_chemical_formula_sum "Si O2"
_cell_formula_units_Z 56
_cell_length_a 15.867581
_cell_length_b 21.486792
_cell_length_c 8.233260
_cell_angle_alpha 90.000000
_cell_angle_beta 90.000000
_cell_angle_gamma 90.000000
_cell_volume 2807.075760
_symmetry_space_group_name_H-M "P B C N"
_symmetry_group_IT_number 60
_symmetry_cell_setting 'orthorhombic'
loop_
_space_group_symop_operation_xyz
x,y,z
1/2-x,1/2-y,1/2+z
1/2+x,1/2-y,-z
-x,y,1/2-z
-x,-y,-z
1/2+x,1/2+y,1/2-z
1/2-x,1/2+y,z
x,-y,1/2+z
loop_
_atom_site_type_symbol
_atom_site_label
_atom_site_fract_x
_atom_site_fract_y
_atom_site_fract_z
Si Si1 0.778341 0.430036 0.767699
Si Si2 0.046414 0.442842 0.581338
Si Si3 0.815796 0.294547 0.620831
Si Si4 0.642052 0.714944 0.931509
Si Si5 0.000852 0.690670 0.449554
Si Si6 0.911724 0.077411 0.844375
Si Si7 0.322218 0.481350 0.451361
O O1 0.858379 0.455493 0.866778
O O2 0.802123 0.360824 0.711705
O O3 0.749830 0.470994 0.613412
O O4 0.704467 0.437331 0.899889
O O5 0.000000 0.433384 0.750000
O O6 0.000000 0.500000 0.500000
O O7 0.033357 0.376570 0.493803
O O8 0.836060 0.242178 0.753837
O O9 0.728842 0.281107 0.530197
O O10 0.900408 0.300377 0.511114
O O11 0.565702 0.756935 0.001086
O O12 0.609990 0.644516 0.916490
O O13 0.000000 0.693349 0.250000
O O14 0.845392 0.059176 0.704219
O O15 0.000000 0.077553 0.750000
O O16 0.897598 0.025298 0.982871
#
# Coordination Sequence:
#
# PCOD9457625 Si02
#       7
#     8   8   8   8   8   8   8
#     4  11  20  40  59  92 129 160 211 263 315 381
#     4  11  20  34  59  88 122 167 200 251 312 373
#     4  11  22  41  64  86 125 166 209 268 318 379
#     4  11  23  40  66  90 120 171 215 257 328 384
#     4   9  19  39  59  85 121 162 207 249 310 384
#     4  11  22  41  65  90 123 166 212 265 329 386
#     4  10  24  37  62  94 124 161 212 265 319 391
#
# _framework density 19.949587000000001
#
# number of rings (size 3 to 8) (size 9 to 14) (size 15 to 20)
#    0.000    1.429    5.714    2.571    2.000    0.000 
#    0.000    2.143    0.000    0.000    0.000    0.000 
#    0.000    0.000    0.000    0.000    0.000    0.000 
#
# Total GULP energy -312326.416900 kJ/mol
# GULP energy per Si atom -5577.257445 kJ/mol
# Density = 1.990418 g / cm^3
# Si number density = 19.949587 Si / 1000 Ang^3
#
#
#
# Elastic Constant Matrix: (Units=GPa)
#
#
# Indices 1 2 3 4 5 6 
#
# 1 102.8072 53.8641 3.3710 0.0000 0.0000 0.0000
# 2 53.8641 99.0238 13.2320 0.0000 0.0000 0.0000
# 3 3.3710 13.2320 23.7783 0.0000 0.0000 0.0000
# 4 0.0000 0.0000 0.0000 17.8433 0.0000 0.0000
# 5 0.0000 0.0000 0.0000 0.0000 36.9777 0.0000
# 6 0.0000 0.0000 0.0000 0.0000 0.0000 48.5801
#
#
#
# Elastic Compliance Matrix: (Units=1/GPa)
#
#
# Indices 1 2 3 4 5 6 
#
# 1 0.013728 -0.007786 0.002387 0.000000 0.000000 0.000000
# 2 -0.007786 0.015326 -0.007425 0.000000 0.000000 0.000000
# 3 0.002387 -0.007425 0.045848 0.000000 0.000000 0.000000
# 4 0.000000 0.000000 0.000000 0.056043 0.000000 0.000000
# 5 0.000000 0.000000 0.000000 0.000000 0.027043 0.000000
# 6 0.000000 0.000000 0.000000 0.000000 0.000000 0.020585
#
#
# Mechanical properties :
#
#
# Convention : Reuss Voigt Hill
#
# Bulk Modulus (GPa) = 20.30291 40.72705 30.51498
# Shear Modulus (GPa) = 22.66124 31.02304 26.84214
#
# Velocity S-wave (km/s) = 3.37401 3.94772 3.67208
# Velocity P-wave (km/s) = 5.03763 6.42173 5.77132
#
# Compressibility (1/GPa) = 0.04925402
#
# Stress axis : x y z
#
# Youngs Moduli (GPa) = 72.84245 65.24792 21.81097
#
# Poissons Ratio (x) = 0.50805 -0.05206
# Poissons Ratio (y) = 0.56718 0.16194
# Poissons Ratio (z) = -0.17386 0.48445
#
# Static dielectric constant tensor:
#      x y z
#    x 1.742320 0.000000 0.000000 
#    y 0.000000 1.742360 0.000000 
#    z 0.000000 0.000000 1.712780 
# 
# From -- ./inp_files/6177.got.cif
#   From: 2010.05.17/outbox.cif.g08.bks.cpg/sg60_4_cif.got.tgz:6177.got - 2010.06.03 14:59:27.
