data_PCOD9457931
_publ_section_title
;
Structure prediction by ZEFSAII (Michael W. Deem and Ramdas Pophale) SiO2 
 PCOD9457931
Probable space group: P B C N
;
_chemical_formula_sum "Si O2"
_cell_formula_units_Z 40
_cell_length_a 17.026900
_cell_length_b 7.553458
_cell_length_c 13.104957
_cell_angle_alpha 90.000000
_cell_angle_beta 90.000000
_cell_angle_gamma 90.000000
_cell_volume 1685.454389
_symmetry_space_group_name_H-M "P B C N"
_symmetry_group_IT_number 60
_symmetry_cell_setting 'orthorhombic'
loop_
_space_group_symop_operation_xyz
x,y,z
1/2-x,1/2-y,1/2+z
1/2+x,1/2-y,-z
-x,y,1/2-z
-x,-y,-z
1/2+x,1/2+y,1/2-z
1/2-x,1/2+y,z
x,-y,1/2+z
loop_
_atom_site_type_symbol
_atom_site_label
_atom_site_fract_x
_atom_site_fract_y
_atom_site_fract_z
Si Si1 0.425881 0.033048 0.822623
Si Si2 0.234715 0.672335 0.749297
Si Si3 0.150819 0.967809 0.645456
Si Si4 0.023120 0.075584 0.387447
Si Si5 0.147646 0.801425 0.422233
O O1 0.500000 0.981520 0.750000
O O2 0.347593 0.064185 0.753940
O O3 0.451165 0.219613 0.876123
O O4 0.398316 0.883610 0.903683
O O5 0.202222 0.866528 0.727527
O O6 0.301619 0.648803 0.660348
O O7 0.271683 0.688350 0.861246
O O8 0.158912 0.866463 0.537742
O O9 0.059023 0.954979 0.669108
O O10 0.094088 0.945854 0.365769
O O11 0.000000 0.000000 0.500000
#
# Coordination Sequence:
#
# PCOD9457931 Si02
#       5
#     8   8   8   8   8
#     4  12  26  46  77 111 148 196 261 313 378 460
#     4  12  25  46  73 108 150 195 248 321 376 450
#     4  11  26  47  72 110 147 195 252 309 383 460
#     4  10  25  49  74 106 151 197 247 316 378 454
#     4  11  28  47  77 109 151 202 251 318 387 451
#
# _framework density 23.732471
#
# number of rings (size 3 to 8) (size 9 to 14) (size 15 to 20)
#    0.000    0.800    4.000    1.200    5.600    4.800 
#    0.000    0.000    0.000    0.000    0.000    0.000 
#    0.000    0.000    0.000    0.000    0.000    0.000 
#
# Total GULP energy -223091.050425 kJ/mol
# GULP energy per Si atom -5577.276261 kJ/mol
# Density = 2.367846 g / cm^3
# Si number density = 23.732471 Si / 1000 Ang^3
#
#
#
# Elastic Constant Matrix: (Units=GPa)
#
#
# Indices 1 2 3 4 5 6 
#
# 1 184.8333 29.4974 34.2250 0.0000 0.0000 0.0000
# 2 29.4974 81.8384 15.3570 0.0000 0.0000 0.0000
# 3 34.2250 15.3570 81.5508 0.0000 0.0000 0.0000
# 4 0.0000 0.0000 0.0000 25.1653 0.0000 0.0000
# 5 0.0000 0.0000 0.0000 0.0000 29.1494 0.0000
# 6 0.0000 0.0000 0.0000 0.0000 0.0000 53.7709
#
#
#
# Elastic Compliance Matrix: (Units=1/GPa)
#
#
# Indices 1 2 3 4 5 6 
#
# 1 0.006107 -0.001783 -0.002227 0.000000 0.000000 0.000000
# 2 -0.001783 0.013188 -0.001735 0.000000 0.000000 0.000000
# 3 -0.002227 -0.001735 0.013524 0.000000 0.000000 0.000000
# 4 0.000000 0.000000 0.000000 0.039737 0.000000 0.000000
# 5 0.000000 0.000000 0.000000 0.000000 0.034306 0.000000
# 6 0.000000 0.000000 0.000000 0.000000 0.000000 0.018597
#
#
# Mechanical properties :
#
#
# Convention : Reuss Voigt Hill
#
# Bulk Modulus (GPa) = 46.88788 56.26460 51.57624
# Shear Modulus (GPa) = 34.70789 39.56001 37.13395
#
# Velocity S-wave (km/s) = 3.82837 4.08722 3.95991
# Velocity P-wave (km/s) = 6.27229 6.78477 6.53356
#
# Compressibility (1/GPa) = 0.02132747
#
# Stress axis : x y z
#
# Youngs Moduli (GPa) = 163.73853 75.82917 73.94403
#
# Poissons Ratio (x) = 0.13523 0.16469
# Poissons Ratio (y) = 0.29200 0.12829
# Poissons Ratio (z) = 0.36469 0.13156
#
# Static dielectric constant tensor:
#      x y z
#    x -7.552230 0.000000 0.000000 
#    y 0.000000 2.441310 0.000000 
#    z 0.000000 0.000000 2.125360 
# 
# From -- ./inp_files/16601.got.cif
#   From: 2010.05.17/outbox.cif.g08.bks.cpg/sg60_9_cif.got.tgz:16601.got - 2010.06.03 14:59:27.
