data_PCOD9457784
_publ_section_title
;
Structure prediction by ZEFSAII (Michael W. Deem and Ramdas Pophale) SiO2 
 PCOD9457784
Probable space group: P B C N
;
_chemical_formula_sum "Si O2"
_cell_formula_units_Z 40
_cell_length_a 5.036760
_cell_length_b 10.957009
_cell_length_c 27.487957
_cell_angle_alpha 90.000000
_cell_angle_beta 90.000000
_cell_angle_gamma 90.000000
_cell_volume 1517.000551
_symmetry_space_group_name_H-M "P B C N"
_symmetry_group_IT_number 60
_symmetry_cell_setting 'orthorhombic'
loop_
_space_group_symop_operation_xyz
x,y,z
1/2-x,1/2-y,1/2+z
1/2+x,1/2-y,-z
-x,y,1/2-z
-x,-y,-z
1/2+x,1/2+y,1/2-z
1/2-x,1/2+y,z
x,-y,1/2+z
loop_
_atom_site_type_symbol
_atom_site_label
_atom_site_fract_x
_atom_site_fract_y
_atom_site_fract_z
Si Si1 0.457027 0.127063 0.692420
Si Si2 0.712522 0.199510 0.937560
Si Si3 0.887471 0.049364 0.621264
Si Si4 0.370792 0.387125 0.696206
Si Si5 0.707058 0.866448 0.547331
O O1 0.500000 0.138394 0.750000
O O2 0.709292 0.132727 0.656709
O O3 0.284498 0.249955 0.685382
O O4 0.345791 0.991091 0.689778
O O5 0.428895 0.266833 0.935833
O O6 0.837136 0.110037 0.896872
O O7 0.923288 0.310319 0.939842
O O8 0.729799 0.129073 0.989080
O O9 0.748222 0.995902 0.573233
O O10 0.927211 0.930271 0.654837
O O11 0.500000 0.398327 0.750000
#
# Coordination Sequence:
#
# PCOD9457784 Si02
#       5
#     8   8   8   8   8
#     4  11  26  48  69 107 151 199 256 318 389 452
#     4  10  24  45  69 106 150 197 251 320 388 453
#     4  12  25  42  73 105 142 201 259 313 378 468
#     4  11  26  46  71 104 149 201 251 325 379 462
#     4  10  24  45  70 104 152 196 251 321 385 457
#
# _framework density 26.367822
#
# number of rings (size 3 to 8) (size 9 to 14) (size 15 to 20)
#    0.000    1.200    2.000    1.800    8.400    2.400 
#    0.000    6.000    0.000    0.000    0.000    0.000 
#    0.000    0.000    0.000    0.000    0.000    0.000 
#
# Total GULP energy -223900.214785 kJ/mol
# GULP energy per Si atom -5597.505370 kJ/mol
# Density = 2.630781 g / cm^3
# Si number density = 26.367822 Si / 1000 Ang^3
#
#
#
# Elastic Constant Matrix: (Units=GPa)
#
#
# Indices 1 2 3 4 5 6 
#
# 1 72.2751 35.0048 28.2735 0.0000 0.0000 0.0000
# 2 35.0048 149.6799 59.7906 0.0000 0.0000 0.0000
# 3 28.2735 59.7906 173.5743 0.0000 0.0000 0.0000
# 4 0.0000 0.0000 0.0000 35.0238 0.0000 0.0000
# 5 0.0000 0.0000 0.0000 0.0000 33.8780 0.0000
# 6 0.0000 0.0000 0.0000 0.0000 0.0000 -21.2828
#
#
#
# Elastic Compliance Matrix: (Units=1/GPa)
#
#
# Indices 1 2 3 4 5 6 
#
# 1 0.015943 -0.003120 -0.001522 0.000000 0.000000 0.000000
# 2 -0.003120 0.008358 -0.002371 0.000000 0.000000 0.000000
# 3 -0.001522 -0.002371 0.006826 0.000000 0.000000 0.000000
# 4 0.000000 0.000000 0.000000 0.028552 0.000000 0.000000
# 5 0.000000 0.000000 0.000000 0.000000 0.029518 0.000000
# 6 0.000000 0.000000 0.000000 0.000000 0.000000 -0.046986
#
#
# Mechanical properties :
#
#
# Convention : Reuss Voigt Hill
#
# Bulk Modulus (GPa) = 58.47982 71.29633 64.88807
# Shear Modulus (GPa) = 80.72867 27.68782 54.20824
#
# Velocity S-wave (km/s) = 5.53921 3.24398 4.53907
# Velocity P-wave (km/s) = 7.94588 6.41319 7.22032
#
# Compressibility (1/GPa) = 0.01709992
#
# Stress axis : x y z
#
# Youngs Moduli (GPa) = 62.72440 119.65071 146.50403
#
# Poissons Ratio (x) = 0.37337 0.22298
# Poissons Ratio (y) = 0.19573 0.34731
# Poissons Ratio (z) = 0.09547 0.28365
#
# Static dielectric constant tensor:
#      x y z
#    x 2.235120 0.000000 0.000000 
#    y 0.000000 1.989390 0.000000 
#    z 0.000000 0.000000 2.170610 
# 
# From -- ./inp_files/24731.got.cif
#   From: 2010.05.17/outbox.cif.g08.bks.cpg/sg60_13_cif.got.tgz:24731.got - 2010.06.03 14:59:27.
