data_PCOD9457757
_publ_section_title
;
Structure prediction by ZEFSAII (Michael W. Deem and Ramdas Pophale) SiO2 
 PCOD9457757
Probable space group: P B C N
;
_chemical_formula_sum "Si O2"
_cell_formula_units_Z 60
_cell_length_a 10.587451
_cell_length_b 8.865958
_cell_length_c 27.622740
_cell_angle_alpha 90.000000
_cell_angle_beta 90.000000
_cell_angle_gamma 90.000000
_cell_volume 2592.888483
_symmetry_space_group_name_H-M "P B C N"
_symmetry_group_IT_number 60
_symmetry_cell_setting 'orthorhombic'
loop_
_space_group_symop_operation_xyz
x,y,z
1/2-x,1/2-y,1/2+z
1/2+x,1/2-y,-z
-x,y,1/2-z
-x,-y,-z
1/2+x,1/2+y,1/2-z
1/2-x,1/2+y,z
x,-y,1/2+z
loop_
_atom_site_type_symbol
_atom_site_label
_atom_site_fract_x
_atom_site_fract_y
_atom_site_fract_z
Si Si1 0.876172 0.893522 0.498495
Si Si2 0.377675 0.154861 0.388920
Si Si3 0.251831 0.198161 0.794974
Si Si4 0.145301 0.443627 0.745179
Si Si5 0.175440 0.961344 0.665053
Si Si6 0.152309 0.253174 0.606049
Si Si7 0.281462 0.876034 0.446142
Si Si8 0.000000 0.165598 0.250000
O O1 0.845081 0.809504 0.448423
O O2 0.878884 0.754143 0.537105
O O3 0.762818 0.008466 0.512327
O O4 0.000000 0.000000 0.500000
O O5 0.312176 0.235243 0.342678
O O6 0.528093 0.144931 0.386607
O O7 0.338842 0.275914 0.430189
O O8 0.325943 0.989800 0.403658
O O9 0.168194 0.266401 0.751346
O O10 0.393446 0.248481 0.781310
O O11 0.267761 0.020542 0.786770
O O12 0.197269 0.500335 0.694659
O O13 0.000000 0.472538 0.750000
O O14 0.126084 0.105570 0.637785
O O15 0.222799 0.835995 0.626421
O O16 0.079383 0.914386 0.707365
#
# Coordination Sequence:
#
# PCOD9457757 Si02
#       8
#     8   8   8   8   8   8   8   4
#     4  11  23  48  75 105 146 194 233 307 376 450
#     4  11  24  43  71 108 141 189 245 303 359 446
#     4  11  23  40  67  97 135 187 238 292 360 425
#     4  11  23  43  64  95 138 184 237 298 360 423
#     4  11  26  44  68 102 140 193 242 305 360 431
#     4  12  26  47  69 106 144 186 255 296 364 447
#     4  10  24  46  73 108 146 185 240 294 385 440
#     4  10  24  44  68  96 142 190 236 294 368 420
#
# _framework density 23.140217
#
# number of rings (size 3 to 8) (size 9 to 14) (size 15 to 20)
#    0.000    1.067    2.000    4.000    5.600    0.533 
#    7.200    0.000    0.000    0.000    0.000    0.000 
#    0.000    0.000    0.000    0.000    0.000    0.000 
#
# Total GULP energy -334814.600637 kJ/mol
# GULP energy per Si atom -5580.243344 kJ/mol
# Density = 2.308755 g / cm^3
# Si number density = 23.140217 Si / 1000 Ang^3
#
#
#
# Elastic Constant Matrix: (Units=GPa)
#
#
# Indices 1 2 3 4 5 6 
#
# 1 56.2150 25.0522 4.3447 0.0000 0.0000 0.0000
# 2 25.0522 117.0620 25.5037 0.0000 0.0000 0.0000
# 3 4.3447 25.5037 76.6090 0.0000 0.0000 0.0000
# 4 0.0000 0.0000 0.0000 48.7645 0.0000 0.0000
# 5 0.0000 0.0000 0.0000 0.0000 26.2371 0.0000
# 6 0.0000 0.0000 0.0000 0.0000 0.0000 21.2352
#
#
#
# Elastic Compliance Matrix: (Units=1/GPa)
#
#
# Indices 1 2 3 4 5 6 
#
# 1 0.019671 -0.004277 0.000308 0.000000 0.000000 0.000000
# 2 -0.004277 0.010140 -0.003133 0.000000 0.000000 0.000000
# 3 0.000308 -0.003133 0.014079 0.000000 0.000000 0.000000
# 4 0.000000 0.000000 0.000000 0.020507 0.000000 0.000000
# 5 0.000000 0.000000 0.000000 0.000000 0.038114 0.000000
# 6 0.000000 0.000000 0.000000 0.000000 0.000000 0.047092
#
#
# Mechanical properties :
#
#
# Convention : Reuss Voigt Hill
#
# Bulk Modulus (GPa) = 33.68541 39.96524 36.82532
# Shear Modulus (GPa) = 28.78492 32.24639 30.51565
#
# Velocity S-wave (km/s) = 3.53077 3.73704 3.63537
# Velocity P-wave (km/s) = 5.58663 5.99408 5.79394
#
# Compressibility (1/GPa) = 0.02968645
#
# Stress axis : x y z
#
# Youngs Moduli (GPa) = 50.83614 98.61539 71.02833
#
# Poissons Ratio (x) = 0.42177 -0.02189
# Poissons Ratio (y) = 0.21742 0.22255
# Poissons Ratio (z) = -0.01567 0.30899
#
# Static dielectric constant tensor:
#      x y z
#    x 1.866230 0.000000 0.000000 
#    y 0.000000 1.891050 0.000000 
#    z 0.000000 0.000000 1.457950 
# 
# From -- ./inp_files/25327.got.cif
#   From: 2010.05.17/outbox.cif.g08.bks.cpg/sg60_13_cif.got.tgz:25327.got - 2010.06.03 14:59:27.
