data_PCOD9457220
_publ_section_title
;
Structure prediction by ZEFSAII (Michael W. Deem and Ramdas Pophale) SiO2 
 PCOD9457220
Probable space group: P B C N
;
_chemical_formula_sum "Si O2"
_cell_formula_units_Z 60
_cell_length_a 25.482472
_cell_length_b 11.407045
_cell_length_c 8.846207
_cell_angle_alpha 90.000000
_cell_angle_beta 90.000000
_cell_angle_gamma 90.000000
_cell_volume 2571.412839
_symmetry_space_group_name_H-M "P B C N"
_symmetry_group_IT_number 60
_symmetry_cell_setting 'orthorhombic'
loop_
_space_group_symop_operation_xyz
x,y,z
1/2-x,1/2-y,1/2+z
1/2+x,1/2-y,-z
-x,y,1/2-z
-x,-y,-z
1/2+x,1/2+y,1/2-z
1/2-x,1/2+y,z
x,-y,1/2+z
loop_
_atom_site_type_symbol
_atom_site_label
_atom_site_fract_x
_atom_site_fract_y
_atom_site_fract_z
Si Si1 0.738800 0.375827 0.185128
Si Si2 0.557765 0.922325 0.431436
Si Si3 0.108927 0.112228 0.267422
Si Si4 0.000000 0.249832 0.250000
Si Si5 0.158057 0.331539 0.181335
Si Si6 0.101355 0.625725 0.233354
Si Si7 0.638140 0.626473 0.882776
Si Si8 0.710229 0.890105 0.618545
O O1 0.800974 0.349561 0.188537
O O2 0.699356 0.375144 0.329174
O O3 0.743580 0.513644 0.137083
O O4 0.721919 0.250084 0.114842
O O5 0.508952 0.841905 0.387339
O O6 0.600186 0.879402 0.305025
O O7 0.575755 0.891487 0.600267
O O8 0.564727 0.057708 0.387411
O O9 0.147251 0.193445 0.164105
O O10 0.129749 0.118149 0.438518
O O11 0.050589 0.166161 0.263276
O O12 0.112076 0.983825 0.200206
O O13 0.183341 0.400970 0.043277
O O14 0.109180 0.758524 0.180166
O O15 0.163180 0.590181 0.259788
#
# Coordination Sequence:
#
# PCOD9457220 Si02
#       8
#     8   8   8   4   8   8   8   8
#     4  11  23  40  66 104 139 198 242 295 366 448
#     4  10  22  45  72 102 144 188 247 314 371 456
#     4  11  27  51  73 110 150 197 254 320 386 461
#     4  10  26  48  80 104 144 200 258 320 394 456
#     4  10  23  41  69  96 147 190 239 302 362 436
#     4  10  23  45  70 104 148 188 240 310 387 444
#     4  11  28  45  74 108 154 196 250 316 383 466
#     4  10  23  40  64  99 145 191 244 294 364 438
#
# _framework density 23.333476000000001
#
# number of rings (size 3 to 8) (size 9 to 14) (size 15 to 20)
#    0.000    1.600    1.333    0.800   14.933    2.133 
#    0.000    0.000    0.000    0.000    0.000    0.000 
#    0.000    0.000    0.000    0.000    0.000    0.000 
#
# Total GULP energy -334062.812188 kJ/mol
# GULP energy per Si atom -5567.713536 kJ/mol
# Density = 2.328037 g / cm^3
# Si number density = 23.333476 Si / 1000 Ang^3
#
#
#
# Elastic Constant Matrix: (Units=GPa)
#
#
# Indices 1 2 3 4 5 6 
#
# 1 197.6775 168.1882 116.0110 0.0000 0.0000 0.0000
# 2 168.1882 284.0197 139.1872 0.0000 0.0000 0.0000
# 3 116.0110 139.1872 145.6534 0.0000 0.0000 0.0000
# 4 0.0000 0.0000 0.0000 18.4062 0.0000 0.0000
# 5 0.0000 0.0000 0.0000 0.0000 25.8962 0.0000
# 6 0.0000 0.0000 0.0000 0.0000 0.0000 13.5677
#
#
#
# Elastic Compliance Matrix: (Units=1/GPa)
#
#
# Indices 1 2 3 4 5 6 
#
# 1 0.011974 -0.004546 -0.005193 0.000000 0.000000 0.000000
# 2 -0.004546 0.008348 -0.004357 0.000000 0.000000 0.000000
# 3 -0.005193 -0.004357 0.015165 0.000000 0.000000 0.000000
# 4 0.000000 0.000000 0.000000 0.054329 0.000000 0.000000
# 5 0.000000 0.000000 0.000000 0.000000 0.038616 0.000000
# 6 0.000000 0.000000 0.000000 0.000000 0.000000 0.073705
#
#
# Mechanical properties :
#
#
# Convention : Reuss Voigt Hill
#
# Bulk Modulus (GPa) = 137.06389 163.79148 150.42769
# Shear Modulus (GPa) = 21.48140 25.17165 23.32653
#
# Velocity S-wave (km/s) = 3.03747 3.28804 3.16524
# Velocity P-wave (km/s) = 8.43626 9.20670 8.82988
#
# Compressibility (1/GPa) = 0.00729587
#
# Stress axis : x y z
#
# Youngs Moduli (GPa) = 83.51350 119.79432 65.94065
#
# Poissons Ratio (x) = 0.54454 0.34245
# Poissons Ratio (y) = 0.37962 0.28727
# Poissons Ratio (z) = 0.43372 0.52188
#
# Static dielectric constant tensor:
#      x y z
#    x 1.992300 0.000000 0.000000 
#    y 0.000000 2.029210 0.000000 
#    z 0.000000 0.000000 1.877890 
# 
# From -- ./inp_files/8181.got.cif
#   From: 2010.05.17/outbox.cif.g08.bks.cpg/sg60_5_cif.got.tgz:8181.got - 2010.06.03 14:59:27.
