data_PCOD9457484
_publ_section_title
;
Structure prediction by ZEFSAII (Michael W. Deem and Ramdas Pophale) SiO2 
 PCOD9457484
Probable space group: P B C N
;
_chemical_formula_sum "Si O2"
_cell_formula_units_Z 32
_cell_length_a 8.588206
_cell_length_b 14.267427
_cell_length_c 11.598400
_cell_angle_alpha 90.000000
_cell_angle_beta 90.000000
_cell_angle_gamma 90.000000
_cell_volume 1421.170535
_symmetry_space_group_name_H-M "P B C N"
_symmetry_group_IT_number 60
_symmetry_cell_setting 'orthorhombic'
loop_
_space_group_symop_operation_xyz
x,y,z
1/2-x,1/2-y,1/2+z
1/2+x,1/2-y,-z
-x,y,1/2-z
-x,-y,-z
1/2+x,1/2+y,1/2-z
1/2-x,1/2+y,z
x,-y,1/2+z
loop_
_atom_site_type_symbol
_atom_site_label
_atom_site_fract_x
_atom_site_fract_y
_atom_site_fract_z
Si Si1 0.332933 0.688194 0.384658
Si Si2 0.328938 0.645724 0.783654
Si Si3 0.815706 0.832900 0.959119
Si Si4 0.179568 0.539055 0.229089
O O1 0.291504 0.768501 0.289838
O O2 0.514916 0.675096 0.403054
O O3 0.256824 0.733180 0.500297
O O4 0.250696 0.595656 0.337641
O O5 0.500000 0.680000 0.750000
O O6 0.273922 0.556882 0.712212
O O7 0.336876 0.615700 0.917916
O O8 0.702774 0.892346 0.878941
O O9 0.000000 0.517577 0.250000
#
# Coordination Sequence:
#
# PCOD9457484 Si02
#       4
#     8   8   8   8
#     4  10  23  43  70  99 135 183 230 296 346 418
#     4  10  25  44  68 102 135 182 231 291 349 423
#     4  10  24  45  70 100 140 184 232 293 353 415
#     4  12  25  44  66 100 143 180 241 293 343 428
#
# _framework density 22.516651
#
# number of rings (size 3 to 8) (size 9 to 14) (size 15 to 20)
#    1.500    0.000    0.000    4.500    3.500    7.000 
#    0.000    0.000    0.000    0.000    0.000    0.000 
#    0.000    0.000    0.000    0.000    0.000    0.000 
#
# Total GULP energy -178815.652667 kJ/mol
# GULP energy per Si atom -5587.989146 kJ/mol
# Density = 2.246540 g / cm^3
# Si number density = 22.516651 Si / 1000 Ang^3
#
#
#
# Elastic Constant Matrix: (Units=GPa)
#
#
# Indices 1 2 3 4 5 6 
#
# 1 69.7925 -13.2555 -3.5377 0.0000 0.0000 0.0000
# 2 -13.2555 73.4720 -10.0629 0.0000 0.0000 0.0000
# 3 -3.5377 -10.0629 45.3610 0.0000 0.0000 0.0000
# 4 0.0000 0.0000 0.0000 19.1976 0.0000 0.0000
# 5 0.0000 0.0000 0.0000 0.0000 44.6882 0.0000
# 6 0.0000 0.0000 0.0000 0.0000 0.0000 19.9789
#
#
#
# Elastic Compliance Matrix: (Units=1/GPa)
#
#
# Indices 1 2 3 4 5 6 
#
# 1 0.014981 0.002953 0.001823 0.000000 0.000000 0.000000
# 2 0.002953 0.014619 0.003473 0.000000 0.000000 0.000000
# 3 0.001823 0.003473 0.022958 0.000000 0.000000 0.000000
# 4 0.000000 0.000000 0.000000 0.052090 0.000000 0.000000
# 5 0.000000 0.000000 0.000000 0.000000 0.022377 0.000000
# 6 0.000000 0.000000 0.000000 0.000000 0.000000 0.050053
#
#
# Mechanical properties :
#
#
# Convention : Reuss Voigt Hill
#
# Bulk Modulus (GPa) = 14.48073 14.99038 14.73556
# Shear Modulus (GPa) = 27.23329 31.13839 29.18584
#
# Velocity S-wave (km/s) = 3.48152 3.72278 3.60417
# Velocity P-wave (km/s) = 4.75462 5.01505 4.88657
#
# Compressibility (1/GPa) = 0.06905729
#
# Stress axis : x y z
#
# Youngs Moduli (GPa) = 66.74950 68.40394 43.55758
#
# Poissons Ratio (x) = -0.20197 -0.07942
# Poissons Ratio (y) = -0.19708 -0.15129
# Poissons Ratio (z) = -0.12171 -0.23759
#
# Static dielectric constant tensor:
#      x y z
#    x 1.736720 0.000000 0.000000 
#    y 0.000000 1.790820 0.000000 
#    z 0.000000 0.000000 1.932100 
# 
# From -- ./inp_files/9600.got.cif
#   From: 2010.05.17/outbox.cif.g08.bks.cpg/sg60_5_cif.got.tgz:9600.got - 2010.06.03 14:59:27.
