data_PCOD9457918
_publ_section_title
;
Structure prediction by ZEFSAII (Michael W. Deem and Ramdas Pophale) SiO2 
 PCOD9457918
Probable space group: P B C N
;
_chemical_formula_sum "Si O2"
_cell_formula_units_Z 28
_cell_length_a 5.392126
_cell_length_b 22.688740
_cell_length_c 8.680304
_cell_angle_alpha 90.000000
_cell_angle_beta 90.000000
_cell_angle_gamma 90.000000
_cell_volume 1061.953121
_symmetry_space_group_name_H-M "P B C N"
_symmetry_group_IT_number 60
_symmetry_cell_setting 'orthorhombic'
loop_
_space_group_symop_operation_xyz
x,y,z
1/2-x,1/2-y,1/2+z
1/2+x,1/2-y,-z
-x,y,1/2-z
-x,-y,-z
1/2+x,1/2+y,1/2-z
1/2-x,1/2+y,z
x,-y,1/2+z
loop_
_atom_site_type_symbol
_atom_site_label
_atom_site_fract_x
_atom_site_fract_y
_atom_site_fract_z
Si Si1 0.500000 0.906477 0.750000
Si Si2 0.895331 0.115824 0.423211
Si Si3 0.744184 0.024016 0.660870
Si Si4 0.072769 0.226526 0.573738
O O1 0.383790 0.864477 0.621651
O O2 0.670547 0.954780 0.657086
O O3 0.814890 0.053554 0.498567
O O4 0.043756 0.156584 0.536335
O O5 0.000000 0.119307 0.250000
O O6 0.500000 0.049956 0.750000
O O7 0.000000 0.031262 0.750000
O O8 0.849575 0.253240 0.469064
O O9 0.000000 0.235840 0.750000
#
# Coordination Sequence:
#
# PCOD9457918 Si02
#       4
#     4   8   8   8
#     4  10  26  44  76 106 160 200 262 312 376 456
#     4  12  27  45  79 112 156 203 259 314 393 451
#     4  10  25  47  71 105 153 205 257 314 370 448
#     4  12  29  55  83 116 153 199 257 326 389 466
#
# _framework density 26.366513000000001
#
# number of rings (size 3 to 8) (size 9 to 14) (size 15 to 20)
#    0.857    0.000    0.000    5.143   10.000    4.571 
#    0.000    0.000    0.000    0.000    0.000    0.000 
#    0.000    0.000    0.000    0.000    0.000    0.000 
#
# Total GULP energy -156133.531194 kJ/mol
# GULP energy per Si atom -5576.197543 kJ/mol
# Density = 2.630650 g / cm^3
# Si number density = 26.366513 Si / 1000 Ang^3
#
#
#
# Elastic Constant Matrix: (Units=GPa)
#
#
# Indices 1 2 3 4 5 6 
#
# 1 135.8570 15.9622 25.2594 0.0000 0.0000 0.0000
# 2 15.9622 71.7531 10.6803 0.0000 0.0000 0.0000
# 3 25.2594 10.6803 126.4626 0.0000 0.0000 0.0000
# 4 0.0000 0.0000 0.0000 31.3005 0.0000 0.0000
# 5 0.0000 0.0000 0.0000 0.0000 62.0256 0.0000
# 6 0.0000 0.0000 0.0000 0.0000 0.0000 24.6784
#
#
#
# Elastic Compliance Matrix: (Units=1/GPa)
#
#
# Indices 1 2 3 4 5 6 
#
# 1 0.007806 -0.001524 -0.001430 0.000000 0.000000 0.000000
# 2 -0.001524 0.014411 -0.000913 0.000000 0.000000 0.000000
# 3 -0.001430 -0.000913 0.008270 0.000000 0.000000 0.000000
# 4 0.000000 0.000000 0.000000 0.031948 0.000000 0.000000
# 5 0.000000 0.000000 0.000000 0.000000 0.016122 0.000000
# 6 0.000000 0.000000 0.000000 0.000000 0.000000 0.040521
#
#
# Mechanical properties :
#
#
# Convention : Reuss Voigt Hill
#
# Bulk Modulus (GPa) = 43.94851 48.65293 46.30072
# Shear Modulus (GPa) = 37.20308 42.41229 39.80768
#
# Velocity S-wave (km/s) = 3.76040 4.01504 3.88981
# Velocity P-wave (km/s) = 5.96311 6.32351 6.14595
#
# Compressibility (1/GPa) = 0.02275390
#
# Stress axis : x y z
#
# Youngs Moduli (GPa) = 128.11259 69.38917 120.91497
#
# Poissons Ratio (x) = 0.10572 0.17296
# Poissons Ratio (y) = 0.19518 0.11037
# Poissons Ratio (z) = 0.18325 0.06334
#
# Static dielectric constant tensor:
#      x y z
#    x 2.640330 0.000000 0.000000 
#    y 0.000000 2.112160 0.000000 
#    z 0.000000 0.000000 2.113740 
# 
# From -- ./inp_files/2959.got.cif
#   From: 2010.05.17/outbox.cif.g08.bks.cpg/sg60_2_cif.got.tgz:2959.got - 2010.06.03 14:59:27.
