data_PCOD9457459
_publ_section_title
;
Structure prediction by ZEFSAII (Michael W. Deem and Ramdas Pophale) SiO2 
 PCOD9457459
Probable space group: P B C N
;
_chemical_formula_sum "Si O2"
_cell_formula_units_Z 32
_cell_length_a 4.949512
_cell_length_b 20.722366
_cell_length_c 14.077418
_cell_angle_alpha 90.000000
_cell_angle_beta 90.000000
_cell_angle_gamma 90.000000
_cell_volume 1443.858812
_symmetry_space_group_name_H-M "P B C N"
_symmetry_group_IT_number 60
_symmetry_cell_setting 'orthorhombic'
loop_
_space_group_symop_operation_xyz
x,y,z
1/2-x,1/2-y,1/2+z
1/2+x,1/2-y,-z
-x,y,1/2-z
-x,-y,-z
1/2+x,1/2+y,1/2-z
1/2-x,1/2+y,z
x,-y,1/2+z
loop_
_atom_site_type_symbol
_atom_site_label
_atom_site_fract_x
_atom_site_fract_y
_atom_site_fract_z
Si Si1 0.570780 0.089972 0.450853
Si Si2 0.831034 0.391397 0.154178
Si Si3 0.438859 0.529097 0.355397
Si Si4 0.644450 0.291125 0.014529
O O1 0.487251 0.092698 0.561520
O O2 0.314045 0.069923 0.392140
O O3 0.723187 0.158470 0.439845
O O4 0.807792 0.039768 0.424595
O O5 0.643858 0.454451 0.157134
O O6 0.669645 0.328808 0.115246
O O7 0.000000 0.382996 0.250000
O O8 0.500000 0.553464 0.250000
O O9 0.344343 0.269999 0.988794
#
# Coordination Sequence:
#
# PCOD9457459 Si02
#       4
#     8   8   8   8
#     4  10  24  41  71  94 139 174 222 275 343 378
#     4  10  24  42  72 100 135 176 226 274 339 405
#     4  12  23  42  65 106 138 174 219 278 339 409
#     4  10  23  43  67  92 133 174 232 271 323 391
#
# _framework density 22.162828000000001
#
# number of rings (size 3 to 8) (size 9 to 14) (size 15 to 20)
#    1.500    0.000    0.000    5.250    0.000    6.000 
#    0.000    7.500    0.000    0.000    0.000    0.000 
#    0.000    0.000    0.000    0.000    0.000    0.000 
#
# Total GULP energy -178596.846072 kJ/mol
# GULP energy per Si atom -5581.151440 kJ/mol
# Density = 2.211238 g / cm^3
# Si number density = 22.162828 Si / 1000 Ang^3
#
#
#
# Elastic Constant Matrix: (Units=GPa)
#
#
# Indices 1 2 3 4 5 6 
#
# 1 74.6046 3.4930 19.0898 0.0000 0.0000 0.0000
# 2 3.4930 68.8272 14.4061 0.0000 0.0000 0.0000
# 3 19.0898 14.4061 109.5946 0.0000 0.0000 0.0000
# 4 0.0000 0.0000 0.0000 -157.7175 0.0000 0.0000
# 5 0.0000 0.0000 0.0000 0.0000 22.9366 0.0000
# 6 0.0000 0.0000 0.0000 0.0000 0.0000 39.4678
#
#
#
# Elastic Compliance Matrix: (Units=1/GPa)
#
#
# Indices 1 2 3 4 5 6 
#
# 1 0.014032 -0.000206 -0.002417 0.000000 0.000000 0.000000
# 2 -0.000206 0.014943 -0.001928 0.000000 0.000000 0.000000
# 3 -0.002417 -0.001928 0.009799 0.000000 0.000000 0.000000
# 4 0.000000 0.000000 0.000000 -0.006340 0.000000 0.000000
# 5 0.000000 0.000000 0.000000 0.000000 0.043598 0.000000
# 6 0.000000 0.000000 0.000000 0.000000 0.000000 0.025337
#
#
# Mechanical properties :
#
#
# Convention : Reuss Voigt Hill
#
# Bulk Modulus (GPa) = 33.70287 36.33382 35.01835
# Shear Modulus (GPa) = 41.54095 -4.66012 18.44042
#
# Velocity S-wave (km/s) = 4.33408 -1.45163 2.88764
# Velocity P-wave (km/s) = 6.34709 3.69053 5.19161
#
# Compressibility (1/GPa) = 0.02967106
#
# Stress axis : x y z
#
# Youngs Moduli (GPa) = 71.26501 66.91993 102.05084
#
# Poissons Ratio (x) = 0.01380 0.24667
# Poissons Ratio (y) = 0.01470 0.19679
# Poissons Ratio (z) = 0.17225 0.12905
#
# Static dielectric constant tensor:
#      x y z
#    x 1.808790 0.000000 0.000000 
#    y 0.000000 1.883290 0.000000 
#    z 0.000000 0.000000 1.829260 
# 
# From -- ./inp_files/13686.got.cif
#   From: 2010.05.17/outbox.cif.g08.bks.cpg/sg60_7_cif.got.tgz:13686.got - 2010.06.03 14:59:27.
