data_PCOD9457062
_publ_section_title
;
Structure prediction by ZEFSAII (Michael W. Deem and Ramdas Pophale) SiO2 
 PCOD9457062
Probable space group: P B C N
;
_chemical_formula_sum "Si O2"
_cell_formula_units_Z 60
_cell_length_a 20.782880
_cell_length_b 10.688469
_cell_length_c 12.673416
_cell_angle_alpha 90.000000
_cell_angle_beta 90.000000
_cell_angle_gamma 90.000000
_cell_volume 2815.236747
_symmetry_space_group_name_H-M "P B C N"
_symmetry_group_IT_number 60
_symmetry_cell_setting 'orthorhombic'
loop_
_space_group_symop_operation_xyz
x,y,z
1/2-x,1/2-y,1/2+z
1/2+x,1/2-y,-z
-x,y,1/2-z
-x,-y,-z
1/2+x,1/2+y,1/2-z
1/2-x,1/2+y,z
x,-y,1/2+z
loop_
_atom_site_type_symbol
_atom_site_label
_atom_site_fract_x
_atom_site_fract_y
_atom_site_fract_z
Si Si1 0.289712 0.882582 0.111536
Si Si2 0.524804 0.992092 0.374593
Si Si3 0.186547 0.166574 0.431194
Si Si4 0.500000 0.462359 0.750000
Si Si5 0.641783 0.140297 0.412788
Si Si6 0.911214 0.218838 0.382512
Si Si7 0.786954 0.215788 0.725410
Si Si8 0.398938 0.579146 0.899542
O O1 0.236810 0.866927 0.022582
O O2 0.336372 0.762328 0.125645
O O3 0.251925 0.899009 0.221278
O O4 0.330112 0.001574 0.077219
O O5 0.500000 0.996736 0.250000
O O6 0.552923 0.851271 0.376851
O O7 0.500000 0.000000 0.500000
O O8 0.570326 0.114175 0.375269
O O9 0.147478 0.284439 0.478484
O O10 0.233185 0.207091 0.336999
O O11 0.138689 0.051988 0.414763
O O12 0.555914 0.373445 0.798332
O O13 0.462712 0.548496 0.833582
O O14 0.682524 0.207736 0.321944
O O15 0.917275 0.145756 0.492051
O O16 0.846114 0.167932 0.656183
#
# Coordination Sequence:
#
# PCOD9457062 Si02
#       8
#     8   8   8   4   8   8   8   8
#     4  10  22  42  69  98 138 173 236 300 370 440
#     4  11  27  48  77 104 146 196 255 317 373 443
#     4  11  23  42  71 102 141 181 232 308 378 450
#     4  12  28  46  70 100 150 198 250 296 374 464
#     4  10  25  40  68 102 132 185 239 298 372 443
#     4  11  25  49  70 104 145 194 246 309 381 450
#     4  11  23  42  68 105 139 182 240 304 378 452
#     4  12  27  43  71 104 144 196 242 303 379 459
#
# _framework density 21.312594000000001
#
# number of rings (size 3 to 8) (size 9 to 14) (size 15 to 20)
#    0.000    1.067    2.000    2.800    9.333    3.200 
#    0.000    0.000    0.000    0.000    0.000    0.000 
#    0.000    0.000    0.000    0.000    0.000    0.000 
#
# Total GULP energy -334314.089113 kJ/mol
# GULP energy per Si atom -5571.901485 kJ/mol
# Density = 2.126409 g / cm^3
# Si number density = 21.312594 Si / 1000 Ang^3
#
#
#
# Elastic Constant Matrix: (Units=GPa)
#
#
# Indices 1 2 3 4 5 6 
#
# 1 70.8019 27.4992 47.5126 0.0000 0.0000 0.0000
# 2 27.4992 70.2110 32.1016 0.0000 0.0000 0.0000
# 3 47.5126 32.1016 119.0936 0.0000 0.0000 0.0000
# 4 0.0000 0.0000 0.0000 33.3953 0.0000 0.0000
# 5 0.0000 0.0000 0.0000 0.0000 38.1463 0.0000
# 6 0.0000 0.0000 0.0000 0.0000 0.0000 21.3061
#
#
#
# Elastic Compliance Matrix: (Units=1/GPa)
#
#
# Indices 1 2 3 4 5 6 
#
# 1 0.020687 -0.004937 -0.006922 0.000000 0.000000 0.000000
# 2 -0.004937 0.017423 -0.002727 0.000000 0.000000 0.000000
# 3 -0.006922 -0.002727 0.011893 0.000000 0.000000 0.000000
# 4 0.000000 0.000000 0.000000 0.029944 0.000000 0.000000
# 5 0.000000 0.000000 0.000000 0.000000 0.026215 0.000000
# 6 0.000000 0.000000 0.000000 0.000000 0.000000 0.046935
#
#
# Mechanical properties :
#
#
# Convention : Reuss Voigt Hill
#
# Bulk Modulus (GPa) = 48.00537 52.70370 50.35453
# Shear Modulus (GPa) = 26.42516 28.76907 27.59712
#
# Velocity S-wave (km/s) = 3.52502 3.67803 3.60234
# Velocity P-wave (km/s) = 6.25628 6.54369 6.40159
#
# Compressibility (1/GPa) = 0.02083100
#
# Stress axis : x y z
#
# Youngs Moduli (GPa) = 48.34003 57.39455 84.08073
#
# Poissons Ratio (x) = 0.28338 0.58202
# Poissons Ratio (y) = 0.23867 0.22926
# Poissons Ratio (z) = 0.33462 0.15650
#
# Static dielectric constant tensor:
#      x y z
#    x 1.873010 0.000000 0.000000 
#    y 0.000000 1.748920 0.000000 
#    z 0.000000 0.000000 1.815810 
# 
# From -- ./inp_files/12868.got.cif
#   From: 2010.05.17/outbox.cif.g08.bks.cpg/sg60_7_cif.got.tgz:12868.got - 2010.06.03 14:59:27.
