data_PCOD9457037
_publ_section_title
;
Structure prediction by ZEFSAII (Michael W. Deem and Ramdas Pophale) SiO2 
 PCOD9457037
Probable space group: P B C N
;
_chemical_formula_sum "Si O2"
_cell_formula_units_Z 56
_cell_length_a 9.025592
_cell_length_b 15.142086
_cell_length_c 18.235475
_cell_angle_alpha 90.000000
_cell_angle_beta 90.000000
_cell_angle_gamma 90.000000
_cell_volume 2492.174719
_symmetry_space_group_name_H-M "P B C N"
_symmetry_group_IT_number 60
_symmetry_cell_setting 'orthorhombic'
loop_
_space_group_symop_operation_xyz
x,y,z
1/2-x,1/2-y,1/2+z
1/2+x,1/2-y,-z
-x,y,1/2-z
-x,-y,-z
1/2+x,1/2+y,1/2-z
1/2-x,1/2+y,z
x,-y,1/2+z
loop_
_atom_site_type_symbol
_atom_site_label
_atom_site_fract_x
_atom_site_fract_y
_atom_site_fract_z
Si Si1 0.760357 0.344455 0.278759
Si Si2 0.300585 0.435224 0.370992
Si Si3 0.000000 0.788417 0.750000
Si Si4 0.500000 0.228778 0.250000
Si Si5 0.690650 0.648968 0.470194
Si Si6 0.760418 0.632215 0.154217
Si Si7 0.850691 0.028242 0.887267
Si Si8 0.646949 0.315308 0.501017
O O1 0.749289 0.368086 0.192536
O O2 0.609595 0.291868 0.295353
O O3 0.753134 0.434822 0.323258
O O4 0.895341 0.279339 0.294919
O O5 0.272940 0.395827 0.451229
O O6 0.222389 0.528543 0.358747
O O7 0.476314 0.459223 0.366226
O O8 0.887877 0.846047 0.701596
O O9 0.397170 0.171487 0.301952
O O10 0.684112 0.571198 0.410583
O O11 0.525155 0.686916 0.478237
O O12 0.801821 0.729067 0.457645
O O13 0.739218 0.678423 0.075897
O O14 0.828867 0.094780 0.955591
#
# Coordination Sequence:
#
# PCOD9457037 Si02
#       8
#     8   8   4   4   8   8   8   8
#     4  11  23  43  67  97 138 183 225 291 339 418
#     4  11  21  43  70  93 135 182 228 276 347 404
#     4  10  26  40  64 102 136 172 236 282 352 406
#     4  10  22  42  66  96 132 178 236 270 350 406
#     4  11  23  45  70 102 133 185 230 284 349 419
#     4  11  23  43  68  99 133 183 225 292 341 418
#     4  11  22  42  70 103 130 183 239 272 344 429
#     4  11  24  42  70  95 141 179 228 284 350 408
#
# _framework density 22.470334000000001
#
# number of rings (size 3 to 8) (size 9 to 14) (size 15 to 20)
#    0.000    1.143    4.286    2.571    6.000    0.571 
#    2.571    2.143    0.000    0.000    0.000    0.000 
#    0.000    0.000    0.000    0.000    0.000    0.000 
#
# Total GULP energy -313581.149065 kJ/mol
# GULP energy per Si atom -5599.663376 kJ/mol
# Density = 2.241919 g / cm^3
# Si number density = 22.470334 Si / 1000 Ang^3
#
#
#
# Elastic Constant Matrix: (Units=GPa)
#
#
# Indices 1 2 3 4 5 6 
#
# 1 78.7600 51.4931 24.6960 0.0000 0.0000 0.0000
# 2 51.4931 128.0723 7.6060 0.0000 0.0000 0.0000
# 3 24.6960 7.6060 67.5789 0.0000 0.0000 0.0000
# 4 0.0000 0.0000 0.0000 14.4006 0.0000 0.0000
# 5 0.0000 0.0000 0.0000 0.0000 22.9537 0.0000
# 6 0.0000 0.0000 0.0000 0.0000 0.0000 29.4382
#
#
#
# Elastic Compliance Matrix: (Units=1/GPa)
#
#
# Indices 1 2 3 4 5 6 
#
# 1 0.019576 -0.007496 -0.006310 0.000000 0.000000 0.000000
# 2 -0.007496 0.010731 0.001532 0.000000 0.000000 0.000000
# 3 -0.006310 0.001532 0.016931 0.000000 0.000000 0.000000
# 4 0.000000 0.000000 0.000000 0.069441 0.000000 0.000000
# 5 0.000000 0.000000 0.000000 0.000000 0.043566 0.000000
# 6 0.000000 0.000000 0.000000 0.000000 0.000000 0.033969
#
#
# Mechanical properties :
#
#
# Convention : Reuss Voigt Hill
#
# Bulk Modulus (GPa) = 44.07437 49.11128 46.59282
# Shear Modulus (GPa) = 22.09179 26.06624 24.07902
#
# Velocity S-wave (km/s) = 3.13893 3.40962 3.27707
# Velocity P-wave (km/s) = 5.72662 6.11589 5.92446
#
# Compressibility (1/GPa) = 0.02268892
#
# Stress axis : x y z
#
# Youngs Moduli (GPa) = 51.08171 93.18725 59.06261
#
# Poissons Ratio (x) = 0.69855 0.37270
# Poissons Ratio (y) = 0.38292 -0.09046
# Poissons Ratio (z) = 0.32234 -0.14273
#
# Static dielectric constant tensor:
#      x y z
#    x 1.802420 0.000000 0.000000 
#    y 0.000000 1.816480 0.000000 
#    z 0.000000 0.000000 1.872390 
# 
# From -- ./inp_files/22249.got.cif
#   From: 2010.05.17/outbox.cif.g08.bks.cpg/sg60_12_cif.got.tgz:22249.got - 2010.06.03 14:59:27.
