data_PCOD9457058
_publ_section_title
;
Structure prediction by ZEFSAII (Michael W. Deem and Ramdas Pophale) SiO2 
 PCOD9457058
Probable space group: P B C N
;
_chemical_formula_sum "Si O2"
_cell_formula_units_Z 36
_cell_length_a 8.288216
_cell_length_b 10.323459
_cell_length_c 17.219455
_cell_angle_alpha 90.000000
_cell_angle_beta 90.000000
_cell_angle_gamma 90.000000
_cell_volume 1473.349228
_symmetry_space_group_name_H-M "P B C N"
_symmetry_group_IT_number 60
_symmetry_cell_setting 'orthorhombic'
loop_
_space_group_symop_operation_xyz
x,y,z
1/2-x,1/2-y,1/2+z
1/2+x,1/2-y,-z
-x,y,1/2-z
-x,-y,-z
1/2+x,1/2+y,1/2-z
1/2-x,1/2+y,z
x,-y,1/2+z
loop_
_atom_site_type_symbol
_atom_site_label
_atom_site_fract_x
_atom_site_fract_y
_atom_site_fract_z
Si Si1 0.500000 0.212698 0.250000
Si Si2 0.738490 0.991405 0.792482
Si Si3 0.609611 0.853775 0.417421
Si Si4 0.725107 0.115712 0.503251
Si Si5 0.912423 0.051854 0.648066
O O1 0.582663 0.307759 0.188598
O O2 0.382609 0.125714 0.198986
O O3 0.650162 0.118619 0.827123
O O4 0.776550 0.985165 0.700549
O O5 0.913785 0.988989 0.833586
O O6 0.423712 0.838112 0.441981
O O7 0.711010 0.735618 0.452799
O O8 0.665318 0.990754 0.455613
O O9 0.865867 0.065951 0.559971
#
# Coordination Sequence:
#
# PCOD9457058 Si02
#       5
#     4   8   8   8   8
#     4  10  22  42  70  92 140 172 230 284 338 400
#     4  10  22  42  69  95 130 182 220 282 334 407
#     4  11  26  44  72  99 143 176 231 282 350 412
#     4  11  26  46  69 105 135 184 225 289 346 413
#     4  10  25  44  65 103 133 175 234 281 338 415
#
# _framework density 24.434128000000001
#
# number of rings (size 3 to 8) (size 9 to 14) (size 15 to 20)
#    0.000    1.778    0.000    2.667   15.556    3.556 
#    4.000    8.889    0.000    0.000    0.000    0.000 
#    0.000    0.000    0.000    0.000    0.000    0.000 
#
# Total GULP energy -201429.742814 kJ/mol
# GULP energy per Si atom -5595.270634 kJ/mol
# Density = 2.437852 g / cm^3
# Si number density = 24.434128 Si / 1000 Ang^3
#
#
#
# Elastic Constant Matrix: (Units=GPa)
#
#
# Indices 1 2 3 4 5 6 
#
# 1 82.8958 32.0133 29.1583 0.0000 0.0000 0.0000
# 2 32.0133 64.8393 3.6282 0.0000 0.0000 0.0000
# 3 29.1583 3.6282 64.3513 0.0000 0.0000 0.0000
# 4 0.0000 0.0000 0.0000 -49.6837 0.0000 0.0000
# 5 0.0000 0.0000 0.0000 0.0000 41.2797 0.0000
# 6 0.0000 0.0000 0.0000 0.0000 0.0000 34.3602
#
#
#
# Elastic Compliance Matrix: (Units=1/GPa)
#
#
# Indices 1 2 3 4 5 6 
#
# 1 0.018046 -0.008479 -0.007699 0.000000 0.000000 0.000000
# 2 -0.008479 0.019456 0.002745 0.000000 0.000000 0.000000
# 3 -0.007699 0.002745 0.018873 0.000000 0.000000 0.000000
# 4 0.000000 0.000000 0.000000 -0.020127 0.000000 0.000000
# 5 0.000000 0.000000 0.000000 0.000000 0.024225 0.000000
# 6 0.000000 0.000000 0.000000 0.000000 0.000000 0.029103
#
#
# Mechanical properties :
#
#
# Convention : Reuss Voigt Hill
#
# Bulk Modulus (GPa) = 33.88772 37.96510 35.92641
# Shear Modulus (GPa) = 39.59532 15.01034 27.30283
#
# Velocity S-wave (km/s) = 4.02990 2.48123 3.34639
# Velocity P-wave (km/s) = 5.96260 4.87649 5.44669
#
# Compressibility (1/GPa) = 0.02950922
#
# Stress axis : x y z
#
# Youngs Moduli (GPa) = 55.41452 51.39930 52.98488
#
# Poissons Ratio (x) = 0.43582 0.40791
# Poissons Ratio (y) = 0.46986 -0.14544
# Poissons Ratio (z) = 0.42662 -0.14109
#
# Static dielectric constant tensor:
#      x y z
#    x 1.973530 0.000000 0.000000 
#    y 0.000000 1.896290 0.000000 
#    z 0.000000 0.000000 2.255600 
# 
# From -- ./inp_files/21906.got.cif
#   From: 2010.05.17/outbox.cif.g08.bks.cpg/sg60_11_cif.got.tgz:21906.got - 2010.06.03 14:59:27.
