data_PCOD9457049
_publ_section_title
;
Structure prediction by ZEFSAII (Michael W. Deem and Ramdas Pophale) SiO2 
 PCOD9457049
Probable space group: P B C N
;
_chemical_formula_sum "Si O2"
_cell_formula_units_Z 28
_cell_length_a 7.948528
_cell_length_b 9.362258
_cell_length_c 16.053681
_cell_angle_alpha 90.000000
_cell_angle_beta 90.000000
_cell_angle_gamma 90.000000
_cell_volume 1194.653452
_symmetry_space_group_name_H-M "P B C N"
_symmetry_group_IT_number 60
_symmetry_cell_setting 'orthorhombic'
loop_
_space_group_symop_operation_xyz
x,y,z
1/2-x,1/2-y,1/2+z
1/2+x,1/2-y,-z
-x,y,1/2-z
-x,-y,-z
1/2+x,1/2+y,1/2-z
1/2-x,1/2+y,z
x,-y,1/2+z
loop_
_atom_site_type_symbol
_atom_site_label
_atom_site_fract_x
_atom_site_fract_y
_atom_site_fract_z
Si Si1 0.812547 0.129515 0.599716
Si Si2 0.000000 0.987027 0.750000
Si Si3 0.158258 0.603689 0.504057
Si Si4 0.051303 0.292487 0.164273
O O1 0.894646 0.083384 0.686771
O O2 0.893865 0.255504 0.546757
O O3 0.627541 0.196085 0.617762
O O4 0.798587 0.988685 0.542659
O O5 0.901873 0.867887 0.806488
O O6 0.186081 0.644766 0.600432
O O7 0.000000 0.500000 0.500000
O O8 0.000000 0.372436 0.250000
#
# Coordination Sequence:
#
# PCOD9457049 Si02
#       4
#     8   4   8   8
#     4  11  21  45  67  98 133 178 226 277 343 399
#     4  10  22  42  70  98 136 176 224 288 334 410
#     4  10  22  42  68  94 138 176 225 275 333 412
#     4   9  21  43  61  99 132 167 223 276 335 398
#
# _framework density 23.437760000000001
#
# number of rings (size 3 to 8) (size 9 to 14) (size 15 to 20)
#    0.857    1.143    2.857    0.000    0.000    3.429 
#   20.571    0.000    0.000    0.000    0.000    0.000 
#    0.000    0.000    0.000    0.000    0.000    0.000 
#
# Total GULP energy -156065.223486 kJ/mol
# GULP energy per Si atom -5573.757982 kJ/mol
# Density = 2.338441 g / cm^3
# Si number density = 23.437760 Si / 1000 Ang^3
#
#
#
# Elastic Constant Matrix: (Units=GPa)
#
#
# Indices 1 2 3 4 5 6 
#
# 1 36.8751 28.6881 43.8848 0.0000 0.0000 0.0000
# 2 28.6881 174.3074 103.5091 0.0000 0.0000 0.0000
# 3 43.8848 103.5091 174.7139 0.0000 0.0000 0.0000
# 4 0.0000 0.0000 0.0000 31.0397 0.0000 0.0000
# 5 0.0000 0.0000 0.0000 0.0000 40.1166 0.0000
# 6 0.0000 0.0000 0.0000 0.0000 0.0000 10.1143
#
#
#
# Elastic Compliance Matrix: (Units=1/GPa)
#
#
# Indices 1 2 3 4 5 6 
#
# 1 0.038778 -0.000923 -0.009193 0.000000 0.000000 0.000000
# 2 -0.000923 0.008873 -0.005025 0.000000 0.000000 0.000000
# 3 -0.009193 -0.005025 0.011010 0.000000 0.000000 0.000000
# 4 0.000000 0.000000 0.000000 0.032217 0.000000 0.000000
# 5 0.000000 0.000000 0.000000 0.000000 0.024927 0.000000
# 6 0.000000 0.000000 0.000000 0.000000 0.000000 0.098870
#
#
# Mechanical properties :
#
#
# Convention : Reuss Voigt Hill
#
# Bulk Modulus (GPa) = 35.23862 82.00672 58.62267
# Shear Modulus (GPa) = 19.65287 30.24176 24.94731
#
# Velocity S-wave (km/s) = 2.89885 3.59597 3.26606
# Velocity P-wave (km/s) = 5.12563 7.23232 6.26811
#
# Compressibility (1/GPa) = 0.02837795
#
# Stress axis : x y z
#
# Youngs Moduli (GPa) = 25.78807 112.70393 90.82760
#
# Poissons Ratio (x) = 0.10400 0.83502
# Poissons Ratio (y) = 0.02380 0.45640
# Poissons Ratio (z) = 0.23708 0.56633
#
# Static dielectric constant tensor:
#      x y z
#    x 1.945760 0.000000 0.000000 
#    y 0.000000 1.856880 0.000000 
#    z 0.000000 0.000000 2.421210 
# 
# From -- ./inp_files/10537.got.cif
#   From: 2010.05.17/outbox.cif.g08.bks.cpg/sg60_6_cif.got.tgz:10537.got - 2010.06.03 14:59:27.
