data_PCOD9457766
_publ_section_title
;
Structure prediction by ZEFSAII (Michael W. Deem and Ramdas Pophale) SiO2 
 PCOD9457766
Probable space group: P B C N
;
_chemical_formula_sum "Si O2"
_cell_formula_units_Z 52
_cell_length_a 21.367778
_cell_length_b 10.932630
_cell_length_c 9.149328
_cell_angle_alpha 90.000000
_cell_angle_beta 90.000000
_cell_angle_gamma 90.000000
_cell_volume 2137.338016
_symmetry_space_group_name_H-M "P B C N"
_symmetry_group_IT_number 60
_symmetry_cell_setting 'orthorhombic'
loop_
_space_group_symop_operation_xyz
x,y,z
1/2-x,1/2-y,1/2+z
1/2+x,1/2-y,-z
-x,y,1/2-z
-x,-y,-z
1/2+x,1/2+y,1/2-z
1/2-x,1/2+y,z
x,-y,1/2+z
loop_
_atom_site_type_symbol
_atom_site_label
_atom_site_fract_x
_atom_site_fract_y
_atom_site_fract_z
Si Si1 0.217559 0.190162 0.449150
Si Si2 0.473946 0.145207 0.599788
Si Si3 0.500000 0.908588 0.750000
Si Si4 0.883271 0.244511 0.806258
Si Si5 0.154502 0.952935 0.425853
Si Si6 0.542573 0.612947 0.028287
Si Si7 0.337084 0.252063 0.637100
O O1 0.167718 0.248678 0.564255
O O2 0.284556 0.213398 0.520238
O O3 0.197600 0.245974 0.293148
O O4 0.213630 0.041937 0.432518
O O5 0.500000 0.069192 0.750000
O O6 0.490007 0.102243 0.436447
O O7 0.511777 0.272407 0.605585
O O8 0.400675 0.172242 0.626624
O O9 0.422842 0.863871 0.732852
O O10 0.852335 0.159520 0.683352
O O11 0.937761 0.159601 0.870265
O O12 0.145153 0.889515 0.583410
O O13 0.102151 0.055105 0.394020
O O14 0.500000 0.500000 0.000000
#
# Coordination Sequence:
#
# PCOD9457766 Si02
#       7
#     8   8   4   8   8   8   8
#     4  11  26  45  78 107 154 206 270 327 396 470
#     4  10  24  44  70 110 159 203 250 318 408 472
#     4  10  26  44  72 112 164 206 260 318 408 486
#     4  11  24  46  70 117 153 203 259 319 396 474
#     4  11  24  45  79 114 155 195 265 325 392 471
#     4  11  21  37  72 110 149 194 247 315 389 458
#     4  12  25  51  72 113 152 206 263 323 403 470
#
# _framework density 24.329329999999999
#
# number of rings (size 3 to 8) (size 9 to 14) (size 15 to 20)
#    0.462    0.615    1.538    5.538    2.154    1.846 
#    0.000    3.077    0.000    0.000    0.000    0.000 
#    0.000    0.000    0.000    0.000    0.000    0.000 
#
# Total GULP energy -289748.572871 kJ/mol
# GULP energy per Si atom -5572.087940 kJ/mol
# Density = 2.427396 g / cm^3
# Si number density = 24.329330 Si / 1000 Ang^3
#
#
#
# Elastic Constant Matrix: (Units=GPa)
#
#
# Indices 1 2 3 4 5 6 
#
# 1 142.9286 79.0637 90.9504 0.0000 0.0000 0.0000
# 2 79.0637 137.6530 76.7381 0.0000 0.0000 0.0000
# 3 90.9504 76.7381 213.4633 0.0000 0.0000 0.0000
# 4 0.0000 0.0000 0.0000 26.2841 0.0000 0.0000
# 5 0.0000 0.0000 0.0000 0.0000 23.5084 0.0000
# 6 0.0000 0.0000 0.0000 0.0000 0.0000 35.3999
#
#
#
# Elastic Compliance Matrix: (Units=1/GPa)
#
#
# Indices 1 2 3 4 5 6 
#
# 1 0.011814 -0.004977 -0.003245 0.000000 0.000000 0.000000
# 2 -0.004977 0.011182 -0.001899 0.000000 0.000000 0.000000
# 3 -0.003245 -0.001899 0.006750 0.000000 0.000000 0.000000
# 4 0.000000 0.000000 0.000000 0.038046 0.000000 0.000000
# 5 0.000000 0.000000 0.000000 0.000000 0.042538 0.000000
# 6 0.000000 0.000000 0.000000 0.000000 0.000000 0.028249
#
#
# Mechanical properties :
#
#
# Convention : Reuss Voigt Hill
#
# Bulk Modulus (GPa) = 105.21324 109.72772 107.47048
# Shear Modulus (GPa) = 30.86640 33.52465 32.19552
#
# Velocity S-wave (km/s) = 3.56573 3.71610 3.64169
# Velocity P-wave (km/s) = 7.76479 7.97568 7.87094
#
# Compressibility (1/GPa) = 0.00950451
#
# Stress axis : x y z
#
# Youngs Moduli (GPa) = 84.64385 89.42864 148.15212
#
# Poissons Ratio (x) = 0.44509 0.48068
# Poissons Ratio (y) = 0.42127 0.28139
# Poissons Ratio (z) = 0.27463 0.16985
#
# Static dielectric constant tensor:
#      x y z
#    x 3.412700 0.000000 0.000000 
#    y 0.000000 2.082940 0.000000 
#    z 0.000000 0.000000 2.055800 
# 
# From -- ./inp_files/7370.got.cif
#   From: 2010.05.17/outbox.cif.g08.bks.cpg/sg60_4_cif.got.tgz:7370.got - 2010.06.03 14:59:27.
