data_PCOD9457170
_publ_section_title
;
Structure prediction by ZEFSAII (Michael W. Deem and Ramdas Pophale) SiO2 
 PCOD9457170
Probable space group: P B C N
;
_chemical_formula_sum "Si O2"
_cell_formula_units_Z 40
_cell_length_a 15.842260
_cell_length_b 7.628701
_cell_length_c 14.248689
_cell_angle_alpha 90.000000
_cell_angle_beta 90.000000
_cell_angle_gamma 90.000000
_cell_volume 1722.037630
_symmetry_space_group_name_H-M "P B C N"
_symmetry_group_IT_number 60
_symmetry_cell_setting 'orthorhombic'
loop_
_space_group_symop_operation_xyz
x,y,z
1/2-x,1/2-y,1/2+z
1/2+x,1/2-y,-z
-x,y,1/2-z
-x,-y,-z
1/2+x,1/2+y,1/2-z
1/2-x,1/2+y,z
x,-y,1/2+z
loop_
_atom_site_type_symbol
_atom_site_label
_atom_site_fract_x
_atom_site_fract_y
_atom_site_fract_z
Si Si1 0.055997 0.531189 0.139082
Si Si2 0.177138 0.803645 0.641641
Si Si3 0.716318 0.738215 0.570894
Si Si4 0.886108 0.596770 0.568592
Si Si5 0.150114 0.166684 0.733592
O O1 0.118754 0.367044 0.150439
O O2 0.080105 0.690998 0.206405
O O3 0.962725 0.446493 0.138028
O O4 0.072985 0.610741 0.034467
O O5 0.197970 0.837660 0.532245
O O6 0.264522 0.753651 0.691665
O O7 0.138380 0.978272 0.686157
O O8 0.817105 0.745156 0.588340
O O9 0.675599 0.929872 0.569147
O O10 0.667783 0.647209 0.656406
#
# Coordination Sequence:
#
# PCOD9457170 Si02
#       5
#     8   8   8   8   8
#     4  10  23  44  69 100 139 180 227 293 344 405
#     4  11  22  43  67  99 138 178 230 280 347 420
#     4  11  23  42  69  98 135 180 229 284 350 412
#     4  10  22  44  69  98 137 179 230 287 347 413
#     4  12  22  41  71  99 138 184 229 285 350 409
#
# _framework density 23.228293000000001
#
# number of rings (size 3 to 8) (size 9 to 14) (size 15 to 20)
#    0.000    1.200    4.000    2.400    0.000    0.800 
#    3.600    3.000    4.400    0.000    0.000    0.000 
#    0.000    0.000    0.000    0.000    0.000    0.000 
#
# Total GULP energy -223863.987747 kJ/mol
# GULP energy per Si atom -5596.599694 kJ/mol
# Density = 2.317542 g / cm^3
# Si number density = 23.228293 Si / 1000 Ang^3
#
#
#
# Elastic Constant Matrix: (Units=GPa)
#
#
# Indices 1 2 3 4 5 6 
#
# 1 96.5163 10.9926 -15.7582 0.0000 0.0000 0.0000
# 2 10.9926 96.5901 32.1287 0.0000 0.0000 0.0000
# 3 -15.7582 32.1287 93.7745 0.0000 0.0000 0.0000
# 4 0.0000 0.0000 0.0000 26.0507 0.0000 0.0000
# 5 0.0000 0.0000 0.0000 0.0000 35.5202 0.0000
# 6 0.0000 0.0000 0.0000 0.0000 0.0000 16.2895
#
#
#
# Elastic Compliance Matrix: (Units=1/GPa)
#
#
# Indices 1 2 3 4 5 6 
#
# 1 0.011022 -0.002111 0.002575 0.000000 0.000000 0.000000
# 2 -0.002111 0.012089 -0.004497 0.000000 0.000000 0.000000
# 3 0.002575 -0.004497 0.012637 0.000000 0.000000 0.000000
# 4 0.000000 0.000000 0.000000 0.038387 0.000000 0.000000
# 5 0.000000 0.000000 0.000000 0.000000 0.028153 0.000000
# 6 0.000000 0.000000 0.000000 0.000000 0.000000 0.061389
#
#
# Mechanical properties :
#
#
# Convention : Reuss Voigt Hill
#
# Bulk Modulus (GPa) = 36.12237 37.95634 37.03936
# Shear Modulus (GPa) = 27.62898 32.87327 30.25113
#
# Velocity S-wave (km/s) = 3.45259 3.76603 3.61271
# Velocity P-wave (km/s) = 5.61058 5.94026 5.77777
#
# Compressibility (1/GPa) = 0.02768368
#
# Stress axis : x y z
#
# Youngs Moduli (GPa) = 90.72875 82.71987 79.13095
#
# Poissons Ratio (x) = 0.17462 -0.20380
# Poissons Ratio (y) = 0.19153 0.35582
# Poissons Ratio (z) = -0.23367 0.37196
#
# Static dielectric constant tensor:
#      x y z
#    x 1.867850 0.000000 0.000000 
#    y 0.000000 1.895830 0.000000 
#    z 0.000000 0.000000 1.932870 
# 
# From -- ./inp_files/16620.got.cif
#   From: 2010.05.17/outbox.cif.g08.bks.cpg/sg60_9_cif.got.tgz:16620.got - 2010.06.03 14:59:27.
