data_PCOD9457319
_publ_section_title
;
Structure prediction by ZEFSAII (Michael W. Deem and Ramdas Pophale) SiO2 
 PCOD9457319
Probable space group: P B C N
;
_chemical_formula_sum "Si O2"
_cell_formula_units_Z 48
_cell_length_a 9.227530
_cell_length_b 19.806161
_cell_length_c 14.061515
_cell_angle_alpha 90.000000
_cell_angle_beta 90.000000
_cell_angle_gamma 90.000000
_cell_volume 2569.909828
_symmetry_space_group_name_H-M "P B C N"
_symmetry_group_IT_number 60
_symmetry_cell_setting 'orthorhombic'
loop_
_space_group_symop_operation_xyz
x,y,z
1/2-x,1/2-y,1/2+z
1/2+x,1/2-y,-z
-x,y,1/2-z
-x,-y,-z
1/2+x,1/2+y,1/2-z
1/2-x,1/2+y,z
x,-y,1/2+z
loop_
_atom_site_type_symbol
_atom_site_label
_atom_site_fract_x
_atom_site_fract_y
_atom_site_fract_z
Si Si1 0.623012 0.926961 0.829814
Si Si2 0.719141 0.277698 0.019076
Si Si3 0.846038 0.189421 0.302471
Si Si4 0.165360 0.183399 0.778001
Si Si5 0.132414 0.418809 0.175659
Si Si6 0.477648 0.161170 0.492332
O O1 0.500000 0.927940 0.750000
O O2 0.753805 0.879327 0.795628
O O3 0.548134 0.891962 0.920462
O O4 0.667677 0.003921 0.849616
O O5 0.677055 0.324208 0.108277
O O6 0.658162 0.204009 0.045436
O O7 0.651041 0.295635 0.916300
O O8 0.891580 0.285683 0.009385
O O9 0.758695 0.251813 0.255623
O O10 0.000000 0.185250 0.250000
O O11 0.234151 0.119886 0.723915
O O12 0.000000 0.194709 0.750000
O O13 0.000000 0.418617 0.250000
O O14 0.075665 0.376645 0.085949
#
# Coordination Sequence:
#
# PCOD9457319 Si02
#       6
#     8   8   8   8   8   8
#     4  10  23  40  62  90 126 166 211 255 311 383
#     4  11  22  35  63  93 123 159 210 259 316 379
#     4  11  22  40  64  91 128 165 207 265 323 377
#     4  12  23  39  62  92 125 161 215 269 317 370
#     4  11  22  42  63  87 124 173 205 256 318 380
#     4  11  21  39  62  95 126 163 207 258 319 377
#
# _framework density 18.677697999999999
#
# number of rings (size 3 to 8) (size 9 to 14) (size 15 to 20)
#    0.000    1.000    3.333    5.500    0.000    0.667 
#    0.000    0.000    0.000    3.000    0.000    0.000 
#    0.000    0.000    0.000    0.000    0.000    0.000 
#
# Total GULP energy -268091.556752 kJ/mol
# GULP energy per Si atom -5585.240766 kJ/mol
# Density = 1.863519 g / cm^3
# Si number density = 18.677698 Si / 1000 Ang^3
#
#
#
# Elastic Constant Matrix: (Units=GPa)
#
#
# Indices 1 2 3 4 5 6 
#
# 1 112.1611 69.2855 55.9780 0.0000 0.0000 0.0000
# 2 69.2855 140.6796 32.2410 0.0000 0.0000 0.0000
# 3 55.9780 32.2410 107.6048 0.0000 0.0000 0.0000
# 4 0.0000 0.0000 0.0000 20.0620 0.0000 0.0000
# 5 0.0000 0.0000 0.0000 0.0000 26.8090 0.0000
# 6 0.0000 0.0000 0.0000 0.0000 0.0000 17.5091
#
#
#
# Elastic Compliance Matrix: (Units=1/GPa)
#
#
# Indices 1 2 3 4 5 6 
#
# 1 0.016131 -0.006465 -0.006454 0.000000 0.000000 0.000000
# 2 -0.006465 0.010224 0.000300 0.000000 0.000000 0.000000
# 3 -0.006454 0.000300 0.012561 0.000000 0.000000 0.000000
# 4 0.000000 0.000000 0.000000 0.049845 0.000000 0.000000
# 5 0.000000 0.000000 0.000000 0.000000 0.037301 0.000000
# 6 0.000000 0.000000 0.000000 0.000000 0.000000 0.057113
#
#
# Mechanical properties :
#
#
# Convention : Reuss Voigt Hill
#
# Bulk Modulus (GPa) = 73.11853 75.05050 74.08451
# Shear Modulus (GPa) = 23.47711 26.40543 24.94127
#
# Velocity S-wave (km/s) = 3.54921 3.76405 3.65821
# Velocity P-wave (km/s) = 7.48521 7.69155 7.58908
#
# Compressibility (1/GPa) = 0.01367642
#
# Stress axis : x y z
#
# Youngs Moduli (GPa) = 61.99288 97.81108 79.61115
#
# Poissons Ratio (x) = 0.63238 0.51384
# Poissons Ratio (y) = 0.40080 -0.02389
# Poissons Ratio (z) = 0.40013 -0.02935
#
# Static dielectric constant tensor:
#      x y z
#    x 1.629240 0.000000 0.000000 
#    y 0.000000 1.651330 0.000000 
#    z 0.000000 0.000000 1.675710 
# 
# From -- ./inp_files/15036.got.cif
#   From: 2010.05.17/outbox.cif.g08.bks.cpg/sg60_8_cif.got.tgz:15036.got - 2010.06.03 14:59:27.
