data_PCOD9457987
_publ_section_title
;
Structure prediction by ZEFSAII (Michael W. Deem and Ramdas Pophale) SiO2 
 PCOD9457987
Probable space group: P B C N
;
_chemical_formula_sum "Si O2"
_cell_formula_units_Z 32
_cell_length_a 14.335113
_cell_length_b 9.810041
_cell_length_c 9.159209
_cell_angle_alpha 90.000000
_cell_angle_beta 90.000000
_cell_angle_gamma 90.000000
_cell_volume 1288.041667
_symmetry_space_group_name_H-M "P B C N"
_symmetry_group_IT_number 60
_symmetry_cell_setting 'orthorhombic'
loop_
_space_group_symop_operation_xyz
x,y,z
1/2-x,1/2-y,1/2+z
1/2+x,1/2-y,-z
-x,y,1/2-z
-x,-y,-z
1/2+x,1/2+y,1/2-z
1/2-x,1/2+y,z
x,-y,1/2+z
loop_
_atom_site_type_symbol
_atom_site_label
_atom_site_fract_x
_atom_site_fract_y
_atom_site_fract_z
Si Si1 0.432738 0.006517 0.136445
Si Si2 0.445210 0.614398 0.095665
Si Si3 0.856906 0.719742 0.152008
Si Si4 0.237058 0.991688 0.238069
O O1 0.500000 0.933074 0.250000
O O2 0.328645 0.950477 0.145921
O O3 0.411137 0.157764 0.205916
O O4 0.500000 0.000000 0.000000
O O5 0.500000 0.365439 0.750000
O O6 0.500000 0.500000 0.000000
O O7 0.422484 0.739465 0.984638
O O8 0.343699 0.560007 0.143904
O O9 0.777872 0.601459 0.146058
O O10 0.805525 0.858776 0.190262
#
# Coordination Sequence:
#
# PCOD9457987 Si02
#       4
#     8   8   8   8
#     4  10  26  51  83 120 174 233 300 371 457 540
#     4  12  26  50  89 132 176 241 315 385 467 560
#     4  10  26  52  81 128 178 236 302 378 459 555
#     4  10  26  48  85 122 185 230 303 374 469 539
#
# _framework density 24.843916
#
# number of rings (size 3 to 8) (size 9 to 14) (size 15 to 20)
#    1.500    0.000    2.500    0.000    7.000    4.000 
#    4.500    2.500    0.000    0.000    0.000    0.000 
#    0.000    0.000    0.000    0.000    0.000    0.000 
#
# Total GULP energy -178361.211947 kJ/mol
# GULP energy per Si atom -5573.787873 kJ/mol
# Density = 2.478737 g / cm^3
# Si number density = 24.843916 Si / 1000 Ang^3
#
#
#
# Elastic Constant Matrix: (Units=GPa)
#
#
# Indices 1 2 3 4 5 6 
#
# 1 204.2269 47.1499 95.0949 0.0000 0.0000 0.0000
# 2 47.1499 165.0286 70.3034 0.0000 0.0000 0.0000
# 3 95.0949 70.3034 216.1251 0.0000 0.0000 0.0000
# 4 0.0000 0.0000 0.0000 -481.3828 0.0000 0.0000
# 5 0.0000 0.0000 0.0000 0.0000 37.3232 0.0000
# 6 0.0000 0.0000 0.0000 0.0000 0.0000 495.3811
#
#
#
# Elastic Compliance Matrix: (Units=1/GPa)
#
#
# Indices 1 2 3 4 5 6 
#
# 1 0.006229 -0.000711 -0.002510 0.000000 0.000000 0.000000
# 2 -0.000711 0.007115 -0.002002 0.000000 0.000000 0.000000
# 3 -0.002510 -0.002002 0.006382 0.000000 0.000000 0.000000
# 4 0.000000 0.000000 0.000000 -0.002077 0.000000 0.000000
# 5 0.000000 0.000000 0.000000 0.000000 0.026793 0.000000
# 6 0.000000 0.000000 0.000000 0.000000 0.000000 0.002019
#
#
# Mechanical properties :
#
#
# Convention : Reuss Voigt Hill
#
# Bulk Modulus (GPa) = 107.72815 112.27522 110.00169
# Shear Modulus (GPa) = 83.33358 35.11978 59.22668
#
# Velocity S-wave (km/s) = 5.79790 3.76389 4.88787
# Velocity P-wave (km/s) = 9.39558 8.01121 8.73088
#
# Compressibility (1/GPa) = 0.00928262
#
# Stress axis : x y z
#
# Youngs Moduli (GPa) = 160.53543 140.54012 156.68057
#
# Poissons Ratio (x) = 0.09986 0.39322
# Poissons Ratio (y) = 0.11407 0.31366
# Poissons Ratio (z) = 0.40289 0.28135
#
# Static dielectric constant tensor:
#      x y z
#    x 1.740470 0.000000 0.000000 
#    y 0.000000 2.040160 0.000000 
#    z 0.000000 0.000000 2.048870 
# 
# From -- ./inp_files/5460.got.cif
#   From: 2010.05.17/outbox.cif.g08.bks.cpg/sg60_3_cif.got.tgz:5460.got - 2010.06.03 14:59:27.
