data_PCOD9457726
_publ_section_title
;
Structure prediction by ZEFSAII (Michael W. Deem and Ramdas Pophale) SiO2 
 PCOD9457726
Probable space group: P B C N
;
_chemical_formula_sum "Si O2"
_cell_formula_units_Z 48
_cell_length_a 8.543855
_cell_length_b 20.839816
_cell_length_c 13.029452
_cell_angle_alpha 90.000000
_cell_angle_beta 90.000000
_cell_angle_gamma 90.000000
_cell_volume 2319.924758
_symmetry_space_group_name_H-M "P B C N"
_symmetry_group_IT_number 60
_symmetry_cell_setting 'orthorhombic'
loop_
_space_group_symop_operation_xyz
x,y,z
1/2-x,1/2-y,1/2+z
1/2+x,1/2-y,-z
-x,y,1/2-z
-x,-y,-z
1/2+x,1/2+y,1/2-z
1/2-x,1/2+y,z
x,-y,1/2+z
loop_
_atom_site_type_symbol
_atom_site_label
_atom_site_fract_x
_atom_site_fract_y
_atom_site_fract_z
Si Si1 0.809369 0.028950 0.262900
Si Si2 0.665925 0.367972 0.039655
Si Si3 0.333431 0.670198 0.190361
Si Si4 0.183071 0.093101 0.595634
Si Si5 0.327767 0.996461 0.952949
Si Si6 0.187472 0.306312 0.257394
O O1 0.757897 0.101294 0.286505
O O2 0.000000 0.030629 0.250000
O O3 0.792939 0.974699 0.348013
O O4 0.706302 0.004304 0.168183
O O5 0.495087 0.386970 0.080489
O O6 0.745534 0.436482 0.015832
O O7 0.755282 0.331687 0.131892
O O8 0.650769 0.328427 0.933566
O O9 0.500000 0.668608 0.250000
O O10 0.253018 0.734474 0.232384
O O11 0.258455 0.146424 0.667024
O O12 0.255330 0.072436 0.487229
O O13 0.500000 0.000000 0.000000
O O14 0.000000 0.305387 0.250000
#
# Coordination Sequence:
#
# PCOD9457726 Si02
#       6
#     8   8   8   8   8   8
#     4  11  20  40  69  98 134 177 238 286 343 426
#     4  12  23  45  72 100 135 189 235 284 358 426
#     4  10  24  43  69 101 139 175 231 292 345 421
#     4  12  22  41  73  99 132 185 244 285 343 438
#     4  12  25  39  65 106 141 178 224 300 367 407
#     4  11  25  44  66  99 142 181 226 290 354 420
#
# _framework density 20.690325000000001
#
# number of rings (size 3 to 8) (size 9 to 14) (size 15 to 20)
#    0.000    0.667    5.000    4.000    0.000    4.000 
#    0.000    3.333    0.000    0.000    0.000    0.000 
#    0.000    0.000    0.000    0.000    0.000    0.000 
#
# Total GULP energy -267778.923020 kJ/mol
# GULP energy per Si atom -5578.727563 kJ/mol
# Density = 2.064323 g / cm^3
# Si number density = 20.690325 Si / 1000 Ang^3
#
#
#
# Elastic Constant Matrix: (Units=GPa)
#
#
# Indices 1 2 3 4 5 6 
#
# 1 90.6070 12.6434 24.6725 0.0000 0.0000 0.0000
# 2 12.6434 120.4302 25.7086 0.0000 0.0000 0.0000
# 3 24.6725 25.7086 113.7921 0.0000 0.0000 0.0000
# 4 0.0000 0.0000 0.0000 136.1082 0.0000 0.0000
# 5 0.0000 0.0000 0.0000 0.0000 31.1842 0.0000
# 6 0.0000 0.0000 0.0000 0.0000 0.0000 19.6049
#
#
#
# Elastic Compliance Matrix: (Units=1/GPa)
#
#
# Indices 1 2 3 4 5 6 
#
# 1 0.011789 -0.000727 -0.002392 0.000000 0.000000 0.000000
# 2 -0.000727 0.008769 -0.001824 0.000000 0.000000 0.000000
# 3 -0.002392 -0.001824 0.009719 0.000000 0.000000 0.000000
# 4 0.000000 0.000000 0.000000 0.007347 0.000000 0.000000
# 5 0.000000 0.000000 0.000000 0.000000 0.032067 0.000000
# 6 0.000000 0.000000 0.000000 0.000000 0.000000 0.051008
#
#
# Mechanical properties :
#
#
# Convention : Reuss Voigt Hill
#
# Bulk Modulus (GPa) = 49.03870 50.09759 49.56814
# Shear Modulus (GPa) = 36.39487 54.83312 45.61400
#
# Velocity S-wave (km/s) = 4.19863 5.15358 4.70042
# Velocity P-wave (km/s) = 6.87440 7.72516 7.31216
#
# Compressibility (1/GPa) = 0.02039206
#
# Stress axis : x y z
#
# Youngs Moduli (GPa) = 84.82150 114.03585 102.89584
#
# Poissons Ratio (x) = 0.08292 0.24612
# Poissons Ratio (y) = 0.06167 0.18763
# Poissons Ratio (z) = 0.20289 0.20795
#
# Static dielectric constant tensor:
#      x y z
#    x 1.574490 0.000000 0.000000 
#    y 0.000000 1.744170 0.000000 
#    z 0.000000 0.000000 1.717180 
# 
# From -- ./inp_files/10087.got.cif
#   From: 2010.05.17/outbox.cif.g08.bks.cpg/sg60_6_cif.got.tgz:10087.got - 2010.06.03 14:59:27.
