data_PCOD9457869
_publ_section_title
;
Structure prediction by ZEFSAII (Michael W. Deem and Ramdas Pophale) SiO2 
 PCOD9457869
Probable space group: P B C N
;
_chemical_formula_sum "Si O2"
_cell_formula_units_Z 44
_cell_length_a 6.503560
_cell_length_b 10.889435
_cell_length_c 24.399798
_cell_angle_alpha 90.000000
_cell_angle_beta 90.000000
_cell_angle_gamma 90.000000
_cell_volume 1727.995985
_symmetry_space_group_name_H-M "P B C N"
_symmetry_group_IT_number 60
_symmetry_cell_setting 'orthorhombic'
loop_
_space_group_symop_operation_xyz
x,y,z
1/2-x,1/2-y,1/2+z
1/2+x,1/2-y,-z
-x,y,1/2-z
-x,-y,-z
1/2+x,1/2+y,1/2-z
1/2-x,1/2+y,z
x,-y,1/2+z
loop_
_atom_site_type_symbol
_atom_site_label
_atom_site_fract_x
_atom_site_fract_y
_atom_site_fract_z
Si Si1 0.393935 0.864717 0.863337
Si Si2 0.000000 0.731363 0.750000
Si Si3 0.992281 0.218922 0.063916
Si Si4 0.360160 0.098496 0.029233
Si Si5 0.788857 0.841961 0.344894
Si Si6 0.915683 0.023270 0.193034
O O1 0.527521 0.758356 0.834513
O O2 0.197600 0.816113 0.897676
O O3 0.312709 0.985499 0.830706
O O4 0.548298 0.903378 0.910451
O O5 0.850532 0.660122 0.790299
O O6 0.898742 0.831464 0.708653
O O7 0.153371 0.298653 0.102253
O O8 0.903641 0.285818 0.010408
O O9 0.117739 0.103565 0.039576
O O10 0.500000 0.000000 0.000000
O O11 0.914752 0.970043 0.348259
O O12 0.000000 0.970296 0.250000
#
# Coordination Sequence:
#
# PCOD9457869 Si02
#       6
#     8   4   8   8   8   8
#     4  11  25  47  68 104 149 182 247 302 356 448
#     4  10  24  50  66 104 142 180 244 300 348 442
#     4  11  23  46  64 104 143 185 240 303 359 434
#     4  11  26  41  72  99 139 193 237 304 366 429
#     4  11  26  47  73 102 145 187 238 303 365 427
#     4  10  25  44  69 104 134 193 234 293 366 435
#
# _framework density 25.463024999999998
#
# number of rings (size 3 to 8) (size 9 to 14) (size 15 to 20)
#    0.545    0.727    3.636    0.000    7.636    0.727 
#    3.273    0.000    0.000    0.000    0.000    0.000 
#    0.000    0.000    0.000    0.000    0.000    0.000 
#
# Total GULP energy -245171.105246 kJ/mol
# GULP energy per Si atom -5572.070574 kJ/mol
# Density = 2.540507 g / cm^3
# Si number density = 25.463025 Si / 1000 Ang^3
#
#
#
# Elastic Constant Matrix: (Units=GPa)
#
#
# Indices 1 2 3 4 5 6 
#
# 1 139.4909 48.5345 47.6884 0.0000 0.0000 0.0000
# 2 48.5345 41.1439 37.7686 0.0000 0.0000 0.0000
# 3 47.6884 37.7686 97.0454 0.0000 0.0000 0.0000
# 4 0.0000 0.0000 0.0000 19.2466 0.0000 0.0000
# 5 0.0000 0.0000 0.0000 0.0000 50.8431 0.0000
# 6 0.0000 0.0000 0.0000 0.0000 0.0000 20.0532
#
#
#
# Elastic Compliance Matrix: (Units=1/GPa)
#
#
# Indices 1 2 3 4 5 6 
#
# 1 0.012183 -0.013809 -0.000612 0.000000 0.000000 0.000000
# 2 -0.013809 0.053467 -0.014023 0.000000 0.000000 0.000000
# 3 -0.000612 -0.014023 0.016063 0.000000 0.000000 0.000000
# 4 0.000000 0.000000 0.000000 0.051957 0.000000 0.000000
# 5 0.000000 0.000000 0.000000 0.000000 0.019668 0.000000
# 6 0.000000 0.000000 0.000000 0.000000 0.000000 0.049867
#
#
# Mechanical properties :
#
#
# Convention : Reuss Voigt Hill
#
# Bulk Modulus (GPa) = 40.28329 60.62923 50.45626
# Shear Modulus (GPa) = 18.63104 27.60783 23.11943
#
# Velocity S-wave (km/s) = 2.70791 3.29634 3.01651
# Velocity P-wave (km/s) = 5.06278 6.19275 5.65605
#
# Compressibility (1/GPa) = 0.02482419
#
# Stress axis : x y z
#
# Youngs Moduli (GPa) = 82.08071 18.70311 62.25571
#
# Poissons Ratio (x) = 0.25828 0.03813
# Poissons Ratio (y) = 1.13348 0.87299
# Poissons Ratio (z) = 0.05027 0.26227
#
# Static dielectric constant tensor:
#      x y z
#    x 1.501870 0.000000 0.000000 
#    y 0.000000 2.337460 0.000000 
#    z 0.000000 0.000000 0.655860 
# 
# From -- ./inp_files/24822.got.cif
#   From: 2010.05.17/outbox.cif.g08.bks.cpg/sg60_13_cif.got.tgz:24822.got - 2010.06.03 14:59:27.
