data_PCOD9457333
_publ_section_title
;
Structure prediction by ZEFSAII (Michael W. Deem and Ramdas Pophale) SiO2 
 PCOD9457333
Probable space group: P B C N
;
_chemical_formula_sum "Si O2"
_cell_formula_units_Z 56
_cell_length_a 15.277765
_cell_length_b 13.963666
_cell_length_c 11.451695
_cell_angle_alpha 90.000000
_cell_angle_beta 90.000000
_cell_angle_gamma 90.000000
_cell_volume 2443.031408
_symmetry_space_group_name_H-M "P B C N"
_symmetry_group_IT_number 60
_symmetry_cell_setting 'orthorhombic'
loop_
_space_group_symop_operation_xyz
x,y,z
1/2-x,1/2-y,1/2+z
1/2+x,1/2-y,-z
-x,y,1/2-z
-x,-y,-z
1/2+x,1/2+y,1/2-z
1/2-x,1/2+y,z
x,-y,1/2+z
loop_
_atom_site_type_symbol
_atom_site_label
_atom_site_fract_x
_atom_site_fract_y
_atom_site_fract_z
Si Si1 0.457672 0.736715 0.991164
Si Si2 0.500000 0.727373 0.250000
Si Si3 0.315021 0.673280 0.319528
Si Si4 0.236389 0.126522 0.754430
Si Si5 0.616225 0.606535 0.942988
Si Si6 0.686855 0.407879 0.002021
Si Si7 0.000000 0.351544 0.750000
Si Si8 0.176730 0.554813 0.171124
O O1 0.519746 0.644083 0.967998
O O2 0.468418 0.795796 0.869683
O O3 0.488042 0.776790 0.120028
O O4 0.360480 0.694327 0.008245
O O5 0.412202 0.665230 0.265663
O O6 0.286596 0.782440 0.301970
O O7 0.323649 0.645160 0.452935
O O8 0.243119 0.610583 0.255947
O O9 0.155649 0.154043 0.672364
O O10 0.302451 0.057047 0.686574
O O11 0.193000 0.070992 0.861742
O O12 0.632625 0.492807 0.939526
O O13 0.785512 0.411988 0.953433
O O14 0.919679 0.414880 0.796431
#
# Coordination Sequence:
#
# PCOD9457333 Si02
#       8
#     8   4   8   8   8   8   4   8
#     4  11  22  42  69 109 140 186 232 296 368 436
#     4  10  24  39  67 106 140 188 236 285 369 422
#     4  11  22  43  68  95 142 182 233 288 344 427
#     4  11  25  41  70  98 138 193 236 286 357 413
#     4  10  23  40  67 105 140 178 232 287 358 431
#     4  11  22  42  68 104 138 183 227 296 366 424
#     4  12  28  47  73 102 146 190 250 295 351 424
#     4  11  25  47  66 101 140 189 238 294 344 423
#
# _framework density 22.922340999999999
#
# number of rings (size 3 to 8) (size 9 to 14) (size 15 to 20)
#    0.000    1.143    2.857    3.000    6.000    1.714 
#    0.000    2.143    0.000    0.000    0.000    0.000 
#    0.000    0.000    0.000    0.000    0.000    0.000 
#
# Total GULP energy -312759.052460 kJ/mol
# GULP energy per Si atom -5584.983080 kJ/mol
# Density = 2.287017 g / cm^3
# Si number density = 22.922341 Si / 1000 Ang^3
#
#
#
# Elastic Constant Matrix: (Units=GPa)
#
#
# Indices 1 2 3 4 5 6 
#
# 1 75.3329 8.8049 -1.0629 0.0000 0.0000 0.0000
# 2 8.8049 64.6098 0.4334 0.0000 0.0000 0.0000
# 3 -1.0629 0.4334 133.4646 0.0000 0.0000 0.0000
# 4 0.0000 0.0000 0.0000 26.7534 0.0000 0.0000
# 5 0.0000 0.0000 0.0000 0.0000 31.0085 0.0000
# 6 0.0000 0.0000 0.0000 0.0000 0.0000 -1.8250
#
#
#
# Elastic Compliance Matrix: (Units=1/GPa)
#
#
# Indices 1 2 3 4 5 6 
#
# 1 0.013491 -0.001839 0.000113 0.000000 0.000000 0.000000
# 2 -0.001839 0.015729 -0.000066 0.000000 0.000000 0.000000
# 3 0.000113 -0.000066 0.007494 0.000000 0.000000 0.000000
# 4 0.000000 0.000000 0.000000 0.037378 0.000000 0.000000
# 5 0.000000 0.000000 0.000000 0.000000 0.032249 0.000000
# 6 0.000000 0.000000 0.000000 0.000000 0.000000 -0.547960
#
#
# Mechanical properties :
#
#
# Convention : Reuss Voigt Hill
#
# Bulk Modulus (GPa) = 30.18399 32.19536 31.18967
# Shear Modulus (GPa) = -11.70982 28.86951 8.57985
#
# Velocity S-wave (km/s) = -2.26265 3.55272 1.93678
# Velocity P-wave (km/s) = 2.52397 5.55923 4.31714
#
# Compressibility (1/GPa) = 0.03313015
#
# Stress axis : x y z
#
# Youngs Moduli (GPa) = 74.12356 63.57840 133.44475
#
# Poissons Ratio (x) = 0.11694 -0.01513
# Poissons Ratio (y) = 0.13633 0.00877
# Poissons Ratio (z) = -0.00841 0.00418
#
# Static dielectric constant tensor:
#      x y z
#    x 1.839510 0.000000 0.000000 
#    y 0.000000 1.859530 0.000000 
#    z 0.000000 0.000000 1.946720 
# 
# From -- ./inp_files/12003.got.cif
#   From: 2010.05.17/outbox.cif.g08.bks.cpg/sg60_7_cif.got.tgz:12003.got - 2010.06.03 14:59:27.
