data_PCOD9457722
_publ_section_title
;
Structure prediction by ZEFSAII (Michael W. Deem and Ramdas Pophale) SiO2 
 PCOD9457722
Probable space group: P B C N
;
_chemical_formula_sum "Si O2"
_cell_formula_units_Z 64
_cell_length_a 15.105966
_cell_length_b 7.919935
_cell_length_c 22.736764
_cell_angle_alpha 90.000000
_cell_angle_beta 90.000000
_cell_angle_gamma 90.000000
_cell_volume 2720.187084
_symmetry_space_group_name_H-M "P B C N"
_symmetry_group_IT_number 60
_symmetry_cell_setting 'orthorhombic'
loop_
_space_group_symop_operation_xyz
x,y,z
1/2-x,1/2-y,1/2+z
1/2+x,1/2-y,-z
-x,y,1/2-z
-x,-y,-z
1/2+x,1/2+y,1/2-z
1/2-x,1/2+y,z
x,-y,1/2+z
loop_
_atom_site_type_symbol
_atom_site_label
_atom_site_fract_x
_atom_site_fract_y
_atom_site_fract_z
Si Si1 0.562923 0.795971 0.952274
Si Si2 0.181981 0.794257 0.949012
Si Si3 0.564789 0.333154 0.657850
Si Si4 0.137600 0.432164 0.757618
Si Si5 0.331831 0.670233 0.235454
Si Si6 0.506514 0.969290 0.841164
Si Si7 0.108082 0.967171 0.611799
Si Si8 0.367455 0.328381 0.488921
O O1 0.538419 0.942841 0.907054
O O2 0.615966 0.655543 0.913838
O O3 0.625767 0.829744 0.007951
O O4 0.467258 0.727976 0.973839
O O5 0.146302 0.773496 0.882934
O O6 0.285951 0.774579 0.960920
O O7 0.149956 0.981264 0.966644
O O8 0.602326 0.412988 0.717018
O O9 0.497055 0.450692 0.623492
O O10 0.505152 0.168228 0.670692
O O11 0.149730 0.631323 0.743876
O O12 0.231687 0.350505 0.754733
O O13 0.088632 0.401542 0.819551
O O14 0.074339 0.381522 0.703650
O O15 0.344925 0.585989 0.171970
O O16 0.137691 0.841801 0.559688
#
# Coordination Sequence:
#
# PCOD9457722 Si02
#       8
#     8   8   8   8   8   8   8   8
#     4  11  24  45  67  96 133 174 220 271 333 393
#     4  11  25  43  67 100 132 173 223 275 330 397
#     4  11  22  45  67  91 131 175 215 264 330 398
#     4  10  24  44  60  96 132 166 213 276 322 385
#     4  11  25  39  70  94 127 170 221 265 328 382
#     4  10  24  43  65  91 136 169 214 268 329 387
#     4  11  22  45  67  91 131 175 215 266 327 397
#     4  11  25  43  66  96 135 170 219 277 333 390
#
# _framework density 23.527792999999999
#
# number of rings (size 3 to 8) (size 9 to 14) (size 15 to 20)
#    0.000    1.250    3.750    1.125    7.000    4.500 
#    2.250    0.000    0.000    0.000    0.000    0.000 
#    0.000    0.000    0.000    0.000    0.000    0.000 
#
# Total GULP energy -357729.036778 kJ/mol
# GULP energy per Si atom -5589.516200 kJ/mol
# Density = 2.347424 g / cm^3
# Si number density = 23.527793 Si / 1000 Ang^3
#
#
#
# Elastic Constant Matrix: (Units=GPa)
#
#
# Indices 1 2 3 4 5 6 
#
# 1 85.0832 5.1644 0.2988 0.0000 0.0000 0.0000
# 2 5.1644 16.9081 4.1214 0.0000 0.0000 0.0000
# 3 0.2988 4.1214 70.8778 0.0000 0.0000 0.0000
# 4 0.0000 0.0000 0.0000 25.3086 0.0000 0.0000
# 5 0.0000 0.0000 0.0000 0.0000 39.6528 0.0000
# 6 0.0000 0.0000 0.0000 0.0000 0.0000 28.9912
#
#
#
# Elastic Compliance Matrix: (Units=1/GPa)
#
#
# Indices 1 2 3 4 5 6 
#
# 1 0.011977 -0.003698 0.000165 0.000000 0.000000 0.000000
# 2 -0.003698 0.061136 -0.003539 0.000000 0.000000 0.000000
# 3 0.000165 -0.003539 0.014314 0.000000 0.000000 0.000000
# 4 0.000000 0.000000 0.000000 0.039512 0.000000 0.000000
# 5 0.000000 0.000000 0.000000 0.000000 0.025219 0.000000
# 6 0.000000 0.000000 0.000000 0.000000 0.000000 0.034493
#
#
# Mechanical properties :
#
#
# Convention : Reuss Voigt Hill
#
# Bulk Modulus (GPa) = 13.64622 21.33760 17.49191
# Shear Modulus (GPa) = 22.20010 29.67616 25.93813
#
# Velocity S-wave (km/s) = 3.07509 3.55536 3.32391
# Velocity P-wave (km/s) = 4.29195 5.09342 4.70977
#
# Compressibility (1/GPa) = 0.07328035
#
# Stress axis : x y z
#
# Youngs Moduli (GPa) = 83.49263 16.35705 69.86215
#
# Poissons Ratio (x) = 0.06049 -0.01150
# Poissons Ratio (y) = 0.30879 0.24727
# Poissons Ratio (z) = -0.01374 0.05789
#
# Static dielectric constant tensor:
#      x y z
#    x 1.863780 0.000000 0.000000 
#    y 0.000000 1.958170 0.000000 
#    z 0.000000 0.000000 1.944660 
# 
# From -- ./inp_files/24454.got.cif
#   From: 2010.05.17/outbox.cif.g08.bks.cpg/sg60_13_cif.got.tgz:24454.got - 2010.06.03 14:59:27.
