data_PCOD9457206
_publ_section_title
;
Structure prediction by ZEFSAII (Michael W. Deem and Ramdas Pophale) SiO2 
 PCOD9457206
Probable space group: P B C N
;
_chemical_formula_sum "Si O2"
_cell_formula_units_Z 32
_cell_length_a 4.879136
_cell_length_b 12.874398
_cell_length_c 22.943526
_cell_angle_alpha 90.000000
_cell_angle_beta 90.000000
_cell_angle_gamma 90.000000
_cell_volume 1441.219124
_symmetry_space_group_name_H-M "P B C N"
_symmetry_group_IT_number 60
_symmetry_cell_setting 'orthorhombic'
loop_
_space_group_symop_operation_xyz
x,y,z
1/2-x,1/2-y,1/2+z
1/2+x,1/2-y,-z
-x,y,1/2-z
-x,-y,-z
1/2+x,1/2+y,1/2-z
1/2-x,1/2+y,z
x,-y,1/2+z
loop_
_atom_site_type_symbol
_atom_site_label
_atom_site_fract_x
_atom_site_fract_y
_atom_site_fract_z
Si Si1 0.000000 0.876167 0.250000
Si Si2 0.612690 0.112819 0.013466
Si Si3 0.500000 0.020534 0.250000
Si Si4 0.694097 0.698964 0.193024
Si Si5 0.886094 0.800278 0.927150
O O1 0.250216 0.948237 0.229840
O O2 0.115100 0.800276 0.300149
O O3 0.923237 0.121386 0.035347
O O4 0.424652 0.164126 0.064014
O O5 0.580809 0.188382 0.957829
O O6 0.500000 0.000000 0.000000
O O7 0.379638 0.096447 0.299514
O O8 0.500000 0.699951 0.250000
O O9 0.503117 0.700133 0.137271
#
# Coordination Sequence:
#
# PCOD9457206 Si02
#       5
#     4   8   4   8   8
#     4  11  24  43  66  94 142 179 228 269 336 422
#     4  10  22  45  68  98 127 173 228 278 333 389
#     4  11  24  43  62  96 138 181 224 275 336 416
#     4  11  25  44  68 100 142 181 224 282 346 416
#     4  10  24  42  68  96 134 170 222 279 333 401
#
# _framework density 22.203422
#
# number of rings (size 3 to 8) (size 9 to 14) (size 15 to 20)
#    0.000    1.500    2.500    0.750    7.000    2.000 
#    4.500    0.000    0.000    0.000    0.000    0.000 
#    0.000    0.000    0.000    0.000    0.000    0.000 
#
# Total GULP energy -179104.686350 kJ/mol
# GULP energy per Si atom -5597.021448 kJ/mol
# Density = 2.215289 g / cm^3
# Si number density = 22.203422 Si / 1000 Ang^3
#
#
#
# Elastic Constant Matrix: (Units=GPa)
#
#
# Indices 1 2 3 4 5 6 
#
# 1 102.4735 30.2872 -0.1436 0.0000 0.0000 0.0000
# 2 30.2872 114.1066 15.4034 0.0000 0.0000 0.0000
# 3 -0.1436 15.4034 97.3518 0.0000 0.0000 0.0000
# 4 0.0000 0.0000 0.0000 2.6131 0.0000 0.0000
# 5 0.0000 0.0000 0.0000 0.0000 28.9136 0.0000
# 6 0.0000 0.0000 0.0000 0.0000 0.0000 47.6015
#
#
#
# Elastic Compliance Matrix: (Units=1/GPa)
#
#
# Indices 1 2 3 4 5 6 
#
# 1 0.010610 -0.002880 0.000471 0.000000 0.000000 0.000000
# 2 -0.002880 0.009737 -0.001545 0.000000 0.000000 0.000000
# 3 0.000471 -0.001545 0.010517 0.000000 0.000000 0.000000
# 4 0.000000 0.000000 0.000000 0.382690 0.000000 0.000000
# 5 0.000000 0.000000 0.000000 0.000000 0.034586 0.000000
# 6 0.000000 0.000000 0.000000 0.000000 0.000000 0.021008
#
#
# Mechanical properties :
#
#
# Convention : Reuss Voigt Hill
#
# Bulk Modulus (GPa) = 43.55889 45.00288 44.28088
# Shear Modulus (GPa) = 10.31551 33.71797 22.01674
#
# Velocity S-wave (km/s) = 2.15778 3.90114 3.15237
# Velocity P-wave (km/s) = 5.08613 6.37215 5.76511
#
# Compressibility (1/GPa) = 0.02295742
#
# Stress axis : x y z
#
# Youngs Moduli (GPa) = 94.24642 102.70422 95.08277
#
# Poissons Ratio (x) = 0.29578 -0.04482
# Poissons Ratio (y) = 0.27143 0.14689
# Poissons Ratio (z) = -0.04442 0.15866
#
# Static dielectric constant tensor:
#      x y z
#    x 1.821380 0.000000 0.000000 
#    y 0.000000 1.815180 0.000000 
#    z 0.000000 0.000000 1.796700 
# 
# From -- ./inp_files/21410.got.cif
#   From: 2010.05.17/outbox.cif.g08.bks.cpg/sg60_11_cif.got.tgz:21410.got - 2010.06.03 14:59:27.
