data_PCOD9457145
_publ_section_title
;
Structure prediction by ZEFSAII (Michael W. Deem and Ramdas Pophale) SiO2 
 PCOD9457145
Probable space group: P B C N
;
_chemical_formula_sum "Si O2"
_cell_formula_units_Z 28
_cell_length_a 12.013268
_cell_length_b 7.542333
_cell_length_c 14.188072
_cell_angle_alpha 90.000000
_cell_angle_beta 90.000000
_cell_angle_gamma 90.000000
_cell_volume 1285.553788
_symmetry_space_group_name_H-M "P B C N"
_symmetry_group_IT_number 60
_symmetry_cell_setting 'orthorhombic'
loop_
_space_group_symop_operation_xyz
x,y,z
1/2-x,1/2-y,1/2+z
1/2+x,1/2-y,-z
-x,y,1/2-z
-x,-y,-z
1/2+x,1/2+y,1/2-z
1/2-x,1/2+y,z
x,-y,1/2+z
loop_
_atom_site_type_symbol
_atom_site_label
_atom_site_fract_x
_atom_site_fract_y
_atom_site_fract_z
Si Si1 0.500000 0.420335 0.250000
Si Si2 0.154318 0.517816 0.975630
Si Si3 0.966869 0.582316 0.346889
Si Si4 0.096395 0.922603 0.933352
O O1 0.427997 0.276331 0.189300
O O2 0.433538 0.533286 0.325584
O O3 0.079855 0.393978 0.907983
O O4 0.110607 0.713793 0.950538
O O5 0.283895 0.503381 0.958816
O O6 0.120068 0.489952 0.084366
O O7 0.000000 0.485486 0.250000
O O8 0.000000 0.000000 0.000000
#
# Coordination Sequence:
#
# PCOD9457145 Si02
#       4
#     4   8   8   8
#     4  10  22  44  62 102 136 166 238 276 334 424
#     4  11  24  43  71  95 142 177 228 287 348 400
#     4   9  21  45  69  97 133 176 228 282 344 406
#     4  12  25  44  67 102 137 182 229 283 345 407
#
# _framework density 21.780495999999999
#
# number of rings (size 3 to 8) (size 9 to 14) (size 15 to 20)
#    0.857    0.571    2.857    1.714    6.000    2.286 
#    0.000    0.000    0.000    0.000    0.000    0.000 
#    0.000    0.000    0.000    0.000    0.000    0.000 
#
# Total GULP energy -156314.645492 kJ/mol
# GULP energy per Si atom -5582.665910 kJ/mol
# Density = 2.173092 g / cm^3
# Si number density = 21.780496 Si / 1000 Ang^3
#
#
#
# Elastic Constant Matrix: (Units=GPa)
#
#
# Indices 1 2 3 4 5 6 
#
# 1 160.6291 22.6394 80.3187 0.0000 0.0000 0.0000
# 2 22.6394 74.2039 28.8689 0.0000 0.0000 0.0000
# 3 80.3187 28.8689 197.2689 0.0000 0.0000 0.0000
# 4 0.0000 0.0000 0.0000 21.1888 0.0000 0.0000
# 5 0.0000 0.0000 0.0000 0.0000 27.7606 0.0000
# 6 0.0000 0.0000 0.0000 0.0000 0.0000 32.1676
#
#
#
# Elastic Compliance Matrix: (Units=1/GPa)
#
#
# Indices 1 2 3 4 5 6 
#
# 1 0.007922 -0.001232 -0.003045 0.000000 0.000000 0.000000
# 2 -0.001232 0.014482 -0.001618 0.000000 0.000000 0.000000
# 3 -0.003045 -0.001618 0.006546 0.000000 0.000000 0.000000
# 4 0.000000 0.000000 0.000000 0.047195 0.000000 0.000000
# 5 0.000000 0.000000 0.000000 0.000000 0.036022 0.000000
# 6 0.000000 0.000000 0.000000 0.000000 0.000000 0.031087
#
#
# Mechanical properties :
#
#
# Convention : Reuss Voigt Hill
#
# Bulk Modulus (GPa) = 58.27693 77.30621 67.79157
# Shear Modulus (GPa) = 31.10171 36.24174 33.67172
#
# Velocity S-wave (km/s) = 3.78294 4.08358 3.93613
# Velocity P-wave (km/s) = 6.77461 7.60293 7.20069
#
# Compressibility (1/GPa) = 0.01715945
#
# Stress axis : x y z
#
# Youngs Moduli (GPa) = 126.23380 69.05292 152.77089
#
# Poissons Ratio (x) = 0.08509 0.46520
# Poissons Ratio (y) = 0.15555 0.24712
# Poissons Ratio (z) = 0.38439 0.11170
#
# Static dielectric constant tensor:
#      x y z
#    x 1.755950 0.000000 0.000000 
#    y 0.000000 1.869800 0.000000 
#    z 0.000000 0.000000 1.843640 
# 
# From -- ./inp_files/15518.got.cif
#   From: 2010.05.17/outbox.cif.g08.bks.cpg/sg60_8_cif.got.tgz:15518.got - 2010.06.03 14:59:27.
