data_PCOD9457184
_publ_section_title
;
Structure prediction by ZEFSAII (Michael W. Deem and Ramdas Pophale) SiO2 
 PCOD9457184
Probable space group: P B C N
;
_chemical_formula_sum "Si O2"
_cell_formula_units_Z 60
_cell_length_a 21.475367
_cell_length_b 25.786818
_cell_length_c 5.166043
_cell_angle_alpha 90.000000
_cell_angle_beta 90.000000
_cell_angle_gamma 90.000000
_cell_volume 2860.858423
_symmetry_space_group_name_H-M "P B C N"
_symmetry_group_IT_number 60
_symmetry_cell_setting 'orthorhombic'
loop_
_space_group_symop_operation_xyz
x,y,z
1/2-x,1/2-y,1/2+z
1/2+x,1/2-y,-z
-x,y,1/2-z
-x,-y,-z
1/2+x,1/2+y,1/2-z
1/2-x,1/2+y,z
x,-y,1/2+z
loop_
_atom_site_type_symbol
_atom_site_label
_atom_site_fract_x
_atom_site_fract_y
_atom_site_fract_z
Si Si1 0.744191 0.282182 0.665365
Si Si2 0.072566 0.694750 0.684845
Si Si3 0.682847 0.964538 0.919829
Si Si4 0.938688 0.895708 0.859904
Si Si5 0.104326 0.797246 0.900174
Si Si6 0.173124 0.968139 0.611188
Si Si7 0.500000 0.314821 0.250000
Si Si8 0.861300 0.649018 0.308133
O O1 0.769975 0.244567 0.441514
O O2 0.677113 0.296252 0.546317
O O3 0.794254 0.326821 0.724842
O O4 0.088246 0.756249 0.673993
O O5 0.093138 0.664875 0.426414
O O6 0.000000 0.687125 0.750000
O O7 0.114676 0.674767 0.925805
O O8 0.756253 0.948832 0.921847
O O9 0.645287 0.912292 0.859863
O O10 0.671885 0.006838 0.693105
O O11 0.910567 0.857328 0.646286
O O12 0.882917 0.930285 0.958539
O O13 0.000000 0.924533 0.750000
O O14 0.964219 0.854055 0.061330
O O15 0.052772 0.781449 0.110393
O O16 0.166940 0.015521 0.410143
#
# Coordination Sequence:
#
# PCOD9457184 Si02
#       8
#     8   8   8   8   8   8   4   8
#     4  12  24  41  63 100 139 172 218 277 332 390
#     4  12  26  42  68  97 137 176 220 262 326 408
#     4  10  22  44  71  97 125 166 216 266 333 401
#     4  10  23  40  58  90 126 178 227 271 322 383
#     4  11  24  41  64  91 138 182 226 268 318 401
#     4  10  23  41  65  93 124 165 219 279 336 383
#     4  10  24  40  62  88 130 192 232 256 328 380
#     4  12  24  45  68 102 136 174 215 278 336 383
#
# _framework density 20.972723999999999
#
# number of rings (size 3 to 8) (size 9 to 14) (size 15 to 20)
#    0.000    1.067    2.667    3.200    9.333    0.533 
#    4.800    0.000    0.000    8.000    0.000    0.000 
#    0.000    0.000    0.000    0.000    0.000    0.000 
#
# Total GULP energy -334956.982003 kJ/mol
# GULP energy per Si atom -5582.616367 kJ/mol
# Density = 2.092499 g / cm^3
# Si number density = 20.972724 Si / 1000 Ang^3
#
#
#
# Elastic Constant Matrix: (Units=GPa)
#
#
# Indices 1 2 3 4 5 6 
#
# 1 94.2241 16.9538 9.9803 0.0000 0.0000 0.0000
# 2 16.9538 36.4045 -8.6441 0.0000 0.0000 0.0000
# 3 9.9803 -8.6441 76.4885 0.0000 0.0000 0.0000
# 4 0.0000 0.0000 0.0000 13.4294 0.0000 0.0000
# 5 0.0000 0.0000 0.0000 0.0000 29.5872 0.0000
# 6 0.0000 0.0000 0.0000 0.0000 0.0000 23.9067
#
#
#
# Elastic Compliance Matrix: (Units=1/GPa)
#
#
# Indices 1 2 3 4 5 6 
#
# 1 0.011948 -0.006098 -0.002248 0.000000 0.000000 0.000000
# 2 -0.006098 0.031339 0.004337 0.000000 0.000000 0.000000
# 3 -0.002248 0.004337 0.013857 0.000000 0.000000 0.000000
# 4 0.000000 0.000000 0.000000 0.074463 0.000000 0.000000
# 5 0.000000 0.000000 0.000000 0.000000 0.033798 0.000000
# 6 0.000000 0.000000 0.000000 0.000000 0.000000 0.041829
#
#
# Mechanical properties :
#
#
# Convention : Reuss Voigt Hill
#
# Bulk Modulus (GPa) = 20.35553 27.07744 23.71648
# Shear Modulus (GPa) = 21.58617 25.97313 23.77965
#
# Velocity S-wave (km/s) = 3.21167 3.52294 3.37090
# Velocity P-wave (km/s) = 4.84561 5.43019 5.14621
#
# Compressibility (1/GPa) = 0.04912670
#
# Stress axis : x y z
#
# Youngs Moduli (GPa) = 83.69324 31.90904 72.16365
#
# Poissons Ratio (x) = 0.19459 0.16224
# Poissons Ratio (y) = 0.51038 -0.31300
# Poissons Ratio (z) = 0.18816 -0.13840
#
# Static dielectric constant tensor:
#      x y z
#    x 1.790610 0.000000 0.000000 
#    y 0.000000 1.746120 0.000000 
#    z 0.000000 0.000000 1.820250 
# 
# From -- ./inp_files/2179.got.cif
#   From: 2010.05.17/outbox.cif.g08.bks.cpg/sg60_2_cif.got.tgz:2179.got - 2010.06.03 14:59:27.
