data_PCOD9457875
_publ_section_title
;
Structure prediction by ZEFSAII (Michael W. Deem and Ramdas Pophale) SiO2 
 PCOD9457875
Probable space group: P B C N
;
_chemical_formula_sum "Si O2"
_cell_formula_units_Z 32
_cell_length_a 4.970457
_cell_length_b 12.881165
_cell_length_c 17.100698
_cell_angle_alpha 90.000000
_cell_angle_beta 90.000000
_cell_angle_gamma 90.000000
_cell_volume 1094.876922
_symmetry_space_group_name_H-M "P B C N"
_symmetry_group_IT_number 60
_symmetry_cell_setting 'orthorhombic'
loop_
_space_group_symop_operation_xyz
x,y,z
1/2-x,1/2-y,1/2+z
1/2+x,1/2-y,-z
-x,y,1/2-z
-x,-y,-z
1/2+x,1/2+y,1/2-z
1/2-x,1/2+y,z
x,-y,1/2+z
loop_
_atom_site_type_symbol
_atom_site_label
_atom_site_fract_x
_atom_site_fract_y
_atom_site_fract_z
Si Si1 0.411164 0.189956 0.919091
Si Si2 0.500000 0.906501 0.750000
Si Si3 0.341840 0.587905 0.046607
Si Si4 0.500000 0.752062 0.250000
Si Si5 0.421907 0.451204 0.334434
O O1 0.346682 0.980407 0.815417
O O2 0.525664 0.183961 0.830925
O O3 0.117696 0.146403 0.892505
O O4 0.427897 0.119458 0.998208
O O5 0.256179 0.822820 0.746335
O O6 0.502620 0.695828 0.056172
O O7 0.359148 0.531234 0.130609
O O8 0.500000 0.500000 0.000000
O O9 0.500000 0.411975 0.250000
#
# Coordination Sequence:
#
# PCOD9457875 Si02
#       5
#     8   4   8   4   8
#     4  11  25  50  79 125 165 233 294 358 454 529
#     4  12  23  50  81 128 170 220 307 368 451 522
#     4  10  24  50  74 116 174 220 285 370 444 527
#     4  12  27  48  91 118 172 236 299 372 435 548
#     4  11  24  48  83 121 171 231 292 377 445 540
#
# _framework density 29.227028000000001
#
# number of rings (size 3 to 8) (size 9 to 14) (size 15 to 20)
#    0.000    1.000    3.750    0.750    1.750    4.000 
#   18.000    2.500    0.000    0.000    0.000    0.000 
#    0.000    0.000    0.000    0.000    0.000    0.000 
#
# Total GULP energy -178197.533220 kJ/mol
# GULP energy per Si atom -5568.672913 kJ/mol
# Density = 2.916051 g / cm^3
# Si number density = 29.227028 Si / 1000 Ang^3
#
#
#
# Elastic Constant Matrix: (Units=GPa)
#
#
# Indices 1 2 3 4 5 6 
#
# 1 148.1102 30.5099 40.6286 0.0000 0.0000 0.0000
# 2 30.5099 180.6032 73.9271 0.0000 0.0000 0.0000
# 3 40.6286 73.9271 188.6308 0.0000 0.0000 0.0000
# 4 0.0000 0.0000 0.0000 73.3704 0.0000 0.0000
# 5 0.0000 0.0000 0.0000 0.0000 48.3957 0.0000
# 6 0.0000 0.0000 0.0000 0.0000 0.0000 38.9739
#
#
#
# Elastic Compliance Matrix: (Units=1/GPa)
#
#
# Indices 1 2 3 4 5 6 
#
# 1 0.007249 -0.000697 -0.001288 0.000000 0.000000 0.000000
# 2 -0.000697 0.006662 -0.002461 0.000000 0.000000 0.000000
# 3 -0.001288 -0.002461 0.006543 0.000000 0.000000 0.000000
# 4 0.000000 0.000000 0.000000 0.013629 0.000000 0.000000
# 5 0.000000 0.000000 0.000000 0.000000 0.020663 0.000000
# 6 0.000000 0.000000 0.000000 0.000000 0.000000 0.025658
#
#
# Mechanical properties :
#
#
# Convention : Reuss Voigt Hill
#
# Bulk Modulus (GPa) = 86.49175 89.71947 88.10561
# Shear Modulus (GPa) = 53.67646 56.96658 55.32152
#
# Velocity S-wave (km/s) = 4.29013 4.41966 4.35538
# Velocity P-wave (km/s) = 7.36190 7.53715 7.45004
#
# Compressibility (1/GPa) = 0.01156180
#
# Stress axis : x y z
#
# Youngs Moduli (GPa) = 137.95610 150.10327 152.83080
#
# Poissons Ratio (x) = 0.10467 0.19684
# Poissons Ratio (y) = 0.09620 0.37608
# Poissons Ratio (z) = 0.17768 0.36937
#
# Static dielectric constant tensor:
#      x y z
#    x 2.362600 0.000000 0.000000 
#    y 0.000000 2.252830 0.000000 
#    z 0.000000 0.000000 2.799530 
# 
# From -- ./inp_files/14509.got.cif
#   From: 2010.05.17/outbox.cif.g08.bks.cpg/sg60_8_cif.got.tgz:14509.got - 2010.06.03 14:59:27.
