data_PCOD9457698
_publ_section_title
;
Structure prediction by ZEFSAII (Michael W. Deem and Ramdas Pophale) SiO2 
 PCOD9457698
Probable space group: P B C N
;
_chemical_formula_sum "Si O2"
_cell_formula_units_Z 36
_cell_length_a 18.694433
_cell_length_b 10.490194
_cell_length_c 8.295672
_cell_angle_alpha 90.000000
_cell_angle_beta 90.000000
_cell_angle_gamma 90.000000
_cell_volume 1626.849543
_symmetry_space_group_name_H-M "P B C N"
_symmetry_group_IT_number 60
_symmetry_cell_setting 'orthorhombic'
loop_
_space_group_symop_operation_xyz
x,y,z
1/2-x,1/2-y,1/2+z
1/2+x,1/2-y,-z
-x,y,1/2-z
-x,-y,-z
1/2+x,1/2+y,1/2-z
1/2-x,1/2+y,z
x,-y,1/2+z
loop_
_atom_site_type_symbol
_atom_site_label
_atom_site_fract_x
_atom_site_fract_y
_atom_site_fract_z
Si Si1 0.200579 0.099046 0.508853
Si Si2 0.442217 0.820822 0.031520
Si Si3 0.000000 0.534907 0.250000
Si Si4 0.037122 0.121451 0.577311
Si Si5 0.799972 0.176089 0.367791
O O1 0.121223 0.105832 0.583227
O O2 0.248532 0.204172 0.598217
O O3 0.198033 0.136316 0.320047
O O4 0.223182 0.951709 0.535684
O O5 0.515536 0.740043 0.035080
O O6 0.445192 0.880344 0.853117
O O7 0.451011 0.942543 0.143586
O O8 0.377292 0.727994 0.072474
O O9 0.000000 0.136104 0.750000
O O10 0.000000 0.000000 0.500000
#
# Coordination Sequence:
#
# PCOD9457698 Si02
#       5
#     8   8   4   8   8
#     4  12  28  48  76 114 150 205 249 321 378 463
#     4  11  24  44  71 103 144 193 242 310 368 454
#     4  10  24  42  68 106 144 188 244 304 382 438
#     4  12  25  44  77 107 145 189 261 307 371 440
#     4  12  28  48  76 107 156 195 258 305 393 450
#
# _framework density 22.128658000000001
#
# number of rings (size 3 to 8) (size 9 to 14) (size 15 to 20)
#    0.000    0.444    3.333    4.000    4.667    7.111 
#    0.000    0.000    0.000    0.000    0.000    0.000 
#    0.000    0.000    0.000    0.000    0.000    0.000 
#
# Total GULP energy -201362.959787 kJ/mol
# GULP energy per Si atom -5593.415550 kJ/mol
# Density = 2.207829 g / cm^3
# Si number density = 22.128658 Si / 1000 Ang^3
#
#
#
# Elastic Constant Matrix: (Units=GPa)
#
#
# Indices 1 2 3 4 5 6 
#
# 1 81.5525 33.5373 12.5627 0.0000 0.0000 0.0000
# 2 33.5373 157.6422 51.3218 0.0000 0.0000 0.0000
# 3 12.5627 51.3218 131.2609 0.0000 0.0000 0.0000
# 4 0.0000 0.0000 0.0000 38.8368 0.0000 0.0000
# 5 0.0000 0.0000 0.0000 0.0000 33.0555 0.0000
# 6 0.0000 0.0000 0.0000 0.0000 0.0000 46.6029
#
#
#
# Elastic Compliance Matrix: (Units=1/GPa)
#
#
# Indices 1 2 3 4 5 6 
#
# 1 0.013442 -0.002797 -0.000193 0.000000 0.000000 0.000000
# 2 -0.002797 0.007851 -0.002802 0.000000 0.000000 0.000000
# 3 -0.000193 -0.002802 0.008732 0.000000 0.000000 0.000000
# 4 0.000000 0.000000 0.000000 0.025749 0.000000 0.000000
# 5 0.000000 0.000000 0.000000 0.000000 0.030252 0.000000
# 6 0.000000 0.000000 0.000000 0.000000 0.000000 0.021458
#
#
# Mechanical properties :
#
#
# Convention : Reuss Voigt Hill
#
# Bulk Modulus (GPa) = 54.22515 62.81104 58.51809
# Shear Modulus (GPa) = 39.93152 41.90128 40.91640
#
# Velocity S-wave (km/s) = 4.25257 4.35619 4.30469
# Velocity P-wave (km/s) = 6.97640 7.33130 7.15605
#
# Compressibility (1/GPa) = 0.01844163
#
# Stress axis : x y z
#
# Youngs Moduli (GPa) = 74.39409 127.37781 114.51633
#
# Poissons Ratio (x) = 0.35626 0.02210
# Poissons Ratio (y) = 0.20807 0.32086
# Poissons Ratio (z) = 0.01435 0.35689
#
# Static dielectric constant tensor:
#      x y z
#    x 1.829190 0.000000 0.000000 
#    y 0.000000 1.834710 0.000000 
#    z 0.000000 0.000000 1.901970 
# 
# From -- ./inp_files/7198.got.cif
#   From: 2010.05.17/outbox.cif.g08.bks.cpg/sg60_4_cif.got.tgz:7198.got - 2010.06.03 14:59:27.
