data_PCOD9457567
_publ_section_title
;
Structure prediction by ZEFSAII (Michael W. Deem and Ramdas Pophale) SiO2 
 PCOD9457567
Probable space group: P B C N
;
_chemical_formula_sum "Si O2"
_cell_formula_units_Z 24
_cell_length_a 6.731512
_cell_length_b 9.915493
_cell_length_c 13.561522
_cell_angle_alpha 90.000000
_cell_angle_beta 90.000000
_cell_angle_gamma 90.000000
_cell_volume 905.180875
_symmetry_space_group_name_H-M "P B C N"
_symmetry_group_IT_number 60
_symmetry_cell_setting 'orthorhombic'
loop_
_space_group_symop_operation_xyz
x,y,z
1/2-x,1/2-y,1/2+z
1/2+x,1/2-y,-z
-x,y,1/2-z
-x,-y,-z
1/2+x,1/2+y,1/2-z
1/2-x,1/2+y,z
x,-y,1/2+z
loop_
_atom_site_type_symbol
_atom_site_label
_atom_site_fract_x
_atom_site_fract_y
_atom_site_fract_z
Si Si1 0.929510 0.232021 0.849804
Si Si2 0.516917 0.808089 0.077522
Si Si3 0.647299 0.482396 0.594832
O O1 0.695727 0.200846 0.868816
O O2 0.000000 0.309841 0.750000
O O3 0.040399 0.090801 0.839023
O O4 0.992146 0.287454 0.958677
O O5 0.629912 0.674869 0.118719
O O6 0.638018 0.946579 0.087654
O O7 0.500000 0.500000 0.500000
#
# Coordination Sequence:
#
# PCOD9457567 Si02
#       3
#     8   8   8
#     4  11  24  45  72 119 159 213 262 323 400 474
#     4  11  23  48  80 114 165 202 265 332 393 480
#     4  10  23  45  74 112 155 210 251 326 405 461
#
# _framework density 26.514040000000001
#
# number of rings (size 3 to 8) (size 9 to 14) (size 15 to 20)
#    0.000    1.333    6.667    0.000    0.000    9.333 
#    6.000    0.000    0.000    0.000    0.000    2.333 
#    0.000    0.000    0.000    0.000    0.000    0.000 
#
# Total GULP energy -133777.532800 kJ/mol
# GULP energy per Si atom -5574.063867 kJ/mol
# Density = 2.645369 g / cm^3
# Si number density = 26.514040 Si / 1000 Ang^3
#
#
#
# Elastic Constant Matrix: (Units=GPa)
#
#
# Indices 1 2 3 4 5 6 
#
# 1 218.0941 54.9022 46.2018 0.0000 0.0000 0.0000
# 2 54.9022 187.8425 10.4874 0.0000 0.0000 0.0000
# 3 46.2018 10.4874 164.7634 0.0000 0.0000 0.0000
# 4 0.0000 0.0000 0.0000 16.5726 0.0000 0.0000
# 5 0.0000 0.0000 0.0000 0.0000 4.5376 0.0000
# 6 0.0000 0.0000 0.0000 0.0000 0.0000 48.4972
#
#
#
# Elastic Compliance Matrix: (Units=1/GPa)
#
#
# Indices 1 2 3 4 5 6 
#
# 1 0.005243 -0.001456 -0.001378 0.000000 0.000000 0.000000
# 2 -0.001456 0.005747 0.000042 0.000000 0.000000 0.000000
# 3 -0.001378 0.000042 0.006453 0.000000 0.000000 0.000000
# 4 0.000000 0.000000 0.000000 0.060341 0.000000 0.000000
# 5 0.000000 0.000000 0.000000 0.000000 0.220382 0.000000
# 6 0.000000 0.000000 0.000000 0.000000 0.000000 0.020620
#
#
# Mechanical properties :
#
#
# Convention : Reuss Voigt Hill
#
# Bulk Modulus (GPa) = 84.30817 88.20919 86.25868
# Shear Modulus (GPa) = 15.22899 44.52872 29.87885
#
# Velocity S-wave (km/s) = 2.39921 4.10254 3.36059
# Velocity P-wave (km/s) = 6.28821 7.46875 6.90376
#
# Compressibility (1/GPa) = 0.01186125
#
# Stress axis : x y z
#
# Youngs Moduli (GPa) = 190.71357 174.01314 154.96834
#
# Poissons Ratio (x) = 0.25330 0.21350
# Poissons Ratio (y) = 0.27761 -0.00657
# Poissons Ratio (z) = 0.26274 -0.00738
#
# Static dielectric constant tensor:
#      x y z
#    x 2.469500 0.000000 0.000000 
#    y 0.000000 1.654190 0.000000 
#    z 0.000000 0.000000 2.164310 
# 
# From -- ./inp_files/18293.got.cif
#   From: 2010.05.17/outbox.cif.g08.bks.cpg/sg60_10_cif.got.tgz:18293.got - 2010.06.03 14:59:27.
