data_PCOD9457682
_publ_section_title
;
Structure prediction by ZEFSAII (Michael W. Deem and Ramdas Pophale) SiO2 
 PCOD9457682
Probable space group: P B C N
;
_chemical_formula_sum "Si O2"
_cell_formula_units_Z 48
_cell_length_a 11.048125
_cell_length_b 7.729084
_cell_length_c 25.875418
_cell_angle_alpha 90.000000
_cell_angle_beta 90.000000
_cell_angle_gamma 90.000000
_cell_volume 2209.550748
_symmetry_space_group_name_H-M "P B C N"
_symmetry_group_IT_number 60
_symmetry_cell_setting 'orthorhombic'
loop_
_space_group_symop_operation_xyz
x,y,z
1/2-x,1/2-y,1/2+z
1/2+x,1/2-y,-z
-x,y,1/2-z
-x,-y,-z
1/2+x,1/2+y,1/2-z
1/2-x,1/2+y,z
x,-y,1/2+z
loop_
_atom_site_type_symbol
_atom_site_label
_atom_site_fract_x
_atom_site_fract_y
_atom_site_fract_z
Si Si1 0.628225 0.197346 0.874211
Si Si2 0.126870 0.581768 0.740641
Si Si3 0.675739 0.242133 0.192685
Si Si4 0.392622 0.435887 0.870390
Si Si5 0.823871 0.599209 0.441752
Si Si6 0.375861 0.593251 0.490556
O O1 0.520457 0.335567 0.867665
O O2 0.746855 0.292652 0.898358
O O3 0.646861 0.095697 0.820498
O O4 0.594994 0.045731 0.914545
O O5 0.108871 0.410689 0.776538
O O6 0.251104 0.654602 0.763649
O O7 0.000000 0.683282 0.750000
O O8 0.784760 0.160811 0.159417
O O9 0.601388 0.373877 0.156208
O O10 0.352662 0.425961 0.930008
O O11 0.889338 0.721460 0.482455
O O12 0.726140 0.500102 0.476299
O O13 0.500000 0.500000 0.500000
#
# Coordination Sequence:
#
# PCOD9457682 Si02
#       6
#     8   8   8   8   8   8
#     4  11  22  43  67  96 131 170 217 267 327 391
#     4  11  22  43  64  92 123 165 211 264 323 384
#     4  10  24  43  64  92 126 164 216 266 321 378
#     4  11  22  43  66  92 129 171 215 270 318 385
#     4  10  24  42  64  95 136 174 214 270 326 384
#     4  11  22  42  64  96 131 173 220 263 324 388
#
# _framework density 21.723873999999999
#
# number of rings (size 3 to 8) (size 9 to 14) (size 15 to 20)
#    0.000    1.333    3.333    2.000    0.000    2.000 
#   12.000    0.000    0.000    0.000    0.000    0.000 
#    0.000    0.000    0.000    0.000    0.000    0.000 
#
# Total GULP energy -267760.402131 kJ/mol
# GULP energy per Si atom -5578.341711 kJ/mol
# Density = 2.167443 g / cm^3
# Si number density = 21.723874 Si / 1000 Ang^3
#
#
#
# Elastic Constant Matrix: (Units=GPa)
#
#
# Indices 1 2 3 4 5 6 
#
# 1 38.6430 -7.6761 11.4997 0.0000 0.0000 0.0000
# 2 -7.6761 52.9909 27.0147 0.0000 0.0000 0.0000
# 3 11.4997 27.0147 155.0292 0.0000 0.0000 0.0000
# 4 0.0000 0.0000 0.0000 37.0038 0.0000 0.0000
# 5 0.0000 0.0000 0.0000 0.0000 24.8777 0.0000
# 6 0.0000 0.0000 0.0000 0.0000 0.0000 -2.8279
#
#
#
# Elastic Compliance Matrix: (Units=1/GPa)
#
#
# Indices 1 2 3 4 5 6 
#
# 1 0.027895 0.005592 -0.003044 0.000000 0.000000 0.000000
# 2 0.005592 0.021832 -0.004219 0.000000 0.000000 0.000000
# 3 -0.003044 -0.004219 0.007411 0.000000 0.000000 0.000000
# 4 0.000000 0.000000 0.000000 0.027024 0.000000 0.000000
# 5 0.000000 0.000000 0.000000 0.000000 0.040197 0.000000
# 6 0.000000 0.000000 0.000000 0.000000 0.000000 -0.353624
#
#
# Mechanical properties :
#
#
# Convention : Reuss Voigt Hill
#
# Bulk Modulus (GPa) = 18.58835 34.25996 26.42415
# Shear Modulus (GPa) = -24.03941 26.19906 1.07983
#
# Velocity S-wave (km/s) = -3.33015 3.47652 0.70580
# Velocity P-wave (km/s) = 2.49226 5.64976 3.58528
#
# Compressibility (1/GPa) = 0.05379714
#
# Stress axis : x y z
#
# Youngs Moduli (GPa) = 35.84931 45.80394 134.92755
#
# Poissons Ratio (x) = -0.25615 0.41067
# Poissons Ratio (y) = -0.20048 0.56929
# Poissons Ratio (z) = 0.10911 0.19326
#
# Static dielectric constant tensor:
#      x y z
#    x 1.752670 0.000000 0.000000 
#    y 0.000000 1.875120 0.000000 
#    z 0.000000 0.000000 1.616350 
# 
# From -- ./inp_files/24257.got.cif
#   From: 2010.05.17/outbox.cif.g08.bks.cpg/sg60_13_cif.got.tgz:24257.got - 2010.06.03 14:59:27.
