data_PCOD9457570
_publ_section_title
;
Structure prediction by ZEFSAII (Michael W. Deem and Ramdas Pophale) SiO2 
 PCOD9457570
Probable space group: P B C N
;
_chemical_formula_sum "Si O2"
_cell_formula_units_Z 40
_cell_length_a 8.777948
_cell_length_b 14.818395
_cell_length_c 14.684567
_cell_angle_alpha 90.000000
_cell_angle_beta 90.000000
_cell_angle_gamma 90.000000
_cell_volume 1910.096532
_symmetry_space_group_name_H-M "P B C N"
_symmetry_group_IT_number 60
_symmetry_cell_setting 'orthorhombic'
loop_
_space_group_symop_operation_xyz
x,y,z
1/2-x,1/2-y,1/2+z
1/2+x,1/2-y,-z
-x,y,1/2-z
-x,-y,-z
1/2+x,1/2+y,1/2-z
1/2-x,1/2+y,z
x,-y,1/2+z
loop_
_atom_site_type_symbol
_atom_site_label
_atom_site_fract_x
_atom_site_fract_y
_atom_site_fract_z
Si Si1 0.748474 0.800131 0.749858
Si Si2 0.500000 0.546489 0.250000
Si Si3 0.435646 0.084247 0.945478
Si Si4 0.996142 0.726733 0.096139
Si Si5 0.000000 0.354482 0.250000
Si Si6 0.426397 0.433264 0.427222
O O1 0.856142 0.886746 0.761706
O O2 0.652955 0.800516 0.655554
O O3 0.634342 0.793884 0.834842
O O4 0.854170 0.711473 0.748183
O O5 0.462890 0.481372 0.332809
O O6 0.497263 0.088887 0.842593
O O7 0.253700 0.076846 0.941941
O O8 0.485814 0.171566 0.003263
O O9 0.500000 0.000000 0.000000
O O10 0.992400 0.832462 0.073512
O O11 0.500000 0.500000 0.500000
#
# Coordination Sequence:
#
# PCOD9457570 Si02
#       6
#     8   4   8   8   4   8
#     4  10  23  45  75 103 141 194 240 310 362 444
#     4  11  24  46  73 104 146 188 251 300 373 440
#     4  12  29  46  75 109 149 195 249 310 369 448
#     4  11  25  48  72 106 147 195 246 303 377 439
#     4  11  26  44  73 104 146 184 245 298 371 424
#     4  12  28  45  72 106 145 197 247 303 371 453
#
# _framework density 20.941351000000001
#
# number of rings (size 3 to 8) (size 9 to 14) (size 15 to 20)
#    0.000    0.800    2.000    3.600   11.200    3.200 
#    0.000    0.000    0.000    0.000    0.000    0.000 
#    0.000    0.000    0.000    0.000    0.000    0.000 
#
# Total GULP energy -224051.731439 kJ/mol
# GULP energy per Si atom -5601.293286 kJ/mol
# Density = 2.089369 g / cm^3
# Si number density = 20.941351 Si / 1000 Ang^3
#
#
#
# Elastic Constant Matrix: (Units=GPa)
#
#
# Indices 1 2 3 4 5 6 
#
# 1 119.7505 65.4238 73.7501 0.0000 0.0000 0.0000
# 2 65.4238 184.4143 84.1147 0.0000 0.0000 0.0000
# 3 73.7501 84.1147 168.0216 0.0000 0.0000 0.0000
# 4 0.0000 0.0000 0.0000 74.1400 0.0000 0.0000
# 5 0.0000 0.0000 0.0000 0.0000 28.8128 0.0000
# 6 0.0000 0.0000 0.0000 0.0000 0.0000 17.0004
#
#
#
# Elastic Compliance Matrix: (Units=1/GPa)
#
#
# Indices 1 2 3 4 5 6 
#
# 1 0.012244 -0.002453 -0.004147 0.000000 0.000000 0.000000
# 2 -0.002453 0.007518 -0.002687 0.000000 0.000000 0.000000
# 3 -0.004147 -0.002687 0.009117 0.000000 0.000000 0.000000
# 4 0.000000 0.000000 0.000000 0.013488 0.000000 0.000000
# 5 0.000000 0.000000 0.000000 0.000000 0.034707 0.000000
# 6 0.000000 0.000000 0.000000 0.000000 0.000000 0.058822
#
#
# Mechanical properties :
#
#
# Convention : Reuss Voigt Hill
#
# Bulk Modulus (GPa) = 97.02386 102.08484 99.55435
# Shear Modulus (GPa) = 31.66449 40.58381 36.12415
#
# Velocity S-wave (km/s) = 3.89273 4.40702 4.15784
# Velocity P-wave (km/s) = 8.16311 8.64578 8.40791
#
# Compressibility (1/GPa) = 0.01030674
#
# Stress axis : x y z
#
# Youngs Moduli (GPa) = 81.67009 133.00719 109.68438
#
# Poissons Ratio (x) = 0.32620 0.45483
# Poissons Ratio (y) = 0.20030 0.29476
# Poissons Ratio (z) = 0.33866 0.35744
#
# Static dielectric constant tensor:
#      x y z
#    x 1.715940 0.000000 0.000000 
#    y 0.000000 1.663570 0.000000 
#    z 0.000000 0.000000 1.718780 
# 
# From -- ./inp_files/14716.got.cif
#   From: 2010.05.17/outbox.cif.g08.bks.cpg/sg60_8_cif.got.tgz:14716.got - 2010.06.03 14:59:27.
