data_PCOD9457203
_publ_section_title
;
Structure prediction by ZEFSAII (Michael W. Deem and Ramdas Pophale) SiO2 
 PCOD9457203
Probable space group: P B C N
;
_chemical_formula_sum "Si O2"
_cell_formula_units_Z 48
_cell_length_a 16.971910
_cell_length_b 7.859184
_cell_length_c 14.067238
_cell_angle_alpha 90.000000
_cell_angle_beta 90.000000
_cell_angle_gamma 90.000000
_cell_volume 1876.363654
_symmetry_space_group_name_H-M "P B C N"
_symmetry_group_IT_number 60
_symmetry_cell_setting 'orthorhombic'
loop_
_space_group_symop_operation_xyz
x,y,z
1/2-x,1/2-y,1/2+z
1/2+x,1/2-y,-z
-x,y,1/2-z
-x,-y,-z
1/2+x,1/2+y,1/2-z
1/2-x,1/2+y,z
x,-y,1/2+z
loop_
_atom_site_type_symbol
_atom_site_label
_atom_site_fract_x
_atom_site_fract_y
_atom_site_fract_z
Si Si1 0.051570 0.402622 0.344350
Si Si2 0.451451 0.631551 0.062437
Si Si3 0.634733 0.769195 0.669980
Si Si4 0.636491 0.403965 0.745749
Si Si5 0.698487 0.119664 0.361375
Si Si6 0.202418 0.311487 0.007291
O O1 0.073576 0.594405 0.372594
O O2 0.000000 0.417447 0.250000
O O3 0.004491 0.299148 0.423400
O O4 0.121942 0.275280 0.308468
O O5 0.429143 0.578479 0.170478
O O6 0.366512 0.671753 0.016533
O O7 0.500000 0.500000 0.000000
O O8 0.627452 0.567083 0.678030
O O9 0.640402 0.824246 0.779886
O O10 0.709981 0.825805 0.605457
O O11 0.719824 0.408823 0.802302
O O12 0.717930 0.257705 0.441437
O O13 0.673344 0.961209 0.424404
#
# Coordination Sequence:
#
# PCOD9457203 Si02
#       6
#     8   8   8   8   8   8
#     4  10  23  42  68 100 135 178 237 288 344 422
#     4  10  22  45  68 100 146 180 235 297 352 427
#     4  12  25  42  73 100 136 192 232 286 364 424
#     4  10  23  43  68  96 137 188 224 287 359 413
#     4  11  23  46  63 101 145 170 239 294 344 434
#     4  11  26  42  70 104 134 187 230 292 357 421
#
# _framework density 25.581395000000001
#
# number of rings (size 3 to 8) (size 9 to 14) (size 15 to 20)
#    0.000    1.333    1.667    4.000    2.333    5.333 
#    0.000    0.000    0.000    0.000    0.000    0.000 
#    0.000    0.000    0.000    0.000    0.000    0.000 
#
# Total GULP energy -268283.259166 kJ/mol
# GULP energy per Si atom -5589.234566 kJ/mol
# Density = 2.552317 g / cm^3
# Si number density = 25.581395 Si / 1000 Ang^3
#
#
#
# Elastic Constant Matrix: (Units=GPa)
#
#
# Indices 1 2 3 4 5 6 
#
# 1 27.0776 -2.9000 -18.9476 0.0000 0.0000 0.0000
# 2 -2.9000 91.8048 3.0377 0.0000 0.0000 0.0000
# 3 -18.9476 3.0377 101.8212 0.0000 0.0000 0.0000
# 4 0.0000 0.0000 0.0000 38.6748 0.0000 0.0000
# 5 0.0000 0.0000 0.0000 0.0000 37.3133 0.0000
# 6 0.0000 0.0000 0.0000 0.0000 0.0000 29.5929
#
#
#
# Elastic Compliance Matrix: (Units=1/GPa)
#
#
# Indices 1 2 3 4 5 6 
#
# 1 0.042567 0.001084 0.007889 0.000000 0.000000 0.000000
# 2 0.001084 0.010931 -0.000124 0.000000 0.000000 0.000000
# 3 0.007889 -0.000124 0.011293 0.000000 0.000000 0.000000
# 4 0.000000 0.000000 0.000000 0.025857 0.000000 0.000000
# 5 0.000000 0.000000 0.000000 0.000000 0.026800 0.000000
# 6 0.000000 0.000000 0.000000 0.000000 0.000000 0.033792
#
#
# Mechanical properties :
#
#
# Convention : Reuss Voigt Hill
#
# Bulk Modulus (GPa) = 12.12308 20.34264 16.23286
# Shear Modulus (GPa) = 31.04829 37.08376 34.06603
#
# Velocity S-wave (km/s) = 3.48761 3.81154 3.65317
# Velocity P-wave (km/s) = 4.57899 5.22875 4.91462
#
# Compressibility (1/GPa) = 0.08248727
#
# Stress axis : x y z
#
# Youngs Moduli (GPa) = 23.49223 91.48273 88.55147
#
# Poissons Ratio (x) = -0.09913 -0.69857
# Poissons Ratio (y) = -0.02546 0.01102
# Poissons Ratio (z) = -0.18533 0.01139
#
# Static dielectric constant tensor:
#      x y z
#    x 2.114020 0.000000 0.000000 
#    y 0.000000 2.083090 0.000000 
#    z 0.000000 0.000000 2.097170 
# 
# From -- ./inp_files/17329.got.cif
#   From: 2010.05.17/outbox.cif.g08.bks.cpg/sg60_9_cif.got.tgz:17329.got - 2010.06.03 14:59:27.
