data_PCOD9457768
_publ_section_title
;
Structure prediction by ZEFSAII (Michael W. Deem and Ramdas Pophale) SiO2 
 PCOD9457768
Probable space group: P B C N
;
_chemical_formula_sum "Si O2"
_cell_formula_units_Z 36
_cell_length_a 9.487877
_cell_length_b 21.255499
_cell_length_c 8.287126
_cell_angle_alpha 90.000000
_cell_angle_beta 90.000000
_cell_angle_gamma 90.000000
_cell_volume 1671.261055
_symmetry_space_group_name_H-M "P B C N"
_symmetry_group_IT_number 60
_symmetry_cell_setting 'orthorhombic'
loop_
_space_group_symop_operation_xyz
x,y,z
1/2-x,1/2-y,1/2+z
1/2+x,1/2-y,-z
-x,y,1/2-z
-x,-y,-z
1/2+x,1/2+y,1/2-z
1/2-x,1/2+y,z
x,-y,1/2+z
loop_
_atom_site_type_symbol
_atom_site_label
_atom_site_fract_x
_atom_site_fract_y
_atom_site_fract_z
Si Si1 0.847868 0.914909 0.012566
Si Si2 0.979028 0.428139 0.942945
Si Si3 0.870986 0.682308 0.867677
Si Si4 0.000000 0.999918 0.750000
Si Si5 0.620450 0.286774 0.131614
O O1 0.922471 0.847451 0.027288
O O2 0.883014 0.955153 0.171157
O O3 0.681934 0.908510 0.981474
O O4 0.920597 0.955632 0.874607
O O5 0.000000 0.422984 0.750000
O O6 0.000000 0.500000 0.000000
O O7 0.082760 0.382480 0.044843
O O8 0.739218 0.684423 0.748198
O O9 0.000000 0.701383 0.750000
O O10 0.839523 0.732055 0.009272
O O11 0.500000 0.262397 0.250000
#
# Coordination Sequence:
#
# PCOD9457768 Si02
#       5
#     8   8   8   4   8
#     4  11  24  45  68 106 139 190 240 294 372 435
#     4  12  27  46  78 108 149 194 248 312 383 454
#     4  12  27  49  73 105 148 192 255 309 376 448
#     4  10  24  44  72 102 152 182 236 302 364 454
#     4  12  27  46  73 103 145 194 245 308 368 446
#
# _framework density 21.540620000000001
#
# number of rings (size 3 to 8) (size 9 to 14) (size 15 to 20)
#    0.000    0.444    3.333    4.000    7.778    1.778 
#    0.000    0.000    0.000    0.000    0.000    0.000 
#    0.000    0.000    0.000    0.000    0.000    0.000 
#
# Total GULP energy -201352.613745 kJ/mol
# GULP energy per Si atom -5593.128160 kJ/mol
# Density = 2.149159 g / cm^3
# Si number density = 21.540620 Si / 1000 Ang^3
#
#
#
# Elastic Constant Matrix: (Units=GPa)
#
#
# Indices 1 2 3 4 5 6 
#
# 1 60.0369 2.1521 43.1871 0.0000 0.0000 0.0000
# 2 2.1521 143.6595 61.0284 0.0000 0.0000 0.0000
# 3 43.1871 61.0284 129.5105 0.0000 0.0000 0.0000
# 4 0.0000 0.0000 0.0000 22.5156 0.0000 0.0000
# 5 0.0000 0.0000 0.0000 0.0000 25.6338 0.0000
# 6 0.0000 0.0000 0.0000 0.0000 0.0000 16.9434
#
#
#
# Elastic Compliance Matrix: (Units=1/GPa)
#
#
# Indices 1 2 3 4 5 6 
#
# 1 0.023390 0.003705 -0.009545 0.000000 0.000000 0.000000
# 2 0.003705 0.009290 -0.005613 0.000000 0.000000 0.000000
# 3 -0.009545 -0.005613 0.013549 0.000000 0.000000 0.000000
# 4 0.000000 0.000000 0.000000 0.044414 0.000000 0.000000
# 5 0.000000 0.000000 0.000000 0.000000 0.039011 0.000000
# 6 0.000000 0.000000 0.000000 0.000000 0.000000 0.059020
#
#
# Mechanical properties :
#
#
# Convention : Reuss Voigt Hill
#
# Bulk Modulus (GPa) = 42.87836 60.66021 51.76929
# Shear Modulus (GPa) = 22.79404 28.14118 25.46761
#
# Velocity S-wave (km/s) = 3.25651 3.61837 3.44220
# Velocity P-wave (km/s) = 5.83857 6.75861 6.31536
#
# Compressibility (1/GPa) = 0.02332179
#
# Stress axis : x y z
#
# Youngs Moduli (GPa) = 42.75315 107.64417 73.80395
#
# Poissons Ratio (x) = -0.39878 0.70449
# Poissons Ratio (y) = -0.15838 0.41426
# Poissons Ratio (z) = 0.40810 0.60420
#
# Static dielectric constant tensor:
#      x y z
#    x 1.787210 0.000000 0.000000 
#    y 0.000000 1.743540 0.000000 
#    z 0.000000 0.000000 1.872920 
# 
# From -- ./inp_files/3718.got.cif
#   From: 2010.05.17/outbox.cif.g08.bks.cpg/sg60_2_cif.got.tgz:3718.got - 2010.06.03 14:59:27.
