data_PCOD9457077
_publ_section_title
;
Structure prediction by ZEFSAII (Michael W. Deem and Ramdas Pophale) SiO2 
 PCOD9457077
Probable space group: P B C N
;
_chemical_formula_sum "Si O2"
_cell_formula_units_Z 48
_cell_length_a 5.270725
_cell_length_b 20.652890
_cell_length_c 19.954906
_cell_angle_alpha 90.000000
_cell_angle_beta 90.000000
_cell_angle_gamma 90.000000
_cell_volume 2172.205334
_symmetry_space_group_name_H-M "P B C N"
_symmetry_group_IT_number 60
_symmetry_cell_setting 'orthorhombic'
loop_
_space_group_symop_operation_xyz
x,y,z
1/2-x,1/2-y,1/2+z
1/2+x,1/2-y,-z
-x,y,1/2-z
-x,-y,-z
1/2+x,1/2+y,1/2-z
1/2-x,1/2+y,z
x,-y,1/2+z
loop_
_atom_site_type_symbol
_atom_site_label
_atom_site_fract_x
_atom_site_fract_y
_atom_site_fract_z
Si Si1 0.641964 0.793467 0.572919
Si Si2 0.262304 0.093955 0.065153
Si Si3 0.059579 0.074448 0.676221
Si Si4 0.523163 0.348269 0.452547
Si Si5 0.051831 0.506924 0.348927
Si Si6 0.127439 0.123108 0.320842
O O1 0.382622 0.834440 0.575696
O O2 0.626667 0.717289 0.564332
O O3 0.776124 0.824647 0.507973
O O4 0.784248 0.812671 0.640994
O O5 0.459806 0.036382 0.079268
O O6 0.055546 0.089386 0.124133
O O7 0.139251 0.097791 0.992237
O O8 0.000000 0.102007 0.750000
O O9 0.126108 0.123467 0.616500
O O10 0.797912 0.038804 0.654180
O O11 0.305386 0.027919 0.681990
O O12 0.141395 0.573194 0.313650
O O13 0.000000 0.133803 0.250000
#
# Coordination Sequence:
#
# PCOD9457077 Si02
#       6
#     8   8   8   8   8   8
#     4  10  22  43  70  99 140 185 233 298 355 402
#     4  10  22  42  72 104 130 184 233 291 350 406
#     4  12  28  45  70 103 144 191 227 282 356 428
#     4  11  24  45  69  99 144 183 240 288 353 426
#     4  11  24  45  70 100 143 181 230 285 351 416
#     4  10  22  42  72 108 135 181 237 295 355 417
#
# _framework density 22.097356000000001
#
# number of rings (size 3 to 8) (size 9 to 14) (size 15 to 20)
#    0.000    1.333    3.333    1.000    4.667    3.333 
#    3.000    0.000    0.000    0.000    0.000    0.000 
#    0.000    0.000    0.000    0.000    0.000    0.000 
#
# Total GULP energy -268012.360559 kJ/mol
# GULP energy per Si atom -5583.590845 kJ/mol
# Density = 2.204706 g / cm^3
# Si number density = 22.097356 Si / 1000 Ang^3
#
#
#
# Elastic Constant Matrix: (Units=GPa)
#
#
# Indices 1 2 3 4 5 6 
#
# 1 93.2293 18.6268 42.6133 0.0000 0.0000 0.0000
# 2 18.6268 39.7992 57.5006 0.0000 0.0000 0.0000
# 3 42.6133 57.5006 183.9547 0.0000 0.0000 0.0000
# 4 0.0000 0.0000 0.0000 20.7880 0.0000 0.0000
# 5 0.0000 0.0000 0.0000 0.0000 20.0210 0.0000
# 6 0.0000 0.0000 0.0000 0.0000 0.0000 16.1847
#
#
#
# Elastic Compliance Matrix: (Units=1/GPa)
#
#
# Indices 1 2 3 4 5 6 
#
# 1 0.012185 -0.002963 -0.001897 0.000000 0.000000 0.000000
# 2 -0.002963 0.046538 -0.013861 0.000000 0.000000 0.000000
# 3 -0.001897 -0.013861 0.010208 0.000000 0.000000 0.000000
# 4 0.000000 0.000000 0.000000 0.048105 0.000000 0.000000
# 5 0.000000 0.000000 0.000000 0.000000 0.049947 0.000000
# 6 0.000000 0.000000 0.000000 0.000000 0.000000 0.061787
#
#
# Mechanical properties :
#
#
# Convention : Reuss Voigt Hill
#
# Bulk Modulus (GPa) = 31.75472 61.60714 46.68093
# Shear Modulus (GPa) = 18.06966 24.61490 21.34228
#
# Velocity S-wave (km/s) = 2.86270 3.34118 3.11115
# Velocity P-wave (km/s) = 5.03272 6.54408 5.83752
#
# Compressibility (1/GPa) = 0.03149138
#
# Stress axis : x y z
#
# Youngs Moduli (GPa) = 82.06760 21.48784 97.96238
#
# Poissons Ratio (x) = 0.06366 0.18580
# Poissons Ratio (y) = 0.24314 1.35781
# Poissons Ratio (z) = 0.15565 0.29783
#
# Static dielectric constant tensor:
#      x y z
#    x 1.924310 0.000000 0.000000 
#    y 0.000000 1.784480 0.000000 
#    z 0.000000 0.000000 1.809920 
# 
# From -- ./inp_files/21612.got.cif
#   From: 2010.05.17/outbox.cif.g08.bks.cpg/sg60_11_cif.got.tgz:21612.got - 2010.06.03 14:59:27.
