data_PCOD9457363
_publ_section_title
;
Structure prediction by ZEFSAII (Michael W. Deem and Ramdas Pophale) SiO2 
 PCOD9457363
Probable space group: P B C N
;
_chemical_formula_sum "Si O2"
_cell_formula_units_Z 48
_cell_length_a 8.094602
_cell_length_b 9.634966
_cell_length_c 25.503356
_cell_angle_alpha 90.000000
_cell_angle_beta 90.000000
_cell_angle_gamma 90.000000
_cell_volume 1989.037722
_symmetry_space_group_name_H-M "P B C N"
_symmetry_group_IT_number 60
_symmetry_cell_setting 'orthorhombic'
loop_
_space_group_symop_operation_xyz
x,y,z
1/2-x,1/2-y,1/2+z
1/2+x,1/2-y,-z
-x,y,1/2-z
-x,-y,-z
1/2+x,1/2+y,1/2-z
1/2-x,1/2+y,z
x,-y,1/2+z
loop_
_atom_site_type_symbol
_atom_site_label
_atom_site_fract_x
_atom_site_fract_y
_atom_site_fract_z
Si Si1 0.336015 0.068475 0.777402
Si Si2 0.606613 0.213788 0.611937
Si Si3 0.768631 0.976013 0.554647
Si Si4 0.675460 0.184936 0.268045
Si Si5 0.748242 0.635190 0.384708
Si Si6 0.626365 0.622466 0.943796
O O1 0.500000 0.005395 0.750000
O O2 0.345325 0.138737 0.833471
O O3 0.290034 0.181615 0.735150
O O4 0.237030 0.925803 0.771653
O O5 0.716720 0.347864 0.595546
O O6 0.424351 0.279384 0.614580
O O7 0.630509 0.088929 0.569779
O O8 0.776691 0.904053 0.497872
O O9 0.938522 0.067592 0.553948
O O10 0.500000 0.246886 0.250000
O O11 0.673575 0.135669 0.327592
O O12 0.861467 0.719669 0.425334
O O13 0.710417 0.479801 0.401891
#
# Coordination Sequence:
#
# PCOD9457363 Si02
#       6
#     8   8   8   8   8   8
#     4  11  23  43  62  93 131 165 218 274 325 395
#     4  11  23  41  66  94 131 171 218 272 329 395
#     4  10  23  42  64  99 131 171 223 272 334 400
#     4  11  25  41  65  93 127 168 217 266 326 393
#     4  11  23  41  65  94 130 173 215 274 332 392
#     4  10  23  41  66  95 135 171 219 276 333 403
#
# _framework density 24.132270999999999
#
# number of rings (size 3 to 8) (size 9 to 14) (size 15 to 20)
#    0.000    1.333    1.667    3.000    4.667    2.667 
#    0.000    0.000    0.000    0.000    0.000    0.000 
#    0.000    0.000    0.000    0.000    0.000    0.000 
#
# Total GULP energy -268147.409805 kJ/mol
# GULP energy per Si atom -5586.404371 kJ/mol
# Density = 2.407734 g / cm^3
# Si number density = 24.132271 Si / 1000 Ang^3
#
#
#
# Elastic Constant Matrix: (Units=GPa)
#
#
# Indices 1 2 3 4 5 6 
#
# 1 18.5951 -6.7654 6.8064 0.0000 0.0000 0.0000
# 2 -6.7654 70.9888 -16.6402 0.0000 0.0000 0.0000
# 3 6.8064 -16.6402 85.3239 0.0000 0.0000 0.0000
# 4 0.0000 0.0000 0.0000 111.9185 0.0000 0.0000
# 5 0.0000 0.0000 0.0000 0.0000 27.6806 0.0000
# 6 0.0000 0.0000 0.0000 0.0000 0.0000 11.0464
#
#
#
# Elastic Compliance Matrix: (Units=1/GPa)
#
#
# Indices 1 2 3 4 5 6 
#
# 1 0.056768 0.004557 -0.003640 0.000000 0.000000 0.000000
# 2 0.004557 0.015127 0.002587 0.000000 0.000000 0.000000
# 3 -0.003640 0.002587 0.012515 0.000000 0.000000 0.000000
# 4 0.000000 0.000000 0.000000 0.008935 0.000000 0.000000
# 5 0.000000 0.000000 0.000000 0.000000 0.036126 0.000000
# 6 0.000000 0.000000 0.000000 0.000000 0.000000 0.090527
#
#
# Mechanical properties :
#
#
# Convention : Reuss Voigt Hill
#
# Bulk Modulus (GPa) = 10.93879 15.74548 13.34214
# Shear Modulus (GPa) = 20.53698 42.89625 31.71662
#
# Velocity S-wave (km/s) = 2.92038 4.22067 3.62924
# Velocity P-wave (km/s) = 3.98926 5.50372 4.80651
#
# Compressibility (1/GPa) = 0.09141778
#
# Stress axis : x y z
#
# Youngs Moduli (GPa) = 17.61565 66.10547 79.90504
#
# Poissons Ratio (x) = -0.30124 0.29083
# Poissons Ratio (y) = -0.08027 -0.20669
# Poissons Ratio (z) = 0.06412 -0.17099
#
# Static dielectric constant tensor:
#      x y z
#    x 1.987570 0.000000 0.000000 
#    y 0.000000 1.877320 0.000000 
#    z 0.000000 0.000000 1.198360 
# 
# From -- ./inp_files/25944.got.cif
#   From: 2010.05.17/outbox.cif.g08.bks.cpg/sg60_13_cif.got.tgz:25944.got - 2010.06.03 14:59:27.
