data_PCOD9457392
_publ_section_title
;
Structure prediction by ZEFSAII (Michael W. Deem and Ramdas Pophale) SiO2 
 PCOD9457392
Probable space group: P B C N
;
_chemical_formula_sum "Si O2"
_cell_formula_units_Z 40
_cell_length_a 18.325455
_cell_length_b 19.018885
_cell_length_c 4.908375
_cell_angle_alpha 90.000000
_cell_angle_beta 90.000000
_cell_angle_gamma 90.000000
_cell_volume 1710.714570
_symmetry_space_group_name_H-M "P B C N"
_symmetry_group_IT_number 60
_symmetry_cell_setting 'orthorhombic'
loop_
_space_group_symop_operation_xyz
x,y,z
1/2-x,1/2-y,1/2+z
1/2+x,1/2-y,-z
-x,y,1/2-z
-x,-y,-z
1/2+x,1/2+y,1/2-z
1/2-x,1/2+y,z
x,-y,1/2+z
loop_
_atom_site_type_symbol
_atom_site_label
_atom_site_fract_x
_atom_site_fract_y
_atom_site_fract_z
Si Si1 0.838656 0.766688 0.672467
Si Si2 0.793360 0.362511 0.517644
Si Si3 0.836785 0.045568 0.882304
Si Si4 0.417407 0.048613 0.202094
Si Si5 0.583052 0.318395 0.179409
O O1 0.766418 0.815349 0.680484
O O2 0.867573 0.767440 0.365975
O O3 0.825266 0.690508 0.794622
O O4 0.897390 0.804272 0.867924
O O5 0.744175 0.421718 0.368307
O O6 0.854901 0.398738 0.699763
O O7 0.891837 0.104774 0.778622
O O8 0.846071 0.978171 0.692018
O O9 0.500000 0.076576 0.250000
O O10 0.411129 0.979224 0.394890
O O11 0.500000 0.306340 0.250000
#
# Coordination Sequence:
#
# PCOD9457392 Si02
#       5
#     8   8   8   8   8
#     4  11  25  41  68  98 128 178 222 265 333 387
#     4  11  23  43  66  95 135 168 218 277 319 387
#     4  11  23  38  64  97 126 169 217 263 329 386
#     4  10  23  42  66  96 130 170 214 265 328 391
#     4  11  25  46  66  95 136 172 219 274 322 391
#
# _framework density 23.38204
#
# number of rings (size 3 to 8) (size 9 to 14) (size 15 to 20)
#    0.000    1.200    0.000    6.600    0.000    9.600 
#    0.000    6.000    0.000    0.000    0.000    0.000 
#    0.000    0.000    0.000    0.000    0.000    0.000 
#
# Total GULP energy -224159.982618 kJ/mol
# GULP energy per Si atom -5603.999565 kJ/mol
# Density = 2.332882 g / cm^3
# Si number density = 23.382040 Si / 1000 Ang^3
#
#
#
# Elastic Constant Matrix: (Units=GPa)
#
#
# Indices 1 2 3 4 5 6 
#
# 1 102.5352 -0.6065 -10.4095 0.0000 0.0000 0.0000
# 2 -0.6065 31.9887 0.6765 0.0000 0.0000 0.0000
# 3 -10.4095 0.6765 59.9594 0.0000 0.0000 0.0000
# 4 0.0000 0.0000 0.0000 40.3493 0.0000 0.0000
# 5 0.0000 0.0000 0.0000 0.0000 29.6273 0.0000
# 6 0.0000 0.0000 0.0000 0.0000 0.0000 21.2075
#
#
#
# Elastic Compliance Matrix: (Units=1/GPa)
#
#
# Indices 1 2 3 4 5 6 
#
# 1 0.009928 0.000152 0.001722 0.000000 0.000000 0.000000
# 2 0.000152 0.031271 -0.000326 0.000000 0.000000 0.000000
# 3 0.001722 -0.000326 0.016981 0.000000 0.000000 0.000000
# 4 0.000000 0.000000 0.000000 0.024784 0.000000 0.000000
# 5 0.000000 0.000000 0.000000 0.000000 0.033753 0.000000
# 6 0.000000 0.000000 0.000000 0.000000 0.000000 0.047153
#
#
# Mechanical properties :
#
#
# Convention : Reuss Voigt Hill
#
# Bulk Modulus (GPa) = 16.31999 19.31159 17.81579
# Shear Modulus (GPa) = 27.59391 31.89168 29.74279
#
# Velocity S-wave (km/s) = 3.43903 3.69716 3.57043
# Velocity P-wave (km/s) = 4.77118 5.14805 4.96319
#
# Compressibility (1/GPa) = 0.06127455
#
# Stress axis : x y z
#
# Youngs Moduli (GPa) = 100.72056 31.97867 58.89084
#
# Poissons Ratio (x) = -0.00486 -0.10141
# Poissons Ratio (y) = -0.01529 0.01922
# Poissons Ratio (z) = -0.17344 0.01044
#
# Static dielectric constant tensor:
#      x y z
#    x 1.846590 0.000000 0.000000 
#    y 0.000000 1.885790 0.000000 
#    z 0.000000 0.000000 1.832610 
# 
# From -- ./inp_files/1627.got.cif
#   From: 2010.05.17/outbox.cif.g08.bks.cpg/sg60_1_cif.got.tgz:1627.got - 2010.06.03 14:59:27.
