data_PCOD9457863
_publ_section_title
;
Structure prediction by ZEFSAII (Michael W. Deem and Ramdas Pophale) SiO2 
 PCOD9457863
Probable space group: P B C N
;
_chemical_formula_sum "Si O2"
_cell_formula_units_Z 20
_cell_length_a 15.685754
_cell_length_b 8.516082
_cell_length_c 5.416269
_cell_angle_alpha 90.000000
_cell_angle_beta 90.000000
_cell_angle_gamma 90.000000
_cell_volume 723.511535
_symmetry_space_group_name_H-M "P B C N"
_symmetry_group_IT_number 60
_symmetry_cell_setting 'orthorhombic'
loop_
_space_group_symop_operation_xyz
x,y,z
1/2-x,1/2-y,1/2+z
1/2+x,1/2-y,-z
-x,y,1/2-z
-x,-y,-z
1/2+x,1/2+y,1/2-z
1/2-x,1/2+y,z
x,-y,1/2+z
loop_
_atom_site_type_symbol
_atom_site_label
_atom_site_fract_x
_atom_site_fract_y
_atom_site_fract_z
Si Si1 0.881569 0.345064 0.132811
Si Si2 0.000000 0.361209 0.750000
Si Si3 0.192120 0.904384 0.533699
O O1 0.858354 0.249047 0.378604
O O2 0.925623 0.512615 0.183298
O O3 0.955009 0.264817 0.966175
O O4 0.792272 0.360408 0.988346
O O5 0.176040 0.980239 0.266680
#
# Coordination Sequence:
#
# PCOD9457863 Si02
#       3
#     8   4   8
#     4  11  24  45  78 113 162 201 266 319 395 463
#     4  10  24  48  78 118 152 214 254 334 382 478
#     4  12  26  46  76 115 152 207 254 323 382 476
#
# _framework density 27.642959000000001
#
# number of rings (size 3 to 8) (size 9 to 14) (size 15 to 20)
#    0.000    0.800    4.000    2.400    0.000    6.400 
#    0.000    6.000    0.000    0.000    0.000    0.000 
#    0.000    0.000    0.000    0.000    0.000    0.000 
#
# Total GULP energy -111941.587505 kJ/mol
# GULP energy per Si atom -5597.079375 kJ/mol
# Density = 2.758004 g / cm^3
# Si number density = 27.642959 Si / 1000 Ang^3
#
#
#
# Elastic Constant Matrix: (Units=GPa)
#
#
# Indices 1 2 3 4 5 6 
#
# 1 176.5793 80.6074 56.0393 0.0000 0.0000 0.0000
# 2 80.6074 119.4012 77.5087 0.0000 0.0000 0.0000
# 3 56.0393 77.5087 189.5775 0.0000 0.0000 0.0000
# 4 0.0000 0.0000 0.0000 67.9547 0.0000 0.0000
# 5 0.0000 0.0000 0.0000 0.0000 79.2655 0.0000
# 6 0.0000 0.0000 0.0000 0.0000 0.0000 45.6816
#
#
#
# Elastic Compliance Matrix: (Units=1/GPa)
#
#
# Indices 1 2 3 4 5 6 
#
# 1 0.008193 -0.005389 -0.000218 0.000000 0.000000 0.000000
# 2 -0.005389 0.014946 -0.004518 0.000000 0.000000 0.000000
# 3 -0.000218 -0.004518 0.007186 0.000000 0.000000 0.000000
# 4 0.000000 0.000000 0.000000 0.014716 0.000000 0.000000
# 5 0.000000 0.000000 0.000000 0.000000 0.012616 0.000000
# 6 0.000000 0.000000 0.000000 0.000000 0.000000 0.021891
#
#
# Mechanical properties :
#
#
# Convention : Reuss Voigt Hill
#
# Bulk Modulus (GPa) = 99.25768 101.54100 100.39934
# Shear Modulus (GPa) = 48.47067 56.67387 52.57227
#
# Velocity S-wave (km/s) = 4.19197 4.53284 4.36573
# Velocity P-wave (km/s) = 7.70812 8.01301 7.86204
#
# Compressibility (1/GPa) = 0.01007479
#
# Stress axis : x y z
#
# Youngs Moduli (GPa) = 122.06251 66.90861 139.15019
#
# Poissons Ratio (x) = 0.36057 0.03040
# Poissons Ratio (y) = 0.65779 0.62862
# Poissons Ratio (z) = 0.02666 0.30227
#
# Static dielectric constant tensor:
#      x y z
#    x 2.130970 0.000000 0.000000 
#    y 0.000000 2.204070 0.000000 
#    z 0.000000 0.000000 2.633050 
# 
# From -- ./inp_files/1523.got.cif
#   From: 2010.05.17/outbox.cif.g08.bks.cpg/sg60_1_cif.got.tgz:1523.got - 2010.06.03 14:59:27.
