data_PCOD9457353
_publ_section_title
;
Structure prediction by ZEFSAII (Michael W. Deem and Ramdas Pophale) SiO2 
 PCOD9457353
Probable space group: P B C N
;
_chemical_formula_sum "Si O2"
_cell_formula_units_Z 60
_cell_length_a 27.562610
_cell_length_b 5.775666
_cell_length_c 17.420572
_cell_angle_alpha 90.000000
_cell_angle_beta 90.000000
_cell_angle_gamma 90.000000
_cell_volume 2773.223179
_symmetry_space_group_name_H-M "P B C N"
_symmetry_group_IT_number 60
_symmetry_cell_setting 'orthorhombic'
loop_
_space_group_symop_operation_xyz
x,y,z
1/2-x,1/2-y,1/2+z
1/2+x,1/2-y,-z
-x,y,1/2-z
-x,-y,-z
1/2+x,1/2+y,1/2-z
1/2-x,1/2+y,z
x,-y,1/2+z
loop_
_atom_site_type_symbol
_atom_site_label
_atom_site_fract_x
_atom_site_fract_y
_atom_site_fract_z
Si Si1 0.873779 0.101191 0.373441
Si Si2 0.276120 0.439855 0.054325
Si Si3 0.372434 0.594289 0.790442
Si Si4 0.040985 0.047344 0.390537
Si Si5 0.053152 0.161904 0.550358
Si Si6 0.775776 0.942879 0.629597
Si Si7 0.399929 0.043644 0.185724
Si Si8 0.500000 0.163054 0.750000
O O1 0.826792 0.964851 0.400592
O O2 0.864461 0.366315 0.356934
O O3 0.890932 0.027736 0.287881
O O4 0.917301 0.077070 0.434239
O O5 0.252177 0.185949 0.070939
O O6 0.285360 0.445179 0.962311
O O7 0.412745 0.575581 0.855058
O O8 0.324251 0.478361 0.821207
O O9 0.368961 0.849706 0.755652
O O10 0.055756 0.214242 0.460847
O O11 0.014505 0.182288 0.322707
O O12 0.002276 0.869054 0.425501
O O13 0.080689 0.314660 0.612126
O O14 0.746382 0.185633 0.645298
O O15 0.451269 0.972855 0.225497
#
# Coordination Sequence:
#
# PCOD9457353 Si02
#       8
#     8   8   8   8   8   8   8   4
#     4  11  23  42  63  93 130 169 220 279 332 410
#     4  10  24  45  68  96 130 177 223 280 347 412
#     4  11  24  41  65  95 131 170 223 277 351 401
#     4  11  21  42  63  93 131 178 214 282 326 408
#     4  10  23  41  63  90 132 172 228 263 334 403
#     4  10  24  46  70  98 135 173 226 286 348 415
#     4  11  23  40  62  94 127 177 216 277 332 408
#     4  12  20  40  64  90 138 172 224 272 342 392
#
# _framework density 21.635477000000002
#
# number of rings (size 3 to 8) (size 9 to 14) (size 15 to 20)
#    0.000    1.333    2.667    2.400    5.600    1.600 
#    7.200    0.000    0.000    0.000    0.000    0.000 
#    0.000    0.000    0.000    0.000    0.000    0.000 
#
# Total GULP energy -334198.132222 kJ/mol
# GULP energy per Si atom -5569.968870 kJ/mol
# Density = 2.158623 g / cm^3
# Si number density = 21.635477 Si / 1000 Ang^3
#
#
#
# Elastic Constant Matrix: (Units=GPa)
#
#
# Indices 1 2 3 4 5 6 
#
# 1 49.5956 0.8031 29.4369 0.0000 0.0000 0.0000
# 2 0.8031 49.4420 17.2359 0.0000 0.0000 0.0000
# 3 29.4369 17.2359 112.8263 0.0000 0.0000 0.0000
# 4 0.0000 0.0000 0.0000 -16.7974 0.0000 0.0000
# 5 0.0000 0.0000 0.0000 0.0000 36.9684 0.0000
# 6 0.0000 0.0000 0.0000 0.0000 0.0000 23.4152
#
#
#
# Elastic Compliance Matrix: (Units=1/GPa)
#
#
# Indices 1 2 3 4 5 6 
#
# 1 0.024025 0.001896 -0.006558 0.000000 0.000000 0.000000
# 2 0.001896 0.021513 -0.003781 0.000000 0.000000 0.000000
# 3 -0.006558 -0.003781 0.011152 0.000000 0.000000 0.000000
# 4 0.000000 0.000000 0.000000 -0.059533 0.000000 0.000000
# 5 0.000000 0.000000 0.000000 0.000000 0.027050 0.000000
# 6 0.000000 0.000000 0.000000 0.000000 0.000000 0.042707
#
#
# Mechanical properties :
#
#
# Convention : Reuss Voigt Hill
#
# Bulk Modulus (GPa) = 25.12345 34.09065 29.60705
# Shear Modulus (GPa) = 51.51055 19.67645 35.59350
#
# Velocity S-wave (km/s) = 4.88468 3.01899 4.06044
# Velocity P-wave (km/s) = 6.59172 5.28615 5.97470
#
# Compressibility (1/GPa) = 0.03980345
#
# Stress axis : x y z
#
# Youngs Moduli (GPa) = 41.62392 46.48346 89.67210
#
# Poissons Ratio (x) = -0.08813 0.58805
# Poissons Ratio (y) = -0.07891 0.33906
# Poissons Ratio (z) = 0.27296 0.17576
#
# Static dielectric constant tensor:
#      x y z
#    x 1.779740 0.000000 0.000000 
#    y 0.000000 2.194340 0.000000 
#    z 0.000000 0.000000 1.746760 
# 
# From -- ./inp_files/21211.got.cif
#   From: 2010.05.17/outbox.cif.g08.bks.cpg/sg60_11_cif.got.tgz:21211.got - 2010.06.03 14:59:27.
