data_PCOD9457658
_publ_section_title
;
Structure prediction by ZEFSAII (Michael W. Deem and Ramdas Pophale) SiO2 
 PCOD9457658
Probable space group: P B C N
;
_chemical_formula_sum "Si O2"
_cell_formula_units_Z 32
_cell_length_a 5.137198
_cell_length_b 15.318114
_cell_length_c 15.755415
_cell_angle_alpha 90.000000
_cell_angle_beta 90.000000
_cell_angle_gamma 90.000000
_cell_volume 1239.828026
_symmetry_space_group_name_H-M "P B C N"
_symmetry_group_IT_number 60
_symmetry_cell_setting 'orthorhombic'
loop_
_space_group_symop_operation_xyz
x,y,z
1/2-x,1/2-y,1/2+z
1/2+x,1/2-y,-z
-x,y,1/2-z
-x,-y,-z
1/2+x,1/2+y,1/2-z
1/2-x,1/2+y,z
x,-y,1/2+z
loop_
_atom_site_type_symbol
_atom_site_label
_atom_site_fract_x
_atom_site_fract_y
_atom_site_fract_z
Si Si1 0.441391 0.294682 0.540401
Si Si2 0.178575 0.584578 0.499035
Si Si3 0.250697 0.078781 0.693688
Si Si4 0.350405 0.875031 0.666841
O O1 0.695971 0.240096 0.513814
O O2 0.515556 0.395912 0.518055
O O3 0.361853 0.304936 0.637478
O O4 0.188157 0.614087 0.598600
O O5 0.000000 0.500000 0.500000
O O6 0.054465 0.622746 0.411394
O O7 0.500000 0.096900 0.750000
O O8 0.000000 0.105231 0.750000
O O9 0.238841 0.972580 0.681454
O O10 0.500000 0.848133 0.750000
#
# Coordination Sequence:
#
# PCOD9457658 Si02
#       4
#     8   8   8   8
#     4  12  26  47  74 104 154 201 256 313 387 457
#     4  10  24  46  78 111 148 197 253 325 380 449
#     4  10  24  40  71 112 148 186 248 317 383 445
#     4  10  24  45  76 108 147 198 259 312 377 463
#
# _framework density 25.810030000000001
#
# number of rings (size 3 to 8) (size 9 to 14) (size 15 to 20)
#    0.000    1.500    2.500    0.000   14.000    2.000 
#    0.000    1.250   11.000    0.000    0.000    0.000 
#    0.000    0.000    0.000    0.000    0.000    0.000 
#
# Total GULP energy -178181.325515 kJ/mol
# GULP energy per Si atom -5568.166422 kJ/mol
# Density = 2.575129 g / cm^3
# Si number density = 25.810030 Si / 1000 Ang^3
#
#
#
# Elastic Constant Matrix: (Units=GPa)
#
#
# Indices 1 2 3 4 5 6 
#
# 1 178.7565 53.2448 80.3520 0.0000 0.0000 0.0000
# 2 53.2448 70.0059 38.2656 0.0000 0.0000 0.0000
# 3 80.3520 38.2656 226.6213 0.0000 0.0000 0.0000
# 4 0.0000 0.0000 0.0000 22.1814 0.0000 0.0000
# 5 0.0000 0.0000 0.0000 0.0000 58.7218 0.0000
# 6 0.0000 0.0000 0.0000 0.0000 0.0000 10.3131
#
#
#
# Elastic Compliance Matrix: (Units=1/GPa)
#
#
# Indices 1 2 3 4 5 6 
#
# 1 0.007969 -0.004976 -0.001985 0.000000 0.000000 0.000000
# 2 -0.004976 0.018844 -0.001418 0.000000 0.000000 0.000000
# 3 -0.001985 -0.001418 0.005356 0.000000 0.000000 0.000000
# 4 0.000000 0.000000 0.000000 0.045083 0.000000 0.000000
# 5 0.000000 0.000000 0.000000 0.000000 0.017029 0.000000
# 6 0.000000 0.000000 0.000000 0.000000 0.000000 0.096964
#
#
# Mechanical properties :
#
#
# Convention : Reuss Voigt Hill
#
# Bulk Modulus (GPa) = 64.88751 91.01205 77.94978
# Shear Modulus (GPa) = 23.45888 38.47801 30.96844
#
# Velocity S-wave (km/s) = 3.01808 3.86530 3.46766
# Velocity P-wave (km/s) = 6.11065 7.43368 6.80439
#
# Compressibility (1/GPa) = 0.01541129
#
# Stress axis : x y z
#
# Youngs Moduli (GPa) = 125.49212 53.06814 186.70917
#
# Poissons Ratio (x) = 0.26405 0.37067
# Poissons Ratio (y) = 0.62440 0.26469
# Poissons Ratio (z) = 0.24913 0.07523
#
# Static dielectric constant tensor:
#      x y z
#    x 2.079460 0.000000 0.000000 
#    y 0.000000 2.445720 0.000000 
#    z 0.000000 0.000000 2.024490 
# 
# From -- ./inp_files/13684.got.cif
#   From: 2010.05.17/outbox.cif.g08.bks.cpg/sg60_7_cif.got.tgz:13684.got - 2010.06.03 14:59:27.
