data_PCOD9457749
_publ_section_title
;
Structure prediction by ZEFSAII (Michael W. Deem and Ramdas Pophale) SiO2 
 PCOD9457749
Probable space group: P B C N
;
_chemical_formula_sum "Si O2"
_cell_formula_units_Z 36
_cell_length_a 19.222554
_cell_length_b 8.068465
_cell_length_c 9.447731
_cell_angle_alpha 90.000000
_cell_angle_beta 90.000000
_cell_angle_gamma 90.000000
_cell_volume 1465.310050
_symmetry_space_group_name_H-M "P B C N"
_symmetry_group_IT_number 60
_symmetry_cell_setting 'orthorhombic'
loop_
_space_group_symop_operation_xyz
x,y,z
1/2-x,1/2-y,1/2+z
1/2+x,1/2-y,-z
-x,y,1/2-z
-x,-y,-z
1/2+x,1/2+y,1/2-z
1/2-x,1/2+y,z
x,-y,1/2+z
loop_
_atom_site_type_symbol
_atom_site_label
_atom_site_fract_x
_atom_site_fract_y
_atom_site_fract_z
Si Si1 0.613110 0.267780 0.957244
Si Si2 0.611507 0.647316 0.028387
Si Si3 0.286755 0.167840 0.758255
Si Si4 0.857523 0.686817 0.249713
Si Si5 0.500000 0.731084 0.250000
O O1 0.689084 0.220689 0.899317
O O2 0.559697 0.186750 0.845082
O O3 0.614387 0.466699 0.958501
O O4 0.594886 0.208134 0.113280
O O5 0.674589 0.712930 0.128111
O O6 0.545305 0.638284 0.132176
O O7 0.607645 0.778916 0.900091
O O8 0.204247 0.177569 0.767553
O O9 0.316842 0.984321 0.769791
#
# Coordination Sequence:
#
# PCOD9457749 Si02
#       5
#     8   8   8   8   4
#     4  11  23  42  66  95 129 171 216 265 316 378
#     4  11  23  42  66  95 129 171 216 265 316 378
#     4  11  24  42  64 101 135 165 208 264 327 390
#     4  12  23  41  68  97 132 172 210 262 325 388
#     4  10  24  44  66  94 128 168 226 268 308 374
#
# _framework density 24.568180999999999
#
# number of rings (size 3 to 8) (size 9 to 14) (size 15 to 20)
#    0.000    0.889    0.000    8.667    0.000    0.889 
#    0.000   17.778    0.000    2.667    0.000    0.000 
#    0.000    0.000    0.000    0.000    0.000    0.000 
#
# Total GULP energy -201242.608617 kJ/mol
# GULP energy per Si atom -5590.072462 kJ/mol
# Density = 2.451226 g / cm^3
# Si number density = 24.568181 Si / 1000 Ang^3
#
#
#
# Elastic Constant Matrix: (Units=GPa)
#
#
# Indices 1 2 3 4 5 6 
#
# 1 52.6350 11.7947 37.7779 0.0000 0.0000 0.0000
# 2 11.7947 94.4751 12.0073 0.0000 0.0000 0.0000
# 3 37.7779 12.0073 155.5774 0.0000 0.0000 0.0000
# 4 0.0000 0.0000 0.0000 12.1499 0.0000 0.0000
# 5 0.0000 0.0000 0.0000 0.0000 39.8408 0.0000
# 6 0.0000 0.0000 0.0000 0.0000 0.0000 4.1523
#
#
#
# Elastic Compliance Matrix: (Units=1/GPa)
#
#
# Indices 1 2 3 4 5 6 
#
# 1 0.023464 -0.002227 -0.005526 0.000000 0.000000 0.000000
# 2 -0.002227 0.010901 -0.000301 0.000000 0.000000 0.000000
# 3 -0.005526 -0.000301 0.007793 0.000000 0.000000 0.000000
# 4 0.000000 0.000000 0.000000 0.082305 0.000000 0.000000
# 5 0.000000 0.000000 0.000000 0.000000 0.025100 0.000000
# 6 0.000000 0.000000 0.000000 0.000000 0.000000 0.240830
#
#
# Mechanical properties :
#
#
# Convention : Reuss Voigt Hill
#
# Bulk Modulus (GPa) = 38.38639 47.31637 42.85138
# Shear Modulus (GPa) = 12.04290 27.30244 19.67267
#
# Velocity S-wave (km/s) = 2.21641 3.33722 2.83280
# Velocity P-wave (km/s) = 4.71257 5.84384 5.30842
#
# Compressibility (1/GPa) = 0.02605090
#
# Stress axis : x y z
#
# Youngs Moduli (GPa) = 42.61886 91.73445 128.32628
#
# Poissons Ratio (x) = 0.20430 0.70909
# Poissons Ratio (y) = 0.09491 0.03857
# Poissons Ratio (z) = 0.23550 0.02757
#
# Static dielectric constant tensor:
#      x y z
#    x 2.013090 0.000000 0.000000 
#    y 0.000000 1.943820 0.000000 
#    z 0.000000 0.000000 1.989630 
# 
# From -- ./inp_files/7170.got.cif
#   From: 2010.05.17/outbox.cif.g08.bks.cpg/sg60_4_cif.got.tgz:7170.got - 2010.06.03 14:59:27.
