data_PCOD9457662
_publ_section_title
;
Structure prediction by ZEFSAII (Michael W. Deem and Ramdas Pophale) SiO2 
 PCOD9457662
Probable space group: P B C N
;
_chemical_formula_sum "Si O2"
_cell_formula_units_Z 40
_cell_length_a 19.208609
_cell_length_b 8.983169
_cell_length_c 10.864325
_cell_angle_alpha 90.000000
_cell_angle_beta 90.000000
_cell_angle_gamma 90.000000
_cell_volume 1874.684701
_symmetry_space_group_name_H-M "P B C N"
_symmetry_group_IT_number 60
_symmetry_cell_setting 'orthorhombic'
loop_
_space_group_symop_operation_xyz
x,y,z
1/2-x,1/2-y,1/2+z
1/2+x,1/2-y,-z
-x,y,1/2-z
-x,-y,-z
1/2+x,1/2+y,1/2-z
1/2-x,1/2+y,z
x,-y,1/2+z
loop_
_atom_site_type_symbol
_atom_site_label
_atom_site_fract_x
_atom_site_fract_y
_atom_site_fract_z
Si Si1 0.186467 0.479089 0.468306
Si Si2 0.034683 0.428853 0.379605
Si Si3 0.246456 0.781550 0.128743
Si Si4 0.687386 0.529453 0.211880
Si Si5 0.534526 0.572504 0.120442
O O1 0.115769 0.470691 0.392173
O O2 0.196416 0.626516 0.550954
O O3 0.200128 0.334611 0.551919
O O4 0.251432 0.486169 0.378854
O O5 0.026960 0.250720 0.387853
O O6 0.000000 0.476950 0.250000
O O7 0.000000 0.500000 0.500000
O O8 0.290078 0.685355 0.227060
O O9 0.193299 0.902276 0.184652
O O10 0.615713 0.536402 0.139269
O O11 0.500000 0.523684 0.250000
O O12 0.500000 0.500000 0.000000
#
# Coordination Sequence:
#
# PCOD9457662 Si02
#       5
#     8   8   8   8   8
#     4  11  24  44  72 103 140 185 244 294 363 432
#     4  11  28  48  71 105 147 191 238 297 363 429
#     4  10  24  40  77 104 140 183 244 303 362 424
#     4  11  24  45  72 104 141 185 246 296 360 432
#     4  11  28  47  72 105 148 190 238 296 363 431
#
# _framework density 21.336921
#
# number of rings (size 3 to 8) (size 9 to 14) (size 15 to 20)
#    0.000    1.200    0.000    3.600   19.600    2.400 
#    0.000    0.000    0.000    0.000    0.000    0.000 
#    0.000    0.000    0.000    0.000    0.000    0.000 
#
# Total GULP energy -223805.410238 kJ/mol
# GULP energy per Si atom -5595.135256 kJ/mol
# Density = 2.128836 g / cm^3
# Si number density = 21.336921 Si / 1000 Ang^3
#
#
#
# Elastic Constant Matrix: (Units=GPa)
#
#
# Indices 1 2 3 4 5 6 
#
# 1 172.2619 8.0520 66.0234 0.0000 0.0000 0.0000
# 2 8.0520 177.5539 105.3894 0.0000 0.0000 0.0000
# 3 66.0234 105.3894 181.7176 0.0000 0.0000 0.0000
# 4 0.0000 0.0000 0.0000 -110.8927 0.0000 0.0000
# 5 0.0000 0.0000 0.0000 0.0000 50.7591 0.0000
# 6 0.0000 0.0000 0.0000 0.0000 0.0000 17.5608
#
#
#
# Elastic Compliance Matrix: (Units=1/GPa)
#
#
# Indices 1 2 3 4 5 6 
#
# 1 0.007121 0.001850 -0.003660 0.000000 0.000000 0.000000
# 2 0.001850 0.009069 -0.005932 0.000000 0.000000 0.000000
# 3 -0.003660 -0.005932 0.010273 0.000000 0.000000 0.000000
# 4 0.000000 0.000000 0.000000 -0.009018 0.000000 0.000000
# 5 0.000000 0.000000 0.000000 0.000000 0.019701 0.000000
# 6 0.000000 0.000000 0.000000 0.000000 0.000000 0.056945
#
#
# Mechanical properties :
#
#
# Convention : Reuss Voigt Hill
#
# Bulk Modulus (GPa) = 91.08267 98.94034 95.01150
# Shear Modulus (GPa) = 44.15559 14.95670 29.55614
#
# Velocity S-wave (km/s) = 4.55405 2.65047 3.72588
# Velocity P-wave (km/s) = 8.39244 7.47247 7.94578
#
# Compressibility (1/GPa) = 0.01097904
#
# Stress axis : x y z
#
# Youngs Moduli (GPa) = 140.42004 110.26504 97.34213
#
# Poissons Ratio (x) = -0.20394 0.35628
# Poissons Ratio (y) = -0.25971 0.57741
# Poissons Ratio (z) = 0.51395 0.65406
#
# Static dielectric constant tensor:
#      x y z
#    x 1.744610 0.000000 0.000000 
#    y 0.000000 1.550460 0.000000 
#    z 0.000000 0.000000 1.825430 
# 
# From -- ./inp_files/12284.got.cif
#   From: 2010.05.17/outbox.cif.g08.bks.cpg/sg60_7_cif.got.tgz:12284.got - 2010.06.03 14:59:27.
