data_PCOD9457969
_publ_section_title
;
Structure prediction by ZEFSAII (Michael W. Deem and Ramdas Pophale) SiO2 
 PCOD9457969
Probable space group: P B C N
;
_chemical_formula_sum "Si O2"
_cell_formula_units_Z 28
_cell_length_a 6.607575
_cell_length_b 9.491618
_cell_length_c 16.176066
_cell_angle_alpha 90.000000
_cell_angle_beta 90.000000
_cell_angle_gamma 90.000000
_cell_volume 1014.507502
_symmetry_space_group_name_H-M "P B C N"
_symmetry_group_IT_number 60
_symmetry_cell_setting 'orthorhombic'
loop_
_space_group_symop_operation_xyz
x,y,z
1/2-x,1/2-y,1/2+z
1/2+x,1/2-y,-z
-x,y,1/2-z
-x,-y,-z
1/2+x,1/2+y,1/2-z
1/2-x,1/2+y,z
x,-y,1/2+z
loop_
_atom_site_type_symbol
_atom_site_label
_atom_site_fract_x
_atom_site_fract_y
_atom_site_fract_z
Si Si1 0.399699 0.823082 0.975339
Si Si2 0.500000 0.926556 0.750000
Si Si3 0.334671 0.534840 0.876505
Si Si4 0.289071 0.350025 0.621129
O O1 0.368606 0.686742 0.916206
O O2 0.223007 0.926796 0.950034
O O3 0.610202 0.887832 0.944160
O O4 0.391663 0.777135 0.070708
O O5 0.650699 0.016427 0.689819
O O6 0.656528 0.825758 0.797820
O O7 0.551548 0.468820 0.852448
#
# Coordination Sequence:
#
# PCOD9457969 Si02
#       4
#     8   4   8   8
#     4  11  25  44  80 106 143 194 252 308 375 433
#     4  10  26  46  72 104 154 200 242 310 384 432
#     4  11  25  51  70 111 145 194 250 310 369 453
#     4  11  23  46  72 111 145 192 245 313 365 451
#
# _framework density 27.599598
#
# number of rings (size 3 to 8) (size 9 to 14) (size 15 to 20)
#    0.000    1.143    2.857    1.714    0.000    9.143 
#   30.857    0.000    0.000    0.000    0.000    0.000 
#    0.000    0.000    0.000    0.000    0.000    0.000 
#
# Total GULP energy -156637.407541 kJ/mol
# GULP energy per Si atom -5594.193126 kJ/mol
# Density = 2.753678 g / cm^3
# Si number density = 27.599598 Si / 1000 Ang^3
#
#
#
# Elastic Constant Matrix: (Units=GPa)
#
#
# Indices 1 2 3 4 5 6 
#
# 1 174.1681 45.3401 56.6670 0.0000 0.0000 0.0000
# 2 45.3401 127.9629 46.8475 0.0000 0.0000 0.0000
# 3 56.6670 46.8475 142.1025 0.0000 0.0000 0.0000
# 4 0.0000 0.0000 0.0000 31.4068 0.0000 0.0000
# 5 0.0000 0.0000 0.0000 0.0000 80.3130 0.0000
# 6 0.0000 0.0000 0.0000 0.0000 0.0000 32.9302
#
#
#
# Elastic Compliance Matrix: (Units=1/GPa)
#
#
# Indices 1 2 3 4 5 6 
#
# 1 0.006884 -0.001631 -0.002208 0.000000 0.000000 0.000000
# 2 -0.001631 0.009274 -0.002407 0.000000 0.000000 0.000000
# 3 -0.002208 -0.002407 0.008711 0.000000 0.000000 0.000000
# 4 0.000000 0.000000 0.000000 0.031840 0.000000 0.000000
# 5 0.000000 0.000000 0.000000 0.000000 0.012451 0.000000
# 6 0.000000 0.000000 0.000000 0.000000 0.000000 0.030367
#
#
# Mechanical properties :
#
#
# Convention : Reuss Voigt Hill
#
# Bulk Modulus (GPa) = 80.78797 82.43807 81.61302
# Shear Modulus (GPa) = 43.04948 48.62192 45.83570
#
# Velocity S-wave (km/s) = 3.95370 4.20180 4.07964
# Velocity P-wave (km/s) = 7.08359 7.31261 7.19901
#
# Compressibility (1/GPa) = 0.01237808
#
# Stress axis : x y z
#
# Youngs Moduli (GPa) = 145.25462 107.82973 114.79716
#
# Poissons Ratio (x) = 0.17588 0.25343
# Poissons Ratio (y) = 0.23693 0.27631
# Poissons Ratio (z) = 0.32067 0.25954
#
# Static dielectric constant tensor:
#      x y z
#    x 2.238260 0.000000 0.000000 
#    y 0.000000 2.147650 0.000000 
#    z 0.000000 0.000000 2.251730 
# 
# From -- ./inp_files/21348.got.cif
#   From: 2010.05.17/outbox.cif.g08.bks.cpg/sg60_11_cif.got.tgz:21348.got - 2010.06.03 14:59:27.
