data_PCOD9457336
_publ_section_title
;
Structure prediction by ZEFSAII (Michael W. Deem and Ramdas Pophale) SiO2 
 PCOD9457336
Probable space group: P B C N
;
_chemical_formula_sum "Si O2"
_cell_formula_units_Z 64
_cell_length_a 5.291675
_cell_length_b 31.037031
_cell_length_c 16.740934
_cell_angle_alpha 90.000000
_cell_angle_beta 90.000000
_cell_angle_gamma 90.000000
_cell_volume 2749.495526
_symmetry_space_group_name_H-M "P B C N"
_symmetry_group_IT_number 60
_symmetry_cell_setting 'orthorhombic'
loop_
_space_group_symop_operation_xyz
x,y,z
1/2-x,1/2-y,1/2+z
1/2+x,1/2-y,-z
-x,y,1/2-z
-x,-y,-z
1/2+x,1/2+y,1/2-z
1/2-x,1/2+y,z
x,-y,1/2+z
loop_
_atom_site_type_symbol
_atom_site_label
_atom_site_fract_x
_atom_site_fract_y
_atom_site_fract_z
Si Si1 0.641407 0.138685 0.543126
Si Si2 0.996243 0.070993 0.461997
Si Si3 0.914067 0.325062 0.874769
Si Si4 0.702141 0.006998 0.928774
Si Si5 0.479515 0.332308 0.159856
Si Si6 0.848826 0.585484 0.831722
Si Si7 0.106342 0.126806 0.330381
Si Si8 0.302594 0.740373 0.552295
O O1 0.869291 0.111113 0.505060
O O2 0.524439 0.162513 0.467489
O O3 0.480062 0.103179 0.588108
O O4 0.756880 0.168173 0.612550
O O5 0.179117 0.091404 0.396552
O O6 0.099230 0.039202 0.528795
O O7 0.804687 0.040616 0.413182
O O8 0.150967 0.342397 0.824684
O O9 0.643154 0.346096 0.855475
O O10 0.877309 0.274276 0.878502
O O11 0.652310 0.034307 0.848714
O O12 0.500000 0.000000 0.000000
O O13 0.500000 0.315153 0.250000
O O14 0.390937 0.382294 0.169680
O O15 0.301521 0.305254 0.099229
O O16 0.000000 0.593929 0.750000
O O17 0.000000 0.105794 0.250000
O O18 0.538892 0.743881 0.488870
#
# Coordination Sequence:
#
# PCOD9457336 Si02
#       8
#     8   8   8   8   8   8   8   8
#     4  11  21  42  68  96 132 180 232 277 345 430
#     4  10  23  40  68  94 127 181 228 288 341 425
#     4  11  24  44  74 102 136 189 231 287 347 421
#     4  11  22  41  63  95 129 172 236 283 350 415
#     4  12  26  43  67 102 144 182 230 296 357 425
#     4  12  24  41  67  98 139 184 229 291 362 424
#     4  11  25  46  70 102 139 181 234 288 353 414
#     4  12  26  46  73 107 141 184 240 289 344 420
#
# _framework density 23.276999
#
# number of rings (size 3 to 8) (size 9 to 14) (size 15 to 20)
#    0.000    0.750    5.000    2.625    5.250    1.000 
#    2.250    0.625    0.000    0.000    0.000    0.000 
#    0.000    0.000    0.000    0.000    0.000    0.000 
#
# Total GULP energy -356975.944273 kJ/mol
# GULP energy per Si atom -5577.749129 kJ/mol
# Density = 2.322402 g / cm^3
# Si number density = 23.276999 Si / 1000 Ang^3
#
#
#
# Elastic Constant Matrix: (Units=GPa)
#
#
# Indices 1 2 3 4 5 6 
#
# 1 80.9027 -0.5231 21.4423 0.0000 0.0000 0.0000
# 2 -0.5231 58.3464 18.0744 0.0000 0.0000 0.0000
# 3 21.4423 18.0744 93.2744 0.0000 0.0000 0.0000
# 4 0.0000 0.0000 0.0000 27.3151 0.0000 0.0000
# 5 0.0000 0.0000 0.0000 0.0000 36.0466 0.0000
# 6 0.0000 0.0000 0.0000 0.0000 0.0000 27.3124
#
#
#
# Elastic Compliance Matrix: (Units=1/GPa)
#
#
# Indices 1 2 3 4 5 6 
#
# 1 0.013232 0.001129 -0.003261 0.000000 0.000000 0.000000
# 2 0.001129 0.018330 -0.003811 0.000000 0.000000 0.000000
# 3 -0.003261 -0.003811 0.012209 0.000000 0.000000 0.000000
# 4 0.000000 0.000000 0.000000 0.036610 0.000000 0.000000
# 5 0.000000 0.000000 0.000000 0.000000 0.027742 0.000000
# 6 0.000000 0.000000 0.000000 0.000000 0.000000 0.036613
#
#
# Mechanical properties :
#
#
# Convention : Reuss Voigt Hill
#
# Bulk Modulus (GPa) = 31.36320 34.50120 32.93220
# Shear Modulus (GPa) = 29.89527 31.03682 30.46605
#
# Velocity S-wave (km/s) = 3.58764 3.65549 3.62172
# Velocity P-wave (km/s) = 5.53757 5.71586 5.62742
#
# Compressibility (1/GPa) = 0.03188450
#
# Stress axis : x y z
#
# Youngs Moduli (GPa) = 75.57446 54.55595 81.90575
#
# Poissons Ratio (x) = -0.06158 0.26706
# Poissons Ratio (y) = -0.08530 0.31217
# Poissons Ratio (z) = 0.24641 0.20793
#
# Static dielectric constant tensor:
#      x y z
#    x 2.214640 0.000000 0.000000 
#    y 0.000000 1.981950 0.000000 
#    z 0.000000 0.000000 1.940110 
# 
# From -- ./inp_files/18857.got.cif
#   From: 2010.05.17/outbox.cif.g08.bks.cpg/sg60_10_cif.got.tgz:18857.got - 2010.06.03 14:59:27.
