data_PCOD9457087
_publ_section_title
;
Structure prediction by ZEFSAII (Michael W. Deem and Ramdas Pophale) SiO2 
 PCOD9457087
Probable space group: P B C N
;
_chemical_formula_sum "Si O2"
_cell_formula_units_Z 40
_cell_length_a 9.855696
_cell_length_b 9.433246
_cell_length_c 16.012955
_cell_angle_alpha 90.000000
_cell_angle_beta 90.000000
_cell_angle_gamma 90.000000
_cell_volume 1488.743720
_symmetry_space_group_name_H-M "P B C N"
_symmetry_group_IT_number 60
_symmetry_cell_setting 'orthorhombic'
loop_
_space_group_symop_operation_xyz
x,y,z
1/2-x,1/2-y,1/2+z
1/2+x,1/2-y,-z
-x,y,1/2-z
-x,-y,-z
1/2+x,1/2+y,1/2-z
1/2-x,1/2+y,z
x,-y,1/2+z
loop_
_atom_site_type_symbol
_atom_site_label
_atom_site_fract_x
_atom_site_fract_y
_atom_site_fract_z
Si Si1 0.344717 0.317969 0.166777
Si Si2 0.179253 0.459960 0.773338
Si Si3 0.465834 0.579241 0.342592
Si Si4 0.826672 0.813472 0.979106
Si Si5 0.374644 0.966991 0.940415
O O1 0.359593 0.179603 0.223650
O O2 0.236909 0.422606 0.211650
O O3 0.475073 0.418636 0.157296
O O4 0.281984 0.263660 0.080912
O O5 0.304915 0.420869 0.836097
O O6 0.081925 0.513840 0.846374
O O7 0.500000 0.640016 0.250000
O O8 0.545257 0.649657 0.419308
O O9 0.863552 0.702287 0.050069
O O10 0.751660 0.947762 0.018824
O O11 0.500000 0.000000 0.000000
#
# Coordination Sequence:
#
# PCOD9457087 Si02
#       5
#     8   8   8   8   8
#     4  11  21  45  74 106 133 184 241 287 348 416
#     4  11  25  45  71 104 143 183 239 287 356 419
#     4  10  22  42  77  99 133 184 237 293 351 403
#     4  12  24  47  70 103 145 182 241 289 353 421
#     4  12  30  46  69 107 146 191 230 289 364 423
#
# _framework density 26.868292
#
# number of rings (size 3 to 8) (size 9 to 14) (size 15 to 20)
#    0.000    0.800    6.000    1.200    5.600    7.200 
#    0.000    2.000    0.000    0.000    0.000    0.000 
#    0.000    0.000    0.000    0.000    0.000    0.000 
#
# Total GULP energy -224282.066606 kJ/mol
# GULP energy per Si atom -5607.051665 kJ/mol
# Density = 2.680714 g / cm^3
# Si number density = 26.868292 Si / 1000 Ang^3
#
#
#
# Elastic Constant Matrix: (Units=GPa)
#
#
# Indices 1 2 3 4 5 6 
#
# 1 61.8519 23.4780 -16.4395 0.0000 0.0000 0.0000
# 2 23.4780 126.4133 45.2305 0.0000 0.0000 0.0000
# 3 -16.4395 45.2305 98.7386 0.0000 0.0000 0.0000
# 4 0.0000 0.0000 0.0000 66.2105 0.0000 0.0000
# 5 0.0000 0.0000 0.0000 0.0000 46.8391 0.0000
# 6 0.0000 0.0000 0.0000 0.0000 0.0000 32.1526
#
#
#
# Elastic Compliance Matrix: (Units=1/GPa)
#
#
# Indices 1 2 3 4 5 6 
#
# 1 0.019993 -0.005866 0.006016 0.000000 0.000000 0.000000
# 2 -0.005866 0.011182 -0.006099 0.000000 0.000000 0.000000
# 3 0.006016 -0.006099 0.013923 0.000000 0.000000 0.000000
# 4 0.000000 0.000000 0.000000 0.015103 0.000000 0.000000
# 5 0.000000 0.000000 0.000000 0.000000 0.021350 0.000000
# 6 0.000000 0.000000 0.000000 0.000000 0.000000 0.031102
#
#
# Mechanical properties :
#
#
# Convention : Reuss Voigt Hill
#
# Bulk Modulus (GPa) = 30.11994 43.50463 36.81228
# Shear Modulus (GPa) = 36.86840 44.68945 40.77892
#
# Velocity S-wave (km/s) = 3.70833 4.08276 3.90004
# Velocity P-wave (km/s) = 5.43784 6.20098 5.83191
#
# Compressibility (1/GPa) = 0.03320060
#
# Stress axis : x y z
#
# Youngs Moduli (GPa) = 50.01748 89.42845 71.82281
#
# Poissons Ratio (x) = 0.52455 -0.43206
# Poissons Ratio (y) = 0.29338 0.43804
# Poissons Ratio (z) = -0.30089 0.54542
#
# Static dielectric constant tensor:
#      x y z
#    x 2.451200 0.000000 0.000000 
#    y 0.000000 0.644490 0.000000 
#    z 0.000000 0.000000 2.389910 
# 
# From -- ./inp_files/19823.got.cif
#   From: 2010.05.17/outbox.cif.g08.bks.cpg/sg60_10_cif.got.tgz:19823.got - 2010.06.03 14:59:27.
