data_PCOD9457932
_publ_section_title
;
Structure prediction by ZEFSAII (Michael W. Deem and Ramdas Pophale) SiO2 
 PCOD9457932
Probable space group: P B C N
;
_chemical_formula_sum "Si O2"
_cell_formula_units_Z 40
_cell_length_a 8.313224
_cell_length_b 10.360432
_cell_length_c 17.971224
_cell_angle_alpha 90.000000
_cell_angle_beta 90.000000
_cell_angle_gamma 90.000000
_cell_volume 1547.836219
_symmetry_space_group_name_H-M "P B C N"
_symmetry_group_IT_number 60
_symmetry_cell_setting 'orthorhombic'
loop_
_space_group_symop_operation_xyz
x,y,z
1/2-x,1/2-y,1/2+z
1/2+x,1/2-y,-z
-x,y,1/2-z
-x,-y,-z
1/2+x,1/2+y,1/2-z
1/2-x,1/2+y,z
x,-y,1/2+z
loop_
_atom_site_type_symbol
_atom_site_label
_atom_site_fract_x
_atom_site_fract_y
_atom_site_fract_z
Si Si1 0.737826 0.243617 0.617200
Si Si2 0.086675 0.309337 0.022624
Si Si3 0.169202 0.660478 0.229416
Si Si4 0.774844 0.949526 0.920378
Si Si5 0.001450 0.923833 0.330697
O O1 0.574828 0.224027 0.569952
O O2 0.882002 0.305231 0.566417
O O3 0.728111 0.318011 0.695913
O O4 0.815942 0.112571 0.648077
O O5 0.150499 0.449870 0.046267
O O6 0.203424 0.189334 0.044166
O O7 0.243486 0.575359 0.165941
O O8 0.110015 0.796601 0.190213
O O9 0.000000 0.596892 0.250000
O O10 0.943492 0.021213 0.909950
O O11 0.000000 0.990230 0.250000
#
# Coordination Sequence:
#
# PCOD9457932 Si02
#       5
#     8   8   8   8   8
#     4  10  25  49  75 113 148 205 241 316 367 456
#     4  12  28  47  77 109 153 194 256 299 391 432
#     4   9  22  46  73 105 150 192 253 302 368 428
#     4  12  25  48  73 110 147 194 249 314 361 458
#     4   9  21  45  69 103 152 187 242 307 363 431
#
# _framework density 25.842527
#
# number of rings (size 3 to 8) (size 9 to 14) (size 15 to 20)
#    0.000    2.000    2.000    1.200    5.600    7.200 
#    7.200    0.000    0.000    0.000    0.000    0.000 
#    0.000    0.000    0.000    0.000    0.000    0.000 
#
# Total GULP energy -223003.674308 kJ/mol
# GULP energy per Si atom -5575.091858 kJ/mol
# Density = 2.578371 g / cm^3
# Si number density = 25.842527 Si / 1000 Ang^3
#
#
#
# Elastic Constant Matrix: (Units=GPa)
#
#
# Indices 1 2 3 4 5 6 
#
# 1 84.2201 49.3317 48.1258 0.0000 0.0000 0.0000
# 2 49.3317 67.4058 47.3797 0.0000 0.0000 0.0000
# 3 48.1258 47.3797 155.2263 0.0000 0.0000 0.0000
# 4 0.0000 0.0000 0.0000 -16.0269 0.0000 0.0000
# 5 0.0000 0.0000 0.0000 0.0000 42.8254 0.0000
# 6 0.0000 0.0000 0.0000 0.0000 0.0000 18.2047
#
#
#
# Elastic Compliance Matrix: (Units=1/GPa)
#
#
# Indices 1 2 3 4 5 6 
#
# 1 0.021444 -0.014031 -0.002366 0.000000 0.000000 0.000000
# 2 -0.014031 0.028069 -0.004217 0.000000 0.000000 0.000000
# 3 -0.002366 -0.004217 0.008463 0.000000 0.000000 0.000000
# 4 0.000000 0.000000 0.000000 -0.062395 0.000000 0.000000
# 5 0.000000 0.000000 0.000000 0.000000 0.023351 0.000000
# 6 0.000000 0.000000 0.000000 0.000000 0.000000 0.054931
#
#
# Mechanical properties :
#
#
# Convention : Reuss Voigt Hill
#
# Bulk Modulus (GPa) = 59.71074 66.28074 62.99574
# Shear Modulus (GPa) = 41.43399 19.80163 30.61781
#
# Velocity S-wave (km/s) = 4.00850 2.77111 3.44580
# Velocity P-wave (km/s) = 6.67681 5.99519 6.34516
#
# Compressibility (1/GPa) = 0.01674740
#
# Stress axis : x y z
#
# Youngs Moduli (GPa) = 46.63235 35.62664 118.16304
#
# Poissons Ratio (x) = 0.49989 0.27954
# Poissons Ratio (y) = 0.65432 0.49832
# Poissons Ratio (z) = 0.11032 0.15025
#
# Static dielectric constant tensor:
#      x y z
#    x 2.312650 0.000000 0.000000 
#    y 0.000000 2.162500 0.000000 
#    z 0.000000 0.000000 2.041200 
# 
# From -- ./inp_files/19026.got.cif
#   From: 2010.05.17/outbox.cif.g08.bks.cpg/sg60_10_cif.got.tgz:19026.got - 2010.06.03 14:59:27.
