data_PCOD9457022
_publ_section_title
;
Structure prediction by ZEFSAII (Michael W. Deem and Ramdas Pophale) SiO2 
 PCOD9457022
Probable space group: P B C N
;
_chemical_formula_sum "Si O2"
_cell_formula_units_Z 64
_cell_length_a 8.646982
_cell_length_b 28.613904
_cell_length_c 11.470240
_cell_angle_alpha 90.000000
_cell_angle_beta 90.000000
_cell_angle_gamma 90.000000
_cell_volume 2838.011662
_symmetry_space_group_name_H-M "P B C N"
_symmetry_group_IT_number 60
_symmetry_cell_setting 'orthorhombic'
loop_
_space_group_symop_operation_xyz
x,y,z
1/2-x,1/2-y,1/2+z
1/2+x,1/2-y,-z
-x,y,1/2-z
-x,-y,-z
1/2+x,1/2+y,1/2-z
1/2-x,1/2+y,z
x,-y,1/2+z
loop_
_atom_site_type_symbol
_atom_site_label
_atom_site_fract_x
_atom_site_fract_y
_atom_site_fract_z
Si Si1 0.817693 0.307981 0.991982
Si Si2 0.181712 0.990621 0.502466
Si Si3 0.529185 0.737324 0.390915
Si Si4 0.324650 0.084836 0.403256
Si Si5 0.370155 0.342439 0.038738
Si Si6 0.313479 0.833168 0.254418
Si Si7 0.314874 0.909530 0.637694
Si Si8 0.118724 0.087254 0.838498
O O1 0.978394 0.280805 0.023497
O O2 0.759100 0.309131 0.126000
O O3 0.704896 0.277493 0.913723
O O4 0.804630 0.360653 0.937883
O O5 0.227733 0.958603 0.611624
O O6 0.210442 0.951288 0.406364
O O7 0.263555 0.037931 0.464919
O O8 0.000000 0.000000 0.500000
O O9 0.500000 0.743015 0.250000
O O10 0.433766 0.693427 0.443134
O O11 0.265135 0.126177 0.484629
O O12 0.506332 0.079371 0.385369
O O13 0.270726 0.098601 0.272377
O O14 0.287861 0.316098 0.146265
O O15 0.508054 0.377557 0.085003
O O16 0.500000 0.835144 0.250000
O O17 0.246233 0.884776 0.267979
O O18 0.000000 0.063784 0.750000
#
# Coordination Sequence:
#
# PCOD9457022 Si02
#       8
#     8   8   8   8   8   8   8   8
#     4  12  27  51  75 108 151 192 248 310 374 453
#     4  12  24  43  70 103 143 194 251 308 364 454
#     4  12  29  49  76 113 144 191 256 303 376 449
#     4  11  26  44  74 105 152 197 248 303 383 456
#     4  11  23  46  73 104 146 197 240 312 369 442
#     4  11  23  43  75 103 144 195 245 299 372 445
#     4  11  26  50  69 108 153 194 245 314 386 444
#     4  10  22  42  65 103 140 191 246 294 366 420
#
# _framework density 22.550999999999998
#
# number of rings (size 3 to 8) (size 9 to 14) (size 15 to 20)
#    0.000    0.750    3.750    2.250    7.000    0.000 
#    2.250    0.000    0.000    0.000    0.000    0.000 
#    0.000    0.000    0.000    0.000    0.000    0.000 
#
# Total GULP energy -356529.334629 kJ/mol
# GULP energy per Si atom -5570.770854 kJ/mol
# Density = 2.249967 g / cm^3
# Si number density = 22.551000 Si / 1000 Ang^3
#
#
#
# Elastic Constant Matrix: (Units=GPa)
#
#
# Indices 1 2 3 4 5 6 
#
# 1 47.5715 23.8730 16.6809 0.0000 0.0000 0.0000
# 2 23.8730 116.3431 34.5432 0.0000 0.0000 0.0000
# 3 16.6809 34.5432 108.4909 0.0000 0.0000 0.0000
# 4 0.0000 0.0000 0.0000 10.5916 0.0000 0.0000
# 5 0.0000 0.0000 0.0000 0.0000 30.5859 0.0000
# 6 0.0000 0.0000 0.0000 0.0000 0.0000 28.2278
#
#
#
# Elastic Compliance Matrix: (Units=1/GPa)
#
#
# Indices 1 2 3 4 5 6 
#
# 1 0.023960 -0.004222 -0.002340 0.000000 0.000000 0.000000
# 2 -0.004222 0.010237 -0.002610 0.000000 0.000000 0.000000
# 3 -0.002340 -0.002610 0.010408 0.000000 0.000000 0.000000
# 4 0.000000 0.000000 0.000000 0.094415 0.000000 0.000000
# 5 0.000000 0.000000 0.000000 0.000000 0.032695 0.000000
# 6 0.000000 0.000000 0.000000 0.000000 0.000000 0.035426
#
#
# Mechanical properties :
#
#
# Convention : Reuss Voigt Hill
#
# Bulk Modulus (GPa) = 38.07877 46.95552 42.51715
# Shear Modulus (GPa) = 21.34585 27.03495 24.19040
#
# Velocity S-wave (km/s) = 3.07996 3.46618 3.27876
# Velocity P-wave (km/s) = 5.43787 6.07341 5.76441
#
# Compressibility (1/GPa) = 0.02626135
#
# Stress axis : x y z
#
# Youngs Moduli (GPa) = 41.73615 97.68935 96.07824
#
# Poissons Ratio (x) = 0.41242 0.22480
# Poissons Ratio (y) = 0.17620 0.25078
# Poissons Ratio (z) = 0.09765 0.25499
#
# Static dielectric constant tensor:
#      x y z
#    x 1.894110 0.000000 0.000000 
#    y 0.000000 1.921790 0.000000 
#    z 0.000000 0.000000 2.521380 
# 
# From -- ./inp_files/10376.got.cif
#   From: 2010.05.17/outbox.cif.g08.bks.cpg/sg60_6_cif.got.tgz:10376.got - 2010.06.03 14:59:27.
