data_PCOD9457790
_publ_section_title
;
Structure prediction by ZEFSAII (Michael W. Deem and Ramdas Pophale) SiO2 
 PCOD9457790
Probable space group: P B C N
;
_chemical_formula_sum "Si O2"
_cell_formula_units_Z 20
_cell_length_a 7.988051
_cell_length_b 21.371825
_cell_length_c 4.965524
_cell_angle_alpha 90.000000
_cell_angle_beta 90.000000
_cell_angle_gamma 90.000000
_cell_volume 847.710424
_symmetry_space_group_name_H-M "P B C N"
_symmetry_group_IT_number 60
_symmetry_cell_setting 'orthorhombic'
loop_
_space_group_symop_operation_xyz
x,y,z
1/2-x,1/2-y,1/2+z
1/2+x,1/2-y,-z
-x,y,1/2-z
-x,-y,-z
1/2+x,1/2+y,1/2-z
1/2-x,1/2+y,z
x,-y,1/2+z
loop_
_atom_site_type_symbol
_atom_site_label
_atom_site_fract_x
_atom_site_fract_y
_atom_site_fract_z
Si Si1 0.000000 0.128052 0.250000
Si Si2 0.176289 0.456206 0.844258
Si Si3 0.854330 0.761939 0.091481
O O1 0.838981 0.086354 0.185671
O O2 0.936248 0.174529 0.483045
O O3 0.181639 0.516096 0.644037
O O4 0.000000 0.425694 0.750000
O O5 0.715980 0.770644 0.323660
O O6 0.000000 0.725640 0.250000
#
# Coordination Sequence:
#
# PCOD9457790 Si02
#       3
#     4   8   8
#     4  12  26  44  82 104 142 204 244 298 380 438
#     4  10  24  45  71 110 149 181 236 304 368 450
#     4  12  26  48  69 102 148 193 253 309 363 432
#
# _framework density 23.592965
#
# number of rings (size 3 to 8) (size 9 to 14) (size 15 to 20)
#    0.000    0.800    4.000    1.200    5.600    1.600 
#    7.200    0.000    0.000    0.000    0.000    0.000 
#    0.000    0.000    0.000    0.000    0.000    0.000 
#
# Total GULP energy -111778.820060 kJ/mol
# GULP energy per Si atom -5588.941003 kJ/mol
# Density = 2.353927 g / cm^3
# Si number density = 23.592965 Si / 1000 Ang^3
#
#
#
# Elastic Constant Matrix: (Units=GPa)
#
#
# Indices 1 2 3 4 5 6 
#
# 1 209.4319 75.6233 52.7216 0.0000 0.0000 0.0000
# 2 75.6233 78.2523 24.1470 0.0000 0.0000 0.0000
# 3 52.7216 24.1470 152.3112 0.0000 0.0000 0.0000
# 4 0.0000 0.0000 0.0000 -88.1051 0.0000 0.0000
# 5 0.0000 0.0000 0.0000 0.0000 66.4047 0.0000
# 6 0.0000 0.0000 0.0000 0.0000 0.0000-6222.5064
#
#
#
# Elastic Compliance Matrix: (Units=1/GPa)
#
#
# Indices 1 2 3 4 5 6 
#
# 1 0.007669 -0.006932 -0.001556 0.000000 0.000000 0.000000
# 2 -0.006932 0.019701 -0.000724 0.000000 0.000000 0.000000
# 3 -0.001556 -0.000724 0.007219 0.000000 0.000000 0.000000
# 4 0.000000 0.000000 0.000000 -0.011350 0.000000 0.000000
# 5 0.000000 0.000000 0.000000 0.000000 0.015059 0.000000
# 6 0.000000 0.000000 0.000000 0.000000 0.000000 -0.000161
#
#
# Mechanical properties :
#
#
# Convention : Reuss Voigt Hill
#
# Bulk Modulus (GPa) = 61.85590 82.77545 72.31567
# Shear Modulus (GPa) = 80.71049 -1229.67445 -574.48198
#
# Velocity S-wave (km/s) = 5.85524 -22.85466 -15.62132
# Velocity P-wave (km/s) = 8.48449 25.71549 17.16537
#
# Compressibility (1/GPa) = 0.01616661
#
# Stress axis : x y z
#
# Youngs Moduli (GPa) = 130.38819 50.75792 138.52673
#
# Poissons Ratio (x) = 0.35184 0.21552
# Poissons Ratio (y) = 0.90381 0.10030
# Poissons Ratio (z) = 0.20286 0.03675
#
# Static dielectric constant tensor:
#      x y z
#    x 2.005950 0.000000 0.000000 
#    y 0.000000 1.860110 0.000000 
#    z 0.000000 0.000000 1.879430 
# 
# From -- ./inp_files/156.got.cif
#   From: 2010.05.17/outbox.cif.g08.bks.cpg/sg60_1_cif.got.tgz:156.got - 2010.06.03 14:59:27.
