data_PCOD9457636
_publ_section_title
;
Structure prediction by ZEFSAII (Michael W. Deem and Ramdas Pophale) SiO2 
 PCOD9457636
Probable space group: P B C N
;
_chemical_formula_sum "Si O2"
_cell_formula_units_Z 56
_cell_length_a 13.250468
_cell_length_b 23.340975
_cell_length_c 8.397225
_cell_angle_alpha 90.000000
_cell_angle_beta 90.000000
_cell_angle_gamma 90.000000
_cell_volume 2597.084027
_symmetry_space_group_name_H-M "P B C N"
_symmetry_group_IT_number 60
_symmetry_cell_setting 'orthorhombic'
loop_
_space_group_symop_operation_xyz
x,y,z
1/2-x,1/2-y,1/2+z
1/2+x,1/2-y,-z
-x,y,1/2-z
-x,-y,-z
1/2+x,1/2+y,1/2-z
1/2-x,1/2+y,z
x,-y,1/2+z
loop_
_atom_site_type_symbol
_atom_site_label
_atom_site_fract_x
_atom_site_fract_y
_atom_site_fract_z
Si Si1 0.943504 0.262408 0.421214
Si Si2 0.249727 0.194006 0.729859
Si Si3 0.552835 0.629501 0.423188
Si Si4 0.775841 0.998937 0.134575
Si Si5 0.626196 0.580252 0.868048
Si Si6 0.859677 0.299330 0.923320
Si Si7 0.777664 0.581898 0.390812
O O1 0.924648 0.195935 0.463565
O O2 0.023962 0.288629 0.540263
O O3 0.000000 0.260333 0.250000
O O4 0.843176 0.298578 0.392767
O O5 0.188167 0.136106 0.692648
O O6 0.297943 0.199367 0.906618
O O7 0.181365 0.248963 0.688330
O O8 0.500000 0.627520 0.250000
O O9 0.477774 0.603120 0.555050
O O10 0.658828 0.598081 0.402237
O O11 0.819107 0.044500 0.008816
O O12 0.711318 0.034697 0.257674
O O13 0.866992 0.966418 0.226375
O O14 0.706220 0.950218 0.056629
O O15 0.838406 0.361550 0.855068
#
# Coordination Sequence:
#
# PCOD9457636 Si02
#       7
#     8   8   8   8   8   8   8
#     4   9  20  36  59  91 122 155 190 237 310 362
#     4  11  22  39  64  90 120 158 196 248 305 355
#     4  11  20  34  59  91 125 162 196 242 299 373
#     4  10  24  39  58  83 120 168 202 249 290 355
#     4  11  22  39  59  86 122 160 205 245 299 357
#     4  11  22  39  64  90 120 158 196 248 305 355
#     4  11  22  39  59  86 122 160 205 245 299 357
#
# _framework density 21.562646000000001
#
# number of rings (size 3 to 8) (size 9 to 14) (size 15 to 20)
#    0.000    1.429    5.714    0.000    2.000    4.000 
#    0.000    2.143    0.000    5.143    0.000    0.000 
#    0.000    0.000    0.000    0.000    0.000    0.000 
#
# Total GULP energy -313066.455878 kJ/mol
# GULP energy per Si atom -5590.472426 kJ/mol
# Density = 2.151357 g / cm^3
# Si number density = 21.562646 Si / 1000 Ang^3
#
#
#
# Elastic Constant Matrix: (Units=GPa)
#
#
# Indices 1 2 3 4 5 6 
#
# 1 34.1986 14.8505 -6.5744 0.0000 0.0000 0.0000
# 2 14.8505 143.2071 31.2710 0.0000 0.0000 0.0000
# 3 -6.5744 31.2710 61.6853 0.0000 0.0000 0.0000
# 4 0.0000 0.0000 0.0000 32.0711 0.0000 0.0000
# 5 0.0000 0.0000 0.0000 0.0000 17.1263 0.0000
# 6 0.0000 0.0000 0.0000 0.0000 0.0000 23.6869
#
#
#
# Elastic Compliance Matrix: (Units=1/GPa)
#
#
# Indices 1 2 3 4 5 6 
#
# 1 0.032361 -0.004620 0.005791 0.000000 0.000000 0.000000
# 2 -0.004620 0.008512 -0.004807 0.000000 0.000000 0.000000
# 3 0.005791 -0.004807 0.019266 0.000000 0.000000 0.000000
# 4 0.000000 0.000000 0.000000 0.031181 0.000000 0.000000
# 5 0.000000 0.000000 0.000000 0.000000 0.058390 0.000000
# 6 0.000000 0.000000 0.000000 0.000000 0.000000 0.042217
#
#
# Mechanical properties :
#
#
# Convention : Reuss Voigt Hill
#
# Bulk Modulus (GPa) = 18.91609 35.35392 27.13500
# Shear Modulus (GPa) = 23.06054 27.87980 25.47017
#
# Velocity S-wave (km/s) = 3.27382 3.59969 3.44061
# Velocity P-wave (km/s) = 4.80439 5.80590 5.32873
#
# Compressibility (1/GPa) = 0.05286505
#
# Stress axis : x y z
#
# Youngs Moduli (GPa) = 30.90168 117.48407 51.90579
#
# Poissons Ratio (x) = 0.54282 -0.30060
# Poissons Ratio (y) = 0.14278 0.24953
# Poissons Ratio (z) = -0.17896 0.56480
#
# Static dielectric constant tensor:
#      x y z
#    x 1.770290 0.000000 0.000000 
#    y 0.000000 1.764920 0.000000 
#    z 0.000000 0.000000 1.850140 
# 
# From -- ./inp_files/6144.got.cif
#   From: 2010.05.17/outbox.cif.g08.bks.cpg/sg60_4_cif.got.tgz:6144.got - 2010.06.03 14:59:27.
