data_PCOD9457569
_publ_section_title
;
Structure prediction by ZEFSAII (Michael W. Deem and Ramdas Pophale) SiO2 
 PCOD9457569
Probable space group: P B C N
;
_chemical_formula_sum "Si O2"
_cell_formula_units_Z 32
_cell_length_a 9.755173
_cell_length_b 15.416575
_cell_length_c 8.768860
_cell_angle_alpha 90.000000
_cell_angle_beta 90.000000
_cell_angle_gamma 90.000000
_cell_volume 1318.760748
_symmetry_space_group_name_H-M "P B C N"
_symmetry_group_IT_number 60
_symmetry_cell_setting 'orthorhombic'
loop_
_space_group_symop_operation_xyz
x,y,z
1/2-x,1/2-y,1/2+z
1/2+x,1/2-y,-z
-x,y,1/2-z
-x,-y,-z
1/2+x,1/2+y,1/2-z
1/2-x,1/2+y,z
x,-y,1/2+z
loop_
_atom_site_type_symbol
_atom_site_label
_atom_site_fract_x
_atom_site_fract_y
_atom_site_fract_z
Si Si1 0.549090 0.806017 0.580484
Si Si2 0.702335 0.205095 0.642802
Si Si3 0.641710 0.566536 0.836997
Si Si4 0.794946 0.102112 0.170187
O O1 0.500000 0.781449 0.750000
O O2 0.425199 0.817059 0.464882
O O3 0.662420 0.732208 0.545360
O O4 0.638417 0.892345 0.609087
O O5 0.747135 0.132972 0.764031
O O6 0.670361 0.299558 0.714656
O O7 0.500000 0.581309 0.750000
O O8 0.686361 0.468919 0.797818
O O9 0.623247 0.579929 0.016375
#
# Coordination Sequence:
#
# PCOD9457569 Si02
#       4
#     8   8   8   8
#     4  10  23  46  69 102 146 190 248 309 369 436
#     4  10  23  45  75 101 150 190 251 302 378 430
#     4  12  25  48  75 112 152 196 251 306 381 451
#     4  10  27  43  75 107 144 201 242 317 362 449
#
# _framework density 24.265205999999999
#
# number of rings (size 3 to 8) (size 9 to 14) (size 15 to 20)
#    1.500    0.000    0.000    4.500    3.500    2.000 
#    4.500    0.000    0.000    0.000    0.000    0.000 
#    0.000    0.000    0.000    0.000    0.000    0.000 
#
# Total GULP energy -178848.179363 kJ/mol
# GULP energy per Si atom -5589.005605 kJ/mol
# Density = 2.420998 g / cm^3
# Si number density = 24.265206 Si / 1000 Ang^3
#
#
#
# Elastic Constant Matrix: (Units=GPa)
#
#
# Indices 1 2 3 4 5 6 
#
# 1 97.7666 10.5261 5.4853 0.0000 0.0000 0.0000
# 2 10.5261 114.2707 12.5374 0.0000 0.0000 0.0000
# 3 5.4853 12.5374 72.6285 0.0000 0.0000 0.0000
# 4 0.0000 0.0000 0.0000 -7.5408 0.0000 0.0000
# 5 0.0000 0.0000 0.0000 0.0000 37.2633 0.0000
# 6 0.0000 0.0000 0.0000 0.0000 0.0000 28.6757
#
#
#
# Elastic Compliance Matrix: (Units=1/GPa)
#
#
# Indices 1 2 3 4 5 6 
#
# 1 0.010359 -0.000885 -0.000630 0.000000 0.000000 0.000000
# 2 -0.000885 0.008996 -0.001486 0.000000 0.000000 0.000000
# 3 -0.000630 -0.001486 0.014073 0.000000 0.000000 0.000000
# 4 0.000000 0.000000 0.000000 -0.132611 0.000000 0.000000
# 5 0.000000 0.000000 0.000000 0.000000 0.026836 0.000000
# 6 0.000000 0.000000 0.000000 0.000000 0.000000 0.034873
#
#
# Mechanical properties :
#
#
# Convention : Reuss Voigt Hill
#
# Bulk Modulus (GPa) = 36.46167 37.97370 37.21768
# Shear Modulus (GPa) = -223.90084 28.75410 -97.57337
#
# Velocity S-wave (km/s) = -9.61627 3.44611 -6.34811
# Velocity P-wave (km/s) = 10.40375 5.61406 6.19356
#
# Compressibility (1/GPa) = 0.02742606
#
# Stress axis : x y z
#
# Youngs Moduli (GPa) = 96.53377 111.16389 71.05923
#
# Poissons Ratio (x) = 0.09840 0.04474
# Poissons Ratio (y) = 0.08545 0.10560
# Poissons Ratio (z) = 0.06077 0.16519
#
# Static dielectric constant tensor:
#      x y z
#    x 2.053870 0.000000 0.000000 
#    y 0.000000 1.939070 0.000000 
#    z 0.000000 0.000000 1.917310 
# 
# From -- ./inp_files/9596.got.cif
#   From: 2010.05.17/outbox.cif.g08.bks.cpg/sg60_5_cif.got.tgz:9596.got - 2010.06.03 14:59:27.
