data_PCOD9457696
_publ_section_title
;
Structure prediction by ZEFSAII (Michael W. Deem and Ramdas Pophale) SiO2 
 PCOD9457696
Probable space group: P B C N
;
_chemical_formula_sum "Si O2"
_cell_formula_units_Z 64
_cell_length_a 15.990124
_cell_length_b 12.534357
_cell_length_c 14.850482
_cell_angle_alpha 90.000000
_cell_angle_beta 90.000000
_cell_angle_gamma 90.000000
_cell_volume 2976.421557
_symmetry_space_group_name_H-M "P B C N"
_symmetry_group_IT_number 60
_symmetry_cell_setting 'orthorhombic'
loop_
_space_group_symop_operation_xyz
x,y,z
1/2-x,1/2-y,1/2+z
1/2+x,1/2-y,-z
-x,y,1/2-z
-x,-y,-z
1/2+x,1/2+y,1/2-z
1/2-x,1/2+y,z
x,-y,1/2+z
loop_
_atom_site_type_symbol
_atom_site_label
_atom_site_fract_x
_atom_site_fract_y
_atom_site_fract_z
Si Si1 0.648845 0.452791 0.710311
Si Si2 0.164293 0.396253 0.836249
Si Si3 0.622634 0.941121 0.848941
Si Si4 0.688073 0.372949 0.898521
Si Si5 0.413578 0.684677 0.801455
Si Si6 0.387699 0.845938 0.039212
Si Si7 0.091900 0.047679 0.486413
Si Si8 0.971604 0.746753 0.448954
O O1 0.743862 0.442271 0.675865
O O2 0.639559 0.388706 0.803021
O O3 0.623184 0.574197 0.730626
O O4 0.598994 0.427610 0.619593
O O5 0.110103 0.452428 0.758566
O O6 0.156889 0.274347 0.800371
O O7 0.134852 0.392321 0.939213
O O8 0.715834 0.897604 0.873329
O O9 0.561231 0.852577 0.891179
O O10 0.616776 0.055829 0.893926
O O11 0.671111 0.254322 0.935607
O O12 0.655950 0.462889 0.969597
O O13 0.500000 0.707708 0.750000
O O14 0.450688 0.691085 0.901778
O O15 0.482743 0.801844 0.035431
O O16 0.096792 0.162861 0.534853
O O17 0.000000 0.000000 0.500000
#
# Coordination Sequence:
#
# PCOD9457696 Si02
#       8
#     8   8   8   8   8   8   8   8
#     4  11  25  40  69 106 139 178 236 295 358 422
#     4  10  24  42  68 101 134 190 236 284 357 433
#     4  11  25  43  69  97 140 182 237 281 361 428
#     4  11  26  43  68 105 140 185 228 302 360 416
#     4  11  20  40  73  96 136 184 240 283 340 438
#     4  11  24  46  66  97 146 177 237 300 356 424
#     4  12  22  44  69 101 139 179 231 289 357 421
#     4  11  23  41  69  99 130 186 232 284 347 427
#
# _framework density 21.502331000000002
#
# number of rings (size 3 to 8) (size 9 to 14) (size 15 to 20)
#    0.000    1.000    3.750    2.625    3.500    3.000 
#    2.250    0.000    0.000    0.000    0.000    0.000 
#    0.000    0.000    0.000    0.000    0.000    0.000 
#
# Total GULP energy -357031.382775 kJ/mol
# GULP energy per Si atom -5578.615356 kJ/mol
# Density = 2.145339 g / cm^3
# Si number density = 21.502331 Si / 1000 Ang^3
#
#
#
# Elastic Constant Matrix: (Units=GPa)
#
#
# Indices 1 2 3 4 5 6 
#
# 1 60.1524 22.6168 6.7232 0.0000 0.0000 0.0000
# 2 22.6168 130.9400 54.7275 0.0000 0.0000 0.0000
# 3 6.7232 54.7275 125.1802 0.0000 0.0000 0.0000
# 4 0.0000 0.0000 0.0000 32.3433 0.0000 0.0000
# 5 0.0000 0.0000 0.0000 0.0000 28.7322 0.0000
# 6 0.0000 0.0000 0.0000 0.0000 0.0000 468.5286
#
#
#
# Elastic Compliance Matrix: (Units=1/GPa)
#
#
# Indices 1 2 3 4 5 6 
#
# 1 0.017802 -0.003273 0.000475 0.000000 0.000000 0.000000
# 2 -0.003273 0.009947 -0.004173 0.000000 0.000000 0.000000
# 3 0.000475 -0.004173 0.009787 0.000000 0.000000 0.000000
# 4 0.000000 0.000000 0.000000 0.030918 0.000000 0.000000
# 5 0.000000 0.000000 0.000000 0.000000 0.034804 0.000000
# 6 0.000000 0.000000 0.000000 0.000000 0.000000 0.002134
#
#
# Mechanical properties :
#
#
# Convention : Reuss Voigt Hill
#
# Bulk Modulus (GPa) = 42.38439 53.82307 48.10373
# Shear Modulus (GPa) = 39.30834 121.40116 80.35475
#
# Velocity S-wave (km/s) = 4.28026 7.52211 6.11975
# Velocity P-wave (km/s) = 6.64694 10.02639 8.50618
#
# Compressibility (1/GPa) = 0.02359359
#
# Stress axis : x y z
#
# Youngs Moduli (GPa) = 56.17305 100.53783 102.17390
#
# Poissons Ratio (x) = 0.32910 -0.04853
# Poissons Ratio (y) = 0.18388 0.42634
# Poissons Ratio (z) = -0.02668 0.41951
#
# Static dielectric constant tensor:
#      x y z
#    x 1.775370 0.000000 0.000000 
#    y 0.000000 1.813900 0.000000 
#    z 0.000000 0.000000 1.896110 
# 
# From -- ./inp_files/17488.got.cif
#   From: 2010.05.17/outbox.cif.g08.bks.cpg/sg60_9_cif.got.tgz:17488.got - 2010.06.03 14:59:27.
