data_PCOD9457329
_publ_section_title
;
Structure prediction by ZEFSAII (Michael W. Deem and Ramdas Pophale) SiO2 
 PCOD9457329
Probable space group: P B C N
;
_chemical_formula_sum "Si O2"
_cell_formula_units_Z 32
_cell_length_a 11.574213
_cell_length_b 13.644675
_cell_length_c 9.833274
_cell_angle_alpha 90.000000
_cell_angle_beta 90.000000
_cell_angle_gamma 90.000000
_cell_volume 1552.933315
_symmetry_space_group_name_H-M "P B C N"
_symmetry_group_IT_number 60
_symmetry_cell_setting 'orthorhombic'
loop_
_space_group_symop_operation_xyz
x,y,z
1/2-x,1/2-y,1/2+z
1/2+x,1/2-y,-z
-x,y,1/2-z
-x,-y,-z
1/2+x,1/2+y,1/2-z
1/2-x,1/2+y,z
x,-y,1/2+z
loop_
_atom_site_type_symbol
_atom_site_label
_atom_site_fract_x
_atom_site_fract_y
_atom_site_fract_z
Si Si1 0.268795 0.377323 0.377481
Si Si2 0.296789 0.515092 0.629974
Si Si3 0.000000 0.209976 0.750000
Si Si4 0.500000 0.383401 0.750000
Si Si5 0.888450 0.786390 0.508608
O O1 0.256718 0.443255 0.511198
O O2 0.218417 0.436197 0.247468
O O3 0.400710 0.352246 0.329811
O O4 0.207575 0.275872 0.414302
O O5 0.392070 0.452572 0.713803
O O6 0.346294 0.609033 0.549098
O O7 0.063203 0.265862 0.627185
O O8 0.482055 0.314744 0.879640
#
# Coordination Sequence:
#
# PCOD9457329 Si02
#       5
#     8   8   4   4   8
#     4  11  24  39  64 100 129 174 213 276 334 391
#     4  11  22  38  63  94 133 158 222 273 325 386
#     4  10  23  40  64  97 134 170 221 270 332 389
#     4  12  21  40  66 103 124 166 223 288 324 393
#     4  11  24  38  65  97 134 169 219 272 341 384
#
# _framework density 20.606162999999999
#
# number of rings (size 3 to 8) (size 9 to 14) (size 15 to 20)
#    0.000    1.000    5.000    3.750    7.000    0.000 
#    0.000    0.000    0.000   13.500    0.000    0.000 
#    0.000    0.000    0.000    0.000    0.000    0.000 
#
# Total GULP energy -178276.636520 kJ/mol
# GULP energy per Si atom -5571.144891 kJ/mol
# Density = 2.055926 g / cm^3
# Si number density = 20.606163 Si / 1000 Ang^3
#
#
#
# Elastic Constant Matrix: (Units=GPa)
#
#
# Indices 1 2 3 4 5 6 
#
# 1 33.4262 27.5519 23.6650 0.0000 0.0000 0.0000
# 2 27.5519 39.5717 31.8836 0.0000 0.0000 0.0000
# 3 23.6650 31.8836 157.3028 0.0000 0.0000 0.0000
# 4 0.0000 0.0000 0.0000 51.8476 0.0000 0.0000
# 5 0.0000 0.0000 0.0000 0.0000 26.1747 0.0000
# 6 0.0000 0.0000 0.0000 0.0000 0.0000 0.3924
#
#
#
# Elastic Compliance Matrix: (Units=1/GPa)
#
#
# Indices 1 2 3 4 5 6 
#
# 1 0.070290 -0.048309 -0.000783 0.000000 0.000000 0.000000
# 2 -0.048309 0.063405 -0.005584 0.000000 0.000000 0.000000
# 3 -0.000783 -0.005584 0.007607 0.000000 0.000000 0.000000
# 4 0.000000 0.000000 0.000000 0.019287 0.000000 0.000000
# 5 0.000000 0.000000 0.000000 0.000000 0.038205 0.000000
# 6 0.000000 0.000000 0.000000 0.000000 0.000000 2.548739
#
#
# Mechanical properties :
#
#
# Convention : Reuss Voigt Hill
#
# Bulk Modulus (GPa) = 31.29847 44.05574 37.67711
# Shear Modulus (GPa) = 1.74366 25.49629 13.61997
#
# Velocity S-wave (km/s) = 0.92088 3.52136 2.57371
# Velocity P-wave (km/s) = 4.04383 6.16114 5.21115
#
# Compressibility (1/GPa) = 0.03195045
#
# Stress axis : x y z
#
# Youngs Moduli (GPa) = 14.22677 15.77174 131.46278
#
# Poissons Ratio (x) = 0.76191 0.10292
# Poissons Ratio (y) = 0.68728 0.73406
# Poissons Ratio (z) = 0.01114 0.08807
#
# Static dielectric constant tensor:
#      x y z
#    x 1.770110 0.000000 0.000000 
#    y 0.000000 1.729570 0.000000 
#    z 0.000000 0.000000 1.820860 
# 
# From -- ./inp_files/4561.got.cif
#   From: 2010.05.17/outbox.cif.g08.bks.cpg/sg60_3_cif.got.tgz:4561.got - 2010.06.03 14:59:27.
