data_PCOD9457394
_publ_section_title
;
Structure prediction by ZEFSAII (Michael W. Deem and Ramdas Pophale) SiO2 
 PCOD9457394
Probable space group: P B C N
;
_chemical_formula_sum "Si O2"
_cell_formula_units_Z 56
_cell_length_a 12.625611
_cell_length_b 14.074728
_cell_length_c 14.604948
_cell_angle_alpha 90.000000
_cell_angle_beta 90.000000
_cell_angle_gamma 90.000000
_cell_volume 2595.329063
_symmetry_space_group_name_H-M "P B C N"
_symmetry_group_IT_number 60
_symmetry_cell_setting 'orthorhombic'
loop_
_space_group_symop_operation_xyz
x,y,z
1/2-x,1/2-y,1/2+z
1/2+x,1/2-y,-z
-x,y,1/2-z
-x,-y,-z
1/2+x,1/2+y,1/2-z
1/2-x,1/2+y,z
x,-y,1/2+z
loop_
_atom_site_type_symbol
_atom_site_label
_atom_site_fract_x
_atom_site_fract_y
_atom_site_fract_z
Si Si1 0.691497 0.642212 0.013247
Si Si2 0.206626 0.279519 0.658687
Si Si3 0.380987 0.178385 0.348786
Si Si4 0.246762 0.568210 0.013286
Si Si5 0.949716 0.471411 0.096565
Si Si6 0.424732 0.801248 0.172672
Si Si7 0.041507 0.821145 0.492502
O O1 0.686957 0.718638 0.932355
O O2 0.744576 0.545066 0.979198
O O3 0.565836 0.627126 0.024761
O O4 0.766482 0.676955 0.096625
O O5 0.130166 0.292005 0.743959
O O6 0.225554 0.382465 0.611305
O O7 0.306148 0.221997 0.701487
O O8 0.455318 0.251281 0.404787
O O9 0.420329 0.069811 0.355146
O O10 0.155751 0.585804 0.936590
O O11 0.359802 0.608373 0.981132
O O12 0.031074 0.406237 0.152232
O O13 0.000000 0.500000 0.000000
O O14 0.500000 0.758921 0.250000
O O15 0.433990 0.748927 0.076171
#
# Coordination Sequence:
#
# PCOD9457394 Si02
#       7
#     8   8   8   8   8   8   8
#     4  11  22  45  67  93 137 174 226 279 346 416
#     4  11  24  43  66  98 137 177 228 278 347 409
#     4  11  24  42  69  98 137 183 224 291 346 411
#     4  10  23  42  66  96 131 179 225 282 341 423
#     4  11  22  41  66 101 133 175 231 283 350 405
#     4  11  22  38  67  98 129 174 225 276 340 414
#     4  11  22  42  67  93 132 181 217 280 350 412
#
# _framework density 21.577226
#
# number of rings (size 3 to 8) (size 9 to 14) (size 15 to 20)
#    0.000    1.143    4.286    3.000    2.000    2.857 
#    2.571    0.000    9.429    0.000    0.000    0.000 
#    0.000    0.000    0.000    0.000    0.000    0.000 
#
# Total GULP energy -312558.864506 kJ/mol
# GULP energy per Si atom -5581.408295 kJ/mol
# Density = 2.152812 g / cm^3
# Si number density = 21.577226 Si / 1000 Ang^3
#
#
#
# Elastic Constant Matrix: (Units=GPa)
#
#
# Indices 1 2 3 4 5 6 
#
# 1 63.3222 20.9431 5.3955 0.0000 0.0000 0.0000
# 2 20.9431 77.6250 37.1819 0.0000 0.0000 0.0000
# 3 5.3955 37.1819 95.1936 0.0000 0.0000 0.0000
# 4 0.0000 0.0000 0.0000 13.6642 0.0000 0.0000
# 5 0.0000 0.0000 0.0000 0.0000 28.7489 0.0000
# 6 0.0000 0.0000 0.0000 0.0000 0.0000 26.8522
#
#
#
# Elastic Compliance Matrix: (Units=1/GPa)
#
#
# Indices 1 2 3 4 5 6 
#
# 1 0.017423 -0.005201 0.001044 0.000000 0.000000 0.000000
# 2 -0.005201 0.017400 -0.006501 0.000000 0.000000 0.000000
# 3 0.001044 -0.006501 0.012985 0.000000 0.000000 0.000000
# 4 0.000000 0.000000 0.000000 0.073184 0.000000 0.000000
# 5 0.000000 0.000000 0.000000 0.000000 0.034784 0.000000
# 6 0.000000 0.000000 0.000000 0.000000 0.000000 0.037241
#
#
# Mechanical properties :
#
#
# Convention : Reuss Voigt Hill
#
# Bulk Modulus (GPa) = 37.74788 40.35353 39.05070
# Shear Modulus (GPa) = 22.40501 25.36108 23.88305
#
# Velocity S-wave (km/s) = 3.22586 3.43208 3.33057
# Velocity P-wave (km/s) = 5.60421 5.86925 5.73826
#
# Compressibility (1/GPa) = 0.02649156
#
# Stress axis : x y z
#
# Youngs Moduli (GPa) = 57.39397 57.47194 77.01094
#
# Poissons Ratio (x) = 0.29890 -0.08039
# Poissons Ratio (y) = 0.29850 0.50068
# Poissons Ratio (z) = -0.05991 0.37365
#
# Static dielectric constant tensor:
#      x y z
#    x 1.960640 0.000000 0.000000 
#    y 0.000000 1.784430 0.000000 
#    z 0.000000 0.000000 1.738870 
# 
# From -- ./inp_files/16184.got.cif
#   From: 2010.05.17/outbox.cif.g08.bks.cpg/sg60_9_cif.got.tgz:16184.got - 2010.06.03 14:59:27.
