data_PCOD9457352
_publ_section_title
;
Structure prediction by ZEFSAII (Michael W. Deem and Ramdas Pophale) SiO2 
 PCOD9457352
Probable space group: P B C N
;
_chemical_formula_sum "Si O2"
_cell_formula_units_Z 40
_cell_length_a 7.576797
_cell_length_b 25.744416
_cell_length_c 8.327156
_cell_angle_alpha 90.000000
_cell_angle_beta 90.000000
_cell_angle_gamma 90.000000
_cell_volume 1624.296831
_symmetry_space_group_name_H-M "P B C N"
_symmetry_group_IT_number 60
_symmetry_cell_setting 'orthorhombic'
loop_
_space_group_symop_operation_xyz
x,y,z
1/2-x,1/2-y,1/2+z
1/2+x,1/2-y,-z
-x,y,1/2-z
-x,-y,-z
1/2+x,1/2+y,1/2-z
1/2-x,1/2+y,z
x,-y,1/2+z
loop_
_atom_site_type_symbol
_atom_site_label
_atom_site_fract_x
_atom_site_fract_y
_atom_site_fract_z
Si Si1 0.000000 0.423341 0.750000
Si Si2 0.848768 0.336800 0.534886
Si Si3 0.618038 0.241503 0.591454
Si Si4 0.500000 0.509373 0.250000
Si Si5 0.198690 0.147708 0.794964
Si Si6 0.239915 0.051896 0.990396
O O1 0.133853 0.382851 0.837628
O O2 0.091509 0.456680 0.607913
O O3 0.680849 0.298428 0.546338
O O4 0.824120 0.360506 0.358011
O O5 0.012391 0.295979 0.530819
O O6 0.500000 0.246107 0.750000
O O7 0.783804 0.206586 0.645969
O O8 0.334490 0.477932 0.331025
O O9 0.576583 0.543950 0.391034
O O10 0.000000 0.134306 0.750000
O O11 0.261964 0.110543 0.935217
#
# Coordination Sequence:
#
# PCOD9457352 Si02
#       6
#     4   8   8   4   8   8
#     4  12  28  42  71 108 150 182 235 298 356 422
#     4  11  25  41  65 104 150 193 242 286 338 408
#     4  10  23  41  63 100 146 197 244 283 337 404
#     4  10  26  52  79 102 138 176 233 292 376 450
#     4  11  23  42  71 101 140 192 235 297 340 418
#     4  11  25  48  75 108 137 179 230 296 365 441
#
# _framework density 24.626038000000001
#
# number of rings (size 3 to 8) (size 9 to 14) (size 15 to 20)
#    0.000    1.200    3.000    1.200    9.800    2.400 
#    0.000    0.000    0.000    0.000    0.000    0.000 
#    0.000    0.000    0.000    0.000    0.000    0.000 
#
# Total GULP energy -223409.990185 kJ/mol
# GULP energy per Si atom -5585.249755 kJ/mol
# Density = 2.456999 g / cm^3
# Si number density = 24.626038 Si / 1000 Ang^3
#
#
#
# Elastic Constant Matrix: (Units=GPa)
#
#
# Indices 1 2 3 4 5 6 
#
# 1 80.2842 22.1782 27.7144 0.0000 0.0000 0.0000
# 2 22.1782 71.5980 57.2471 0.0000 0.0000 0.0000
# 3 27.7144 57.2471 106.9420 0.0000 0.0000 0.0000
# 4 0.0000 0.0000 0.0000 25.8707 0.0000 0.0000
# 5 0.0000 0.0000 0.0000 0.0000 34.3122 0.0000
# 6 0.0000 0.0000 0.0000 0.0000 0.0000 -0.3284
#
#
#
# Elastic Compliance Matrix: (Units=1/GPa)
#
#
# Indices 1 2 3 4 5 6 
#
# 1 0.013930 -0.002498 -0.002273 0.000000 0.000000 0.000000
# 2 -0.002498 0.024866 -0.012664 0.000000 0.000000 0.000000
# 3 -0.002273 -0.012664 0.016719 0.000000 0.000000 0.000000
# 4 0.000000 0.000000 0.000000 0.038654 0.000000 0.000000
# 5 0.000000 0.000000 0.000000 0.000000 0.029144 0.000000
# 6 0.000000 0.000000 0.000000 0.000000 0.000000 -3.045336
#
#
# Mechanical properties :
#
#
# Convention : Reuss Voigt Hill
#
# Bulk Modulus (GPa) = 48.43449 52.56707 50.50078
# Shear Modulus (GPa) = -1.73595 22.08319 10.17362
#
# Velocity S-wave (km/s) = -0.84051 2.99781 2.03475
# Velocity P-wave (km/s) = 4.33229 5.77711 5.10606
#
# Compressibility (1/GPa) = 0.02064645
#
# Stress axis : x y z
#
# Youngs Moduli (GPa) = 71.78553 40.21562 59.81224
#
# Poissons Ratio (x) = 0.10044 0.13596
# Poissons Ratio (y) = 0.17929 0.75745
# Poissons Ratio (z) = 0.16318 0.50928
#
# Static dielectric constant tensor:
#      x y z
#    x 2.020800 0.000000 0.000000 
#    y 0.000000 1.927350 0.000000 
#    z 0.000000 0.000000 1.992970 
# 
# From -- ./inp_files/4045.got.cif
#   From: 2010.05.17/outbox.cif.g08.bks.cpg/sg60_3_cif.got.tgz:4045.got - 2010.06.03 14:59:27.
