data_PCOD9457917
_publ_section_title
;
Structure prediction by ZEFSAII (Michael W. Deem and Ramdas Pophale) SiO2 
 PCOD9457917
Probable space group: P B C N
;
_chemical_formula_sum "Si O2"
_cell_formula_units_Z 32
_cell_length_a 21.032721
_cell_length_b 4.909490
_cell_length_c 11.119740
_cell_angle_alpha 90.000000
_cell_angle_beta 90.000000
_cell_angle_gamma 90.000000
_cell_volume 1148.223612
_symmetry_space_group_name_H-M "P B C N"
_symmetry_group_IT_number 60
_symmetry_cell_setting 'orthorhombic'
loop_
_space_group_symop_operation_xyz
x,y,z
1/2-x,1/2-y,1/2+z
1/2+x,1/2-y,-z
-x,y,1/2-z
-x,-y,-z
1/2+x,1/2+y,1/2-z
1/2-x,1/2+y,z
x,-y,1/2+z
loop_
_atom_site_type_symbol
_atom_site_label
_atom_site_fract_x
_atom_site_fract_y
_atom_site_fract_z
Si Si1 0.795881 0.504759 0.189375
Si Si2 0.854164 0.853450 0.368828
Si Si3 0.380690 0.598677 0.384825
Si Si4 0.500473 0.192452 0.383669
O O1 0.748566 0.260134 0.160962
O O2 0.815421 0.585864 0.327479
O O3 0.636861 0.926680 0.122714
O O4 0.840952 0.986864 0.496695
O O5 0.928072 0.797689 0.388556
O O6 0.854683 0.027596 0.247838
O O7 0.448555 0.438762 0.386492
O O8 0.500000 0.054935 0.250000
O O9 0.500000 0.000000 0.500000
#
# Coordination Sequence:
#
# PCOD9457917 Si02
#       4
#     8   8   8   8
#     4  12  28  54  81 119 168 234 291 356 426 522
#     4  11  27  49  83 123 171 224 292 360 448 526
#     4  11  27  51  81 127 172 227 290 368 447 530
#     4  10  25  46  80 126 174 224 285 362 451 530
#
# _framework density 27.869132
#
# number of rings (size 3 to 8) (size 9 to 14) (size 15 to 20)
#    0.000    1.000    2.500    0.750   10.500    2.000 
#    0.000    0.000    0.000    0.000    0.000    0.000 
#    0.000    0.000    0.000    0.000    0.000    0.000 
#
# Total GULP energy -178184.696793 kJ/mol
# GULP energy per Si atom -5568.271775 kJ/mol
# Density = 2.780570 g / cm^3
# Si number density = 27.869132 Si / 1000 Ang^3
#
#
#
# Elastic Constant Matrix: (Units=GPa)
#
#
# Indices 1 2 3 4 5 6 
#
# 1 153.2195 80.3819 64.0397 0.0000 0.0000 0.0000
# 2 80.3819 157.9416 64.8661 0.0000 0.0000 0.0000
# 3 64.0397 64.8661 241.6428 0.0000 0.0000 0.0000
# 4 0.0000 0.0000 0.0000 66.1917 0.0000 0.0000
# 5 0.0000 0.0000 0.0000 0.0000 61.0383 0.0000
# 6 0.0000 0.0000 0.0000 0.0000 0.0000 54.4920
#
#
#
# Elastic Compliance Matrix: (Units=1/GPa)
#
#
# Indices 1 2 3 4 5 6 
#
# 1 0.009274 -0.004170 -0.001338 0.000000 0.000000 0.000000
# 2 -0.004170 0.008991 -0.001308 0.000000 0.000000 0.000000
# 3 -0.001338 -0.001308 0.004844 0.000000 0.000000 0.000000
# 4 0.000000 0.000000 0.000000 0.015108 0.000000 0.000000
# 5 0.000000 0.000000 0.000000 0.000000 0.016383 0.000000
# 6 0.000000 0.000000 0.000000 0.000000 0.000000 0.018351
#
#
# Mechanical properties :
#
#
# Convention : Reuss Voigt Hill
#
# Bulk Modulus (GPa) = 105.53554 107.93104 106.73329
# Shear Modulus (GPa) = 55.71466 59.24548 57.48007
#
# Velocity S-wave (km/s) = 4.47604 4.61569 4.54640
# Velocity P-wave (km/s) = 8.04137 8.19866 8.12040
#
# Compressibility (1/GPa) = 0.00947548
#
# Stress axis : x y z
#
# Youngs Moduli (GPa) = 107.83285 111.22127 206.43087
#
# Poissons Ratio (x) = 0.46380 0.27626
# Poissons Ratio (y) = 0.44967 0.27010
# Poissons Ratio (z) = 0.14431 0.14552
#
# Static dielectric constant tensor:
#      x y z
#    x 2.254950 0.000000 0.000000 
#    y 0.000000 2.863260 0.000000 
#    z 0.000000 0.000000 2.509300 
# 
# From -- ./inp_files/12969.got.cif
#   From: 2010.05.17/outbox.cif.g08.bks.cpg/sg60_7_cif.got.tgz:12969.got - 2010.06.03 14:59:27.
