data_PCOD9457283
_publ_section_title
;
Structure prediction by ZEFSAII (Michael W. Deem and Ramdas Pophale) SiO2 
 PCOD9457283
Probable space group: P B C N
;
_chemical_formula_sum "Si O2"
_cell_formula_units_Z 44
_cell_length_a 5.750492
_cell_length_b 14.134244
_cell_length_c 23.755618
_cell_angle_alpha 90.000000
_cell_angle_beta 90.000000
_cell_angle_gamma 90.000000
_cell_volume 1930.829480
_symmetry_space_group_name_H-M "P B C N"
_symmetry_group_IT_number 60
_symmetry_cell_setting 'orthorhombic'
loop_
_space_group_symop_operation_xyz
x,y,z
1/2-x,1/2-y,1/2+z
1/2+x,1/2-y,-z
-x,y,1/2-z
-x,-y,-z
1/2+x,1/2+y,1/2-z
1/2-x,1/2+y,z
x,-y,1/2+z
loop_
_atom_site_type_symbol
_atom_site_label
_atom_site_fract_x
_atom_site_fract_y
_atom_site_fract_z
Si Si1 0.493262 0.966583 0.435743
Si Si2 0.000000 0.399474 0.250000
Si Si3 0.380094 0.282213 0.309300
Si Si4 0.831345 0.115024 0.125072
Si Si5 0.652139 0.468896 0.338885
Si Si6 0.468650 0.244763 0.967137
O O1 0.725626 0.979479 0.399267
O O2 0.438131 0.855855 0.436768
O O3 0.500000 0.000000 0.500000
O O4 0.305081 0.031221 0.405418
O O5 0.861631 0.331663 0.207612
O O6 0.832711 0.462128 0.287998
O O7 0.500000 0.257298 0.250000
O O8 0.339468 0.191266 0.347204
O O9 0.525316 0.367233 0.337230
O O10 0.977393 0.172527 0.078811
O O11 0.989090 0.059276 0.169265
O O12 0.721433 0.241399 0.998879
#
# Coordination Sequence:
#
# PCOD9457283 Si02
#       6
#     8   4   8   8   8   8
#     4  12  27  48  75 112 156 205 262 323 394 478
#     4  10  22  52  72 108 150 200 258 330 392 476
#     4  10  25  51  76 106 152 198 258 327 401 480
#     4  12  26  45  76 116 151 204 257 324 398 479
#     4  11  25  46  79 108 152 199 261 325 398 474
#     4  12  28  48  79 112 162 211 266 323 393 470
#
# _framework density 22.788136000000002
#
# number of rings (size 3 to 8) (size 9 to 14) (size 15 to 20)
#    0.000    0.727    1.818    4.364    5.091    4.364 
#   21.273    0.000    0.000    0.000    0.000    0.000 
#    0.000    0.000    0.000    0.000    0.000    0.000 
#
# Total GULP energy -246313.929930 kJ/mol
# GULP energy per Si atom -5598.043862 kJ/mol
# Density = 2.273627 g / cm^3
# Si number density = 22.788136 Si / 1000 Ang^3
#
#
#
# Elastic Constant Matrix: (Units=GPa)
#
#
# Indices 1 2 3 4 5 6 
#
# 1 84.6914 52.6397 27.6565 0.0000 0.0000 0.0000
# 2 52.6397 151.9682 48.2800 0.0000 0.0000 0.0000
# 3 27.6565 48.2800 68.6349 0.0000 0.0000 0.0000
# 4 0.0000 0.0000 0.0000 -51.4700 0.0000 0.0000
# 5 0.0000 0.0000 0.0000 0.0000 31.9681 0.0000
# 6 0.0000 0.0000 0.0000 0.0000 0.0000 5.9332
#
#
#
# Elastic Compliance Matrix: (Units=1/GPa)
#
#
# Indices 1 2 3 4 5 6 
#
# 1 0.015573 -0.004379 -0.003195 0.000000 0.000000 0.000000
# 2 -0.004379 0.009706 -0.005063 0.000000 0.000000 0.000000
# 3 -0.003195 -0.005063 0.019418 0.000000 0.000000 0.000000
# 4 0.000000 0.000000 0.000000 -0.019429 0.000000 0.000000
# 5 0.000000 0.000000 0.000000 0.000000 0.031281 0.000000
# 6 0.000000 0.000000 0.000000 0.000000 0.000000 0.168544
#
#
# Mechanical properties :
#
#
# Convention : Reuss Voigt Hill
#
# Bulk Modulus (GPa) = 51.48324 62.49410 56.98867
# Shear Modulus (GPa) = 19.46737 9.06746 14.26742
#
# Velocity S-wave (km/s) = 2.92597 1.99691 2.50489
# Velocity P-wave (km/s) = 5.83577 5.72716 5.78172
#
# Compressibility (1/GPa) = 0.01942380
#
# Stress axis : x y z
#
# Youngs Moduli (GPa) = 64.21495 103.03296 51.49787
#
# Poissons Ratio (x) = 0.45121 0.16451
# Poissons Ratio (y) = 0.28122 0.26071
# Poissons Ratio (z) = 0.20514 0.52162
#
# Static dielectric constant tensor:
#      x y z
#    x 1.930530 0.000000 0.000000 
#    y 0.000000 1.794980 0.000000 
#    z 0.000000 0.000000 1.872720 
# 
# From -- ./inp_files/24827.got.cif
#   From: 2010.05.17/outbox.cif.g08.bks.cpg/sg60_13_cif.got.tgz:24827.got - 2010.06.03 14:59:27.
