data_PCOD9457078
_publ_section_title
;
Structure prediction by ZEFSAII (Michael W. Deem and Ramdas Pophale) SiO2 
 PCOD9457078
Probable space group: P B C N
;
_chemical_formula_sum "Si O2"
_cell_formula_units_Z 44
_cell_length_a 14.328704
_cell_length_b 8.010901
_cell_length_c 13.943009
_cell_angle_alpha 90.000000
_cell_angle_beta 90.000000
_cell_angle_gamma 90.000000
_cell_volume 1600.459850
_symmetry_space_group_name_H-M "P B C N"
_symmetry_group_IT_number 60
_symmetry_cell_setting 'orthorhombic'
loop_
_space_group_symop_operation_xyz
x,y,z
1/2-x,1/2-y,1/2+z
1/2+x,1/2-y,-z
-x,y,1/2-z
-x,-y,-z
1/2+x,1/2+y,1/2-z
1/2-x,1/2+y,z
x,-y,1/2+z
loop_
_atom_site_type_symbol
_atom_site_label
_atom_site_fract_x
_atom_site_fract_y
_atom_site_fract_z
Si Si1 0.860777 0.003165 0.676531
Si Si2 0.813898 0.010702 0.892044
Si Si3 0.000000 0.487970 0.250000
Si Si4 0.860518 0.641884 0.468957
Si Si5 0.519156 0.271826 0.916914
Si Si6 0.334588 0.866241 0.864328
O O1 0.857785 0.055266 0.788498
O O2 0.770788 0.885261 0.671631
O O3 0.846238 0.171017 0.617082
O O4 0.052467 0.900837 0.865294
O O5 0.819228 0.170611 0.961281
O O6 0.883881 0.866130 0.926662
O O7 0.707555 0.946623 0.891141
O O8 0.969537 0.374197 0.339437
O O9 0.086469 0.593134 0.286509
O O10 0.969650 0.695760 0.487501
O O11 0.846787 0.511590 0.556243
#
# Coordination Sequence:
#
# PCOD9457078 Si02
#       6
#     8   8   4   8   8   8
#     4  12  24  45  79 105 144 199 260 315 365 450
#     4  12  25  46  73 109 149 197 255 314 385 450
#     4  10  22  42  72 106 140 188 262 314 352 452
#     4  11  26  45  70 106 156 194 240 317 394 447
#     4  11  24  48  75 105 151 202 253 314 378 452
#     4  11  25  44  74 107 148 197 256 308 382 449
#
# _framework density 27.492100000000001
#
# number of rings (size 3 to 8) (size 9 to 14) (size 15 to 20)
#    0.000    0.727    1.818    6.000    5.091    0.000 
#    0.000    1.818    0.000    0.000    0.000    0.000 
#    0.000    0.000    0.000    0.000    0.000    0.000 
#
# Total GULP energy -246351.486083 kJ/mol
# GULP energy per Si atom -5598.897411 kJ/mol
# Density = 2.742953 g / cm^3
# Si number density = 27.492100 Si / 1000 Ang^3
#
#
#
# Elastic Constant Matrix: (Units=GPa)
#
#
# Indices 1 2 3 4 5 6 
#
# 1 156.6122 79.4045 62.7096 0.0000 0.0000 0.0000
# 2 79.4045 139.1004 36.2520 0.0000 0.0000 0.0000
# 3 62.7096 36.2520 131.9737 0.0000 0.0000 0.0000
# 4 0.0000 0.0000 0.0000 28.7398 0.0000 0.0000
# 5 0.0000 0.0000 0.0000 0.0000 41.9286 0.0000
# 6 0.0000 0.0000 0.0000 0.0000 0.0000 58.7746
#
#
#
# Elastic Compliance Matrix: (Units=1/GPa)
#
#
# Indices 1 2 3 4 5 6 
#
# 1 0.010322 -0.004970 -0.003540 0.000000 0.000000 0.000000
# 2 -0.004970 0.010136 -0.000423 0.000000 0.000000 0.000000
# 3 -0.003540 -0.000423 0.009375 0.000000 0.000000 0.000000
# 4 0.000000 0.000000 0.000000 0.034795 0.000000 0.000000
# 5 0.000000 0.000000 0.000000 0.000000 0.023850 0.000000
# 6 0.000000 0.000000 0.000000 0.000000 0.000000 0.017014
#
#
# Mechanical properties :
#
#
# Convention : Reuss Voigt Hill
#
# Bulk Modulus (GPa) = 83.54775 87.15763 85.35269
# Shear Modulus (GPa) = 39.26260 42.50995 40.88627
#
# Velocity S-wave (km/s) = 3.78318 3.93652 3.86061
# Velocity P-wave (km/s) = 7.03839 7.24108 7.14045
#
# Compressibility (1/GPa) = 0.01196920
#
# Stress axis : x y z
#
# Youngs Moduli (GPa) = 96.87713 98.65531 106.66290
#
# Poissons Ratio (x) = 0.49031 0.37755
# Poissons Ratio (y) = 0.48147 0.04510
# Poissons Ratio (z) = 0.34291 0.04171
#
# Static dielectric constant tensor:
#      x y z
#    x 2.071900 0.000000 0.000000 
#    y 0.000000 2.024260 0.000000 
#    z 0.000000 0.000000 2.240300 
# 
# From -- ./inp_files/20435.got.cif
#   From: 2010.05.17/outbox.cif.g08.bks.cpg/sg60_11_cif.got.tgz:20435.got - 2010.06.03 14:59:27.
