data_PCOD9457404
_publ_section_title
;
Structure prediction by ZEFSAII (Michael W. Deem and Ramdas Pophale) SiO2 
 PCOD9457404
Probable space group: P B C N
;
_chemical_formula_sum "Si O2"
_cell_formula_units_Z 40
_cell_length_a 10.644396
_cell_length_b 9.279672
_cell_length_c 18.595369
_cell_angle_alpha 90.000000
_cell_angle_beta 90.000000
_cell_angle_gamma 90.000000
_cell_volume 1836.785531
_symmetry_space_group_name_H-M "P B C N"
_symmetry_group_IT_number 60
_symmetry_cell_setting 'orthorhombic'
loop_
_space_group_symop_operation_xyz
x,y,z
1/2-x,1/2-y,1/2+z
1/2+x,1/2-y,-z
-x,y,1/2-z
-x,-y,-z
1/2+x,1/2+y,1/2-z
1/2-x,1/2+y,z
x,-y,1/2+z
loop_
_atom_site_type_symbol
_atom_site_label
_atom_site_fract_x
_atom_site_fract_y
_atom_site_fract_z
Si Si1 0.345185 0.688801 0.649711
Si Si2 0.299219 0.589910 0.219328
Si Si3 0.837318 0.796382 0.621609
Si Si4 0.093576 0.243930 0.087929
Si Si5 0.603016 0.385037 0.069051
O O1 0.329720 0.847443 0.684706
O O2 0.315714 0.580162 0.715379
O O3 0.224108 0.669048 0.596350
O O4 0.473058 0.656166 0.609099
O O5 0.327841 0.659516 0.295054
O O6 0.396313 0.644071 0.158742
O O7 0.711212 0.716586 0.600339
O O8 0.954634 0.693299 0.598781
O O9 0.859602 0.948884 0.581399
O O10 0.095708 0.154679 0.014879
#
# Coordination Sequence:
#
# PCOD9457404 Si02
#       5
#     8   8   8   8   8
#     4  10  23  42  68  91 131 168 218 268 324 381
#     4  10  23  42  69  90 130 172 217 265 324 382
#     4  12  25  43  67  98 131 174 218 267 326 390
#     4  10  24  42  70  90 134 170 218 261 334 376
#     4  12  25  42  67  99 131 171 218 270 326 390
#
# _framework density 21.777173000000001
#
# number of rings (size 3 to 8) (size 9 to 14) (size 15 to 20)
#    1.200    0.000    2.000    3.600    2.800    4.000 
#    0.000    3.000    0.000    0.000    0.000    0.000 
#    0.000    0.000    0.000    0.000    0.000    0.000 
#
# Total GULP energy -222972.042923 kJ/mol
# GULP energy per Si atom -5574.301073 kJ/mol
# Density = 2.172761 g / cm^3
# Si number density = 21.777173 Si / 1000 Ang^3
#
#
#
# Elastic Constant Matrix: (Units=GPa)
#
#
# Indices 1 2 3 4 5 6 
#
# 1 198.2578 58.0085 45.3747 0.0000 0.0000 0.0000
# 2 58.0085 77.2809 32.4810 0.0000 0.0000 0.0000
# 3 45.3747 32.4810 132.4726 0.0000 0.0000 0.0000
# 4 0.0000 0.0000 0.0000 15.7847 0.0000 0.0000
# 5 0.0000 0.0000 0.0000 0.0000 29.5393 0.0000
# 6 0.0000 0.0000 0.0000 0.0000 0.0000 24.1805
#
#
#
# Elastic Compliance Matrix: (Units=1/GPa)
#
#
# Indices 1 2 3 4 5 6 
#
# 1 0.006622 -0.004479 -0.001170 0.000000 0.000000 0.000000
# 2 -0.004479 0.017456 -0.002746 0.000000 0.000000 0.000000
# 3 -0.001170 -0.002746 0.008623 0.000000 0.000000 0.000000
# 4 0.000000 0.000000 0.000000 0.063353 0.000000 0.000000
# 5 0.000000 0.000000 0.000000 0.000000 0.033853 0.000000
# 6 0.000000 0.000000 0.000000 0.000000 0.000000 0.041356
#
#
# Mechanical properties :
#
#
# Convention : Reuss Voigt Hill
#
# Bulk Modulus (GPa) = 62.84935 75.52665 69.18800
# Shear Modulus (GPa) = 25.85905 32.04403 28.95154
#
# Velocity S-wave (km/s) = 3.44966 3.84011 3.65011
# Velocity P-wave (km/s) = 6.69251 7.37691 7.04303
#
# Compressibility (1/GPa) = 0.01591106
#
# Stress axis : x y z
#
# Youngs Moduli (GPa) = 151.00621 57.28713 115.97215
#
# Poissons Ratio (x) = 0.25659 0.13569
# Poissons Ratio (y) = 0.67636 0.31844
# Poissons Ratio (z) = 0.17668 0.15730
#
# Static dielectric constant tensor:
#      x y z
#    x 1.869170 0.000000 0.000000 
#    y 0.000000 1.796450 0.000000 
#    z 0.000000 0.000000 1.771810 
# 
# From -- ./inp_files/19006.got.cif
#   From: 2010.05.17/outbox.cif.g08.bks.cpg/sg60_10_cif.got.tgz:19006.got - 2010.06.03 14:59:27.
