data_PCOD9457064
_publ_section_title
;
Structure prediction by ZEFSAII (Michael W. Deem and Ramdas Pophale) SiO2 
 PCOD9457064
Probable space group: P B C N
;
_chemical_formula_sum "Si O2"
_cell_formula_units_Z 40
_cell_length_a 20.825183
_cell_length_b 9.152751
_cell_length_c 8.438758
_cell_angle_alpha 90.000000
_cell_angle_beta 90.000000
_cell_angle_gamma 90.000000
_cell_volume 1608.492376
_symmetry_space_group_name_H-M "P B C N"
_symmetry_group_IT_number 60
_symmetry_cell_setting 'orthorhombic'
loop_
_space_group_symop_operation_xyz
x,y,z
1/2-x,1/2-y,1/2+z
1/2+x,1/2-y,-z
-x,y,1/2-z
-x,-y,-z
1/2+x,1/2+y,1/2-z
1/2-x,1/2+y,z
x,-y,1/2+z
loop_
_atom_site_type_symbol
_atom_site_label
_atom_site_fract_x
_atom_site_fract_y
_atom_site_fract_z
Si Si1 0.807829 0.194516 0.456908
Si Si2 0.000000 0.977823 0.750000
Si Si3 0.375827 0.850031 0.291474
Si Si4 0.000000 0.550525 0.250000
Si Si5 0.749931 0.042105 0.153294
Si Si6 0.055815 0.798522 0.040228
O O1 0.871604 0.252637 0.368301
O O2 0.770032 0.125454 0.310348
O O3 0.773023 0.335283 0.529827
O O4 0.805092 0.066113 0.586766
O O5 0.978901 0.878585 0.605048
O O6 0.055611 0.086217 0.683920
O O7 0.380325 0.757727 0.454511
O O8 0.437913 0.952248 0.282003
O O9 0.312032 0.944807 0.306093
O O10 0.982323 0.658935 0.393905
#
# Coordination Sequence:
#
# PCOD9457064 Si02
#       6
#     8   4   8   4   8   8
#     4  12  25  48  76 108 148 196 257 319 379 450
#     4   9  21  44  64 100 151 191 244 286 364 460
#     4  12  25  44  79 106 150 192 257 312 389 455
#     4  11  25  46  76 112 147 197 246 310 384 462
#     4  12  25  48  75 107 147 197 257 317 382 451
#     4  10  22  42  70 102 147 194 240 300 370 449
#
# _framework density 24.868006000000001
#
# number of rings (size 3 to 8) (size 9 to 14) (size 15 to 20)
#    0.000    0.800    4.000    2.400    0.000    3.200 
#    0.000    6.000    0.000    0.000    0.000    0.000 
#    0.000    0.000    0.000    0.000    0.000    0.000 
#
# Total GULP energy -224067.384727 kJ/mol
# GULP energy per Si atom -5601.684618 kJ/mol
# Density = 2.481141 g / cm^3
# Si number density = 24.868006 Si / 1000 Ang^3
#
#
#
# Elastic Constant Matrix: (Units=GPa)
#
#
# Indices 1 2 3 4 5 6 
#
# 1 68.2449 31.4298 26.4040 0.0000 0.0000 0.0000
# 2 31.4298 126.9068 44.8570 0.0000 0.0000 0.0000
# 3 26.4040 44.8570 106.7423 0.0000 0.0000 0.0000
# 4 0.0000 0.0000 0.0000 51.7351 0.0000 0.0000
# 5 0.0000 0.0000 0.0000 0.0000 43.2095 0.0000
# 6 0.0000 0.0000 0.0000 0.0000 0.0000 36.6864
#
#
#
# Elastic Compliance Matrix: (Units=1/GPa)
#
#
# Indices 1 2 3 4 5 6 
#
# 1 0.017275 -0.003251 -0.002907 0.000000 0.000000 0.000000
# 2 -0.003251 0.009866 -0.003342 0.000000 0.000000 0.000000
# 3 -0.002907 -0.003342 0.011492 0.000000 0.000000 0.000000
# 4 0.000000 0.000000 0.000000 0.019329 0.000000 0.000000
# 5 0.000000 0.000000 0.000000 0.000000 0.023143 0.000000
# 6 0.000000 0.000000 0.000000 0.000000 0.000000 0.027258
#
#
# Mechanical properties :
#
#
# Convention : Reuss Voigt Hill
#
# Bulk Modulus (GPa) = 50.93386 56.36397 53.64892
# Shear Modulus (GPa) = 37.33920 39.60642 38.47281
#
# Velocity S-wave (km/s) = 3.87912 3.99515 3.93756
# Velocity P-wave (km/s) = 6.37099 6.63296 6.50329
#
# Compressibility (1/GPa) = 0.01963330
#
# Stress axis : x y z
#
# Youngs Moduli (GPa) = 57.88716 101.35650 87.01793
#
# Poissons Ratio (x) = 0.32949 0.25297
# Poissons Ratio (y) = 0.18818 0.29081
# Poissons Ratio (z) = 0.16828 0.33873
#
# Static dielectric constant tensor:
#      x y z
#    x 1.964850 0.000000 0.000000 
#    y 0.000000 2.015400 0.000000 
#    z 0.000000 0.000000 1.971340 
# 
# From -- ./inp_files/7770.got.cif
#   From: 2010.05.17/outbox.cif.g08.bks.cpg/sg60_4_cif.got.tgz:7770.got - 2010.06.03 14:59:27.
