data_PCOD9457079
_publ_section_title
;
Structure prediction by ZEFSAII (Michael W. Deem and Ramdas Pophale) SiO2 
 PCOD9457079
Probable space group: P B C N
;
_chemical_formula_sum "Si O2"
_cell_formula_units_Z 60
_cell_length_a 23.354996
_cell_length_b 9.330569
_cell_length_c 13.210152
_cell_angle_alpha 90.000000
_cell_angle_beta 90.000000
_cell_angle_gamma 90.000000
_cell_volume 2878.695579
_symmetry_space_group_name_H-M "P B C N"
_symmetry_group_IT_number 60
_symmetry_cell_setting 'orthorhombic'
loop_
_space_group_symop_operation_xyz
x,y,z
1/2-x,1/2-y,1/2+z
1/2+x,1/2-y,-z
-x,y,1/2-z
-x,-y,-z
1/2+x,1/2+y,1/2-z
1/2-x,1/2+y,z
x,-y,1/2+z
loop_
_atom_site_type_symbol
_atom_site_label
_atom_site_fract_x
_atom_site_fract_y
_atom_site_fract_z
Si Si1 0.057803 0.281788 0.684743
Si Si2 0.736483 0.897128 0.279947
Si Si3 0.492937 0.835894 0.475246
Si Si4 0.000000 0.742890 0.750000
Si Si5 0.315779 0.617874 0.147329
Si Si6 0.910118 0.019749 0.224904
Si Si7 0.895445 0.159662 0.535838
Si Si8 0.671039 0.841530 0.701482
O O1 0.068933 0.117439 0.713613
O O2 0.115743 0.358471 0.724000
O O3 0.000000 0.324492 0.750000
O O4 0.050491 0.288569 0.564072
O O5 0.695669 0.784987 0.336755
O O6 0.784300 0.783970 0.237162
O O7 0.762043 0.012053 0.359608
O O8 0.704061 0.005289 0.201724
O O9 0.484481 0.833103 0.354611
O O10 0.549189 0.742249 0.496746
O O11 0.500000 0.000000 0.500000
O O12 0.946475 0.847840 0.762488
O O13 0.345482 0.559525 0.249375
O O14 0.357669 0.598857 0.054090
O O15 0.915198 0.969001 0.109701
O O16 0.857863 0.273665 0.601188
#
# Coordination Sequence:
#
# PCOD9457079 Si02
#       8
#     8   8   8   4   8   8   8   8
#     4  11  21  42  71 100 141 188 225 289 360 418
#     4  10  23  43  68  98 139 181 237 301 352 426
#     4  12  28  42  66 103 148 190 228 289 360 428
#     4  12  26  40  68 102 132 188 234 284 342 426
#     4  11  23  43  66 100 137 178 235 293 355 423
#     4  11  22  41  69 100 132 172 234 290 343 423
#     4  11  23  43  70  99 140 183 233 294 354 427
#     4  10  22  42  73 100 137 188 234 294 359 415
#
# _framework density 20.842773999999999
#
# number of rings (size 3 to 8) (size 9 to 14) (size 15 to 20)
#    0.000    1.067    7.333    0.000    4.667    3.200 
#    0.000    0.000    0.000    0.000    0.000    0.000 
#    0.000    0.000    0.000    0.000    0.000    0.000 
#
# Total GULP energy -334383.985357 kJ/mol
# GULP energy per Si atom -5573.066423 kJ/mol
# Density = 2.079534 g / cm^3
# Si number density = 20.842774 Si / 1000 Ang^3
#
#
#
# Elastic Constant Matrix: (Units=GPa)
#
#
# Indices 1 2 3 4 5 6 
#
# 1 60.8075 7.1872 7.0257 0.0000 0.0000 0.0000
# 2 7.1872 78.9347 7.7685 0.0000 0.0000 0.0000
# 3 7.0257 7.7685 79.0536 0.0000 0.0000 0.0000
# 4 0.0000 0.0000 0.0000 24.7287 0.0000 0.0000
# 5 0.0000 0.0000 0.0000 0.0000 29.2463 0.0000
# 6 0.0000 0.0000 0.0000 0.0000 0.0000 -26.7069
#
#
#
# Elastic Compliance Matrix: (Units=1/GPa)
#
#
# Indices 1 2 3 4 5 6 
#
# 1 0.016766 -0.001393 -0.001353 0.000000 0.000000 0.000000
# 2 -0.001393 0.012908 -0.001145 0.000000 0.000000 0.000000
# 3 -0.001353 -0.001145 0.012882 0.000000 0.000000 0.000000
# 4 0.000000 0.000000 0.000000 0.040439 0.000000 0.000000
# 5 0.000000 0.000000 0.000000 0.000000 0.034192 0.000000
# 6 0.000000 0.000000 0.000000 0.000000 0.000000 -0.037443
#
#
# Mechanical properties :
#
#
# Convention : Reuss Voigt Hill
#
# Bulk Modulus (GPa) = 28.75668 29.19541 28.97604
# Shear Modulus (GPa) = 50.44460 18.57458 34.50959
#
# Velocity S-wave (km/s) = 4.92493 2.98850 4.07346
# Velocity P-wave (km/s) = 6.79462 5.09372 6.00470
#
# Compressibility (1/GPa) = 0.03477453
#
# Stress axis : x y z
#
# Youngs Moduli (GPa) = 59.64318 77.46999 77.62535
#
# Poissons Ratio (x) = 0.10795 0.10504
# Poissons Ratio (y) = 0.08311 0.08885
# Poissons Ratio (z) = 0.08071 0.08867
#
# Static dielectric constant tensor:
#      x y z
#    x 1.710420 0.000000 0.000000 
#    y 0.000000 1.727970 0.000000 
#    z 0.000000 0.000000 1.491910 
# 
# From -- ./inp_files/13297.got.cif
#   From: 2010.05.17/outbox.cif.g08.bks.cpg/sg60_7_cif.got.tgz:13297.got - 2010.06.03 14:59:27.
