data_PCOD9457003
_publ_section_title
;
Structure prediction by ZEFSAII (Michael W. Deem and Ramdas Pophale) SiO2 
 PCOD9457003
Probable space group: P B C N
;
_chemical_formula_sum "Si O2"
_cell_formula_units_Z 64
_cell_length_a 21.950755
_cell_length_b 14.244490
_cell_length_c 8.136568
_cell_angle_alpha 90.000000
_cell_angle_beta 90.000000
_cell_angle_gamma 90.000000
_cell_volume 2544.120196
_symmetry_space_group_name_H-M "P B C N"
_symmetry_group_IT_number 60
_symmetry_cell_setting 'orthorhombic'
loop_
_space_group_symop_operation_xyz
x,y,z
1/2-x,1/2-y,1/2+z
1/2+x,1/2-y,-z
-x,y,1/2-z
-x,-y,-z
1/2+x,1/2+y,1/2-z
1/2-x,1/2+y,z
x,-y,1/2+z
loop_
_atom_site_type_symbol
_atom_site_label
_atom_site_fract_x
_atom_site_fract_y
_atom_site_fract_z
Si Si1 0.388084 0.383189 0.667875
Si Si2 0.626187 0.137743 0.507200
Si Si3 0.563107 0.623806 0.661520
Si Si4 0.732035 0.876784 0.520047
Si Si5 0.067659 0.477948 0.195081
Si Si6 0.132007 0.848879 0.030683
Si Si7 0.750901 0.413971 0.902100
Si Si8 0.598138 0.197969 0.978946
O O1 0.432003 0.419587 0.521888
O O2 0.321135 0.394660 0.584291
O O3 0.406785 0.272678 0.669316
O O4 0.383696 0.404354 0.861296
O O5 0.604703 0.069518 0.358830
O O6 0.604472 0.243991 0.479832
O O7 0.699932 0.137461 0.516251
O O8 0.601082 0.082244 0.664362
O O9 0.500000 0.606710 0.750000
O O10 0.574372 0.734980 0.623643
O O11 0.612335 0.599316 0.802211
O O12 0.795614 0.834198 0.462695
O O13 0.735390 0.888265 0.715163
O O14 0.669719 0.824086 0.486831
O O15 0.733721 0.978097 0.435641
O O16 0.065059 0.400370 0.048190
O O17 0.000000 0.500870 0.250000
#
# Coordination Sequence:
#
# PCOD9457003 Si02
#       8
#     8   8   8   8   8   8   8   8
#     4   9  23  42  64 103 132 173 228 287 341 411
#     4  12  24  42  63  90 134 180 224 280 347 394
#     4  10  24  41  70  98 134 178 235 273 335 416
#     4  11  24  41  66 101 132 172 227 284 356 417
#     4  12  27  41  62  94 139 187 237 279 333 407
#     4  11  24  42  69  99 132 182 222 285 350 406
#     4  11  23  39  67  97 135 167 220 292 354 411
#     4  10  22  42  61  93 137 175 233 276 335 413
#
# _framework density 25.156044999999999
#
# number of rings (size 3 to 8) (size 9 to 14) (size 15 to 20)
#    0.750    0.500    2.500    2.625    5.250    2.000 
#    0.000    0.000    0.000    0.750    0.000    0.000 
#    0.000    0.000    0.000    0.000    0.000    0.000 
#
# Total GULP energy -357666.835978 kJ/mol
# GULP energy per Si atom -5588.544312 kJ/mol
# Density = 2.509879 g / cm^3
# Si number density = 25.156045 Si / 1000 Ang^3
#
#
#
# Elastic Constant Matrix: (Units=GPa)
#
#
# Indices 1 2 3 4 5 6 
#
# 1 82.5138 0.8412 16.9012 0.0000 0.0000 0.0000
# 2 0.8412 88.1182 4.4692 0.0000 0.0000 0.0000
# 3 16.9012 4.4692 60.0829 0.0000 0.0000 0.0000
# 4 0.0000 0.0000 0.0000 -2.2401 0.0000 0.0000
# 5 0.0000 0.0000 0.0000 0.0000 33.8432 0.0000
# 6 0.0000 0.0000 0.0000 0.0000 0.0000 5.0221
#
#
#
# Elastic Compliance Matrix: (Units=1/GPa)
#
#
# Indices 1 2 3 4 5 6 
#
# 1 0.012860 0.000061 -0.003622 0.000000 0.000000 0.000000
# 2 0.000061 0.011392 -0.000864 0.000000 0.000000 0.000000
# 3 -0.003622 -0.000864 0.017727 0.000000 0.000000 0.000000
# 4 0.000000 0.000000 0.000000 -0.446405 0.000000 0.000000
# 5 0.000000 0.000000 0.000000 0.000000 0.029548 0.000000
# 6 0.000000 0.000000 0.000000 0.000000 0.000000 0.199119
#
#
# Mechanical properties :
#
#
# Convention : Reuss Voigt Hill
#
# Bulk Modulus (GPa) = 30.18634 30.57092 30.37863
# Shear Modulus (GPa) = -32.07923 21.22525 -5.42699
#
# Velocity S-wave (km/s) = -3.57488 2.90788 -1.47038
# Velocity P-wave (km/s) = 2.23920 4.84285 3.03638
#
# Compressibility (1/GPa) = 0.03312756
#
# Stress axis : x y z
#
# Youngs Moduli (GPa) = 77.75754 87.78358 56.41150
#
# Poissons Ratio (x) = -0.00535 0.20433
# Poissons Ratio (y) = -0.00474 0.04877
# Poissons Ratio (z) = 0.28165 0.07589
#
# Static dielectric constant tensor:
#      x y z
#    x 1.962240 0.000000 0.000000 
#    y 0.000000 2.031750 0.000000 
#    z 0.000000 0.000000 2.055920 
# 
# From -- ./inp_files/7576.got.cif
#   From: 2010.05.17/outbox.cif.g08.bks.cpg/sg60_4_cif.got.tgz:7576.got - 2010.06.03 14:59:27.
