data_PCOD9457387
_publ_section_title
;
Structure prediction by ZEFSAII (Michael W. Deem and Ramdas Pophale) SiO2 
 PCOD9457387
Probable space group: P B C N
;
_chemical_formula_sum "Si O2"
_cell_formula_units_Z 24
_cell_length_a 7.354943
_cell_length_b 10.189174
_cell_length_c 13.653345
_cell_angle_alpha 90.000000
_cell_angle_beta 90.000000
_cell_angle_gamma 90.000000
_cell_volume 1023.192515
_symmetry_space_group_name_H-M "P B C N"
_symmetry_group_IT_number 60
_symmetry_cell_setting 'orthorhombic'
loop_
_space_group_symop_operation_xyz
x,y,z
1/2-x,1/2-y,1/2+z
1/2+x,1/2-y,-z
-x,y,1/2-z
-x,-y,-z
1/2+x,1/2+y,1/2-z
1/2-x,1/2+y,z
x,-y,1/2+z
loop_
_atom_site_type_symbol
_atom_site_label
_atom_site_fract_x
_atom_site_fract_y
_atom_site_fract_z
Si Si1 0.278982 0.488761 0.259739
Si Si2 0.820494 0.736750 0.358811
Si Si3 0.365887 0.609726 0.954303
O O1 0.500000 0.506973 0.250000
O O2 0.190816 0.617285 0.215732
O O3 0.230465 0.363310 0.192968
O O4 0.239805 0.460557 0.373580
O O5 0.727316 0.685751 0.457718
O O6 0.017522 0.787675 0.390789
O O7 0.500000 0.500000 0.000000
#
# Coordination Sequence:
#
# PCOD9457387 Si02
#       3
#     8   8   8
#     4  10  23  42  65  99 140 173 225 283 332 402
#     4  11  23  44  73  99 137 186 219 287 345 397
#     4  11  24  46  70  99 143 173 230 285 339 403
#
# _framework density 23.455998000000001
#
# number of rings (size 3 to 8) (size 9 to 14) (size 15 to 20)
#    0.000    1.333    6.667    0.000    4.667    1.333 
#    0.000    5.000    0.000    0.000    0.000    0.000 
#    0.000    0.000    0.000    0.000    0.000    0.000 
#
# Total GULP energy -134388.590276 kJ/mol
# GULP energy per Si atom -5599.524595 kJ/mol
# Density = 2.340261 g / cm^3
# Si number density = 23.455998 Si / 1000 Ang^3
#
#
#
# Elastic Constant Matrix: (Units=GPa)
#
#
# Indices 1 2 3 4 5 6 
#
# 1 44.7459 41.6554 35.0999 0.0000 0.0000 0.0000
# 2 41.6554 205.0796 92.0993 0.0000 0.0000 0.0000
# 3 35.0999 92.0993 165.3258 0.0000 0.0000 0.0000
# 4 0.0000 0.0000 0.0000 65.8012 0.0000 0.0000
# 5 0.0000 0.0000 0.0000 0.0000 46.0357 0.0000
# 6 0.0000 0.0000 0.0000 0.0000 0.0000 27.1761
#
#
#
# Elastic Compliance Matrix: (Units=1/GPa)
#
#
# Indices 1 2 3 4 5 6 
#
# 1 0.029311 -0.004213 -0.003876 0.000000 0.000000 0.000000
# 2 -0.004213 0.007109 -0.003066 0.000000 0.000000 0.000000
# 3 -0.003876 -0.003066 0.008579 0.000000 0.000000 0.000000
# 4 0.000000 0.000000 0.000000 0.015197 0.000000 0.000000
# 5 0.000000 0.000000 0.000000 0.000000 0.021722 0.000000
# 6 0.000000 0.000000 0.000000 0.000000 0.000000 0.036797
#
#
# Mechanical properties :
#
#
# Convention : Reuss Voigt Hill
#
# Bulk Modulus (GPa) = 44.07280 83.65117 63.86198
# Shear Modulus (GPa) = 33.65020 44.22238 38.93629
#
# Velocity S-wave (km/s) = 3.79173 4.34675 4.07869
# Velocity P-wave (km/s) = 6.16441 7.80595 7.03324
#
# Compressibility (1/GPa) = 0.02268973
#
# Stress axis : x y z
#
# Youngs Moduli (GPa) = 34.11718 140.67446 116.55900
#
# Poissons Ratio (x) = 0.59265 0.45178
# Poissons Ratio (y) = 0.14373 0.35733
# Poissons Ratio (z) = 0.13224 0.43125
#
# Static dielectric constant tensor:
#      x y z
#    x 1.910830 0.000000 0.000000 
#    y 0.000000 1.878700 0.000000 
#    z 0.000000 0.000000 1.955400 
# 
# From -- ./inp_files/14181.got.cif
#   From: 2010.05.17/outbox.cif.g08.bks.cpg/sg60_8_cif.got.tgz:14181.got - 2010.06.03 14:59:27.
