data_PCOD9457949
_publ_section_title
;
Structure prediction by ZEFSAII (Michael W. Deem and Ramdas Pophale) SiO2 
 PCOD9457949
Probable space group: P B C N
;
_chemical_formula_sum "Si O2"
_cell_formula_units_Z 60
_cell_length_a 15.364582
_cell_length_b 9.330355
_cell_length_c 17.138851
_cell_angle_alpha 90.000000
_cell_angle_beta 90.000000
_cell_angle_gamma 90.000000
_cell_volume 2456.974340
_symmetry_space_group_name_H-M "P B C N"
_symmetry_group_IT_number 60
_symmetry_cell_setting 'orthorhombic'
loop_
_space_group_symop_operation_xyz
x,y,z
1/2-x,1/2-y,1/2+z
1/2+x,1/2-y,-z
-x,y,1/2-z
-x,-y,-z
1/2+x,1/2+y,1/2-z
1/2-x,1/2+y,z
x,-y,1/2+z
loop_
_atom_site_type_symbol
_atom_site_label
_atom_site_fract_x
_atom_site_fract_y
_atom_site_fract_z
Si Si1 0.500000 0.102547 0.250000
Si Si2 0.434388 0.238093 0.635862
Si Si3 0.104360 0.193075 0.964367
Si Si4 0.145352 0.567148 0.352624
Si Si5 0.218069 0.119234 0.231168
Si Si6 0.379848 0.914008 0.624781
Si Si7 0.903617 0.074657 0.139332
Si Si8 0.309570 0.189858 0.962205
O O1 0.574683 0.011325 0.208629
O O2 0.558645 0.178644 0.316287
O O3 0.435686 0.305039 0.548989
O O4 0.348408 0.277195 0.686068
O O5 0.520896 0.316721 0.666809
O O6 0.426753 0.068165 0.620669
O O7 0.094915 0.336991 0.914686
O O8 0.208088 0.194942 0.981259
O O9 0.072397 0.064677 0.909981
O O10 0.213354 0.659922 0.300820
O O11 0.184036 0.436174 0.398899
O O12 0.284920 0.063704 0.165455
O O13 0.151987 0.026512 0.284477
O O14 0.363474 0.847107 0.540193
O O15 0.845139 0.167874 0.078850
#
# Coordination Sequence:
#
# PCOD9457949 Si02
#       8
#     4   8   8   8   8   8   8   8
#     4  10  26  44  68 110 142 182 242 322 368 428
#     4  12  27  46  72 109 147 193 246 310 371 448
#     4  12  24  48  69 106 146 195 246 299 370 449
#     4  11  24  46  72 104 144 190 248 299 369 445
#     4  11  25  44  70 104 146 189 239 306 366 434
#     4  11  26  46  76 107 144 191 253 304 364 446
#     4  12  28  45  74 108 150 194 241 309 376 434
#     4  12  23  47  75 103 141 201 254 294 360 453
#
# _framework density 24.420280000000002
#
# number of rings (size 3 to 8) (size 9 to 14) (size 15 to 20)
#    0.000    0.533    5.333    1.600    9.333    1.067 
#    2.400    0.000    0.000    0.000    0.000    0.000 
#    0.000    0.000    0.000    0.000    0.000    0.000 
#
# Total GULP energy -334884.265480 kJ/mol
# GULP energy per Si atom -5581.404425 kJ/mol
# Density = 2.436470 g / cm^3
# Si number density = 24.420280 Si / 1000 Ang^3
#
#
#
# Elastic Constant Matrix: (Units=GPa)
#
#
# Indices 1 2 3 4 5 6 
#
# 1 90.0849 -9.0424 8.6803 0.0000 0.0000 0.0000
# 2 -9.0424 63.5298 3.1882 0.0000 0.0000 0.0000
# 3 8.6803 3.1882 117.1407 0.0000 0.0000 0.0000
# 4 0.0000 0.0000 0.0000 15.1923 0.0000 0.0000
# 5 0.0000 0.0000 0.0000 0.0000 50.5058 0.0000
# 6 0.0000 0.0000 0.0000 0.0000 0.0000 25.9994
#
#
#
# Elastic Compliance Matrix: (Units=1/GPa)
#
#
# Indices 1 2 3 4 5 6 
#
# 1 0.011353 0.001660 -0.000886 0.000000 0.000000 0.000000
# 2 0.001660 0.016005 -0.000559 0.000000 0.000000 0.000000
# 3 -0.000886 -0.000559 0.008618 0.000000 0.000000 0.000000
# 4 0.000000 0.000000 0.000000 0.065823 0.000000 0.000000
# 5 0.000000 0.000000 0.000000 0.000000 0.019800 0.000000
# 6 0.000000 0.000000 0.000000 0.000000 0.000000 0.038462
#
#
# Mechanical properties :
#
#
# Convention : Reuss Voigt Hill
#
# Bulk Modulus (GPa) = 27.46808 30.71195 29.09001
# Shear Modulus (GPa) = 29.10956 36.20146 32.65551
#
# Velocity S-wave (km/s) = 3.45632 3.85442 3.66078
# Velocity P-wave (km/s) = 5.21542 5.69319 5.45954
#
# Compressibility (1/GPa) = 0.03640589
#
# Stress axis : x y z
#
# Youngs Moduli (GPa) = 88.08465 62.48048 116.04116
#
# Poissons Ratio (x) = -0.10374 0.10286
# Poissons Ratio (y) = -0.14625 0.06482
# Poissons Ratio (z) = 0.07808 0.03490
#
# Static dielectric constant tensor:
#      x y z
#    x 2.000510 0.000000 0.000000 
#    y 0.000000 1.918350 0.000000 
#    z 0.000000 0.000000 2.010730 
# 
# From -- ./inp_files/20898.got.cif
#   From: 2010.05.17/outbox.cif.g08.bks.cpg/sg60_11_cif.got.tgz:20898.got - 2010.06.03 14:59:27.
