data_PCOD9457278
_publ_section_title
;
Structure prediction by ZEFSAII (Michael W. Deem and Ramdas Pophale) SiO2 
 PCOD9457278
Probable space group: P B C N
;
_chemical_formula_sum "Si O2"
_cell_formula_units_Z 60
_cell_length_a 5.200088
_cell_length_b 21.416366
_cell_length_c 22.169761
_cell_angle_alpha 90.000000
_cell_angle_beta 90.000000
_cell_angle_gamma 90.000000
_cell_volume 2468.979504
_symmetry_space_group_name_H-M "P B C N"
_symmetry_group_IT_number 60
_symmetry_cell_setting 'orthorhombic'
loop_
_space_group_symop_operation_xyz
x,y,z
1/2-x,1/2-y,1/2+z
1/2+x,1/2-y,-z
-x,y,1/2-z
-x,-y,-z
1/2+x,1/2+y,1/2-z
1/2-x,1/2+y,z
x,-y,1/2+z
loop_
_atom_site_type_symbol
_atom_site_label
_atom_site_fract_x
_atom_site_fract_y
_atom_site_fract_z
Si Si1 0.000021 0.573119 0.491035
Si Si2 0.899281 0.933530 0.818807
Si Si3 0.500000 0.002547 0.250000
Si Si4 0.367202 0.561617 0.833822
Si Si5 0.909336 0.752618 0.403506
Si Si6 0.745652 0.349766 0.606278
Si Si7 0.141611 0.370756 0.116163
Si Si8 0.384945 0.327860 0.502735
O O1 0.713935 0.601396 0.495706
O O2 0.000000 0.500000 0.500000
O O3 0.100104 0.593697 0.425289
O O4 0.154325 0.606855 0.545997
O O5 0.605157 0.953848 0.804340
O O6 0.000000 0.926065 0.750000
O O7 0.007031 0.874103 0.854303
O O8 0.027900 0.992892 0.852635
O O9 0.266027 0.958658 0.270419
O O10 0.618342 0.603259 0.845017
O O11 0.122152 0.596309 0.863121
O O12 0.676323 0.795420 0.379291
O O13 0.825753 0.711876 0.461217
O O14 0.066857 0.702181 0.364519
O O15 0.086899 0.804608 0.435160
O O16 0.623100 0.318770 0.546883
#
# Coordination Sequence:
#
# PCOD9457278 Si02
#       8
#     8   8   4   8   8   8   8   8
#     4  11  25  39  61 101 151 186 233 297 364 441
#     4  10  23  45  74 102 143 181 246 316 380 442
#     4  10  22  48  74 106 138 190 242 312 390 466
#     4  11  24  42  75 105 140 182 238 302 381 442
#     4  11  22  40  62  95 138 197 241 285 342 440
#     4  11  24  40  68 100 138 195 248 298 363 437
#     4  12  24  40  69 104 146 192 236 292 362 446
#     4  11  21  39  63  89 142 192 240 282 350 433
#
# _framework density 24.301538999999998
#
# number of rings (size 3 to 8) (size 9 to 14) (size 15 to 20)
#    0.000    1.067    4.000    2.400    3.733    4.800 
#    0.000    0.000    1.467    1.600    0.000    0.000 
#    0.000    0.000    0.000    0.000    0.000    0.000 
#
# Total GULP energy -334599.793466 kJ/mol
# GULP energy per Si atom -5576.663224 kJ/mol
# Density = 2.424623 g / cm^3
# Si number density = 24.301539 Si / 1000 Ang^3
#
#
#
# Elastic Constant Matrix: (Units=GPa)
#
#
# Indices 1 2 3 4 5 6 
#
# 1 134.5905 33.9736 27.0881 0.0000 0.0000 0.0000
# 2 33.9736 134.8817 28.4566 0.0000 0.0000 0.0000
# 3 27.0881 28.4566 70.9720 0.0000 0.0000 0.0000
# 4 0.0000 0.0000 0.0000 25.0878 0.0000 0.0000
# 5 0.0000 0.0000 0.0000 0.0000 39.9653 0.0000
# 6 0.0000 0.0000 0.0000 0.0000 0.0000 35.8838
#
#
#
# Elastic Compliance Matrix: (Units=1/GPa)
#
#
# Indices 1 2 3 4 5 6 
#
# 1 0.008339 -0.001561 -0.002557 0.000000 0.000000 0.000000
# 2 -0.001561 0.008391 -0.002769 0.000000 0.000000 0.000000
# 3 -0.002557 -0.002769 0.016176 0.000000 0.000000 0.000000
# 4 0.000000 0.000000 0.000000 0.039860 0.000000 0.000000
# 5 0.000000 0.000000 0.000000 0.000000 0.025022 0.000000
# 6 0.000000 0.000000 0.000000 0.000000 0.000000 0.027868
#
#
# Mechanical properties :
#
#
# Convention : Reuss Voigt Hill
#
# Bulk Modulus (GPa) = 52.26567 57.72008 54.99287
# Shear Modulus (GPa) = 34.29225 36.91579 35.60402
#
# Velocity S-wave (km/s) = 3.76056 3.90176 3.83181
# Velocity P-wave (km/s) = 6.35685 6.64089 6.50042
#
# Compressibility (1/GPa) = 0.01913302
#
# Stress axis : x y z
#
# Youngs Moduli (GPa) = 119.92532 119.17267 61.81983
#
# Poissons Ratio (x) = 0.18601 0.15806
# Poissons Ratio (y) = 0.18719 0.17116
# Poissons Ratio (z) = 0.30662 0.32996
#
# Static dielectric constant tensor:
#      x y z
#    x 2.105490 0.000000 0.000000 
#    y 0.000000 1.987850 0.000000 
#    z 0.000000 0.000000 1.987640 
# 
# From -- ./inp_files/23712.got.cif
#   From: 2010.05.17/outbox.cif.g08.bks.cpg/sg60_12_cif.got.tgz:23712.got - 2010.06.03 14:59:27.
