data_PCOD9457495
_publ_section_title
;
Structure prediction by ZEFSAII (Michael W. Deem and Ramdas Pophale) SiO2 
 PCOD9457495
Probable space group: P B C N
;
_chemical_formula_sum "Si O2"
_cell_formula_units_Z 48
_cell_length_a 22.584101
_cell_length_b 8.146185
_cell_length_c 11.680626
_cell_angle_alpha 90.000000
_cell_angle_beta 90.000000
_cell_angle_gamma 90.000000
_cell_volume 2148.934581
_symmetry_space_group_name_H-M "P B C N"
_symmetry_group_IT_number 60
_symmetry_cell_setting 'orthorhombic'
loop_
_space_group_symop_operation_xyz
x,y,z
1/2-x,1/2-y,1/2+z
1/2+x,1/2-y,-z
-x,y,1/2-z
-x,-y,-z
1/2+x,1/2+y,1/2-z
1/2-x,1/2+y,z
x,-y,1/2+z
loop_
_atom_site_type_symbol
_atom_site_label
_atom_site_fract_x
_atom_site_fract_y
_atom_site_fract_z
Si Si1 0.430122 0.886762 0.252735
Si Si2 0.655874 0.399982 0.341374
Si Si3 0.781325 0.120447 0.632216
Si Si4 0.059411 0.765942 0.318740
Si Si5 0.338382 0.734811 0.421161
Si Si6 0.125168 0.235538 0.036022
O O1 0.500000 0.841353 0.250000
O O2 0.393654 0.777268 0.342374
O O3 0.397756 0.865960 0.129338
O O4 0.427678 0.073679 0.296982
O O5 0.714727 0.357809 0.269826
O O6 0.607375 0.373820 0.245285
O O7 0.645117 0.279192 0.446399
O O8 0.648273 0.581516 0.390192
O O9 0.713947 0.135677 0.595582
O O10 0.821182 0.248982 0.557162
O O11 0.808253 0.940220 0.609338
O O12 0.068476 0.799449 0.453392
O O13 0.000000 0.801781 0.250000
#
# Coordination Sequence:
#
# PCOD9457495 Si02
#       6
#     8   8   8   8   8   8
#     4  11  26  44  69 100 140 186 232 286 352 413
#     4  10  23  44  65  99 135 175 234 279 349 411
#     4  10  24  43  65 103 131 180 227 284 348 405
#     4  10  25  42  68 101 133 184 235 281 347 416
#     4  11  25  42  69  98 136 179 229 285 346 411
#     4  10  23  46  65  96 144 172 232 292 336 416
#
# _framework density 22.336652000000001
#
# number of rings (size 3 to 8) (size 9 to 14) (size 15 to 20)
#    0.000    1.667    1.667    0.000   11.667    2.667 
#    0.000    0.000    0.000    0.000    0.000    0.000 
#    0.000    0.000    0.000    0.000    0.000    0.000 
#
# Total GULP energy -267859.030500 kJ/mol
# GULP energy per Si atom -5580.396469 kJ/mol
# Density = 2.228581 g / cm^3
# Si number density = 22.336652 Si / 1000 Ang^3
#
#
#
# Elastic Constant Matrix: (Units=GPa)
#
#
# Indices 1 2 3 4 5 6 
#
# 1 65.6003 42.7380 3.4679 0.0000 0.0000 0.0000
# 2 42.7380 45.2732 13.4762 0.0000 0.0000 0.0000
# 3 3.4679 13.4762 121.9727 0.0000 0.0000 0.0000
# 4 0.0000 0.0000 0.0000 1.5691 0.0000 0.0000
# 5 0.0000 0.0000 0.0000 0.0000 -14.2223 0.0000
# 6 0.0000 0.0000 0.0000 0.0000 0.0000 28.4253
#
#
#
# Elastic Compliance Matrix: (Units=1/GPa)
#
#
# Indices 1 2 3 4 5 6 
#
# 1 0.040767 -0.039436 0.003198 0.000000 0.000000 0.000000
# 2 -0.039436 0.060988 -0.005617 0.000000 0.000000 0.000000
# 3 0.003198 -0.005617 0.008728 0.000000 0.000000 0.000000
# 4 0.000000 0.000000 0.000000 0.637320 0.000000 0.000000
# 5 0.000000 0.000000 0.000000 0.000000 -0.070312 0.000000
# 6 0.000000 0.000000 0.000000 0.000000 0.000000 0.035180
#
#
# Mechanical properties :
#
#
# Convention : Reuss Voigt Hill
#
# Bulk Modulus (GPa) = 37.35115 39.13449 38.24282
# Shear Modulus (GPa) = 6.20882 14.69869 10.45376
#
# Velocity S-wave (km/s) = 1.66904 2.56804 2.16570
# Velocity P-wave (km/s) = 4.52465 5.13336 4.83859
#
# Compressibility (1/GPa) = 0.02677294
#
# Stress axis : x y z
#
# Youngs Moduli (GPa) = 24.52963 16.39671 114.57085
#
# Poissons Ratio (x) = 0.64662 -0.36640
# Poissons Ratio (y) = 0.96735 0.64355
# Poissons Ratio (z) = -0.07845 0.09210
#
# Static dielectric constant tensor:
#      x y z
#    x 1.884740 0.000000 0.000000 
#    y 0.000000 1.846570 0.000000 
#    z 0.000000 0.000000 1.929130 
# 
# From -- ./inp_files/13047.got.cif
#   From: 2010.05.17/outbox.cif.g08.bks.cpg/sg60_7_cif.got.tgz:13047.got - 2010.06.03 14:59:27.
