data_PCOD9457675
_publ_section_title
;
Structure prediction by ZEFSAII (Michael W. Deem and Ramdas Pophale) SiO2 
 PCOD9457675
Probable space group: P B C N
;
_chemical_formula_sum "Si O2"
_cell_formula_units_Z 36
_cell_length_a 7.679978
_cell_length_b 9.848883
_cell_length_c 19.430806
_cell_angle_alpha 90.000000
_cell_angle_beta 90.000000
_cell_angle_gamma 90.000000
_cell_volume 1469.730714
_symmetry_space_group_name_H-M "P B C N"
_symmetry_group_IT_number 60
_symmetry_cell_setting 'orthorhombic'
loop_
_space_group_symop_operation_xyz
x,y,z
1/2-x,1/2-y,1/2+z
1/2+x,1/2-y,-z
-x,y,1/2-z
-x,-y,-z
1/2+x,1/2+y,1/2-z
1/2-x,1/2+y,z
x,-y,1/2+z
loop_
_atom_site_type_symbol
_atom_site_label
_atom_site_fract_x
_atom_site_fract_y
_atom_site_fract_z
Si Si1 0.293244 0.318955 0.871410
Si Si2 0.448624 0.699666 0.676430
Si Si3 0.706120 0.523386 0.511824
Si Si4 0.500000 0.566823 0.250000
Si Si5 0.843321 0.280116 0.428443
O O1 0.118638 0.230254 0.868820
O O2 0.360447 0.350626 0.793943
O O3 0.460528 0.249083 0.906311
O O4 0.253908 0.456829 0.914081
O O5 0.500000 0.763049 0.750000
O O6 0.422896 0.540384 0.694327
O O7 0.278780 0.746382 0.637276
O O8 0.500000 0.500000 0.500000
O O9 0.811855 0.429532 0.458038
O O10 0.724672 0.677487 0.487199
#
# Coordination Sequence:
#
# PCOD9457675 Si02
#       5
#     8   8   8   4   8
#     4  11  24  44  72 102 141 193 236 301 366 434
#     4  10  24  41  70  98 143 183 241 292 360 430
#     4  10  25  44  73 105 150 179 245 306 362 433
#     4  10  24  46  66 100 148 182 240 302 344 440
#     4  11  24  46  71 108 143 193 236 304 364 438
#
# _framework density 24.494285000000001
#
# number of rings (size 3 to 8) (size 9 to 14) (size 15 to 20)
#    0.667    0.889    0.000    4.000    9.333    2.667 
#    0.000    2.222    0.000    0.000    0.000    0.000 
#    0.000    0.000    0.000    0.000    0.000    0.000 
#
# Total GULP energy -201352.552688 kJ/mol
# GULP energy per Si atom -5593.126464 kJ/mol
# Density = 2.443853 g / cm^3
# Si number density = 24.494285 Si / 1000 Ang^3
#
#
#
# Elastic Constant Matrix: (Units=GPa)
#
#
# Indices 1 2 3 4 5 6 
#
# 1 132.1604 33.1631 42.4389 0.0000 0.0000 0.0000
# 2 33.1631 55.1518 3.2605 0.0000 0.0000 0.0000
# 3 42.4389 3.2605 116.8242 0.0000 0.0000 0.0000
# 4 0.0000 0.0000 0.0000 47.4848 0.0000 0.0000
# 5 0.0000 0.0000 0.0000 0.0000 49.2530 0.0000
# 6 0.0000 0.0000 0.0000 0.0000 0.0000 25.6322
#
#
#
# Elastic Compliance Matrix: (Units=1/GPa)
#
#
# Indices 1 2 3 4 5 6 
#
# 1 0.010186 -0.005916 -0.003535 0.000000 0.000000 0.000000
# 2 -0.005916 0.021598 0.001546 0.000000 0.000000 0.000000
# 3 -0.003535 0.001546 0.009801 0.000000 0.000000 0.000000
# 4 0.000000 0.000000 0.000000 0.021059 0.000000 0.000000
# 5 0.000000 0.000000 0.000000 0.000000 0.020303 0.000000
# 6 0.000000 0.000000 0.000000 0.000000 0.000000 0.039013
#
#
# Mechanical properties :
#
#
# Convention : Reuss Voigt Hill
#
# Bulk Modulus (GPa) = 38.79727 51.31793 45.05760
# Shear Modulus (GPa) = 34.16167 39.49226 36.82697
#
# Velocity S-wave (km/s) = 3.73859 4.01971 3.88170
# Velocity P-wave (km/s) = 5.87450 6.52231 6.20686
#
# Compressibility (1/GPa) = 0.02577501
#
# Stress axis : x y z
#
# Youngs Moduli (GPa) = 98.17078 46.30119 102.03055
#
# Poissons Ratio (x) = 0.27392 0.36071
# Poissons Ratio (y) = 0.58079 -0.15778
# Poissons Ratio (z) = 0.34706 -0.07160
#
# Static dielectric constant tensor:
#      x y z
#    x 1.881900 0.000000 0.000000 
#    y 0.000000 1.982560 0.000000 
#    z 0.000000 0.000000 2.035760 
# 
# From -- ./inp_files/21980.got.cif
#   From: 2010.05.17/outbox.cif.g08.bks.cpg/sg60_11_cif.got.tgz:21980.got - 2010.06.03 14:59:27.
