data_PCOD9457642
_publ_section_title
;
Structure prediction by ZEFSAII (Michael W. Deem and Ramdas Pophale) SiO2 
 PCOD9457642
Probable space group: P B C N
;
_chemical_formula_sum "Si O2"
_cell_formula_units_Z 28
_cell_length_a 4.940337
_cell_length_b 9.011617
_cell_length_c 26.281996
_cell_angle_alpha 90.000000
_cell_angle_beta 90.000000
_cell_angle_gamma 90.000000
_cell_volume 1170.085629
_symmetry_space_group_name_H-M "P B C N"
_symmetry_group_IT_number 60
_symmetry_cell_setting 'orthorhombic'
loop_
_space_group_symop_operation_xyz
x,y,z
1/2-x,1/2-y,1/2+z
1/2+x,1/2-y,-z
-x,y,1/2-z
-x,-y,-z
1/2+x,1/2+y,1/2-z
1/2-x,1/2+y,z
x,-y,1/2+z
loop_
_atom_site_type_symbol
_atom_site_label
_atom_site_fract_x
_atom_site_fract_y
_atom_site_fract_z
Si Si1 0.048804 0.953682 0.558052
Si Si2 0.000000 0.612292 0.250000
Si Si3 0.692209 0.170795 0.793472
Si Si4 0.051500 0.624566 0.903701
O O1 0.984985 0.780538 0.566859
O O2 0.849173 0.055853 0.591912
O O3 0.000000 0.000000 0.500000
O O4 0.351640 0.999838 0.573183
O O5 0.217940 0.492067 0.230396
O O6 0.036068 0.732349 0.204498
O O7 0.500000 0.244108 0.750000
O O8 0.544456 0.156074 0.846548
#
# Coordination Sequence:
#
# PCOD9457642 Si02
#       4
#     8   4   8   8
#     4  12  26  47  72 105 143 186 242 303 358 426
#     4  10  24  40  64  90 140 168 232 272 356 396
#     4  10  26  40  68  95 138 178 228 285 344 428
#     4  12  26  44  75 102 142 186 240 288 372 422
#
# _framework density 23.929874000000002
#
# number of rings (size 3 to 8) (size 9 to 14) (size 15 to 20)
#    0.857    0.000    0.000    6.000   10.000    0.000 
#    0.000    0.000    0.000    0.000    0.000    0.000 
#    0.000    0.000    0.000    0.000    0.000    0.000 
#
# Total GULP energy -156111.499171 kJ/mol
# GULP energy per Si atom -5575.410685 kJ/mol
# Density = 2.387541 g / cm^3
# Si number density = 23.929874 Si / 1000 Ang^3
#
#
#
# Elastic Constant Matrix: (Units=GPa)
#
#
# Indices 1 2 3 4 5 6 
#
# 1 55.2292 5.4397 17.0024 0.0000 0.0000 0.0000
# 2 5.4397 131.2058 -25.3070 0.0000 0.0000 0.0000
# 3 17.0024 -25.3070 63.8155 0.0000 0.0000 0.0000
# 4 0.0000 0.0000 0.0000 7.5071 0.0000 0.0000
# 5 0.0000 0.0000 0.0000 0.0000 31.3089 0.0000
# 6 0.0000 0.0000 0.0000 0.0000 0.0000 23.6739
#
#
#
# Elastic Compliance Matrix: (Units=1/GPa)
#
#
# Indices 1 2 3 4 5 6 
#
# 1 0.020212 -0.002032 -0.006191 0.000000 0.000000 0.000000
# 2 -0.002032 0.008457 0.003895 0.000000 0.000000 0.000000
# 3 -0.006191 0.003895 0.018864 0.000000 0.000000 0.000000
# 4 0.000000 0.000000 0.000000 0.133208 0.000000 0.000000
# 5 0.000000 0.000000 0.000000 0.000000 0.031940 0.000000
# 6 0.000000 0.000000 0.000000 0.000000 0.000000 0.042241
#
#
# Mechanical properties :
#
#
# Convention : Reuss Voigt Hill
#
# Bulk Modulus (GPa) = 25.72143 27.16896 26.44519
# Shear Modulus (GPa) = 18.08071 29.37233 23.72652
#
# Velocity S-wave (km/s) = 2.75175 3.50728 3.15223
# Velocity P-wave (km/s) = 4.56817 5.27063 4.93192
#
# Compressibility (1/GPa) = 0.03887808
#
# Stress axis : x y z
#
# Youngs Moduli (GPa) = 49.47444 118.24277 53.00996
#
# Poissons Ratio (x) = 0.24028 0.32819
# Poissons Ratio (y) = 0.10054 -0.20649
# Poissons Ratio (z) = 0.30630 -0.46058
#
# Static dielectric constant tensor:
#      x y z
#    x 1.985850 0.000000 0.000000 
#    y 0.000000 1.889660 0.000000 
#    z 0.000000 0.000000 1.914000 
# 
# From -- ./inp_files/24688.got.cif
#   From: 2010.05.17/outbox.cif.g08.bks.cpg/sg60_13_cif.got.tgz:24688.got - 2010.06.03 14:59:27.
