data_PCOD9457201
_publ_section_title
;
Structure prediction by ZEFSAII (Michael W. Deem and Ramdas Pophale) SiO2 
 PCOD9457201
Probable space group: P B C N
;
_chemical_formula_sum "Si O2"
_cell_formula_units_Z 48
_cell_length_a 13.617713
_cell_length_b 14.572852
_cell_length_c 11.709671
_cell_angle_alpha 90.000000
_cell_angle_beta 90.000000
_cell_angle_gamma 90.000000
_cell_volume 2323.771518
_symmetry_space_group_name_H-M "P B C N"
_symmetry_group_IT_number 60
_symmetry_cell_setting 'orthorhombic'
loop_
_space_group_symop_operation_xyz
x,y,z
1/2-x,1/2-y,1/2+z
1/2+x,1/2-y,-z
-x,y,1/2-z
-x,-y,-z
1/2+x,1/2+y,1/2-z
1/2-x,1/2+y,z
x,-y,1/2+z
loop_
_atom_site_type_symbol
_atom_site_label
_atom_site_fract_x
_atom_site_fract_y
_atom_site_fract_z
Si Si1 0.711467 0.100244 0.363099
Si Si2 0.295850 0.422179 0.241868
Si Si3 0.500000 0.809708 0.250000
Si Si4 0.380556 0.051485 0.909509
Si Si5 0.325632 0.225532 0.597469
Si Si6 0.903920 0.347083 0.636030
Si Si7 0.500000 0.686730 0.750000
O O1 0.634020 0.063948 0.455860
O O2 0.769608 0.181153 0.422832
O O3 0.661286 0.145427 0.251105
O O4 0.783220 0.017955 0.325392
O O5 0.229428 0.441631 0.354512
O O6 0.237446 0.345647 0.170782
O O7 0.404440 0.379091 0.252808
O O8 0.555857 0.873023 0.156992
O O9 0.578638 0.755455 0.325121
O O10 0.429680 0.953700 0.881198
O O11 0.346319 0.179081 0.477194
O O12 0.981430 0.263539 0.650429
#
# Coordination Sequence:
#
# PCOD9457201 Si02
#       7
#     8   8   4   8   8   8   4
#     4  11  23  43  72  93 140 186 219 283 348 412
#     4  10  23  44  66  97 134 181 223 279 351 408
#     4  10  25  39  66  98 136 176 234 286 342 402
#     4  10  22  45  66  97 137 177 230 291 340 405
#     4  11  23  44  64  98 136 181 229 281 345 412
#     4  11  24  40  70  99 129 182 235 274 348 404
#     4  12  23  43  66 106 134 172 234 288 330 414
#
# _framework density 20.656077
#
# number of rings (size 3 to 8) (size 9 to 14) (size 15 to 20)
#    0.000    1.333    3.333    1.500    4.667    1.333 
#    0.000    3.333    0.000    0.000    0.000    0.000 
#    0.000    0.000    0.000    0.000    0.000    0.000 
#
# Total GULP energy -267800.269571 kJ/mol
# GULP energy per Si atom -5579.172283 kJ/mol
# Density = 2.060906 g / cm^3
# Si number density = 20.656077 Si / 1000 Ang^3
#
#
#
# Elastic Constant Matrix: (Units=GPa)
#
#
# Indices 1 2 3 4 5 6 
#
# 1 106.8123 20.6365 30.7515 0.0000 0.0000 0.0000
# 2 20.6365 79.5963 8.0107 0.0000 0.0000 0.0000
# 3 30.7515 8.0107 94.0797 0.0000 0.0000 0.0000
# 4 0.0000 0.0000 0.0000 39.0921 0.0000 0.0000
# 5 0.0000 0.0000 0.0000 0.0000 8.0367 0.0000
# 6 0.0000 0.0000 0.0000 0.0000 0.0000 23.2239
#
#
#
# Elastic Compliance Matrix: (Units=1/GPa)
#
#
# Indices 1 2 3 4 5 6 
#
# 1 0.010794 -0.002464 -0.003318 0.000000 0.000000 0.000000
# 2 -0.002464 0.013235 -0.000321 0.000000 0.000000 0.000000
# 3 -0.003318 -0.000321 0.011741 0.000000 0.000000 0.000000
# 4 0.000000 0.000000 0.000000 0.025581 0.000000 0.000000
# 5 0.000000 0.000000 0.000000 0.000000 0.124429 0.000000
# 6 0.000000 0.000000 0.000000 0.000000 0.000000 0.043059
#
#
# Mechanical properties :
#
#
# Convention : Reuss Voigt Hill
#
# Bulk Modulus (GPa) = 42.44212 44.36508 43.40360
# Shear Modulus (GPa) = 20.08839 28.80985 24.44912
#
# Velocity S-wave (km/s) = 3.12190 3.73867 3.44412
# Velocity P-wave (km/s) = 5.79540 6.33731 6.07240
#
# Compressibility (1/GPa) = 0.02356150
#
# Stress axis : x y z
#
# Youngs Moduli (GPa) = 92.64666 75.55907 85.16965
#
# Poissons Ratio (x) = 0.18621 0.28261
# Poissons Ratio (y) = 0.22832 0.02737
# Poissons Ratio (z) = 0.30743 0.02428
#
# Static dielectric constant tensor:
#      x y z
#    x 1.791730 0.000000 0.000000 
#    y 0.000000 1.717020 0.000000 
#    z 0.000000 0.000000 1.807660 
# 
# From -- ./inp_files/11923.got.cif
#   From: 2010.05.17/outbox.cif.g08.bks.cpg/sg60_6_cif.got.tgz:11923.got - 2010.06.03 14:59:27.
