data_PCOD9457080
_publ_section_title
;
Structure prediction by ZEFSAII (Michael W. Deem and Ramdas Pophale) SiO2 
 PCOD9457080
Probable space group: P B C N
;
_chemical_formula_sum "Si O2"
_cell_formula_units_Z 48
_cell_length_a 9.467213
_cell_length_b 18.264159
_cell_length_c 13.751123
_cell_angle_alpha 90.000000
_cell_angle_beta 90.000000
_cell_angle_gamma 90.000000
_cell_volume 2377.716077
_symmetry_space_group_name_H-M "P B C N"
_symmetry_group_IT_number 60
_symmetry_cell_setting 'orthorhombic'
loop_
_space_group_symop_operation_xyz
x,y,z
1/2-x,1/2-y,1/2+z
1/2+x,1/2-y,-z
-x,y,1/2-z
-x,-y,-z
1/2+x,1/2+y,1/2-z
1/2-x,1/2+y,z
x,-y,1/2+z
loop_
_atom_site_type_symbol
_atom_site_label
_atom_site_fract_x
_atom_site_fract_y
_atom_site_fract_z
Si Si1 0.500000 0.893100 0.750000
Si Si2 0.924201 0.790175 0.961333
Si Si3 0.094601 0.939730 0.444478
Si Si4 0.500000 0.355526 0.250000
Si Si5 0.871683 0.468970 0.566074
Si Si6 0.782914 0.724843 0.287474
Si Si7 0.241045 0.184477 0.427563
O O1 0.426865 0.944238 0.828756
O O2 0.600881 0.837869 0.811224
O O3 0.842345 0.765744 0.864403
O O4 0.092320 0.788087 0.967168
O O5 0.886316 0.873836 0.980264
O O6 0.861827 0.741296 0.046299
O O7 0.028434 0.905594 0.345464
O O8 0.247758 0.972597 0.423157
O O9 0.000000 0.000000 0.500000
O O10 0.367409 0.300590 0.230311
O O11 0.792332 0.393802 0.531960
O O12 0.000000 0.500000 0.500000
O O13 0.722535 0.689944 0.188039
#
# Coordination Sequence:
#
# PCOD9457080 Si02
#       7
#     4   8   8   4   8   8   8
#     4   9  22  44  66  98 129 180 226 284 349 414
#     4  12  24  44  70 101 137 182 235 293 347 429
#     4  12  26  45  70 104 143 189 232 295 363 427
#     4  11  24  46  68 106 145 184 240 300 361 426
#     4  11  25  45  67  99 138 179 230 283 355 416
#     4  10  22  42  73  95 136 181 234 296 345 415
#     4  11  25  43  69 102 132 182 236 280 354 421
#
# _framework density 20.187439999999999
#
# number of rings (size 3 to 8) (size 9 to 14) (size 15 to 20)
#    0.000    1.000    3.333    2.500    7.000    4.000 
#    0.000    0.000    0.000    0.000    0.000    0.000 
#    0.000    0.000    0.000    0.000    0.000    0.000 
#
# Total GULP energy -267932.182347 kJ/mol
# GULP energy per Si atom -5581.920466 kJ/mol
# Density = 2.014149 g / cm^3
# Si number density = 20.187440 Si / 1000 Ang^3
#
#
#
# Elastic Constant Matrix: (Units=GPa)
#
#
# Indices 1 2 3 4 5 6 
#
# 1 129.2896 37.4544 36.3025 0.0000 0.0000 0.0000
# 2 37.4544 80.2099 20.9549 0.0000 0.0000 0.0000
# 3 36.3025 20.9549 78.8174 0.0000 0.0000 0.0000
# 4 0.0000 0.0000 0.0000 35.2471 0.0000 0.0000
# 5 0.0000 0.0000 0.0000 0.0000 41.3337 0.0000
# 6 0.0000 0.0000 0.0000 0.0000 0.0000 34.4230
#
#
#
# Elastic Compliance Matrix: (Units=1/GPa)
#
#
# Indices 1 2 3 4 5 6 
#
# 1 0.009784 -0.003644 -0.003537 0.000000 0.000000 0.000000
# 2 -0.003644 0.014755 -0.002244 0.000000 0.000000 0.000000
# 3 -0.003537 -0.002244 0.014914 0.000000 0.000000 0.000000
# 4 0.000000 0.000000 0.000000 0.028371 0.000000 0.000000
# 5 0.000000 0.000000 0.000000 0.000000 0.024193 0.000000
# 6 0.000000 0.000000 0.000000 0.000000 0.000000 0.029050
#
#
# Mechanical properties :
#
#
# Convention : Reuss Voigt Hill
#
# Bulk Modulus (GPa) = 48.54291 53.08228 50.81260
# Shear Modulus (GPa) = 34.06318 35.10778 34.58548
#
# Velocity S-wave (km/s) = 4.11219 4.17476 4.14359
# Velocity P-wave (km/s) = 6.82972 7.04202 6.93668
#
# Compressibility (1/GPa) = 0.02060033
#
# Stress axis : x y z
#
# Youngs Moduli (GPa) = 102.21249 67.77185 67.05332
#
# Poissons Ratio (x) = 0.24698 0.23719
# Poissons Ratio (y) = 0.37250 0.15050
# Poissons Ratio (z) = 0.36156 0.15211
#
# Static dielectric constant tensor:
#      x y z
#    x 1.795780 0.000000 0.000000 
#    y 0.000000 1.934860 0.000000 
#    z 0.000000 0.000000 1.732420 
# 
# From -- ./inp_files/15081.got.cif
#   From: 2010.05.17/outbox.cif.g08.bks.cpg/sg60_8_cif.got.tgz:15081.got - 2010.06.03 14:59:27.
