data_PCOD9457791
_publ_section_title
;
Structure prediction by ZEFSAII (Michael W. Deem and Ramdas Pophale) SiO2 
 PCOD9457791
Probable space group: P B C N
;
_chemical_formula_sum "Si O2"
_cell_formula_units_Z 60
_cell_length_a 14.079462
_cell_length_b 8.766954
_cell_length_c 21.305990
_cell_angle_alpha 90.000000
_cell_angle_beta 90.000000
_cell_angle_gamma 90.000000
_cell_volume 2629.883478
_symmetry_space_group_name_H-M "P B C N"
_symmetry_group_IT_number 60
_symmetry_cell_setting 'orthorhombic'
loop_
_space_group_symop_operation_xyz
x,y,z
1/2-x,1/2-y,1/2+z
1/2+x,1/2-y,-z
-x,y,1/2-z
-x,-y,-z
1/2+x,1/2+y,1/2-z
1/2-x,1/2+y,z
x,-y,1/2+z
loop_
_atom_site_type_symbol
_atom_site_label
_atom_site_fract_x
_atom_site_fract_y
_atom_site_fract_z
Si Si1 0.929882 0.219822 0.967257
Si Si2 0.375604 0.427999 0.815586
Si Si3 0.500000 0.630002 0.750000
Si Si4 0.824356 0.474241 0.820898
Si Si5 0.256627 0.233786 0.601153
Si Si6 0.963600 0.120793 0.414975
Si Si7 0.521602 0.890878 0.645200
Si Si8 0.801115 0.413743 0.180983
O O1 0.818047 0.251616 0.955546
O O2 0.989381 0.333281 0.922859
O O3 0.946445 0.048648 0.941704
O O4 0.971562 0.217942 0.036784
O O5 0.410304 0.515115 0.752770
O O6 0.472047 0.400136 0.853830
O O7 0.325501 0.263821 0.813048
O O8 0.300913 0.543786 0.847950
O O9 0.518602 0.744075 0.691703
O O10 0.796507 0.302511 0.837504
O O11 0.774289 0.561342 0.877929
O O12 0.936819 0.495779 0.827968
O O13 0.797318 0.521767 0.751843
O O14 0.360929 0.303127 0.592689
O O15 0.617351 0.986964 0.647647
#
# Coordination Sequence:
#
# PCOD9457791 Si02
#       8
#     8   8   4   8   8   8   8   8
#     4  10  24  45  71  99 135 184 226 295 344 412
#     4  12  29  42  68 103 140 189 228 289 350 423
#     4  12  24  42  66  96 142 178 226 286 354 410
#     4  11  23  38  68  99 139 177 225 281 340 417
#     4  11  23  43  69 105 128 181 235 280 340 416
#     4  11  24  47  71 101 139 180 236 285 351 408
#     4  11  23  44  69  99 138 180 231 291 351 416
#     4  12  26  44  65 106 142 186 227 288 360 417
#
# _framework density 22.814698
#
# number of rings (size 3 to 8) (size 9 to 14) (size 15 to 20)
#    0.000    0.800    4.000    2.400    9.333    1.067 
#    2.400    6.000    0.000    0.000    0.000    0.000 
#    0.000    0.000    0.000    0.000    0.000    0.000 
#
# Total GULP energy -335292.941777 kJ/mol
# GULP energy per Si atom -5588.215696 kJ/mol
# Density = 2.276277 g / cm^3
# Si number density = 22.814698 Si / 1000 Ang^3
#
#
#
# Elastic Constant Matrix: (Units=GPa)
#
#
# Indices 1 2 3 4 5 6 
#
# 1 157.4502 30.7681 11.3330 0.0000 0.0000 0.0000
# 2 30.7681 86.7678 -8.3185 0.0000 0.0000 0.0000
# 3 11.3330 -8.3185 29.6548 0.0000 0.0000 0.0000
# 4 0.0000 0.0000 0.0000 10.1041 0.0000 0.0000
# 5 0.0000 0.0000 0.0000 0.0000 26.4186 0.0000
# 6 0.0000 0.0000 0.0000 0.0000 0.0000 41.7255
#
#
#
# Elastic Compliance Matrix: (Units=1/GPa)
#
#
# Indices 1 2 3 4 5 6 
#
# 1 0.007170 -0.002883 -0.003549 0.000000 0.000000 0.000000
# 2 -0.002883 0.013003 0.004749 0.000000 0.000000 0.000000
# 3 -0.003549 0.004749 0.036410 0.000000 0.000000 0.000000
# 4 0.000000 0.000000 0.000000 0.098970 0.000000 0.000000
# 5 0.000000 0.000000 0.000000 0.000000 0.037852 0.000000
# 6 0.000000 0.000000 0.000000 0.000000 0.000000 0.023966
#
#
# Mechanical properties :
#
#
# Convention : Reuss Voigt Hill
#
# Bulk Modulus (GPa) = 18.79091 37.93758 28.36425
# Shear Modulus (GPa) = 20.96660 31.65564 26.31112
#
# Velocity S-wave (km/s) = 3.03478 3.72897 3.39964
# Velocity P-wave (km/s) = 4.53145 5.93338 5.27916
#
# Compressibility (1/GPa) = 0.05321723
#
# Stress axis : x y z
#
# Youngs Moduli (GPa) = 139.47052 76.90821 27.46525
#
# Poissons Ratio (x) = 0.22170 0.09747
# Poissons Ratio (y) = 0.40205 -0.13043
# Poissons Ratio (z) = 0.49494 -0.36524
#
# Static dielectric constant tensor:
#      x y z
#    x 1.891990 0.000000 0.000000 
#    y 0.000000 1.874380 0.000000 
#    z 0.000000 0.000000 1.848960 
# 
# From -- ./inp_files/24424.got.cif
#   From: 2010.05.17/outbox.cif.g08.bks.cpg/sg60_13_cif.got.tgz:24424.got - 2010.06.03 14:59:27.
