data_PCOD9457438
_publ_section_title
;
Structure prediction by ZEFSAII (Michael W. Deem and Ramdas Pophale) SiO2 
 PCOD9457438
Probable space group: P B C N
;
_chemical_formula_sum "Si O2"
_cell_formula_units_Z 32
_cell_length_a 5.472468
_cell_length_b 23.094240
_cell_length_c 10.395454
_cell_angle_alpha 90.000000
_cell_angle_beta 90.000000
_cell_angle_gamma 90.000000
_cell_volume 1313.803355
_symmetry_space_group_name_H-M "P B C N"
_symmetry_group_IT_number 60
_symmetry_cell_setting 'orthorhombic'
loop_
_space_group_symop_operation_xyz
x,y,z
1/2-x,1/2-y,1/2+z
1/2+x,1/2-y,-z
-x,y,1/2-z
-x,-y,-z
1/2+x,1/2+y,1/2-z
1/2-x,1/2+y,z
x,-y,1/2+z
loop_
_atom_site_type_symbol
_atom_site_label
_atom_site_fract_x
_atom_site_fract_y
_atom_site_fract_z
Si Si1 0.734600 0.264268 0.922912
Si Si2 0.251638 0.460633 0.689829
Si Si3 0.500000 0.926433 0.250000
Si Si4 0.751280 0.881997 0.026935
Si Si5 0.500000 0.316230 0.250000
O O1 0.786826 0.227606 0.795110
O O2 0.472122 0.250025 0.986259
O O3 0.754089 0.333863 0.915849
O O4 0.500000 0.438384 0.750000
O O5 0.269781 0.444027 0.540509
O O6 0.000000 0.435681 0.750000
O O7 0.219120 0.528327 0.724012
O O8 0.523842 0.888499 0.123006
O O9 0.943527 0.857103 0.129294
#
# Coordination Sequence:
#
# PCOD9457438 Si02
#       5
#     8   8   4   8   4
#     4  10  23  43  64  99 134 170 227 280 334 412
#     4  10  26  45  67 104 142 179 231 283 338 413
#     4  10  24  43  72 102 136 181 234 290 336 410
#     4  11  23  45  72 102 136 187 225 284 354 401
#     4  10  24  43  72 102 138 179 230 284 342 416
#
# _framework density 24.356764999999999
#
# number of rings (size 3 to 8) (size 9 to 14) (size 15 to 20)
#    0.750    1.000    0.000    2.250    3.500   10.000 
#    9.000    0.000    0.000    0.000    0.000    0.000 
#    0.000    0.000    0.000    0.000    0.000    0.000 
#
# Total GULP energy -178326.318966 kJ/mol
# GULP energy per Si atom -5572.697468 kJ/mol
# Density = 2.430133 g / cm^3
# Si number density = 24.356765 Si / 1000 Ang^3
#
#
#
# Elastic Constant Matrix: (Units=GPa)
#
#
# Indices 1 2 3 4 5 6 
#
# 1 128.2756 23.9181 25.6100 0.0000 0.0000 0.0000
# 2 23.9181 82.3538 33.3103 0.0000 0.0000 0.0000
# 3 25.6100 33.3103 76.7281 0.0000 0.0000 0.0000
# 4 0.0000 0.0000 0.0000 -12.2070 0.0000 0.0000
# 5 0.0000 0.0000 0.0000 0.0000 32.0481 0.0000
# 6 0.0000 0.0000 0.0000 0.0000 0.0000 8.3383
#
#
#
# Elastic Compliance Matrix: (Units=1/GPa)
#
#
# Indices 1 2 3 4 5 6 
#
# 1 0.008524 -0.001607 -0.002147 0.000000 0.000000 0.000000
# 2 -0.001607 0.015032 -0.005990 0.000000 0.000000 0.000000
# 3 -0.002147 -0.005990 0.016350 0.000000 0.000000 0.000000
# 4 0.000000 0.000000 0.000000 -0.081920 0.000000 0.000000
# 5 0.000000 0.000000 0.000000 0.000000 0.031203 0.000000
# 6 0.000000 0.000000 0.000000 0.000000 0.000000 0.119929
#
#
# Mechanical properties :
#
#
# Convention : Reuss Voigt Hill
#
# Bulk Modulus (GPa) = 48.97607 50.33715 49.65661
# Shear Modulus (GPa) = 36.92426 19.27048 28.09737
#
# Velocity S-wave (km/s) = 3.89778 2.81584 3.40012
# Velocity P-wave (km/s) = 6.35675 5.59315 5.98714
#
# Compressibility (1/GPa) = 0.02041813
#
# Stress axis : x y z
#
# Youngs Moduli (GPa) = 117.31440 66.52423 61.16183
#
# Poissons Ratio (x) = 0.10691 0.13134
# Poissons Ratio (y) = 0.18853 0.36633
# Poissons Ratio (z) = 0.25193 0.39845
#
# Static dielectric constant tensor:
#      x y z
#    x 2.048510 0.000000 0.000000 
#    y 0.000000 2.014820 0.000000 
#    z 0.000000 0.000000 -0.081270 
# 
# From -- ./inp_files/8857.got.cif
#   From: 2010.05.17/outbox.cif.g08.bks.cpg/sg60_5_cif.got.tgz:8857.got - 2010.06.03 14:59:27.
