data_PCOD9457420
_publ_section_title
;
Structure prediction by ZEFSAII (Michael W. Deem and Ramdas Pophale) SiO2 
 PCOD9457420
Probable space group: P B C N
;
_chemical_formula_sum "Si O2"
_cell_formula_units_Z 32
_cell_length_a 17.325466
_cell_length_b 5.590683
_cell_length_c 13.223700
_cell_angle_alpha 90.000000
_cell_angle_beta 90.000000
_cell_angle_gamma 90.000000
_cell_volume 1280.863295
_symmetry_space_group_name_H-M "P B C N"
_symmetry_group_IT_number 60
_symmetry_cell_setting 'orthorhombic'
loop_
_space_group_symop_operation_xyz
x,y,z
1/2-x,1/2-y,1/2+z
1/2+x,1/2-y,-z
-x,y,1/2-z
-x,-y,-z
1/2+x,1/2+y,1/2-z
1/2-x,1/2+y,z
x,-y,1/2+z
loop_
_atom_site_type_symbol
_atom_site_label
_atom_site_fract_x
_atom_site_fract_y
_atom_site_fract_z
Si Si1 0.712806 0.064833 0.749422
Si Si2 0.046927 0.525673 0.664431
Si Si3 0.231172 0.082816 0.973286
Si Si4 0.057272 0.196196 0.957195
O O1 0.729630 0.343981 0.775579
O O2 0.630448 0.980614 0.789588
O O3 0.715383 0.069842 0.626579
O O4 0.064732 0.629287 0.553638
O O5 0.000000 0.676316 0.750000
O O6 0.985897 0.317448 0.636796
O O7 0.253545 0.331034 0.026932
O O8 0.142426 0.095924 0.938448
O O9 0.000000 0.000000 0.000000
#
# Coordination Sequence:
#
# PCOD9457420 Si02
#       4
#     8   8   8   8
#     4  10  23  42  71 104 142 193 253 306 373 453
#     4  11  26  47  74 108 150 205 258 318 392 471
#     4  10  23  45  76 103 151 199 249 315 384 459
#     4  11  28  46  74 112 158 200 257 327 396 463
#
# _framework density 24.983149000000001
#
# number of rings (size 3 to 8) (size 9 to 14) (size 15 to 20)
#    0.000    1.500    0.000    3.000   17.500    3.000 
#    0.000    0.000    0.000    0.000    0.000    0.000 
#    0.000    0.000    0.000    0.000    0.000    0.000 
#
# Total GULP energy -178775.536989 kJ/mol
# GULP energy per Si atom -5586.735531 kJ/mol
# Density = 2.492629 g / cm^3
# Si number density = 24.983149 Si / 1000 Ang^3
#
#
#
# Elastic Constant Matrix: (Units=GPa)
#
#
# Indices 1 2 3 4 5 6 
#
# 1 120.1971 33.0382 22.5417 0.0000 0.0000 0.0000
# 2 33.0382 156.1732 12.1646 0.0000 0.0000 0.0000
# 3 22.5417 12.1646 88.2041 0.0000 0.0000 0.0000
# 4 0.0000 0.0000 0.0000 19.2343 0.0000 0.0000
# 5 0.0000 0.0000 0.0000 0.0000 42.8359 0.0000
# 6 0.0000 0.0000 0.0000 0.0000 0.0000 28.5778
#
#
#
# Elastic Compliance Matrix: (Units=1/GPa)
#
#
# Indices 1 2 3 4 5 6 
#
# 1 0.009205 -0.001783 -0.002106 0.000000 0.000000 0.000000
# 2 -0.001783 0.006818 -0.000485 0.000000 0.000000 0.000000
# 3 -0.002106 -0.000485 0.011943 0.000000 0.000000 0.000000
# 4 0.000000 0.000000 0.000000 0.051990 0.000000 0.000000
# 5 0.000000 0.000000 0.000000 0.000000 0.023345 0.000000
# 6 0.000000 0.000000 0.000000 0.000000 0.000000 0.034992
#
#
# Mechanical properties :
#
#
# Convention : Reuss Voigt Hill
#
# Bulk Modulus (GPa) = 52.03744 55.56259 53.80001
# Shear Modulus (GPa) = 32.58449 37.91826 35.25137
#
# Velocity S-wave (km/s) = 3.61537 3.90006 3.76041
# Velocity P-wave (km/s) = 6.18887 6.52449 6.35889
#
# Compressibility (1/GPa) = 0.01921693
#
# Stress axis : x y z
#
# Youngs Moduli (GPa) = 108.63824 146.66790 83.73445
#
# Poissons Ratio (x) = 0.26154 0.17639
# Poissons Ratio (y) = 0.19372 0.04058
# Poissons Ratio (z) = 0.22885 0.07108
#
# Static dielectric constant tensor:
#      x y z
#    x 1.891000 0.000000 0.000000 
#    y 0.000000 2.173030 0.000000 
#    z 0.000000 0.000000 2.047090 
# 
# From -- ./inp_files/17111.got.cif
#   From: 2010.05.17/outbox.cif.g08.bks.cpg/sg60_9_cif.got.tgz:17111.got - 2010.06.03 14:59:27.
