data_PCOD9457865
_publ_section_title
;
Structure prediction by ZEFSAII (Michael W. Deem and Ramdas Pophale) SiO2 
 PCOD9457865
Probable space group: P B C N
;
_chemical_formula_sum "Si O2"
_cell_formula_units_Z 48
_cell_length_a 11.245031
_cell_length_b 21.108904
_cell_length_c 9.679248
_cell_angle_alpha 90.000000
_cell_angle_beta 90.000000
_cell_angle_gamma 90.000000
_cell_volume 2297.565807
_symmetry_space_group_name_H-M "P B C N"
_symmetry_group_IT_number 60
_symmetry_cell_setting 'orthorhombic'
loop_
_space_group_symop_operation_xyz
x,y,z
1/2-x,1/2-y,1/2+z
1/2+x,1/2-y,-z
-x,y,1/2-z
-x,-y,-z
1/2+x,1/2+y,1/2-z
1/2-x,1/2+y,z
x,-y,1/2+z
loop_
_atom_site_type_symbol
_atom_site_label
_atom_site_fract_x
_atom_site_fract_y
_atom_site_fract_z
Si Si1 0.500000 0.903367 0.250000
Si Si2 0.793322 0.208757 0.326090
Si Si3 0.321133 0.010917 0.159661
Si Si4 0.500000 0.389392 0.750000
Si Si5 0.681134 0.812700 0.546583
Si Si6 0.926174 0.636799 0.461480
Si Si7 0.689533 0.557116 0.065716
O O1 0.439969 0.864647 0.373080
O O2 0.402363 0.949606 0.182438
O O3 0.896978 0.156553 0.309205
O O4 0.832956 0.268937 0.413525
O O5 0.744424 0.223214 0.173171
O O6 0.683331 0.177654 0.407787
O O7 0.399907 0.065777 0.090746
O O8 0.270745 0.035027 0.305041
O O9 0.214092 0.991634 0.057171
O O10 0.439932 0.431423 0.869746
O O11 0.552039 0.837494 0.592146
O O12 0.762212 0.874124 0.518982
#
# Coordination Sequence:
#
# PCOD9457865 Si02
#       7
#     4   8   8   4   8   8   8
#     4  12  24  35  74 108 140 169 222 296 344 404
#     4  11  27  45  71  97 138 183 231 277 348 405
#     4  12  22  42  67 106 138 174 224 282 352 403
#     4  10  24  49  66  94 140 191 226 280 336 414
#     4  11  25  43  69 100 138 176 225 288 340 401
#     4  12  24  43  70 104 136 176 228 287 343 400
#     4  11  24  44  68 101 139 182 227 278 347 413
#
# _framework density 20.891676
#
# number of rings (size 3 to 8) (size 9 to 14) (size 15 to 20)
#    0.000    0.667    6.667    2.000    7.000    0.667 
#    0.000    0.000    0.000    4.000    0.000    0.000 
#    0.000    0.000    0.000    0.000    0.000    0.000 
#
# Total GULP energy -268546.918826 kJ/mol
# GULP energy per Si atom -5594.727476 kJ/mol
# Density = 2.084413 g / cm^3
# Si number density = 20.891676 Si / 1000 Ang^3
#
#
#
# Elastic Constant Matrix: (Units=GPa)
#
#
# Indices 1 2 3 4 5 6 
#
# 1 88.5218 14.0376 -8.4928 0.0000 0.0000 0.0000
# 2 14.0376 52.6795 23.9375 0.0000 0.0000 0.0000
# 3 -8.4928 23.9375 77.1217 0.0000 0.0000 0.0000
# 4 0.0000 0.0000 0.0000 27.5116 0.0000 0.0000
# 5 0.0000 0.0000 0.0000 0.0000 32.0623 0.0000
# 6 0.0000 0.0000 0.0000 0.0000 0.0000 21.3919
#
#
#
# Elastic Compliance Matrix: (Units=1/GPa)
#
#
# Indices 1 2 3 4 5 6 
#
# 1 0.012279 -0.004524 0.002756 0.000000 0.000000 0.000000
# 2 -0.004524 0.023767 -0.007875 0.000000 0.000000 0.000000
# 3 0.002756 -0.007875 0.015714 0.000000 0.000000 0.000000
# 4 0.000000 0.000000 0.000000 0.036348 0.000000 0.000000
# 5 0.000000 0.000000 0.000000 0.000000 0.031189 0.000000
# 6 0.000000 0.000000 0.000000 0.000000 0.000000 0.046747
#
#
# Mechanical properties :
#
#
# Convention : Reuss Voigt Hill
#
# Bulk Modulus (GPa) = 30.79425 30.80973 30.80199
# Shear Modulus (GPa) = 25.49006 28.78252 27.13629
#
# Velocity S-wave (km/s) = 3.49679 3.71577 3.60794
# Velocity P-wave (km/s) = 5.57453 5.76096 5.66851
#
# Compressibility (1/GPa) = 0.03247360
#
# Stress axis : x y z
#
# Youngs Moduli (GPa) = 81.44265 42.07552 63.63593
#
# Poissons Ratio (x) = 0.19037 -0.17541
# Poissons Ratio (y) = 0.36848 0.50114
# Poissons Ratio (z) = -0.22449 0.33135
#
# Static dielectric constant tensor:
#      x y z
#    x 1.742990 0.000000 0.000000 
#    y 0.000000 1.749000 0.000000 
#    z 0.000000 0.000000 1.765060 
# 
# From -- ./inp_files/5112.got.cif
#   From: 2010.05.17/outbox.cif.g08.bks.cpg/sg60_3_cif.got.tgz:5112.got - 2010.06.03 14:59:27.
