data_PCOD9457436
_publ_section_title
;
Structure prediction by ZEFSAII (Michael W. Deem and Ramdas Pophale) SiO2 
 PCOD9457436
Probable space group: P B C N
;
_chemical_formula_sum "Si O2"
_cell_formula_units_Z 56
_cell_length_a 20.741371
_cell_length_b 14.428270
_cell_length_c 8.133330
_cell_angle_alpha 90.000000
_cell_angle_beta 90.000000
_cell_angle_gamma 90.000000
_cell_volume 2433.997424
_symmetry_space_group_name_H-M "P B C N"
_symmetry_group_IT_number 60
_symmetry_cell_setting 'orthorhombic'
loop_
_space_group_symop_operation_xyz
x,y,z
1/2-x,1/2-y,1/2+z
1/2+x,1/2-y,-z
-x,y,1/2-z
-x,-y,-z
1/2+x,1/2+y,1/2-z
1/2-x,1/2+y,z
x,-y,1/2+z
loop_
_atom_site_type_symbol
_atom_site_label
_atom_site_fract_x
_atom_site_fract_y
_atom_site_fract_z
Si Si1 0.230956 0.366093 0.502586
Si Si2 0.481636 0.897442 0.559957
Si Si3 0.120594 0.754943 0.075209
Si Si4 0.494019 0.391929 0.947064
Si Si5 0.129066 0.197158 0.961842
Si Si6 0.895426 0.374782 0.406897
Si Si7 0.832645 0.517138 0.208096
O O1 0.192004 0.267723 0.502248
O O2 0.307359 0.361972 0.490715
O O3 0.210069 0.432297 0.353697
O O4 0.206070 0.420658 0.664205
O O5 0.500000 0.886630 0.750000
O O6 0.414927 0.844183 0.540145
O O7 0.532757 0.843682 0.448280
O O8 0.500000 0.000000 0.500000
O O9 0.129152 0.767726 0.271733
O O10 0.070903 0.835118 0.008966
O O11 0.500000 0.385541 0.750000
O O12 0.500000 0.500000 0.000000
O O13 0.559887 0.349515 0.019388
O O14 0.138094 0.276367 0.103117
O O15 0.892797 0.459290 0.281788
O O16 0.860323 0.421696 0.562706
#
# Coordination Sequence:
#
# PCOD9457436 Si02
#       7
#     8   8   8   8   8   8   8
#     4  11  26  44  73 106 148 191 237 299 368 434
#     4  12  21  36  64 100 140 184 221 283 361 431
#     4  12  25  47  73 106 146 189 241 301 369 443
#     4  12  29  53  79 104 138 191 254 311 363 430
#     4  12  26  47  73 104 147 194 248 306 364 428
#     4  11  21  40  67  98 150 183 239 294 358 435
#     4  10  23  43  64 108 146 189 239 290 364 450
#
# _framework density 23.00742
#
# number of rings (size 3 to 8) (size 9 to 14) (size 15 to 20)
#    0.000    0.571    4.286    3.857    4.000    2.857 
#    2.571    0.000    0.000    0.000    0.000    0.000 
#    0.000    0.000    0.000    0.000    0.000    0.000 
#
# Total GULP energy -312499.371311 kJ/mol
# GULP energy per Si atom -5580.345916 kJ/mol
# Density = 2.295505 g / cm^3
# Si number density = 23.007420 Si / 1000 Ang^3
#
#
#
# Elastic Constant Matrix: (Units=GPa)
#
#
# Indices 1 2 3 4 5 6 
#
# 1 84.6066 27.4823 4.4888 0.0000 0.0000 0.0000
# 2 27.4823 112.2592 17.7775 0.0000 0.0000 0.0000
# 3 4.4888 17.7775 48.9728 0.0000 0.0000 0.0000
# 4 0.0000 0.0000 0.0000 37.6516 0.0000 0.0000
# 5 0.0000 0.0000 0.0000 0.0000 24.0654 0.0000
# 6 0.0000 0.0000 0.0000 0.0000 0.0000 16.7626
#
#
#
# Elastic Compliance Matrix: (Units=1/GPa)
#
#
# Indices 1 2 3 4 5 6 
#
# 1 0.012841 -0.003137 -0.000038 0.000000 0.000000 0.000000
# 2 -0.003137 0.010218 -0.003422 0.000000 0.000000 0.000000
# 3 -0.000038 -0.003422 0.021665 0.000000 0.000000 0.000000
# 4 0.000000 0.000000 0.000000 0.026559 0.000000 0.000000
# 5 0.000000 0.000000 0.000000 0.000000 0.041553 0.000000
# 6 0.000000 0.000000 0.000000 0.000000 0.000000 0.059657
#
#
# Mechanical properties :
#
#
# Convention : Reuss Voigt Hill
#
# Bulk Modulus (GPa) = 31.71655 38.37065 35.04360
# Shear Modulus (GPa) = 25.48461 28.76858 27.12660
#
# Velocity S-wave (km/s) = 3.33178 3.53994 3.43744
# Velocity P-wave (km/s) = 5.34942 5.78117 5.56948
#
# Compressibility (1/GPa) = 0.03152928
#
# Stress axis : x y z
#
# Youngs Moduli (GPa) = 77.87821 97.86749 46.15729
#
# Poissons Ratio (x) = 0.30706 0.00176
# Poissons Ratio (y) = 0.24434 0.15793
# Poissons Ratio (z) = 0.00296 0.33486
#
# Static dielectric constant tensor:
#      x y z
#    x 1.926900 0.000000 0.000000 
#    y 0.000000 1.906500 0.000000 
#    z 0.000000 0.000000 1.977720 
# 
# From -- ./inp_files/7419.got.cif
#   From: 2010.05.17/outbox.cif.g08.bks.cpg/sg60_4_cif.got.tgz:7419.got - 2010.06.03 14:59:27.
