data_PCOD9457619
_publ_section_title
;
Structure prediction by ZEFSAII (Michael W. Deem and Ramdas Pophale) SiO2 
 PCOD9457619
Probable space group: P B C N
;
_chemical_formula_sum "Si O2"
_cell_formula_units_Z 32
_cell_length_a 9.595690
_cell_length_b 10.587261
_cell_length_c 11.706418
_cell_angle_alpha 90.000000
_cell_angle_beta 90.000000
_cell_angle_gamma 90.000000
_cell_volume 1189.279290
_symmetry_space_group_name_H-M "P B C N"
_symmetry_group_IT_number 60
_symmetry_cell_setting 'orthorhombic'
loop_
_space_group_symop_operation_xyz
x,y,z
1/2-x,1/2-y,1/2+z
1/2+x,1/2-y,-z
-x,y,1/2-z
-x,-y,-z
1/2+x,1/2+y,1/2-z
1/2-x,1/2+y,z
x,-y,1/2+z
loop_
_atom_site_type_symbol
_atom_site_label
_atom_site_fract_x
_atom_site_fract_y
_atom_site_fract_z
Si Si1 0.173562 0.552511 0.418185
Si Si2 0.802965 0.805024 0.775485
Si Si3 0.000000 0.575935 0.750000
Si Si4 0.000000 0.191517 0.750000
Si Si5 0.865952 0.838263 0.012435
O O1 0.284055 0.587591 0.318312
O O2 0.028451 0.510416 0.360033
O O3 0.163250 0.687102 0.480841
O O4 0.235237 0.432549 0.481651
O O5 0.870327 0.670643 0.744768
O O6 0.639894 0.766988 0.787449
O O7 0.900279 0.851760 0.879103
O O8 0.041944 0.134971 0.875323
#
# Coordination Sequence:
#
# PCOD9457619 Si02
#       5
#     8   8   4   4   8
#     4  11  24  49  71 117 151 198 268 328 381 489
#     4  11  27  49  79 115 155 211 263 332 406 467
#     4  12  25  51  80 110 163 209 266 332 397 485
#     4  10  23  51  70 116 163 195 268 334 367 495
#     4  11  26  45  79 109 159 206 258 330 398 466
#
# _framework density 26.907050000000002
#
# number of rings (size 3 to 8) (size 9 to 14) (size 15 to 20)
#    0.000    1.000    5.000    3.000    7.000    2.000 
#    0.000    3.750    0.000    0.000    0.000    0.000 
#    0.000    0.000    0.000    0.000    0.000    0.000 
#
# Total GULP energy -178432.113066 kJ/mol
# GULP energy per Si atom -5576.003533 kJ/mol
# Density = 2.684581 g / cm^3
# Si number density = 26.907050 Si / 1000 Ang^3
#
#
#
# Elastic Constant Matrix: (Units=GPa)
#
#
# Indices 1 2 3 4 5 6 
#
# 1 121.0300 64.3044 -8.8148 0.0000 0.0000 0.0000
# 2 64.3044 155.3324 -12.8393 0.0000 0.0000 0.0000
# 3 -8.8148 -12.8393 85.8053 0.0000 0.0000 0.0000
# 4 0.0000 0.0000 0.0000 -0.8561 0.0000 0.0000
# 5 0.0000 0.0000 0.0000 0.0000 40.3996 0.0000
# 6 0.0000 0.0000 0.0000 0.0000 0.0000 52.9318
#
#
#
# Elastic Compliance Matrix: (Units=1/GPa)
#
#
# Indices 1 2 3 4 5 6 
#
# 1 0.010608 -0.004355 0.000438 0.000000 0.000000 0.000000
# 2 -0.004355 0.008307 0.000796 0.000000 0.000000 0.000000
# 3 0.000438 0.000796 0.011818 0.000000 0.000000 0.000000
# 4 0.000000 0.000000 0.000000 -1.168109 0.000000 0.000000
# 5 0.000000 0.000000 0.000000 0.000000 0.024753 0.000000
# 6 0.000000 0.000000 0.000000 0.000000 0.000000 0.018892
#
#
# Mechanical properties :
#
#
# Convention : Reuss Voigt Hill
#
# Bulk Modulus (GPa) = 40.83356 49.71871 45.27614
# Shear Modulus (GPa) = -4.63253 39.79622 17.58184
#
# Velocity S-wave (km/s) = -1.31355 3.84998 2.55900
# Velocity P-wave (km/s) = 3.59279 6.18718 5.05912
#
# Compressibility (1/GPa) = 0.02448966
#
# Stress axis : x y z
#
# Youngs Moduli (GPa) = 94.26476 120.38573 84.61428
#
# Poissons Ratio (x) = 0.52434 -0.03707
# Poissons Ratio (y) = 0.41057 -0.06731
# Poissons Ratio (z) = -0.04130 -0.09577
#
# Static dielectric constant tensor:
#      x y z
#    x 2.059940 0.000000 0.000000 
#    y 0.000000 2.086170 0.000000 
#    z 0.000000 0.000000 2.276030 
# 
# From -- ./inp_files/15743.got.cif
#   From: 2010.05.17/outbox.cif.g08.bks.cpg/sg60_8_cif.got.tgz:15743.got - 2010.06.03 14:59:27.
