data_PCOD9457735
_publ_section_title
;
Structure prediction by ZEFSAII (Michael W. Deem and Ramdas Pophale) SiO2 
 PCOD9457735
Probable space group: P B C N
;
_chemical_formula_sum "Si O2"
_cell_formula_units_Z 48
_cell_length_a 5.206187
_cell_length_b 14.613430
_cell_length_c 23.343790
_cell_angle_alpha 90.000000
_cell_angle_beta 90.000000
_cell_angle_gamma 90.000000
_cell_volume 1776.001363
_symmetry_space_group_name_H-M "P B C N"
_symmetry_group_IT_number 60
_symmetry_cell_setting 'orthorhombic'
loop_
_space_group_symop_operation_xyz
x,y,z
1/2-x,1/2-y,1/2+z
1/2+x,1/2-y,-z
-x,y,1/2-z
-x,-y,-z
1/2+x,1/2+y,1/2-z
1/2-x,1/2+y,z
x,-y,1/2+z
loop_
_atom_site_type_symbol
_atom_site_label
_atom_site_fract_x
_atom_site_fract_y
_atom_site_fract_z
Si Si1 0.177532 0.055207 0.094348
Si Si2 0.786039 0.733322 0.349592
Si Si3 0.509520 0.897600 0.409027
Si Si4 0.000000 0.840493 0.250000
Si Si5 0.250576 0.504134 0.810408
Si Si6 0.500000 0.649634 0.250000
Si Si7 0.146986 0.188225 0.996063
O O1 0.355860 0.135356 0.123513
O O2 0.314896 0.972899 0.060054
O O3 0.051260 0.119213 0.045448
O O4 0.984834 0.016746 0.143425
O O5 0.666670 0.807744 0.392040
O O6 0.565363 0.709530 0.304114
O O7 0.984902 0.781301 0.307391
O O8 0.464202 0.957844 0.352173
O O9 0.249446 0.867568 0.440570
O O10 0.216845 0.913361 0.265547
O O11 0.268678 0.415877 0.770100
O O12 0.416845 0.239749 0.012119
#
# Coordination Sequence:
#
# PCOD9457735 Si02
#       7
#     8   8   8   4   8   4   8
#     4  11  26  49  72 114 148 197 263 320 398 465
#     4  11  23  44  71 107 152 200 256 315 395 464
#     4  12  26  46  79 106 150 204 260 326 396 469
#     4  11  22  42  67 102 152 194 253 312 381 464
#     4  10  24  43  71 104 148 195 257 311 392 461
#     4   9  22  42  61 106 146 196 247 312 373 478
#     4  12  30  52  83 115 157 205 264 328 405 473
#
# _framework density 27.027004999999999
#
# number of rings (size 3 to 8) (size 9 to 14) (size 15 to 20)
#    0.000    1.000    3.333    1.500    9.333    0.667 
#    0.000    0.000    0.000    0.000    0.000    0.000 
#    0.000    0.000    0.000    0.000    0.000    0.000 
#
# Total GULP energy -268212.761922 kJ/mol
# GULP energy per Si atom -5587.765873 kJ/mol
# Density = 2.696549 g / cm^3
# Si number density = 27.027005 Si / 1000 Ang^3
#
#
#
# Elastic Constant Matrix: (Units=GPa)
#
#
# Indices 1 2 3 4 5 6 
#
# 1 99.4260 37.8069 21.8990 0.0000 0.0000 0.0000
# 2 37.8069 162.4035 34.7926 0.0000 0.0000 0.0000
# 3 21.8990 34.7926 106.3776 0.0000 0.0000 0.0000
# 4 0.0000 0.0000 0.0000 72.9781 0.0000 0.0000
# 5 0.0000 0.0000 0.0000 0.0000 46.9930 0.0000
# 6 0.0000 0.0000 0.0000 0.0000 0.0000 11.8601
#
#
#
# Elastic Compliance Matrix: (Units=1/GPa)
#
#
# Indices 1 2 3 4 5 6 
#
# 1 0.011274 -0.002288 -0.001573 0.000000 0.000000 0.000000
# 2 -0.002288 0.007086 -0.001847 0.000000 0.000000 0.000000
# 3 -0.001573 -0.001847 0.010328 0.000000 0.000000 0.000000
# 4 0.000000 0.000000 0.000000 0.013703 0.000000 0.000000
# 5 0.000000 0.000000 0.000000 0.000000 0.021280 0.000000
# 6 0.000000 0.000000 0.000000 0.000000 0.000000 0.084316
#
#
# Mechanical properties :
#
#
# Convention : Reuss Voigt Hill
#
# Bulk Modulus (GPa) = 57.89002 61.91157 59.90080
# Shear Modulus (GPa) = 30.27400 44.61350 37.44375
#
# Velocity S-wave (km/s) = 3.35048 4.06729 3.72616
# Velocity P-wave (km/s) = 6.03601 6.70926 6.38152
#
# Compressibility (1/GPa) = 0.01727413
#
# Stress axis : x y z
#
# Youngs Moduli (GPa) = 88.69971 141.13034 96.82252
#
# Poissons Ratio (x) = 0.32285 0.15227
# Poissons Ratio (y) = 0.20291 0.17879
# Poissons Ratio (z) = 0.13950 0.26060
#
# Static dielectric constant tensor:
#      x y z
#    x 2.828080 0.000000 0.000000 
#    y 0.000000 2.137430 0.000000 
#    z 0.000000 0.000000 2.221920 
# 
# From -- ./inp_files/24902.got.cif
#   From: 2010.05.17/outbox.cif.g08.bks.cpg/sg60_13_cif.got.tgz:24902.got - 2010.06.03 14:59:27.
