data_PCOD9457835
_publ_section_title
;
Structure prediction by ZEFSAII (Michael W. Deem and Ramdas Pophale) SiO2 
 PCOD9457835
Probable space group: P B C N
;
_chemical_formula_sum "Si O2"
_cell_formula_units_Z 36
_cell_length_a 4.683184
_cell_length_b 26.127280
_cell_length_c 13.192226
_cell_angle_alpha 90.000000
_cell_angle_beta 90.000000
_cell_angle_gamma 90.000000
_cell_volume 1614.185730
_symmetry_space_group_name_H-M "P B C N"
_symmetry_group_IT_number 60
_symmetry_cell_setting 'orthorhombic'
loop_
_space_group_symop_operation_xyz
x,y,z
1/2-x,1/2-y,1/2+z
1/2+x,1/2-y,-z
-x,y,1/2-z
-x,-y,-z
1/2+x,1/2+y,1/2-z
1/2-x,1/2+y,z
x,-y,1/2+z
loop_
_atom_site_type_symbol
_atom_site_label
_atom_site_fract_x
_atom_site_fract_y
_atom_site_fract_z
Si Si1 0.500000 0.172016 0.750000
Si Si2 0.500000 0.250415 0.250000
Si Si3 0.975079 0.905903 0.578603
Si Si4 0.238437 0.995982 0.182536
Si Si5 0.500000 0.325180 0.750000
Si Si6 0.028263 0.405646 0.436638
O O1 0.762777 0.208168 0.785957
O O2 0.463409 0.135710 0.847260
O O3 0.736349 0.209501 0.210189
O O4 0.073387 0.861906 0.655921
O O5 0.152288 0.908435 0.475535
O O6 0.656338 0.895853 0.538841
O O7 0.053595 0.959438 0.631562
O O8 0.500000 0.017638 0.250000
O O9 0.397702 0.957971 0.106904
O O10 0.000000 0.966885 0.250000
#
# Coordination Sequence:
#
# PCOD9457835 Si02
#       6
#     4   4   8   8   4   8
#     4  11  24  48  69  98 137 174 230 287 350 400
#     4  10  24  46  74  94 130 180 222 300 350 394
#     4  12  25  43  70 103 139 182 226 276 338 414
#     4  12  24  42  68 102 144 190 222 276 338 408
#     4  11  24  48  69  98 137 174 230 287 350 400
#     4  12  25  43  70 103 139 182 226 276 338 414
#
# _framework density 22.302268000000002
#
# number of rings (size 3 to 8) (size 9 to 14) (size 15 to 20)
#    0.000    0.444    2.222    6.667    3.111    0.000 
#    0.000   22.222    0.000    0.000    0.000    0.000 
#    0.000    0.000    0.000    0.000    0.000    0.000 
#
# Total GULP energy -200590.791230 kJ/mol
# GULP energy per Si atom -5571.966423 kJ/mol
# Density = 2.225151 g / cm^3
# Si number density = 22.302268 Si / 1000 Ang^3
#
#
#
# Elastic Constant Matrix: (Units=GPa)
#
#
# Indices 1 2 3 4 5 6 
#
# 1 95.4190 24.3930 8.2997 0.0000 0.0000 0.0000
# 2 24.3930 102.3745 42.3508 0.0000 0.0000 0.0000
# 3 8.2997 42.3508 82.4240 0.0000 0.0000 0.0000
# 4 0.0000 0.0000 0.0000 3.0885 0.0000 0.0000
# 5 0.0000 0.0000 0.0000 0.0000 40.7976 0.0000
# 6 0.0000 0.0000 0.0000 0.0000 0.0000 -41.8648
#
#
#
# Elastic Compliance Matrix: (Units=1/GPa)
#
#
# Indices 1 2 3 4 5 6 
#
# 1 0.011166 -0.002788 0.000308 0.000000 0.000000 0.000000
# 2 -0.002788 0.013101 -0.006451 0.000000 0.000000 0.000000
# 3 0.000308 -0.006451 0.015416 0.000000 0.000000 0.000000
# 4 0.000000 0.000000 0.000000 0.323781 0.000000 0.000000
# 5 0.000000 0.000000 0.000000 0.000000 0.024511 0.000000
# 6 0.000000 0.000000 0.000000 0.000000 0.000000 -0.023886
#
#
# Mechanical properties :
#
#
# Convention : Reuss Voigt Hill
#
# Bulk Modulus (GPa) = 45.82612 47.81161 46.81886
# Shear Modulus (GPa) = 12.84607 14.08253 13.46430
#
# Velocity S-wave (km/s) = 2.40260 2.51557 2.45973
# Velocity P-wave (km/s) = 5.31874 5.47010 5.39495
#
# Compressibility (1/GPa) = 0.02182162
#
# Stress axis : x y z
#
# Youngs Moduli (GPa) = 89.55739 76.33032 64.86826
#
# Poissons Ratio (x) = 0.21281 -0.01999
# Poissons Ratio (y) = 0.24969 0.41845
# Poissons Ratio (z) = -0.02760 0.49239
#
# Static dielectric constant tensor:
#      x y z
#    x 1.818250 0.000000 0.000000 
#    y 0.000000 1.818580 0.000000 
#    z 0.000000 0.000000 1.869070 
# 
# From -- ./inp_files/9013.got.cif
#   From: 2010.05.17/outbox.cif.g08.bks.cpg/sg60_5_cif.got.tgz:9013.got - 2010.06.03 14:59:27.
