data_PCOD9457624
_publ_section_title
;
Structure prediction by ZEFSAII (Michael W. Deem and Ramdas Pophale) SiO2 
 PCOD9457624
Probable space group: P B C N
;
_chemical_formula_sum "Si O2"
_cell_formula_units_Z 44
_cell_length_a 11.383247
_cell_length_b 22.209707
_cell_length_c 9.299451
_cell_angle_alpha 90.000000
_cell_angle_beta 90.000000
_cell_angle_gamma 90.000000
_cell_volume 2351.074002
_symmetry_space_group_name_H-M "P B C N"
_symmetry_group_IT_number 60
_symmetry_cell_setting 'orthorhombic'
loop_
_space_group_symop_operation_xyz
x,y,z
1/2-x,1/2-y,1/2+z
1/2+x,1/2-y,-z
-x,y,1/2-z
-x,-y,-z
1/2+x,1/2+y,1/2-z
1/2-x,1/2+y,z
x,-y,1/2+z
loop_
_atom_site_type_symbol
_atom_site_label
_atom_site_fract_x
_atom_site_fract_y
_atom_site_fract_z
Si Si1 0.107809 0.807876 0.352925
Si Si2 0.000000 0.512131 0.750000
Si Si3 0.946630 0.766630 0.599211
Si Si4 0.676937 0.853830 0.999015
Si Si5 0.212499 0.324708 0.823019
Si Si6 0.937733 0.579585 0.006375
O O1 0.215892 0.852380 0.387533
O O2 0.158463 0.742697 0.303489
O O3 0.000000 0.826560 0.250000
O O4 0.049995 0.793848 0.506080
O O5 0.088090 0.551195 0.649591
O O6 0.064832 0.469045 0.865276
O O7 0.887233 0.710257 0.522094
O O8 0.843788 0.814722 0.621979
O O9 0.000000 0.745964 0.750000
O O10 0.714872 0.855479 0.832730
O O11 0.573845 0.901649 0.015106
O O12 0.135933 0.363417 0.936027
#
# Coordination Sequence:
#
# PCOD9457624 Si02
#       6
#     8   4   8   8   8   8
#     4  11  21  35  52  84 119 155 188 221 273 361
#     4  10  24  36  60  84 110 140 198 248 294 338
#     4  11  22  33  51  84 116 155 192 212 269 369
#     4  11  21  34  58  77 119 156 184 233 288 334
#     4  11  20  35  57  78 119 158 181 235 286 337
#     4  11  21  40  58  87 111 145 190 245 297 334
#
# _framework density 18.714850999999999
#
# number of rings (size 3 to 8) (size 9 to 14) (size 15 to 20)
#    0.000    1.091    7.273    0.000    1.273    1.455 
#    0.000    0.000    0.000    0.000    0.000   25.455 
#    0.000    0.000    0.000    0.000    0.000    0.000 
#
# Total GULP energy -245395.641332 kJ/mol
# GULP energy per Si atom -5577.173667 kJ/mol
# Density = 1.867226 g / cm^3
# Si number density = 18.714851 Si / 1000 Ang^3
#
#
#
# Elastic Constant Matrix: (Units=GPa)
#
#
# Indices 1 2 3 4 5 6 
#
# 1 55.7912 14.3727 2.1782 0.0000 0.0000 0.0000
# 2 14.3727 46.6732 19.1200 0.0000 0.0000 0.0000
# 3 2.1782 19.1200 89.2011 0.0000 0.0000 0.0000
# 4 0.0000 0.0000 0.0000 23.9133 0.0000 0.0000
# 5 0.0000 0.0000 0.0000 0.0000 31.3512 0.0000
# 6 0.0000 0.0000 0.0000 0.0000 0.0000 8.3309
#
#
#
# Elastic Compliance Matrix: (Units=1/GPa)
#
#
# Indices 1 2 3 4 5 6 
#
# 1 0.019533 -0.006380 0.000891 0.000000 0.000000 0.000000
# 2 -0.006380 0.025572 -0.005325 0.000000 0.000000 0.000000
# 3 0.000891 -0.005325 0.012330 0.000000 0.000000 0.000000
# 4 0.000000 0.000000 0.000000 0.041818 0.000000 0.000000
# 5 0.000000 0.000000 0.000000 0.000000 0.031897 0.000000
# 6 0.000000 0.000000 0.000000 0.000000 0.000000 0.120036
#
#
# Mechanical properties :
#
#
# Convention : Reuss Voigt Hill
#
# Bulk Modulus (GPa) = 27.92868 29.22303 28.57586
# Shear Modulus (GPa) = 17.55929 23.11871 20.33900
#
# Velocity S-wave (km/s) = 3.06642 3.51852 3.30022
# Velocity P-wave (km/s) = 5.24337 5.67057 5.46115
#
# Compressibility (1/GPa) = 0.03580549
#
# Stress axis : x y z
#
# Youngs Moduli (GPa) = 51.19610 39.10558 81.10059
#
# Poissons Ratio (x) = 0.24948 -0.07222
# Poissons Ratio (y) = 0.32662 0.43190
# Poissons Ratio (z) = -0.04559 0.20825
#
# Static dielectric constant tensor:
#      x y z
#    x 1.684480 0.000000 0.000000 
#    y 0.000000 1.676400 0.000000 
#    z 0.000000 0.000000 1.702670 
# 
# From -- ./inp_files/4999.got.cif
#   From: 2010.05.17/outbox.cif.g08.bks.cpg/sg60_3_cif.got.tgz:4999.got - 2010.06.03 14:59:27.
