data_PCOD9457506
_publ_section_title
;
Structure prediction by ZEFSAII (Michael W. Deem and Ramdas Pophale) SiO2 
 PCOD9457506
Probable space group: P B C N
;
_chemical_formula_sum "Si O2"
_cell_formula_units_Z 32
_cell_length_a 9.200666
_cell_length_b 11.744313
_cell_length_c 13.594479
_cell_angle_alpha 90.000000
_cell_angle_beta 90.000000
_cell_angle_gamma 90.000000
_cell_volume 1468.958243
_symmetry_space_group_name_H-M "P B C N"
_symmetry_group_IT_number 60
_symmetry_cell_setting 'orthorhombic'
loop_
_space_group_symop_operation_xyz
x,y,z
1/2-x,1/2-y,1/2+z
1/2+x,1/2-y,-z
-x,y,1/2-z
-x,-y,-z
1/2+x,1/2+y,1/2-z
1/2-x,1/2+y,z
x,-y,1/2+z
loop_
_atom_site_type_symbol
_atom_site_label
_atom_site_fract_x
_atom_site_fract_y
_atom_site_fract_z
Si Si1 0.602118 0.408808 0.055070
Si Si2 0.878374 0.344457 0.559882
Si Si3 0.662204 0.022555 0.410068
Si Si4 0.155218 0.920854 0.782499
O O1 0.552062 0.279671 0.054830
O O2 0.621360 0.460501 0.162405
O O3 0.500000 0.500000 0.000000
O O4 0.754641 0.410277 0.997210
O O5 0.834744 0.393896 0.452697
O O6 0.744576 0.348546 0.636536
O O7 0.998823 0.433118 0.598622
O O8 0.748802 0.049903 0.311850
O O9 0.000000 0.869870 0.750000
#
# Coordination Sequence:
#
# PCOD9457506 Si02
#       4
#     8   8   8   8
#     4  11  24  42  69  98 135 179 227 277 348 405
#     4  10  25  43  70  99 135 185 222 283 342 407
#     4  10  23  44  67  98 138 173 230 282 337 403
#     4  11  23  42  66 103 136 173 228 279 339 416
#
# _framework density 21.784146
#
# number of rings (size 3 to 8) (size 9 to 14) (size 15 to 20)
#    0.000    1.500    2.500    0.750    7.000    4.000 
#    0.000    0.000    0.000    0.000    0.000    0.000 
#    0.000    0.000    0.000    0.000    0.000    0.000 
#
# Total GULP energy -178767.912067 kJ/mol
# GULP energy per Si atom -5586.497252 kJ/mol
# Density = 2.173456 g / cm^3
# Si number density = 21.784146 Si / 1000 Ang^3
#
#
#
# Elastic Constant Matrix: (Units=GPa)
#
#
# Indices 1 2 3 4 5 6 
#
# 1 112.3782 21.6990 35.0470 0.0000 0.0000 0.0000
# 2 21.6990 106.1981 26.2265 0.0000 0.0000 0.0000
# 3 35.0470 26.2265 84.1341 0.0000 0.0000 0.0000
# 4 0.0000 0.0000 0.0000 7.3985 0.0000 0.0000
# 5 0.0000 0.0000 0.0000 0.0000 49.5154 0.0000
# 6 0.0000 0.0000 0.0000 0.0000 0.0000 17.3767
#
#
#
# Elastic Compliance Matrix: (Units=1/GPa)
#
#
# Indices 1 2 3 4 5 6 
#
# 1 0.010353 -0.001138 -0.003958 0.000000 0.000000 0.000000
# 2 -0.001138 0.010327 -0.002745 0.000000 0.000000 0.000000
# 3 -0.003958 -0.002745 0.014390 0.000000 0.000000 0.000000
# 4 0.000000 0.000000 0.000000 0.135162 0.000000 0.000000
# 5 0.000000 0.000000 0.000000 0.000000 0.020196 0.000000
# 6 0.000000 0.000000 0.000000 0.000000 0.000000 0.057548
#
#
# Mechanical properties :
#
#
# Convention : Reuss Voigt Hill
#
# Bulk Modulus (GPa) = 51.57835 52.07283 51.82559
# Shear Modulus (GPa) = 18.51032 29.50732 24.00882
#
# Velocity S-wave (km/s) = 2.91815 3.68439 3.32343
# Velocity P-wave (km/s) = 5.92305 6.48502 6.21040
#
# Compressibility (1/GPa) = 0.01938798
#
# Stress axis : x y z
#
# Youngs Moduli (GPa) = 96.59475 96.83553 69.49206
#
# Poissons Ratio (x) = 0.11019 0.27503
# Poissons Ratio (y) = 0.10991 0.19076
# Poissons Ratio (z) = 0.38230 0.26582
#
# Static dielectric constant tensor:
#      x y z
#    x 1.851520 0.000000 0.000000 
#    y 0.000000 1.805020 0.000000 
#    z 0.000000 0.000000 1.789500 
# 
# From -- ./inp_files/14298.got.cif
#   From: 2010.05.17/outbox.cif.g08.bks.cpg/sg60_8_cif.got.tgz:14298.got - 2010.06.03 14:59:27.
