data_PCOD9457914
_publ_section_title
;
Structure prediction by ZEFSAII (Michael W. Deem and Ramdas Pophale) SiO2 
 PCOD9457914
Probable space group: P B C N
;
_chemical_formula_sum "Si O2"
_cell_formula_units_Z 36
_cell_length_a 7.908838
_cell_length_b 10.918996
_cell_length_c 18.672518
_cell_angle_alpha 90.000000
_cell_angle_beta 90.000000
_cell_angle_gamma 90.000000
_cell_volume 1612.494617
_symmetry_space_group_name_H-M "P B C N"
_symmetry_group_IT_number 60
_symmetry_cell_setting 'orthorhombic'
loop_
_space_group_symop_operation_xyz
x,y,z
1/2-x,1/2-y,1/2+z
1/2+x,1/2-y,-z
-x,y,1/2-z
-x,-y,-z
1/2+x,1/2+y,1/2-z
1/2-x,1/2+y,z
x,-y,1/2+z
loop_
_atom_site_type_symbol
_atom_site_label
_atom_site_fract_x
_atom_site_fract_y
_atom_site_fract_z
Si Si1 0.500000 0.532365 0.250000
Si Si2 0.129999 0.121206 0.870508
Si Si3 0.817025 0.763259 0.416248
Si Si4 0.295721 0.780675 0.745609
Si Si5 0.700157 0.990261 0.995064
O O1 0.503498 0.453242 0.322110
O O2 0.327443 0.606464 0.257139
O O3 0.242147 0.185227 0.809432
O O4 0.220829 0.035446 0.927021
O O5 0.021706 0.225535 0.910835
O O6 0.753726 0.763691 0.334395
O O7 0.762549 0.634563 0.450654
O O8 0.765056 0.884512 0.459534
O O9 0.500000 0.805676 0.750000
O O10 0.500000 0.000000 0.000000
#
# Coordination Sequence:
#
# PCOD9457914 Si02
#       5
#     4   8   8   8   8
#     4  12  24  46  80 102 152 202 250 324 372 440
#     4  11  25  49  70 110 148 197 257 315 373 466
#     4  11  24  49  68 111 148 199 243 323 376 458
#     4  10  25  46  74 107 150 194 260 308 382 460
#     4  12  28  43  76 106 152 198 253 309 394 456
#
# _framework density 22.325655000000001
#
# number of rings (size 3 to 8) (size 9 to 14) (size 15 to 20)
#    0.000    0.889    3.333    3.333   12.444    0.000 
#    2.000    0.000    0.000    0.000    0.000    0.000 
#    0.000    0.000    0.000    0.000    0.000    0.000 
#
# Total GULP energy -201088.478540 kJ/mol
# GULP energy per Si atom -5585.791071 kJ/mol
# Density = 2.227484 g / cm^3
# Si number density = 22.325655 Si / 1000 Ang^3
#
#
#
# Elastic Constant Matrix: (Units=GPa)
#
#
# Indices 1 2 3 4 5 6 
#
# 1 35.6210 21.5103 29.3927 0.0000 0.0000 0.0000
# 2 21.5103 147.7887 68.5476 0.0000 0.0000 0.0000
# 3 29.3927 68.5476 143.7498 0.0000 0.0000 0.0000
# 4 0.0000 0.0000 0.0000 95.8978 0.0000 0.0000
# 5 0.0000 0.0000 0.0000 0.0000 31.5596 0.0000
# 6 0.0000 0.0000 0.0000 0.0000 0.0000 39.1125
#
#
#
# Elastic Compliance Matrix: (Units=1/GPa)
#
#
# Indices 1 2 3 4 5 6 
#
# 1 0.034337 -0.002236 -0.005955 0.000000 0.000000 0.000000
# 2 -0.002236 0.008834 -0.003755 0.000000 0.000000 0.000000
# 3 -0.005955 -0.003755 0.009965 0.000000 0.000000 0.000000
# 4 0.000000 0.000000 0.000000 0.010428 0.000000 0.000000
# 5 0.000000 0.000000 0.000000 0.000000 0.031686 0.000000
# 6 0.000000 0.000000 0.000000 0.000000 0.000000 0.025567
#
#
# Mechanical properties :
#
#
# Convention : Reuss Voigt Hill
#
# Bulk Modulus (GPa) = 34.19505 62.89561 48.54533
# Shear Modulus (GPa) = 32.37170 47.16125 39.76648
#
# Velocity S-wave (km/s) = 3.81199 4.60110 4.22501
# Velocity P-wave (km/s) = 5.89277 7.51398 6.75221
#
# Compressibility (1/GPa) = 0.02924400
#
# Stress axis : x y z
#
# Youngs Moduli (GPa) = 29.12304 113.20484 100.35332
#
# Poissons Ratio (x) = 0.25309 0.59759
# Poissons Ratio (y) = 0.06511 0.37684
# Poissons Ratio (z) = 0.17342 0.42510
#
# Static dielectric constant tensor:
#      x y z
#    x 1.840470 0.000000 0.000000 
#    y 0.000000 1.877690 0.000000 
#    z 0.000000 0.000000 1.877410 
# 
# From -- ./inp_files/21952.got.cif
#   From: 2010.05.17/outbox.cif.g08.bks.cpg/sg60_11_cif.got.tgz:21952.got - 2010.06.03 14:59:27.
