data_PCOD9457374
_publ_section_title
;
Structure prediction by ZEFSAII (Michael W. Deem and Ramdas Pophale) SiO2 
 PCOD9457374
Probable space group: P B C N
;
_chemical_formula_sum "Si O2"
_cell_formula_units_Z 20
_cell_length_a 12.028285
_cell_length_b 13.345042
_cell_length_c 5.247825
_cell_angle_alpha 90.000000
_cell_angle_beta 90.000000
_cell_angle_gamma 90.000000
_cell_volume 842.370208
_symmetry_space_group_name_H-M "P B C N"
_symmetry_group_IT_number 60
_symmetry_cell_setting 'orthorhombic'
loop_
_space_group_symop_operation_xyz
x,y,z
1/2-x,1/2-y,1/2+z
1/2+x,1/2-y,-z
-x,y,1/2-z
-x,-y,-z
1/2+x,1/2+y,1/2-z
1/2-x,1/2+y,z
x,-y,1/2+z
loop_
_atom_site_type_symbol
_atom_site_label
_atom_site_fract_x
_atom_site_fract_y
_atom_site_fract_z
Si Si1 0.728632 0.313217 0.831878
Si Si2 0.451222 0.111895 0.004431
Si Si3 0.500000 0.569444 0.250000
O O1 0.771408 0.268593 0.561054
O O2 0.820239 0.389582 0.949627
O O3 0.612043 0.365084 0.773807
O O4 0.500000 0.166755 0.250000
O O5 0.500000 0.159335 0.750000
O O6 0.500000 0.000000 0.000000
O O7 0.500000 0.500000 0.500000
#
# Coordination Sequence:
#
# PCOD9457374 Si02
#       3
#     8   8   4
#     4  12  28  48  77 113 155 196 256 325 390 452
#     4  10  23  41  73 103 142 189 254 295 366 448
#     4  12  30  52  78 110 162 210 256 314 408 474
#
# _framework density 23.742529999999999
#
# number of rings (size 3 to 8) (size 9 to 14) (size 15 to 20)
#    0.000    0.800    0.000    4.800   19.600    0.000 
#    0.000    0.000    0.000    0.000    0.000    0.000 
#    0.000    0.000    0.000    0.000    0.000    0.000 
#
# Total GULP energy -111782.135288 kJ/mol
# GULP energy per Si atom -5589.106764 kJ/mol
# Density = 2.368849 g / cm^3
# Si number density = 23.742530 Si / 1000 Ang^3
#
#
#
# Elastic Constant Matrix: (Units=GPa)
#
#
# Indices 1 2 3 4 5 6 
#
# 1 269.7864 93.9449 88.8667 0.0000 0.0000 0.0000
# 2 93.9449 98.0904 53.2315 0.0000 0.0000 0.0000
# 3 88.8667 53.2315 264.6693 0.0000 0.0000 0.0000
# 4 0.0000 0.0000 0.0000 39.7668 0.0000 0.0000
# 5 0.0000 0.0000 0.0000 0.0000 46.6244 0.0000
# 6 0.0000 0.0000 0.0000 0.0000 0.0000 56.9082
#
#
#
# Elastic Compliance Matrix: (Units=1/GPa)
#
#
# Indices 1 2 3 4 5 6 
#
# 1 0.005756 -0.005011 -0.000925 0.000000 0.000000 0.000000
# 2 -0.005011 0.015806 -0.001496 0.000000 0.000000 0.000000
# 3 -0.000925 -0.001496 0.004390 0.000000 0.000000 0.000000
# 4 0.000000 0.000000 0.000000 0.025147 0.000000 0.000000
# 5 0.000000 0.000000 0.000000 0.000000 0.021448 0.000000
# 6 0.000000 0.000000 0.000000 0.000000 0.000000 0.017572
#
#
# Mechanical properties :
#
#
# Convention : Reuss Voigt Hill
#
# Bulk Modulus (GPa) = 90.19325 122.73694 106.46509
# Shear Modulus (GPa) = 46.00686 55.09339 50.55013
#
# Velocity S-wave (km/s) = 4.40675 4.82233 4.61922
# Velocity P-wave (km/s) = 7.99770 9.10020 8.56670
#
# Compressibility (1/GPa) = 0.01108730
#
# Stress axis : x y z
#
# Youngs Moduli (GPa) = 173.72452 63.26699 227.79965
#
# Poissons Ratio (x) = 0.31703 0.21069
# Poissons Ratio (y) = 0.87054 0.34089
# Poissons Ratio (z) = 0.16068 0.09468
#
# Static dielectric constant tensor:
#      x y z
#    x 1.941020 0.000000 0.000000 
#    y 0.000000 1.728760 0.000000 
#    z 0.000000 0.000000 2.046860 
# 
# From -- ./inp_files/146.got.cif
#   From: 2010.05.17/outbox.cif.g08.bks.cpg/sg60_1_cif.got.tgz:146.got - 2010.06.03 14:59:27.
