data_PCOD9457371
_publ_section_title
;
Structure prediction by ZEFSAII (Michael W. Deem and Ramdas Pophale) SiO2 
 PCOD9457371
Probable space group: P B C N
;
_chemical_formula_sum "Si O2"
_cell_formula_units_Z 48
_cell_length_a 7.836961
_cell_length_b 14.736828
_cell_length_c 16.767531
_cell_angle_alpha 90.000000
_cell_angle_beta 90.000000
_cell_angle_gamma 90.000000
_cell_volume 1936.514790
_symmetry_space_group_name_H-M "P B C N"
_symmetry_group_IT_number 60
_symmetry_cell_setting 'orthorhombic'
loop_
_space_group_symop_operation_xyz
x,y,z
1/2-x,1/2-y,1/2+z
1/2+x,1/2-y,-z
-x,y,1/2-z
-x,-y,-z
1/2+x,1/2+y,1/2-z
1/2-x,1/2+y,z
x,-y,1/2+z
loop_
_atom_site_type_symbol
_atom_site_label
_atom_site_fract_x
_atom_site_fract_y
_atom_site_fract_z
Si Si1 0.369062 0.801410 0.124804
Si Si2 0.780384 0.927525 0.498506
Si Si3 0.808295 0.138845 0.287908
Si Si4 0.735958 0.277562 0.629939
Si Si5 0.861408 0.093682 0.585118
Si Si6 0.795677 0.446515 0.255637
O O1 0.294874 0.700058 0.133038
O O2 0.566913 0.783911 0.143116
O O3 0.274102 0.855641 0.194401
O O4 0.354240 0.867298 0.050163
O O5 0.811713 0.863866 0.575829
O O6 0.948942 0.929258 0.443855
O O7 0.745461 0.029690 0.527675
O O8 0.702167 0.181826 0.213943
O O9 0.763662 0.035693 0.301605
O O10 0.000000 0.141151 0.250000
O O11 0.851164 0.203163 0.585292
O O12 0.808263 0.061626 0.673671
O O13 0.000000 0.456704 0.250000
#
# Coordination Sequence:
#
# PCOD9457371 Si02
#       6
#     8   8   8   8   8   8
#     4  11  24  43  67 101 130 177 229 283 341 406
#     4  11  26  41  69 101 137 182 225 284 355 408
#     4  10  23  41  70  96 130 177 227 276 339 409
#     4  11  21  46  68  94 140 181 221 283 344 413
#     4  11  24  44  67  98 137 180 230 282 343 419
#     4  12  23  44  69  96 134 177 227 284 342 405
#
# _framework density 24.786798999999998
#
# number of rings (size 3 to 8) (size 9 to 14) (size 15 to 20)
#    0.000    1.000    5.000    1.500    2.333    4.667 
#    3.000    0.000    0.000    0.000    0.000    0.000 
#    0.000    0.000    0.000    0.000    0.000    0.000 
#
# Total GULP energy -268163.677945 kJ/mol
# GULP energy per Si atom -5586.743291 kJ/mol
# Density = 2.473038 g / cm^3
# Si number density = 24.786799 Si / 1000 Ang^3
#
#
#
# Elastic Constant Matrix: (Units=GPa)
#
#
# Indices 1 2 3 4 5 6 
#
# 1 25.3274 17.7209 6.8812 0.0000 0.0000 0.0000
# 2 17.7209 110.3558 -0.4044 0.0000 0.0000 0.0000
# 3 6.8812 -0.4044 54.6852 0.0000 0.0000 0.0000
# 4 0.0000 0.0000 0.0000 21.1463 0.0000 0.0000
# 5 0.0000 0.0000 0.0000 0.0000 28.7702 0.0000
# 6 0.0000 0.0000 0.0000 0.0000 0.0000 30.9444
#
#
#
# Elastic Compliance Matrix: (Units=1/GPa)
#
#
# Indices 1 2 3 4 5 6 
#
# 1 0.046297 -0.007456 -0.005881 0.000000 0.000000 0.000000
# 2 -0.007456 0.010263 0.001014 0.000000 0.000000 0.000000
# 3 -0.005881 0.001014 0.019034 0.000000 0.000000 0.000000
# 4 0.000000 0.000000 0.000000 0.047290 0.000000 0.000000
# 5 0.000000 0.000000 0.000000 0.000000 0.034758 0.000000
# 6 0.000000 0.000000 0.000000 0.000000 0.000000 0.032316
#
#
# Mechanical properties :
#
#
# Convention : Reuss Voigt Hill
#
# Bulk Modulus (GPa) = 19.62768 26.52931 23.07850
# Shear Modulus (GPa) = 21.59024 27.25022 24.42023
#
# Velocity S-wave (km/s) = 2.95454 3.31929 3.14221
# Velocity P-wave (km/s) = 4.42435 5.04148 4.74296
#
# Compressibility (1/GPa) = 0.05094845
#
# Stress axis : x y z
#
# Youngs Moduli (GPa) = 21.59950 97.44125 52.53759
#
# Poissons Ratio (x) = 0.72652 0.30897
# Poissons Ratio (y) = 0.16105 -0.05328
# Poissons Ratio (z) = 0.12702 -0.09882
#
# Static dielectric constant tensor:
#      x y z
#    x 2.025830 0.000000 0.000000 
#    y 0.000000 1.961270 0.000000 
#    z 0.000000 0.000000 2.040830 
# 
# From -- ./inp_files/19304.got.cif
#   From: 2010.05.17/outbox.cif.g08.bks.cpg/sg60_10_cif.got.tgz:19304.got - 2010.06.03 14:59:27.
