data_PCOD9457549
_publ_section_title
;
Structure prediction by ZEFSAII (Michael W. Deem and Ramdas Pophale) SiO2 
 PCOD9457549
Probable space group: P B C N
;
_chemical_formula_sum "Si O2"
_cell_formula_units_Z 48
_cell_length_a 11.313059
_cell_length_b 9.086145
_cell_length_c 20.787202
_cell_angle_alpha 90.000000
_cell_angle_beta 90.000000
_cell_angle_gamma 90.000000
_cell_volume 2136.760032
_symmetry_space_group_name_H-M "P B C N"
_symmetry_group_IT_number 60
_symmetry_cell_setting 'orthorhombic'
loop_
_space_group_symop_operation_xyz
x,y,z
1/2-x,1/2-y,1/2+z
1/2+x,1/2-y,-z
-x,y,1/2-z
-x,-y,-z
1/2+x,1/2+y,1/2-z
1/2-x,1/2+y,z
x,-y,1/2+z
loop_
_atom_site_type_symbol
_atom_site_label
_atom_site_fract_x
_atom_site_fract_y
_atom_site_fract_z
Si Si1 0.627910 0.639235 0.055798
Si Si2 0.378136 0.522927 0.079517
Si Si3 0.192699 0.444643 0.678195
Si Si4 0.496879 0.703928 0.676799
Si Si5 0.637342 0.765763 0.251584
Si Si6 0.244127 0.128644 0.875088
O O1 0.487215 0.636061 0.070289
O O2 0.695160 0.531318 0.106165
O O3 0.689993 0.795312 0.064984
O O4 0.640715 0.563546 0.986630
O O5 0.258855 0.582236 0.110716
O O6 0.424685 0.408235 0.132809
O O7 0.070818 0.357288 0.679206
O O8 0.167342 0.613530 0.693986
O O9 0.278960 0.372152 0.732035
O O10 0.500000 0.648121 0.750000
O O11 0.625491 0.714122 0.646104
O O12 0.500000 0.725157 0.250000
O O13 0.669975 0.847532 0.185205
#
# Coordination Sequence:
#
# PCOD9457549 Si02
#       6
#     8   8   8   8   8   8
#     4  10  24  42  68  91 130 176 223 262 325 389
#     4  10  23  45  66  92 131 177 219 265 326 401
#     4  12  23  42  66  97 133 167 216 279 332 395
#     4  11  22  42  67  93 132 171 211 273 339 382
#     4  12  26  40  67  99 132 168 220 275 338 395
#     4  11  23  42  65  96 130 173 220 272 324 396
#
# _framework density 22.463916999999999
#
# number of rings (size 3 to 8) (size 9 to 14) (size 15 to 20)
#    0.000    1.000    3.333    2.500    4.667    3.333 
#    0.000    0.833    0.000    0.000    0.000    0.000 
#    0.000    0.000    0.000    0.000    0.000    0.000 
#
# Total GULP energy -268614.806619 kJ/mol
# GULP energy per Si atom -5596.141805 kJ/mol
# Density = 2.241279 g / cm^3
# Si number density = 22.463917 Si / 1000 Ang^3
#
#
#
# Elastic Constant Matrix: (Units=GPa)
#
#
# Indices 1 2 3 4 5 6 
#
# 1 67.8236 12.5750 1.6139 0.0000 0.0000 0.0000
# 2 12.5750 41.4701 -14.3093 0.0000 0.0000 0.0000
# 3 1.6139 -14.3093 79.9700 0.0000 0.0000 0.0000
# 4 0.0000 0.0000 0.0000 7.4162 0.0000 0.0000
# 5 0.0000 0.0000 0.0000 0.0000 38.8859 0.0000
# 6 0.0000 0.0000 0.0000 0.0000 0.0000 -25.8219
#
#
#
# Elastic Compliance Matrix: (Units=1/GPa)
#
#
# Indices 1 2 3 4 5 6 
#
# 1 0.015739 -0.005203 -0.001249 0.000000 0.000000 0.000000
# 2 -0.005203 0.027421 0.005012 0.000000 0.000000 0.000000
# 3 -0.001249 0.005012 0.013427 0.000000 0.000000 0.000000
# 4 0.000000 0.000000 0.000000 0.134840 0.000000 0.000000
# 5 0.000000 0.000000 0.000000 0.000000 0.025716 0.000000
# 6 0.000000 0.000000 0.000000 0.000000 0.000000 -0.038727
#
#
# Mechanical properties :
#
#
# Convention : Reuss Voigt Hill
#
# Bulk Modulus (GPa) = 18.62021 21.00256 19.81139
# Shear Modulus (GPa) = 25.10061 16.72165 20.91113
#
# Velocity S-wave (km/s) = 3.34634 2.73129 3.05434
# Velocity P-wave (km/s) = 4.82054 4.39504 4.61270
#
# Compressibility (1/GPa) = 0.05370508
#
# Stress axis : x y z
#
# Youngs Moduli (GPa) = 63.53820 36.46867 74.47892
#
# Poissons Ratio (x) = 0.18976 0.09300
# Poissons Ratio (y) = 0.33061 -0.37325
# Poissons Ratio (z) = 0.07934 -0.18276
#
# Static dielectric constant tensor:
#      x y z
#    x 1.837950 0.000000 0.000000 
#    y 0.000000 1.808340 0.000000 
#    z 0.000000 0.000000 1.850430 
# 
# From -- ./inp_files/24227.got.cif
#   From: 2010.05.17/outbox.cif.g08.bks.cpg/sg60_13_cif.got.tgz:24227.got - 2010.06.03 14:59:27.
