data_PCOD9457773
_publ_section_title
;
Structure prediction by ZEFSAII (Michael W. Deem and Ramdas Pophale) SiO2 
 PCOD9457773
Probable space group: P B C N
;
_chemical_formula_sum "Si O2"
_cell_formula_units_Z 48
_cell_length_a 16.537256
_cell_length_b 13.635464
_cell_length_c 8.565118
_cell_angle_alpha 90.000000
_cell_angle_beta 90.000000
_cell_angle_gamma 90.000000
_cell_volume 1931.375514
_symmetry_space_group_name_H-M "P B C N"
_symmetry_group_IT_number 60
_symmetry_cell_setting 'orthorhombic'
loop_
_space_group_symop_operation_xyz
x,y,z
1/2-x,1/2-y,1/2+z
1/2+x,1/2-y,-z
-x,y,1/2-z
-x,-y,-z
1/2+x,1/2+y,1/2-z
1/2-x,1/2+y,z
x,-y,1/2+z
loop_
_atom_site_type_symbol
_atom_site_label
_atom_site_fract_x
_atom_site_fract_y
_atom_site_fract_z
Si Si1 0.485200 0.391620 0.065255
Si Si2 0.312411 0.440725 0.967469
Si Si3 0.740035 0.276334 0.761674
Si Si4 0.056862 0.437534 0.883339
Si Si5 0.340577 0.910793 0.173712
Si Si6 0.151700 0.831741 0.436583
O O1 0.500000 0.390037 0.250000
O O2 0.392094 0.381057 0.020960
O O3 0.500000 0.500000 0.000000
O O4 0.559271 0.325690 0.002674
O O5 0.244715 0.446446 0.101813
O O6 0.334393 0.551209 0.915867
O O7 0.277409 0.375234 0.829179
O O8 0.678440 0.186404 0.727948
O O9 0.826902 0.233379 0.713916
O O10 0.719317 0.297411 0.940361
O O11 0.114365 0.510120 0.781611
O O12 0.000000 0.387853 0.750000
O O13 0.109695 0.384388 0.015841
O O14 0.000000 0.500000 0.000000
#
# Coordination Sequence:
#
# PCOD9457773 Si02
#       6
#     8   8   8   8   8   8
#     4  10  24  44  74 108 150 199 256 310 391 455
#     4  11  26  45  77 106 154 201 250 323 387 465
#     4  12  26  46  73 112 146 195 270 313 390 467
#     4   9  21  44  74 111 153 199 251 309 396 470
#     4  11  22  44  74 110 148 198 253 316 383 473
#     4  11  27  46  76 109 152 200 257 323 394 458
#
# _framework density 24.852754999999998
#
# number of rings (size 3 to 8) (size 9 to 14) (size 15 to 20)
#    0.000    1.333    1.667    2.000   14.000    0.000 
#    9.000    0.833    0.000    0.000    0.000    0.000 
#    0.000    0.000    0.000    0.000    0.000    0.000 
#
# Total GULP energy -268165.168930 kJ/mol
# GULP energy per Si atom -5586.774353 kJ/mol
# Density = 2.479619 g / cm^3
# Si number density = 24.852755 Si / 1000 Ang^3
#
#
#
# Elastic Constant Matrix: (Units=GPa)
#
#
# Indices 1 2 3 4 5 6 
#
# 1 153.5697 41.0750 51.5370 0.0000 0.0000 0.0000
# 2 41.0750 92.0581 24.4173 0.0000 0.0000 0.0000
# 3 51.5370 24.4173 108.0918 0.0000 0.0000 0.0000
# 4 0.0000 0.0000 0.0000 44.6520 0.0000 0.0000
# 5 0.0000 0.0000 0.0000 0.0000 54.2617 0.0000
# 6 0.0000 0.0000 0.0000 0.0000 0.0000 44.9650
#
#
#
# Elastic Compliance Matrix: (Units=1/GPa)
#
#
# Indices 1 2 3 4 5 6 
#
# 1 0.008404 -0.002858 -0.003361 0.000000 0.000000 0.000000
# 2 -0.002858 0.012527 -0.001467 0.000000 0.000000 0.000000
# 3 -0.003361 -0.001467 0.011185 0.000000 0.000000 0.000000
# 4 0.000000 0.000000 0.000000 0.022395 0.000000 0.000000
# 5 0.000000 0.000000 0.000000 0.000000 0.018429 0.000000
# 6 0.000000 0.000000 0.000000 0.000000 0.000000 0.022240
#
#
# Mechanical properties :
#
#
# Convention : Reuss Voigt Hill
#
# Bulk Modulus (GPa) = 59.72476 65.30872 62.51674
# Shear Modulus (GPa) = 43.05314 44.55509 43.80412
#
# Velocity S-wave (km/s) = 4.16664 4.23870 4.20282
# Velocity P-wave (km/s) = 6.87252 7.09159 6.98291
#
# Compressibility (1/GPa) = 0.01674348
#
# Stress axis : x y z
#
# Youngs Moduli (GPa) = 118.98720 79.82672 89.40181
#
# Poissons Ratio (x) = 0.22817 0.30051
# Poissons Ratio (y) = 0.34010 0.13115
# Poissons Ratio (z) = 0.39996 0.11711
#
# Static dielectric constant tensor:
#      x y z
#    x 2.097270 0.000000 0.000000 
#    y 0.000000 1.955640 0.000000 
#    z 0.000000 0.000000 1.981370 
# 
# From -- ./inp_files/6714.got.cif
#   From: 2010.05.17/outbox.cif.g08.bks.cpg/sg60_4_cif.got.tgz:6714.got - 2010.06.03 14:59:27.
