data_PCOD9457510
_publ_section_title
;
Structure prediction by ZEFSAII (Michael W. Deem and Ramdas Pophale) SiO2 
 PCOD9457510
Probable space group: P B C N
;
_chemical_formula_sum "Si O2"
_cell_formula_units_Z 48
_cell_length_a 7.480288
_cell_length_b 13.911282
_cell_length_c 17.680691
_cell_angle_alpha 90.000000
_cell_angle_beta 90.000000
_cell_angle_gamma 90.000000
_cell_volume 1839.859704
_symmetry_space_group_name_H-M "P B C N"
_symmetry_group_IT_number 60
_symmetry_cell_setting 'orthorhombic'
loop_
_space_group_symop_operation_xyz
x,y,z
1/2-x,1/2-y,1/2+z
1/2+x,1/2-y,-z
-x,y,1/2-z
-x,-y,-z
1/2+x,1/2+y,1/2-z
1/2-x,1/2+y,z
x,-y,1/2+z
loop_
_atom_site_type_symbol
_atom_site_label
_atom_site_fract_x
_atom_site_fract_y
_atom_site_fract_z
Si Si1 0.805689 0.926150 0.746351
Si Si2 0.227430 0.130667 0.088744
Si Si3 0.747189 0.635379 0.694905
Si Si4 0.206007 0.540138 0.505775
Si Si5 0.876981 0.318342 0.617677
Si Si6 0.861270 0.672789 0.857352
O O1 0.828291 0.029133 0.706298
O O2 0.000000 0.876162 0.750000
O O3 0.755999 0.931290 0.833983
O O4 0.662599 0.868054 0.698196
O O5 0.426068 0.174905 0.082944
O O6 0.106740 0.222808 0.105499
O O7 0.185617 0.058107 0.020992
O O8 0.663937 0.707565 0.634396
O O9 0.748008 0.680333 0.779930
O O10 0.952044 0.626627 0.668284
O O11 0.239240 0.612262 0.436858
O O12 0.222512 0.606444 0.579212
O O13 0.000000 0.500000 0.500000
#
# Coordination Sequence:
#
# PCOD9457510 Si02
#       6
#     8   8   8   8   8   8
#     4  12  25  41  67  99 136 182 239 284 342 420
#     4  11  23  43  70  97 137 184 229 291 357 418
#     4  11  24  41  66  99 134 181 233 282 348 411
#     4  10  23  44  68 102 142 187 227 284 362 418
#     4  11  25  42  68 101 140 176 236 289 344 424
#     4  11  23  41  70  98 139 184 231 287 348 426
#
# _framework density 26.088947000000001
#
# number of rings (size 3 to 8) (size 9 to 14) (size 15 to 20)
#    0.000    1.000    3.333    3.500    4.667    4.000 
#    0.000    3.333    0.000    0.000    0.000    0.000 
#    0.000    0.000    0.000    0.000    0.000    0.000 
#
# Total GULP energy -268575.413734 kJ/mol
# GULP energy per Si atom -5595.321119 kJ/mol
# Density = 2.602957 g / cm^3
# Si number density = 26.088947 Si / 1000 Ang^3
#
#
#
# Elastic Constant Matrix: (Units=GPa)
#
#
# Indices 1 2 3 4 5 6 
#
# 1 42.5483 0.1226 -6.1318 0.0000 0.0000 0.0000
# 2 0.1226 120.3940 35.0691 0.0000 0.0000 0.0000
# 3 -6.1318 35.0691 84.1644 0.0000 0.0000 0.0000
# 4 0.0000 0.0000 0.0000 45.2199 0.0000 0.0000
# 5 0.0000 0.0000 0.0000 0.0000 21.1371 0.0000
# 6 0.0000 0.0000 0.0000 0.0000 0.0000 28.2647
#
#
#
# Elastic Compliance Matrix: (Units=1/GPa)
#
#
# Indices 1 2 3 4 5 6 
#
# 1 0.023790 -0.000602 0.001984 0.000000 0.000000 0.000000
# 2 -0.000602 0.009469 -0.003989 0.000000 0.000000 0.000000
# 3 0.001984 -0.003989 0.013688 0.000000 0.000000 0.000000
# 4 0.000000 0.000000 0.000000 0.022114 0.000000 0.000000
# 5 0.000000 0.000000 0.000000 0.000000 0.047310 0.000000
# 6 0.000000 0.000000 0.000000 0.000000 0.000000 0.035380
#
#
# Mechanical properties :
#
#
# Convention : Reuss Voigt Hill
#
# Bulk Modulus (GPa) = 23.96194 33.91406 28.93800
# Shear Modulus (GPa) = 29.26082 33.46080 31.36081
#
# Velocity S-wave (km/s) = 3.35263 3.58518 3.47085
# Velocity P-wave (km/s) = 4.91849 5.49232 5.21331
#
# Compressibility (1/GPa) = 0.04173284
#
# Stress axis : x y z
#
# Youngs Moduli (GPa) = 42.03379 105.61138 73.05530
#
# Poissons Ratio (x) = 0.06360 -0.14495
# Poissons Ratio (y) = 0.02531 0.29143
# Poissons Ratio (z) = -0.08340 0.42131
#
# Static dielectric constant tensor:
#      x y z
#    x 2.080800 0.000000 0.000000 
#    y 0.000000 2.033520 0.000000 
#    z 0.000000 0.000000 2.044410 
# 
# From -- ./inp_files/19274.got.cif
#   From: 2010.05.17/outbox.cif.g08.bks.cpg/sg60_10_cif.got.tgz:19274.got - 2010.06.03 14:59:27.
