data_PCOD9457492
_publ_section_title
;
Structure prediction by ZEFSAII (Michael W. Deem and Ramdas Pophale) SiO2 
 PCOD9457492
Probable space group: P B C N
;
_chemical_formula_sum "Si O2"
_cell_formula_units_Z 32
_cell_length_a 7.788473
_cell_length_b 12.731518
_cell_length_c 13.024793
_cell_angle_alpha 90.000000
_cell_angle_beta 90.000000
_cell_angle_gamma 90.000000
_cell_volume 1291.526546
_symmetry_space_group_name_H-M "P B C N"
_symmetry_group_IT_number 60
_symmetry_cell_setting 'orthorhombic'
loop_
_space_group_symop_operation_xyz
x,y,z
1/2-x,1/2-y,1/2+z
1/2+x,1/2-y,-z
-x,y,1/2-z
-x,-y,-z
1/2+x,1/2+y,1/2-z
1/2-x,1/2+y,z
x,-y,1/2+z
loop_
_atom_site_type_symbol
_atom_site_label
_atom_site_fract_x
_atom_site_fract_y
_atom_site_fract_z
Si Si1 0.651279 0.128476 0.320305
Si Si2 0.404387 0.395907 0.967932
Si Si3 0.478081 0.165317 0.528786
Si Si4 0.000000 0.574383 0.750000
Si Si5 0.500000 0.342837 0.750000
O O1 0.500000 0.176822 0.250000
O O2 0.787804 0.378082 0.491897
O O3 0.822271 0.195669 0.303117
O O4 0.651092 0.007422 0.280477
O O5 0.500000 0.500000 0.000000
O O6 0.505884 0.289155 0.995127
O O7 0.411476 0.400047 0.845093
O O8 0.401873 0.881135 0.561142
O O9 0.538474 0.138509 0.645359
#
# Coordination Sequence:
#
# PCOD9457492 Si02
#       5
#     8   8   8   4   4
#     4  10  23  43  78 112 155 203 264 324 392 465
#     4  12  28  48  77 115 159 207 270 328 394 482
#     4  12  25  49  75 114 158 212 261 327 404 469
#     4  10  23  46  77 106 158 208 259 334 385 466
#     4  12  23  48  71 110 158 204 257 326 389 466
#
# _framework density 24.776882000000001
#
# number of rings (size 3 to 8) (size 9 to 14) (size 15 to 20)
#    0.750    0.000    2.500    4.500    0.000    6.000 
#    2.250    0.000    0.000    0.000    0.000    0.000 
#    0.000    0.000    0.000    0.000    0.000    0.000 
#
# Total GULP energy -178531.386677 kJ/mol
# GULP energy per Si atom -5579.105834 kJ/mol
# Density = 2.472049 g / cm^3
# Si number density = 24.776882 Si / 1000 Ang^3
#
#
#
# Elastic Constant Matrix: (Units=GPa)
#
#
# Indices 1 2 3 4 5 6 
#
# 1 181.1629 51.9281 66.3076 0.0000 0.0000 0.0000
# 2 51.9281 157.8680 40.1627 0.0000 0.0000 0.0000
# 3 66.3076 40.1627 161.7789 0.0000 0.0000 0.0000
# 4 0.0000 0.0000 0.0000 25.1997 0.0000 0.0000
# 5 0.0000 0.0000 0.0000 0.0000 37.1783 0.0000
# 6 0.0000 0.0000 0.0000 0.0000 0.0000 31.0904
#
#
#
# Elastic Compliance Matrix: (Units=1/GPa)
#
#
# Indices 1 2 3 4 5 6 
#
# 1 0.006874 -0.001648 -0.002408 0.000000 0.000000 0.000000
# 2 -0.001648 0.007157 -0.001101 0.000000 0.000000 0.000000
# 3 -0.002408 -0.001101 0.007442 0.000000 0.000000 0.000000
# 4 0.000000 0.000000 0.000000 0.039683 0.000000 0.000000
# 5 0.000000 0.000000 0.000000 0.000000 0.026897 0.000000
# 6 0.000000 0.000000 0.000000 0.000000 0.000000 0.032164
#
#
# Mechanical properties :
#
#
# Convention : Reuss Voigt Hill
#
# Bulk Modulus (GPa) = 89.62990 90.84517 90.23753
# Shear Modulus (GPa) = 37.24366 41.52111 39.38238
#
# Velocity S-wave (km/s) = 3.88127 4.09810 3.99115
# Velocity P-wave (km/s) = 7.50593 7.69008 7.59857
#
# Compressibility (1/GPa) = 0.01115699
#
# Stress axis : x y z
#
# Youngs Moduli (GPa) = 145.48057 139.72846 134.37923
#
# Poissons Ratio (x) = 0.23032 0.32360
# Poissons Ratio (y) = 0.23981 0.14796
# Poissons Ratio (z) = 0.35033 0.15385
#
# Static dielectric constant tensor:
#      x y z
#    x 1.991800 0.000000 0.000000 
#    y 0.000000 2.249830 0.000000 
#    z 0.000000 0.000000 2.089400 
# 
# From -- ./inp_files/10617.got.cif
#   From: 2010.05.17/outbox.cif.g08.bks.cpg/sg60_6_cif.got.tgz:10617.got - 2010.06.03 14:59:27.
