data_PCOD9457887
_publ_section_title
;
Structure prediction by ZEFSAII (Michael W. Deem and Ramdas Pophale) SiO2 
 PCOD9457887
Probable space group: P B C N
;
_chemical_formula_sum "Si O2"
_cell_formula_units_Z 40
_cell_length_a 8.573324
_cell_length_b 11.984819
_cell_length_c 18.983070
_cell_angle_alpha 90.000000
_cell_angle_beta 90.000000
_cell_angle_gamma 90.000000
_cell_volume 1950.505438
_symmetry_space_group_name_H-M "P B C N"
_symmetry_group_IT_number 60
_symmetry_cell_setting 'orthorhombic'
loop_
_space_group_symop_operation_xyz
x,y,z
1/2-x,1/2-y,1/2+z
1/2+x,1/2-y,-z
-x,y,1/2-z
-x,-y,-z
1/2+x,1/2+y,1/2-z
1/2-x,1/2+y,z
x,-y,1/2+z
loop_
_atom_site_type_symbol
_atom_site_label
_atom_site_fract_x
_atom_site_fract_y
_atom_site_fract_z
Si Si1 0.345959 0.926690 0.840484
Si Si2 0.844323 0.024592 0.544089
Si Si3 0.655947 0.088414 0.411494
Si Si4 0.653840 0.499404 0.286734
Si Si5 0.997484 0.205718 0.640255
O O1 0.502994 0.971532 0.878372
O O2 0.395206 0.800417 0.820649
O O3 0.214536 0.931454 0.901025
O O4 0.286899 0.992861 0.772626
O O5 0.710863 0.048502 0.487002
O O6 0.885105 0.129733 0.593307
O O7 0.000000 0.000000 0.500000
O O8 0.607867 0.218228 0.409136
O O9 0.791444 0.065388 0.355216
O O10 0.500000 0.549026 0.250000
O O11 0.601236 0.377050 0.312932
#
# Coordination Sequence:
#
# PCOD9457887 Si02
#       5
#     8   8   8   8   8
#     4  10  25  41  71  98 138 179 230 283 342 412
#     4  12  22  45  70  99 139 182 232 288 340 417
#     4  10  25  43  69 100 137 180 235 278 352 411
#     4  12  22  45  69  98 137 179 227 288 341 411
#     4  10  26  41  72  96 145 175 233 284 354 404
#
# _framework density 20.507504000000001
#
# number of rings (size 3 to 8) (size 9 to 14) (size 15 to 20)
#    1.200    0.000    4.000    1.200    5.600    0.000 
#    0.000    2.000    0.000    0.000    0.000    0.000 
#    0.000    0.000    0.000    0.000    0.000    0.000 
#
# Total GULP energy -222959.767229 kJ/mol
# GULP energy per Si atom -5573.994181 kJ/mol
# Density = 2.046083 g / cm^3
# Si number density = 20.507504 Si / 1000 Ang^3
#
#
#
# Elastic Constant Matrix: (Units=GPa)
#
#
# Indices 1 2 3 4 5 6 
#
# 1 83.2950 33.2444 44.1700 0.0000 0.0000 0.0000
# 2 33.2444 48.1681 45.2271 0.0000 0.0000 0.0000
# 3 44.1700 45.2271 120.5773 0.0000 0.0000 0.0000
# 4 0.0000 0.0000 0.0000 24.3969 0.0000 0.0000
# 5 0.0000 0.0000 0.0000 0.0000 64.3657 0.0000
# 6 0.0000 0.0000 0.0000 0.0000 0.0000 42.7378
#
#
#
# Elastic Compliance Matrix: (Units=1/GPa)
#
#
# Indices 1 2 3 4 5 6 
#
# 1 0.017182 -0.009183 -0.002850 0.000000 0.000000 0.000000
# 2 -0.009183 0.036955 -0.010498 0.000000 0.000000 0.000000
# 3 -0.002850 -0.010498 0.013275 0.000000 0.000000 0.000000
# 4 0.000000 0.000000 0.000000 0.040989 0.000000 0.000000
# 5 0.000000 0.000000 0.000000 0.000000 0.015536 0.000000
# 6 0.000000 0.000000 0.000000 0.000000 0.000000 0.023398
#
#
# Mechanical properties :
#
#
# Convention : Reuss Voigt Hill
#
# Bulk Modulus (GPa) = 44.73953 55.25816 49.99885
# Shear Modulus (GPa) = 25.01937 34.92666 29.97302
#
# Velocity S-wave (km/s) = 3.49665 4.13136 3.82719
# Velocity P-wave (km/s) = 6.17784 7.05417 6.63050
#
# Compressibility (1/GPa) = 0.02235160
#
# Stress axis : x y z
#
# Youngs Moduli (GPa) = 58.20173 27.06003 75.33047
#
# Poissons Ratio (x) = 0.24848 0.21467
# Poissons Ratio (y) = 0.53445 0.79078
# Poissons Ratio (z) = 0.16586 0.28406
#
# Static dielectric constant tensor:
#      x y z
#    x 1.749450 0.000000 0.000000 
#    y 0.000000 1.704260 0.000000 
#    z 0.000000 0.000000 1.759600 
# 
# From -- ./inp_files/19003.got.cif
#   From: 2010.05.17/outbox.cif.g08.bks.cpg/sg60_10_cif.got.tgz:19003.got - 2010.06.03 14:59:27.
