data_PCOD9457221
_publ_section_title
;
Structure prediction by ZEFSAII (Michael W. Deem and Ramdas Pophale) SiO2 
 PCOD9457221
Probable space group: P B C N
;
_chemical_formula_sum "Si O2"
_cell_formula_units_Z 56
_cell_length_a 32.469972
_cell_length_b 5.011758
_cell_length_c 13.470581
_cell_angle_alpha 90.000000
_cell_angle_beta 90.000000
_cell_angle_gamma 90.000000
_cell_volume 2192.089764
_symmetry_space_group_name_H-M "P B C N"
_symmetry_group_IT_number 60
_symmetry_cell_setting 'orthorhombic'
loop_
_space_group_symop_operation_xyz
x,y,z
1/2-x,1/2-y,1/2+z
1/2+x,1/2-y,-z
-x,y,1/2-z
-x,-y,-z
1/2+x,1/2+y,1/2-z
1/2-x,1/2+y,z
x,-y,1/2+z
loop_
_atom_site_type_symbol
_atom_site_label
_atom_site_fract_x
_atom_site_fract_y
_atom_site_fract_z
Si Si1 0.944404 0.355708 0.820966
Si Si2 0.000000 0.500000 0.500000
Si Si3 0.548746 0.422403 0.124851
Si Si4 0.366013 0.240107 0.075471
Si Si5 0.868584 0.764473 0.047040
Si Si6 0.276238 0.184851 0.382617
Si Si7 0.225002 0.627977 0.144495
Si Si8 0.500000 0.325378 0.750000
O O1 0.961669 0.124211 0.745389
O O2 0.896068 0.336968 0.835019
O O3 0.960864 0.621448 0.772347
O O4 0.964965 0.343965 0.927374
O O5 0.964459 0.308518 0.552087
O O6 0.597782 0.403246 0.118826
O O7 0.515034 0.656463 0.122738
O O8 0.318689 0.196828 0.099664
O O9 0.372949 0.547622 0.049229
O O10 0.376183 0.041297 0.984004
O O11 0.821416 0.771597 0.082671
O O12 0.241229 0.397032 0.412515
O O13 0.278897 0.165304 0.263059
O O14 0.238713 0.331638 0.117329
#
# Coordination Sequence:
#
# PCOD9457221 Si02
#       8
#     8   4   8   8   8   8   8   4
#     4  12  27  48  72 108 147 194 248 314 377 448
#     4  12  22  50  70 102 146 186 256 304 384 444
#     4  12  27  48  74 109 149 197 254 317 379 456
#     4  12  28  46  71 111 151 193 252 312 374 445
#     4  12  28  45  72 111 148 196 247 317 370 446
#     4  10  22  45  72 104 145 194 244 301 374 448
#     4  10  22  45  74 104 146 196 245 302 375 449
#     4  12  26  48  78 104 138 206 250 306 394 438
#
# _framework density 25.546402
#
# number of rings (size 3 to 8) (size 9 to 14) (size 15 to 20)
#    0.000    0.571    4.286    2.571    6.000    4.000 
#    7.714    0.000    0.000    0.000    0.000    0.000 
#    0.000    0.000    0.000    0.000    0.000    0.000 
#
# Total GULP energy -312237.047994 kJ/mol
# GULP energy per Si atom -5575.661571 kJ/mol
# Density = 2.548826 g / cm^3
# Si number density = 25.546402 Si / 1000 Ang^3
#
#
#
# Elastic Constant Matrix: (Units=GPa)
#
#
# Indices 1 2 3 4 5 6 
#
# 1 175.1747 5.4732 20.6596 0.0000 0.0000 0.0000
# 2 5.4732 100.0563 6.6366 0.0000 0.0000 0.0000
# 3 20.6596 6.6366 91.4072 0.0000 0.0000 0.0000
# 4 0.0000 0.0000 0.0000 30.4039 0.0000 0.0000
# 5 0.0000 0.0000 0.0000 0.0000 50.5634 0.0000
# 6 0.0000 0.0000 0.0000 0.0000 0.0000 28.8713
#
#
#
# Elastic Compliance Matrix: (Units=1/GPa)
#
#
# Indices 1 2 3 4 5 6 
#
# 1 0.005870 -0.000234 -0.001310 0.000000 0.000000 0.000000
# 2 -0.000234 0.010052 -0.000677 0.000000 0.000000 0.000000
# 3 -0.001310 -0.000677 0.011285 0.000000 0.000000 0.000000
# 4 0.000000 0.000000 0.000000 0.032891 0.000000 0.000000
# 5 0.000000 0.000000 0.000000 0.000000 0.019777 0.000000
# 6 0.000000 0.000000 0.000000 0.000000 0.000000 0.034636
#
#
# Mechanical properties :
#
#
# Convention : Reuss Voigt Hill
#
# Bulk Modulus (GPa) = 43.92542 48.01965 45.97254
# Shear Modulus (GPa) = 39.51248 44.22565 41.86906
#
# Velocity S-wave (km/s) = 3.93707 4.16527 4.05278
# Velocity P-wave (km/s) = 6.15622 6.47846 6.31940
#
# Compressibility (1/GPa) = 0.02276586
#
# Stress axis : x y z
#
# Youngs Moduli (GPa) = 170.34671 99.48184 88.61132
#
# Poissons Ratio (x) = 0.02330 0.11606
# Poissons Ratio (y) = 0.03990 0.05998
# Poissons Ratio (z) = 0.22312 0.06734
#
# Static dielectric constant tensor:
#      x y z
#    x 2.104860 0.000000 0.000000 
#    y 0.000000 2.063750 0.000000 
#    z 0.000000 0.000000 1.960820 
# 
# From -- ./inp_files/18220.got.cif
#   From: 2010.05.17/outbox.cif.g08.bks.cpg/sg60_10_cif.got.tgz:18220.got - 2010.06.03 14:59:27.
