data_PCOD9457289
_publ_section_title
;
Structure prediction by ZEFSAII (Michael W. Deem and Ramdas Pophale) SiO2 
 PCOD9457289
Probable space group: P B C N
;
_chemical_formula_sum "Si O2"
_cell_formula_units_Z 32
_cell_length_a 7.077276
_cell_length_b 16.071864
_cell_length_c 10.757322
_cell_angle_alpha 90.000000
_cell_angle_beta 90.000000
_cell_angle_gamma 90.000000
_cell_volume 1223.591778
_symmetry_space_group_name_H-M "P B C N"
_symmetry_group_IT_number 60
_symmetry_cell_setting 'orthorhombic'
loop_
_space_group_symop_operation_xyz
x,y,z
1/2-x,1/2-y,1/2+z
1/2+x,1/2-y,-z
-x,y,1/2-z
-x,-y,-z
1/2+x,1/2+y,1/2-z
1/2-x,1/2+y,z
x,-y,1/2+z
loop_
_atom_site_type_symbol
_atom_site_label
_atom_site_fract_x
_atom_site_fract_y
_atom_site_fract_z
Si Si1 0.268772 0.924371 0.753102
Si Si2 0.273410 0.004272 0.004742
Si Si3 0.814244 0.684599 0.588399
Si Si4 0.281287 0.241697 0.658963
O O1 0.500000 0.916832 0.750000
O O2 0.219554 0.995714 0.650492
O O3 0.189046 0.837599 0.702541
O O4 0.207528 0.943699 0.894336
O O5 0.236374 0.097319 0.957060
O O6 0.500000 0.000000 0.000000
O O7 0.815651 0.748849 0.473791
O O8 0.701250 0.707425 0.712139
O O9 0.033829 0.687059 0.627636
#
# Coordination Sequence:
#
# PCOD9457289 Si02
#       4
#     8   8   8   8
#     4   9  19  34  59  89 113 152 199 251 289 345
#     4   9  19  33  58  87 110 148 205 245 284 343
#     4  10  23  38  61  91 117 160 199 249 302 355
#     4  10  23  37  59  91 120 156 200 245 308 351
#
# _framework density 26.152512999999999
#
# number of rings (size 3 to 8) (size 9 to 14) (size 15 to 20)
#    0.000    2.500    0.000    0.000   21.000    0.000 
#    0.000    0.000    0.000   37.500    0.000    0.000 
#    0.000    0.000    0.000    0.000    0.000    0.000 
#
# Total GULP energy -178516.761429 kJ/mol
# GULP energy per Si atom -5578.648795 kJ/mol
# Density = 2.609299 g / cm^3
# Si number density = 26.152513 Si / 1000 Ang^3
#
#
#
# Elastic Constant Matrix: (Units=GPa)
#
#
# Indices 1 2 3 4 5 6 
#
# 1 59.0543 -5.8515 16.9407 0.0000 0.0000 0.0000
# 2 -5.8515 58.0672 21.7159 0.0000 0.0000 0.0000
# 3 16.9407 21.7159 161.9471 0.0000 0.0000 0.0000
# 4 0.0000 0.0000 0.0000 54.6318 0.0000 0.0000
# 5 0.0000 0.0000 0.0000 0.0000 18.9639 0.0000
# 6 0.0000 0.0000 0.0000 0.0000 0.0000 11.9292
#
#
#
# Elastic Compliance Matrix: (Units=1/GPa)
#
#
# Indices 1 2 3 4 5 6 
#
# 1 0.017830 0.002626 -0.002217 0.000000 0.000000 0.000000
# 2 0.002626 0.018517 -0.002758 0.000000 0.000000 0.000000
# 3 -0.002217 -0.002758 0.006777 0.000000 0.000000 0.000000
# 4 0.000000 0.000000 0.000000 0.018304 0.000000 0.000000
# 5 0.000000 0.000000 0.000000 0.000000 0.052732 0.000000
# 6 0.000000 0.000000 0.000000 0.000000 0.000000 0.083828
#
#
# Mechanical properties :
#
#
# Convention : Reuss Voigt Hill
#
# Bulk Modulus (GPa) = 26.02424 38.29763 32.16093
# Shear Modulus (GPa) = 23.20243 33.52255 28.36249
#
# Velocity S-wave (km/s) = 2.98182 3.58412 3.29675
# Velocity P-wave (km/s) = 4.67199 5.63947 5.17838
#
# Compressibility (1/GPa) = 0.03842572
#
# Stress axis : x y z
#
# Youngs Moduli (GPa) = 56.08587 54.00334 147.56696
#
# Poissons Ratio (x) = -0.14181 0.32719
# Poissons Ratio (y) = -0.14728 0.40695
# Poissons Ratio (z) = 0.12436 0.14893
#
# Static dielectric constant tensor:
#      x y z
#    x 2.112020 0.000000 0.000000 
#    y 0.000000 2.098410 0.000000 
#    z 0.000000 0.000000 2.133600 
# 
# From -- ./inp_files/9701.got.cif
#   From: 2010.05.17/outbox.cif.g08.bks.cpg/sg60_5_cif.got.tgz:9701.got - 2010.06.03 14:59:27.
