data_PCOD9457686
_publ_section_title
;
Structure prediction by ZEFSAII (Michael W. Deem and Ramdas Pophale) SiO2 
 PCOD9457686
Probable space group: P B C N
;
_chemical_formula_sum "Si O2"
_cell_formula_units_Z 40
_cell_length_a 18.998752
_cell_length_b 5.050381
_cell_length_c 17.692913
_cell_angle_alpha 90.000000
_cell_angle_beta 90.000000
_cell_angle_gamma 90.000000
_cell_volume 1697.651565
_symmetry_space_group_name_H-M "P B C N"
_symmetry_group_IT_number 60
_symmetry_cell_setting 'orthorhombic'
loop_
_space_group_symop_operation_xyz
x,y,z
1/2-x,1/2-y,1/2+z
1/2+x,1/2-y,-z
-x,y,1/2-z
-x,-y,-z
1/2+x,1/2+y,1/2-z
1/2-x,1/2+y,z
x,-y,1/2+z
loop_
_atom_site_type_symbol
_atom_site_label
_atom_site_fract_x
_atom_site_fract_y
_atom_site_fract_z
Si Si1 0.097543 0.134498 0.312285
Si Si2 0.703050 0.871313 0.066287
Si Si3 0.940397 0.737062 0.855802
Si Si4 0.701319 0.753050 0.748439
Si Si5 0.130535 0.760300 0.091237
O O1 0.145303 0.282801 0.372925
O O2 0.094804 0.261429 0.227978
O O3 0.018366 0.152119 0.342736
O O4 0.131052 0.845072 0.295273
O O5 0.768787 0.669158 0.073196
O O6 0.669476 0.822348 0.984261
O O7 0.932117 0.446222 0.889859
O O8 0.898773 0.942669 0.908372
O O9 0.757187 0.520185 0.732435
O O10 0.682279 0.755535 0.836973
#
# Coordination Sequence:
#
# PCOD9457686 Si02
#       5
#     8   8   8   8   8
#     4  10  24  42  65  97 131 166 217 269 323 377
#     4  12  26  43  65  96 131 165 209 270 326 381
#     4  10  24  43  67  93 127 173 218 263 313 390
#     4  11  21  37  62  90 124 167 210 258 318 384
#     4  11  23  42  65  92 127 172 218 261 320 387
#
# _framework density 23.561962999999999
#
# number of rings (size 3 to 8) (size 9 to 14) (size 15 to 20)
#    0.000    1.200    0.000    6.000    0.000   14.400 
#    0.000    0.000    0.000    0.000    0.000    0.000 
#    0.000    0.000    0.000    0.000    0.000    0.000 
#
# Total GULP energy -224111.628512 kJ/mol
# GULP energy per Si atom -5602.790713 kJ/mol
# Density = 2.350833 g / cm^3
# Si number density = 23.561963 Si / 1000 Ang^3
#
#
#
# Elastic Constant Matrix: (Units=GPa)
#
#
# Indices 1 2 3 4 5 6 
#
# 1 95.7608 16.1509 50.1596 0.0000 0.0000 0.0000
# 2 16.1509 107.8042 20.8046 0.0000 0.0000 0.0000
# 3 50.1596 20.8046 103.6513 0.0000 0.0000 0.0000
# 4 0.0000 0.0000 0.0000 26.3152 0.0000 0.0000
# 5 0.0000 0.0000 0.0000 0.0000 38.4450 0.0000
# 6 0.0000 0.0000 0.0000 0.0000 0.0000 25.5306
#
#
#
# Elastic Compliance Matrix: (Units=1/GPa)
#
#
# Indices 1 2 3 4 5 6 
#
# 1 0.014059 -0.000825 -0.006638 0.000000 0.000000 0.000000
# 2 -0.000825 0.009698 -0.001547 0.000000 0.000000 0.000000
# 3 -0.006638 -0.001547 0.013170 0.000000 0.000000 0.000000
# 4 0.000000 0.000000 0.000000 0.038001 0.000000 0.000000
# 5 0.000000 0.000000 0.000000 0.000000 0.026011 0.000000
# 6 0.000000 0.000000 0.000000 0.000000 0.000000 0.039169
#
#
# Mechanical properties :
#
#
# Convention : Reuss Voigt Hill
#
# Bulk Modulus (GPa) = 52.89046 53.49407 53.19226
# Shear Modulus (GPa) = 30.40788 32.73157 31.56973
#
# Velocity S-wave (km/s) = 3.59632 3.73120 3.66438
# Velocity P-wave (km/s) = 6.30403 6.42770 6.36617
#
# Compressibility (1/GPa) = 0.01890700
#
# Stress axis : x y z
#
# Youngs Moduli (GPa) = 71.13018 103.11070 75.92741
#
# Poissons Ratio (x) = 0.08509 0.50399
# Poissons Ratio (y) = 0.05870 0.11748
# Poissons Ratio (z) = 0.47214 0.15954
#
# Static dielectric constant tensor:
#      x y z
#    x 1.884470 0.000000 0.000000 
#    y 0.000000 1.885600 0.000000 
#    z 0.000000 0.000000 1.890230 
# 
# From -- ./inp_files/20751.got.cif
#   From: 2010.05.17/outbox.cif.g08.bks.cpg/sg60_11_cif.got.tgz:20751.got - 2010.06.03 14:59:27.
