data_PCOD9457644
_publ_section_title
;
Structure prediction by ZEFSAII (Michael W. Deem and Ramdas Pophale) SiO2 
 PCOD9457644
Probable space group: P B C N
;
_chemical_formula_sum "Si O2"
_cell_formula_units_Z 48
_cell_length_a 5.341266
_cell_length_b 16.208962
_cell_length_c 23.003700
_cell_angle_alpha 90.000000
_cell_angle_beta 90.000000
_cell_angle_gamma 90.000000
_cell_volume 1991.577018
_symmetry_space_group_name_H-M "P B C N"
_symmetry_group_IT_number 60
_symmetry_cell_setting 'orthorhombic'
loop_
_space_group_symop_operation_xyz
x,y,z
1/2-x,1/2-y,1/2+z
1/2+x,1/2-y,-z
-x,y,1/2-z
-x,-y,-z
1/2+x,1/2+y,1/2-z
1/2-x,1/2+y,z
x,-y,1/2+z
loop_
_atom_site_type_symbol
_atom_site_label
_atom_site_fract_x
_atom_site_fract_y
_atom_site_fract_z
Si Si1 0.071563 0.925550 0.147284
Si Si2 0.184288 0.323144 0.402626
Si Si3 0.683991 0.146256 0.094040
Si Si4 0.692323 0.397466 0.840162
Si Si5 0.364636 0.918640 0.023346
Si Si6 0.315589 0.224498 0.697838
O O1 0.214485 0.927059 0.083991
O O2 0.114442 0.846569 0.188564
O O3 0.790076 0.906940 0.126138
O O4 0.158585 0.008160 0.179319
O O5 0.365471 0.244882 0.407122
O O6 0.074568 0.349940 0.463633
O O7 0.968770 0.287892 0.361683
O O8 0.421750 0.106146 0.113838
O O9 0.912241 0.122150 0.136377
O O10 0.783621 0.115816 0.031626
O O11 0.759950 0.320490 0.798172
O O12 0.500000 0.000000 0.000000
O O13 0.500000 0.205286 0.750000
#
# Coordination Sequence:
#
# PCOD9457644 Si02
#       6
#     8   8   8   8   8   8
#     4  11  23  42  69  98 136 180 232 279 343 416
#     4  10  24  40  65  94 134 180 227 278 337 413
#     4  11  24  42  64 100 139 183 225 271 337 406
#     4  11  24  45  70  99 138 176 229 287 338 413
#     4  11  23  37  63  97 138 182 222 271 332 410
#     4  10  24  49  68  97 132 175 228 296 352 402
#
# _framework density 24.101500999999999
#
# number of rings (size 3 to 8) (size 9 to 14) (size 15 to 20)
#    0.000    1.333    3.333    1.000    7.000    2.000 
#    3.000    0.000    0.000    0.000    0.000    0.000 
#    0.000    0.000    0.000    0.000    0.000    0.000 
#
# Total GULP energy -267680.044553 kJ/mol
# GULP energy per Si atom -5576.667595 kJ/mol
# Density = 2.404664 g / cm^3
# Si number density = 24.101501 Si / 1000 Ang^3
#
#
#
# Elastic Constant Matrix: (Units=GPa)
#
#
# Indices 1 2 3 4 5 6 
#
# 1 58.0705 10.1602 -8.6158 0.0000 0.0000 0.0000
# 2 10.1602 114.5068 2.6939 0.0000 0.0000 0.0000
# 3 -8.6158 2.6939 40.9701 0.0000 0.0000 0.0000
# 4 0.0000 0.0000 0.0000 -8.0269 0.0000 0.0000
# 5 0.0000 0.0000 0.0000 0.0000 24.1472 0.0000
# 6 0.0000 0.0000 0.0000 0.0000 0.0000 0.3926
#
#
#
# Elastic Compliance Matrix: (Units=1/GPa)
#
#
# Indices 1 2 3 4 5 6 
#
# 1 0.018099 -0.001698 0.003918 0.000000 0.000000 0.000000
# 2 -0.001698 0.008906 -0.000943 0.000000 0.000000 0.000000
# 3 0.003918 -0.000943 0.025294 0.000000 0.000000 0.000000
# 4 0.000000 0.000000 0.000000 -0.124582 0.000000 0.000000
# 5 0.000000 0.000000 0.000000 0.000000 0.041413 0.000000
# 6 0.000000 0.000000 0.000000 0.000000 0.000000 2.547255
#
#
# Mechanical properties :
#
#
# Convention : Reuss Voigt Hill
#
# Bulk Modulus (GPa) = 18.23067 24.66933 21.45000
# Shear Modulus (GPa) = 1.97463 17.25654 9.61559
#
# Velocity S-wave (km/s) = 0.90613 2.67871 1.99957
# Velocity P-wave (km/s) = 2.94539 4.45254 3.77495
#
# Compressibility (1/GPa) = 0.05485262
#
# Stress axis : x y z
#
# Youngs Moduli (GPa) = 55.25226 112.28445 39.53524
#
# Poissons Ratio (x) = 0.19067 -0.15489
# Poissons Ratio (y) = 0.09382 0.03727
# Poissons Ratio (z) = -0.21646 0.10585
#
# Static dielectric constant tensor:
#      x y z
#    x 2.040960 0.000000 0.000000 
#    y 0.000000 2.019230 0.000000 
#    z 0.000000 0.000000 1.800800 
# 
# From -- ./inp_files/23610.got.cif
#   From: 2010.05.17/outbox.cif.g08.bks.cpg/sg60_12_cif.got.tgz:23610.got - 2010.06.03 14:59:27.
