data_PCOD9457449
_publ_section_title
;
Structure prediction by ZEFSAII (Michael W. Deem and Ramdas Pophale) SiO2 
 PCOD9457449
Probable space group: P B C N
;
_chemical_formula_sum "Si O2"
_cell_formula_units_Z 40
_cell_length_a 11.469731
_cell_length_b 16.035348
_cell_length_c 8.862401
_cell_angle_alpha 90.000000
_cell_angle_beta 90.000000
_cell_angle_gamma 90.000000
_cell_volume 1629.982789
_symmetry_space_group_name_H-M "P B C N"
_symmetry_group_IT_number 60
_symmetry_cell_setting 'orthorhombic'
loop_
_space_group_symop_operation_xyz
x,y,z
1/2-x,1/2-y,1/2+z
1/2+x,1/2-y,-z
-x,y,1/2-z
-x,-y,-z
1/2+x,1/2+y,1/2-z
1/2-x,1/2+y,z
x,-y,1/2+z
loop_
_atom_site_type_symbol
_atom_site_label
_atom_site_fract_x
_atom_site_fract_y
_atom_site_fract_z
Si Si1 0.103900 0.856788 0.157098
Si Si2 0.166580 0.600298 0.493123
Si Si3 0.741046 0.881759 0.095881
Si Si4 0.512138 0.229493 0.585761
Si Si5 0.699020 0.961221 0.807064
O O1 0.181518 0.823385 0.297288
O O2 0.000000 0.903414 0.250000
O O3 0.196398 0.898792 0.040802
O O4 0.045009 0.788797 0.050979
O O5 0.142250 0.597710 0.316368
O O6 0.121314 0.518083 0.581764
O O7 0.107546 0.681413 0.558599
O O8 0.613441 0.841299 0.091706
O O9 0.749163 0.968239 0.192227
O O10 0.773568 0.906064 0.924745
O O11 0.500000 0.271227 0.750000
#
# Coordination Sequence:
#
# PCOD9457449 Si02
#       5
#     8   8   8   8   8
#     4  11  27  43  64  97 141 185 231 277 339 425
#     4  10  23  44  68 107 131 183 232 281 360 404
#     4  10  23  43  66 105 133 178 234 280 355 409
#     4  12  25  41  67  97 144 182 226 293 346 421
#     4   9  20  42  74  98 140 171 228 302 338 414
#
# _framework density 24.540136
#
# number of rings (size 3 to 8) (size 9 to 14) (size 15 to 20)
#    0.000    1.600    4.000    0.000    5.600    6.400 
#    0.000   16.000    0.000    0.000    0.000    0.000 
#    0.000    0.000    0.000    0.000    0.000    0.000 
#
# Total GULP energy -222791.840103 kJ/mol
# GULP energy per Si atom -5569.796003 kJ/mol
# Density = 2.448428 g / cm^3
# Si number density = 24.540136 Si / 1000 Ang^3
#
#
#
# Elastic Constant Matrix: (Units=GPa)
#
#
# Indices 1 2 3 4 5 6 
#
# 1 86.1588 14.2232 32.1055 0.0000 0.0000 0.0000
# 2 14.2232 41.0347 44.4350 0.0000 0.0000 0.0000
# 3 32.1055 44.4350 230.8731 0.0000 0.0000 0.0000
# 4 0.0000 0.0000 0.0000 48.1591 0.0000 0.0000
# 5 0.0000 0.0000 0.0000 0.0000 28.9612 0.0000
# 6 0.0000 0.0000 0.0000 0.0000 0.0000 11.9126
#
#
#
# Elastic Compliance Matrix: (Units=1/GPa)
#
#
# Indices 1 2 3 4 5 6 
#
# 1 0.012547 -0.003107 -0.001147 0.000000 0.000000 0.000000
# 2 -0.003107 0.031555 -0.005641 0.000000 0.000000 0.000000
# 3 -0.001147 -0.005641 0.005577 0.000000 0.000000 0.000000
# 4 0.000000 0.000000 0.000000 0.020765 0.000000 0.000000
# 5 0.000000 0.000000 0.000000 0.000000 0.034529 0.000000
# 6 0.000000 0.000000 0.000000 0.000000 0.000000 0.083945
#
#
# Mechanical properties :
#
#
# Convention : Reuss Voigt Hill
#
# Bulk Modulus (GPa) = 33.45776 59.95490 46.70633
# Shear Modulus (GPa) = 22.86556 35.62679 29.24617
#
# Velocity S-wave (km/s) = 3.05579 3.81435 3.45595
# Velocity P-wave (km/s) = 5.11018 6.62446 5.91597
#
# Compressibility (1/GPa) = 0.02988843
#
# Stress axis : x y z
#
# Youngs Moduli (GPa) = 79.70216 31.69044 179.32113
#
# Poissons Ratio (x) = 0.09847 0.20564
# Poissons Ratio (y) = 0.24764 1.01159
# Poissons Ratio (z) = 0.09140 0.17877
#
# Static dielectric constant tensor:
#      x y z
#    x 2.062800 0.000000 0.000000 
#    y 0.000000 2.065640 0.000000 
#    z 0.000000 0.000000 2.008740 
# 
# From -- ./inp_files/4731.got.cif
#   From: 2010.05.17/outbox.cif.g08.bks.cpg/sg60_3_cif.got.tgz:4731.got - 2010.06.03 14:59:27.
