data_PCOD9457534
_publ_section_title
;
Structure prediction by ZEFSAII (Michael W. Deem and Ramdas Pophale) SiO2 
 PCOD9457534
Probable space group: P B C N
;
_chemical_formula_sum "Si O2"
_cell_formula_units_Z 36
_cell_length_a 8.570236
_cell_length_b 17.784763
_cell_length_c 9.538317
_cell_angle_alpha 90.000000
_cell_angle_beta 90.000000
_cell_angle_gamma 90.000000
_cell_volume 1453.826616
_symmetry_space_group_name_H-M "P B C N"
_symmetry_group_IT_number 60
_symmetry_cell_setting 'orthorhombic'
loop_
_space_group_symop_operation_xyz
x,y,z
1/2-x,1/2-y,1/2+z
1/2+x,1/2-y,-z
-x,y,1/2-z
-x,-y,-z
1/2+x,1/2+y,1/2-z
1/2-x,1/2+y,z
x,-y,1/2+z
loop_
_atom_site_type_symbol
_atom_site_label
_atom_site_fract_x
_atom_site_fract_y
_atom_site_fract_z
Si Si1 0.361997 0.797661 0.927311
Si Si2 0.094713 0.433844 0.608039
Si Si3 0.194418 0.059518 0.510338
Si Si4 0.000000 0.006869 0.750000
Si Si5 0.165253 0.184619 0.172693
O O1 0.508203 0.856012 0.939816
O O2 0.230281 0.854730 0.980747
O O3 0.300417 0.778420 0.771584
O O4 0.364163 0.727444 0.028164
O O5 0.150809 0.505782 0.516658
O O6 0.265280 0.398324 0.646697
O O7 0.000000 0.455191 0.750000
O O8 0.124685 0.055549 0.664912
O O9 0.087610 0.032084 0.381941
O O10 0.000000 0.185460 0.250000
#
# Coordination Sequence:
#
# PCOD9457534 Si02
#       5
#     8   8   8   4   8
#     4  11  25  45  69 103 136 185 227 285 345 411
#     4  10  23  44  72 101 139 182 232 292 351 407
#     4  11  24  44  71 103 139 180 234 294 348 424
#     4  10  24  40  66 112 134 178 224 288 370 394
#     4  11  25  44  69  97 141 182 226 282 341 414
#
# _framework density 24.762236000000001
#
# number of rings (size 3 to 8) (size 9 to 14) (size 15 to 20)
#    0.000    1.333    0.000    4.667    9.333    4.444 
#    6.000    0.000    0.000    0.000    0.000    0.000 
#    0.000    0.000    0.000    0.000    0.000    0.000 
#
# Total GULP energy -201043.494298 kJ/mol
# GULP energy per Si atom -5584.541508 kJ/mol
# Density = 2.470588 g / cm^3
# Si number density = 24.762236 Si / 1000 Ang^3
#
#
#
# Elastic Constant Matrix: (Units=GPa)
#
#
# Indices 1 2 3 4 5 6 
#
# 1 81.7178 0.7075 4.3853 0.0000 0.0000 0.0000
# 2 0.7075 44.6216 27.8209 0.0000 0.0000 0.0000
# 3 4.3853 27.8209 106.8967 0.0000 0.0000 0.0000
# 4 0.0000 0.0000 0.0000 29.6887 0.0000 0.0000
# 5 0.0000 0.0000 0.0000 0.0000 41.6510 0.0000
# 6 0.0000 0.0000 0.0000 0.0000 0.0000 11.1168
#
#
#
# Elastic Compliance Matrix: (Units=1/GPa)
#
#
# Indices 1 2 3 4 5 6 
#
# 1 0.012265 0.000142 -0.000540 0.000000 0.000000 0.000000
# 2 0.000142 0.026753 -0.006969 0.000000 0.000000 0.000000
# 3 -0.000540 -0.006969 0.011191 0.000000 0.000000 0.000000
# 4 0.000000 0.000000 0.000000 0.033683 0.000000 0.000000
# 5 0.000000 0.000000 0.000000 0.000000 0.024009 0.000000
# 6 0.000000 0.000000 0.000000 0.000000 0.000000 0.089954
#
#
# Mechanical properties :
#
#
# Convention : Reuss Voigt Hill
#
# Bulk Modulus (GPa) = 28.18816 33.22929 30.70873
# Shear Modulus (GPa) = 22.28036 29.84612 26.06324
#
# Velocity S-wave (km/s) = 3.00287 3.47552 3.24781
# Velocity P-wave (km/s) = 4.84058 5.43637 5.14710
#
# Compressibility (1/GPa) = 0.03547589
#
# Stress axis : x y z
#
# Youngs Moduli (GPa) = 81.53285 37.37857 89.36028
#
# Poissons Ratio (x) = -0.00532 0.04827
# Poissons Ratio (y) = -0.01160 0.62272
# Poissons Ratio (z) = 0.04404 0.26048
#
# Static dielectric constant tensor:
#      x y z
#    x 2.222210 0.000000 0.000000 
#    y 0.000000 1.909340 0.000000 
#    z 0.000000 0.000000 1.972260 
# 
# From -- ./inp_files/3672.got.cif
#   From: 2010.05.17/outbox.cif.g08.bks.cpg/sg60_2_cif.got.tgz:3672.got - 2010.06.03 14:59:27.
