data_PCOD9457536
_publ_section_title
;
Structure prediction by ZEFSAII (Michael W. Deem and Ramdas Pophale) SiO2 
 PCOD9457536
Probable space group: P B C N
;
_chemical_formula_sum "Si O2"
_cell_formula_units_Z 56
_cell_length_a 7.766778
_cell_length_b 16.222624
_cell_length_c 19.111111
_cell_angle_alpha 90.000000
_cell_angle_beta 90.000000
_cell_angle_gamma 90.000000
_cell_volume 2407.952575
_symmetry_space_group_name_H-M "P B C N"
_symmetry_group_IT_number 60
_symmetry_cell_setting 'orthorhombic'
loop_
_space_group_symop_operation_xyz
x,y,z
1/2-x,1/2-y,1/2+z
1/2+x,1/2-y,-z
-x,y,1/2-z
-x,-y,-z
1/2+x,1/2+y,1/2-z
1/2-x,1/2+y,z
x,-y,1/2+z
loop_
_atom_site_type_symbol
_atom_site_label
_atom_site_fract_x
_atom_site_fract_y
_atom_site_fract_z
Si Si1 0.458656 0.673721 0.122934
Si Si2 0.722540 0.904925 0.082803
Si Si3 0.347141 0.463500 0.802684
Si Si4 0.655997 0.161697 0.875394
Si Si5 0.109030 0.510772 0.692429
Si Si6 0.523899 0.719656 0.963779
Si Si7 0.380292 0.905038 0.568221
O O1 0.601248 0.621168 0.160765
O O2 0.379550 0.752058 0.163059
O O3 0.301118 0.613614 0.105527
O O4 0.518167 0.706462 0.047008
O O5 0.537675 0.868992 0.106533
O O6 0.862905 0.832295 0.067198
O O7 0.803838 0.967088 0.139484
O O8 0.674274 0.943254 0.006441
O O9 0.500000 0.488508 0.750000
O O10 0.193199 0.449368 0.748007
O O11 0.794440 0.184805 0.934912
O O12 0.732124 0.081452 0.837931
O O13 0.032039 0.463181 0.625643
O O14 0.000000 0.561612 0.750000
O O15 0.526889 0.817341 0.945490
#
# Coordination Sequence:
#
# PCOD9457536 Si02
#       7
#     8   8   8   8   8   8   8
#     4  10  23  44  73 101 142 187 239 298 374 430
#     4  11  24  44  74 104 138 191 237 300 372 428
#     4  12  25  46  68 102 141 195 243 295 364 450
#     4  11  24  45  69 104 144 185 235 304 355 440
#     4  12  26  45  64 104 148 184 245 297 368 443
#     4  10  23  44  73 108 138 181 245 306 359 443
#     4  10  23  45  71 107 141 185 244 304 368 436
#
# _framework density 23.256271000000002
#
# number of rings (size 3 to 8) (size 9 to 14) (size 15 to 20)
#    0.000    1.143    4.286    0.857    2.000    4.571 
#    0.000    3.571    0.000    0.000    0.000    0.000 
#    0.000    0.000    0.000    0.000    0.000    0.000 
#
# Total GULP energy -312277.504640 kJ/mol
# GULP energy per Si atom -5576.384011 kJ/mol
# Density = 2.320334 g / cm^3
# Si number density = 23.256271 Si / 1000 Ang^3
#
#
#
# Elastic Constant Matrix: (Units=GPa)
#
#
# Indices 1 2 3 4 5 6 
#
# 1 93.1299 32.7083 28.7327 0.0000 0.0000 0.0000
# 2 32.7083 109.5778 74.6454 0.0000 0.0000 0.0000
# 3 28.7327 74.6454 146.8697 0.0000 0.0000 0.0000
# 4 0.0000 0.0000 0.0000 12.8274 0.0000 0.0000
# 5 0.0000 0.0000 0.0000 0.0000 42.6823 0.0000
# 6 0.0000 0.0000 0.0000 0.0000 0.0000 39.0743
#
#
#
# Elastic Compliance Matrix: (Units=1/GPa)
#
#
# Indices 1 2 3 4 5 6 
#
# 1 0.012058 -0.003047 -0.000810 0.000000 0.000000 0.000000
# 2 -0.003047 0.014729 -0.006890 0.000000 0.000000 0.000000
# 3 -0.000810 -0.006890 0.010469 0.000000 0.000000 0.000000
# 4 0.000000 0.000000 0.000000 0.077958 0.000000 0.000000
# 5 0.000000 0.000000 0.000000 0.000000 0.023429 0.000000
# 6 0.000000 0.000000 0.000000 0.000000 0.000000 0.025592
#
#
# Mechanical properties :
#
#
# Convention : Reuss Voigt Hill
#
# Bulk Modulus (GPa) = 63.44642 69.08334 66.26488
# Shear Modulus (GPa) = 26.18032 33.14953 29.66492
#
# Velocity S-wave (km/s) = 3.35883 3.77955 3.57538
# Velocity P-wave (km/s) = 6.51022 6.98687 6.75275
#
# Compressibility (1/GPa) = 0.01576133
#
# Stress axis : x y z
#
# Youngs Moduli (GPa) = 82.93326 67.89394 95.52131
#
# Poissons Ratio (x) = 0.20689 0.07739
# Poissons Ratio (y) = 0.25272 0.65811
# Poissons Ratio (z) = 0.06719 0.46777
#
# Static dielectric constant tensor:
#      x y z
#    x 2.026850 0.000000 0.000000 
#    y 0.000000 1.920240 0.000000 
#    z 0.000000 0.000000 1.900390 
# 
# From -- ./inp_files/22195.got.cif
#   From: 2010.05.17/outbox.cif.g08.bks.cpg/sg60_12_cif.got.tgz:22195.got - 2010.06.03 14:59:27.
