data_PCOD9457633
_publ_section_title
;
Structure prediction by ZEFSAII (Michael W. Deem and Ramdas Pophale) SiO2 
 PCOD9457633
Probable space group: P B C N
;
_chemical_formula_sum "Si O2"
_cell_formula_units_Z 32
_cell_length_a 9.596994
_cell_length_b 10.025347
_cell_length_c 13.733361
_cell_angle_alpha 90.000000
_cell_angle_beta 90.000000
_cell_angle_gamma 90.000000
_cell_volume 1321.330540
_symmetry_space_group_name_H-M "P B C N"
_symmetry_group_IT_number 60
_symmetry_cell_setting 'orthorhombic'
loop_
_space_group_symop_operation_xyz
x,y,z
1/2-x,1/2-y,1/2+z
1/2+x,1/2-y,-z
-x,y,1/2-z
-x,-y,-z
1/2+x,1/2+y,1/2-z
1/2-x,1/2+y,z
x,-y,1/2+z
loop_
_atom_site_type_symbol
_atom_site_label
_atom_site_fract_x
_atom_site_fract_y
_atom_site_fract_z
Si Si1 0.847802 0.399845 0.304516
Si Si2 0.251865 0.048912 0.896693
Si Si3 0.174495 0.186622 0.515568
Si Si4 0.007164 0.348281 0.640256
O O1 0.737436 0.413387 0.216880
O O2 0.787266 0.319032 0.395447
O O3 0.867528 0.545531 0.352099
O O4 0.000000 0.366221 0.250000
O O5 0.382996 0.944491 0.892317
O O6 0.153812 0.950134 0.956775
O O7 0.289124 0.187355 0.947783
O O8 0.032185 0.229740 0.567840
O O9 0.000000 0.299266 0.750000
#
# Coordination Sequence:
#
# PCOD9457633 Si02
#       4
#     8   8   8   8
#     4   9  22  41  64  94 126 167 210 259 312 381
#     4  10  24  38  67  93 125 166 213 255 318 379
#     4  12  21  39  68  95 121 172 212 256 315 381
#     4   9  21  43  63  89 127 174 207 248 321 394
#
# _framework density 24.218014
#
# number of rings (size 3 to 8) (size 9 to 14) (size 15 to 20)
#    0.000    2.500    2.500    0.750   10.500    0.000 
#    0.000    2.500    0.000    0.000    0.000    0.000 
#    0.000    0.000    0.000    0.000    0.000    0.000 
#
# Total GULP energy -178393.261607 kJ/mol
# GULP energy per Si atom -5574.789425 kJ/mol
# Density = 2.416289 g / cm^3
# Si number density = 24.218014 Si / 1000 Ang^3
#
#
#
# Elastic Constant Matrix: (Units=GPa)
#
#
# Indices 1 2 3 4 5 6 
#
# 1 39.1541 24.3390 23.9102 0.0000 0.0000 0.0000
# 2 24.3390 123.9951 58.5106 0.0000 0.0000 0.0000
# 3 23.9102 58.5106 125.8221 0.0000 0.0000 0.0000
# 4 0.0000 0.0000 0.0000 19.5276 0.0000 0.0000
# 5 0.0000 0.0000 0.0000 0.0000 37.3883 0.0000
# 6 0.0000 0.0000 0.0000 0.0000 0.0000 39.0147
#
#
#
# Elastic Compliance Matrix: (Units=1/GPa)
#
#
# Indices 1 2 3 4 5 6 
#
# 1 0.030484 -0.004164 -0.003857 0.000000 0.000000 0.000000
# 2 -0.004164 0.010901 -0.004278 0.000000 0.000000 0.000000
# 3 -0.003857 -0.004278 0.010670 0.000000 0.000000 0.000000
# 4 0.000000 0.000000 0.000000 0.051209 0.000000 0.000000
# 5 0.000000 0.000000 0.000000 0.000000 0.026746 0.000000
# 6 0.000000 0.000000 0.000000 0.000000 0.000000 0.025631
#
#
# Mechanical properties :
#
#
# Convention : Reuss Voigt Hill
#
# Bulk Modulus (GPa) = 36.41960 55.83231 46.12596
# Shear Modulus (GPa) = 26.40048 31.33356 28.86702
#
# Velocity S-wave (km/s) = 3.30527 3.60086 3.45623
# Velocity P-wave (km/s) = 5.44402 6.35550 5.91733
#
# Compressibility (1/GPa) = 0.02745774
#
# Stress axis : x y z
#
# Youngs Moduli (GPa) = 32.80461 91.73644 93.72125
#
# Poissons Ratio (x) = 0.38197 0.36144
# Poissons Ratio (y) = 0.13659 0.40093
# Poissons Ratio (z) = 0.12651 0.39244
#
# Static dielectric constant tensor:
#      x y z
#    x 2.144430 0.000000 0.000000 
#    y 0.000000 1.886380 0.000000 
#    z 0.000000 0.000000 1.768590 
# 
# From -- ./inp_files/15616.got.cif
#   From: 2010.05.17/outbox.cif.g08.bks.cpg/sg60_8_cif.got.tgz:15616.got - 2010.06.03 14:59:27.
