data_PCOD9457612
_publ_section_title
;
Structure prediction by ZEFSAII (Michael W. Deem and Ramdas Pophale) SiO2 
 PCOD9457612
Probable space group: P B C N
;
_chemical_formula_sum "Si O2"
_cell_formula_units_Z 32
_cell_length_a 9.543152
_cell_length_b 10.004600
_cell_length_c 12.651065
_cell_angle_alpha 90.000000
_cell_angle_beta 90.000000
_cell_angle_gamma 90.000000
_cell_volume 1207.865725
_symmetry_space_group_name_H-M "P B C N"
_symmetry_group_IT_number 60
_symmetry_cell_setting 'orthorhombic'
loop_
_space_group_symop_operation_xyz
x,y,z
1/2-x,1/2-y,1/2+z
1/2+x,1/2-y,-z
-x,y,1/2-z
-x,-y,-z
1/2+x,1/2+y,1/2-z
1/2-x,1/2+y,z
x,-y,1/2+z
loop_
_atom_site_type_symbol
_atom_site_label
_atom_site_fract_x
_atom_site_fract_y
_atom_site_fract_z
Si Si1 0.335274 0.536132 0.366761
Si Si2 0.682289 0.804432 0.266467
Si Si3 0.895313 0.618397 0.973232
Si Si4 0.459993 0.315300 0.131177
O O1 0.338471 0.671057 0.298863
O O2 0.248063 0.422949 0.302963
O O3 0.252223 0.568525 0.474248
O O4 0.488982 0.469294 0.375717
O O5 0.569393 0.856235 0.349378
O O6 0.797455 0.778002 0.362010
O O7 0.950733 0.742475 0.042370
O O8 0.000000 0.500000 0.000000
O O9 0.500000 0.267947 0.250000
#
# Coordination Sequence:
#
# PCOD9457612 Si02
#       4
#     8   8   8   8
#     4  11  24  49  73 108 155 198 250 324 385 458
#     4  11  26  47  76 107 150 201 256 320 391 460
#     4  12  27  45  79 111 151 202 259 317 395 469
#     4  10  23  48  70 105 155 195 249 317 376 459
#
# _framework density 26.493013000000001
#
# number of rings (size 3 to 8) (size 9 to 14) (size 15 to 20)
#    0.000    1.000    5.000    1.500    7.000    1.000 
#   22.500    0.000    0.000    0.000    0.000    0.000 
#    0.000    0.000    0.000    0.000    0.000    0.000 
#
# Total GULP energy -178982.057089 kJ/mol
# GULP energy per Si atom -5593.189284 kJ/mol
# Density = 2.643271 g / cm^3
# Si number density = 26.493013 Si / 1000 Ang^3
#
#
#
# Elastic Constant Matrix: (Units=GPa)
#
#
# Indices 1 2 3 4 5 6 
#
# 1 31.7669 30.9587 -9.5010 0.0000 0.0000 0.0000
# 2 30.9587 165.7923 49.9736 0.0000 0.0000 0.0000
# 3 -9.5010 49.9736 158.5755 0.0000 0.0000 0.0000
# 4 0.0000 0.0000 0.0000 37.7539 0.0000 0.0000
# 5 0.0000 0.0000 0.0000 0.0000 35.2754 0.0000
# 6 0.0000 0.0000 0.0000 0.0000 0.0000 -45.2460
#
#
#
# Elastic Compliance Matrix: (Units=1/GPa)
#
#
# Indices 1 2 3 4 5 6 
#
# 1 0.042527 -0.009623 0.005581 0.000000 0.000000 0.000000
# 2 -0.009623 0.008842 -0.003363 0.000000 0.000000 0.000000
# 3 0.005581 -0.003363 0.007700 0.000000 0.000000 0.000000
# 4 0.000000 0.000000 0.000000 0.026487 0.000000 0.000000
# 5 0.000000 0.000000 0.000000 0.000000 0.028348 0.000000
# 6 0.000000 0.000000 0.000000 0.000000 0.000000 -0.022101
#
#
# Mechanical properties :
#
#
# Convention : Reuss Voigt Hill
#
# Bulk Modulus (GPa) = 22.59480 55.44415 39.01948
# Shear Modulus (GPa) = 41.19708 24.53689 32.86699
#
# Velocity S-wave (km/s) = 3.94765 3.04660 3.52602
# Velocity P-wave (km/s) = 5.41532 5.77485 5.59797
#
# Compressibility (1/GPa) = 0.04425797
#
# Stress axis : x y z
#
# Youngs Moduli (GPa) = 23.51463 113.09239 129.86393
#
# Poissons Ratio (x) = 1.08831 -0.72472
# Poissons Ratio (y) = 0.22629 0.43675
# Poissons Ratio (z) = -0.13123 0.38035
#
# Static dielectric constant tensor:
#      x y z
#    x 3.008680 0.000000 0.000000 
#    y 0.000000 2.683390 0.000000 
#    z 0.000000 0.000000 1.469060 
# 
# From -- ./inp_files/15602.got.cif
#   From: 2010.05.17/outbox.cif.g08.bks.cpg/sg60_8_cif.got.tgz:15602.got - 2010.06.03 14:59:27.
