data_PCOD9457714
_publ_section_title
;
Structure prediction by ZEFSAII (Michael W. Deem and Ramdas Pophale) SiO2 
 PCOD9457714
Probable space group: P B C N
;
_chemical_formula_sum "Si O2"
_cell_formula_units_Z 40
_cell_length_a 6.949016
_cell_length_b 13.874442
_cell_length_c 14.208476
_cell_angle_alpha 90.000000
_cell_angle_beta 90.000000
_cell_angle_gamma 90.000000
_cell_volume 1369.892019
_symmetry_space_group_name_H-M "P B C N"
_symmetry_group_IT_number 60
_symmetry_cell_setting 'orthorhombic'
loop_
_space_group_symop_operation_xyz
x,y,z
1/2-x,1/2-y,1/2+z
1/2+x,1/2-y,-z
-x,y,1/2-z
-x,-y,-z
1/2+x,1/2+y,1/2-z
1/2-x,1/2+y,z
x,-y,1/2+z
loop_
_atom_site_type_symbol
_atom_site_label
_atom_site_fract_x
_atom_site_fract_y
_atom_site_fract_z
Si Si1 0.235201 0.734435 0.496594
Si Si2 0.379647 0.360926 0.675495
Si Si3 0.791340 0.048295 0.924706
Si Si4 0.869167 0.379588 0.680698
Si Si5 0.865145 0.576055 0.599596
O O1 0.150152 0.787683 0.588508
O O2 0.377797 0.649786 0.539728
O O3 0.114717 0.665685 0.425288
O O4 0.295558 0.817603 0.423136
O O5 0.401045 0.472515 0.639725
O O6 0.371714 0.343559 0.795187
O O7 0.120256 0.365283 0.700235
O O8 0.592128 0.085019 0.882624
O O9 0.717190 0.980600 0.008875
O O10 0.823457 0.494371 0.675710
#
# Coordination Sequence:
#
# PCOD9457714 Si02
#       5
#     8   8   8   8   8
#     4  10  24  42  73 111 139 189 249 308 358 435
#     4  11  25  44  66 109 153 188 242 310 370 424
#     4   9  19  42  68  94 139 189 234 296 364 432
#     4  11  23  44  72 106 147 197 248 293 363 449
#     4   9  19  41  69  95 135 188 240 291 359 434
#
# _framework density 29.199382
#
# number of rings (size 3 to 8) (size 9 to 14) (size 15 to 20)
#    0.000    2.000    2.000    0.000    5.600    1.600 
#    3.600    5.000    0.000    0.000    0.000    0.000 
#    0.000    0.000    0.000    0.000    0.000    0.000 
#
# Total GULP energy -222687.857700 kJ/mol
# GULP energy per Si atom -5567.196443 kJ/mol
# Density = 2.913292 g / cm^3
# Si number density = 29.199382 Si / 1000 Ang^3
#
#
#
# Elastic Constant Matrix: (Units=GPa)
#
#
# Indices 1 2 3 4 5 6 
#
# 1 193.4739 49.4943 83.4545 0.0000 0.0000 0.0000
# 2 49.4943 272.5357 114.2309 0.0000 0.0000 0.0000
# 3 83.4545 114.2309 193.1277 0.0000 0.0000 0.0000
# 4 0.0000 0.0000 0.0000 50.8039 0.0000 0.0000
# 5 0.0000 0.0000 0.0000 0.0000 68.2922 0.0000
# 6 0.0000 0.0000 0.0000 0.0000 0.0000 43.2563
#
#
#
# Elastic Compliance Matrix: (Units=1/GPa)
#
#
# Indices 1 2 3 4 5 6 
#
# 1 0.006353 -0.000004 -0.002743 0.000000 0.000000 0.000000
# 2 -0.000004 0.004879 -0.002884 0.000000 0.000000 0.000000
# 3 -0.002743 -0.002884 0.008069 0.000000 0.000000 0.000000
# 4 0.000000 0.000000 0.000000 0.019684 0.000000 0.000000
# 5 0.000000 0.000000 0.000000 0.000000 0.014643 0.000000
# 6 0.000000 0.000000 0.000000 0.000000 0.000000 0.023118
#
#
# Mechanical properties :
#
#
# Convention : Reuss Voigt Hill
#
# Bulk Modulus (GPa) = 124.39494 128.16631 126.28062
# Shear Modulus (GPa) = 55.13527 59.93432 57.53480
#
# Velocity S-wave (km/s) = 4.35010 4.53547 4.44375
# Velocity P-wave (km/s) = 8.24169 8.45080 8.34690
#
# Compressibility (1/GPa) = 0.00803891
#
# Stress axis : x y z
#
# Youngs Moduli (GPa) = 157.41139 204.97055 123.93297
#
# Poissons Ratio (x) = 0.00084 0.33992
# Poissons Ratio (y) = 0.00065 0.35741
# Poissons Ratio (z) = 0.43174 0.59111
#
# Static dielectric constant tensor:
#      x y z
#    x 3.273380 0.000000 0.000000 
#    y 0.000000 2.126420 0.000000 
#    z 0.000000 0.000000 2.191520 
# 
# From -- ./inp_files/16660.got.cif
#   From: 2010.05.17/outbox.cif.g08.bks.cpg/sg60_9_cif.got.tgz:16660.got - 2010.06.03 14:59:27.
