data_PCOD9457732
_publ_section_title
;
Structure prediction by ZEFSAII (Michael W. Deem and Ramdas Pophale) SiO2 
 PCOD9457732
Probable space group: P B C N
;
_chemical_formula_sum "Si O2"
_cell_formula_units_Z 52
_cell_length_a 8.568289
_cell_length_b 17.244002
_cell_length_c 16.204038
_cell_angle_alpha 90.000000
_cell_angle_beta 90.000000
_cell_angle_gamma 90.000000
_cell_volume 2394.172422
_symmetry_space_group_name_H-M "P B C N"
_symmetry_group_IT_number 60
_symmetry_cell_setting 'orthorhombic'
loop_
_space_group_symop_operation_xyz
x,y,z
1/2-x,1/2-y,1/2+z
1/2+x,1/2-y,-z
-x,y,1/2-z
-x,-y,-z
1/2+x,1/2+y,1/2-z
1/2-x,1/2+y,z
x,-y,1/2+z
loop_
_atom_site_type_symbol
_atom_site_label
_atom_site_fract_x
_atom_site_fract_y
_atom_site_fract_z
Si Si1 0.420811 0.784164 0.899878
Si Si2 0.376131 0.512994 0.072791
Si Si3 0.725174 0.676032 0.726910
Si Si4 0.000000 0.963066 0.250000
Si Si5 0.602750 0.922722 0.499554
Si Si6 0.276948 0.686420 0.050206
Si Si7 0.048406 0.303396 0.134589
O O1 0.375637 0.745909 0.812381
O O2 0.607298 0.785307 0.917615
O O3 0.369167 0.874138 0.916118
O O4 0.325877 0.728702 0.964589
O O5 0.437975 0.507304 0.167567
O O6 0.255033 0.445482 0.051057
O O7 0.289824 0.594318 0.053937
O O8 0.500000 0.500000 0.000000
O O9 0.632888 0.596019 0.715973
O O10 0.789491 0.676349 0.819863
O O11 0.892090 0.683517 0.683580
O O12 0.523999 0.856801 0.444439
O O13 0.500000 0.000000 0.500000
O O14 0.418412 0.715736 0.108854
#
# Coordination Sequence:
#
# PCOD9457732 Si02
#       7
#     8   8   8   4   8   8   8
#     4  11  23  40  72  99 139 190 244 296 360 445
#     4  12  28  45  72 105 148 191 243 306 370 440
#     4  11  23  43  69 100 133 191 232 297 370 432
#     4  12  26  48  74 106 152 188 246 304 378 436
#     4  11  23  45  68 105 139 189 241 303 366 434
#     4  11  24  43  64 104 135 184 245 292 361 433
#     4  10  24  43  70  96 141 179 241 297 355 442
#
# _framework density 21.719404000000001
#
# number of rings (size 3 to 8) (size 9 to 14) (size 15 to 20)
#    0.000    0.923    3.077    3.692   10.769    1.231 
#    0.000    0.000    3.385    0.000    0.000    0.000 
#    0.000    0.000    0.000    0.000    0.000    0.000 
#
# Total GULP energy -289657.807807 kJ/mol
# GULP energy per Si atom -5570.342458 kJ/mol
# Density = 2.166997 g / cm^3
# Si number density = 21.719404 Si / 1000 Ang^3
#
#
#
# Elastic Constant Matrix: (Units=GPa)
#
#
# Indices 1 2 3 4 5 6 
#
# 1 120.9715 42.1877 51.7333 0.0000 0.0000 0.0000
# 2 42.1877 117.3027 40.0770 0.0000 0.0000 0.0000
# 3 51.7333 40.0770 85.2702 0.0000 0.0000 0.0000
# 4 0.0000 0.0000 0.0000 34.8826 0.0000 0.0000
# 5 0.0000 0.0000 0.0000 0.0000 43.7335 0.0000
# 6 0.0000 0.0000 0.0000 0.0000 0.0000 -8.3512
#
#
#
# Elastic Compliance Matrix: (Units=1/GPa)
#
#
# Indices 1 2 3 4 5 6 
#
# 1 0.011582 -0.002102 -0.006039 0.000000 0.000000 0.000000
# 2 -0.002102 0.010537 -0.003677 0.000000 0.000000 0.000000
# 3 -0.006039 -0.003677 0.017119 0.000000 0.000000 0.000000
# 4 0.000000 0.000000 0.000000 0.028668 0.000000 0.000000
# 5 0.000000 0.000000 0.000000 0.000000 0.022866 0.000000
# 6 0.000000 0.000000 0.000000 0.000000 0.000000 -0.119744
#
#
# Mechanical properties :
#
#
# Convention : Reuss Voigt Hill
#
# Bulk Modulus (GPa) = 64.09230 65.72669 64.90950
# Shear Modulus (GPa) = -37149.55638 26.68942 -18561.43348
#
# Velocity S-wave (km/s) = -130.92536 3.50927 -92.54495
# Velocity P-wave (km/s) = 151.08174 6.83721 106.72147
#
# Compressibility (1/GPa) = 0.01560250
#
# Stress axis : x y z
#
# Youngs Moduli (GPa) = 86.34069 94.90071 58.41342
#
# Poissons Ratio (x) = 0.19951 0.35274
# Poissons Ratio (y) = 0.18151 0.21479
# Poissons Ratio (z) = 0.52139 0.34896
#
# Static dielectric constant tensor:
#      x y z
#    x 1.788710 0.000000 0.000000 
#    y 0.000000 1.937490 0.000000 
#    z 0.000000 0.000000 1.955160 
# 
# From -- ./inp_files/19538.got.cif
#   From: 2010.05.17/outbox.cif.g08.bks.cpg/sg60_10_cif.got.tgz:19538.got - 2010.06.03 14:59:27.
