data_PCOD9457745
_publ_section_title
;
Structure prediction by ZEFSAII (Michael W. Deem and Ramdas Pophale) SiO2 
 PCOD9457745
Probable space group: P B C N
;
_chemical_formula_sum "Si O2"
_cell_formula_units_Z 28
_cell_length_a 4.925953
_cell_length_b 29.246942
_cell_length_c 8.547188
_cell_angle_alpha 90.000000
_cell_angle_beta 90.000000
_cell_angle_gamma 90.000000
_cell_volume 1231.385355
_symmetry_space_group_name_H-M "P B C N"
_symmetry_group_IT_number 60
_symmetry_cell_setting 'orthorhombic'
loop_
_space_group_symop_operation_xyz
x,y,z
1/2-x,1/2-y,1/2+z
1/2+x,1/2-y,-z
-x,y,1/2-z
-x,-y,-z
1/2+x,1/2+y,1/2-z
1/2-x,1/2+y,z
x,-y,1/2+z
loop_
_atom_site_type_symbol
_atom_site_label
_atom_site_fract_x
_atom_site_fract_y
_atom_site_fract_z
Si Si1 0.807759 0.067013 0.529541
Si Si2 0.500000 0.496188 0.750000
Si Si3 0.163274 0.627038 0.583531
Si Si4 0.559904 0.224084 0.065136
O O1 0.533010 0.092818 0.491092
O O2 0.786086 0.031134 0.671999
O O3 0.040796 0.103914 0.575317
O O4 0.891707 0.036239 0.384369
O O5 0.000000 0.630589 0.750000
O O6 0.166358 0.676268 0.503121
O O7 0.500000 0.221747 0.250000
O O8 0.787787 0.261676 0.026319
#
# Coordination Sequence:
#
# PCOD9457745 Si02
#       4
#     8   4   8   8
#     4  11  25  41  67  96 137 178 228 277 339 392
#     4  10  24  44  64  96 134 182 228 280 332 404
#     4  12  24  44  68 100 137 176 225 279 341 404
#     4  12  27  48  76 106 141 183 230 287 352 423
#
# _framework density 22.738617999999999
#
# number of rings (size 3 to 8) (size 9 to 14) (size 15 to 20)
#    0.000    0.571    2.857    4.286    4.000    6.857 
#    0.000    0.000    0.000    0.000    0.000    0.000 
#    0.000    0.000    0.000    0.000    0.000    0.000 
#
# Total GULP energy -156732.049725 kJ/mol
# GULP energy per Si atom -5597.573204 kJ/mol
# Density = 2.268686 g / cm^3
# Si number density = 22.738618 Si / 1000 Ang^3
#
#
#
# Elastic Constant Matrix: (Units=GPa)
#
#
# Indices 1 2 3 4 5 6 
#
# 1 106.4875 17.3775 14.2075 0.0000 0.0000 0.0000
# 2 17.3775 106.9099 52.8985 0.0000 0.0000 0.0000
# 3 14.2075 52.8985 106.9677 0.0000 0.0000 0.0000
# 4 0.0000 0.0000 0.0000 36.4940 0.0000 0.0000
# 5 0.0000 0.0000 0.0000 0.0000 18.2633 0.0000
# 6 0.0000 0.0000 0.0000 0.0000 0.0000 72.6747
#
#
#
# Elastic Compliance Matrix: (Units=1/GPa)
#
#
# Indices 1 2 3 4 5 6 
#
# 1 0.009683 -0.001241 -0.000672 0.000000 0.000000 0.000000
# 2 -0.001241 0.012543 -0.006038 0.000000 0.000000 0.000000
# 3 -0.000672 -0.006038 0.012424 0.000000 0.000000 0.000000
# 4 0.000000 0.000000 0.000000 0.027402 0.000000 0.000000
# 5 0.000000 0.000000 0.000000 0.000000 0.054755 0.000000
# 6 0.000000 0.000000 0.000000 0.000000 0.000000 0.013760
#
#
# Mechanical properties :
#
#
# Convention : Reuss Voigt Hill
#
# Bulk Modulus (GPa) = 53.34236 54.37023 53.85630
# Shear Modulus (GPa) = 32.74001 41.21183 36.97592
#
# Velocity S-wave (km/s) = 3.79864 4.26187 4.03690
# Velocity P-wave (km/s) = 6.53830 6.94124 6.74279
#
# Compressibility (1/GPa) = 0.01874683
#
# Stress axis : x y z
#
# Youngs Moduli (GPa) = 103.27342 79.72569 80.49026
#
# Poissons Ratio (x) = 0.09896 0.05411
# Poissons Ratio (y) = 0.12819 0.48600
# Poissons Ratio (z) = 0.06943 0.48138
#
# Static dielectric constant tensor:
#      x y z
#    x 1.829960 0.000000 0.000000 
#    y 0.000000 1.798240 0.000000 
#    z 0.000000 0.000000 1.872190 
# 
# From -- ./inp_files/2956.got.cif
#   From: 2010.05.17/outbox.cif.g08.bks.cpg/sg60_2_cif.got.tgz:2956.got - 2010.06.03 14:59:27.
