data_PCOD9457828
_publ_section_title
;
Structure prediction by ZEFSAII (Michael W. Deem and Ramdas Pophale) SiO2 
 PCOD9457828
Probable space group: P B C N
;
_chemical_formula_sum "Si O2"
_cell_formula_units_Z 60
_cell_length_a 6.459279
_cell_length_b 23.975986
_cell_length_c 18.124371
_cell_angle_alpha 90.000000
_cell_angle_beta 90.000000
_cell_angle_gamma 90.000000
_cell_volume 2806.877528
_symmetry_space_group_name_H-M "P B C N"
_symmetry_group_IT_number 60
_symmetry_cell_setting 'orthorhombic'
loop_
_space_group_symop_operation_xyz
x,y,z
1/2-x,1/2-y,1/2+z
1/2+x,1/2-y,-z
-x,y,1/2-z
-x,-y,-z
1/2+x,1/2+y,1/2-z
1/2-x,1/2+y,z
x,-y,1/2+z
loop_
_atom_site_type_symbol
_atom_site_label
_atom_site_fract_x
_atom_site_fract_y
_atom_site_fract_z
Si Si1 0.339737 0.875720 0.684917
Si Si2 0.000000 0.209817 0.250000
Si Si3 0.074257 0.851572 0.167278
Si Si4 0.248130 0.768266 0.381299
Si Si5 0.315473 0.849205 0.934143
Si Si6 0.032110 0.063646 0.092761
Si Si7 0.973729 0.371769 0.408523
Si Si8 0.165145 0.945233 0.423374
O O1 0.500000 0.888983 0.750000
O O2 0.177450 0.828912 0.712778
O O3 0.482563 0.855436 0.616968
O O4 0.204933 0.927120 0.654683
O O5 0.876295 0.246350 0.189629
O O6 0.318202 0.856470 0.156636
O O7 0.000000 0.859730 0.250000
O O8 0.975964 0.792788 0.141241
O O9 0.980239 0.900944 0.117780
O O10 0.235734 0.716079 0.435565
O O11 0.365908 0.820879 0.415128
O O12 0.125427 0.884454 0.901529
O O13 0.352128 0.873198 0.014953
O O14 0.136608 0.062547 0.011473
O O15 0.903198 0.006928 0.098283
O O16 0.103316 0.428136 0.400445
#
# Coordination Sequence:
#
# PCOD9457828 Si02
#       8
#     8   4   8   8   8   8   8   8
#     4  12  24  43  69 105 143 183 232 295 364 428
#     4  12  24  44  66 100 144 186 234 286 364 436
#     4  11  25  46  68  99 144 189 243 295 349 431
#     4  11  26  38  65  98 139 192 226 294 355 425
#     4  12  25  40  70 104 140 181 237 297 354 437
#     4  11  23  46  74 103 143 181 241 302 357 431
#     4  11  25  43  69 103 141 190 247 285 363 424
#     4  10  24  46  73 101 136 190 238 295 357 423
#
# _framework density 21.376066000000002
#
# number of rings (size 3 to 8) (size 9 to 14) (size 15 to 20)
#    0.000    0.800    5.333    0.800    5.600    3.200 
#    3.600    0.000    0.000    0.000    0.000    0.000 
#    0.000    0.000    0.000    0.000    0.000    0.000 
#
# Total GULP energy -335597.099440 kJ/mol
# GULP energy per Si atom -5593.284991 kJ/mol
# Density = 2.132741 g / cm^3
# Si number density = 21.376066 Si / 1000 Ang^3
#
#
#
# Elastic Constant Matrix: (Units=GPa)
#
#
# Indices 1 2 3 4 5 6 
#
# 1 118.5980 44.7851 25.5025 0.0000 0.0000 0.0000
# 2 44.7851 101.0314 23.9682 0.0000 0.0000 0.0000
# 3 25.5025 23.9682 41.9824 0.0000 0.0000 0.0000
# 4 0.0000 0.0000 0.0000 26.0318 0.0000 0.0000
# 5 0.0000 0.0000 0.0000 0.0000 41.4031 0.0000
# 6 0.0000 0.0000 0.0000 0.0000 0.0000 29.3102
#
#
#
# Elastic Compliance Matrix: (Units=1/GPa)
#
#
# Indices 1 2 3 4 5 6 
#
# 1 0.010794 -0.003735 -0.004424 0.000000 0.000000 0.000000
# 2 -0.003735 0.012741 -0.005005 0.000000 0.000000 0.000000
# 3 -0.004424 -0.005005 0.029365 0.000000 0.000000 0.000000
# 4 0.000000 0.000000 0.000000 0.038414 0.000000 0.000000
# 5 0.000000 0.000000 0.000000 0.000000 0.024153 0.000000
# 6 0.000000 0.000000 0.000000 0.000000 0.000000 0.034118
#
#
# Mechanical properties :
#
#
# Convention : Reuss Voigt Hill
#
# Bulk Modulus (GPa) = 37.63597 50.01372 43.82485
# Shear Modulus (GPa) = 27.06069 30.50609 28.78339
#
# Velocity S-wave (km/s) = 3.56186 3.78181 3.67348
# Velocity P-wave (km/s) = 5.87882 6.52053 6.20798
#
# Compressibility (1/GPa) = 0.02657032
#
# Stress axis : x y z
#
# Youngs Moduli (GPa) = 92.64723 78.48717 34.05462
#
# Poissons Ratio (x) = 0.29315 0.15067
# Poissons Ratio (y) = 0.34604 0.17045
# Poissons Ratio (z) = 0.40990 0.39284
#
# Static dielectric constant tensor:
#      x y z
#    x 1.820770 0.000000 0.000000 
#    y 0.000000 1.731380 0.000000 
#    z 0.000000 0.000000 1.772160 
# 
# From -- ./inp_files/21757.got.cif
#   From: 2010.05.17/outbox.cif.g08.bks.cpg/sg60_11_cif.got.tgz:21757.got - 2010.06.03 14:59:27.
