data_PCOD9457437
_publ_section_title
;
Structure prediction by ZEFSAII (Michael W. Deem and Ramdas Pophale) SiO2 
 PCOD9457437
Probable space group: P B C N
;
_chemical_formula_sum "Si O2"
_cell_formula_units_Z 64
_cell_length_a 9.306318
_cell_length_b 14.442513
_cell_length_c 21.263435
_cell_angle_alpha 90.000000
_cell_angle_beta 90.000000
_cell_angle_gamma 90.000000
_cell_volume 2857.946400
_symmetry_space_group_name_H-M "P B C N"
_symmetry_group_IT_number 60
_symmetry_cell_setting 'orthorhombic'
loop_
_space_group_symop_operation_xyz
x,y,z
1/2-x,1/2-y,1/2+z
1/2+x,1/2-y,-z
-x,y,1/2-z
-x,-y,-z
1/2+x,1/2+y,1/2-z
1/2-x,1/2+y,z
x,-y,1/2+z
loop_
_atom_site_type_symbol
_atom_site_label
_atom_site_fract_x
_atom_site_fract_y
_atom_site_fract_z
Si Si1 0.762678 0.876897 0.139387
Si Si2 0.903020 0.461216 0.591249
Si Si3 0.339075 0.275132 0.234275
Si Si4 0.065783 0.196943 0.050536
Si Si5 0.598255 0.350088 0.810287
Si Si6 0.411017 0.559700 0.640969
Si Si7 0.244990 0.707683 0.451749
Si Si8 0.717398 0.025539 0.456140
O O1 0.767967 0.820076 0.203966
O O2 0.734058 0.805307 0.083284
O O3 0.921781 0.919457 0.128108
O O4 0.649498 0.960666 0.139201
O O5 0.826712 0.362302 0.598180
O O6 0.836873 0.495025 0.524233
O O7 0.073430 0.453227 0.583608
O O8 0.500000 0.245929 0.250000
O O9 0.252526 0.189684 0.207161
O O10 0.353218 0.358369 0.184371
O O11 0.053164 0.204049 0.126084
O O12 0.176888 0.113065 0.040429
O O13 0.904188 0.177537 0.028189
O O14 0.134817 0.279327 0.009778
O O15 0.500000 0.332424 0.750000
O O16 0.596507 0.459270 0.825525
O O17 0.311743 0.550031 0.580143
#
# Coordination Sequence:
#
# PCOD9457437 Si02
#       8
#     8   8   8   8   8   8   8   8
#     4  11  24  45  68 103 139 181 239 288 356 425
#     4  11  24  42  65  98 143 179 232 287 351 426
#     4  10  24  43  68 100 135 181 234 294 347 419
#     4  11  25  44  66 104 137 183 235 291 358 425
#     4  11  23  45  70  98 133 183 236 283 355 424
#     4  10  24  44  71  96 139 185 231 288 356 414
#     4  12  26  40  70  99 136 184 230 290 359 426
#     4  10  23  43  64  98 138 180 229 290 348 423
#
# _framework density 22.393702000000001
#
# number of rings (size 3 to 8) (size 9 to 14) (size 15 to 20)
#    0.000    1.250    1.250    4.125    5.250    8.000 
#    0.000    0.625    0.000    0.000    0.000    0.000 
#    0.000    0.000    0.000    0.000    0.000    0.000 
#
# Total GULP energy -358136.053980 kJ/mol
# GULP energy per Si atom -5595.875843 kJ/mol
# Density = 2.234273 g / cm^3
# Si number density = 22.393702 Si / 1000 Ang^3
#
#
#
# Elastic Constant Matrix: (Units=GPa)
#
#
# Indices 1 2 3 4 5 6 
#
# 1 116.8498 55.3208 28.2404 0.0000 0.0000 0.0000
# 2 55.3208 87.2196 11.9241 0.0000 0.0000 0.0000
# 3 28.2404 11.9241 68.2685 0.0000 0.0000 0.0000
# 4 0.0000 0.0000 0.0000 19.2278 0.0000 0.0000
# 5 0.0000 0.0000 0.0000 0.0000 25.7120 0.0000
# 6 0.0000 0.0000 0.0000 0.0000 0.0000 39.6074
#
#
#
# Elastic Compliance Matrix: (Units=1/GPa)
#
#
# Indices 1 2 3 4 5 6 
#
# 1 0.013272 -0.007855 -0.004118 0.000000 0.000000 0.000000
# 2 -0.007855 0.016395 0.000386 0.000000 0.000000 0.000000
# 3 -0.004118 0.000386 0.016284 0.000000 0.000000 0.000000
# 4 0.000000 0.000000 0.000000 0.052008 0.000000 0.000000
# 5 0.000000 0.000000 0.000000 0.000000 0.038892 0.000000
# 6 0.000000 0.000000 0.000000 0.000000 0.000000 0.025248
#
#
# Mechanical properties :
#
#
# Convention : Reuss Voigt Hill
#
# Bulk Modulus (GPa) = 43.90564 51.47873 47.69219
# Shear Modulus (GPa) = 25.92463 28.69961 27.31212
#
# Velocity S-wave (km/s) = 3.40615 3.58382 3.49611
# Velocity P-wave (km/s) = 5.92604 6.33742 6.13518
#
# Compressibility (1/GPa) = 0.02277612
#
# Stress axis : x y z
#
# Youngs Moduli (GPa) = 75.34549 60.99470 61.40908
#
# Poissons Ratio (x) = 0.47912 0.25290
# Poissons Ratio (y) = 0.59185 -0.02369
# Poissons Ratio (z) = 0.31029 -0.02353
#
# Static dielectric constant tensor:
#      x y z
#    x 1.797300 0.000000 0.000000 
#    y 0.000000 1.860870 0.000000 
#    z 0.000000 0.000000 1.875250 
# 
# From -- ./inp_files/24071.got.cif
#   From: 2010.05.17/outbox.cif.g08.bks.cpg/sg60_13_cif.got.tgz:24071.got - 2010.06.03 14:59:27.
