data_PCOD9457744
_publ_section_title
;
Structure prediction by ZEFSAII (Michael W. Deem and Ramdas Pophale) SiO2 
 PCOD9457744
Probable space group: P B C N
;
_chemical_formula_sum "Si O2"
_cell_formula_units_Z 40
_cell_length_a 11.244192
_cell_length_b 7.444755
_cell_length_c 19.406673
_cell_angle_alpha 90.000000
_cell_angle_beta 90.000000
_cell_angle_gamma 90.000000
_cell_volume 1624.537538
_symmetry_space_group_name_H-M "P B C N"
_symmetry_group_IT_number 60
_symmetry_cell_setting 'orthorhombic'
loop_
_space_group_symop_operation_xyz
x,y,z
1/2-x,1/2-y,1/2+z
1/2+x,1/2-y,-z
-x,y,1/2-z
-x,-y,-z
1/2+x,1/2+y,1/2-z
1/2-x,1/2+y,z
x,-y,1/2+z
loop_
_atom_site_type_symbol
_atom_site_label
_atom_site_fract_x
_atom_site_fract_y
_atom_site_fract_z
Si Si1 0.290706 0.058271 0.875573
Si Si2 0.624769 0.262050 0.760385
Si Si3 0.653347 0.090898 0.337138
Si Si4 0.598845 0.848886 0.985537
Si Si5 0.550937 0.305318 0.119868
O O1 0.147506 0.041109 0.870669
O O2 0.365263 0.873702 0.877705
O O3 0.330901 0.167223 0.808762
O O4 0.323794 0.162052 0.946373
O O5 0.729696 0.375555 0.793543
O O6 0.600312 0.097897 0.813617
O O7 0.676155 0.089479 0.419209
O O8 0.556453 0.250418 0.328916
O O9 0.520561 0.687949 0.952738
O O10 0.500000 0.000000 0.000000
O O11 0.500000 0.641022 0.250000
#
# Coordination Sequence:
#
# PCOD9457744 Si02
#       5
#     8   8   8   8   8
#     4  11  20  37  69  90 127 165 220 263 329 388
#     4  12  23  42  65  96 128 174 218 276 329 401
#     4  10  24  44  64  91 136 172 215 271 337 391
#     4   8  18  40  64  89 128 173 212 262 334 384
#     4   9  21  42  63  92 127 171 209 275 322 387
#
# _framework density 24.622392000000001
#
# number of rings (size 3 to 8) (size 9 to 14) (size 15 to 20)
#    1.200    0.800    2.000    1.200    0.000    4.800 
#    7.200    1.000    0.000    0.000    0.000    0.000 
#    0.000    0.000    0.000    0.000    0.000    0.000 
#
# Total GULP energy -223335.846775 kJ/mol
# GULP energy per Si atom -5583.396169 kJ/mol
# Density = 2.456635 g / cm^3
# Si number density = 24.622392 Si / 1000 Ang^3
#
#
#
# Elastic Constant Matrix: (Units=GPa)
#
#
# Indices 1 2 3 4 5 6 
#
# 1 167.5028 21.1917 37.2590 0.0000 0.0000 0.0000
# 2 21.1917 55.9641 6.6481 0.0000 0.0000 0.0000
# 3 37.2590 6.6481 114.3554 0.0000 0.0000 0.0000
# 4 0.0000 0.0000 0.0000 19.7119 0.0000 0.0000
# 5 0.0000 0.0000 0.0000 0.0000 49.2108 0.0000
# 6 0.0000 0.0000 0.0000 0.0000 0.0000 42.5874
#
#
#
# Elastic Compliance Matrix: (Units=1/GPa)
#
#
# Indices 1 2 3 4 5 6 
#
# 1 0.006718 -0.002300 -0.002055 0.000000 0.000000 0.000000
# 2 -0.002300 0.018780 -0.000342 0.000000 0.000000 0.000000
# 3 -0.002055 -0.000342 0.009434 0.000000 0.000000 0.000000
# 4 0.000000 0.000000 0.000000 0.050731 0.000000 0.000000
# 5 0.000000 0.000000 0.000000 0.000000 0.020321 0.000000
# 6 0.000000 0.000000 0.000000 0.000000 0.000000 0.023481
#
#
# Mechanical properties :
#
#
# Convention : Reuss Voigt Hill
#
# Bulk Modulus (GPa) = 39.15804 52.00223 45.58013
# Shear Modulus (GPa) = 33.92760 40.48358 37.20559
#
# Velocity S-wave (km/s) = 3.71606 4.05924 3.89144
# Velocity P-wave (km/s) = 5.86089 6.56778 6.22438
#
# Compressibility (1/GPa) = 0.02553754
#
# Stress axis : x y z
#
# Youngs Moduli (GPa) = 148.85017 53.24776 105.99733
#
# Poissons Ratio (x) = 0.12246 0.21785
# Poissons Ratio (y) = 0.34232 0.03630
# Poissons Ratio (z) = 0.30592 0.01824
#
# Static dielectric constant tensor:
#      x y z
#    x 1.995070 0.000000 0.000000 
#    y 0.000000 1.997080 0.000000 
#    z 0.000000 0.000000 1.808350 
# 
# From -- ./inp_files/20773.got.cif
#   From: 2010.05.17/outbox.cif.g08.bks.cpg/sg60_11_cif.got.tgz:20773.got - 2010.06.03 14:59:27.
