data_PCOD9457232
_publ_section_title
;
Structure prediction by ZEFSAII (Michael W. Deem and Ramdas Pophale) SiO2 
 PCOD9457232
Probable space group: P B C N
;
_chemical_formula_sum "Si O2"
_cell_formula_units_Z 56
_cell_length_a 18.745621
_cell_length_b 8.263701
_cell_length_c 15.941493
_cell_angle_alpha 90.000000
_cell_angle_beta 90.000000
_cell_angle_gamma 90.000000
_cell_volume 2469.468098
_symmetry_space_group_name_H-M "P B C N"
_symmetry_group_IT_number 60
_symmetry_cell_setting 'orthorhombic'
loop_
_space_group_symop_operation_xyz
x,y,z
1/2-x,1/2-y,1/2+z
1/2+x,1/2-y,-z
-x,y,1/2-z
-x,-y,-z
1/2+x,1/2+y,1/2-z
1/2-x,1/2+y,z
x,-y,1/2+z
loop_
_atom_site_type_symbol
_atom_site_label
_atom_site_fract_x
_atom_site_fract_y
_atom_site_fract_z
Si Si1 0.358871 0.309784 0.429223
Si Si2 0.156669 0.902143 0.245162
Si Si3 0.617524 0.246354 0.416497
Si Si4 0.313242 0.772143 0.279041
Si Si5 0.561233 0.046574 0.809752
Si Si6 0.492827 0.187659 0.530464
Si Si7 0.780411 0.152053 0.042734
O O1 0.376948 0.330772 0.330823
O O2 0.427127 0.274644 0.484953
O O3 0.304319 0.161101 0.444618
O O4 0.315505 0.474213 0.452355
O O5 0.113101 0.866624 0.161612
O O6 0.236036 0.824049 0.244321
O O7 0.168740 0.091474 0.251912
O O8 0.563346 0.272247 0.493657
O O9 0.695111 0.265591 0.456821
O O10 0.598972 0.077607 0.372859
O O11 0.375901 0.885006 0.247190
O O12 0.307964 0.759707 0.379332
O O13 0.500000 0.974390 0.750000
O O14 0.522143 0.177344 0.870365
O O15 0.500000 0.000000 0.500000
#
# Coordination Sequence:
#
# PCOD9457232 Si02
#       7
#     8   8   8   8   8   8   8
#     4  10  24  44  70 101 140 181 229 281 355 407
#     4  10  23  41  70 101 133 180 223 290 336 411
#     4  11  25  42  69 100 132 180 232 283 344 403
#     4  10  22  46  66 102 137 177 228 277 349 410
#     4  11  25  44  69  98 138 185 226 279 344 414
#     4  10  25  43  67 100 135 181 227 282 346 412
#     4  10  24  43  71 102 138 180 227 292 340 413
#
# _framework density 22.676949
#
# number of rings (size 3 to 8) (size 9 to 14) (size 15 to 20)
#    0.000    1.714    0.000    1.714   12.000    1.714 
#    5.143    0.000    0.000    0.000    0.000    0.000 
#    0.000    0.000    0.000    0.000    0.000    0.000 
#
# Total GULP energy -313051.265757 kJ/mol
# GULP energy per Si atom -5590.201174 kJ/mol
# Density = 2.262534 g / cm^3
# Si number density = 22.676949 Si / 1000 Ang^3
#
#
#
# Elastic Constant Matrix: (Units=GPa)
#
#
# Indices 1 2 3 4 5 6 
#
# 1 28.6195 4.7747 -3.9758 0.0000 0.0000 0.0000
# 2 4.7747 57.1970 -4.4308 0.0000 0.0000 0.0000
# 3 -3.9758 -4.4308 44.5808 0.0000 0.0000 0.0000
# 4 0.0000 0.0000 0.0000 56.4696 0.0000 0.0000
# 5 0.0000 0.0000 0.0000 0.0000 51.2632 0.0000
# 6 0.0000 0.0000 0.0000 0.0000 0.0000 24.3383
#
#
#
# Elastic Compliance Matrix: (Units=1/GPa)
#
#
# Indices 1 2 3 4 5 6 
#
# 1 0.035808 -0.002763 0.002919 0.000000 0.000000 0.000000
# 2 -0.002763 0.017832 0.001526 0.000000 0.000000 0.000000
# 3 0.002919 0.001526 0.022843 0.000000 0.000000 0.000000
# 4 0.000000 0.000000 0.000000 0.017709 0.000000 0.000000
# 5 0.000000 0.000000 0.000000 0.000000 0.019507 0.000000
# 6 0.000000 0.000000 0.000000 0.000000 0.000000 0.041088
#
#
# Mechanical properties :
#
#
# Convention : Reuss Voigt Hill
#
# Bulk Modulus (GPa) = 12.52405 13.68149 13.10277
# Shear Modulus (GPa) = 28.08382 35.34951 31.71666
#
# Velocity S-wave (km/s) = 3.52295 3.95249 3.74388
# Velocity P-wave (km/s) = 4.69926 5.18419 4.94767
#
# Compressibility (1/GPa) = 0.07984638
#
# Stress axis : x y z
#
# Youngs Moduli (GPa) = 27.92704 56.07806 43.77683
#
# Poissons Ratio (x) = 0.15494 -0.12778
# Poissons Ratio (y) = 0.07716 -0.06680
# Poissons Ratio (z) = -0.08151 -0.08557
#
# Static dielectric constant tensor:
#      x y z
#    x 1.914220 0.000000 0.000000 
#    y 0.000000 1.864660 0.000000 
#    z 0.000000 0.000000 1.855570 
# 
# From -- ./inp_files/17714.got.cif
#   From: 2010.05.17/outbox.cif.g08.bks.cpg/sg60_9_cif.got.tgz:17714.got - 2010.06.03 14:59:27.
