data_PCOD9457010
_publ_section_title
;
Structure prediction by ZEFSAII (Michael W. Deem and Ramdas Pophale) SiO2 
 PCOD9457010
Probable space group: P B C N
;
_chemical_formula_sum "Si O2"
_cell_formula_units_Z 24
_cell_length_a 8.925594
_cell_length_b 21.796439
_cell_length_c 5.246769
_cell_angle_alpha 90.000000
_cell_angle_beta 90.000000
_cell_angle_gamma 90.000000
_cell_volume 1020.738788
_symmetry_space_group_name_H-M "P B C N"
_symmetry_group_IT_number 60
_symmetry_cell_setting 'orthorhombic'
loop_
_space_group_symop_operation_xyz
x,y,z
1/2-x,1/2-y,1/2+z
1/2+x,1/2-y,-z
-x,y,1/2-z
-x,-y,-z
1/2+x,1/2+y,1/2-z
1/2-x,1/2+y,z
x,-y,1/2+z
loop_
_atom_site_type_symbol
_atom_site_label
_atom_site_fract_x
_atom_site_fract_y
_atom_site_fract_z
Si Si1 0.434097 0.568542 0.000800
Si Si2 0.593764 0.907468 0.009020
Si Si3 0.161530 0.733164 0.836590
O O1 0.500000 0.599972 0.750000
O O2 0.500000 0.599917 0.250000
O O3 0.500000 0.500000 0.000000
O O4 0.256616 0.562890 0.009507
O O5 0.500000 0.912323 0.750000
O O6 0.500000 0.931859 0.250000
O O7 0.630445 0.836202 0.068976
O O8 0.263060 0.734332 0.580888
O O9 0.000000 0.758324 0.750000
#
# Coordination Sequence:
#
# PCOD9457010 Si02
#       3
#     8   8   8
#     4  10  22  42  63  91 123 157 208 263 312 372
#     4  11  23  42  64  91 127 168 209 257 313 375
#     4  11  23  40  61  92 128 167 209 254 308 373
#
# _framework density 23.512384000000001
#
# number of rings (size 3 to 8) (size 9 to 14) (size 15 to 20)
#    0.000    1.333    0.000    7.000    0.000    4.000 
#    0.000   20.000    0.000    0.000    0.000    0.000 
#    0.000    0.000    0.000    0.000    0.000    0.000 
#
# Total GULP energy -134331.067432 kJ/mol
# GULP energy per Si atom -5597.127810 kJ/mol
# Density = 2.345887 g / cm^3
# Si number density = 23.512384 Si / 1000 Ang^3
#
#
#
# Elastic Constant Matrix: (Units=GPa)
#
#
# Indices 1 2 3 4 5 6 
#
# 1 261.8605 45.5584 139.9315 0.0000 0.0000 0.0000
# 2 45.5584 74.6583 18.5838 0.0000 0.0000 0.0000
# 3 139.9315 18.5838 287.1623 0.0000 0.0000 0.0000
# 4 0.0000 0.0000 0.0000 -9.8719 0.0000 0.0000
# 5 0.0000 0.0000 0.0000 0.0000 62.5786 0.0000
# 6 0.0000 0.0000 0.0000 0.0000 0.0000 -22.1259
#
#
#
# Elastic Compliance Matrix: (Units=1/GPa)
#
#
# Indices 1 2 3 4 5 6 
#
# 1 0.005697 -0.002831 -0.002593 0.000000 0.000000 0.000000
# 2 -0.002831 0.015020 0.000407 0.000000 0.000000 0.000000
# 3 -0.002593 0.000407 0.004719 0.000000 0.000000 0.000000
# 4 0.000000 0.000000 0.000000 -0.101298 0.000000 0.000000
# 5 0.000000 0.000000 0.000000 0.000000 0.015980 0.000000
# 6 0.000000 0.000000 0.000000 0.000000 0.000000 -0.045196
#
#
# Mechanical properties :
#
#
# Convention : Reuss Voigt Hill
#
# Bulk Modulus (GPa) = 64.91782 114.64761 89.78271
# Shear Modulus (GPa) = -55.61135 34.09000 -10.76067
#
# Velocity S-wave (km/s) = -4.86860 3.81185 -2.14162
# Velocity P-wave (km/s) = 1.98353 8.26075 5.67034
#
# Compressibility (1/GPa) = 0.01540409
#
# Stress axis : x y z
#
# Youngs Moduli (GPa) = 175.53369 66.57574 211.88913
#
# Poissons Ratio (x) = 0.18848 0.54940
# Poissons Ratio (y) = 0.49694 -0.08634
# Poissons Ratio (z) = 0.45513 -0.02713
#
# Static dielectric constant tensor:
#      x y z
#    x 1.854260 0.000000 0.000000 
#    y 0.000000 3.303800 0.000000 
#    z 0.000000 0.000000 1.907300 
# 
# From -- ./inp_files/236.got.cif
#   From: 2010.05.17/outbox.cif.g08.bks.cpg/sg60_1_cif.got.tgz:236.got - 2010.06.03 14:59:27.
