data_PCOD9457263
_publ_section_title
;
Structure prediction by ZEFSAII (Michael W. Deem and Ramdas Pophale) SiO2 
 PCOD9457263
Probable space group: P B C N
;
_chemical_formula_sum "Si O2"
_cell_formula_units_Z 60
_cell_length_a 6.500443
_cell_length_b 17.062745
_cell_length_c 26.279406
_cell_angle_alpha 90.000000
_cell_angle_beta 90.000000
_cell_angle_gamma 90.000000
_cell_volume 2914.790862
_symmetry_space_group_name_H-M "P B C N"
_symmetry_group_IT_number 60
_symmetry_cell_setting 'orthorhombic'
loop_
_space_group_symop_operation_xyz
x,y,z
1/2-x,1/2-y,1/2+z
1/2+x,1/2-y,-z
-x,y,1/2-z
-x,-y,-z
1/2+x,1/2+y,1/2-z
1/2-x,1/2+y,z
x,-y,1/2+z
loop_
_atom_site_type_symbol
_atom_site_label
_atom_site_fract_x
_atom_site_fract_y
_atom_site_fract_z
Si Si1 0.705815 0.689844 0.659403
Si Si2 0.405974 0.052191 0.455777
Si Si3 0.078923 0.948400 0.403248
Si Si4 0.500000 0.775325 0.250000
Si Si5 0.377369 0.816956 0.700442
Si Si6 0.718133 0.406031 0.890902
Si Si7 0.992956 0.750242 0.928333
Si Si8 0.863687 0.834079 0.477049
O O1 0.606001 0.607095 0.645169
O O2 0.861970 0.682471 0.707016
O O3 0.530932 0.754477 0.672837
O O4 0.835728 0.715828 0.609311
O O5 0.590782 0.095931 0.428797
O O6 0.254331 0.111713 0.482957
O O7 0.500000 0.000000 0.500000
O O8 0.282308 0.997321 0.416805
O O9 0.029450 0.889928 0.450227
O O10 0.898292 0.011812 0.396552
O O11 0.331655 0.725028 0.218897
O O12 0.500000 0.844341 0.750000
O O13 0.310930 0.886795 0.663912
O O14 0.570340 0.334209 0.905615
O O15 0.790744 0.696243 0.933398
O O16 0.056167 0.763822 0.987368
#
# Coordination Sequence:
#
# PCOD9457263 Si02
#       8
#     8   8   8   4   8   8   8   8
#     4  11  24  44  72 101 130 185 231 284 348 415
#     4  12  23  41  64  95 139 189 220 270 340 399
#     4  12  26  41  66  98 147 180 225 277 350 416
#     4  10  22  46  80  96 130 166 232 302 348 406
#     4  10  23  44  77 100 127 171 235 294 352 411
#     4  12  24  42  69  99 138 182 226 288 348 408
#     4  12  23  41  69 100 137 180 244 280 329 409
#     4  12  23  41  62 101 138 186 233 280 326 411
#
# _framework density 20.584669000000002
#
# number of rings (size 3 to 8) (size 9 to 14) (size 15 to 20)
#    0.000    0.533    4.000    5.200    0.000    0.000 
#    0.000    0.000   19.067    0.000    0.000    0.000 
#    0.000    0.000    0.000    0.000    0.000    0.000 
#
# Total GULP energy -335541.355987 kJ/mol
# GULP energy per Si atom -5592.355933 kJ/mol
# Density = 2.053782 g / cm^3
# Si number density = 20.584669 Si / 1000 Ang^3
#
#
#
# Elastic Constant Matrix: (Units=GPa)
#
#
# Indices 1 2 3 4 5 6 
#
# 1 67.1404 11.0894 19.7535 0.0000 0.0000 0.0000
# 2 11.0894 51.7917 24.6222 0.0000 0.0000 0.0000
# 3 19.7535 24.6222 85.3082 0.0000 0.0000 0.0000
# 4 0.0000 0.0000 0.0000 27.9535 0.0000 0.0000
# 5 0.0000 0.0000 0.0000 0.0000 48.5576 0.0000
# 6 0.0000 0.0000 0.0000 0.0000 0.0000 31.1570
#
#
#
# Elastic Compliance Matrix: (Units=1/GPa)
#
#
# Indices 1 2 3 4 5 6 
#
# 1 0.016151 -0.001947 -0.003178 0.000000 0.000000 0.000000
# 2 -0.001947 0.022614 -0.006076 0.000000 0.000000 0.000000
# 3 -0.003178 -0.006076 0.014212 0.000000 0.000000 0.000000
# 4 0.000000 0.000000 0.000000 0.035774 0.000000 0.000000
# 5 0.000000 0.000000 0.000000 0.000000 0.020594 0.000000
# 6 0.000000 0.000000 0.000000 0.000000 0.000000 0.032096
#
#
# Mechanical properties :
#
#
# Convention : Reuss Voigt Hill
#
# Bulk Modulus (GPa) = 32.70764 35.01896 33.86330
# Shear Modulus (GPa) = 28.73023 31.45199 30.09111
#
# Velocity S-wave (km/s) = 3.73997 3.91312 3.82753
# Velocity P-wave (km/s) = 5.87994 6.12093 6.00164
#
# Compressibility (1/GPa) = 0.03057389
#
# Stress axis : x y z
#
# Youngs Moduli (GPa) = 61.91671 44.22113 70.36464
#
# Poissons Ratio (x) = 0.08612 0.22360
# Poissons Ratio (y) = 0.12058 0.42753
# Poissons Ratio (z) = 0.19675 0.26869
#
# Static dielectric constant tensor:
#      x y z
#    x 1.726420 0.000000 0.000000 
#    y 0.000000 1.686480 0.000000 
#    z 0.000000 0.000000 1.758280 
# 
# From -- ./inp_files/24985.got.cif
#   From: 2010.05.17/outbox.cif.g08.bks.cpg/sg60_13_cif.got.tgz:24985.got - 2010.06.03 14:59:27.
