data_PCOD9457575
_publ_section_title
;
Structure prediction by ZEFSAII (Michael W. Deem and Ramdas Pophale) SiO2 
 PCOD9457575
Probable space group: P B C N
;
_chemical_formula_sum "Si O2"
_cell_formula_units_Z 40
_cell_length_a 12.175582
_cell_length_b 13.389865
_cell_length_c 9.222695
_cell_angle_alpha 90.000000
_cell_angle_beta 90.000000
_cell_angle_gamma 90.000000
_cell_volume 1503.570426
_symmetry_space_group_name_H-M "P B C N"
_symmetry_group_IT_number 60
_symmetry_cell_setting 'orthorhombic'
loop_
_space_group_symop_operation_xyz
x,y,z
1/2-x,1/2-y,1/2+z
1/2+x,1/2-y,-z
-x,y,1/2-z
-x,-y,-z
1/2+x,1/2+y,1/2-z
1/2-x,1/2+y,z
x,-y,1/2+z
loop_
_atom_site_type_symbol
_atom_site_label
_atom_site_fract_x
_atom_site_fract_y
_atom_site_fract_z
Si Si1 0.000000 0.327403 0.750000
Si Si2 0.613983 0.052492 0.486881
Si Si3 0.875051 0.275564 0.216494
Si Si4 0.654986 0.513483 0.002841
Si Si5 0.332878 0.730812 0.964284
Si Si6 0.000000 0.001511 0.250000
O O1 0.096406 0.386463 0.662811
O O2 0.062257 0.265783 0.873531
O O3 0.616331 0.119892 0.631343
O O4 0.715435 0.977033 0.486816
O O5 0.500000 0.000000 0.500000
O O6 0.777622 0.232878 0.115868
O O7 0.827144 0.274170 0.376087
O O8 0.000000 0.240358 0.250000
O O9 0.584003 0.548303 0.864687
O O10 0.653985 0.390164 0.016815
O O11 0.588322 0.552203 0.142077
#
# Coordination Sequence:
#
# PCOD9457575 Si02
#       6
#     4   8   8   8   8   4
#     4  12  25  44  72 105 140 192 238 306 364 445
#     4  11  27  45  70 107 145 189 240 303 381 438
#     4  11  24  46  68 105 139 187 239 298 364 437
#     4  10  24  45  70 100 139 185 236 298 354 439
#     4  11  24  45  72 101 143 185 245 292 367 431
#     4  10  23  46  66 101 132 184 242 284 364 425
#
# _framework density 26.603344
#
# number of rings (size 3 to 8) (size 9 to 14) (size 15 to 20)
#    0.000    1.200    2.000    3.000    5.600    1.600 
#    0.000    0.000    0.000    0.000    0.000    0.000 
#    0.000    0.000    0.000    0.000    0.000    0.000 
#
# Total GULP energy -223625.470643 kJ/mol
# GULP energy per Si atom -5590.636766 kJ/mol
# Density = 2.654279 g / cm^3
# Si number density = 26.603344 Si / 1000 Ang^3
#
#
#
# Elastic Constant Matrix: (Units=GPa)
#
#
# Indices 1 2 3 4 5 6 
#
# 1 250.9911 29.6022 86.6189 0.0000 0.0000 0.0000
# 2 29.6022 82.4710 28.9899 0.0000 0.0000 0.0000
# 3 86.6189 28.9899 226.7274 0.0000 0.0000 0.0000
# 4 0.0000 0.0000 0.0000 0.3588 0.0000 0.0000
# 5 0.0000 0.0000 0.0000 0.0000 28.3395 0.0000
# 6 0.0000 0.0000 0.0000 0.0000 0.0000 -16.3207
#
#
#
# Elastic Compliance Matrix: (Units=1/GPa)
#
#
# Indices 1 2 3 4 5 6 
#
# 1 0.004683 -0.001102 -0.001648 0.000000 0.000000 0.000000
# 2 -0.001102 0.012955 -0.001236 0.000000 0.000000 0.000000
# 3 -0.001648 -0.001236 0.005198 0.000000 0.000000 0.000000
# 4 0.000000 0.000000 0.000000 2.786705 0.000000 0.000000
# 5 0.000000 0.000000 0.000000 0.000000 0.035286 0.000000
# 6 0.000000 0.000000 0.000000 0.000000 0.000000 -0.061272
#
#
# Mechanical properties :
#
#
# Convention : Reuss Voigt Hill
#
# Bulk Modulus (GPa) = 67.26942 94.51240 80.89091
# Shear Modulus (GPa) = 1.78796 30.14077 15.96436
#
# Velocity S-wave (km/s) = 0.82070 3.36961 2.45233
# Velocity P-wave (km/s) = 5.12240 7.12339 6.20410
#
# Compressibility (1/GPa) = 0.01486560
#
# Stress axis : x y z
#
# Youngs Moduli (GPa) = 213.54138 77.18905 192.37186
#
# Poissons Ratio (x) = 0.08503 0.31707
# Poissons Ratio (y) = 0.23522 0.23771
# Poissons Ratio (z) = 0.35196 0.09538
#
# Static dielectric constant tensor:
#      x y z
#    x 2.165140 0.000000 0.000000 
#    y 0.000000 2.351160 0.000000 
#    z 0.000000 0.000000 1.980230 
# 
# From -- ./inp_files/4818.got.cif
#   From: 2010.05.17/outbox.cif.g08.bks.cpg/sg60_3_cif.got.tgz:4818.got - 2010.06.03 14:59:27.
