data_PCOD9457892
_publ_section_title
;
Structure prediction by ZEFSAII (Michael W. Deem and Ramdas Pophale) SiO2 
 PCOD9457892
Probable space group: P B C N
;
_chemical_formula_sum "Si O2"
_cell_formula_units_Z 40
_cell_length_a 8.666807
_cell_length_b 10.909273
_cell_length_c 18.162614
_cell_angle_alpha 90.000000
_cell_angle_beta 90.000000
_cell_angle_gamma 90.000000
_cell_volume 1717.249065
_symmetry_space_group_name_H-M "P B C N"
_symmetry_group_IT_number 60
_symmetry_cell_setting 'orthorhombic'
loop_
_space_group_symop_operation_xyz
x,y,z
1/2-x,1/2-y,1/2+z
1/2+x,1/2-y,-z
-x,y,1/2-z
-x,-y,-z
1/2+x,1/2+y,1/2-z
1/2-x,1/2+y,z
x,-y,1/2+z
loop_
_atom_site_type_symbol
_atom_site_label
_atom_site_fract_x
_atom_site_fract_y
_atom_site_fract_z
Si Si1 0.161057 0.133860 0.709684
Si Si2 0.717796 0.791428 0.572821
Si Si3 0.591577 0.124892 0.483622
Si Si4 0.354035 0.532463 0.549381
Si Si5 0.815884 0.124731 0.235161
O O1 0.121222 0.089924 0.628177
O O2 0.254621 0.259333 0.718312
O O3 0.000000 0.157288 0.750000
O O4 0.240852 0.012806 0.745276
O O5 0.533191 0.789309 0.557978
O O6 0.827256 0.673909 0.558415
O O7 0.769575 0.871413 0.503013
O O8 0.765102 0.847311 0.650976
O O9 0.500000 0.000000 0.500000
O O10 0.742635 0.084642 0.438198
O O11 0.500000 0.500000 0.500000
O O12 0.000000 0.119893 0.250000
#
# Coordination Sequence:
#
# PCOD9457892 Si02
#       5
#     8   8   8   8   8
#     4  11  28  47  72 111 150 201 249 317 398 464
#     4  11  25  43  74 106 147 197 256 317 383 465
#     4  10  25  42  74 108 142 188 260 308 387 447
#     4  11  24  44  75 103 150 195 260 315 386 472
#     4  11  28  48  74 107 159 198 257 317 399 462
#
# _framework density 23.293068000000002
#
# number of rings (size 3 to 8) (size 9 to 14) (size 15 to 20)
#    0.000    1.200    0.000    3.600   19.600    0.800 
#    0.000    0.000    0.000    0.000    0.000    0.000 
#    0.000    0.000    0.000    0.000    0.000    0.000 
#
# Total GULP energy -223319.144710 kJ/mol
# GULP energy per Si atom -5582.978618 kJ/mol
# Density = 2.324005 g / cm^3
# Si number density = 23.293068 Si / 1000 Ang^3
#
#
#
# Elastic Constant Matrix: (Units=GPa)
#
#
# Indices 1 2 3 4 5 6 
#
# 1 127.6541 32.3248 28.7582 0.0000 0.0000 0.0000
# 2 32.3248 118.1755 10.4062 0.0000 0.0000 0.0000
# 3 28.7582 10.4062 128.0383 0.0000 0.0000 0.0000
# 4 0.0000 0.0000 0.0000 68.9726 0.0000 0.0000
# 5 0.0000 0.0000 0.0000 0.0000 10.4554 0.0000
# 6 0.0000 0.0000 0.0000 0.0000 0.0000 44.2038
#
#
#
# Elastic Compliance Matrix: (Units=1/GPa)
#
#
# Indices 1 2 3 4 5 6 
#
# 1 0.008808 -0.002251 -0.001795 0.000000 0.000000 0.000000
# 2 -0.002251 0.009098 -0.000234 0.000000 0.000000 0.000000
# 3 -0.001795 -0.000234 0.008232 0.000000 0.000000 0.000000
# 4 0.000000 0.000000 0.000000 0.014499 0.000000 0.000000
# 5 0.000000 0.000000 0.000000 0.000000 0.095644 0.000000
# 6 0.000000 0.000000 0.000000 0.000000 0.000000 0.022623
#
#
# Mechanical properties :
#
#
# Convention : Reuss Voigt Hill
#
# Bulk Modulus (GPa) = 56.88905 57.42736 57.15820
# Shear Modulus (GPa) = 28.84759 44.88493 36.86626
#
# Velocity S-wave (km/s) = 3.52300 4.39448 3.98265
# Velocity P-wave (km/s) = 6.40507 7.10327 6.76318
#
# Compressibility (1/GPa) = 0.01757808
#
# Stress axis : x y z
#
# Youngs Moduli (GPa) = 113.53051 109.90992 121.47088
#
# Poissons Ratio (x) = 0.24743 0.21809
# Poissons Ratio (y) = 0.25558 0.02840
# Poissons Ratio (z) = 0.20383 0.02570
#
# Static dielectric constant tensor:
#      x y z
#    x 2.391560 0.000000 0.000000 
#    y 0.000000 1.989380 0.000000 
#    z 0.000000 0.000000 1.850210 
# 
# From -- ./inp_files/19022.got.cif
#   From: 2010.05.17/outbox.cif.g08.bks.cpg/sg60_10_cif.got.tgz:19022.got - 2010.06.03 14:59:27.
