data_PCOD9457425
_publ_section_title
;
Structure prediction by ZEFSAII (Michael W. Deem and Ramdas Pophale) SiO2 
 PCOD9457425
Probable space group: P B C N
;
_chemical_formula_sum "Si O2"
_cell_formula_units_Z 48
_cell_length_a 18.558048
_cell_length_b 20.827028
_cell_length_c 5.120290
_cell_angle_alpha 90.000000
_cell_angle_beta 90.000000
_cell_angle_gamma 90.000000
_cell_volume 1979.038092
_symmetry_space_group_name_H-M "P B C N"
_symmetry_group_IT_number 60
_symmetry_cell_setting 'orthorhombic'
loop_
_space_group_symop_operation_xyz
x,y,z
1/2-x,1/2-y,1/2+z
1/2+x,1/2-y,-z
-x,y,1/2-z
-x,-y,-z
1/2+x,1/2+y,1/2-z
1/2-x,1/2+y,z
x,-y,1/2+z
loop_
_atom_site_type_symbol
_atom_site_label
_atom_site_fract_x
_atom_site_fract_y
_atom_site_fract_z
Si Si1 0.282022 0.354797 0.468608
Si Si2 0.000000 0.546420 0.750000
Si Si3 0.336335 0.770336 0.686443
Si Si4 0.574562 0.781871 0.342866
Si Si5 0.664578 0.954822 0.244386
Si Si6 0.000000 0.044268 0.750000
Si Si7 0.932021 0.134207 0.430856
O O1 0.235572 0.310629 0.658836
O O2 0.316260 0.301948 0.271022
O O3 0.227683 0.404225 0.328861
O O4 0.349505 0.380656 0.639274
O O5 0.082675 0.574787 0.764791
O O6 0.000000 0.500000 0.500000
O O7 0.376534 0.772445 0.410522
O O8 0.383094 0.806940 0.907317
O O9 0.500000 0.811953 0.250000
O O10 0.556304 0.710109 0.450917
O O11 0.671076 0.989164 0.524872
O O12 0.936629 0.094872 0.701181
O O13 0.000000 0.000000 0.500000
O O14 0.000000 0.115080 0.250000
#
# Coordination Sequence:
#
# PCOD9457425 Si02
#       7
#     8   4   8   8   8   4   8
#     4  11  25  44  74 103 152 183 245 295 366 438
#     4   8  16  38  68  92 130 172 220 282 350 414
#     4  11  24  43  66 109 140 196 224 301 366 421
#     4  10  23  42  73  96 140 181 242 278 357 442
#     4  10  23  43  70 105 137 185 235 288 355 428
#     4  12  26  44  62  92 132 178 246 306 346 400
#     4  10  24  42  67  92 128 188 234 287 357 417
#
# _framework density 24.25421
#
# number of rings (size 3 to 8) (size 9 to 14) (size 15 to 20)
#    0.000    1.667    0.833    2.500    9.333    6.667 
#    1.500    0.000   12.833    0.000    0.000    0.000 
#    0.000    0.000    0.000    0.000    0.000    0.000 
#
# Total GULP energy -267816.742520 kJ/mol
# GULP energy per Si atom -5579.515469 kJ/mol
# Density = 2.419901 g / cm^3
# Si number density = 24.254210 Si / 1000 Ang^3
#
#
#
# Elastic Constant Matrix: (Units=GPa)
#
#
# Indices 1 2 3 4 5 6 
#
# 1 156.2694 52.7228 23.9411 0.0000 0.0000 0.0000
# 2 52.7228 52.1188 19.2985 0.0000 0.0000 0.0000
# 3 23.9411 19.2985 125.7367 0.0000 0.0000 0.0000
# 4 0.0000 0.0000 0.0000 28.2130 0.0000 0.0000
# 5 0.0000 0.0000 0.0000 0.0000 44.0345 0.0000
# 6 0.0000 0.0000 0.0000 0.0000 0.0000 28.2463
#
#
#
# Elastic Compliance Matrix: (Units=1/GPa)
#
#
# Indices 1 2 3 4 5 6 
#
# 1 0.009730 -0.009709 -0.000363 0.000000 0.000000 0.000000
# 2 -0.009709 0.030031 -0.002761 0.000000 0.000000 0.000000
# 3 -0.000363 -0.002761 0.008446 0.000000 0.000000 0.000000
# 4 0.000000 0.000000 0.000000 0.035445 0.000000 0.000000
# 5 0.000000 0.000000 0.000000 0.000000 0.022709 0.000000
# 6 0.000000 0.000000 0.000000 0.000000 0.000000 0.035403
#
#
# Mechanical properties :
#
#
# Convention : Reuss Voigt Hill
#
# Bulk Modulus (GPa) = 44.36019 58.44997 51.40508
# Shear Modulus (GPa) = 28.58090 35.97627 32.27858
#
# Velocity S-wave (km/s) = 3.43649 3.85554 3.65203
# Velocity P-wave (km/s) = 5.83741 6.63110 6.24687
#
# Compressibility (1/GPa) = 0.02254274
#
# Stress axis : x y z
#
# Youngs Moduli (GPa) = 102.77090 33.29943 118.40121
#
# Poissons Ratio (x) = 0.32330 0.04293
# Poissons Ratio (y) = 0.99779 0.32685
# Poissons Ratio (z) = 0.03726 0.09192
#
# Static dielectric constant tensor:
#      x y z
#    x 2.038520 0.000000 0.000000 
#    y 0.000000 2.010600 0.000000 
#    z 0.000000 0.000000 2.019510 
# 
# From -- ./inp_files/1763.got.cif
#   From: 2010.05.17/outbox.cif.g08.bks.cpg/sg60_1_cif.got.tgz:1763.got - 2010.06.03 14:59:27.
