data_PCOD9457137
_publ_section_title
;
Structure prediction by ZEFSAII (Michael W. Deem and Ramdas Pophale) SiO2 
 PCOD9457137
Probable space group: P B C N
;
_chemical_formula_sum "Si O2"
_cell_formula_units_Z 40
_cell_length_a 17.639413
_cell_length_b 10.419837
_cell_length_c 9.163326
_cell_angle_alpha 90.000000
_cell_angle_beta 90.000000
_cell_angle_gamma 90.000000
_cell_volume 1684.217562
_symmetry_space_group_name_H-M "P B C N"
_symmetry_group_IT_number 60
_symmetry_cell_setting 'orthorhombic'
loop_
_space_group_symop_operation_xyz
x,y,z
1/2-x,1/2-y,1/2+z
1/2+x,1/2-y,-z
-x,y,1/2-z
-x,-y,-z
1/2+x,1/2+y,1/2-z
1/2-x,1/2+y,z
x,-y,1/2+z
loop_
_atom_site_type_symbol
_atom_site_label
_atom_site_fract_x
_atom_site_fract_y
_atom_site_fract_z
Si Si1 0.194355 0.499083 0.453247
Si Si2 0.303545 0.558533 0.194699
Si Si3 0.450394 0.130052 0.981324
Si Si4 0.396515 0.233292 0.569922
Si Si5 0.585553 0.674356 0.761221
O O1 0.246615 0.558351 0.329424
O O2 0.251177 0.421053 0.554232
O O3 0.124961 0.412265 0.398098
O O4 0.153537 0.604778 0.555153
O O5 0.362861 0.672498 0.188890
O O6 0.351636 0.426470 0.184477
O O7 0.424318 0.202492 0.130647
O O8 0.513883 0.216964 0.908621
O O9 0.500000 0.000000 0.000000
O O10 0.392325 0.286461 0.402725
O O11 0.500000 0.617569 0.750000
#
# Coordination Sequence:
#
# PCOD9457137 Si02
#       5
#     8   8   8   8   8
#     4  11  25  43  73 103 143 184 248 303 369 428
#     4  12  25  43  70 109 147 187 240 310 377 436
#     4   9  21  45  73 101 138 193 248 302 360 442
#     4  10  23  45  69 102 143 199 241 302 371 451
#     4  10  22  43  71  97 150 190 246 299 367 444
#
# _framework density 23.749901999999999
#
# number of rings (size 3 to 8) (size 9 to 14) (size 15 to 20)
#    0.000    1.600    2.000    1.200    5.600    4.800 
#    0.000    3.000    0.000    0.000    0.000    0.000 
#    0.000    0.000    0.000    0.000    0.000    0.000 
#
# Total GULP energy -223591.469981 kJ/mol
# GULP energy per Si atom -5589.786750 kJ/mol
# Density = 2.369585 g / cm^3
# Si number density = 23.749902 Si / 1000 Ang^3
#
#
#
# Elastic Constant Matrix: (Units=GPa)
#
#
# Indices 1 2 3 4 5 6 
#
# 1 153.4219 47.5207 46.9368 0.0000 0.0000 0.0000
# 2 47.5207 84.8410 27.7605 0.0000 0.0000 0.0000
# 3 46.9368 27.7605 94.3118 0.0000 0.0000 0.0000
# 4 0.0000 0.0000 0.0000 30.4387 0.0000 0.0000
# 5 0.0000 0.0000 0.0000 0.0000 32.2201 0.0000
# 6 0.0000 0.0000 0.0000 0.0000 0.0000 71.2645
#
#
#
# Elastic Compliance Matrix: (Units=1/GPa)
#
#
# Indices 1 2 3 4 5 6 
#
# 1 0.008677 -0.003815 -0.003196 0.000000 0.000000 0.000000
# 2 -0.003815 0.014720 -0.002434 0.000000 0.000000 0.000000
# 3 -0.003196 -0.002434 0.012910 0.000000 0.000000 0.000000
# 4 0.000000 0.000000 0.000000 0.032853 0.000000 0.000000
# 5 0.000000 0.000000 0.000000 0.000000 0.031037 0.000000
# 6 0.000000 0.000000 0.000000 0.000000 0.000000 0.014032
#
#
# Mechanical properties :
#
#
# Convention : Reuss Voigt Hill
#
# Bulk Modulus (GPa) = 57.41175 64.11229 60.76202
# Shear Modulus (GPa) = 35.99095 40.80843 38.39969
#
# Velocity S-wave (km/s) = 3.89706 4.14968 4.02535
# Velocity P-wave (km/s) = 6.66898 7.07200 6.87345
#
# Compressibility (1/GPa) = 0.01741804
#
# Stress axis : x y z
#
# Youngs Moduli (GPa) = 115.24549 67.93537 77.45910
#
# Poissons Ratio (x) = 0.25914 0.24753
# Poissons Ratio (y) = 0.43961 0.18856
# Poissons Ratio (z) = 0.36828 0.16538
#
# Static dielectric constant tensor:
#      x y z
#    x 1.916350 0.000000 0.000000 
#    y 0.000000 1.947040 0.000000 
#    z 0.000000 0.000000 1.933520 
# 
# From -- ./inp_files/6516.got.cif
#   From: 2010.05.17/outbox.cif.g08.bks.cpg/sg60_4_cif.got.tgz:6516.got - 2010.06.03 14:59:27.
