data_PCOD9457107
_publ_section_title
;
Structure prediction by ZEFSAII (Michael W. Deem and Ramdas Pophale) SiO2 
 PCOD9457107
Probable space group: P B C N
;
_chemical_formula_sum "Si O2"
_cell_formula_units_Z 56
_cell_length_a 15.713535
_cell_length_b 7.561968
_cell_length_c 19.782235
_cell_angle_alpha 90.000000
_cell_angle_beta 90.000000
_cell_angle_gamma 90.000000
_cell_volume 2350.628996
_symmetry_space_group_name_H-M "P B C N"
_symmetry_group_IT_number 60
_symmetry_cell_setting 'orthorhombic'
loop_
_space_group_symop_operation_xyz
x,y,z
1/2-x,1/2-y,1/2+z
1/2+x,1/2-y,-z
-x,y,1/2-z
-x,-y,-z
1/2+x,1/2+y,1/2-z
1/2-x,1/2+y,z
x,-y,1/2+z
loop_
_atom_site_type_symbol
_atom_site_label
_atom_site_fract_x
_atom_site_fract_y
_atom_site_fract_z
Si Si1 0.787709 0.233344 0.472420
Si Si2 0.646153 0.145616 0.262159
Si Si3 0.825306 0.723022 0.824684
Si Si4 0.048716 0.948741 0.167909
Si Si5 0.388856 0.638020 0.525922
Si Si6 0.386139 0.386192 0.876052
Si Si7 0.710687 0.755145 0.622435
O O1 0.816028 0.326418 0.403679
O O2 0.837204 0.047897 0.473055
O O3 0.685565 0.217965 0.465957
O O4 0.801016 0.322884 0.545628
O O5 0.733362 0.225801 0.294465
O O6 0.574710 0.281066 0.287579
O O7 0.660000 0.150978 0.182014
O O8 0.636083 0.946092 0.287496
O O9 0.879734 0.901857 0.822200
O O10 0.050715 0.872474 0.090501
O O11 0.960789 0.057223 0.174011
O O12 0.424926 0.656823 0.450237
O O13 0.327254 0.559680 0.879574
O O14 0.311509 0.247730 0.860440
#
# Coordination Sequence:
#
# PCOD9457107 Si02
#       7
#     8   8   8   8   8   8   8
#     4   9  17  34  61  92 125 174 220 261 329 400
#     4  12  22  40  68  97 133 179 222 273 342 397
#     4  11  21  39  67  99 131 175 223 272 332 399
#     4  11  23  39  69 100 136 169 227 282 327 397
#     4   9  17  33  63  96 128 169 219 272 329 387
#     4  10  22  43  66  93 131 180 217 276 340 394
#     4  10  23  42  65  89 133 174 219 270 342 407
#
# _framework density 23.823411
#
# number of rings (size 3 to 8) (size 9 to 14) (size 15 to 20)
#    0.000    1.714    2.857    2.143    0.000    0.571 
#    2.571    0.000    3.143    3.429    0.000    0.000 
#    0.000    0.000    0.000    0.000    0.000    0.000 
#
# Total GULP energy -312952.670087 kJ/mol
# GULP energy per Si atom -5588.440537 kJ/mol
# Density = 2.376919 g / cm^3
# Si number density = 23.823411 Si / 1000 Ang^3
#
#
#
# Elastic Constant Matrix: (Units=GPa)
#
#
# Indices 1 2 3 4 5 6 
#
# 1 64.3050 -9.8779 9.3706 0.0000 0.0000 0.0000
# 2 -9.8779 72.9506 29.2643 0.0000 0.0000 0.0000
# 3 9.3706 29.2643 126.1382 0.0000 0.0000 0.0000
# 4 0.0000 0.0000 0.0000 25.5875 0.0000 0.0000
# 5 0.0000 0.0000 0.0000 0.0000 30.7794 0.0000
# 6 0.0000 0.0000 0.0000 0.0000 0.0000 18.4871
#
#
#
# Elastic Compliance Matrix: (Units=1/GPa)
#
#
# Indices 1 2 3 4 5 6 
#
# 1 0.016283 0.002966 -0.001898 0.000000 0.000000 0.000000
# 2 0.002966 0.015655 -0.003852 0.000000 0.000000 0.000000
# 3 -0.001898 -0.003852 0.008963 0.000000 0.000000 0.000000
# 4 0.000000 0.000000 0.000000 0.039082 0.000000 0.000000
# 5 0.000000 0.000000 0.000000 0.000000 0.032489 0.000000
# 6 0.000000 0.000000 0.000000 0.000000 0.000000 0.054092
#
#
# Mechanical properties :
#
#
# Convention : Reuss Voigt Hill
#
# Bulk Modulus (GPa) = 28.30255 35.65644 31.97949
# Shear Modulus (GPa) = 27.18740 30.61324 28.90032
#
# Velocity S-wave (km/s) = 3.38184 3.58859 3.48675
# Velocity P-wave (km/s) = 5.21105 5.67187 5.44633
#
# Compressibility (1/GPa) = 0.03533251
#
# Stress axis : x y z
#
# Youngs Moduli (GPa) = 61.41355 63.87775 111.57556
#
# Poissons Ratio (x) = -0.18947 0.21175
# Poissons Ratio (y) = -0.18216 0.42982
# Poissons Ratio (z) = 0.11655 0.24608
#
# Static dielectric constant tensor:
#      x y z
#    x 1.902640 0.000000 0.000000 
#    y 0.000000 1.917510 0.000000 
#    z 0.000000 0.000000 1.980180 
# 
# From -- ./inp_files/22890.got.cif
#   From: 2010.05.17/outbox.cif.g08.bks.cpg/sg60_12_cif.got.tgz:22890.got - 2010.06.03 14:59:27.
