data_PCOD9457057
_publ_section_title
;
Structure prediction by ZEFSAII (Michael W. Deem and Ramdas Pophale) SiO2 
 PCOD9457057
Probable space group: P B C N
;
_chemical_formula_sum "Si O2"
_cell_formula_units_Z 60
_cell_length_a 11.222275
_cell_length_b 8.758421
_cell_length_c 24.407666
_cell_angle_alpha 90.000000
_cell_angle_beta 90.000000
_cell_angle_gamma 90.000000
_cell_volume 2399.015067
_symmetry_space_group_name_H-M "P B C N"
_symmetry_group_IT_number 60
_symmetry_cell_setting 'orthorhombic'
loop_
_space_group_symop_operation_xyz
x,y,z
1/2-x,1/2-y,1/2+z
1/2+x,1/2-y,-z
-x,y,1/2-z
-x,-y,-z
1/2+x,1/2+y,1/2-z
1/2-x,1/2+y,z
x,-y,1/2+z
loop_
_atom_site_type_symbol
_atom_site_label
_atom_site_fract_x
_atom_site_fract_y
_atom_site_fract_z
Si Si1 0.864076 0.756199 0.105980
Si Si2 0.513481 0.463525 0.564399
Si Si3 0.866438 0.993724 0.766394
Si Si4 0.254341 0.661440 0.064537
Si Si5 0.255314 0.907760 0.985142
Si Si6 0.171646 0.320943 0.681336
Si Si7 0.816217 0.548729 0.668989
Si Si8 0.500000 0.045121 0.750000
O O1 0.860794 0.675380 0.046613
O O2 0.744856 0.850763 0.122270
O O3 0.867425 0.613760 0.147685
O O4 0.965088 0.886219 0.101344
O O5 0.500000 0.500000 0.500000
O O6 0.393864 0.371431 0.578273
O O7 0.646261 0.393476 0.557826
O O8 0.856819 0.148087 0.802470
O O9 0.791002 0.019910 0.711171
O O10 0.000000 0.967137 0.750000
O O11 0.805348 0.855628 0.798219
O O12 0.173167 0.636470 0.117360
O O13 0.235814 0.833834 0.044796
O O14 0.222382 0.577291 0.007059
O O15 0.090124 0.435120 0.716582
O O16 0.920532 0.627960 0.704211
#
# Coordination Sequence:
#
# PCOD9457057 Si02
#       8
#     8   8   8   8   8   8   8   4
#     4  12  22  43  70 103 138 193 238 299 372 450
#     4  10  22  42  68  98 147 187 229 297 360 434
#     4  11  25  48  72 105 146 191 248 320 372 451
#     4  11  24  43  71 106 141 196 241 295 370 454
#     4  11  21  44  66 103 147 176 247 294 353 455
#     4  11  24  47  73 106 147 195 251 304 388 438
#     4  11  25  44  70 103 138 195 247 297 381 440
#     4  10  24  48  64 102 148 180 248 324 354 446
#
# _framework density 25.010263999999999
#
# number of rings (size 3 to 8) (size 9 to 14) (size 15 to 20)
#    0.000    1.067    4.667    2.400    1.867    2.133 
#   18.000    0.667    0.000    0.000    0.000    0.000 
#    0.000    0.000    0.000    0.000    0.000    0.000 
#
# Total GULP energy -335283.558612 kJ/mol
# GULP energy per Si atom -5588.059310 kJ/mol
# Density = 2.495334 g / cm^3
# Si number density = 25.010264 Si / 1000 Ang^3
#
#
#
# Elastic Constant Matrix: (Units=GPa)
#
#
# Indices 1 2 3 4 5 6 
#
# 1 102.8100 22.4814 37.9670 0.0000 0.0000 0.0000
# 2 22.4814 57.1513 20.6244 0.0000 0.0000 0.0000
# 3 37.9670 20.6244 131.1689 0.0000 0.0000 0.0000
# 4 0.0000 0.0000 0.0000 42.0736 0.0000 0.0000
# 5 0.0000 0.0000 0.0000 0.0000 48.8189 0.0000
# 6 0.0000 0.0000 0.0000 0.0000 0.0000 24.3744
#
#
#
# Elastic Compliance Matrix: (Units=1/GPa)
#
#
# Indices 1 2 3 4 5 6 
#
# 1 0.011526 -0.003530 -0.002781 0.000000 0.000000 0.000000
# 2 -0.003530 0.019631 -0.002065 0.000000 0.000000 0.000000
# 3 -0.002781 -0.002065 0.008753 0.000000 0.000000 0.000000
# 4 0.000000 0.000000 0.000000 0.023768 0.000000 0.000000
# 5 0.000000 0.000000 0.000000 0.000000 0.020484 0.000000
# 6 0.000000 0.000000 0.000000 0.000000 0.000000 0.041027
#
#
# Mechanical properties :
#
#
# Convention : Reuss Voigt Hill
#
# Bulk Modulus (GPa) = 43.18158 50.36395 46.77277
# Shear Modulus (GPa) = 33.40897 37.05719 35.23308
#
# Velocity S-wave (km/s) = 3.65884 3.85343 3.75740
# Velocity P-wave (km/s) = 5.92895 6.32295 6.12912
#
# Compressibility (1/GPa) = 0.02315802
#
# Stress axis : x y z
#
# Youngs Moduli (GPa) = 86.76306 50.93921 114.24117
#
# Poissons Ratio (x) = 0.17983 0.31771
# Poissons Ratio (y) = 0.30629 0.23590
# Poissons Ratio (z) = 0.24129 0.10518
#
# Static dielectric constant tensor:
#      x y z
#    x 2.088190 0.000000 0.000000 
#    y 0.000000 1.958490 0.000000 
#    z 0.000000 0.000000 2.000470 
# 
# From -- ./inp_files/25350.got.cif
#   From: 2010.05.17/outbox.cif.g08.bks.cpg/sg60_13_cif.got.tgz:25350.got - 2010.06.03 14:59:27.
