data_PCOD9457771
_publ_section_title
;
Structure prediction by ZEFSAII (Michael W. Deem and Ramdas Pophale) SiO2 
 PCOD9457771
Probable space group: P B C N
;
_chemical_formula_sum "Si O2"
_cell_formula_units_Z 60
_cell_length_a 10.207173
_cell_length_b 9.938365
_cell_length_c 24.396577
_cell_angle_alpha 90.000000
_cell_angle_beta 90.000000
_cell_angle_gamma 90.000000
_cell_volume 2474.852468
_symmetry_space_group_name_H-M "P B C N"
_symmetry_group_IT_number 60
_symmetry_cell_setting 'orthorhombic'
loop_
_space_group_symop_operation_xyz
x,y,z
1/2-x,1/2-y,1/2+z
1/2+x,1/2-y,-z
-x,y,1/2-z
-x,-y,-z
1/2+x,1/2+y,1/2-z
1/2-x,1/2+y,z
x,-y,1/2+z
loop_
_atom_site_type_symbol
_atom_site_label
_atom_site_fract_x
_atom_site_fract_y
_atom_site_fract_z
Si Si1 0.668720 0.001078 0.836447
Si Si2 0.379838 0.138916 0.559345
Si Si3 0.481705 0.790603 0.893746
Si Si4 0.719946 0.620723 0.234934
Si Si5 0.500000 0.175168 0.750000
Si Si6 0.837478 0.484300 0.054658
Si Si7 0.896440 0.862488 0.204551
Si Si8 0.918631 0.869811 0.013466
O O1 0.700677 0.101578 0.886308
O O2 0.577159 0.083019 0.793509
O O3 0.589074 0.884530 0.866730
O O4 0.775539 0.929560 0.798132
O O5 0.534870 0.105917 0.567805
O O6 0.367161 0.291500 0.539622
O O7 0.343398 0.045925 0.507165
O O8 0.459966 0.668008 0.853118
O O9 0.511930 0.733853 0.953770
O O10 0.355953 0.887756 0.905146
O O11 0.602115 0.722110 0.222438
O O12 0.843122 0.717034 0.224186
O O13 0.709297 0.481643 0.202001
O O14 0.702766 0.404370 0.053173
O O15 0.000000 0.907888 0.250000
O O16 0.000000 0.000000 0.000000
#
# Coordination Sequence:
#
# PCOD9457771 Si02
#       8
#     8   8   8   8   4   8   8   8
#     4  11  23  48  71 101 147 195 240 301 374 429
#     4   9  22  43  70  96 137 188 230 292 364 431
#     4  10  24  44  73  97 138 191 238 295 365 427
#     4  12  26  44  71 104 147 190 243 304 357 440
#     4  12  26  44  68 110 144 182 248 296 362 442
#     4   9  21  45  67  99 138 179 237 290 357 430
#     4  12  25  46  71 105 148 190 243 300 360 434
#     4  11  25  43  69 108 142 180 245 305 357 439
#
# _framework density 24.243869
#
# number of rings (size 3 to 8) (size 9 to 14) (size 15 to 20)
#    0.000    1.333    3.333    1.600    5.600    3.200 
#    4.800    0.000    0.000    0.000    0.000    0.000 
#    0.000    0.000    0.000    0.000    0.000    0.000 
#
# Total GULP energy -335517.606644 kJ/mol
# GULP energy per Si atom -5591.960111 kJ/mol
# Density = 2.418869 g / cm^3
# Si number density = 24.243869 Si / 1000 Ang^3
#
#
#
# Elastic Constant Matrix: (Units=GPa)
#
#
# Indices 1 2 3 4 5 6 
#
# 1 46.6126 18.1437 -7.2699 0.0000 0.0000 0.0000
# 2 18.1437 136.2363 21.2942 0.0000 0.0000 0.0000
# 3 -7.2699 21.2942 59.0656 0.0000 0.0000 0.0000
# 4 0.0000 0.0000 0.0000 33.5649 0.0000 0.0000
# 5 0.0000 0.0000 0.0000 0.0000 29.8889 0.0000
# 6 0.0000 0.0000 0.0000 0.0000 0.0000 32.6875
#
#
#
# Elastic Compliance Matrix: (Units=1/GPa)
#
#
# Indices 1 2 3 4 5 6 
#
# 1 0.023605 -0.003813 0.004280 0.000000 0.000000 0.000000
# 2 -0.003813 0.008394 -0.003496 0.000000 0.000000 0.000000
# 3 0.004280 -0.003496 0.018717 0.000000 0.000000 0.000000
# 4 0.000000 0.000000 0.000000 0.029793 0.000000 0.000000
# 5 0.000000 0.000000 0.000000 0.000000 0.033457 0.000000
# 6 0.000000 0.000000 0.000000 0.000000 0.000000 0.030593
#
#
# Mechanical properties :
#
#
# Convention : Reuss Voigt Hill
#
# Bulk Modulus (GPa) = 22.39142 34.02784 28.20963
# Shear Modulus (GPa) = 30.21096 33.21137 31.71116
#
# Velocity S-wave (km/s) = 3.53388 3.70521 3.62056
# Velocity P-wave (km/s) = 5.08990 5.68955 5.39806
#
# Compressibility (1/GPa) = 0.04465997
#
# Stress axis : x y z
#
# Youngs Moduli (GPa) = 42.36394 119.12825 53.42647
#
# Poissons Ratio (x) = 0.45419 -0.22866
# Poissons Ratio (y) = 0.16152 0.18676
# Poissons Ratio (z) = -0.18131 0.41642
#
# Static dielectric constant tensor:
#      x y z
#    x 1.979010 0.000000 0.000000 
#    y 0.000000 1.919070 0.000000 
#    z 0.000000 0.000000 1.924710 
# 
# From -- ./inp_files/25356.got.cif
#   From: 2010.05.17/outbox.cif.g08.bks.cpg/sg60_13_cif.got.tgz:25356.got - 2010.06.03 14:59:27.
