data_PCOD9457809
_publ_section_title
;
Structure prediction by ZEFSAII (Michael W. Deem and Ramdas Pophale) SiO2 
 PCOD9457809
Probable space group: P B C N
;
_chemical_formula_sum "Si O2"
_cell_formula_units_Z 32
_cell_length_a 9.367124
_cell_length_b 9.055843
_cell_length_c 13.270565
_cell_angle_alpha 90.000000
_cell_angle_beta 90.000000
_cell_angle_gamma 90.000000
_cell_volume 1125.704929
_symmetry_space_group_name_H-M "P B C N"
_symmetry_group_IT_number 60
_symmetry_cell_setting 'orthorhombic'
loop_
_space_group_symop_operation_xyz
x,y,z
1/2-x,1/2-y,1/2+z
1/2+x,1/2-y,-z
-x,y,1/2-z
-x,-y,-z
1/2+x,1/2+y,1/2-z
1/2-x,1/2+y,z
x,-y,1/2+z
loop_
_atom_site_type_symbol
_atom_site_label
_atom_site_fract_x
_atom_site_fract_y
_atom_site_fract_z
Si Si1 0.274996 0.862915 0.647783
Si Si2 0.041261 0.165316 0.534206
Si Si3 0.676040 0.396996 0.206977
Si Si4 0.025422 0.598285 0.864857
O O1 0.303243 0.737966 0.559593
O O2 0.281532 0.754195 0.740954
O O3 0.167447 0.983720 0.700248
O O4 0.412829 0.966075 0.621916
O O5 0.950435 0.161870 0.636715
O O6 0.997208 0.268491 0.440378
O O7 0.000000 0.000000 0.500000
O O8 0.808232 0.449512 0.135866
O O9 0.000000 0.646865 0.750000
#
# Coordination Sequence:
#
# PCOD9457809 Si02
#       4
#     8   8   8   8
#     4  11  26  47  72 103 146 196 256 320 390 470
#     4  12  26  43  72 112 147 195 259 317 391 477
#     4  11  23  46  71 100 147 199 244 319 395 456
#     4  10  24  46  69 103 148 192 248 318 382 465
#
# _framework density 28.426632000000001
#
# number of rings (size 3 to 8) (size 9 to 14) (size 15 to 20)
#    0.000    1.000    0.000    7.500    0.000   12.000 
#    0.000    0.000    0.000    0.000    0.000    0.000 
#    0.000    0.000    0.000    0.000    0.000    0.000 
#
# Total GULP energy -178235.129999 kJ/mol
# GULP energy per Si atom -5569.847812 kJ/mol
# Density = 2.836193 g / cm^3
# Si number density = 28.426632 Si / 1000 Ang^3
#
#
#
# Elastic Constant Matrix: (Units=GPa)
#
#
# Indices 1 2 3 4 5 6 
#
# 1 82.0324 2.7628 11.4717 0.0000 0.0000 0.0000
# 2 2.7628 188.4835 68.8316 0.0000 0.0000 0.0000
# 3 11.4717 68.8316 103.3599 0.0000 0.0000 0.0000
# 4 0.0000 0.0000 0.0000 87.4156 0.0000 0.0000
# 5 0.0000 0.0000 0.0000 0.0000 32.5225 0.0000
# 6 0.0000 0.0000 0.0000 0.0000 0.0000 33.5681
#
#
#
# Elastic Compliance Matrix: (Units=1/GPa)
#
#
# Indices 1 2 3 4 5 6 
#
# 1 0.012408 0.000424 -0.001660 0.000000 0.000000 0.000000
# 2 0.000424 0.007025 -0.004725 0.000000 0.000000 0.000000
# 3 -0.001660 -0.004725 0.013006 0.000000 0.000000 0.000000
# 4 0.000000 0.000000 0.000000 0.011440 0.000000 0.000000
# 5 0.000000 0.000000 0.000000 0.000000 0.030748 0.000000
# 6 0.000000 0.000000 0.000000 0.000000 0.000000 0.029790
#
#
# Mechanical properties :
#
#
# Convention : Reuss Voigt Hill
#
# Bulk Modulus (GPa) = 48.73891 60.00090 54.36991
# Shear Modulus (GPa) = 40.59197 50.08856 45.34027
#
# Velocity S-wave (km/s) = 3.78293 4.20221 3.99807
# Velocity P-wave (km/s) = 6.02192 6.68564 6.36244
#
# Compressibility (1/GPa) = 0.02051749
#
# Stress axis : x y z
#
# Youngs Moduli (GPa) = 80.59250 142.35116 76.88837
#
# Poissons Ratio (x) = -0.06039 0.12761
# Poissons Ratio (y) = -0.03419 0.36332
# Poissons Ratio (z) = 0.13375 0.67264
#
# Static dielectric constant tensor:
#      x y z
#    x 2.520620 0.000000 0.000000 
#    y 0.000000 2.162620 0.000000 
#    z 0.000000 0.000000 2.314260 
# 
# From -- ./inp_files/15571.got.cif
#   From: 2010.05.17/outbox.cif.g08.bks.cpg/sg60_8_cif.got.tgz:15571.got - 2010.06.03 14:59:27.
