data_PCOD9457241
_publ_section_title
;
Structure prediction by ZEFSAII (Michael W. Deem and Ramdas Pophale) SiO2 
 PCOD9457241
Probable space group: P B C N
;
_chemical_formula_sum "Si O2"
_cell_formula_units_Z 48
_cell_length_a 8.618480
_cell_length_b 8.345929
_cell_length_c 29.669595
_cell_angle_alpha 90.000000
_cell_angle_beta 90.000000
_cell_angle_gamma 90.000000
_cell_volume 2134.110890
_symmetry_space_group_name_H-M "P B C N"
_symmetry_group_IT_number 60
_symmetry_cell_setting 'orthorhombic'
loop_
_space_group_symop_operation_xyz
x,y,z
1/2-x,1/2-y,1/2+z
1/2+x,1/2-y,-z
-x,y,1/2-z
-x,-y,-z
1/2+x,1/2+y,1/2-z
1/2-x,1/2+y,z
x,-y,1/2+z
loop_
_atom_site_type_symbol
_atom_site_label
_atom_site_fract_x
_atom_site_fract_y
_atom_site_fract_z
Si Si1 0.262809 0.712633 0.909080
Si Si2 0.052789 0.072214 0.453238
Si Si3 0.074735 0.748054 0.622494
Si Si4 0.406104 0.812894 0.822277
Si Si5 0.677860 0.556707 0.825571
Si Si6 0.347193 0.119610 0.765948
O O1 0.374227 0.567547 0.921926
O O2 0.355661 0.823096 0.874235
O O3 0.100625 0.682876 0.882531
O O4 0.196286 0.801415 0.953507
O O5 0.000000 0.000000 0.500000
O O6 0.914979 0.162393 0.426154
O O7 0.195505 0.613148 0.637209
O O8 0.096989 0.893172 0.658164
O O9 0.557000 0.702285 0.821240
O O10 0.273336 0.719651 0.794696
O O11 0.416504 0.979233 0.796841
O O12 0.758538 0.546291 0.777031
O O13 0.500000 0.215130 0.750000
#
# Coordination Sequence:
#
# PCOD9457241 Si02
#       6
#     8   8   8   8   8   8
#     4  10  22  46  70 101 139 185 224 288 358 425
#     4  10  23  46  73 105 136 178 234 287 366 428
#     4  10  24  42  70  99 145 180 233 289 357 420
#     4  12  23  42  66  94 140 182 233 290 343 413
#     4  12  23  44  66 105 141 188 246 290 353 415
#     4  12  25  38  62  96 138 189 239 284 337 405
#
# _framework density 22.491803999999998
#
# number of rings (size 3 to 8) (size 9 to 14) (size 15 to 20)
#    1.000    0.000    1.667    6.500    0.000    4.000 
#    0.000    0.833    0.000    0.000    0.000    0.000 
#    0.000    0.000    0.000    0.000    0.000    0.000 
#
# Total GULP energy -268050.153105 kJ/mol
# GULP energy per Si atom -5584.378190 kJ/mol
# Density = 2.244061 g / cm^3
# Si number density = 22.491804 Si / 1000 Ang^3
#
#
#
# Elastic Constant Matrix: (Units=GPa)
#
#
# Indices 1 2 3 4 5 6 
#
# 1 93.1008 19.7791 32.1543 0.0000 0.0000 0.0000
# 2 19.7791 66.2360 16.3972 0.0000 0.0000 0.0000
# 3 32.1543 16.3972 80.5413 0.0000 0.0000 0.0000
# 4 0.0000 0.0000 0.0000 33.5149 0.0000 0.0000
# 5 0.0000 0.0000 0.0000 0.0000 39.1774 0.0000
# 6 0.0000 0.0000 0.0000 0.0000 0.0000 31.4086
#
#
#
# Elastic Compliance Matrix: (Units=1/GPa)
#
#
# Indices 1 2 3 4 5 6 
#
# 1 0.012907 -0.002715 -0.004600 0.000000 0.000000 0.000000
# 2 -0.002715 0.016470 -0.002269 0.000000 0.000000 0.000000
# 3 -0.004600 -0.002269 0.014714 0.000000 0.000000 0.000000
# 4 0.000000 0.000000 0.000000 0.029837 0.000000 0.000000
# 5 0.000000 0.000000 0.000000 0.000000 0.025525 0.000000
# 6 0.000000 0.000000 0.000000 0.000000 0.000000 0.031838
#
#
# Mechanical properties :
#
#
# Convention : Reuss Voigt Hill
#
# Bulk Modulus (GPa) = 40.12446 41.83771 40.98109
# Shear Modulus (GPa) = 31.49253 32.25669 31.87461
#
# Velocity S-wave (km/s) = 3.74595 3.79113 3.76861
# Velocity P-wave (km/s) = 6.04879 6.14860 6.09890
#
# Compressibility (1/GPa) = 0.02492245
#
# Stress axis : x y z
#
# Youngs Moduli (GPa) = 77.47993 60.71602 67.96099
#
# Poissons Ratio (x) = 0.16487 0.31261
# Poissons Ratio (y) = 0.21039 0.15421
# Poissons Ratio (z) = 0.35640 0.13777
#
# Static dielectric constant tensor:
#      x y z
#    x 1.855550 0.000000 0.000000 
#    y 0.000000 1.868000 0.000000 
#    z 0.000000 0.000000 1.834320 
# 
# From -- ./inp_files/25936.got.cif
#   From: 2010.05.17/outbox.cif.g08.bks.cpg/sg60_13_cif.got.tgz:25936.got - 2010.06.03 14:59:27.
