data_PCOD9457435
_publ_section_title
;
Structure prediction by ZEFSAII (Michael W. Deem and Ramdas Pophale) SiO2 
 PCOD9457435
Probable space group: P B C N
;
_chemical_formula_sum "Si O2"
_cell_formula_units_Z 28
_cell_length_a 16.206475
_cell_length_b 7.773191
_cell_length_c 8.676718
_cell_angle_alpha 90.000000
_cell_angle_beta 90.000000
_cell_angle_gamma 90.000000
_cell_volume 1093.058449
_symmetry_space_group_name_H-M "P B C N"
_symmetry_group_IT_number 60
_symmetry_cell_setting 'orthorhombic'
loop_
_space_group_symop_operation_xyz
x,y,z
1/2-x,1/2-y,1/2+z
1/2+x,1/2-y,-z
-x,y,1/2-z
-x,-y,-z
1/2+x,1/2+y,1/2-z
1/2-x,1/2+y,z
x,-y,1/2+z
loop_
_atom_site_type_symbol
_atom_site_label
_atom_site_fract_x
_atom_site_fract_y
_atom_site_fract_z
Si Si1 0.660412 0.826660 0.165326
Si Si2 0.337706 0.571318 0.832443
Si Si3 0.403319 0.868977 0.022845
Si Si4 0.000000 0.763846 0.250000
O O1 0.749443 0.878263 0.235798
O O2 0.660027 0.627388 0.125392
O O3 0.591990 0.861852 0.295429
O O4 0.643949 0.960545 0.029928
O O5 0.349051 0.699934 0.977227
O O6 0.417887 0.621489 0.731585
O O7 0.480818 0.840006 0.907525
#
# Coordination Sequence:
#
# PCOD9457435 Si02
#       4
#     8   8   8   4
#     4  12  24  42  74  95 140 178 231 278 341 399
#     4  10  23  43  64 103 134 181 221 285 328 413
#     4  10  26  44  68 105 130 182 225 280 337 410
#     4   8  22  50  60 106 140 168 238 270 352 394
#
# _framework density 25.616199000000002
#
# number of rings (size 3 to 8) (size 9 to 14) (size 15 to 20)
#    1.714    0.000    2.857    0.000    4.000    5.714 
#    0.000    0.000    0.000    0.000    0.000    0.000 
#    0.000    0.000    0.000    0.000    0.000    0.000 
#
# Total GULP energy -156630.038416 kJ/mol
# GULP energy per Si atom -5593.929943 kJ/mol
# Density = 2.555789 g / cm^3
# Si number density = 25.616199 Si / 1000 Ang^3
#
#
#
# Elastic Constant Matrix: (Units=GPa)
#
#
# Indices 1 2 3 4 5 6 
#
# 1 164.4980 58.1665 15.1054 0.0000 0.0000 0.0000
# 2 58.1665 218.8541 39.7354 0.0000 0.0000 0.0000
# 3 15.1054 39.7354 67.8411 0.0000 0.0000 0.0000
# 4 0.0000 0.0000 0.0000 13.9855 0.0000 0.0000
# 5 0.0000 0.0000 0.0000 0.0000 24.3689 0.0000
# 6 0.0000 0.0000 0.0000 0.0000 0.0000 24.5335
#
#
#
# Elastic Compliance Matrix: (Units=1/GPa)
#
#
# Indices 1 2 3 4 5 6 
#
# 1 0.006725 -0.001696 -0.000504 0.000000 0.000000 0.000000
# 2 -0.001696 0.005541 -0.002868 0.000000 0.000000 0.000000
# 3 -0.000504 -0.002868 0.016532 0.000000 0.000000 0.000000
# 4 0.000000 0.000000 0.000000 0.071503 0.000000 0.000000
# 5 0.000000 0.000000 0.000000 0.000000 0.041036 0.000000
# 6 0.000000 0.000000 0.000000 0.000000 0.000000 0.040761
#
#
# Mechanical properties :
#
#
# Convention : Reuss Voigt Hill
#
# Bulk Modulus (GPa) = 53.58285 75.24532 64.41409
# Shear Modulus (GPa) = 25.19487 35.12331 30.15909
#
# Velocity S-wave (km/s) = 3.13957 3.70690 3.43497
# Velocity P-wave (km/s) = 5.83999 6.91082 6.39785
#
# Compressibility (1/GPa) = 0.01866269
#
# Stress axis : x y z
#
# Youngs Moduli (GPa) = 148.69799 180.48525 60.48815
#
# Poissons Ratio (x) = 0.30607 0.03049
# Poissons Ratio (y) = 0.25217 0.17346
# Poissons Ratio (z) = 0.07496 0.51756
#
# Static dielectric constant tensor:
#      x y z
#    x 2.123870 0.000000 0.000000 
#    y 0.000000 1.953340 0.000000 
#    z 0.000000 0.000000 2.007740 
# 
# From -- ./inp_files/6448.got.cif
#   From: 2010.05.17/outbox.cif.g08.bks.cpg/sg60_4_cif.got.tgz:6448.got - 2010.06.03 14:59:27.
