data_PCOD9457280
_publ_section_title
;
Structure prediction by ZEFSAII (Michael W. Deem and Ramdas Pophale) SiO2 
 PCOD9457280
Probable space group: P B C N
;
_chemical_formula_sum "Si O2"
_cell_formula_units_Z 56
_cell_length_a 14.890992
_cell_length_b 17.296668
_cell_length_c 9.291137
_cell_angle_alpha 90.000000
_cell_angle_beta 90.000000
_cell_angle_gamma 90.000000
_cell_volume 2393.067472
_symmetry_space_group_name_H-M "P B C N"
_symmetry_group_IT_number 60
_symmetry_cell_setting 'orthorhombic'
loop_
_space_group_symop_operation_xyz
x,y,z
1/2-x,1/2-y,1/2+z
1/2+x,1/2-y,-z
-x,y,1/2-z
-x,-y,-z
1/2+x,1/2+y,1/2-z
1/2-x,1/2+y,z
x,-y,1/2+z
loop_
_atom_site_type_symbol
_atom_site_label
_atom_site_fract_x
_atom_site_fract_y
_atom_site_fract_z
Si Si1 0.695968 0.291325 0.339004
Si Si2 0.000000 0.957914 0.750000
Si Si3 0.613012 0.987533 0.904232
Si Si4 0.279809 0.043802 0.348968
Si Si5 0.000000 0.618136 0.750000
Si Si6 0.111299 0.059686 0.516572
Si Si7 0.162117 0.285016 0.935484
Si Si8 0.045393 0.323024 0.538730
O O1 0.658787 0.371598 0.398253
O O2 0.694350 0.283316 0.168223
O O3 0.793054 0.276544 0.408751
O O4 0.623720 0.228889 0.396467
O O5 0.059721 0.011327 0.640289
O O6 0.051692 0.911697 0.877798
O O7 0.704702 0.976562 0.815264
O O8 0.563292 0.062264 0.843804
O O9 0.557651 0.908803 0.895144
O O10 0.638595 0.003102 0.067687
O O11 0.188840 0.017051 0.424210
O O12 0.295818 0.135148 0.372579
O O13 0.052922 0.668201 0.866691
O O14 0.054699 0.291555 0.932886
#
# Coordination Sequence:
#
# PCOD9457280 Si02
#       8
#     8   4   8   8   4   8   8   8
#     4  11  27  46  69 100 134 185 227 279 345 406
#     4  10  22  49  71 104 124 174 238 288 348 406
#     4  12  22  39  67 102 139 180 218 271 341 417
#     4  11  22  41  65 100 139 173 223 279 340 398
#     4  12  24  37  65 106 136 180 226 272 334 414
#     4  10  24  45  73  99 134 174 228 296 343 409
#     4  11  25  46  65  95 138 177 231 279 334 414
#     4  12  25  42  70  99 144 183 227 281 343 411
#
# _framework density 23.400925999999998
#
# number of rings (size 3 to 8) (size 9 to 14) (size 15 to 20)
#    0.000    0.857    4.286    2.571    4.000    0.571 
#    5.143    0.000    0.000    0.000    0.000    0.000 
#    0.000    0.000    0.000    0.000    0.000    0.000 
#
# Total GULP energy -312990.093411 kJ/mol
# GULP energy per Si atom -5589.108811 kJ/mol
# Density = 2.334766 g / cm^3
# Si number density = 23.400926 Si / 1000 Ang^3
#
#
#
# Elastic Constant Matrix: (Units=GPa)
#
#
# Indices 1 2 3 4 5 6 
#
# 1 78.7712 0.7700 16.4056 0.0000 0.0000 0.0000
# 2 0.7700 23.3985 5.0628 0.0000 0.0000 0.0000
# 3 16.4056 5.0628 103.7561 0.0000 0.0000 0.0000
# 4 0.0000 0.0000 0.0000 33.8092 0.0000 0.0000
# 5 0.0000 0.0000 0.0000 0.0000 51.1889 0.0000
# 6 0.0000 0.0000 0.0000 0.0000 0.0000 20.3415
#
#
#
# Elastic Compliance Matrix: (Units=1/GPa)
#
#
# Indices 1 2 3 4 5 6 
#
# 1 0.013127 0.000017 -0.002076 0.000000 0.000000 0.000000
# 2 0.000017 0.043194 -0.002110 0.000000 0.000000 0.000000
# 3 -0.002076 -0.002110 0.010069 0.000000 0.000000 0.000000
# 4 0.000000 0.000000 0.000000 0.029578 0.000000 0.000000
# 5 0.000000 0.000000 0.000000 0.000000 0.019535 0.000000
# 6 0.000000 0.000000 0.000000 0.000000 0.000000 0.049161
#
#
# Mechanical properties :
#
#
# Convention : Reuss Voigt Hill
#
# Bulk Modulus (GPa) = 17.22614 27.82253 22.52434
# Shear Modulus (GPa) = 25.99375 33.31374 29.65375
#
# Velocity S-wave (km/s) = 3.33648 3.77717 3.56364
# Velocity P-wave (km/s) = 4.71382 5.56219 5.15549
#
# Compressibility (1/GPa) = 0.05805129
#
# Stress axis : x y z
#
# Youngs Moduli (GPa) = 76.17719 23.15141 99.31181
#
# Poissons Ratio (x) = -0.00040 0.20622
# Poissons Ratio (y) = -0.00132 0.20959
# Poissons Ratio (z) = 0.15818 0.04886
#
# Static dielectric constant tensor:
#      x y z
#    x 1.939890 0.000000 0.000000 
#    y 0.000000 1.853310 0.000000 
#    z 0.000000 0.000000 1.880490 
# 
# From -- ./inp_files/6214.got.cif
#   From: 2010.05.17/outbox.cif.g08.bks.cpg/sg60_4_cif.got.tgz:6214.got - 2010.06.03 14:59:27.
