data_PCOD9457208
_publ_section_title
;
Structure prediction by ZEFSAII (Michael W. Deem and Ramdas Pophale) SiO2 
 PCOD9457208
Probable space group: P B C N
;
_chemical_formula_sum "Si O2"
_cell_formula_units_Z 40
_cell_length_a 11.494936
_cell_length_b 9.570987
_cell_length_c 15.534678
_cell_angle_alpha 90.000000
_cell_angle_beta 90.000000
_cell_angle_gamma 90.000000
_cell_volume 1709.092387
_symmetry_space_group_name_H-M "P B C N"
_symmetry_group_IT_number 60
_symmetry_cell_setting 'orthorhombic'
loop_
_space_group_symop_operation_xyz
x,y,z
1/2-x,1/2-y,1/2+z
1/2+x,1/2-y,-z
-x,y,1/2-z
-x,-y,-z
1/2+x,1/2+y,1/2-z
1/2-x,1/2+y,z
x,-y,1/2+z
loop_
_atom_site_type_symbol
_atom_site_label
_atom_site_fract_x
_atom_site_fract_y
_atom_site_fract_z
Si Si1 0.440172 0.854280 0.893404
Si Si2 0.259046 0.456584 0.789998
Si Si3 0.120409 0.949894 0.461445
Si Si4 0.348636 0.999094 0.556724
Si Si5 0.371303 0.205789 0.708737
O O1 0.366211 0.885960 0.809145
O O2 0.399936 0.706466 0.928612
O O3 0.578284 0.877749 0.895782
O O4 0.397983 0.972300 0.961228
O O5 0.333855 0.463289 0.878253
O O6 0.330798 0.364220 0.722776
O O7 0.222538 0.609976 0.759503
O O8 0.217055 0.961829 0.535501
O O9 0.000000 0.000000 0.500000
O O10 0.367981 0.137488 0.614171
O O11 0.500000 0.189070 0.750000
#
# Coordination Sequence:
#
# PCOD9457208 Si02
#       5
#     8   8   8   8   8
#     4  10  22  45  68  99 136 186 240 289 358 431
#     4  11  25  46  69 103 144 185 239 297 364 430
#     4  11  26  42  72 103 140 186 241 300 353 441
#     4  10  25  42  71 100 139 191 237 300 366 438
#     4  12  26  46  71 105 147 191 237 302 372 436
#
# _framework density 23.404235
#
# number of rings (size 3 to 8) (size 9 to 14) (size 15 to 20)
#    0.000    1.200    4.000    0.000   11.200    0.000 
#    0.000    1.000    0.000    0.000    0.000    0.000 
#    0.000    0.000    0.000    0.000    0.000    0.000 
#
# Total GULP energy -223640.425438 kJ/mol
# GULP energy per Si atom -5591.010636 kJ/mol
# Density = 2.335097 g / cm^3
# Si number density = 23.404235 Si / 1000 Ang^3
#
#
#
# Elastic Constant Matrix: (Units=GPa)
#
#
# Indices 1 2 3 4 5 6 
#
# 1 139.3535 26.8831 27.7992 0.0000 0.0000 0.0000
# 2 26.8831 69.0535 2.9902 0.0000 0.0000 0.0000
# 3 27.7992 2.9902 94.7102 0.0000 0.0000 0.0000
# 4 0.0000 0.0000 0.0000 32.1294 0.0000 0.0000
# 5 0.0000 0.0000 0.0000 0.0000 19.4090 0.0000
# 6 0.0000 0.0000 0.0000 0.0000 0.0000 39.1673
#
#
#
# Elastic Compliance Matrix: (Units=1/GPa)
#
#
# Indices 1 2 3 4 5 6 
#
# 1 0.008238 -0.003107 -0.002320 0.000000 0.000000 0.000000
# 2 -0.003107 0.015673 0.000417 0.000000 0.000000 0.000000
# 3 -0.002320 0.000417 0.011226 0.000000 0.000000 0.000000
# 4 0.000000 0.000000 0.000000 0.031124 0.000000 0.000000
# 5 0.000000 0.000000 0.000000 0.000000 0.051522 0.000000
# 6 0.000000 0.000000 0.000000 0.000000 0.000000 0.025531
#
#
# Mechanical properties :
#
#
# Convention : Reuss Voigt Hill
#
# Bulk Modulus (GPa) = 39.81187 46.49579 43.15383
# Shear Modulus (GPa) = 30.92006 34.50414 32.71210
#
# Velocity S-wave (km/s) = 3.63868 3.84379 3.74264
# Velocity P-wave (km/s) = 5.89074 6.29358 6.09549
#
# Compressibility (1/GPa) = 0.02511814
#
# Stress axis : x y z
#
# Youngs Moduli (GPa) = 121.38687 63.80423 89.07649
#
# Poissons Ratio (x) = 0.19822 0.20665
# Poissons Ratio (y) = 0.37711 -0.03715
# Poissons Ratio (z) = 0.28161 -0.02661
#
# Static dielectric constant tensor:
#      x y z
#    x 1.940740 0.000000 0.000000 
#    y 0.000000 1.845030 0.000000 
#    z 0.000000 0.000000 1.860730 
# 
# From -- ./inp_files/19829.got.cif
#   From: 2010.05.17/outbox.cif.g08.bks.cpg/sg60_10_cif.got.tgz:19829.got - 2010.06.03 14:59:27.
