data_PCOD9457800
_publ_section_title
;
Structure prediction by ZEFSAII (Michael W. Deem and Ramdas Pophale) SiO2 
 PCOD9457800
Probable space group: P B C N
;
_chemical_formula_sum "Si O2"
_cell_formula_units_Z 36
_cell_length_a 24.365926
_cell_length_b 5.172852
_cell_length_c 10.372555
_cell_angle_alpha 90.000000
_cell_angle_beta 90.000000
_cell_angle_gamma 90.000000
_cell_volume 1307.370618
_symmetry_space_group_name_H-M "P B C N"
_symmetry_group_IT_number 60
_symmetry_cell_setting 'orthorhombic'
loop_
_space_group_symop_operation_xyz
x,y,z
1/2-x,1/2-y,1/2+z
1/2+x,1/2-y,-z
-x,y,1/2-z
-x,-y,-z
1/2+x,1/2+y,1/2-z
1/2-x,1/2+y,z
x,-y,1/2+z
loop_
_atom_site_type_symbol
_atom_site_label
_atom_site_fract_x
_atom_site_fract_y
_atom_site_fract_z
Si Si1 0.000000 0.791265 0.750000
Si Si2 0.828060 0.233635 0.220330
Si Si3 0.769754 0.110852 0.557439
Si Si4 0.920470 0.503232 0.075035
Si Si5 0.095352 0.996688 0.084827
O O1 0.024853 0.605402 0.859414
O O2 0.049173 0.964369 0.695270
O O3 0.768344 0.345559 0.186828
O O4 0.825671 0.006205 0.110490
O O5 0.872055 0.449232 0.179073
O O6 0.848056 0.096803 0.349451
O O7 0.736058 0.882879 0.488342
O O8 0.905637 0.296516 0.962723
O O9 0.923107 0.789918 0.020613
#
# Coordination Sequence:
#
# PCOD9457800 Si02
#       5
#     4   8   8   8   8
#     4  10  24  46  64  84 128 154 188 260 300 354
#     4   9  22  39  62  84 130 155 196 251 286 344
#     4   8  18  34  62  80 118 168 190 232 306 334
#     4  11  25  39  64  93 116 156 204 241 300 357
#     4  11  25  39  64  93 116 156 204 241 300 357
#
# _framework density 27.536186000000001
#
# number of rings (size 3 to 8) (size 9 to 14) (size 15 to 20)
#    1.333    0.889    0.000    1.333    6.222    7.111 
#    0.000    6.667    0.000    0.000    0.000    0.000 
#    0.000    0.000    0.000    0.000    0.000    0.000 
#
# Total GULP energy -201320.997176 kJ/mol
# GULP energy per Si atom -5592.249922 kJ/mol
# Density = 2.747351 g / cm^3
# Si number density = 27.536186 Si / 1000 Ang^3
#
#
#
# Elastic Constant Matrix: (Units=GPa)
#
#
# Indices 1 2 3 4 5 6 
#
# 1 68.9639 -0.1080 -9.3077 0.0000 0.0000 0.0000
# 2 -0.1080 125.0121 14.7273 0.0000 0.0000 0.0000
# 3 -9.3077 14.7273 86.8917 0.0000 0.0000 0.0000
# 4 0.0000 0.0000 0.0000 36.5119 0.0000 0.0000
# 5 0.0000 0.0000 0.0000 0.0000 23.6610 0.0000
# 6 0.0000 0.0000 0.0000 0.0000 0.0000 34.6425
#
#
#
# Elastic Compliance Matrix: (Units=1/GPa)
#
#
# Indices 1 2 3 4 5 6 
#
# 1 0.014717 -0.000177 0.001606 0.000000 0.000000 0.000000
# 2 -0.000177 0.008164 -0.001403 0.000000 0.000000 0.000000
# 3 0.001606 -0.001403 0.011918 0.000000 0.000000 0.000000
# 4 0.000000 0.000000 0.000000 0.027388 0.000000 0.000000
# 5 0.000000 0.000000 0.000000 0.000000 0.042264 0.000000
# 6 0.000000 0.000000 0.000000 0.000000 0.000000 0.028866
#
#
# Mechanical properties :
#
#
# Convention : Reuss Voigt Hill
#
# Bulk Modulus (GPa) = 28.69119 32.38787 30.53953
# Shear Modulus (GPa) = 34.51096 37.33349 35.92223
#
# Velocity S-wave (km/s) = 3.54403 3.68611 3.61577
# Velocity P-wave (km/s) = 5.21430 5.46846 5.34289
#
# Compressibility (1/GPa) = 0.03485391
#
# Stress axis : x y z
#
# Youngs Moduli (GPa) = 67.94922 122.48423 83.90390
#
# Poissons Ratio (x) = 0.02162 -0.13478
# Poissons Ratio (y) = 0.01199 0.11769
# Poissons Ratio (z) = -0.10915 0.17181
#
# Static dielectric constant tensor:
#      x y z
#    x 2.164000 0.000000 0.000000 
#    y 0.000000 2.153400 0.000000 
#    z 0.000000 0.000000 2.208750 
# 
# From -- ./inp_files/12989.got.cif
#   From: 2010.05.17/outbox.cif.g08.bks.cpg/sg60_7_cif.got.tgz:12989.got - 2010.06.03 14:59:27.
