data_PCOD9457590
_publ_section_title
;
Structure prediction by ZEFSAII (Michael W. Deem and Ramdas Pophale) SiO2 
 PCOD9457590
Probable space group: P B C N
;
_chemical_formula_sum "Si O2"
_cell_formula_units_Z 48
_cell_length_a 15.602325
_cell_length_b 27.963954
_cell_length_c 5.090870
_cell_angle_alpha 90.000000
_cell_angle_beta 90.000000
_cell_angle_gamma 90.000000
_cell_volume 2221.160319
_symmetry_space_group_name_H-M "P B C N"
_symmetry_group_IT_number 60
_symmetry_cell_setting 'orthorhombic'
loop_
_space_group_symop_operation_xyz
x,y,z
1/2-x,1/2-y,1/2+z
1/2+x,1/2-y,-z
-x,y,1/2-z
-x,-y,-z
1/2+x,1/2+y,1/2-z
1/2-x,1/2+y,z
x,-y,1/2+z
loop_
_atom_site_type_symbol
_atom_site_label
_atom_site_fract_x
_atom_site_fract_y
_atom_site_fract_z
Si Si1 0.598398 0.980467 0.957216
Si Si2 0.798495 0.610128 0.351610
Si Si3 0.187995 0.128456 0.676458
Si Si4 0.204391 0.763919 0.385947
Si Si5 0.000000 0.845041 0.250000
Si Si6 0.916199 0.699009 0.376075
Si Si7 0.000000 0.774636 0.750000
O O1 0.626367 0.929840 0.837790
O O2 0.635994 0.017254 0.747529
O O3 0.500000 0.000000 0.000000
O O4 0.730736 0.599951 0.582691
O O5 0.849450 0.657876 0.438695
O O6 0.743526 0.618196 0.085806
O O7 0.197048 0.184459 0.756096
O O8 0.084558 0.124520 0.670880
O O9 0.232489 0.763968 0.685494
O O10 0.120623 0.732218 0.353592
O O11 0.020272 0.811563 0.507307
O O12 0.936816 0.736726 0.604123
O O13 0.000000 0.675772 0.250000
#
# Coordination Sequence:
#
# PCOD9457590 Si02
#       7
#     8   8   8   8   4   8   4
#     4  10  23  46  72  99 133 178 210 268 351 430
#     4  12  27  42  68 102 131 174 233 284 343 410
#     4  12  24  43  64  97 132 176 237 288 331 410
#     4  12  23  40  56  82 128 185 227 275 340 360
#     4  12  26  42  68  88 134 188 232 290 340 390
#     4  12  27  38  59  91 137 184 235 284 323 394
#     4  12  24  38  58  88 128 194 248 268 336 402
#
# _framework density 21.610326000000001
#
# number of rings (size 3 to 8) (size 9 to 14) (size 15 to 20)
#    0.000    0.333    5.833    2.000    9.333    1.333 
#    0.000    0.000    0.000    0.000    0.000   11.667 
#    0.000    0.000    0.000    0.000    0.000    0.000 
#
# Total GULP energy -267391.658728 kJ/mol
# GULP energy per Si atom -5570.659557 kJ/mol
# Density = 2.156114 g / cm^3
# Si number density = 21.610326 Si / 1000 Ang^3
#
#
#
# Elastic Constant Matrix: (Units=GPa)
#
#
# Indices 1 2 3 4 5 6 
#
# 1 137.6749 41.7070 47.1216 0.0000 0.0000 0.0000
# 2 41.7070 61.9948 4.6093 0.0000 0.0000 0.0000
# 3 47.1216 4.6093 145.4576 0.0000 0.0000 0.0000
# 4 0.0000 0.0000 0.0000 23.0155 0.0000 0.0000
# 5 0.0000 0.0000 0.0000 0.0000 31.7334 0.0000
# 6 0.0000 0.0000 0.0000 0.0000 0.0000 25.7352
#
#
#
# Elastic Compliance Matrix: (Units=1/GPa)
#
#
# Indices 1 2 3 4 5 6 
#
# 1 0.010388 -0.006754 -0.003151 0.000000 0.000000 0.000000
# 2 -0.006754 0.020560 0.001537 0.000000 0.000000 0.000000
# 3 -0.003151 0.001537 0.007847 0.000000 0.000000 0.000000
# 4 0.000000 0.000000 0.000000 0.043449 0.000000 0.000000
# 5 0.000000 0.000000 0.000000 0.000000 0.031513 0.000000
# 6 0.000000 0.000000 0.000000 0.000000 0.000000 0.038857
#
#
# Mechanical properties :
#
#
# Convention : Reuss Voigt Hill
#
# Bulk Modulus (GPa) = 45.33652 59.11148 52.22400
# Shear Modulus (GPa) = 28.29578 32.87610 30.58594
#
# Velocity S-wave (km/s) = 3.62244 3.90463 3.76618
# Velocity P-wave (km/s) = 6.20651 6.90948 6.56741
#
# Compressibility (1/GPa) = 0.02205727
#
# Stress axis : x y z
#
# Youngs Moduli (GPa) = 96.26284 48.63779 127.43666
#
# Poissons Ratio (x) = 0.32852 0.40159
# Poissons Ratio (y) = 0.65020 -0.19582
# Poissons Ratio (z) = 0.30335 -0.07474
#
# Static dielectric constant tensor:
#      x y z
#    x 1.878960 0.000000 0.000000 
#    y 0.000000 1.789010 0.000000 
#    z 0.000000 0.000000 1.790830 
# 
# From -- ./inp_files/1349.got.cif
#   From: 2010.05.17/outbox.cif.g08.bks.cpg/sg60_1_cif.got.tgz:1349.got - 2010.06.03 14:59:27.
