data_PCOD9457500
_publ_section_title
;
Structure prediction by ZEFSAII (Michael W. Deem and Ramdas Pophale) SiO2 
 PCOD9457500
Probable space group: P B C N
;
_chemical_formula_sum "Si O2"
_cell_formula_units_Z 64
_cell_length_a 9.392835
_cell_length_b 21.085016
_cell_length_c 15.558490
_cell_angle_alpha 90.000000
_cell_angle_beta 90.000000
_cell_angle_gamma 90.000000
_cell_volume 3081.329014
_symmetry_space_group_name_H-M "P B C N"
_symmetry_group_IT_number 60
_symmetry_cell_setting 'orthorhombic'
loop_
_space_group_symop_operation_xyz
x,y,z
1/2-x,1/2-y,1/2+z
1/2+x,1/2-y,-z
-x,y,1/2-z
-x,-y,-z
1/2+x,1/2+y,1/2-z
1/2-x,1/2+y,z
x,-y,1/2+z
loop_
_atom_site_type_symbol
_atom_site_label
_atom_site_fract_x
_atom_site_fract_y
_atom_site_fract_z
Si Si1 0.349709 0.329789 0.849963
Si Si2 0.082840 0.959855 0.169546
Si Si3 0.203712 0.333797 0.664419
Si Si4 0.628939 0.357394 0.110915
Si Si5 0.074381 0.709808 0.425700
Si Si6 0.423120 0.226924 0.620861
Si Si7 0.097558 0.080840 0.075458
Si Si8 0.656175 0.891620 0.260087
O O1 0.259888 0.334630 0.762133
O O2 0.227855 0.323336 0.920859
O O3 0.443798 0.266217 0.842268
O O4 0.463701 0.382746 0.879394
O O5 0.240471 0.941896 0.196134
O O6 0.000000 0.991361 0.250000
O O7 0.002824 0.893513 0.154780
O O8 0.075420 0.006467 0.089070
O O9 0.293946 0.277605 0.617655
O O10 0.261624 0.399577 0.627763
O O11 0.041817 0.320245 0.638453
O O12 0.599025 0.283122 0.100565
O O13 0.765765 0.370631 0.171353
O O14 0.628902 0.390993 0.018138
O O15 0.030036 0.707201 0.525173
O O16 0.370342 0.169239 0.678927
O O17 0.500000 0.919783 0.250000
#
# Coordination Sequence:
#
# PCOD9457500 Si02
#       8
#     8   8   8   8   8   8   8   8
#     4  11  23  39  63  94 131 180 208 263 330 391
#     4  10  23  44  67  92 122 172 222 267 315 382
#     4  11  22  37  60  92 128 173 212 264 322 387
#     4  11  23  41  66  97 129 169 217 274 314 387
#     4  12  23  37  62 100 139 161 218 268 325 393
#     4  11  21  37  62  90 132 170 209 260 334 396
#     4  11  23  43  66  90 129 169 227 261 320 388
#     4  11  24  40  67  92 129 166 212 268 336 382
#
# _framework density 20.770257999999998
#
# number of rings (size 3 to 8) (size 9 to 14) (size 15 to 20)
#    0.000    1.000    2.500    6.750    3.500    2.000 
#    0.000    4.375    0.000    0.000    0.000    0.000 
#    0.000    0.000    0.000    0.000    0.000    0.000 
#
# Total GULP energy -357474.784683 kJ/mol
# GULP energy per Si atom -5585.543511 kJ/mol
# Density = 2.072298 g / cm^3
# Si number density = 20.770258 Si / 1000 Ang^3
#
#
#
# Elastic Constant Matrix: (Units=GPa)
#
#
# Indices 1 2 3 4 5 6 
#
# 1 149.0891 41.3125 38.2638 0.0000 0.0000 0.0000
# 2 41.3125 61.0649 19.5124 0.0000 0.0000 0.0000
# 3 38.2638 19.5124 117.3880 0.0000 0.0000 0.0000
# 4 0.0000 0.0000 0.0000 12.3703 0.0000 0.0000
# 5 0.0000 0.0000 0.0000 0.0000 32.5883 0.0000
# 6 0.0000 0.0000 0.0000 0.0000 0.0000 1.4711
#
#
#
# Elastic Compliance Matrix: (Units=1/GPa)
#
#
# Indices 1 2 3 4 5 6 
#
# 1 0.008659 -0.005234 -0.001952 0.000000 0.000000 0.000000
# 2 -0.005234 0.020459 -0.001695 0.000000 0.000000 0.000000
# 3 -0.001952 -0.001695 0.009437 0.000000 0.000000 0.000000
# 4 0.000000 0.000000 0.000000 0.080839 0.000000 0.000000
# 5 0.000000 0.000000 0.000000 0.000000 0.030686 0.000000
# 6 0.000000 0.000000 0.000000 0.000000 0.000000 0.679749
#
#
# Mechanical properties :
#
#
# Convention : Reuss Voigt Hill
#
# Bulk Modulus (GPa) = 48.09522 58.41325 53.25423
# Shear Modulus (GPa) = 5.85123 24.51617 15.18370
#
# Velocity S-wave (km/s) = 1.68025 3.43935 2.70669
# Velocity P-wave (km/s) = 5.19330 6.62999 5.95513
#
# Compressibility (1/GPa) = 0.02079209
#
# Stress axis : x y z
#
# Youngs Moduli (GPa) = 115.48858 48.87926 105.96781
#
# Poissons Ratio (x) = 0.25584 0.20689
# Poissons Ratio (y) = 0.60449 0.17956
# Poissons Ratio (z) = 0.22548 0.08283
#
# Static dielectric constant tensor:
#      x y z
#    x 1.736590 0.000000 0.000000 
#    y 0.000000 1.732070 0.000000 
#    z 0.000000 0.000000 1.850320 
# 
# From -- ./inp_files/15436.got.cif
#   From: 2010.05.17/outbox.cif.g08.bks.cpg/sg60_8_cif.got.tgz:15436.got - 2010.06.03 14:59:27.
