data_PCOD9457669
_publ_section_title
;
Structure prediction by ZEFSAII (Michael W. Deem and Ramdas Pophale) SiO2 
 PCOD9457669
Probable space group: P B C N
;
_chemical_formula_sum "Si O2"
_cell_formula_units_Z 32
_cell_length_a 28.850156
_cell_length_b 4.732451
_cell_length_c 8.836419
_cell_angle_alpha 90.000000
_cell_angle_beta 90.000000
_cell_angle_gamma 90.000000
_cell_volume 1206.453514
_symmetry_space_group_name_H-M "P B C N"
_symmetry_group_IT_number 60
_symmetry_cell_setting 'orthorhombic'
loop_
_space_group_symop_operation_xyz
x,y,z
1/2-x,1/2-y,1/2+z
1/2+x,1/2-y,-z
-x,y,1/2-z
-x,-y,-z
1/2+x,1/2+y,1/2-z
1/2-x,1/2+y,z
x,-y,1/2+z
loop_
_atom_site_type_symbol
_atom_site_label
_atom_site_fract_x
_atom_site_fract_y
_atom_site_fract_z
Si Si1 0.030334 0.206666 0.105810
Si Si2 0.218677 0.803958 0.571539
Si Si3 0.404846 0.788936 0.596740
Si Si4 0.160560 0.566999 0.842761
O O1 0.072204 0.999129 0.149708
O O2 0.000000 0.287832 0.250000
O O3 0.055308 0.487480 0.044766
O O4 0.000000 0.000000 0.000000
O O5 0.267069 0.629221 0.563940
O O6 0.194444 0.734439 0.730599
O O7 0.187986 0.670548 0.438444
O O8 0.376804 0.920313 0.734468
O O9 0.368769 0.748671 0.461272
#
# Coordination Sequence:
#
# PCOD9457669 Si02
#       4
#     8   8   8   8
#     4  12  24  41  64  90 122 160 202 250 300 357
#     4  11  24  41  64  91 122 160 202 247 300 357
#     4  11  24  41  62  91 122 160 202 247 302 357
#     4  10  24  41  64  90 124 160 200 250 300 357
#
# _framework density 26.524021999999999
#
# number of rings (size 3 to 8) (size 9 to 14) (size 15 to 20)
#    0.000    1.000    0.000    6.000    0.000   12.000 
#    0.000    0.000    0.000    0.000    0.000    0.000 
#    0.000    0.000    0.000    0.000    0.000    0.000 
#
# Total GULP energy -179827.238351 kJ/mol
# GULP energy per Si atom -5619.601198 kJ/mol
# Density = 2.646365 g / cm^3
# Si number density = 26.524022 Si / 1000 Ang^3
#
#
#
# Elastic Constant Matrix: (Units=GPa)
#
#
# Indices 1 2 3 4 5 6 
#
# 1 114.9156 40.3316 52.8421 0.0000 0.0000 0.0000
# 2 40.3316 119.6603 1.1362 0.0000 0.0000 0.0000
# 3 52.8421 1.1362 128.7887 0.0000 0.0000 0.0000
# 4 0.0000 0.0000 0.0000 42.3148 0.0000 0.0000
# 5 0.0000 0.0000 0.0000 0.0000 61.6602 0.0000
# 6 0.0000 0.0000 0.0000 0.0000 0.0000 29.0526
#
#
#
# Elastic Compliance Matrix: (Units=1/GPa)
#
#
# Indices 1 2 3 4 5 6 
#
# 1 0.012508 -0.004167 -0.005095 0.000000 0.000000 0.000000
# 2 -0.004167 0.009746 0.001624 0.000000 0.000000 0.000000
# 3 -0.005095 0.001624 0.009841 0.000000 0.000000 0.000000
# 4 0.000000 0.000000 0.000000 0.023632 0.000000 0.000000
# 5 0.000000 0.000000 0.000000 0.000000 0.016218 0.000000
# 6 0.000000 0.000000 0.000000 0.000000 0.000000 0.034420
#
#
# Mechanical properties :
#
#
# Convention : Reuss Voigt Hill
#
# Bulk Modulus (GPa) = 59.46184 61.33158 60.39671
# Shear Modulus (GPa) = 39.29336 44.54251 41.91793
#
# Velocity S-wave (km/s) = 3.85310 4.10240 3.97971
# Velocity P-wave (km/s) = 6.50092 6.75373 6.62853
#
# Compressibility (1/GPa) = 0.01681751
#
# Stress axis : x y z
#
# Youngs Moduli (GPa) = 79.95195 102.60454 101.61723
#
# Poissons Ratio (x) = 0.42758 0.51775
# Poissons Ratio (y) = 0.33318 -0.16501
# Poissons Ratio (z) = 0.40736 -0.16662
#
# Static dielectric constant tensor:
#      x y z
#    x 2.115280 0.000000 0.000000 
#    y 0.000000 1.979280 0.000000 
#    z 0.000000 0.000000 2.002730 
# 
# From -- ./inp_files/8274.got.cif
#   From: 2010.05.17/outbox.cif.g08.bks.cpg/sg60_5_cif.got.tgz:8274.got - 2010.06.03 14:59:27.
