data_PCOD9457002
_publ_section_title
;
Structure prediction by ZEFSAII (Michael W. Deem and Ramdas Pophale) SiO2 
 PCOD9457002
Probable space group: P B C N
;
_chemical_formula_sum "Si O2"
_cell_formula_units_Z 28
_cell_length_a 4.906327
_cell_length_b 14.677940
_cell_length_c 14.977965
_cell_angle_alpha 90.000000
_cell_angle_beta 90.000000
_cell_angle_gamma 90.000000
_cell_volume 1078.634754
_symmetry_space_group_name_H-M "P B C N"
_symmetry_group_IT_number 60
_symmetry_cell_setting 'orthorhombic'
loop_
_space_group_symop_operation_xyz
x,y,z
1/2-x,1/2-y,1/2+z
1/2+x,1/2-y,-z
-x,y,1/2-z
-x,-y,-z
1/2+x,1/2+y,1/2-z
1/2-x,1/2+y,z
x,-y,1/2+z
loop_
_atom_site_type_symbol
_atom_site_label
_atom_site_fract_x
_atom_site_fract_y
_atom_site_fract_z
Si Si1 0.500000 0.176587 0.250000
Si Si2 0.235138 0.498508 0.687781
Si Si3 0.396133 0.639406 0.552083
Si Si4 0.106380 0.255526 0.385483
O O1 0.259781 0.231952 0.295118
O O2 0.367516 0.104827 0.180126
O O3 0.500000 0.500115 0.750000
O O4 0.304824 0.544215 0.593878
O O5 0.000000 0.544853 0.750000
O O6 0.707911 0.663121 0.573696
O O7 0.355071 0.667624 0.449955
O O8 0.201369 0.710149 0.606488
#
# Coordination Sequence:
#
# PCOD9457002 Si02
#       4
#     4   8   8   8
#     4  10  26  36  62  92 126 152 208 242 314 346
#     4  10  23  39  57  90 120 162 197 241 305 367
#     4  10  22  42  61  87 120 161 207 242 314 344
#     4  10  23  39  64  89 118 159 203 262 287 364
#
# _framework density 25.958741
#
# number of rings (size 3 to 8) (size 9 to 14) (size 15 to 20)
#    0.857    1.143    0.000    1.714   10.000    1.143 
#    0.000    1.429    0.000    0.000    0.000    0.000 
#    0.000    0.000    0.000    0.000    0.000    0.000 
#
# Total GULP energy -156672.810407 kJ/mol
# GULP energy per Si atom -5595.457515 kJ/mol
# Density = 2.589966 g / cm^3
# Si number density = 25.958741 Si / 1000 Ang^3
#
#
#
# Elastic Constant Matrix: (Units=GPa)
#
#
# Indices 1 2 3 4 5 6 
#
# 1 136.0842 -1.1107 2.4634 0.0000 0.0000 0.0000
# 2 -1.1107 41.1759 -5.1438 0.0000 0.0000 0.0000
# 3 2.4634 -5.1438 58.7985 0.0000 0.0000 0.0000
# 4 0.0000 0.0000 0.0000 80.7927 0.0000 0.0000
# 5 0.0000 0.0000 0.0000 0.0000 35.2908 0.0000
# 6 0.0000 0.0000 0.0000 0.0000 0.0000 21.3110
#
#
#
# Elastic Compliance Matrix: (Units=1/GPa)
#
#
# Indices 1 2 3 4 5 6 
#
# 1 0.007355 0.000162 -0.000294 0.000000 0.000000 0.000000
# 2 0.000162 0.024558 0.002142 0.000000 0.000000 0.000000
# 3 -0.000294 0.002142 0.017207 0.000000 0.000000 0.000000
# 4 0.000000 0.000000 0.000000 0.012377 0.000000 0.000000
# 5 0.000000 0.000000 0.000000 0.000000 0.028336 0.000000
# 6 0.000000 0.000000 0.000000 0.000000 0.000000 0.046924
#
#
# Mechanical properties :
#
#
# Convention : Reuss Voigt Hill
#
# Bulk Modulus (GPa) = 18.81875 25.38626 22.10251
# Shear Modulus (GPa) = 33.23326 43.46887 38.35106
#
# Velocity S-wave (km/s) = 3.58192 4.09655 3.84785
# Velocity P-wave (km/s) = 4.93681 5.67242 5.31735
#
# Compressibility (1/GPa) = 0.05313848
#
# Stress axis : x y z
#
# Youngs Moduli (GPa) = 135.96129 40.72001 58.11616
#
# Poissons Ratio (x) = -0.00658 0.01709
# Poissons Ratio (y) = -0.02198 -0.12446
# Poissons Ratio (z) = 0.03997 -0.08721
#
# Static dielectric constant tensor:
#      x y z
#    x 1.974940 0.000000 0.000000 
#    y 0.000000 2.072210 0.000000 
#    z 0.000000 0.000000 2.094880 
# 
# From -- ./inp_files/13529.got.cif
#   From: 2010.05.17/outbox.cif.g08.bks.cpg/sg60_7_cif.got.tgz:13529.got - 2010.06.03 14:59:27.
