data_PCOD9457847
_publ_section_title
;
Structure prediction by ZEFSAII (Michael W. Deem and Ramdas Pophale) SiO2 
 PCOD9457847
Probable space group: P B C N
;
_chemical_formula_sum "Si O2"
_cell_formula_units_Z 44
_cell_length_a 8.240802
_cell_length_b 28.363071
_cell_length_c 8.906133
_cell_angle_alpha 90.000000
_cell_angle_beta 90.000000
_cell_angle_gamma 90.000000
_cell_volume 2081.670118
_symmetry_space_group_name_H-M "P B C N"
_symmetry_group_IT_number 60
_symmetry_cell_setting 'orthorhombic'
loop_
_space_group_symop_operation_xyz
x,y,z
1/2-x,1/2-y,1/2+z
1/2+x,1/2-y,-z
-x,y,1/2-z
-x,-y,-z
1/2+x,1/2+y,1/2-z
1/2-x,1/2+y,z
x,-y,1/2+z
loop_
_atom_site_type_symbol
_atom_site_label
_atom_site_fract_x
_atom_site_fract_y
_atom_site_fract_z
Si Si1 0.160791 0.902757 0.804763
Si Si2 0.537043 0.788628 0.073882
Si Si3 0.278459 0.882308 0.472555
Si Si4 0.541725 0.050314 0.069889
Si Si5 0.500000 0.631228 0.750000
Si Si6 0.322267 0.687243 0.499001
O O1 0.241523 0.890595 0.646725
O O2 0.272786 0.931826 0.919132
O O3 0.125918 0.852248 0.879545
O O4 0.000000 0.929136 0.750000
O O5 0.500000 0.786099 0.250000
O O6 0.594074 0.737506 0.021566
O O7 0.673739 0.827978 0.048663
O O8 0.371057 0.805064 0.993923
O O9 0.441253 0.913703 0.463056
O O10 0.125578 0.894702 0.364907
O O11 0.500000 0.049528 0.250000
O O12 0.500000 0.000000 0.000000
O O13 0.381738 0.664140 0.652917
#
# Coordination Sequence:
#
# PCOD9457847 Si02
#       6
#     8   8   8   8   4   8
#     4  11  23  45  71  98 136 179 224 283 350 415
#     4  12  26  41  62  95 134 182 232 280 339 400
#     4  11  24  44  67  98 132 174 231 277 347 412
#     4  10  24  47  71 101 135 173 222 287 354 424
#     4  12  24  42  64  98 132 174 232 280 328 416
#     4  12  26  41  65  94 138 181 229 281 333 405
#
# _framework density 21.136876000000001
#
# number of rings (size 3 to 8) (size 9 to 14) (size 15 to 20)
#    0.000    0.727    5.455    1.636    2.545    2.182 
#    1.636    1.818    0.000    0.000    0.000    0.000 
#    0.000    0.000    0.000    0.000    0.000    0.000 
#
# Total GULP energy -245489.775568 kJ/mol
# GULP energy per Si atom -5579.313081 kJ/mol
# Density = 2.108877 g / cm^3
# Si number density = 21.136876 Si / 1000 Ang^3
#
#
#
# Elastic Constant Matrix: (Units=GPa)
#
#
# Indices 1 2 3 4 5 6 
#
# 1 122.4414 38.2214 24.0449 0.0000 0.0000 0.0000
# 2 38.2214 92.6889 23.7254 0.0000 0.0000 0.0000
# 3 24.0449 23.7254 80.2172 0.0000 0.0000 0.0000
# 4 0.0000 0.0000 0.0000 18.1249 0.0000 0.0000
# 5 0.0000 0.0000 0.0000 0.0000 31.3129 0.0000
# 6 0.0000 0.0000 0.0000 0.0000 0.0000 -2.0436
#
#
#
# Elastic Compliance Matrix: (Units=1/GPa)
#
#
# Indices 1 2 3 4 5 6 
#
# 1 0.009621 -0.003494 -0.001851 0.000000 0.000000 0.000000
# 2 -0.003494 0.012941 -0.002780 0.000000 0.000000 0.000000
# 3 -0.001851 -0.002780 0.013843 0.000000 0.000000 0.000000
# 4 0.000000 0.000000 0.000000 0.055173 0.000000 0.000000
# 5 0.000000 0.000000 0.000000 0.000000 0.031936 0.000000
# 6 0.000000 0.000000 0.000000 0.000000 0.000000 -0.489326
#
#
# Mechanical properties :
#
#
# Convention : Reuss Voigt Hill
#
# Bulk Modulus (GPa) = 49.61239 51.92566 50.76903
# Shear Modulus (GPa) = -14.58390 23.43589 4.42600
#
# Velocity S-wave (km/s) = -2.62959 3.33343 1.44863
# Velocity P-wave (km/s) = 3.78197 6.27976 5.18356
#
# Compressibility (1/GPa) = 0.02015625
#
# Stress axis : x y z
#
# Youngs Moduli (GPa) = 103.93710 77.27302 72.23770
#
# Poissons Ratio (x) = 0.26997 0.13368
# Poissons Ratio (y) = 0.36313 0.20084
# Poissons Ratio (z) = 0.19235 0.21484
#
# Static dielectric constant tensor:
#      x y z
#    x 1.922600 0.000000 0.000000 
#    y 0.000000 1.706930 0.000000 
#    z 0.000000 0.000000 1.758030 
# 
# From -- ./inp_files/4125.got.cif
#   From: 2010.05.17/outbox.cif.g08.bks.cpg/sg60_3_cif.got.tgz:4125.got - 2010.06.03 14:59:27.
