data_PCOD9457823
_publ_section_title
;
Structure prediction by ZEFSAII (Michael W. Deem and Ramdas Pophale) SiO2 
 PCOD9457823
Probable space group: P B C N
;
_chemical_formula_sum "Si O2"
_cell_formula_units_Z 36
_cell_length_a 8.502035
_cell_length_b 17.880097
_cell_length_c 9.725534
_cell_angle_alpha 90.000000
_cell_angle_beta 90.000000
_cell_angle_gamma 90.000000
_cell_volume 1478.448549
_symmetry_space_group_name_H-M "P B C N"
_symmetry_group_IT_number 60
_symmetry_cell_setting 'orthorhombic'
loop_
_space_group_symop_operation_xyz
x,y,z
1/2-x,1/2-y,1/2+z
1/2+x,1/2-y,-z
-x,y,1/2-z
-x,-y,-z
1/2+x,1/2+y,1/2-z
1/2-x,1/2+y,z
x,-y,1/2+z
loop_
_atom_site_type_symbol
_atom_site_label
_atom_site_fract_x
_atom_site_fract_y
_atom_site_fract_z
Si Si1 0.816414 0.962458 0.285190
Si Si2 0.700238 0.413574 0.580736
Si Si3 0.500000 0.689246 0.250000
Si Si4 0.724558 0.190299 0.648825
Si Si5 0.972837 0.698167 0.092866
O O1 0.812538 0.965605 0.448938
O O2 0.732881 0.889120 0.222816
O O3 0.000000 0.956789 0.250000
O O4 0.753183 0.036044 0.210545
O O5 0.546121 0.367032 0.626948
O O6 0.831865 0.353853 0.541926
O O7 0.352696 0.746693 0.249538
O O8 0.897143 0.219445 0.607928
O O9 0.384962 0.191661 0.986672
O O10 0.000000 0.674412 0.250000
#
# Coordination Sequence:
#
# PCOD9457823 Si02
#       5
#     8   8   4   8   8
#     4  12  27  47  77 116 149 209 255 316 380 473
#     4  11  27  47  77 106 153 201 259 309 389 457
#     4  10  24  46  72 104 148 196 242 320 376 446
#     4  11  27  45  78 107 157 191 268 310 395 445
#     4  11  28  47  74 112 148 208 246 326 383 463
#
# _framework density 24.34985
#
# number of rings (size 3 to 8) (size 9 to 14) (size 15 to 20)
#    0.000    0.889    1.111    2.667   21.778    0.889 
#    2.000    0.000    0.000    0.000    0.000    0.000 
#    0.000    0.000    0.000    0.000    0.000    0.000 
#
# Total GULP energy -201478.802318 kJ/mol
# GULP energy per Si atom -5596.633398 kJ/mol
# Density = 2.429443 g / cm^3
# Si number density = 24.349850 Si / 1000 Ang^3
#
#
#
# Elastic Constant Matrix: (Units=GPa)
#
#
# Indices 1 2 3 4 5 6 
#
# 1 48.3930 -1.4499 32.8988 0.0000 0.0000 0.0000
# 2 -1.4499 111.1309 24.2379 0.0000 0.0000 0.0000
# 3 32.8988 24.2379 129.8090 0.0000 0.0000 0.0000
# 4 0.0000 0.0000 0.0000 43.4198 0.0000 0.0000
# 5 0.0000 0.0000 0.0000 0.0000 42.3632 0.0000
# 6 0.0000 0.0000 0.0000 0.0000 0.0000 24.5675
#
#
#
# Elastic Compliance Matrix: (Units=1/GPa)
#
#
# Indices 1 2 3 4 5 6 
#
# 1 0.025307 0.001802 -0.006750 0.000000 0.000000 0.000000
# 2 0.001802 0.009509 -0.002232 0.000000 0.000000 0.000000
# 3 -0.006750 -0.002232 0.009831 0.000000 0.000000 0.000000
# 4 0.000000 0.000000 0.000000 0.023031 0.000000 0.000000
# 5 0.000000 0.000000 0.000000 0.000000 0.023605 0.000000
# 6 0.000000 0.000000 0.000000 0.000000 0.000000 0.040704
#
#
# Mechanical properties :
#
#
# Convention : Reuss Voigt Hill
#
# Bulk Modulus (GPa) = 33.01769 44.52294 38.77032
# Shear Modulus (GPa) = 31.96032 37.64650 34.80341
#
# Velocity S-wave (km/s) = 3.62684 3.93627 3.78472
# Velocity P-wave (km/s) = 5.57923 6.24367 5.92077
#
# Compressibility (1/GPa) = 0.03028680
#
# Stress axis : x y z
#
# Youngs Moduli (GPa) = 39.51436 105.16592 101.71624
#
# Poissons Ratio (x) = -0.18956 0.68663
# Poissons Ratio (y) = -0.07122 0.22706
# Poissons Ratio (z) = 0.26674 0.23476
#
# Static dielectric constant tensor:
#      x y z
#    x 1.948490 0.000000 0.000000 
#    y 0.000000 1.923400 0.000000 
#    z 0.000000 0.000000 2.011390 
# 
# From -- ./inp_files/4882.got.cif
#   From: 2010.05.17/outbox.cif.g08.bks.cpg/sg60_3_cif.got.tgz:4882.got - 2010.06.03 14:59:27.
