data_PCOD9457861
_publ_section_title
;
Structure prediction by ZEFSAII (Michael W. Deem and Ramdas Pophale) SiO2 
 PCOD9457861
Probable space group: P B C N
;
_chemical_formula_sum "Si O2"
_cell_formula_units_Z 40
_cell_length_a 7.354509
_cell_length_b 18.080837
_cell_length_c 12.189733
_cell_angle_alpha 90.000000
_cell_angle_beta 90.000000
_cell_angle_gamma 90.000000
_cell_volume 1620.938016
_symmetry_space_group_name_H-M "P B C N"
_symmetry_group_IT_number 60
_symmetry_cell_setting 'orthorhombic'
loop_
_space_group_symop_operation_xyz
x,y,z
1/2-x,1/2-y,1/2+z
1/2+x,1/2-y,-z
-x,y,1/2-z
-x,-y,-z
1/2+x,1/2+y,1/2-z
1/2-x,1/2+y,z
x,-y,1/2+z
loop_
_atom_site_type_symbol
_atom_site_label
_atom_site_fract_x
_atom_site_fract_y
_atom_site_fract_z
Si Si1 0.314861 0.628267 0.983570
Si Si2 0.709305 0.958759 0.221370
Si Si3 0.413446 0.219604 0.406591
Si Si4 0.696153 0.342515 0.409424
Si Si5 0.701797 0.623517 0.265690
O O1 0.237526 0.568201 0.902010
O O2 0.284483 0.708375 0.927680
O O3 0.536538 0.622034 0.985240
O O4 0.244753 0.624175 0.106344
O O5 0.500000 0.969346 0.250000
O O6 0.779765 0.895604 0.305628
O O7 0.801924 0.037504 0.235018
O O8 0.597792 0.264840 0.378791
O O9 0.377296 0.174741 0.520819
O O10 0.335201 0.167129 0.314049
O O11 0.500000 0.656333 0.250000
#
# Coordination Sequence:
#
# PCOD9457861 Si02
#       5
#     8   8   8   8   8
#     4  10  26  45  76 111 149 205 253 322 392 458
#     4  12  30  48  73 111 163 207 259 319 390 469
#     4  10  25  45  78 113 148 199 260 319 388 455
#     4  10  24  48  75 110 149 201 257 326 385 459
#     4  12  25  50  80 114 157 202 260 322 401 468
#
# _framework density 24.677071000000002
#
# number of rings (size 3 to 8) (size 9 to 14) (size 15 to 20)
#    1.200    0.000    2.000    1.800    8.400    4.800 
#    0.000    0.000    0.000    0.000    0.000    0.000 
#    0.000    0.000    0.000    0.000    0.000    0.000 
#
# Total GULP energy -223730.962170 kJ/mol
# GULP energy per Si atom -5593.274054 kJ/mol
# Density = 2.462090 g / cm^3
# Si number density = 24.677071 Si / 1000 Ang^3
#
#
#
# Elastic Constant Matrix: (Units=GPa)
#
#
# Indices 1 2 3 4 5 6 
#
# 1 93.6279 17.9059 18.0740 0.0000 0.0000 0.0000
# 2 17.9059 113.4743 72.9725 0.0000 0.0000 0.0000
# 3 18.0740 72.9725 172.2839 0.0000 0.0000 0.0000
# 4 0.0000 0.0000 0.0000 39.0493 0.0000 0.0000
# 5 0.0000 0.0000 0.0000 0.0000 39.7010 0.0000
# 6 0.0000 0.0000 0.0000 0.0000 0.0000 32.3784
#
#
#
# Elastic Compliance Matrix: (Units=1/GPa)
#
#
# Indices 1 2 3 4 5 6 
#
# 1 0.011055 -0.001372 -0.000578 0.000000 0.000000 0.000000
# 2 -0.001372 0.012282 -0.005058 0.000000 0.000000 0.000000
# 3 -0.000578 -0.005058 0.008007 0.000000 0.000000 0.000000
# 4 0.000000 0.000000 0.000000 0.025609 0.000000 0.000000
# 5 0.000000 0.000000 0.000000 0.000000 0.025188 0.000000
# 6 0.000000 0.000000 0.000000 0.000000 0.000000 0.030885
#
#
# Mechanical properties :
#
#
# Convention : Reuss Voigt Hill
#
# Bulk Modulus (GPa) = 57.71639 66.36565 62.04102
# Shear Modulus (GPa) = 37.64518 40.25465 38.94991
#
# Velocity S-wave (km/s) = 3.91002 4.04326 3.97720
# Velocity P-wave (km/s) = 6.61995 6.98207 6.80342
#
# Compressibility (1/GPa) = 0.01732610
#
# Stress axis : x y z
#
# Youngs Moduli (GPa) = 90.45920 81.42074 124.88336
#
# Poissons Ratio (x) = 0.11174 0.07224
# Poissons Ratio (y) = 0.12415 0.63168
# Poissons Ratio (z) = 0.05232 0.41184
#
# Static dielectric constant tensor:
#      x y z
#    x 2.079110 0.000000 0.000000 
#    y 0.000000 1.917360 0.000000 
#    z 0.000000 0.000000 1.940730 
# 
# From -- ./inp_files/9767.got.cif
#   From: 2010.05.17/outbox.cif.g08.bks.cpg/sg60_5_cif.got.tgz:9767.got - 2010.06.03 14:59:27.
