data_PCOD9457540
_publ_section_title
;
Structure prediction by ZEFSAII (Michael W. Deem and Ramdas Pophale) SiO2 
 PCOD9457540
Probable space group: P B C N
;
_chemical_formula_sum "Si O2"
_cell_formula_units_Z 48
_cell_length_a 13.168403
_cell_length_b 9.763781
_cell_length_c 13.754705
_cell_angle_alpha 90.000000
_cell_angle_beta 90.000000
_cell_angle_gamma 90.000000
_cell_volume 1768.489229
_symmetry_space_group_name_H-M "P B C N"
_symmetry_group_IT_number 60
_symmetry_cell_setting 'orthorhombic'
loop_
_space_group_symop_operation_xyz
x,y,z
1/2-x,1/2-y,1/2+z
1/2+x,1/2-y,-z
-x,y,1/2-z
-x,-y,-z
1/2+x,1/2+y,1/2-z
1/2-x,1/2+y,z
x,-y,1/2+z
loop_
_atom_site_type_symbol
_atom_site_label
_atom_site_fract_x
_atom_site_fract_y
_atom_site_fract_z
Si Si1 0.298337 0.982293 0.604189
Si Si2 0.995719 0.187534 0.452895
Si Si3 0.045282 0.076111 0.853682
Si Si4 0.235456 0.427463 0.311691
Si Si5 0.989316 0.526545 0.614285
Si Si6 0.266764 0.725223 0.478010
O O1 0.023411 0.954735 0.601785
O O2 0.254238 0.061475 0.696433
O O3 0.411135 0.943563 0.645459
O O4 0.291659 0.093611 0.517372
O O5 0.943995 0.186481 0.559194
O O6 0.979115 0.312723 0.379344
O O7 0.113067 0.198828 0.484238
O O8 0.751267 0.150906 0.444357
O O9 0.000000 0.121029 0.750000
O O10 0.156814 0.008939 0.843236
O O11 0.123953 0.482269 0.344234
O O12 0.244275 0.282030 0.367821
O O13 0.000000 0.500000 0.500000
#
# Coordination Sequence:
#
# PCOD9457540 Si02
#       6
#     8   8   8   8   8   8
#     4  12  25  46  72 107 147 190 248 305 376 449
#     4  10  23  44  73  97 141 189 235 295 371 436
#     4  11  24  45  69 107 144 184 240 299 363 443
#     4  11  25  45  73 106 142 197 244 305 377 450
#     4  11  23  47  67 101 140 191 239 309 368 443
#     4  11  25  46  73 109 146 192 248 308 375 444
#
# _framework density 27.141812000000002
#
# number of rings (size 3 to 8) (size 9 to 14) (size 15 to 20)
#    0.000    1.000    3.333    3.500    0.000   10.667 
#    6.000    0.000    0.000    0.000    0.000    0.000 
#    0.000    0.000    0.000    0.000    0.000    0.000 
#
# Total GULP energy -267964.245217 kJ/mol
# GULP energy per Si atom -5582.588442 kJ/mol
# Density = 2.708004 g / cm^3
# Si number density = 27.141812 Si / 1000 Ang^3
#
#
#
# Elastic Constant Matrix: (Units=GPa)
#
#
# Indices 1 2 3 4 5 6 
#
# 1 77.0444 -20.8132 -7.1015 0.0000 0.0000 0.0000
# 2 -20.8132 85.6463 18.6173 0.0000 0.0000 0.0000
# 3 -7.1015 18.6173 152.7933 0.0000 0.0000 0.0000
# 4 0.0000 0.0000 0.0000 14.8853 0.0000 0.0000
# 5 0.0000 0.0000 0.0000 0.0000 33.0015 0.0000
# 6 0.0000 0.0000 0.0000 0.0000 0.0000 37.8924
#
#
#
# Elastic Compliance Matrix: (Units=1/GPa)
#
#
# Indices 1 2 3 4 5 6 
#
# 1 0.013900 0.003326 0.000241 0.000000 0.000000 0.000000
# 2 0.003326 0.012789 -0.001404 0.000000 0.000000 0.000000
# 3 0.000241 -0.001404 0.006727 0.000000 0.000000 0.000000
# 4 0.000000 0.000000 0.000000 0.067181 0.000000 0.000000
# 5 0.000000 0.000000 0.000000 0.000000 0.030302 0.000000
# 6 0.000000 0.000000 0.000000 0.000000 0.000000 0.026391
#
#
# Mechanical properties :
#
#
# Convention : Reuss Voigt Hill
#
# Bulk Modulus (GPa) = 26.49593 32.98770 29.74181
# Shear Modulus (GPa) = 30.20339 38.80792 34.50565
#
# Velocity S-wave (km/s) = 3.33948 3.78540 3.56941
# Velocity P-wave (km/s) = 4.96515 5.59338 5.28860
#
# Compressibility (1/GPa) = 0.03774165
#
# Stress axis : x y z
#
# Youngs Moduli (GPa) = 71.94182 78.19084 148.65412
#
# Poissons Ratio (x) = -0.26003 -0.03580
# Poissons Ratio (y) = -0.23925 0.20867
# Poissons Ratio (z) = -0.01733 0.10976
#
# Static dielectric constant tensor:
#      x y z
#    x 2.189330 0.000000 0.000000 
#    y 0.000000 2.129490 0.000000 
#    z 0.000000 0.000000 2.128950 
# 
# From -- ./inp_files/11031.got.cif
#   From: 2010.05.17/outbox.cif.g08.bks.cpg/sg60_6_cif.got.tgz:11031.got - 2010.06.03 14:59:27.
