data_PCOD9457343
_publ_section_title
;
Structure prediction by ZEFSAII (Michael W. Deem and Ramdas Pophale) SiO2 
 PCOD9457343
Probable space group: P B C N
;
_chemical_formula_sum "Si O2"
_cell_formula_units_Z 40
_cell_length_a 10.459084
_cell_length_b 19.807884
_cell_length_c 6.956404
_cell_angle_alpha 90.000000
_cell_angle_beta 90.000000
_cell_angle_gamma 90.000000
_cell_volume 1441.174374
_symmetry_space_group_name_H-M "P B C N"
_symmetry_group_IT_number 60
_symmetry_cell_setting 'orthorhombic'
loop_
_space_group_symop_operation_xyz
x,y,z
1/2-x,1/2-y,1/2+z
1/2+x,1/2-y,-z
-x,y,1/2-z
-x,-y,-z
1/2+x,1/2+y,1/2-z
1/2-x,1/2+y,z
x,-y,1/2+z
loop_
_atom_site_type_symbol
_atom_site_label
_atom_site_fract_x
_atom_site_fract_y
_atom_site_fract_z
Si Si1 0.251931 0.093563 0.577237
Si Si2 0.291816 0.939144 0.630241
Si Si3 0.480529 0.420078 0.525458
Si Si4 0.863240 0.695831 0.411943
Si Si5 0.889277 0.726833 0.960757
O O1 0.263611 0.083562 0.346912
O O2 0.332505 0.158864 0.634703
O O3 0.098994 0.108160 0.598052
O O4 0.303026 0.019897 0.643359
O O5 0.171471 0.919857 0.495028
O O6 0.395254 0.884252 0.562841
O O7 0.500000 0.401035 0.750000
O O8 0.500000 0.500000 0.500000
O O9 0.883322 0.713883 0.189993
O O10 0.714551 0.715188 0.434033
O O11 0.957485 0.736693 0.555411
#
# Coordination Sequence:
#
# PCOD9457343 Si02
#       5
#     8   8   8   8   8
#     4   9  18  33  55  82 114 148 188 237 288 344
#     4   9  18  33  55  82 114 148 188 237 288 344
#     4   8  14  26  46  74 104 140 177 216 271 328
#     4  10  23  41  60  86 119 156 198 244 293 349
#     4  10  23  41  60  86 119 156 198 244 293 349
#
# _framework density 27.755143
#
# number of rings (size 3 to 8) (size 9 to 14) (size 15 to 20)
#    0.000    2.800    0.000    0.000    2.800    3.200 
#    0.000    0.000    0.000    0.000    0.000    0.000 
#    0.000    0.000    0.000    0.000    0.000    0.000 
#
# Total GULP energy -223244.441322 kJ/mol
# GULP energy per Si atom -5581.111033 kJ/mol
# Density = 2.769197 g / cm^3
# Si number density = 27.755143 Si / 1000 Ang^3
#
#
#
# Elastic Constant Matrix: (Units=GPa)
#
#
# Indices 1 2 3 4 5 6 
#
# 1 94.0626 35.3781 -15.5567 0.0000 0.0000 0.0000
# 2 35.3781 163.9922 -9.9528 0.0000 0.0000 0.0000
# 3 -15.5567 -9.9528 58.8838 0.0000 0.0000 0.0000
# 4 0.0000 0.0000 0.0000 30.1029 0.0000 0.0000
# 5 0.0000 0.0000 0.0000 0.0000 40.1791 0.0000
# 6 0.0000 0.0000 0.0000 0.0000 0.0000 33.8575
#
#
#
# Elastic Compliance Matrix: (Units=1/GPa)
#
#
# Indices 1 2 3 4 5 6 
#
# 1 0.011998 -0.002421 0.002761 0.000000 0.000000 0.000000
# 2 -0.002421 0.006649 0.000484 0.000000 0.000000 0.000000
# 3 0.002761 0.000484 0.017794 0.000000 0.000000 0.000000
# 4 0.000000 0.000000 0.000000 0.033219 0.000000 0.000000
# 5 0.000000 0.000000 0.000000 0.000000 0.024889 0.000000
# 6 0.000000 0.000000 0.000000 0.000000 0.000000 0.029536
#
#
# Mechanical properties :
#
#
# Convention : Reuss Voigt Hill
#
# Bulk Modulus (GPa) = 26.25357 37.40841 31.83099
# Shear Modulus (GPa) = 37.00047 41.29924 39.14986
#
# Velocity S-wave (km/s) = 3.65513 3.86163 3.75980
# Velocity P-wave (km/s) = 5.22425 5.77842 5.50831
#
# Compressibility (1/GPa) = 0.03809005
#
# Stress axis : x y z
#
# Youngs Moduli (GPa) = 83.34510 150.38733 56.19922
#
# Poissons Ratio (x) = 0.36406 -0.15515
# Poissons Ratio (y) = 0.20177 -0.02722
# Poissons Ratio (z) = -0.23009 -0.07284
#
# Static dielectric constant tensor:
#      x y z
#    x 2.735530 0.000000 0.000000 
#    y 0.000000 2.178490 0.000000 
#    z 0.000000 0.000000 2.204680 
# 
# From -- ./inp_files/4933.got.cif
#   From: 2010.05.17/outbox.cif.g08.bks.cpg/sg60_3_cif.got.tgz:4933.got - 2010.06.03 14:59:27.
