data_PCOD9457981
_publ_section_title
;
Structure prediction by ZEFSAII (Michael W. Deem and Ramdas Pophale) SiO2 
 PCOD9457981
Probable space group: P B C N
;
_chemical_formula_sum "Si O2"
_cell_formula_units_Z 36
_cell_length_a 7.888759
_cell_length_b 9.432775
_cell_length_c 18.887997
_cell_angle_alpha 90.000000
_cell_angle_beta 90.000000
_cell_angle_gamma 90.000000
_cell_volume 1405.510418
_symmetry_space_group_name_H-M "P B C N"
_symmetry_group_IT_number 60
_symmetry_cell_setting 'orthorhombic'
loop_
_space_group_symop_operation_xyz
x,y,z
1/2-x,1/2-y,1/2+z
1/2+x,1/2-y,-z
-x,y,1/2-z
-x,-y,-z
1/2+x,1/2+y,1/2-z
1/2-x,1/2+y,z
x,-y,1/2+z
loop_
_atom_site_type_symbol
_atom_site_label
_atom_site_fract_x
_atom_site_fract_y
_atom_site_fract_z
Si Si1 0.500000 0.293478 0.250000
Si Si2 0.333894 0.906936 0.905976
Si Si3 0.168807 0.026428 0.042099
Si Si4 0.150529 0.755033 0.113704
Si Si5 0.144906 0.676127 0.812299
O O1 0.606741 0.206301 0.307542
O O2 0.661698 0.366547 0.213572
O O3 0.477290 0.791343 0.923389
O O4 0.190276 0.815406 0.861914
O O5 0.400989 0.038568 0.858874
O O6 0.294722 0.977476 0.980996
O O7 0.174884 0.921013 0.108776
O O8 0.200693 0.178961 0.073446
O O9 0.000000 0.000000 0.000000
O O10 0.000000 0.697908 0.750000
#
# Coordination Sequence:
#
# PCOD9457981 Si02
#       5
#     4   8   8   8   8
#     4  10  26  48  70 114 148 196 270 300 408 472
#     4  11  26  49  69 114 147 198 270 317 393 483
#     4  12  25  45  77 107 150 202 262 329 403 459
#     4  11  26  45  73 106 152 198 255 333 383 484
#     4  11  27  46  78 104 160 202 255 326 391 473
#
# _framework density 25.613472999999999
#
# number of rings (size 3 to 8) (size 9 to 14) (size 15 to 20)
#    0.000    0.889    0.000    6.000   14.000    0.000 
#    0.000    0.000    0.000    0.000    0.000    0.000 
#    0.000    0.000    0.000    0.000    0.000    0.000 
#
# Total GULP energy -200746.619405 kJ/mol
# GULP energy per Si atom -5576.294983 kJ/mol
# Density = 2.555518 g / cm^3
# Si number density = 25.613473 Si / 1000 Ang^3
#
#
#
# Elastic Constant Matrix: (Units=GPa)
#
#
# Indices 1 2 3 4 5 6 
#
# 1 113.2472 -2.7666 17.5451 0.0000 0.0000 0.0000
# 2 -2.7666 80.6014 14.3076 0.0000 0.0000 0.0000
# 3 17.5451 14.3076 89.3152 0.0000 0.0000 0.0000
# 4 0.0000 0.0000 0.0000 34.3362 0.0000 0.0000
# 5 0.0000 0.0000 0.0000 0.0000 50.1387 0.0000
# 6 0.0000 0.0000 0.0000 0.0000 0.0000 26.5043
#
#
#
# Elastic Compliance Matrix: (Units=1/GPa)
#
#
# Indices 1 2 3 4 5 6 
#
# 1 0.009140 0.000651 -0.001900 0.000000 0.000000 0.000000
# 2 0.000651 0.012816 -0.002181 0.000000 0.000000 0.000000
# 3 -0.001900 -0.002181 0.011919 0.000000 0.000000 0.000000
# 4 0.000000 0.000000 0.000000 0.029124 0.000000 0.000000
# 5 0.000000 0.000000 0.000000 0.000000 0.019945 0.000000
# 6 0.000000 0.000000 0.000000 0.000000 0.000000 0.037730
#
#
# Mechanical properties :
#
#
# Convention : Reuss Voigt Hill
#
# Bulk Modulus (GPa) = 37.01512 37.92622 37.47067
# Shear Modulus (GPa) = 36.61965 39.13435 37.87700
#
# Velocity S-wave (km/s) = 3.78524 3.91305 3.84968
# Velocity P-wave (km/s) = 5.79542 5.93761 5.86695
#
# Compressibility (1/GPa) = 0.02701599
#
# Stress axis : x y z
#
# Youngs Moduli (GPa) = 109.40340 78.02614 83.90055
#
# Poissons Ratio (x) = -0.05079 0.15940
# Poissons Ratio (y) = -0.07122 0.18298
# Poissons Ratio (z) = 0.20785 0.17017
#
# Static dielectric constant tensor:
#      x y z
#    x 1.682910 0.000000 0.000000 
#    y 0.000000 1.952110 0.000000 
#    z 0.000000 0.000000 2.043160 
# 
# From -- ./inp_files/21942.got.cif
#   From: 2010.05.17/outbox.cif.g08.bks.cpg/sg60_11_cif.got.tgz:21942.got - 2010.06.03 14:59:27.
