data_PCOD9457470
_publ_section_title
;
Structure prediction by ZEFSAII (Michael W. Deem and Ramdas Pophale) SiO2 
 PCOD9457470
Probable space group: P B C N
;
_chemical_formula_sum "Si O2"
_cell_formula_units_Z 40
_cell_length_a 11.761917
_cell_length_b 8.733128
_cell_length_c 15.532130
_cell_angle_alpha 90.000000
_cell_angle_beta 90.000000
_cell_angle_gamma 90.000000
_cell_volume 1595.434403
_symmetry_space_group_name_H-M "P B C N"
_symmetry_group_IT_number 60
_symmetry_cell_setting 'orthorhombic'
loop_
_space_group_symop_operation_xyz
x,y,z
1/2-x,1/2-y,1/2+z
1/2+x,1/2-y,-z
-x,y,1/2-z
-x,-y,-z
1/2+x,1/2+y,1/2-z
1/2-x,1/2+y,z
x,-y,1/2+z
loop_
_atom_site_type_symbol
_atom_site_label
_atom_site_fract_x
_atom_site_fract_y
_atom_site_fract_z
Si Si1 0.122907 0.145147 0.766360
Si Si2 0.222921 0.876811 0.663816
Si Si3 0.867056 0.608578 0.942985
Si Si4 0.577066 0.857490 0.162586
Si Si5 0.224755 0.943229 0.884074
O O1 0.217606 0.253214 0.725406
O O2 0.000000 0.212976 0.750000
O O3 0.134762 0.987194 0.712196
O O4 0.143245 0.090685 0.864681
O O5 0.162710 0.778236 0.590709
O O6 0.317408 0.982011 0.621597
O O7 0.001096 0.602436 0.921711
O O8 0.790756 0.582589 0.027363
O O9 0.500000 0.840726 0.250000
O O10 0.646713 0.704106 0.136113
O O11 0.668063 0.995285 0.174310
#
# Coordination Sequence:
#
# PCOD9457470 Si02
#       5
#     8   8   8   8   8
#     4  11  23  43  71 104 141 188 245 302 361 439
#     4  10  23  43  69 100 142 192 241 293 365 448
#     4  11  24  46  71 106 150 189 239 311 371 427
#     4  12  27  49  76 107 152 202 248 304 370 442
#     4  12  25  45  74 109 143 191 249 302 368 444
#
# _framework density 25.071542000000001
#
# number of rings (size 3 to 8) (size 9 to 14) (size 15 to 20)
#    0.000    0.800    0.000    8.400    0.000    4.000 
#    0.000   20.000    0.000    0.000    0.000    0.000 
#    0.000    0.000    0.000    0.000    0.000    0.000 
#
# Total GULP energy -223348.378749 kJ/mol
# GULP energy per Si atom -5583.709469 kJ/mol
# Density = 2.501448 g / cm^3
# Si number density = 25.071542 Si / 1000 Ang^3
#
#
#
# Elastic Constant Matrix: (Units=GPa)
#
#
# Indices 1 2 3 4 5 6 
#
# 1 115.5954 3.5910 41.5329 0.0000 0.0000 0.0000
# 2 3.5910 72.2861 41.0347 0.0000 0.0000 0.0000
# 3 41.5329 41.0347 134.2613 0.0000 0.0000 0.0000
# 4 0.0000 0.0000 0.0000 23.0085 0.0000 0.0000
# 5 0.0000 0.0000 0.0000 0.0000 45.4708 0.0000
# 6 0.0000 0.0000 0.0000 0.0000 0.0000 56.4474
#
#
#
# Elastic Compliance Matrix: (Units=1/GPa)
#
#
# Indices 1 2 3 4 5 6 
#
# 1 0.009866 0.001503 -0.003511 0.000000 0.000000 0.000000
# 2 0.001503 0.016967 -0.005651 0.000000 0.000000 0.000000
# 3 -0.003511 -0.005651 0.010261 0.000000 0.000000 0.000000
# 4 0.000000 0.000000 0.000000 0.043462 0.000000 0.000000
# 5 0.000000 0.000000 0.000000 0.000000 0.021992 0.000000
# 6 0.000000 0.000000 0.000000 0.000000 0.000000 0.017716
#
#
# Mechanical properties :
#
#
# Convention : Reuss Voigt Hill
#
# Bulk Modulus (GPa) = 45.92109 54.94000 50.43055
# Shear Modulus (GPa) = 35.00407 40.71762 37.86084
#
# Velocity S-wave (km/s) = 3.74059 4.03433 3.89023
# Velocity P-wave (km/s) = 6.08373 6.60772 6.35113
#
# Compressibility (1/GPa) = 0.02177648
#
# Stress axis : x y z
#
# Youngs Moduli (GPa) = 101.36057 58.93813 97.45265
#
# Poissons Ratio (x) = -0.08859 0.34219
# Poissons Ratio (y) = -0.15236 0.55067
# Poissons Ratio (z) = 0.35591 0.33304
#
# Static dielectric constant tensor:
#      x y z
#    x 2.005610 0.000000 0.000000 
#    y 0.000000 2.001030 0.000000 
#    z 0.000000 0.000000 2.119610 
# 
# From -- ./inp_files/19833.got.cif
#   From: 2010.05.17/outbox.cif.g08.bks.cpg/sg60_10_cif.got.tgz:19833.got - 2010.06.03 14:59:27.
