data_PCOD9457585
_publ_section_title
;
Structure prediction by ZEFSAII (Michael W. Deem and Ramdas Pophale) SiO2 
 PCOD9457585
Probable space group: P B C N
;
_chemical_formula_sum "Si O2"
_cell_formula_units_Z 60
_cell_length_a 20.823427
_cell_length_b 8.557964
_cell_length_c 15.677042
_cell_angle_alpha 90.000000
_cell_angle_beta 90.000000
_cell_angle_gamma 90.000000
_cell_volume 2793.745120
_symmetry_space_group_name_H-M "P B C N"
_symmetry_group_IT_number 60
_symmetry_cell_setting 'orthorhombic'
loop_
_space_group_symop_operation_xyz
x,y,z
1/2-x,1/2-y,1/2+z
1/2+x,1/2-y,-z
-x,y,1/2-z
-x,-y,-z
1/2+x,1/2+y,1/2-z
1/2-x,1/2+y,z
x,-y,1/2+z
loop_
_atom_site_type_symbol
_atom_site_label
_atom_site_fract_x
_atom_site_fract_y
_atom_site_fract_z
Si Si1 0.819010 0.941902 0.525893
Si Si2 0.442347 0.372010 0.416061
Si Si3 0.273134 0.702607 0.737728
Si Si4 0.108354 0.602413 0.298768
Si Si5 0.500000 0.110662 0.750000
Si Si6 0.174586 0.902474 0.657611
Si Si7 0.196696 0.383407 0.403378
Si Si8 0.533381 0.343364 0.886902
O O1 0.824017 0.003936 0.430443
O O2 0.823422 0.756140 0.534475
O O3 0.877334 0.024947 0.576083
O O4 0.750923 0.004439 0.558583
O O5 0.430204 0.236407 0.348638
O O6 0.455992 0.308943 0.512374
O O7 0.499042 0.488125 0.387838
O O8 0.332587 0.819566 0.748474
O O9 0.301344 0.529896 0.725383
O O10 0.229730 0.700640 0.822205
O O11 0.224803 0.760348 0.663872
O O12 0.061487 0.500636 0.241052
O O13 0.139448 0.488686 0.369098
O O14 0.492903 0.218410 0.833611
O O15 0.101187 0.849102 0.663172
#
# Coordination Sequence:
#
# PCOD9457585 Si02
#       8
#     8   8   8   8   4   8   8   8
#     4  11  21  40  65  96 127 172 222 274 329 391
#     4  10  23  46  70  95 130 177 232 267 334 397
#     4  12  23  41  62  97 131 172 214 268 332 395
#     4  12  26  42  66  98 133 175 223 277 328 408
#     4  12  28  44  64 102 136 172 220 274 342 388
#     4  11  25  41  66  98 133 166 212 275 333 385
#     4  12  21  41  66  95 131 176 224 269 329 398
#     4  10  25  47  71  96 132 178 221 281 328 403
#
# _framework density 21.476548000000001
#
# number of rings (size 3 to 8) (size 9 to 14) (size 15 to 20)
#    0.000    0.800    4.000    2.400    3.733    1.600 
#    2.400    0.000    0.000    0.000    0.000    0.000 
#    0.000    0.000    0.000    0.000    0.000    0.000 
#
# Total GULP energy -335634.008533 kJ/mol
# GULP energy per Si atom -5593.900142 kJ/mol
# Density = 2.142767 g / cm^3
# Si number density = 21.476548 Si / 1000 Ang^3
#
#
#
# Elastic Constant Matrix: (Units=GPa)
#
#
# Indices 1 2 3 4 5 6 
#
# 1 59.5282 16.5989 12.9558 0.0000 0.0000 0.0000
# 2 16.5989 63.3739 4.0240 0.0000 0.0000 0.0000
# 3 12.9558 4.0240 25.0985 0.0000 0.0000 0.0000
# 4 0.0000 0.0000 0.0000 50.1360 0.0000 0.0000
# 5 0.0000 0.0000 0.0000 0.0000 34.5762 0.0000
# 6 0.0000 0.0000 0.0000 0.0000 0.0000 35.9173
#
#
#
# Elastic Compliance Matrix: (Units=1/GPa)
#
#
# Indices 1 2 3 4 5 6 
#
# 1 0.020211 -0.004679 -0.009683 0.000000 0.000000 0.000000
# 2 -0.004679 0.017025 -0.000314 0.000000 0.000000 0.000000
# 3 -0.009683 -0.000314 0.044892 0.000000 0.000000 0.000000
# 4 0.000000 0.000000 0.000000 0.019946 0.000000 0.000000
# 5 0.000000 0.000000 0.000000 0.000000 0.028922 0.000000
# 6 0.000000 0.000000 0.000000 0.000000 0.000000 0.027842
#
#
# Mechanical properties :
#
#
# Convention : Reuss Voigt Hill
#
# Bulk Modulus (GPa) = 18.94820 23.90648 21.42734
# Shear Modulus (GPa) = 24.29784 31.75403 28.02593
#
# Velocity S-wave (km/s) = 3.36723 3.84936 3.61634
# Velocity P-wave (km/s) = 4.89485 5.55988 5.23793
#
# Compressibility (1/GPa) = 0.05277546
#
# Stress axis : x y z
#
# Youngs Moduli (GPa) = 49.47867 58.73786 22.27592
#
# Poissons Ratio (x) = 0.27482 0.21569
# Poissons Ratio (y) = 0.23150 0.00700
# Poissons Ratio (z) = 0.47908 0.01847
#
# Static dielectric constant tensor:
#      x y z
#    x 1.789640 0.000000 0.000000 
#    y 0.000000 1.753700 0.000000 
#    z 0.000000 0.000000 1.791130 
# 
# From -- ./inp_files/20882.got.cif
#   From: 2010.05.17/outbox.cif.g08.bks.cpg/sg60_11_cif.got.tgz:20882.got - 2010.06.03 14:59:27.
