data_PCOD9457617
_publ_section_title
;
Structure prediction by ZEFSAII (Michael W. Deem and Ramdas Pophale) SiO2 
 PCOD9457617
Probable space group: P B C N
;
_chemical_formula_sum "Si O2"
_cell_formula_units_Z 44
_cell_length_a 24.982148
_cell_length_b 5.036841
_cell_length_c 13.687772
_cell_angle_alpha 90.000000
_cell_angle_beta 90.000000
_cell_angle_gamma 90.000000
_cell_volume 1722.347507
_symmetry_space_group_name_H-M "P B C N"
_symmetry_group_IT_number 60
_symmetry_cell_setting 'orthorhombic'
loop_
_space_group_symop_operation_xyz
x,y,z
1/2-x,1/2-y,1/2+z
1/2+x,1/2-y,-z
-x,y,1/2-z
-x,-y,-z
1/2+x,1/2+y,1/2-z
1/2-x,1/2+y,z
x,-y,1/2+z
loop_
_atom_site_type_symbol
_atom_site_label
_atom_site_fract_x
_atom_site_fract_y
_atom_site_fract_z
Si Si1 0.000000 0.546650 0.750000
Si Si2 0.019543 0.245743 0.442270
Si Si3 0.863833 0.977000 0.586772
Si Si4 0.159891 0.482579 0.533211
Si Si5 0.215696 0.636916 0.721331
Si Si6 0.384968 0.828863 0.736664
O O1 0.010306 0.734536 0.659665
O O2 0.946194 0.380807 0.734544
O O3 0.081803 0.195420 0.425317
O O4 0.000000 0.500000 0.500000
O O5 0.000000 0.000000 0.500000
O O6 0.823512 0.762167 0.537400
O O7 0.841674 0.554527 0.735434
O O8 0.862705 0.256453 0.523973
O O9 0.205409 0.601965 0.604826
O O10 0.134211 0.917125 0.301767
O O11 0.241538 0.912603 0.748288
O O12 0.122037 0.340195 0.618340
#
# Coordination Sequence:
#
# PCOD9457617 Si02
#       6
#     4   8   8   8   8   8
#     4  12  24  48  70 114 148 200 244 288 378 442
#     4  12  27  44  68 101 151 195 238 294 351 438
#     4  12  23  46  68 109 140 193 249 292 371 447
#     4  10  25  43  75  99 149 184 243 311 367 428
#     4  10  23  48  74 103 144 193 245 307 382 441
#     4  10  26  44  77 105 153 192 245 309 362 448
#
# _framework density 25.546529
#
# number of rings (size 3 to 8) (size 9 to 14) (size 15 to 20)
#    1.091    0.000    0.000    6.545    0.000   10.182 
#    0.000    5.455    0.000    0.000    0.000    0.000 
#    0.000    0.000    0.000    0.000    0.000    0.000 
#
# Total GULP energy -245739.336788 kJ/mol
# GULP energy per Si atom -5584.984927 kJ/mol
# Density = 2.548838 g / cm^3
# Si number density = 25.546529 Si / 1000 Ang^3
#
#
#
# Elastic Constant Matrix: (Units=GPa)
#
#
# Indices 1 2 3 4 5 6 
#
# 1 122.1641 41.2160 1.8095 0.0000 0.0000 0.0000
# 2 41.2160 194.4896 74.1308 0.0000 0.0000 0.0000
# 3 1.8095 74.1308 111.1801 0.0000 0.0000 0.0000
# 4 0.0000 0.0000 0.0000 26.9818 0.0000 0.0000
# 5 0.0000 0.0000 0.0000 0.0000 29.7611 0.0000
# 6 0.0000 0.0000 0.0000 0.0000 0.0000 36.3859
#
#
#
# Elastic Compliance Matrix: (Units=1/GPa)
#
#
# Indices 1 2 3 4 5 6 
#
# 1 0.009001 -0.002483 0.001509 0.000000 0.000000 0.000000
# 2 -0.002483 0.007578 -0.005013 0.000000 0.000000 0.000000
# 3 0.001509 -0.005013 0.012312 0.000000 0.000000 0.000000
# 4 0.000000 0.000000 0.000000 0.037062 0.000000 0.000000
# 5 0.000000 0.000000 0.000000 0.000000 0.033601 0.000000
# 6 0.000000 0.000000 0.000000 0.000000 0.000000 0.027483
#
#
# Mechanical properties :
#
#
# Convention : Reuss Voigt Hill
#
# Bulk Modulus (GPa) = 59.10630 73.57181 66.33906
# Shear Modulus (GPa) = 34.56631 39.33760 36.95196
#
# Velocity S-wave (km/s) = 3.68240 3.92834 3.80736
# Velocity P-wave (km/s) = 6.42395 7.03118 6.73441
#
# Compressibility (1/GPa) = 0.01691867
#
# Stress axis : x y z
#
# Youngs Moduli (GPa) = 111.09964 131.95540 81.22137
#
# Poissons Ratio (x) = 0.32759 -0.12255
# Poissons Ratio (y) = 0.27581 0.40713
# Poissons Ratio (z) = -0.16762 0.66143
#
# Static dielectric constant tensor:
#      x y z
#    x 2.134130 0.000000 0.000000 
#    y 0.000000 2.138300 0.000000 
#    z 0.000000 0.000000 2.160440 
# 
# From -- ./inp_files/18122.got.cif
#   From: 2010.05.17/outbox.cif.g08.bks.cpg/sg60_10_cif.got.tgz:18122.got - 2010.06.03 14:59:27.
