data_PCOD9457548
_publ_section_title
;
Structure prediction by ZEFSAII (Michael W. Deem and Ramdas Pophale) SiO2 
 PCOD9457548
Probable space group: P B C N
;
_chemical_formula_sum "Si O2"
_cell_formula_units_Z 64
_cell_length_a 16.756062
_cell_length_b 14.886826
_cell_length_c 11.493890
_cell_angle_alpha 90.000000
_cell_angle_beta 90.000000
_cell_angle_gamma 90.000000
_cell_volume 2867.088557
_symmetry_space_group_name_H-M "P B C N"
_symmetry_group_IT_number 60
_symmetry_cell_setting 'orthorhombic'
loop_
_space_group_symop_operation_xyz
x,y,z
1/2-x,1/2-y,1/2+z
1/2+x,1/2-y,-z
-x,y,1/2-z
-x,-y,-z
1/2+x,1/2+y,1/2-z
1/2-x,1/2+y,z
x,-y,1/2+z
loop_
_atom_site_type_symbol
_atom_site_label
_atom_site_fract_x
_atom_site_fract_y
_atom_site_fract_z
Si Si1 0.050407 0.780527 0.988483
Si Si2 0.086068 0.872106 0.229866
Si Si3 0.697354 0.519981 0.599776
Si Si4 0.649399 0.221235 0.125807
Si Si5 0.886387 0.852522 0.930454
Si Si6 0.012503 0.606944 0.616439
Si Si7 0.126922 0.524538 0.452888
Si Si8 0.319317 0.681485 0.320454
O O1 0.121773 0.762772 0.900036
O O2 0.981561 0.846468 0.940933
O O3 0.004310 0.684702 0.980166
O O4 0.086799 0.829249 0.101675
O O5 0.158725 0.930471 0.285587
O O6 0.085152 0.782773 0.310441
O O7 0.000000 0.919304 0.250000
O O8 0.645357 0.559076 0.494144
O O9 0.790516 0.529788 0.563714
O O10 0.689245 0.414172 0.616066
O O11 0.633803 0.116515 0.119356
O O12 0.734334 0.229156 0.189742
O O13 0.654188 0.269696 0.001154
O O14 0.858790 0.840896 0.800851
O O15 0.096922 0.559812 0.580771
O O16 0.000000 0.639467 0.750000
O O17 0.944746 0.533394 0.596994
#
# Coordination Sequence:
#
# PCOD9457548 Si02
#       8
#     8   8   8   8   8   8   8   8
#     4  12  25  44  69 106 138 194 239 293 372 440
#     4  11  22  44  74  99 141 190 244 301 356 451
#     4  10  25  45  68 107 135 193 242 307 366 426
#     4  10  23  45  66 103 136 192 236 300 368 429
#     4  11  23  47  67  96 148 181 239 300 357 447
#     4  11  24  42  70 105 142 193 237 305 373 455
#     4  10  23  45  68 102 144 180 250 301 370 435
#     4  11  27  41  69 102 140 188 238 301 366 431
#
# _framework density 22.322296999999999
#
# number of rings (size 3 to 8) (size 9 to 14) (size 15 to 20)
#    0.000    1.250    3.750    1.125    7.000    6.000 
#    2.250    0.000    0.000    0.000    0.000    0.000 
#    0.000    0.000    0.000    0.000    0.000    0.000 
#
# Total GULP energy -356948.397030 kJ/mol
# GULP energy per Si atom -5577.318704 kJ/mol
# Density = 2.227149 g / cm^3
# Si number density = 22.322297 Si / 1000 Ang^3
#
#
#
# Elastic Constant Matrix: (Units=GPa)
#
#
# Indices 1 2 3 4 5 6 
#
# 1 116.6380 11.4845 24.3072 0.0000 0.0000 0.0000
# 2 11.4845 53.6551 -11.8560 0.0000 0.0000 0.0000
# 3 24.3072 -11.8560 72.2702 0.0000 0.0000 0.0000
# 4 0.0000 0.0000 0.0000 -23.5040 0.0000 0.0000
# 5 0.0000 0.0000 0.0000 0.0000 30.1566 0.0000
# 6 0.0000 0.0000 0.0000 0.0000 0.0000 65.7824
#
#
#
# Elastic Compliance Matrix: (Units=1/GPa)
#
#
# Indices 1 2 3 4 5 6 
#
# 1 0.009631 -0.002882 -0.003712 0.000000 0.000000 0.000000
# 2 -0.002882 0.020201 0.004283 0.000000 0.000000 0.000000
# 3 -0.003712 0.004283 0.015788 0.000000 0.000000 0.000000
# 4 0.000000 0.000000 0.000000 -0.042546 0.000000 0.000000
# 5 0.000000 0.000000 0.000000 0.000000 0.033160 0.000000
# 6 0.000000 0.000000 0.000000 0.000000 0.000000 0.015202
#
#
# Mechanical properties :
#
#
# Convention : Reuss Voigt Hill
#
# Bulk Modulus (GPa) = 24.39094 32.27053 28.33073
# Shear Modulus (GPa) = 71.71272 29.06219 50.38745
#
# Velocity S-wave (km/s) = 5.67413 3.61215 4.75623
# Velocity P-wave (km/s) = 7.34017 5.64667 6.54840
#
# Compressibility (1/GPa) = 0.04099883
#
# Stress axis : x y z
#
# Youngs Moduli (GPa) = 103.83319 49.50308 63.33896
#
# Poissons Ratio (x) = 0.14265 0.23511
# Poissons Ratio (y) = 0.29921 -0.27129
# Poissons Ratio (z) = 0.38542 -0.21203
#
# Static dielectric constant tensor:
#      x y z
#    x 1.888290 0.000000 0.000000 
#    y 0.000000 1.836510 0.000000 
#    z 0.000000 0.000000 1.875490 
# 
# From -- ./inp_files/12567.got.cif
#   From: 2010.05.17/outbox.cif.g08.bks.cpg/sg60_7_cif.got.tgz:12567.got - 2010.06.03 14:59:27.
