data_PCOD9457219
_publ_section_title
;
Structure prediction by ZEFSAII (Michael W. Deem and Ramdas Pophale) SiO2 
 PCOD9457219
Probable space group: P B C N
;
_chemical_formula_sum "Si O2"
_cell_formula_units_Z 60
_cell_length_a 8.428621
_cell_length_b 16.847943
_cell_length_c 19.079509
_cell_angle_alpha 90.000000
_cell_angle_beta 90.000000
_cell_angle_gamma 90.000000
_cell_volume 2709.384267
_symmetry_space_group_name_H-M "P B C N"
_symmetry_group_IT_number 60
_symmetry_cell_setting 'orthorhombic'
loop_
_space_group_symop_operation_xyz
x,y,z
1/2-x,1/2-y,1/2+z
1/2+x,1/2-y,-z
-x,y,1/2-z
-x,-y,-z
1/2+x,1/2+y,1/2-z
1/2-x,1/2+y,z
x,-y,1/2+z
loop_
_atom_site_type_symbol
_atom_site_label
_atom_site_fract_x
_atom_site_fract_y
_atom_site_fract_z
Si Si1 0.599045 0.905809 0.444976
Si Si2 0.118775 0.588125 0.060689
Si Si3 0.149730 0.188259 0.586075
Si Si4 0.000000 0.840719 0.750000
Si Si5 0.603377 0.203459 0.650638
Si Si6 0.178569 0.436010 0.716409
Si Si7 0.817163 0.113599 0.767449
Si Si8 0.312008 0.699278 0.981798
O O1 0.527784 0.873951 0.518059
O O2 0.785766 0.895133 0.442956
O O3 0.520760 0.860311 0.379764
O O4 0.567635 0.997299 0.435904
O O5 0.157682 0.605740 0.140399
O O6 0.261245 0.611103 0.008082
O O7 0.160211 0.176518 0.668803
O O8 0.271205 0.250085 0.550766
O O9 0.981962 0.202395 0.552361
O O10 0.977959 0.779197 0.685614
O O11 0.835967 0.891929 0.752156
O O12 0.719439 0.158485 0.705928
O O13 0.698873 0.226995 0.581183
O O14 0.228362 0.529958 0.714945
O O15 0.000000 0.429848 0.750000
O O16 0.000000 0.092488 0.750000
#
# Coordination Sequence:
#
# PCOD9457219 Si02
#       8
#     8   8   8   4   8   8   8   8
#     4  10  22  45  72 101 142 190 248 297 376 453
#     4  10  23  44  70 105 138 193 242 301 373 450
#     4  12  25  45  69 111 147 198 250 321 378 466
#     4  12  30  46  78 114 152 198 260 320 398 452
#     4  11  25  48  76 109 146 201 247 316 382 458
#     4  12  28  51  77 113 156 201 255 330 385 472
#     4  12  25  50  81 111 152 204 263 314 401 469
#     4  11  26  44  70 101 153 192 247 311 377 452
#
# _framework density 22.145253
#
# number of rings (size 3 to 8) (size 9 to 14) (size 15 to 20)
#    0.000    0.800    3.333    3.200    6.533    3.200 
#    0.000    0.000    0.000    0.000    0.000    0.000 
#    0.000    0.000    0.000    0.000    0.000    0.000 
#
# Total GULP energy -334470.882050 kJ/mol
# GULP energy per Si atom -5574.514701 kJ/mol
# Density = 2.209485 g / cm^3
# Si number density = 22.145253 Si / 1000 Ang^3
#
#
#
# Elastic Constant Matrix: (Units=GPa)
#
#
# Indices 1 2 3 4 5 6 
#
# 1 123.6436 57.9410 48.8736 0.0000 0.0000 0.0000
# 2 57.9410 82.4811 61.4424 0.0000 0.0000 0.0000
# 3 48.8736 61.4424 141.5934 0.0000 0.0000 0.0000
# 4 0.0000 0.0000 0.0000 28.3796 0.0000 0.0000
# 5 0.0000 0.0000 0.0000 0.0000 -11.0141 0.0000
# 6 0.0000 0.0000 0.0000 0.0000 0.0000 298.8714
#
#
#
# Elastic Compliance Matrix: (Units=1/GPa)
#
#
# Indices 1 2 3 4 5 6 
#
# 1 0.012106 -0.007967 -0.000722 0.000000 0.000000 0.000000
# 2 -0.007967 0.023158 -0.007299 0.000000 0.000000 0.000000
# 3 -0.000722 -0.007299 0.010479 0.000000 0.000000 0.000000
# 4 0.000000 0.000000 0.000000 0.035237 0.000000 0.000000
# 5 0.000000 0.000000 0.000000 0.000000 -0.090793 0.000000
# 6 0.000000 0.000000 0.000000 0.000000 0.000000 0.003346
#
#
# Mechanical properties :
#
#
# Convention : Reuss Voigt Hill
#
# Bulk Modulus (GPa) = 72.63270 76.02580 74.32925
# Shear Modulus (GPa) = 166.12726 75.21146 120.66936
#
# Velocity S-wave (km/s) = 8.67064 5.83408 7.38974
# Velocity P-wave (km/s) = 11.53731 8.93236 10.31738
#
# Compressibility (1/GPa) = 0.01376790
#
# Stress axis : x y z
#
# Youngs Moduli (GPa) = 82.60097 43.18199 95.43006
#
# Poissons Ratio (x) = 0.34403 0.06887
# Poissons Ratio (y) = 0.65807 0.69655
# Poissons Ratio (z) = 0.05961 0.31519
#
# Static dielectric constant tensor:
#      x y z
#    x 1.906810 0.000000 0.000000 
#    y 0.000000 1.902980 0.000000 
#    z 0.000000 0.000000 1.853760 
# 
# From -- ./inp_files/19588.got.cif
#   From: 2010.05.17/outbox.cif.g08.bks.cpg/sg60_10_cif.got.tgz:19588.got - 2010.06.03 14:59:27.
