data_PCOD9457947
_publ_section_title
;
Structure prediction by ZEFSAII (Michael W. Deem and Ramdas Pophale) SiO2 
 PCOD9457947
Probable space group: P B C N
;
_chemical_formula_sum "Si O2"
_cell_formula_units_Z 60
_cell_length_a 14.889070
_cell_length_b 8.890492
_cell_length_c 17.228882
_cell_angle_alpha 90.000000
_cell_angle_beta 90.000000
_cell_angle_gamma 90.000000
_cell_volume 2280.607057
_symmetry_space_group_name_H-M "P B C N"
_symmetry_group_IT_number 60
_symmetry_cell_setting 'orthorhombic'
loop_
_space_group_symop_operation_xyz
x,y,z
1/2-x,1/2-y,1/2+z
1/2+x,1/2-y,-z
-x,y,1/2-z
-x,-y,-z
1/2+x,1/2+y,1/2-z
1/2-x,1/2+y,z
x,-y,1/2+z
loop_
_atom_site_type_symbol
_atom_site_label
_atom_site_fract_x
_atom_site_fract_y
_atom_site_fract_z
Si Si1 0.000000 0.879673 0.250000
Si Si2 0.746012 0.300613 0.790207
Si Si3 0.285899 0.953003 0.320821
Si Si4 0.559912 0.048979 0.927006
Si Si5 0.829218 0.888285 0.038997
Si Si6 0.562299 0.832570 0.634697
Si Si7 0.232882 0.142179 0.557402
Si Si8 0.042236 0.828778 0.670336
O O1 0.927995 0.766844 0.212798
O O2 0.984584 0.996824 0.320662
O O3 0.782382 0.457537 0.760133
O O4 0.793291 0.208399 0.858732
O O5 0.648873 0.330759 0.826427
O O6 0.721281 0.215633 0.709751
O O7 0.369917 0.027254 0.363000
O O8 0.205966 0.965894 0.382377
O O9 0.667224 0.065096 0.936428
O O10 0.522746 0.209739 0.896352
O O11 0.534005 0.912006 0.869303
O O12 0.500000 0.000000 0.000000
O O13 0.909730 0.778489 0.064647
O O14 0.753038 0.776711 0.003548
O O15 0.837016 0.022184 0.977233
O O16 0.000000 0.761671 0.750000
#
# Coordination Sequence:
#
# PCOD9457947 Si02
#       8
#     4   8   8   8   8   8   8   8
#     4  10  26  44  68 106 134 184 234 310 356 428
#     4  11  23  40  67 102 137 181 241 299 365 418
#     4  12  23  41  70 104 135 190 244 302 353 435
#     4  11  22  45  69 102 138 196 238 289 363 438
#     4  12  22  47  66 105 139 193 238 294 355 444
#     4  12  25  44  73 103 146 184 252 293 367 441
#     4  11  25  43  69 102 148 191 238 299 365 438
#     4   9  22  42  66  96 141 180 229 298 362 427
#
# _framework density 26.308785
#
# number of rings (size 3 to 8) (size 9 to 14) (size 15 to 20)
#    0.400    0.533    4.000    2.400    4.667    0.000 
#    2.400    0.667    0.000    0.000    0.000    0.000 
#    0.000    0.000    0.000    0.000    0.000    0.000 
#
# Total GULP energy -335200.673341 kJ/mol
# GULP energy per Si atom -5586.677889 kJ/mol
# Density = 2.624891 g / cm^3
# Si number density = 26.308785 Si / 1000 Ang^3
#
#
#
# Elastic Constant Matrix: (Units=GPa)
#
#
# Indices 1 2 3 4 5 6 
#
# 1 54.3377 16.5337 3.8971 0.0000 0.0000 0.0000
# 2 16.5337 86.4401 26.6055 0.0000 0.0000 0.0000
# 3 3.8971 26.6055 117.2401 0.0000 0.0000 0.0000
# 4 0.0000 0.0000 0.0000 64.3291 0.0000 0.0000
# 5 0.0000 0.0000 0.0000 0.0000 32.5556 0.0000
# 6 0.0000 0.0000 0.0000 0.0000 0.0000 40.1629
#
#
#
# Elastic Compliance Matrix: (Units=1/GPa)
#
#
# Indices 1 2 3 4 5 6 
#
# 1 0.019546 -0.003804 0.000214 0.000000 0.000000 0.000000
# 2 -0.003804 0.013178 -0.002864 0.000000 0.000000 0.000000
# 3 0.000214 -0.002864 0.009172 0.000000 0.000000 0.000000
# 4 0.000000 0.000000 0.000000 0.015545 0.000000 0.000000
# 5 0.000000 0.000000 0.000000 0.000000 0.030717 0.000000
# 6 0.000000 0.000000 0.000000 0.000000 0.000000 0.024899
#
#
# Mechanical properties :
#
#
# Convention : Reuss Voigt Hill
#
# Bulk Modulus (GPa) = 34.49887 39.12116 36.81001
# Shear Modulus (GPa) = 36.86559 41.47497 39.17028
#
# Velocity S-wave (km/s) = 3.74741 3.97478 3.86277
# Velocity P-wave (km/s) = 5.64496 5.99729 5.82379
#
# Compressibility (1/GPa) = 0.02898646
#
# Stress axis : x y z
#
# Youngs Moduli (GPa) = 51.16223 75.88464 109.02336
#
# Poissons Ratio (x) = 0.28869 -0.02329
# Poissons Ratio (y) = 0.19464 0.31225
# Poissons Ratio (z) = -0.01093 0.21734
#
# Static dielectric constant tensor:
#      x y z
#    x 2.036050 0.000000 0.000000 
#    y 0.000000 2.053440 0.000000 
#    z 0.000000 0.000000 2.194480 
# 
# From -- ./inp_files/20910.got.cif
#   From: 2010.05.17/outbox.cif.g08.bks.cpg/sg60_11_cif.got.tgz:20910.got - 2010.06.03 14:59:27.
