data_PCOD9457516
_publ_section_title
;
Structure prediction by ZEFSAII (Michael W. Deem and Ramdas Pophale) SiO2 
 PCOD9457516
Probable space group: P B C N
;
_chemical_formula_sum "Si O2"
_cell_formula_units_Z 56
_cell_length_a 15.666913
_cell_length_b 10.331497
_cell_length_c 13.553092
_cell_angle_alpha 90.000000
_cell_angle_beta 90.000000
_cell_angle_gamma 90.000000
_cell_volume 2193.739585
_symmetry_space_group_name_H-M "P B C N"
_symmetry_group_IT_number 60
_symmetry_cell_setting 'orthorhombic'
loop_
_space_group_symop_operation_xyz
x,y,z
1/2-x,1/2-y,1/2+z
1/2+x,1/2-y,-z
-x,y,1/2-z
-x,-y,-z
1/2+x,1/2+y,1/2-z
1/2-x,1/2+y,z
x,-y,1/2+z
loop_
_atom_site_type_symbol
_atom_site_label
_atom_site_fract_x
_atom_site_fract_y
_atom_site_fract_z
Si Si1 0.590391 0.928496 0.852139
Si Si2 0.232498 0.111565 0.771493
Si Si3 0.426530 0.468342 0.667364
Si Si4 0.096818 0.182843 0.526053
Si Si5 0.709296 0.103725 0.935467
Si Si6 0.164326 0.619661 0.354231
Si Si7 0.514999 0.204186 0.865044
O O1 0.683692 0.956004 0.904428
O O2 0.539249 0.055589 0.886203
O O3 0.597411 0.911709 0.734044
O O4 0.565989 0.794071 0.898666
O O5 0.155005 0.032572 0.720514
O O6 0.292009 0.152351 0.678696
O O7 0.203539 0.243522 0.821340
O O8 0.276456 0.008316 0.843422
O O9 0.500000 0.471022 0.750000
O O10 0.446310 0.558039 0.574128
O O11 0.418919 0.323775 0.624455
O O12 0.196964 0.145642 0.527459
O O13 0.066744 0.239960 0.422346
O O14 0.648969 0.134290 0.029354
O O15 0.500000 0.198562 0.750000
#
# Coordination Sequence:
#
# PCOD9457516 Si02
#       7
#     8   8   8   8   8   8   8
#     4  11  25  46  68 109 137 183 239 294 347 426
#     4  10  24  43  65 103 137 172 236 289 341 430
#     4  10  23  44  68  97 134 186 231 281 348 421
#     4  11  24  49  67 105 141 182 241 287 353 424
#     4  10  25  40  72  99 144 177 229 291 358 407
#     4  11  24  42  71  98 138 185 224 297 350 416
#     4  11  27  44  73  98 144 189 231 291 354 421
#
# _framework density 25.527187999999999
#
# number of rings (size 3 to 8) (size 9 to 14) (size 15 to 20)
#    0.000    1.429    2.857    0.857   12.000    2.857 
#    0.000    0.000    0.000    0.000    0.000    0.000 
#    0.000    0.000    0.000    0.000    0.000    0.000 
#
# Total GULP energy -312395.802259 kJ/mol
# GULP energy per Si atom -5578.496469 kJ/mol
# Density = 2.546909 g / cm^3
# Si number density = 25.527188 Si / 1000 Ang^3
#
#
#
# Elastic Constant Matrix: (Units=GPa)
#
#
# Indices 1 2 3 4 5 6 
#
# 1 48.3483 36.5530 4.6887 0.0000 0.0000 0.0000
# 2 36.5530 176.3425 17.1115 0.0000 0.0000 0.0000
# 3 4.6887 17.1115 125.8330 0.0000 0.0000 0.0000
# 4 0.0000 0.0000 0.0000 14.5203 0.0000 0.0000
# 5 0.0000 0.0000 0.0000 0.0000 34.9752 0.0000
# 6 0.0000 0.0000 0.0000 0.0000 0.0000 20.7519
#
#
#
# Elastic Compliance Matrix: (Units=1/GPa)
#
#
# Indices 1 2 3 4 5 6 
#
# 1 0.024533 -0.005063 -0.000226 0.000000 0.000000 0.000000
# 2 -0.005063 0.006792 -0.000735 0.000000 0.000000 0.000000
# 3 -0.000226 -0.000735 0.008055 0.000000 0.000000 0.000000
# 4 0.000000 0.000000 0.000000 0.068869 0.000000 0.000000
# 5 0.000000 0.000000 0.000000 0.000000 0.028592 0.000000
# 6 0.000000 0.000000 0.000000 0.000000 0.000000 0.048188
#
#
# Mechanical properties :
#
#
# Convention : Reuss Voigt Hill
#
# Bulk Modulus (GPa) = 36.58654 51.91447 44.25050
# Shear Modulus (GPa) = 24.24968 33.52752 28.88860
#
# Velocity S-wave (km/s) = 3.08548 3.62802 3.36769
# Velocity P-wave (km/s) = 5.20164 6.15883 5.70036
#
# Compressibility (1/GPa) = 0.02733246
#
# Stress axis : x y z
#
# Youngs Moduli (GPa) = 40.76088 147.23909 124.14065
#
# Poissons Ratio (x) = 0.74554 0.02800
# Poissons Ratio (y) = 0.20639 0.09123
# Poissons Ratio (z) = 0.00919 0.10821
#
# Static dielectric constant tensor:
#      x y z
#    x 2.259130 0.000000 0.000000 
#    y 0.000000 1.982460 0.000000 
#    z 0.000000 0.000000 1.997770 
# 
# From -- ./inp_files/17721.got.cif
#   From: 2010.05.17/outbox.cif.g08.bks.cpg/sg60_9_cif.got.tgz:17721.got - 2010.06.03 14:59:27.
