data_PCOD9457999
_publ_section_title
;
Structure prediction by ZEFSAII (Michael W. Deem and Ramdas Pophale) SiO2 
 PCOD9457999
Probable space group: P B C N
;
_chemical_formula_sum "Si O2"
_cell_formula_units_Z 40
_cell_length_a 7.657965
_cell_length_b 24.759454
_cell_length_c 9.469009
_cell_angle_alpha 90.000000
_cell_angle_beta 90.000000
_cell_angle_gamma 90.000000
_cell_volume 1795.390694
_symmetry_space_group_name_H-M "P B C N"
_symmetry_group_IT_number 60
_symmetry_cell_setting 'orthorhombic'
loop_
_space_group_symop_operation_xyz
x,y,z
1/2-x,1/2-y,1/2+z
1/2+x,1/2-y,-z
-x,y,1/2-z
-x,-y,-z
1/2+x,1/2+y,1/2-z
1/2-x,1/2+y,z
x,-y,1/2+z
loop_
_atom_site_type_symbol
_atom_site_label
_atom_site_fract_x
_atom_site_fract_y
_atom_site_fract_z
Si Si1 0.805300 0.465390 0.803168
Si Si2 0.814158 0.351904 0.676047
Si Si3 0.000000 0.136353 0.750000
Si Si4 0.363083 0.830494 0.140502
Si Si5 0.366853 0.538662 0.916663
Si Si6 0.500000 0.272964 0.750000
O O1 0.745705 0.408225 0.738829
O O2 0.694059 0.512408 0.730074
O O3 0.000000 0.473182 0.750000
O O4 0.790181 0.460006 0.970849
O O5 0.853134 0.357692 0.510479
O O6 0.663788 0.308076 0.701261
O O7 0.000000 0.339066 0.750000
O O8 0.828920 0.169289 0.792143
O O9 0.945374 0.096849 0.620667
O O10 0.500000 0.857471 0.250000
O O11 0.435234 0.769226 0.129942
O O12 0.500000 0.500000 0.000000
#
# Coordination Sequence:
#
# PCOD9457999 Si02
#       6
#     8   8   4   8   8   4
#     4  11  26  44  71 105 143 186 237 293 352 430
#     4  11  27  47  75 106 145 187 240 299 357 426
#     4  12  26  43  78  98 152 185 242 298 352 442
#     4  10  28  46  72 105 138 191 238 295 359 418
#     4  12  24  45  69 105 141 190 232 287 363 422
#     4  10  28  43  76 102 144 185 240 296 358 428
#
# _framework density 22.279271999999999
#
# number of rings (size 3 to 8) (size 9 to 14) (size 15 to 20)
#    0.600    0.400    2.000    1.800   15.400    0.800 
#    0.000    0.000    0.000    0.000    0.000    0.000 
#    0.000    0.000    0.000    0.000    0.000    0.000 
#
# Total GULP energy -223624.970469 kJ/mol
# GULP energy per Si atom -5590.624262 kJ/mol
# Density = 2.222856 g / cm^3
# Si number density = 22.279272 Si / 1000 Ang^3
#
#
#
# Elastic Constant Matrix: (Units=GPa)
#
#
# Indices 1 2 3 4 5 6 
#
# 1 115.4644 16.5810 17.6784 0.0000 0.0000 0.0000
# 2 16.5810 60.2711 -8.6545 0.0000 0.0000 0.0000
# 3 17.6784 -8.6545 115.9133 0.0000 0.0000 0.0000
# 4 0.0000 0.0000 0.0000 0.5147 0.0000 0.0000
# 5 0.0000 0.0000 0.0000 0.0000 33.8273 0.0000
# 6 0.0000 0.0000 0.0000 0.0000 0.0000 40.8276
#
#
#
# Elastic Compliance Matrix: (Units=1/GPa)
#
#
# Indices 1 2 3 4 5 6 
#
# 1 0.009312 -0.002796 -0.001629 0.000000 0.000000 0.000000
# 2 -0.002796 0.017611 0.001741 0.000000 0.000000 0.000000
# 3 -0.001629 0.001741 0.009006 0.000000 0.000000 0.000000
# 4 0.000000 0.000000 0.000000 1.942698 0.000000 0.000000
# 5 0.000000 0.000000 0.000000 0.000000 0.029562 0.000000
# 6 0.000000 0.000000 0.000000 0.000000 0.000000 0.024493
#
#
# Mechanical properties :
#
#
# Convention : Reuss Voigt Hill
#
# Bulk Modulus (GPa) = 32.72086 38.09542 35.40814
# Shear Modulus (GPa) = 2.44113 32.77019 17.60566
#
# Velocity S-wave (km/s) = 1.04789 3.83937 2.81415
# Velocity P-wave (km/s) = 4.02277 6.06552 5.14651
#
# Compressibility (1/GPa) = 0.03056154
#
# Stress axis : x y z
#
# Youngs Moduli (GPa) = 107.39388 56.78331 111.04244
#
# Poissons Ratio (x) = 0.15874 0.18087
# Poissons Ratio (y) = 0.30023 -0.19335
# Poissons Ratio (z) = 0.17493 -0.09887
#
# Static dielectric constant tensor:
#      x y z
#    x 1.837200 0.000000 0.000000 
#    y 0.000000 1.833770 0.000000 
#    z 0.000000 0.000000 1.839250 
# 
# From -- ./inp_files/3926.got.cif
#   From: 2010.05.17/outbox.cif.g08.bks.cpg/sg60_2_cif.got.tgz:3926.got - 2010.06.03 14:59:27.
