data_PCOD9457807
_publ_section_title
;
Structure prediction by ZEFSAII (Michael W. Deem and Ramdas Pophale) SiO2 
 PCOD9457807
Probable space group: P B C N
;
_chemical_formula_sum "Si O2"
_cell_formula_units_Z 60
_cell_length_a 6.002290
_cell_length_b 21.096710
_cell_length_c 18.078551
_cell_angle_alpha 90.000000
_cell_angle_beta 90.000000
_cell_angle_gamma 90.000000
_cell_volume 2289.261087
_symmetry_space_group_name_H-M "P B C N"
_symmetry_group_IT_number 60
_symmetry_cell_setting 'orthorhombic'
loop_
_space_group_symop_operation_xyz
x,y,z
1/2-x,1/2-y,1/2+z
1/2+x,1/2-y,-z
-x,y,1/2-z
-x,-y,-z
1/2+x,1/2+y,1/2-z
1/2-x,1/2+y,z
x,-y,1/2+z
loop_
_atom_site_type_symbol
_atom_site_label
_atom_site_fract_x
_atom_site_fract_y
_atom_site_fract_z
Si Si1 0.257077 0.156506 0.028689
Si Si2 0.528728 0.669654 0.327184
Si Si3 0.000000 0.908432 0.250000
Si Si4 0.736110 0.297623 0.327235
Si Si5 0.744204 0.529136 0.021896
Si Si6 0.463337 0.106393 0.583993
Si Si7 0.859381 0.263107 0.582835
Si Si8 0.642069 0.999179 0.180579
O O1 0.129536 0.134044 0.101400
O O2 0.494926 0.176835 0.060004
O O3 0.305802 0.109265 0.961774
O O4 0.180739 0.222542 0.991749
O O5 0.500000 0.632431 0.250000
O O6 0.691279 0.728055 0.301872
O O7 0.326798 0.706899 0.365240
O O8 0.185620 0.857065 0.224308
O O9 0.142183 0.957166 0.299144
O O10 0.507662 0.284732 0.369384
O O11 0.925058 0.325227 0.381069
O O12 0.778618 0.539978 0.109694
O O13 0.500000 0.500000 0.000000
O O14 0.000000 0.500000 0.000000
O O15 0.758833 0.590882 0.969874
O O16 0.473959 0.052536 0.645291
O O17 0.500000 0.027165 0.250000
#
# Coordination Sequence:
#
# PCOD9457807 Si02
#       8
#     8   8   4   8   8   8   8   8
#     4  11  21  37  61  89 124 177 227 269 329 404
#     4  11  24  38  57  86 135 173 220 278 341 388
#     4  12  22  34  62 100 134 162 208 276 356 422
#     4  11  22  32  59  92 128 165 215 269 338 401
#     4  10  24  46  69 100 138 180 222 281 362 436
#     4  11  22  42  64  98 129 173 230 275 335 429
#     4  11  20  38  57  88 128 174 215 274 327 393
#     4  11  24  42  68  99 138 167 216 294 366 422
#
# _framework density 26.209329
#
# number of rings (size 3 to 8) (size 9 to 14) (size 15 to 20)
#    0.000    1.067    4.000    3.200    3.733    2.667 
#    0.000    0.000    2.933    0.000    0.000    0.000 
#    0.000    0.000    0.000    0.000    0.000    0.000 
#
# Total GULP energy -334602.223698 kJ/mol
# GULP energy per Si atom -5576.703728 kJ/mol
# Density = 2.614968 g / cm^3
# Si number density = 26.209329 Si / 1000 Ang^3
#
#
#
# Elastic Constant Matrix: (Units=GPa)
#
#
# Indices 1 2 3 4 5 6 
#
# 1 80.2518 7.8208 35.3026 0.0000 0.0000 0.0000
# 2 7.8208 25.5901 -11.6852 0.0000 0.0000 0.0000
# 3 35.3026 -11.6852 126.7235 0.0000 0.0000 0.0000
# 4 0.0000 0.0000 0.0000 19.8294 0.0000 0.0000
# 5 0.0000 0.0000 0.0000 0.0000 46.6255 0.0000
# 6 0.0000 0.0000 0.0000 0.0000 0.0000 38.5681
#
#
#
# Elastic Compliance Matrix: (Units=1/GPa)
#
#
# Indices 1 2 3 4 5 6 
#
# 1 0.015288 -0.006908 -0.004896 0.000000 0.000000 0.000000
# 2 -0.006908 0.043917 0.005974 0.000000 0.000000 0.000000
# 3 -0.004896 0.005974 0.009806 0.000000 0.000000 0.000000
# 4 0.000000 0.000000 0.000000 0.050430 0.000000 0.000000
# 5 0.000000 0.000000 0.000000 0.000000 0.021447 0.000000
# 6 0.000000 0.000000 0.000000 0.000000 0.000000 0.025928
#
#
# Mechanical properties :
#
#
# Convention : Reuss Voigt Hill
#
# Bulk Modulus (GPa) = 17.43651 32.82688 25.13169
# Shear Modulus (GPa) = 25.30466 34.41308 29.85887
#
# Velocity S-wave (km/s) = 3.11059 3.62748 3.37893
# Velocity P-wave (km/s) = 4.42360 5.48606 4.98323
#
# Compressibility (1/GPa) = 0.05735093
#
# Stress axis : x y z
#
# Youngs Moduli (GPa) = 65.41247 22.77042 101.97921
#
# Poissons Ratio (x) = 0.15729 0.49927
# Poissons Ratio (y) = 0.45185 -0.60922
# Poissons Ratio (z) = 0.32025 -0.13603
#
# Static dielectric constant tensor:
#      x y z
#    x 2.765330 0.000000 0.000000 
#    y 0.000000 2.087880 0.000000 
#    z 0.000000 0.000000 2.282100 
# 
# From -- ./inp_files/18791.got.cif
#   From: 2010.05.17/outbox.cif.g08.bks.cpg/sg60_10_cif.got.tgz:18791.got - 2010.06.03 14:59:27.
