data_PCOD9457135
_publ_section_title
;
Structure prediction by ZEFSAII (Michael W. Deem and Ramdas Pophale) SiO2 
 PCOD9457135
Probable space group: P B C N
;
_chemical_formula_sum "Si O2"
_cell_formula_units_Z 48
_cell_length_a 24.758283
_cell_length_b 9.757122
_cell_length_c 8.942373
_cell_angle_alpha 90.000000
_cell_angle_beta 90.000000
_cell_angle_gamma 90.000000
_cell_volume 2160.205359
_symmetry_space_group_name_H-M "P B C N"
_symmetry_group_IT_number 60
_symmetry_cell_setting 'orthorhombic'
loop_
_space_group_symop_operation_xyz
x,y,z
1/2-x,1/2-y,1/2+z
1/2+x,1/2-y,-z
-x,y,1/2-z
-x,-y,-z
1/2+x,1/2+y,1/2-z
1/2-x,1/2+y,z
x,-y,1/2+z
loop_
_atom_site_type_symbol
_atom_site_label
_atom_site_fract_x
_atom_site_fract_y
_atom_site_fract_z
Si Si1 0.629782 0.730849 0.662463
Si Si2 0.669694 0.971577 0.120700
Si Si3 0.407794 0.768391 0.492160
Si Si4 0.986016 0.854076 0.073912
Si Si5 0.246421 0.519837 0.124458
Si Si6 0.821474 0.066465 0.124238
O O1 0.611933 0.760106 0.834553
O O2 0.575544 0.696714 0.568137
O O3 0.664922 0.593445 0.651389
O O4 0.661454 0.865217 0.608411
O O5 0.612395 0.903365 0.091762
O O6 0.709140 0.906177 0.996848
O O7 0.701750 0.946956 0.272897
O O8 0.471567 0.748753 0.498135
O O9 0.376350 0.647924 0.403266
O O10 0.000000 0.865458 0.250000
O O11 0.000000 0.000000 0.000000
O O12 0.285137 0.426703 0.023835
O O13 0.284718 0.606318 0.234179
#
# Coordination Sequence:
#
# PCOD9457135 Si02
#       6
#     8   8   8   8   8   8
#     4  11  23  43  67  98 130 169 213 269 323 380
#     4  11  24  43  62  92 138 169 216 259 324 378
#     4  11  23  43  67  98 130 169 213 269 323 380
#     4  10  22  43  70  98 126 160 214 269 322 380
#     4  10  24  40  64  96 124 180 216 264 310 384
#     4  11  22  39  68  94 128 169 224 261 318 374
#
# _framework density 22.220108
#
# number of rings (size 3 to 8) (size 9 to 14) (size 15 to 20)
#    0.000    1.333    5.000    0.000    0.000   10.000 
#    3.000    0.000    0.000    0.000    0.000    0.000 
#    0.000    0.000    0.000    0.000    0.000    0.000 
#
# Total GULP energy -268044.093243 kJ/mol
# GULP energy per Si atom -5584.251943 kJ/mol
# Density = 2.216953 g / cm^3
# Si number density = 22.220108 Si / 1000 Ang^3
#
#
#
# Elastic Constant Matrix: (Units=GPa)
#
#
# Indices 1 2 3 4 5 6 
#
# 1 81.1033 5.6944 0.0104 0.0000 0.0000 0.0000
# 2 5.6944 83.0662 -9.5826 0.0000 0.0000 0.0000
# 3 0.0104 -9.5826 71.4813 0.0000 0.0000 0.0000
# 4 0.0000 0.0000 0.0000 11.2562 0.0000 0.0000
# 5 0.0000 0.0000 0.0000 0.0000 28.9703 0.0000
# 6 0.0000 0.0000 0.0000 0.0000 0.0000 2.1377
#
#
#
# Elastic Compliance Matrix: (Units=1/GPa)
#
#
# Indices 1 2 3 4 5 6 
#
# 1 0.012391 -0.000863 -0.000117 0.000000 0.000000 0.000000
# 2 -0.000863 0.012288 0.001647 0.000000 0.000000 0.000000
# 3 -0.000117 0.001647 0.014211 0.000000 0.000000 0.000000
# 4 0.000000 0.000000 0.000000 0.088840 0.000000 0.000000
# 5 0.000000 0.000000 0.000000 0.000000 0.034518 0.000000
# 6 0.000000 0.000000 0.000000 0.000000 0.000000 0.467783
#
#
# Mechanical properties :
#
#
# Convention : Reuss Voigt Hill
#
# Bulk Modulus (GPa) = 24.86153 25.32169 25.09161
# Shear Modulus (GPa) = 7.78691 24.44143 16.11417
#
# Velocity S-wave (km/s) = 1.87405 3.32018 2.69589
# Velocity P-wave (km/s) = 3.98695 5.11064 4.58336
#
# Compressibility (1/GPa) = 0.04022279
#
# Stress axis : x y z
#
# Youngs Moduli (GPa) = 80.70666 81.38160 70.37031
#
# Poissons Ratio (x) = 0.07023 0.00827
# Poissons Ratio (y) = 0.06965 -0.11593
# Poissons Ratio (z) = 0.00948 -0.13407
#
# Static dielectric constant tensor:
#      x y z
#    x 1.813770 0.000000 0.000000 
#    y 0.000000 1.823430 0.000000 
#    z 0.000000 0.000000 1.836990 
# 
# From -- ./inp_files/8406.got.cif
#   From: 2010.05.17/outbox.cif.g08.bks.cpg/sg60_5_cif.got.tgz:8406.got - 2010.06.03 14:59:27.
