data_PCOD9457908
_publ_section_title
;
Structure prediction by ZEFSAII (Michael W. Deem and Ramdas Pophale) SiO2 
 PCOD9457908
Probable space group: P B C N
;
_chemical_formula_sum "Si O2"
_cell_formula_units_Z 24
_cell_length_a 11.650150
_cell_length_b 6.900703
_cell_length_c 12.407991
_cell_angle_alpha 90.000000
_cell_angle_beta 90.000000
_cell_angle_gamma 90.000000
_cell_volume 997.530821
_symmetry_space_group_name_H-M "P B C N"
_symmetry_group_IT_number 60
_symmetry_cell_setting 'orthorhombic'
loop_
_space_group_symop_operation_xyz
x,y,z
1/2-x,1/2-y,1/2+z
1/2+x,1/2-y,-z
-x,y,1/2-z
-x,-y,-z
1/2+x,1/2+y,1/2-z
1/2-x,1/2+y,z
x,-y,1/2+z
loop_
_atom_site_type_symbol
_atom_site_label
_atom_site_fract_x
_atom_site_fract_y
_atom_site_fract_z
Si Si1 0.150954 0.455222 0.802282
Si Si2 0.400707 0.636864 0.364810
Si Si3 0.049496 0.773295 0.105550
O O1 0.107076 0.673488 0.791432
O O2 0.281658 0.469724 0.838864
O O3 0.129785 0.330975 0.693595
O O4 0.068473 0.350156 0.889278
O O5 0.398343 0.713730 0.487833
O O6 0.508346 0.490225 0.362107
#
# Coordination Sequence:
#
# PCOD9457908 Si02
#       3
#     8   8   8
#     4  11  23  45  73 106 145 199 246 306 377 436
#     4  11  23  47  72 109 152 192 258 302 375 446
#     4  10  25  45  73 107 150 199 243 311 370 436
#
# _framework density 24.059405999999999
#
# number of rings (size 3 to 8) (size 9 to 14) (size 15 to 20)
#    0.000    1.333    3.333    1.000    0.000    8.000 
#    0.000    0.000    0.000    0.000    0.000    0.000 
#    0.000    0.000    0.000    0.000    0.000    0.000 
#
# Total GULP energy -134250.097522 kJ/mol
# GULP energy per Si atom -5593.754063 kJ/mol
# Density = 2.400465 g / cm^3
# Si number density = 24.059406 Si / 1000 Ang^3
#
#
#
# Elastic Constant Matrix: (Units=GPa)
#
#
# Indices 1 2 3 4 5 6 
#
# 1 88.5567 3.0799 28.5467 0.0000 0.0000 0.0000
# 2 3.0799 130.9928 -9.2673 0.0000 0.0000 0.0000
# 3 28.5467 -9.2673 62.8915 0.0000 0.0000 0.0000
# 4 0.0000 0.0000 0.0000 31.7361 0.0000 0.0000
# 5 0.0000 0.0000 0.0000 0.0000 21.3681 0.0000
# 6 0.0000 0.0000 0.0000 0.0000 0.0000 34.5654
#
#
#
# Elastic Compliance Matrix: (Units=1/GPa)
#
#
# Indices 1 2 3 4 5 6 
#
# 1 0.013300 -0.000748 -0.006147 0.000000 0.000000 0.000000
# 2 -0.000748 0.007756 0.001482 0.000000 0.000000 0.000000
# 3 -0.006147 0.001482 0.018909 0.000000 0.000000 0.000000
# 4 0.000000 0.000000 0.000000 0.031510 0.000000 0.000000
# 5 0.000000 0.000000 0.000000 0.000000 0.046799 0.000000
# 6 0.000000 0.000000 0.000000 0.000000 0.000000 0.028931
#
#
# Mechanical properties :
#
#
# Convention : Reuss Voigt Hill
#
# Bulk Modulus (GPa) = 34.31638 36.35104 35.33371
# Shear Modulus (GPa) = 29.80759 34.87269 32.34014
#
# Velocity S-wave (km/s) = 3.52364 3.81128 3.67028
# Velocity P-wave (km/s) = 5.55418 5.87448 5.71657
#
# Compressibility (1/GPa) = 0.02914060
#
# Stress axis : x y z
#
# Youngs Moduli (GPa) = 75.18963 128.92493 52.88502
#
# Poissons Ratio (x) = 0.09638 0.32508
# Poissons Ratio (y) = 0.05621 -0.07839
# Poissons Ratio (z) = 0.46219 -0.19110
#
# Static dielectric constant tensor:
#      x y z
#    x 1.928420 0.000000 0.000000 
#    y 0.000000 1.975490 0.000000 
#    z 0.000000 0.000000 1.930830 
# 
# From -- ./inp_files/16458.got.cif
#   From: 2010.05.17/outbox.cif.g08.bks.cpg/sg60_9_cif.got.tgz:16458.got - 2010.06.03 14:59:27.
