data_PCOD9457720
_publ_section_title
;
Structure prediction by ZEFSAII (Michael W. Deem and Ramdas Pophale) SiO2 
 PCOD9457720
Probable space group: P B C N
;
_chemical_formula_sum "Si O2"
_cell_formula_units_Z 64
_cell_length_a 16.053681
_cell_length_b 8.935572
_cell_length_c 21.627281
_cell_angle_alpha 90.000000
_cell_angle_beta 90.000000
_cell_angle_gamma 90.000000
_cell_volume 3102.407992
_symmetry_space_group_name_H-M "P B C N"
_symmetry_group_IT_number 60
_symmetry_cell_setting 'orthorhombic'
loop_
_space_group_symop_operation_xyz
x,y,z
1/2-x,1/2-y,1/2+z
1/2+x,1/2-y,-z
-x,y,1/2-z
-x,-y,-z
1/2+x,1/2+y,1/2-z
1/2-x,1/2+y,z
x,-y,1/2+z
loop_
_atom_site_type_symbol
_atom_site_label
_atom_site_fract_x
_atom_site_fract_y
_atom_site_fract_z
Si Si1 0.911209 0.500811 0.471117
Si Si2 0.801979 0.039765 0.350220
Si Si3 0.308490 0.542050 0.867547
Si Si4 0.189180 0.248624 0.573003
Si Si5 0.573311 0.184028 0.846810
Si Si6 0.192873 0.392795 0.254771
Si Si7 0.217530 0.322355 0.951318
Si Si8 0.426429 0.349109 0.799658
O O1 0.892482 0.667651 0.448568
O O2 0.905912 0.394077 0.411163
O O3 0.848512 0.441844 0.523406
O O4 0.000000 0.500000 0.500000
O O5 0.820459 0.918139 0.402776
O O6 0.767185 0.941510 0.292516
O O7 0.728967 0.148885 0.373576
O O8 0.877870 0.156297 0.343970
O O9 0.230146 0.544531 0.819209
O O10 0.289970 0.413598 0.917368
O O11 0.314335 0.698679 0.903334
O O12 0.393600 0.496007 0.833353
O O13 0.249140 0.253342 0.513781
O O14 0.611232 0.082213 0.790442
O O15 0.475955 0.223795 0.839749
O O16 0.160038 0.228197 0.276272
O O17 0.500000 0.381819 0.750000
#
# Coordination Sequence:
#
# PCOD9457720 Si02
#       8
#     8   8   8   8   8   8   8   8
#     4  12  27  44  68 101 139 177 221 289 349 403
#     4  12  21  41  75 101 125 174 238 279 331 405
#     4  12  25  41  71  99 132 182 227 273 337 417
#     4  12  22  43  70 101 130 171 229 290 327 402
#     4  11  24  45  68  97 138 175 227 282 347 397
#     4  11  21  40  68 100 124 178 224 278 333 404
#     4  12  24  43  68  99 137 174 232 274 337 408
#     4  10  24  43  64  97 138 174 216 282 344 403
#
# _framework density 20.629135999999999
#
# number of rings (size 3 to 8) (size 9 to 14) (size 15 to 20)
#    0.000    0.500    7.500    1.500    3.500    1.000 
#    0.000    1.250    0.000    0.000    0.000    0.000 
#    0.000    0.000    0.000    0.000    0.000    0.000 
#
# Total GULP energy -356274.763664 kJ/mol
# GULP energy per Si atom -5566.793182 kJ/mol
# Density = 2.058218 g / cm^3
# Si number density = 20.629136 Si / 1000 Ang^3
#
#
#
# Elastic Constant Matrix: (Units=GPa)
#
#
# Indices 1 2 3 4 5 6 
#
# 1 49.2212 13.4508 7.0816 0.0000 0.0000 0.0000
# 2 13.4508 58.6811 3.1308 0.0000 0.0000 0.0000
# 3 7.0816 3.1308 66.5712 0.0000 0.0000 0.0000
# 4 0.0000 0.0000 0.0000 25.7436 0.0000 0.0000
# 5 0.0000 0.0000 0.0000 0.0000 31.0575 0.0000
# 6 0.0000 0.0000 0.0000 0.0000 0.0000 29.0908
#
#
#
# Elastic Compliance Matrix: (Units=1/GPa)
#
#
# Indices 1 2 3 4 5 6 
#
# 1 0.021964 -0.004922 -0.002105 0.000000 0.000000 0.000000
# 2 -0.004922 0.018187 -0.000332 0.000000 0.000000 0.000000
# 3 -0.002105 -0.000332 0.015261 0.000000 0.000000 0.000000
# 4 0.000000 0.000000 0.000000 0.038845 0.000000 0.000000
# 5 0.000000 0.000000 0.000000 0.000000 0.032198 0.000000
# 6 0.000000 0.000000 0.000000 0.000000 0.000000 0.034375
#
#
# Mechanical properties :
#
#
# Convention : Reuss Voigt Hill
#
# Bulk Modulus (GPa) = 24.57329 24.64444 24.60887
# Shear Modulus (GPa) = 26.43910 27.23240 26.83575
#
# Velocity S-wave (km/s) = 3.58388 3.63725 3.61067
# Velocity P-wave (km/s) = 5.39105 5.44167 5.41642
#
# Compressibility (1/GPa) = 0.04069459
#
# Stress axis : x y z
#
# Youngs Moduli (GPa) = 45.52808 54.98354 65.52636
#
# Poissons Ratio (x) = 0.27065 0.13793
# Poissons Ratio (y) = 0.22411 0.02174
# Poissons Ratio (z) = 0.09584 0.01824
#
# Static dielectric constant tensor:
#      x y z
#    x 1.761780 0.000000 0.000000 
#    y 0.000000 1.749390 0.000000 
#    z 0.000000 0.000000 1.848690 
# 
# From -- ./inp_files/23084.got.cif
#   From: 2010.05.17/outbox.cif.g08.bks.cpg/sg60_12_cif.got.tgz:23084.got - 2010.06.03 14:59:27.
