data_PCOD9457119
_publ_section_title
;
Structure prediction by ZEFSAII (Michael W. Deem and Ramdas Pophale) SiO2 
 PCOD9457119
Probable space group: P B C N
;
_chemical_formula_sum "Si O2"
_cell_formula_units_Z 56
_cell_length_a 14.189592
_cell_length_b 28.274423
_cell_length_c 5.782454
_cell_angle_alpha 90.000000
_cell_angle_beta 90.000000
_cell_angle_gamma 90.000000
_cell_volume 2319.935154
_symmetry_space_group_name_H-M "P B C N"
_symmetry_group_IT_number 60
_symmetry_cell_setting 'orthorhombic'
loop_
_space_group_symop_operation_xyz
x,y,z
1/2-x,1/2-y,1/2+z
1/2+x,1/2-y,-z
-x,y,1/2-z
-x,-y,-z
1/2+x,1/2+y,1/2-z
1/2-x,1/2+y,z
x,-y,1/2+z
loop_
_atom_site_type_symbol
_atom_site_label
_atom_site_fract_x
_atom_site_fract_y
_atom_site_fract_z
Si Si1 0.835492 0.488932 0.441826
Si Si2 0.500000 0.405426 0.250000
Si Si3 0.861441 0.833091 0.234407
Si Si4 0.500000 0.822796 0.250000
Si Si5 0.126945 0.253769 0.541156
Si Si6 0.177921 0.623268 0.554320
Si Si7 0.213181 0.822606 0.703977
Si Si8 0.123306 0.978270 0.534210
O O1 0.881950 0.496539 0.695736
O O2 0.815657 0.432775 0.420205
O O3 0.737815 0.519252 0.462099
O O4 0.426958 0.369518 0.131233
O O5 0.437893 0.436322 0.425094
O O6 0.893066 0.778185 0.234928
O O7 0.754550 0.847642 0.296566
O O8 0.861430 0.845388 0.964298
O O9 0.550791 0.788150 0.066901
O O10 0.577127 0.855476 0.376855
O O11 0.220135 0.283956 0.582904
O O12 0.155903 0.208971 0.385047
O O13 0.213747 0.639183 0.302645
O O14 0.102995 0.014045 0.310289
#
# Coordination Sequence:
#
# PCOD9457119 Si02
#       8
#     8   4   8   4   8   8   8   8
#     4  10  23  44  76 102 141 194 241 303 389 462
#     4  12  26  40  66 105 142 183 246 302 374 458
#     4  11  25  44  66 103 148 188 243 306 362 453
#     4  12  26  46  70 109 144 191 260 310 374 456
#     4  11  23  43  67  99 141 194 241 297 373 429
#     4  11  26  45  72 107 140 191 244 313 370 450
#     4  11  22  44  72  95 145 196 241 304 372 449
#     4  10  22  43  67  98 141 191 234 300 374 462
#
# _framework density 24.138607
#
# number of rings (size 3 to 8) (size 9 to 14) (size 15 to 20)
#    0.000    1.143    2.857    3.000    8.000    0.571 
#    5.143    0.714    0.000    0.000    0.000    0.000 
#    0.000    0.000    0.000    0.000    0.000    0.000 
#
# Total GULP energy -311967.397390 kJ/mol
# GULP energy per Si atom -5570.846382 kJ/mol
# Density = 2.408367 g / cm^3
# Si number density = 24.138607 Si / 1000 Ang^3
#
#
#
# Elastic Constant Matrix: (Units=GPa)
#
#
# Indices 1 2 3 4 5 6 
#
# 1 83.4666 27.8296 -8.1599 0.0000 0.0000 0.0000
# 2 27.8296 131.4045 30.6164 0.0000 0.0000 0.0000
# 3 -8.1599 30.6164 63.4458 0.0000 0.0000 0.0000
# 4 0.0000 0.0000 0.0000 30.7367 0.0000 0.0000
# 5 0.0000 0.0000 0.0000 0.0000 16.9111 0.0000
# 6 0.0000 0.0000 0.0000 0.0000 0.0000 19.5949
#
#
#
# Elastic Compliance Matrix: (Units=1/GPa)
#
#
# Indices 1 2 3 4 5 6 
#
# 1 0.013557 -0.003693 0.003525 0.000000 0.000000 0.000000
# 2 -0.003693 0.009580 -0.005098 0.000000 0.000000 0.000000
# 3 0.003525 -0.005098 0.018675 0.000000 0.000000 0.000000
# 4 0.000000 0.000000 0.000000 0.032534 0.000000 0.000000
# 5 0.000000 0.000000 0.000000 0.000000 0.059133 0.000000
# 6 0.000000 0.000000 0.000000 0.000000 0.000000 0.051034
#
#
# Mechanical properties :
#
#
# Convention : Reuss Voigt Hill
#
# Bulk Modulus (GPa) = 31.96760 42.09878 37.03319
# Shear Modulus (GPa) = 24.33455 28.65060 26.49257
#
# Velocity S-wave (km/s) = 3.17853 3.44891 3.31648
# Velocity P-wave (km/s) = 5.17135 5.77393 5.48093
#
# Compressibility (1/GPa) = 0.03128167
#
# Stress axis : x y z
#
# Youngs Moduli (GPa) = 73.76450 104.38573 53.54794
#
# Poissons Ratio (x) = 0.38544 -0.18878
# Poissons Ratio (y) = 0.27238 0.27297
# Poissons Ratio (z) = -0.26005 0.53213
#
# Static dielectric constant tensor:
#      x y z
#    x 1.985900 0.000000 0.000000 
#    y 0.000000 1.970710 0.000000 
#    z 0.000000 0.000000 2.569530 
# 
# From -- ./inp_files/1505.got.cif
#   From: 2010.05.17/outbox.cif.g08.bks.cpg/sg60_1_cif.got.tgz:1505.got - 2010.06.03 14:59:27.
