data_PCOD9457786
_publ_section_title
;
Structure prediction by ZEFSAII (Michael W. Deem and Ramdas Pophale) SiO2 
 PCOD9457786
Probable space group: P B C N
;
_chemical_formula_sum "Si O2"
_cell_formula_units_Z 56
_cell_length_a 13.974192
_cell_length_b 33.390461
_cell_length_c 5.132814
_cell_angle_alpha 90.000000
_cell_angle_beta 90.000000
_cell_angle_gamma 90.000000
_cell_volume 2394.995203
_symmetry_space_group_name_H-M "P B C N"
_symmetry_group_IT_number 60
_symmetry_cell_setting 'orthorhombic'
loop_
_space_group_symop_operation_xyz
x,y,z
1/2-x,1/2-y,1/2+z
1/2+x,1/2-y,-z
-x,y,1/2-z
-x,-y,-z
1/2+x,1/2+y,1/2-z
1/2-x,1/2+y,z
x,-y,1/2+z
loop_
_atom_site_type_symbol
_atom_site_label
_atom_site_fract_x
_atom_site_fract_y
_atom_site_fract_z
Si Si1 0.064020 0.194104 0.992522
Si Si2 0.115592 0.977195 0.721095
Si Si3 0.891634 0.611833 0.635618
Si Si4 0.115953 0.522977 0.731163
Si Si5 0.206046 0.740258 0.340805
Si Si6 0.305076 0.147476 0.374042
Si Si7 0.388270 0.386215 0.662413
O O1 0.107340 0.149422 0.950018
O O2 0.000000 0.192678 0.250000
O O3 0.139131 0.229701 0.006295
O O4 0.000000 0.203875 0.750000
O O5 0.139696 0.932556 0.622711
O O6 0.000000 0.978794 0.750000
O O7 0.147795 0.009733 0.508536
O O8 0.853556 0.566988 0.685248
O O9 0.871212 0.623505 0.336312
O O10 0.000000 0.613256 0.750000
O O11 0.834837 0.640687 0.829223
O O12 0.143893 0.510319 0.441983
O O13 0.000000 0.523892 0.750000
O O14 0.291179 0.740501 0.554390
O O15 0.180459 0.694015 0.309814
O O16 0.196080 0.132114 0.341119
O O17 0.500000 0.389240 0.750000
#
# Coordination Sequence:
#
# PCOD9457786 Si02
#       7
#     8   8   8   8   8   8   8
#     4  11  25  43  71 104 134 179 235 284 344 415
#     4   9  19  37  62  91 129 178 223 275 342 401
#     4  11  25  45  68 100 141 181 232 284 345 419
#     4   9  17  34  63  94 129 176 223 278 341 401
#     4  12  25  46  70  97 139 177 224 288 347 411
#     4  12  26  44  72 102 137 185 230 283 356 413
#     4  10  24  45  70 101 139 179 232 288 340 410
#
# _framework density 23.382093999999999
#
# number of rings (size 3 to 8) (size 9 to 14) (size 15 to 20)
#    0.000    1.429    1.429    3.000    2.000    9.143 
#    0.000    4.286    0.000    0.000    0.000    0.000 
#    0.000    0.000    0.000    0.000    0.000    0.000 
#
# Total GULP energy -312510.843102 kJ/mol
# GULP energy per Si atom -5580.550770 kJ/mol
# Density = 2.332888 g / cm^3
# Si number density = 23.382094 Si / 1000 Ang^3
#
#
#
# Elastic Constant Matrix: (Units=GPa)
#
#
# Indices 1 2 3 4 5 6 
#
# 1 72.3771 -5.7855 -10.6969 0.0000 0.0000 0.0000
# 2 -5.7855 127.7413 -4.7389 0.0000 0.0000 0.0000
# 3 -10.6969 -4.7389 95.4574 0.0000 0.0000 0.0000
# 4 0.0000 0.0000 0.0000 35.5898 0.0000 0.0000
# 5 0.0000 0.0000 0.0000 0.0000 24.0762 0.0000
# 6 0.0000 0.0000 0.0000 0.0000 0.0000 22.0156
#
#
#
# Elastic Compliance Matrix: (Units=1/GPa)
#
#
# Indices 1 2 3 4 5 6 
#
# 1 0.014111 0.000699 0.001616 0.000000 0.000000 0.000000
# 2 0.000699 0.007877 0.000469 0.000000 0.000000 0.000000
# 3 0.001616 0.000469 0.010680 0.000000 0.000000 0.000000
# 4 0.000000 0.000000 0.000000 0.028098 0.000000 0.000000
# 5 0.000000 0.000000 0.000000 0.000000 0.041535 0.000000
# 6 0.000000 0.000000 0.000000 0.000000 0.000000 0.045422
#
#
# Mechanical properties :
#
#
# Convention : Reuss Voigt Hill
#
# Bulk Modulus (GPa) = 26.15209 28.12590 27.13899
# Shear Modulus (GPa) = 32.27867 37.45613 34.86740
#
# Velocity S-wave (km/s) = 3.71952 4.00674 3.86580
# Velocity P-wave (km/s) = 5.44568 5.78448 5.61763
#
# Compressibility (1/GPa) = 0.03823786
#
# Stress axis : x y z
#
# Youngs Moduli (GPa) = 70.86544 126.94553 93.63057
#
# Poissons Ratio (x) = -0.08874 -0.15131
# Poissons Ratio (y) = -0.04954 -0.04395
# Poissons Ratio (z) = -0.11452 -0.05959
#
# Static dielectric constant tensor:
#      x y z
#    x 2.028260 0.000000 0.000000 
#    y 0.000000 1.814170 0.000000 
#    z 0.000000 0.000000 1.954830 
# 
# From -- ./inp_files/1470.got.cif
#   From: 2010.05.17/outbox.cif.g08.bks.cpg/sg60_1_cif.got.tgz:1470.got - 2010.06.03 14:59:27.
