data_PCOD9457555
_publ_section_title
;
Structure prediction by ZEFSAII (Michael W. Deem and Ramdas Pophale) SiO2 
 PCOD9457555
Probable space group: P B C N
;
_chemical_formula_sum "Si O2"
_cell_formula_units_Z 52
_cell_length_a 14.052923
_cell_length_b 14.630635
_cell_length_c 11.550435
_cell_angle_alpha 90.000000
_cell_angle_beta 90.000000
_cell_angle_gamma 90.000000
_cell_volume 2374.806248
_symmetry_space_group_name_H-M "P B C N"
_symmetry_group_IT_number 60
_symmetry_cell_setting 'orthorhombic'
loop_
_space_group_symop_operation_xyz
x,y,z
1/2-x,1/2-y,1/2+z
1/2+x,1/2-y,-z
-x,y,1/2-z
-x,-y,-z
1/2+x,1/2+y,1/2-z
1/2-x,1/2+y,z
x,-y,1/2+z
loop_
_atom_site_type_symbol
_atom_site_label
_atom_site_fract_x
_atom_site_fract_y
_atom_site_fract_z
Si Si1 0.143053 0.187130 0.788112
Si Si2 0.286371 0.752636 0.111127
Si Si3 0.115834 0.868350 0.037846
Si Si4 0.703949 0.436952 0.000410
Si Si5 0.501112 0.761184 0.387287
Si Si6 0.500000 0.163466 0.250000
Si Si7 0.080195 0.573547 0.022913
O O1 0.094125 0.142873 0.674165
O O2 0.143382 0.027609 0.517211
O O3 0.166315 0.115541 0.886465
O O4 0.075383 0.272168 0.817571
O O5 0.243022 0.775726 0.236325
O O6 0.390506 0.789754 0.088220
O O7 0.295752 0.644063 0.094763
O O8 0.208687 0.801027 0.027592
O O9 0.034169 0.828354 0.956236
O O10 0.814972 0.464374 0.000942
O O11 0.500000 0.746660 0.250000
O O12 0.435770 0.842322 0.435286
O O13 0.560723 0.109547 0.346180
O O14 0.000000 0.500000 0.000000
#
# Coordination Sequence:
#
# PCOD9457555 Si02
#       7
#     8   8   8   8   8   4   8
#     4  10  24  46  74 101 151 203 239 311 380 445
#     4  10  23  45  68 100 149 186 244 309 363 449
#     4  10  25  46  66 112 147 193 254 298 383 446
#     4  12  23  45  74 103 146 197 249 302 375 452
#     4  12  24  47  73 106 152 192 247 312 371 444
#     4  12  22  52  76 104 156 200 242 322 380 436
#     4  12  26  44  75 116 143 192 258 309 380 447
#
# _framework density 21.896522999999998
#
# number of rings (size 3 to 8) (size 9 to 14) (size 15 to 20)
#    0.923    0.000    4.615    2.769    1.077    3.077 
#    1.385    0.000    0.000    0.000    0.000    0.000 
#    0.000    0.000    0.000    0.000    0.000    0.000 
#
# Total GULP energy -290438.002528 kJ/mol
# GULP energy per Si atom -5585.346202 kJ/mol
# Density = 2.184669 g / cm^3
# Si number density = 21.896523 Si / 1000 Ang^3
#
#
#
# Elastic Constant Matrix: (Units=GPa)
#
#
# Indices 1 2 3 4 5 6 
#
# 1 45.0114 4.1062 49.2918 0.0000 0.0000 0.0000
# 2 4.1062 110.3877 38.2138 0.0000 0.0000 0.0000
# 3 49.2918 38.2138 107.5373 0.0000 0.0000 0.0000
# 4 0.0000 0.0000 0.0000 21.3631 0.0000 0.0000
# 5 0.0000 0.0000 0.0000 0.0000 31.2823 0.0000
# 6 0.0000 0.0000 0.0000 0.0000 0.0000 33.9121
#
#
#
# Elastic Compliance Matrix: (Units=1/GPa)
#
#
# Indices 1 2 3 4 5 6 
#
# 1 0.048638 0.006737 -0.024688 0.000000 0.000000 0.000000
# 2 0.006737 0.011263 -0.007091 0.000000 0.000000 0.000000
# 3 -0.024688 -0.007091 0.023135 0.000000 0.000000 0.000000
# 4 0.000000 0.000000 0.000000 0.046810 0.000000 0.000000
# 5 0.000000 0.000000 0.000000 0.000000 0.031967 0.000000
# 6 0.000000 0.000000 0.000000 0.000000 0.000000 0.029488
#
#
# Mechanical properties :
#
#
# Convention : Reuss Voigt Hill
#
# Bulk Modulus (GPa) = 30.34617 49.57334 39.95976
# Shear Modulus (GPa) = 19.81231 28.73313 24.27272
#
# Velocity S-wave (km/s) = 3.01128 3.62639 3.33306
# Velocity P-wave (km/s) = 5.09700 6.34218 5.75337
#
# Compressibility (1/GPa) = 0.03295309
#
# Stress axis : x y z
#
# Youngs Moduli (GPa) = 20.56000 88.78673 43.22430
#
# Poissons Ratio (x) = -0.59818 1.06714
# Poissons Ratio (y) = -0.13852 0.30648
# Poissons Ratio (z) = 0.50759 0.62954
#
# Static dielectric constant tensor:
#      x y z
#    x 1.857920 0.000000 0.000000 
#    y 0.000000 1.781400 0.000000 
#    z 0.000000 0.000000 1.824610 
# 
# From -- ./inp_files/12182.got.cif
#   From: 2010.05.17/outbox.cif.g08.bks.cpg/sg60_7_cif.got.tgz:12182.got - 2010.06.03 14:59:27.
