data_PCOD9457086
_publ_section_title
;
Structure prediction by ZEFSAII (Michael W. Deem and Ramdas Pophale) SiO2 
 PCOD9457086
Probable space group: P B C N
;
_chemical_formula_sum "Si O2"
_cell_formula_units_Z 32
_cell_length_a 6.030258
_cell_length_b 17.607691
_cell_length_c 11.232163
_cell_angle_alpha 90.000000
_cell_angle_beta 90.000000
_cell_angle_gamma 90.000000
_cell_volume 1192.618931
_symmetry_space_group_name_H-M "P B C N"
_symmetry_group_IT_number 60
_symmetry_cell_setting 'orthorhombic'
loop_
_space_group_symop_operation_xyz
x,y,z
1/2-x,1/2-y,1/2+z
1/2+x,1/2-y,-z
-x,y,1/2-z
-x,-y,-z
1/2+x,1/2+y,1/2-z
1/2-x,1/2+y,z
x,-y,1/2+z
loop_
_atom_site_type_symbol
_atom_site_label
_atom_site_fract_x
_atom_site_fract_y
_atom_site_fract_z
Si Si1 0.898398 0.168207 0.933741
Si Si2 0.500000 0.944330 0.250000
Si Si3 0.172433 0.803938 0.645272
Si Si4 0.001854 0.408913 0.508696
Si Si5 0.000000 0.956473 0.250000
O O1 0.809074 0.227052 0.835911
O O2 0.736476 0.127639 0.029931
O O3 0.001194 0.096571 0.866433
O O4 0.056156 0.215738 0.019026
O O5 0.519790 0.891817 0.133124
O O6 0.742184 0.987394 0.253132
O O7 0.327891 0.873220 0.601454
O O8 0.000000 0.819406 0.750000
O O9 0.000000 0.500000 0.500000
#
# Coordination Sequence:
#
# PCOD9457086 Si02
#       5
#     8   4   8   8   4
#     4  11  25  44  72 105 149 206 260 328 409 485
#     4  10  22  46  73 104 147 216 254 326 402 506
#     4  12  27  45  76 114 153 204 270 344 409 497
#     4  11  26  48  73 110 157 208 271 335 417 493
#     4  10  22  42  75 100 147 196 266 308 392 484
#
# _framework density 26.831704999999999
#
# number of rings (size 3 to 8) (size 9 to 14) (size 15 to 20)
#    0.000    1.000    5.000    0.000   10.500    4.000 
#    9.000    0.000    0.000    0.000    0.000    0.000 
#    0.000    0.000    0.000    0.000    0.000    0.000 
#
# Total GULP energy -178385.354861 kJ/mol
# GULP energy per Si atom -5574.542339 kJ/mol
# Density = 2.677064 g / cm^3
# Si number density = 26.831705 Si / 1000 Ang^3
#
#
#
# Elastic Constant Matrix: (Units=GPa)
#
#
# Indices 1 2 3 4 5 6 
#
# 1 181.8118 57.6566 42.1183 0.0000 0.0000 0.0000
# 2 57.6566 140.3455 22.3493 0.0000 0.0000 0.0000
# 3 42.1183 22.3493 109.1240 0.0000 0.0000 0.0000
# 4 0.0000 0.0000 0.0000 69.8431 0.0000 0.0000
# 5 0.0000 0.0000 0.0000 0.0000 72.0186 0.0000
# 6 0.0000 0.0000 0.0000 0.0000 0.0000 -32.0620
#
#
#
# Elastic Compliance Matrix: (Units=1/GPa)
#
#
# Indices 1 2 3 4 5 6 
#
# 1 0.006764 -0.002443 -0.002110 0.000000 0.000000 0.000000
# 2 -0.002443 0.008248 -0.000746 0.000000 0.000000 0.000000
# 3 -0.002110 -0.000746 0.010131 0.000000 0.000000 0.000000
# 4 0.000000 0.000000 0.000000 0.014318 0.000000 0.000000
# 5 0.000000 0.000000 0.000000 0.000000 0.013885 0.000000
# 6 0.000000 0.000000 0.000000 0.000000 0.000000 -0.031190
#
#
# Mechanical properties :
#
#
# Convention : Reuss Voigt Hill
#
# Bulk Modulus (GPa) = 68.75713 75.05887 71.90800
# Shear Modulus (GPa) = 132.96941 42.57039 87.76990
#
# Velocity S-wave (km/s) = 7.04730 3.98750 5.72558
# Velocity P-wave (km/s) = 9.58646 7.01676 8.40045
#
# Compressibility (1/GPa) = 0.01454395
#
# Stress axis : x y z
#
# Youngs Moduli (GPa) = 147.84885 121.24743 98.70441
#
# Poissons Ratio (x) = 0.29616 0.20830
# Poissons Ratio (y) = 0.36113 0.07367
# Poissons Ratio (z) = 0.31201 0.09050
#
# Static dielectric constant tensor:
#      x y z
#    x 2.450680 0.000000 0.000000 
#    y 0.000000 2.028860 0.000000 
#    z 0.000000 0.000000 2.183040 
# 
# From -- ./inp_files/8849.got.cif
#   From: 2010.05.17/outbox.cif.g08.bks.cpg/sg60_5_cif.got.tgz:8849.got - 2010.06.03 14:59:27.
