data_PCOD9457187
_publ_section_title
;
Structure prediction by ZEFSAII (Michael W. Deem and Ramdas Pophale) SiO2 
 PCOD9457187
Probable space group: P B C N
;
_chemical_formula_sum "Si O2"
_cell_formula_units_Z 44
_cell_length_a 23.174502
_cell_length_b 5.220392
_cell_length_c 14.765506
_cell_angle_alpha 90.000000
_cell_angle_beta 90.000000
_cell_angle_gamma 90.000000
_cell_volume 1786.330692
_symmetry_space_group_name_H-M "P B C N"
_symmetry_group_IT_number 60
_symmetry_cell_setting 'orthorhombic'
loop_
_space_group_symop_operation_xyz
x,y,z
1/2-x,1/2-y,1/2+z
1/2+x,1/2-y,-z
-x,y,1/2-z
-x,-y,-z
1/2+x,1/2+y,1/2-z
1/2-x,1/2+y,z
x,-y,1/2+z
loop_
_atom_site_type_symbol
_atom_site_label
_atom_site_fract_x
_atom_site_fract_y
_atom_site_fract_z
Si Si1 0.820035 0.781912 0.829040
Si Si2 0.380834 0.505100 0.336554
Si Si3 0.309758 0.211026 0.102762
Si Si4 0.865981 0.485452 0.554378
Si Si5 0.500000 0.398263 0.750000
Si Si6 0.028087 0.745023 0.547070
O O1 0.832973 0.884605 0.730798
O O2 0.843390 0.495361 0.836743
O O3 0.753421 0.742712 0.857045
O O4 0.840048 0.015863 0.892635
O O5 0.356991 0.237127 0.373256
O O6 0.442031 0.459497 0.285236
O O7 0.390755 0.748028 0.404527
O O8 0.311599 0.084148 0.003979
O O9 0.907811 0.327867 0.486664
O O10 0.520546 0.257691 0.843621
O O11 0.000000 0.500000 0.500000
O O12 0.000000 0.000000 0.500000
#
# Coordination Sequence:
#
# PCOD9457187 Si02
#       6
#     8   8   8   8   4   8
#     4  10  22  45  68 102 134 192 248 301 384 454
#     4  12  26  43  72 108 148 194 256 304 386 460
#     4  10  22  44  72  94 143 186 248 310 384 436
#     4  12  24  46  69 108 147 192 251 321 369 465
#     4  12  26  46  76 104 156 210 238 322 384 454
#     4  12  25  46  69 107 151 194 259 303 375 462
#
# _framework density 24.631497
#
# number of rings (size 3 to 8) (size 9 to 14) (size 15 to 20)
#    0.000    0.727    3.636    3.273    0.000    4.364 
#    0.000   21.818    0.000    0.000    0.000    0.000 
#    0.000    0.000    0.000    0.000    0.000    0.000 
#
# Total GULP energy -245179.266048 kJ/mol
# GULP energy per Si atom -5572.256047 kJ/mol
# Density = 2.457543 g / cm^3
# Si number density = 24.631497 Si / 1000 Ang^3
#
#
#
# Elastic Constant Matrix: (Units=GPa)
#
#
# Indices 1 2 3 4 5 6 
#
# 1 63.3001 16.4004 34.3910 0.0000 0.0000 0.0000
# 2 16.4004 187.1424 40.3097 0.0000 0.0000 0.0000
# 3 34.3910 40.3097 120.5206 0.0000 0.0000 0.0000
# 4 0.0000 0.0000 0.0000 44.7731 0.0000 0.0000
# 5 0.0000 0.0000 0.0000 0.0000 48.7487 0.0000
# 6 0.0000 0.0000 0.0000 0.0000 0.0000 35.3745
#
#
#
# Elastic Compliance Matrix: (Units=1/GPa)
#
#
# Indices 1 2 3 4 5 6 
#
# 1 0.018745 -0.000529 -0.005172 0.000000 0.000000 0.000000
# 2 -0.000529 0.005773 -0.001780 0.000000 0.000000 0.000000
# 3 -0.005172 -0.001780 0.010369 0.000000 0.000000 0.000000
# 4 0.000000 0.000000 0.000000 0.022335 0.000000 0.000000
# 5 0.000000 0.000000 0.000000 0.000000 0.020513 0.000000
# 6 0.000000 0.000000 0.000000 0.000000 0.000000 0.028269
#
#
# Mechanical properties :
#
#
# Convention : Reuss Voigt Hill
#
# Bulk Modulus (GPa) = 50.18836 61.46281 55.82558
# Shear Modulus (GPa) = 39.18283 44.43675 41.80979
#
# Velocity S-wave (km/s) = 3.99276 4.25203 4.12444
# Velocity P-wave (km/s) = 6.45570 7.00810 6.73757
#
# Compressibility (1/GPa) = 0.01992494
#
# Stress axis : x y z
#
# Youngs Moduli (GPa) = 53.34841 173.21174 96.44533
#
# Poissons Ratio (x) = 0.09157 0.49882
# Poissons Ratio (y) = 0.02820 0.17168
# Poissons Ratio (z) = 0.27592 0.30833
#
# Static dielectric constant tensor:
#      x y z
#    x -0.076600 0.000000 0.000000 
#    y 0.000000 2.007810 0.000000 
#    z 0.000000 0.000000 2.034370 
# 
# From -- ./inp_files/18000.got.cif
#   From: 2010.05.17/outbox.cif.g08.bks.cpg/sg60_9_cif.got.tgz:18000.got - 2010.06.03 14:59:27.
