data_PCOD9457128
_publ_section_title
;
Structure prediction by ZEFSAII (Michael W. Deem and Ramdas Pophale) SiO2 
 PCOD9457128
Probable space group: P B C N
;
_chemical_formula_sum "Si O2"
_cell_formula_units_Z 28
_cell_length_a 8.092687
_cell_length_b 13.740514
_cell_length_c 9.209822
_cell_angle_alpha 90.000000
_cell_angle_beta 90.000000
_cell_angle_gamma 90.000000
_cell_volume 1024.110831
_symmetry_space_group_name_H-M "P B C N"
_symmetry_group_IT_number 60
_symmetry_cell_setting 'orthorhombic'
loop_
_space_group_symop_operation_xyz
x,y,z
1/2-x,1/2-y,1/2+z
1/2+x,1/2-y,-z
-x,y,1/2-z
-x,-y,-z
1/2+x,1/2+y,1/2-z
1/2-x,1/2+y,z
x,-y,1/2+z
loop_
_atom_site_type_symbol
_atom_site_label
_atom_site_fract_x
_atom_site_fract_y
_atom_site_fract_z
Si Si1 0.000000 0.395461 0.750000
Si Si2 0.892829 0.936822 0.606089
Si Si3 0.664821 0.211551 0.007800
Si Si4 0.148145 0.596560 0.958640
O O1 0.874866 0.319243 0.674230
O O2 0.085278 0.446683 0.612889
O O3 0.831901 0.850464 0.499180
O O4 0.000000 0.913435 0.750000
O O5 0.734710 0.010994 0.632751
O O6 0.000000 0.000000 0.500000
O O7 0.513727 0.163168 0.917811
O O8 0.713679 0.322853 0.001108
#
# Coordination Sequence:
#
# PCOD9457128 Si02
#       4
#     4   8   8   8
#     4   8  22  40  70  90 152 166 256 276 378 410
#     4  12  26  44  71 107 146 190 249 303 369 441
#     4  10  22  43  68  99 144 186 239 303 365 431
#     4  10  22  43  72 101 142 193 238 306 369 437
#
# _framework density 27.340792
#
# number of rings (size 3 to 8) (size 9 to 14) (size 15 to 20)
#    1.714    0.000    0.000    4.286    2.000    0.000 
#    0.000    2.857    0.000    0.000    0.000    0.000 
#    0.000    0.000    0.000    0.000    0.000    0.000 
#
# Total GULP energy -156057.176716 kJ/mol
# GULP energy per Si atom -5573.470597 kJ/mol
# Density = 2.727856 g / cm^3
# Si number density = 27.340792 Si / 1000 Ang^3
#
#
#
# Elastic Constant Matrix: (Units=GPa)
#
#
# Indices 1 2 3 4 5 6 
#
# 1 133.0711 41.6634 14.0769 0.0000 0.0000 0.0000
# 2 41.6634 160.3613 6.7626 0.0000 0.0000 0.0000
# 3 14.0769 6.7626 101.1360 0.0000 0.0000 0.0000
# 4 0.0000 0.0000 0.0000 22.8685 0.0000 0.0000
# 5 0.0000 0.0000 0.0000 0.0000 42.5715 0.0000
# 6 0.0000 0.0000 0.0000 0.0000 0.0000 50.4270
#
#
#
# Elastic Compliance Matrix: (Units=1/GPa)
#
#
# Indices 1 2 3 4 5 6 
#
# 1 0.008282 -0.002109 -0.001012 0.000000 0.000000 0.000000
# 2 -0.002109 0.006791 -0.000161 0.000000 0.000000 0.000000
# 3 -0.001012 -0.000161 0.010039 0.000000 0.000000 0.000000
# 4 0.000000 0.000000 0.000000 0.043728 0.000000 0.000000
# 5 0.000000 0.000000 0.000000 0.000000 0.023490 0.000000
# 6 0.000000 0.000000 0.000000 0.000000 0.000000 0.019831
#
#
# Mechanical properties :
#
#
# Convention : Reuss Voigt Hill
#
# Bulk Modulus (GPa) = 53.91038 57.73048 55.82043
# Shear Modulus (GPa) = 40.02989 45.31109 42.67049
#
# Velocity S-wave (km/s) = 3.83052 4.07538 3.95484
# Velocity P-wave (km/s) = 6.27093 6.58072 6.42769
#
# Compressibility (1/GPa) = 0.01854930
#
# Stress axis : x y z
#
# Youngs Moduli (GPa) = 120.74152 147.26117 99.60922
#
# Poissons Ratio (x) = 0.31059 0.10078
# Poissons Ratio (y) = 0.25466 0.01599
# Poissons Ratio (z) = 0.12216 0.02364
#
# Static dielectric constant tensor:
#      x y z
#    x 2.677400 0.000000 0.000000 
#    y 0.000000 2.139170 0.000000 
#    z 0.000000 0.000000 2.170020 
# 
# From -- ./inp_files/3458.got.cif
#   From: 2010.05.17/outbox.cif.g08.bks.cpg/sg60_2_cif.got.tgz:3458.got - 2010.06.03 14:59:27.
