data_PCOD9457422
_publ_section_title
;
Structure prediction by ZEFSAII (Michael W. Deem and Ramdas Pophale) SiO2 
 PCOD9457422
Probable space group: P B C N
;
_chemical_formula_sum "Si O2"
_cell_formula_units_Z 36
_cell_length_a 6.222510
_cell_length_b 20.730990
_cell_length_c 11.019421
_cell_angle_alpha 90.000000
_cell_angle_beta 90.000000
_cell_angle_gamma 90.000000
_cell_volume 1421.492004
_symmetry_space_group_name_H-M "P B C N"
_symmetry_group_IT_number 60
_symmetry_cell_setting 'orthorhombic'
loop_
_space_group_symop_operation_xyz
x,y,z
1/2-x,1/2-y,1/2+z
1/2+x,1/2-y,-z
-x,y,1/2-z
-x,-y,-z
1/2+x,1/2+y,1/2-z
1/2-x,1/2+y,z
x,-y,1/2+z
loop_
_atom_site_type_symbol
_atom_site_label
_atom_site_fract_x
_atom_site_fract_y
_atom_site_fract_z
Si Si1 0.000000 0.144897 0.250000
Si Si2 0.000000 0.440297 0.250000
Si Si3 0.052773 0.074942 0.013792
Si Si4 0.680153 0.760684 0.666420
Si Si5 0.500000 0.561617 0.750000
Si Si6 0.448592 0.151419 0.970993
O O1 0.056476 0.102904 0.367003
O O2 0.806750 0.195273 0.263446
O O3 0.249707 0.470293 0.258961
O O4 0.963880 0.394365 0.365469
O O5 0.999731 0.098761 0.878202
O O6 0.294042 0.099623 0.037544
O O7 0.000000 0.000000 0.000000
O O8 0.500000 0.729613 0.750000
O O9 0.819687 0.707690 0.598727
O O10 0.595817 0.809562 0.563297
#
# Coordination Sequence:
#
# PCOD9457422 Si02
#       6
#     4   4   8   8   4   8
#     4  12  24  48  76 110 154 198 262 328 392 482
#     4  10  23  42  72 101 148 195 245 312 378 470
#     4  11  24  46  76 110 152 206 265 326 396 479
#     4  12  26  45  71 111 146 199 254 329 403 470
#     4  10  23  46  70 107 146 203 257 318 386 468
#     4  11  25  43  73 108 153 202 256 327 396 483
#
# _framework density 25.325502
#
# number of rings (size 3 to 8) (size 9 to 14) (size 15 to 20)
#    0.000    0.889    2.222    4.000    9.333    0.000 
#    0.000   12.222    2.444    0.000    0.000    0.000 
#    0.000    0.000    0.000    0.000    0.000    0.000 
#
# Total GULP energy -200477.741762 kJ/mol
# GULP energy per Si atom -5568.826160 kJ/mol
# Density = 2.526786 g / cm^3
# Si number density = 25.325502 Si / 1000 Ang^3
#
#
#
# Elastic Constant Matrix: (Units=GPa)
#
#
# Indices 1 2 3 4 5 6 
#
# 1 119.1949 46.9542 18.4979 0.0000 0.0000 0.0000
# 2 46.9542 130.9966 30.8726 0.0000 0.0000 0.0000
# 3 18.4979 30.8726 113.9469 0.0000 0.0000 0.0000
# 4 0.0000 0.0000 0.0000 29.6697 0.0000 0.0000
# 5 0.0000 0.0000 0.0000 0.0000 50.5299 0.0000
# 6 0.0000 0.0000 0.0000 0.0000 0.0000 -3.0427
#
#
#
# Elastic Compliance Matrix: (Units=1/GPa)
#
#
# Indices 1 2 3 4 5 6 
#
# 1 0.009819 -0.003358 -0.000684 0.000000 0.000000 0.000000
# 2 -0.003358 0.009303 -0.001975 0.000000 0.000000 0.000000
# 3 -0.000684 -0.001975 0.009422 0.000000 0.000000 0.000000
# 4 0.000000 0.000000 0.000000 0.033704 0.000000 0.000000
# 5 0.000000 0.000000 0.000000 0.000000 0.019790 0.000000
# 6 0.000000 0.000000 0.000000 0.000000 0.000000 -0.328650
#
#
# Mechanical properties :
#
#
# Convention : Reuss Voigt Hill
#
# Bulk Modulus (GPa) = 60.57416 61.86531 61.21973
# Shear Modulus (GPa) = -21.82707 33.28563 5.72928
#
# Velocity S-wave (km/s) = -2.93893 3.62928 1.50571
# Velocity P-wave (km/s) = 3.52899 6.48408 5.22001
#
# Compressibility (1/GPa) = 0.01650869
#
# Stress axis : x y z
#
# Youngs Moduli (GPa) = 101.84687 107.49186 106.13144
#
# Poissons Ratio (x) = 0.36098 0.07260
# Poissons Ratio (y) = 0.34202 0.20965
# Poissons Ratio (z) = 0.06967 0.21234
#
# Static dielectric constant tensor:
#      x y z
#    x 2.135870 0.000000 0.000000 
#    y 0.000000 1.936780 0.000000 
#    z 0.000000 0.000000 1.040470 
# 
# From -- ./inp_files/9026.got.cif
#   From: 2010.05.17/outbox.cif.g08.bks.cpg/sg60_5_cif.got.tgz:9026.got - 2010.06.03 14:59:27.
