data_PCOD9457563
_publ_section_title
;
Structure prediction by ZEFSAII (Michael W. Deem and Ramdas Pophale) SiO2 
 PCOD9457563
Probable space group: P B C N
;
_chemical_formula_sum "Si O2"
_cell_formula_units_Z 40
_cell_length_a 7.583582
_cell_length_b 11.071960
_cell_length_c 18.399219
_cell_angle_alpha 90.000000
_cell_angle_beta 90.000000
_cell_angle_gamma 90.000000
_cell_volume 1544.892568
_symmetry_space_group_name_H-M "P B C N"
_symmetry_group_IT_number 60
_symmetry_cell_setting 'orthorhombic'
loop_
_space_group_symop_operation_xyz
x,y,z
1/2-x,1/2-y,1/2+z
1/2+x,1/2-y,-z
-x,y,1/2-z
-x,-y,-z
1/2+x,1/2+y,1/2-z
1/2-x,1/2+y,z
x,-y,1/2+z
loop_
_atom_site_type_symbol
_atom_site_label
_atom_site_fract_x
_atom_site_fract_y
_atom_site_fract_z
Si Si1 0.681822 0.341559 0.961178
Si Si2 0.108921 0.982753 0.401110
Si Si3 0.588598 0.842242 0.350729
Si Si4 0.466613 0.103888 0.384524
Si Si5 0.209869 0.198634 0.789806
O O1 0.566296 0.442106 0.917031
O O2 0.631614 0.212337 0.928696
O O3 0.886327 0.356938 0.942100
O O4 0.630327 0.369735 0.043684
O O5 0.279932 0.063732 0.418615
O O6 0.133613 0.927370 0.321308
O O7 0.551337 0.983609 0.349658
O O8 0.742556 0.807900 0.294764
O O9 0.403706 0.784850 0.325336
O O10 0.412331 0.197544 0.322089
#
# Coordination Sequence:
#
# PCOD9457563 Si02
#       5
#     8   8   8   8   8
#     4  11  24  43  70 105 142 189 245 294 364 439
#     4  10  24  45  68 103 146 189 241 303 358 433
#     4  10  24  46  70 107 140 186 245 292 361 444
#     4  11  24  46  71 104 140 189 240 300 367 432
#     4  10  23  45  72  99 143 191 231 306 357 427
#
# _framework density 25.891767999999999
#
# number of rings (size 3 to 8) (size 9 to 14) (size 15 to 20)
#    0.000    1.600    2.000    0.600    2.800   12.000 
#    0.000    0.000    0.000    0.000    0.000    0.000 
#    0.000    0.000    0.000    0.000    0.000    0.000 
#
# Total GULP energy -224202.958527 kJ/mol
# GULP energy per Si atom -5605.073963 kJ/mol
# Density = 2.583284 g / cm^3
# Si number density = 25.891768 Si / 1000 Ang^3
#
#
#
# Elastic Constant Matrix: (Units=GPa)
#
#
# Indices 1 2 3 4 5 6 
#
# 1 185.5306 57.3801 50.8397 0.0000 0.0000 0.0000
# 2 57.3801 93.9605 33.7149 0.0000 0.0000 0.0000
# 3 50.8397 33.7149 104.8206 0.0000 0.0000 0.0000
# 4 0.0000 0.0000 0.0000 7.0265 0.0000 0.0000
# 5 0.0000 0.0000 0.0000 0.0000 39.7673 0.0000
# 6 0.0000 0.0000 0.0000 0.0000 0.0000 49.4856
#
#
#
# Elastic Compliance Matrix: (Units=1/GPa)
#
#
# Indices 1 2 3 4 5 6 
#
# 1 0.007111 -0.003510 -0.002320 0.000000 0.000000 0.000000
# 2 -0.003510 0.013764 -0.002725 0.000000 0.000000 0.000000
# 3 -0.002320 -0.002725 0.011542 0.000000 0.000000 0.000000
# 4 0.000000 0.000000 0.000000 0.142319 0.000000 0.000000
# 5 0.000000 0.000000 0.000000 0.000000 0.025146 0.000000
# 6 0.000000 0.000000 0.000000 0.000000 0.000000 0.020208
#
#
# Mechanical properties :
#
#
# Convention : Reuss Voigt Hill
#
# Bulk Modulus (GPa) = 65.32836 74.24234 69.78535
# Shear Modulus (GPa) = 20.63540 35.41435 28.02487
#
# Velocity S-wave (km/s) = 2.82616 3.70237 3.29353
# Velocity P-wave (km/s) = 5.99464 6.85661 6.44006
#
# Compressibility (1/GPa) = 0.01530729
#
# Stress axis : x y z
#
# Youngs Moduli (GPa) = 140.62039 72.65284 86.64222
#
# Poissons Ratio (x) = 0.25503 0.20101
# Poissons Ratio (y) = 0.49362 0.23606
# Poissons Ratio (z) = 0.32625 0.19795
#
# Static dielectric constant tensor:
#      x y z
#    x 2.003740 0.000000 0.000000 
#    y 0.000000 2.025680 0.000000 
#    z 0.000000 0.000000 2.006580 
# 
# From -- ./inp_files/22022.got.cif
#   From: 2010.05.17/outbox.cif.g08.bks.cpg/sg60_12_cif.got.tgz:22022.got - 2010.06.03 14:59:27.
