data_PCOD9457102
_publ_section_title
;
Structure prediction by ZEFSAII (Michael W. Deem and Ramdas Pophale) SiO2 
 PCOD9457102
Probable space group: P B C N
;
_chemical_formula_sum "Si O2"
_cell_formula_units_Z 52
_cell_length_a 10.043724
_cell_length_b 8.972898
_cell_length_c 24.902869
_cell_angle_alpha 90.000000
_cell_angle_beta 90.000000
_cell_angle_gamma 90.000000
_cell_volume 2244.279202
_symmetry_space_group_name_H-M "P B C N"
_symmetry_group_IT_number 60
_symmetry_cell_setting 'orthorhombic'
loop_
_space_group_symop_operation_xyz
x,y,z
1/2-x,1/2-y,1/2+z
1/2+x,1/2-y,-z
-x,y,1/2-z
-x,-y,-z
1/2+x,1/2+y,1/2-z
1/2-x,1/2+y,z
x,-y,1/2+z
loop_
_atom_site_type_symbol
_atom_site_label
_atom_site_fract_x
_atom_site_fract_y
_atom_site_fract_z
Si Si1 0.387882 0.201394 0.837593
Si Si2 0.817889 0.385923 0.041108
Si Si3 0.154367 0.372373 0.119897
Si Si4 0.000000 0.156590 0.750000
Si Si5 0.246390 0.044850 0.270391
Si Si6 0.620622 0.810515 0.833608
Si Si7 0.087609 0.702123 0.497849
O O1 0.338010 0.164619 0.897607
O O2 0.547049 0.213813 0.843149
O O3 0.320689 0.347069 0.813656
O O4 0.350937 0.065347 0.798422
O O5 0.926962 0.300249 0.003068
O O6 0.859368 0.558665 0.035177
O O7 0.668468 0.344655 0.023239
O O8 0.120331 0.545870 0.128591
O O9 0.299200 0.320633 0.137738
O O10 0.131897 0.327905 0.058903
O O11 0.987660 0.247292 0.693820
O O12 0.128869 0.055316 0.746407
O O13 0.307373 0.133780 0.220766
#
# Coordination Sequence:
#
# PCOD9457102 Si02
#       7
#     8   8   8   4   8   8   8
#     4  11  24  41  65  90 126 167 207 256 314 369
#     4  10  22  43  65  93 126 162 210 264 316 376
#     4  11  24  41  65  91 124 168 205 258 314 369
#     4  12  24  40  62  92 128 164 210 254 304 366
#     4  12  23  42  61  92 126 165 209 253 306 371
#     4  12  23  42  63  92 127 167 209 253 309 368
#     4  10  22  43  66  94 126 161 211 263 317 377
#
# _framework density 23.170021999999999
#
# number of rings (size 3 to 8) (size 9 to 14) (size 15 to 20)
#    0.000    0.923    3.077    3.692    0.000    1.846 
#    2.769    0.000    0.000    0.000    0.000    0.000 
#    0.000    0.000    0.000    0.000    0.000    0.000 
#
# Total GULP energy -290980.895997 kJ/mol
# GULP energy per Si atom -5595.786461 kJ/mol
# Density = 2.311729 g / cm^3
# Si number density = 23.170022 Si / 1000 Ang^3
#
#
#
# Elastic Constant Matrix: (Units=GPa)
#
#
# Indices 1 2 3 4 5 6 
#
# 1 30.6594 -10.7495 -7.7430 0.0000 0.0000 0.0000
# 2 -10.7495 49.4260 4.6199 0.0000 0.0000 0.0000
# 3 -7.7430 4.6199 64.4609 0.0000 0.0000 0.0000
# 4 0.0000 0.0000 0.0000 31.8495 0.0000 0.0000
# 5 0.0000 0.0000 0.0000 0.0000 35.5949 0.0000
# 6 0.0000 0.0000 0.0000 0.0000 0.0000 34.0182
#
#
#
# Elastic Compliance Matrix: (Units=1/GPa)
#
#
# Indices 1 2 3 4 5 6 
#
# 1 0.036216 0.007520 0.003811 0.000000 0.000000 0.000000
# 2 0.007520 0.021930 -0.000668 0.000000 0.000000 0.000000
# 3 0.003811 -0.000668 0.016019 0.000000 0.000000 0.000000
# 4 0.000000 0.000000 0.000000 0.031398 0.000000 0.000000
# 5 0.000000 0.000000 0.000000 0.000000 0.028094 0.000000
# 6 0.000000 0.000000 0.000000 0.000000 0.000000 0.029396
#
#
# Mechanical properties :
#
#
# Convention : Reuss Voigt Hill
#
# Bulk Modulus (GPa) = 10.47221 12.97789 11.72505
# Shear Modulus (GPa) = 28.80902 30.85378 29.83140
#
# Velocity S-wave (km/s) = 3.52998 3.65310 3.59207
# Velocity P-wave (km/s) = 4.59824 4.83806 4.71968
#
# Compressibility (1/GPa) = 0.09549082
#
# Stress axis : x y z
#
# Youngs Moduli (GPa) = 27.61244 45.59903 62.42585
#
# Poissons Ratio (x) = -0.34291 -0.23792
# Poissons Ratio (y) = -0.20765 0.04173
# Poissons Ratio (z) = -0.10524 0.03048
#
# Static dielectric constant tensor:
#      x y z
#    x 1.925500 0.000000 0.000000 
#    y 0.000000 1.885090 0.000000 
#    z 0.000000 0.000000 1.841280 
# 
# From -- ./inp_files/25305.got.cif
#   From: 2010.05.17/outbox.cif.g08.bks.cpg/sg60_13_cif.got.tgz:25305.got - 2010.06.03 14:59:27.
