data_PCOD9457473
_publ_section_title
;
Structure prediction by ZEFSAII (Michael W. Deem and Ramdas Pophale) SiO2 
 PCOD9457473
Probable space group: P B C N
;
_chemical_formula_sum "Si O2"
_cell_formula_units_Z 64
_cell_length_a 8.967062
_cell_length_b 22.416326
_cell_length_c 14.154357
_cell_angle_alpha 90.000000
_cell_angle_beta 90.000000
_cell_angle_gamma 90.000000
_cell_volume 2845.147273
_symmetry_space_group_name_H-M "P B C N"
_symmetry_group_IT_number 60
_symmetry_cell_setting 'orthorhombic'
loop_
_space_group_symop_operation_xyz
x,y,z
1/2-x,1/2-y,1/2+z
1/2+x,1/2-y,-z
-x,y,1/2-z
-x,-y,-z
1/2+x,1/2+y,1/2-z
1/2-x,1/2+y,z
x,-y,1/2+z
loop_
_atom_site_type_symbol
_atom_site_label
_atom_site_fract_x
_atom_site_fract_y
_atom_site_fract_z
Si Si1 0.994809 0.238939 0.859658
Si Si2 0.201096 0.131550 0.605372
Si Si3 0.605261 0.027803 0.861123
Si Si4 0.162554 0.407956 0.756246
Si Si5 0.853614 0.132350 0.403471
Si Si6 0.297712 0.952542 0.455031
Si Si7 0.133455 0.940689 0.920117
Si Si8 0.300383 0.750322 0.025292
O O1 0.935472 0.170174 0.855405
O O2 0.865197 0.265644 0.931119
O O3 0.187286 0.317721 0.063282
O O4 0.150743 0.248089 0.915495
O O5 0.295625 0.084822 0.665603
O O6 0.140278 0.091376 0.520500
O O7 0.434749 0.048815 0.881533
O O8 0.643028 0.973362 0.791547
O O9 0.651128 0.998205 0.961645
O O10 0.263680 0.366785 0.692618
O O11 0.229025 0.415960 0.859005
O O12 0.000000 0.382271 0.750000
O O13 0.904706 0.198512 0.430346
O O14 0.000000 0.742728 0.250000
O O15 0.979016 0.083416 0.381451
O O16 0.246039 0.893268 0.509413
O O17 0.153743 0.988350 0.416974
#
# Coordination Sequence:
#
# PCOD9457473 Si02
#       8
#     8   8   8   8   8   8   8   8
#     4  10  23  47  70 102 144 191 244 297 359 428
#     4   9  22  40  72  90 140 183 225 289 360 416
#     4   9  18  38  58  92 124 168 223 284 336 419
#     4  11  23  38  61  94 129 174 235 293 347 422
#     4  11  22  37  60  96 133 178 226 289 358 424
#     4   9  19  33  62  85 125 170 223 274 355 405
#     4  11  20  41  60  94 135 174 228 292 356 418
#     4  10  23  43  69 104 140 185 247 288 359 439
#
# _framework density 22.494441999999999
#
# number of rings (size 3 to 8) (size 9 to 14) (size 15 to 20)
#    0.750    1.250    2.500    0.750    3.500    1.500 
#    2.250    0.625    0.000    0.000    0.000    0.000 
#    0.000    0.000    0.000    0.000    0.000    0.000 
#
# Total GULP energy -356349.135126 kJ/mol
# GULP energy per Si atom -5567.955236 kJ/mol
# Density = 2.244324 g / cm^3
# Si number density = 22.494442 Si / 1000 Ang^3
#
#
#
# Elastic Constant Matrix: (Units=GPa)
#
#
# Indices 1 2 3 4 5 6 
#
# 1 68.8949 5.0700 26.3935 0.0000 0.0000 0.0000
# 2 5.0700 91.8416 9.3912 0.0000 0.0000 0.0000
# 3 26.3935 9.3912 82.4677 0.0000 0.0000 0.0000
# 4 0.0000 0.0000 0.0000 60.7007 0.0000 0.0000
# 5 0.0000 0.0000 0.0000 0.0000 33.9596 0.0000
# 6 0.0000 0.0000 0.0000 0.0000 0.0000 24.9840
#
#
#
# Elastic Compliance Matrix: (Units=1/GPa)
#
#
# Indices 1 2 3 4 5 6 
#
# 1 0.016556 -0.000377 -0.005256 0.000000 0.000000 0.000000
# 2 -0.000377 0.011025 -0.001135 0.000000 0.000000 0.000000
# 3 -0.005256 -0.001135 0.013937 0.000000 0.000000 0.000000
# 4 0.000000 0.000000 0.000000 0.016474 0.000000 0.000000
# 5 0.000000 0.000000 0.000000 0.000000 0.029447 0.000000
# 6 0.000000 0.000000 0.000000 0.000000 0.000000 0.040026
#
#
# Mechanical properties :
#
#
# Convention : Reuss Voigt Hill
#
# Bulk Modulus (GPa) = 35.73494 36.10151 35.91823
# Shear Modulus (GPa) = 33.26061 37.41882 35.33971
#
# Velocity S-wave (km/s) = 3.84945 4.08299 3.96794
# Velocity P-wave (km/s) = 5.97313 6.18964 6.08235
#
# Compressibility (1/GPa) = 0.02798381
#
# Stress axis : x y z
#
# Youngs Moduli (GPa) = 60.40075 90.70164 71.74974
#
# Poissons Ratio (x) = 0.03415 0.37711
# Poissons Ratio (y) = 0.02274 0.08144
# Poissons Ratio (z) = 0.31746 0.10295
#
# Static dielectric constant tensor:
#      x y z
#    x 1.960260 0.000000 0.000000 
#    y 0.000000 1.869680 0.000000 
#    z 0.000000 0.000000 1.845210 
# 
# From -- ./inp_files/19690.got.cif
#   From: 2010.05.17/outbox.cif.g08.bks.cpg/sg60_10_cif.got.tgz:19690.got - 2010.06.03 14:59:27.
