data_PCOD9457412
_publ_section_title
;
Structure prediction by ZEFSAII (Michael W. Deem and Ramdas Pophale) SiO2 
 PCOD9457412
Probable space group: P B C N
;
_chemical_formula_sum "Si O2"
_cell_formula_units_Z 64
_cell_length_a 15.429342
_cell_length_b 11.665527
_cell_length_c 15.445238
_cell_angle_alpha 90.000000
_cell_angle_beta 90.000000
_cell_angle_gamma 90.000000
_cell_volume 2780.010099
_symmetry_space_group_name_H-M "P B C N"
_symmetry_group_IT_number 60
_symmetry_cell_setting 'orthorhombic'
loop_
_space_group_symop_operation_xyz
x,y,z
1/2-x,1/2-y,1/2+z
1/2+x,1/2-y,-z
-x,y,1/2-z
-x,-y,-z
1/2+x,1/2+y,1/2-z
1/2-x,1/2+y,z
x,-y,1/2+z
loop_
_atom_site_type_symbol
_atom_site_label
_atom_site_fract_x
_atom_site_fract_y
_atom_site_fract_z
Si Si1 0.586096 0.544871 0.785182
Si Si2 0.407210 0.749895 0.079703
Si Si3 0.620899 0.492393 0.977466
Si Si4 0.723911 0.119688 0.550914
Si Si5 0.099644 0.206624 0.410940
Si Si6 0.200613 0.159637 0.239682
Si Si7 0.636626 0.246957 0.174053
Si Si8 0.082754 0.560809 0.452521
O O1 0.500000 0.479837 0.750000
O O2 0.589080 0.550442 0.888738
O O3 0.671507 0.471953 0.763379
O O4 0.588547 0.659875 0.731084
O O5 0.418599 0.634995 0.021422
O O6 0.507203 0.764272 0.105261
O O7 0.340724 0.717108 0.154789
O O8 0.376650 0.860352 0.028455
O O9 0.721944 0.456508 0.983013
O O10 0.599042 0.576040 0.055904
O O11 0.661071 0.223488 0.521905
O O12 0.797202 0.179256 0.611576
O O13 0.652028 0.029809 0.584934
O O14 0.149584 0.211166 0.321048
O O15 0.300245 0.178387 0.260647
O O16 0.574867 0.159222 0.121634
O O17 0.000000 0.500000 0.500000
#
# Coordination Sequence:
#
# PCOD9457412 Si02
#       8
#     8   8   8   8   8   8   8   8
#     4  11  25  42  67  99 139 179 238 300 363 429
#     4  11  23  42  68 103 138 185 244 298 366 447
#     4  11  24  38  70 103 136 183 243 304 364 431
#     4  11  23  41  66 100 136 187 237 298 357 440
#     4  11  22  41  69  97 138 183 239 298 367 430
#     4  10  23  42  69  99 136 182 239 298 356 434
#     4  11  24  45  70  99 142 188 240 298 370 431
#     4  12  25  44  71 104 152 191 240 297 376 453
#
# _framework density 23.021498000000001
#
# number of rings (size 3 to 8) (size 9 to 14) (size 15 to 20)
#    0.000    1.000    2.500    5.250    3.500    1.000 
#    0.000    0.000    5.500    0.000    0.000    0.000 
#    0.000    0.000    0.000    0.000    0.000    0.000 
#
# Total GULP energy -356791.727654 kJ/mol
# GULP energy per Si atom -5574.870745 kJ/mol
# Density = 2.296910 g / cm^3
# Si number density = 23.021498 Si / 1000 Ang^3
#
#
#
# Elastic Constant Matrix: (Units=GPa)
#
#
# Indices 1 2 3 4 5 6 
#
# 1 82.6621 26.5047 30.9467 0.0000 0.0000 0.0000
# 2 26.5047 107.9499 37.6425 0.0000 0.0000 0.0000
# 3 30.9467 37.6425 64.4398 0.0000 0.0000 0.0000
# 4 0.0000 0.0000 0.0000 39.7746 0.0000 0.0000
# 5 0.0000 0.0000 0.0000 0.0000 17.1564 0.0000
# 6 0.0000 0.0000 0.0000 0.0000 0.0000 27.9262
#
#
#
# Elastic Compliance Matrix: (Units=1/GPa)
#
#
# Indices 1 2 3 4 5 6 
#
# 1 0.014931 -0.001464 -0.006316 0.000000 0.000000 0.000000
# 2 -0.001464 0.011777 -0.006176 0.000000 0.000000 0.000000
# 3 -0.006316 -0.006176 0.022159 0.000000 0.000000 0.000000
# 4 0.000000 0.000000 0.000000 0.025142 0.000000 0.000000
# 5 0.000000 0.000000 0.000000 0.000000 0.058287 0.000000
# 6 0.000000 0.000000 0.000000 0.000000 0.000000 0.035809
#
#
# Mechanical properties :
#
#
# Convention : Reuss Voigt Hill
#
# Bulk Modulus (GPa) = 47.71952 49.47106 48.59529
# Shear Modulus (GPa) = 24.63038 27.63530 26.13284
#
# Velocity S-wave (km/s) = 3.27446 3.46846 3.37285
# Velocity P-wave (km/s) = 5.92194 6.12992 6.02683
#
# Compressibility (1/GPa) = 0.02095578
#
# Stress axis : x y z
#
# Youngs Moduli (GPa) = 66.97402 84.91353 45.12781
#
# Poissons Ratio (x) = 0.12429 0.28501
# Poissons Ratio (y) = 0.09803 0.27873
# Poissons Ratio (z) = 0.42298 0.52446
#
# Static dielectric constant tensor:
#      x y z
#    x 1.932360 0.000000 0.000000 
#    y 0.000000 1.910220 0.000000 
#    z 0.000000 0.000000 1.916270 
# 
# From -- ./inp_files/20665.got.cif
#   From: 2010.05.17/outbox.cif.g08.bks.cpg/sg60_11_cif.got.tgz:20665.got - 2010.06.03 14:59:27.
