data_PCOD9457845
_publ_section_title
;
Structure prediction by ZEFSAII (Michael W. Deem and Ramdas Pophale) SiO2 
 PCOD9457845
Probable space group: P B C N
;
_chemical_formula_sum "Si O2"
_cell_formula_units_Z 40
_cell_length_a 18.921261
_cell_length_b 15.952866
_cell_length_c 5.466272
_cell_angle_alpha 90.000000
_cell_angle_beta 90.000000
_cell_angle_gamma 90.000000
_cell_volume 1649.985136
_symmetry_space_group_name_H-M "P B C N"
_symmetry_group_IT_number 60
_symmetry_cell_setting 'orthorhombic'
loop_
_space_group_symop_operation_xyz
x,y,z
1/2-x,1/2-y,1/2+z
1/2+x,1/2-y,-z
-x,y,1/2-z
-x,-y,-z
1/2+x,1/2+y,1/2-z
1/2-x,1/2+y,z
x,-y,1/2+z
loop_
_atom_site_type_symbol
_atom_site_label
_atom_site_fract_x
_atom_site_fract_y
_atom_site_fract_z
Si Si1 0.471354 0.404830 0.001289
Si Si2 0.820772 0.545087 0.405622
Si Si3 0.849665 0.807196 0.400701
Si Si4 0.189738 0.313879 0.935675
Si Si5 0.579936 0.851915 0.163379
O O1 0.500000 0.363450 0.250000
O O2 0.387642 0.393642 0.032098
O O3 0.500000 0.367576 0.750000
O O4 0.500000 0.500000 0.000000
O O5 0.797561 0.506222 0.663658
O O6 0.796387 0.637108 0.319414
O O7 0.901979 0.571925 0.474767
O O8 0.847940 0.774326 0.122200
O O9 0.766894 0.808094 0.455358
O O10 0.895566 0.736485 0.543704
O O11 0.133601 0.362271 0.105516
O O12 0.500000 0.851500 0.250000
#
# Coordination Sequence:
#
# PCOD9457845 Si02
#       5
#     8   8   8   8   8
#     4  10  24  47  70 107 147 195 247 305 382 454
#     4  11  24  48  71 103 146 186 239 298 373 448
#     4  11  24  42  75 102 152 188 261 308 377 451
#     4  11  24  45  71 108 142 202 249 315 376 447
#     4  11  25  44  73 108 143 193 250 306 380 439
#
# _framework density 24.242642
#
# number of rings (size 3 to 8) (size 9 to 14) (size 15 to 20)
#    0.000    1.200    4.000    0.600    5.600    3.200 
#    7.200    0.000    0.000    0.000    0.000    0.000 
#    0.000    0.000    0.000    0.000    0.000    0.000 
#
# Total GULP energy -222706.367256 kJ/mol
# GULP energy per Si atom -5567.659181 kJ/mol
# Density = 2.418746 g / cm^3
# Si number density = 24.242642 Si / 1000 Ang^3
#
#
#
# Elastic Constant Matrix: (Units=GPa)
#
#
# Indices 1 2 3 4 5 6 
#
# 1 101.4544 10.3313 51.5457 0.0000 0.0000 0.0000
# 2 10.3313 59.4739 28.7048 0.0000 0.0000 0.0000
# 3 51.5457 28.7048 151.3544 0.0000 0.0000 0.0000
# 4 0.0000 0.0000 0.0000 38.0533 0.0000 0.0000
# 5 0.0000 0.0000 0.0000 0.0000 28.3235 0.0000
# 6 0.0000 0.0000 0.0000 0.0000 0.0000 28.6253
#
#
#
# Elastic Compliance Matrix: (Units=1/GPa)
#
#
# Indices 1 2 3 4 5 6 
#
# 1 0.011920 -0.000123 -0.004036 0.000000 0.000000 0.000000
# 2 -0.000123 0.018510 -0.003469 0.000000 0.000000 0.000000
# 3 -0.004036 -0.003469 0.008639 0.000000 0.000000 0.000000
# 4 0.000000 0.000000 0.000000 0.026279 0.000000 0.000000
# 5 0.000000 0.000000 0.000000 0.000000 0.035306 0.000000
# 6 0.000000 0.000000 0.000000 0.000000 0.000000 0.034934
#
#
# Mechanical properties :
#
#
# Convention : Reuss Voigt Hill
#
# Bulk Modulus (GPa) = 41.99219 54.82736 48.40978
# Shear Modulus (GPa) = 31.48990 33.78046 32.63518
#
# Velocity S-wave (km/s) = 3.60800 3.73692 3.67303
# Velocity P-wave (km/s) = 5.89204 6.42531 6.16444
#
# Compressibility (1/GPa) = 0.02381395
#
# Stress axis : x y z
#
# Youngs Moduli (GPa) = 83.89411 54.02624 115.74839
#
# Poissons Ratio (x) = 0.00662 0.46718
# Poissons Ratio (y) = 0.01028 0.40149
# Poissons Ratio (z) = 0.33861 0.18740
#
# Static dielectric constant tensor:
#      x y z
#    x 1.926080 0.000000 0.000000 
#    y 0.000000 2.092610 0.000000 
#    z 0.000000 0.000000 2.075810 
# 
# From -- ./inp_files/1639.got.cif
#   From: 2010.05.17/outbox.cif.g08.bks.cpg/sg60_1_cif.got.tgz:1639.got - 2010.06.03 14:59:27.
