data_PCOD9457325
_publ_section_title
;
Structure prediction by ZEFSAII (Michael W. Deem and Ramdas Pophale) SiO2 
 PCOD9457325
Probable space group: P B C N
;
_chemical_formula_sum "Si O2"
_cell_formula_units_Z 48
_cell_length_a 18.085055
_cell_length_b 11.448102
_cell_length_c 11.321599
_cell_angle_alpha 90.000000
_cell_angle_beta 90.000000
_cell_angle_gamma 90.000000
_cell_volume 2344.018811
_symmetry_space_group_name_H-M "P B C N"
_symmetry_group_IT_number 60
_symmetry_cell_setting 'orthorhombic'
loop_
_space_group_symop_operation_xyz
x,y,z
1/2-x,1/2-y,1/2+z
1/2+x,1/2-y,-z
-x,y,1/2-z
-x,-y,-z
1/2+x,1/2+y,1/2-z
1/2-x,1/2+y,z
x,-y,1/2+z
loop_
_atom_site_type_symbol
_atom_site_label
_atom_site_fract_x
_atom_site_fract_y
_atom_site_fract_z
Si Si1 0.931173 0.584581 0.483070
Si Si2 0.339745 0.216022 0.825885
Si Si3 0.432335 0.310877 0.169289
Si Si4 0.681735 0.111227 0.931251
Si Si5 0.347100 0.439494 0.975431
Si Si6 0.828634 0.193640 0.615545
O O1 0.901515 0.641632 0.604944
O O2 0.950720 0.689937 0.395701
O O3 0.864369 0.507823 0.430261
O O4 0.000000 0.500000 0.500000
O O5 0.332419 0.181932 0.689481
O O6 0.259875 0.183498 0.879653
O O7 0.350410 0.351568 0.862742
O O8 0.500000 0.349897 0.250000
O O9 0.408560 0.400318 0.068462
O O10 0.362837 0.291148 0.255544
O O11 0.767290 0.082503 0.961407
O O12 0.653176 0.194595 0.036253
O O13 0.356266 0.572403 0.938212
#
# Coordination Sequence:
#
# PCOD9457325 Si02
#       6
#     8   8   8   8   8   8
#     4  11  25  44  67 101 136 173 220 280 343 400
#     4  10  23  40  64 101 132 172 224 272 332 397
#     4  11  25  44  67  95 133 176 216 277 341 400
#     4  11  23  38  69 100 131 172 221 271 332 396
#     4  10  23  42  65  97 132 171 227 272 324 400
#     4  11  23  41  68  99 130 175 225 275 329 399
#
# _framework density 20.477650000000001
#
# number of rings (size 3 to 8) (size 9 to 14) (size 15 to 20)
#    0.000    1.333    3.333    1.000    7.000    0.667 
#    0.000    0.000    0.000    0.000    0.000    0.000 
#    0.000    0.000    0.000    0.000    0.000    0.000 
#
# Total GULP energy -268313.994678 kJ/mol
# GULP energy per Si atom -5589.874889 kJ/mol
# Density = 2.043104 g / cm^3
# Si number density = 20.477650 Si / 1000 Ang^3
#
#
#
# Elastic Constant Matrix: (Units=GPa)
#
#
# Indices 1 2 3 4 5 6 
#
# 1 52.8348 3.8423 -13.4865 0.0000 0.0000 0.0000
# 2 3.8423 45.6385 -12.9967 0.0000 0.0000 0.0000
# 3 -13.4865 -12.9967 54.0923 0.0000 0.0000 0.0000
# 4 0.0000 0.0000 0.0000 8.4352 0.0000 0.0000
# 5 0.0000 0.0000 0.0000 0.0000 26.5719 0.0000
# 6 0.0000 0.0000 0.0000 0.0000 0.0000 21.7428
#
#
#
# Elastic Compliance Matrix: (Units=1/GPa)
#
#
# Indices 1 2 3 4 5 6 
#
# 1 0.020217 -0.000286 0.004972 0.000000 0.000000 0.000000
# 2 -0.000286 0.023525 0.005581 0.000000 0.000000 0.000000
# 3 0.004972 0.005581 0.021067 0.000000 0.000000 0.000000
# 4 0.000000 0.000000 0.000000 0.118551 0.000000 0.000000
# 5 0.000000 0.000000 0.000000 0.000000 0.037634 0.000000
# 6 0.000000 0.000000 0.000000 0.000000 0.000000 0.045992
#
#
# Mechanical properties :
#
#
# Convention : Reuss Voigt Hill
#
# Bulk Modulus (GPa) = 11.71760 11.92044 11.81902
# Shear Modulus (GPa) = 18.18838 23.03040 20.60939
#
# Velocity S-wave (km/s) = 2.98351 3.35723 3.17588
# Velocity P-wave (km/s) = 4.19560 4.56748 4.38548
#
# Compressibility (1/GPa) = 0.08534171
#
# Stress axis : x y z
#
# Youngs Moduli (GPa) = 49.46378 42.50851 47.46670
#
# Poissons Ratio (x) = 0.01217 -0.23599
# Poissons Ratio (y) = 0.01416 -0.26491
# Poissons Ratio (z) = -0.24592 -0.23723
#
# Static dielectric constant tensor:
#      x y z
#    x 1.740380 0.000000 0.000000 
#    y 0.000000 1.697060 0.000000 
#    z 0.000000 0.000000 1.709850 
# 
# From -- ./inp_files/12408.got.cif
#   From: 2010.05.17/outbox.cif.g08.bks.cpg/sg60_7_cif.got.tgz:12408.got - 2010.06.03 14:59:27.
