data_PCOD9457586
_publ_section_title
;
Structure prediction by ZEFSAII (Michael W. Deem and Ramdas Pophale) SiO2 
 PCOD9457586
Probable space group: P B C N
;
_chemical_formula_sum "Si O2"
_cell_formula_units_Z 60
_cell_length_a 24.391474
_cell_length_b 8.559461
_cell_length_c 12.442720
_cell_angle_alpha 90.000000
_cell_angle_beta 90.000000
_cell_angle_gamma 90.000000
_cell_volume 2597.764584
_symmetry_space_group_name_H-M "P B C N"
_symmetry_group_IT_number 60
_symmetry_cell_setting 'orthorhombic'
loop_
_space_group_symop_operation_xyz
x,y,z
1/2-x,1/2-y,1/2+z
1/2+x,1/2-y,-z
-x,y,1/2-z
-x,-y,-z
1/2+x,1/2+y,1/2-z
1/2-x,1/2+y,z
x,-y,1/2+z
loop_
_atom_site_type_symbol
_atom_site_label
_atom_site_fract_x
_atom_site_fract_y
_atom_site_fract_z
Si Si1 0.885348 0.084476 0.291894
Si Si2 0.672567 0.238543 0.972842
Si Si3 0.057680 0.226825 0.686443
Si Si4 0.155992 0.627501 0.288201
Si Si5 0.500000 0.705056 0.250000
Si Si6 0.969259 0.651415 0.540230
Si Si7 0.215587 0.614000 0.078169
Si Si8 0.653171 0.799468 0.120652
O O1 0.874921 0.192144 0.396176
O O2 0.846119 0.150634 0.198685
O O3 0.944988 0.110339 0.239756
O O4 0.893708 0.903442 0.314678
O O5 0.721062 0.361231 0.948148
O O6 0.692793 0.063698 0.938010
O O7 0.657736 0.222432 0.099224
O O8 0.094234 0.367535 0.737356
O O9 0.037950 0.241838 0.564106
O O10 0.000000 0.209051 0.750000
O O11 0.198850 0.673423 0.195687
O O12 0.174005 0.450931 0.316444
O O13 0.494923 0.796408 0.140397
O O14 0.907790 0.643517 0.586444
O O15 0.000000 0.500000 0.500000
O O16 0.185825 0.719437 0.988421
#
# Coordination Sequence:
#
# PCOD9457586 Si02
#       8
#     8   8   8   8   4   8   8   8
#     4  11  25  48  68 102 146 194 239 299 364 434
#     4  11  28  44  77 103 142 188 242 304 371 438
#     4  12  27  45  72 108 149 193 247 303 365 441
#     4  11  25  47  73 106 143 186 242 299 364 445
#     4  10  26  44  68  98 150 194 232 296 370 430
#     4  11  25  40  72 105 142 187 243 297 353 436
#     4  11  25  47  72 108 140 187 240 306 368 445
#     4  10  23  46  70  97 141 186 235 295 361 431
#
# _framework density 23.096781
#
# number of rings (size 3 to 8) (size 9 to 14) (size 15 to 20)
#    0.000    1.067    3.333    0.800   14.000    3.733 
#    0.000    0.000    0.000    0.000    0.000    0.000 
#    0.000    0.000    0.000    0.000    0.000    0.000 
#
# Total GULP energy -334730.216243 kJ/mol
# GULP energy per Si atom -5578.836937 kJ/mol
# Density = 2.304421 g / cm^3
# Si number density = 23.096781 Si / 1000 Ang^3
#
#
#
# Elastic Constant Matrix: (Units=GPa)
#
#
# Indices 1 2 3 4 5 6 
#
# 1 66.6310 0.3717 14.1904 0.0000 0.0000 0.0000
# 2 0.3717 53.6758 27.4056 0.0000 0.0000 0.0000
# 3 14.1904 27.4056 158.7870 0.0000 0.0000 0.0000
# 4 0.0000 0.0000 0.0000 9.3821 0.0000 0.0000
# 5 0.0000 0.0000 0.0000 0.0000 29.0710 0.0000
# 6 0.0000 0.0000 0.0000 0.0000 0.0000 27.3738
#
#
#
# Elastic Compliance Matrix: (Units=1/GPa)
#
#
# Indices 1 2 3 4 5 6 
#
# 1 0.015320 0.000650 -0.001481 0.000000 0.000000 0.000000
# 2 0.000650 0.020458 -0.003589 0.000000 0.000000 0.000000
# 3 -0.001481 -0.003589 0.007050 0.000000 0.000000 0.000000
# 4 0.000000 0.000000 0.000000 0.106586 0.000000 0.000000
# 5 0.000000 0.000000 0.000000 0.000000 0.034399 0.000000
# 6 0.000000 0.000000 0.000000 0.000000 0.000000 0.036531
#
#
# Mechanical properties :
#
#
# Convention : Reuss Voigt Hill
#
# Bulk Modulus (GPa) = 29.42258 40.33656 34.87957
# Shear Modulus (GPa) = 20.78886 28.97378 24.88132
#
# Velocity S-wave (km/s) = 3.00338 3.54567 3.28573
# Velocity P-wave (km/s) = 4.97931 5.85358 5.43406
#
# Compressibility (1/GPa) = 0.03398751
#
# Stress axis : x y z
#
# Youngs Moduli (GPa) = 65.27463 48.87972 141.85242
#
# Poissons Ratio (x) = -0.03178 0.21013
# Poissons Ratio (y) = -0.04244 0.50912
# Poissons Ratio (z) = 0.09669 0.17543
#
# Static dielectric constant tensor:
#      x y z
#    x 1.708340 0.000000 0.000000 
#    y 0.000000 1.817430 0.000000 
#    z 0.000000 0.000000 1.833810 
# 
# From -- ./inp_files/13288.got.cif
#   From: 2010.05.17/outbox.cif.g08.bks.cpg/sg60_7_cif.got.tgz:13288.got - 2010.06.03 14:59:27.
