data_PCOD9457367
_publ_section_title
;
Structure prediction by ZEFSAII (Michael W. Deem and Ramdas Pophale) SiO2 
 PCOD9457367
Probable space group: P B C N
;
_chemical_formula_sum "Si O2"
_cell_formula_units_Z 56
_cell_length_a 14.820121
_cell_length_b 15.260918
_cell_length_c 12.231544
_cell_angle_alpha 90.000000
_cell_angle_beta 90.000000
_cell_angle_gamma 90.000000
_cell_volume 2766.391810
_symmetry_space_group_name_H-M "P B C N"
_symmetry_group_IT_number 60
_symmetry_cell_setting 'orthorhombic'
loop_
_space_group_symop_operation_xyz
x,y,z
1/2-x,1/2-y,1/2+z
1/2+x,1/2-y,-z
-x,y,1/2-z
-x,-y,-z
1/2+x,1/2+y,1/2-z
1/2-x,1/2+y,z
x,-y,1/2+z
loop_
_atom_site_type_symbol
_atom_site_label
_atom_site_fract_x
_atom_site_fract_y
_atom_site_fract_z
Si Si1 0.847674 0.848337 0.246890
Si Si2 0.166800 0.735121 0.668579
Si Si3 0.917286 0.385172 0.952794
Si Si4 0.426207 0.494477 0.597101
Si Si5 0.500000 0.658030 0.250000
Si Si6 0.500000 0.780977 0.750000
Si Si7 0.211148 0.874142 0.492414
Si Si8 0.452045 0.925072 0.136089
O O1 0.769771 0.784008 0.295088
O O2 0.806463 0.887726 0.135981
O O3 0.924411 0.783257 0.204172
O O4 0.896459 0.920692 0.327645
O O5 0.167220 0.790885 0.556004
O O6 0.130923 0.637687 0.654815
O O7 0.091766 0.781842 0.749180
O O8 0.956547 0.335739 0.847888
O O9 0.921571 0.487437 0.923332
O O10 0.816191 0.362692 0.984001
O O11 0.980018 0.372570 0.057781
O O12 0.500000 0.500000 0.500000
O O13 0.471943 0.413057 0.659709
O O14 0.331788 0.458613 0.550524
O O15 0.500000 0.946860 0.250000
#
# Coordination Sequence:
#
# PCOD9457367 Si02
#       8
#     8   8   8   8   4   4   8   8
#     4  12  25  44  72 102 141 186 235 296 361 437
#     4  11  23  42  67 100 134 179 233 288 353 427
#     4  11  24  42  66  95 137 181 224 295 339 427
#     4  11  24  45  69 100 140 184 232 293 361 430
#     4  10  23  41  68 100 136 184 232 293 355 420
#     4  12  23  45  68 100 140 178 234 289 365 416
#     4  11  24  43  65 101 138 173 236 285 356 428
#     4  11  22  41  66  94 130 179 228 273 352 413
#
# _framework density 20.242974
#
# number of rings (size 3 to 8) (size 9 to 14) (size 15 to 20)
#    0.000    0.857    2.857    4.714    0.000    2.286 
#    0.000    4.286    0.000    0.000    0.000    0.000 
#    0.000    0.000    0.000    0.000    0.000    0.000 
#
# Total GULP energy -311866.498629 kJ/mol
# GULP energy per Si atom -5569.044618 kJ/mol
# Density = 2.019690 g / cm^3
# Si number density = 20.242974 Si / 1000 Ang^3
#
#
#
# Elastic Constant Matrix: (Units=GPa)
#
#
# Indices 1 2 3 4 5 6 
#
# 1 112.8074 22.4638 27.7327 0.0000 0.0000 0.0000
# 2 22.4638 70.9858 17.2487 0.0000 0.0000 0.0000
# 3 27.7327 17.2487 89.2674 0.0000 0.0000 0.0000
# 4 0.0000 0.0000 0.0000 26.0834 0.0000 0.0000
# 5 0.0000 0.0000 0.0000 0.0000 33.0148 0.0000
# 6 0.0000 0.0000 0.0000 0.0000 0.0000 39.9430
#
#
#
# Elastic Compliance Matrix: (Units=1/GPa)
#
#
# Indices 1 2 3 4 5 6 
#
# 1 0.010013 -0.002532 -0.002622 0.000000 0.000000 0.000000
# 2 -0.002532 0.015421 -0.002193 0.000000 0.000000 0.000000
# 3 -0.002622 -0.002193 0.012441 0.000000 0.000000 0.000000
# 4 0.000000 0.000000 0.000000 0.038339 0.000000 0.000000
# 5 0.000000 0.000000 0.000000 0.000000 0.030289 0.000000
# 6 0.000000 0.000000 0.000000 0.000000 0.000000 0.025036
#
#
# Mechanical properties :
#
#
# Convention : Reuss Voigt Hill
#
# Bulk Modulus (GPa) = 43.13689 45.32789 44.23239
# Shear Modulus (GPa) = 32.47604 33.51594 32.99599
#
# Velocity S-wave (km/s) = 4.00973 4.07342 4.04170
# Velocity P-wave (km/s) = 6.54164 6.67564 6.60898
#
# Compressibility (1/GPa) = 0.02318202
#
# Stress axis : x y z
#
# Youngs Moduli (GPa) = 99.86686 64.84479 80.38222
#
# Poissons Ratio (x) = 0.16417 0.21073
# Poissons Ratio (y) = 0.25284 0.17630
# Poissons Ratio (z) = 0.26182 0.14222
#
# Static dielectric constant tensor:
#      x y z
#    x 1.764850 0.000000 0.000000 
#    y 0.000000 1.727680 0.000000 
#    z 0.000000 0.000000 1.834760 
# 
# From -- ./inp_files/12012.got.cif
#   From: 2010.05.17/outbox.cif.g08.bks.cpg/sg60_7_cif.got.tgz:12012.got - 2010.06.03 14:59:27.
