data_PCOD9457902
_publ_section_title
;
Structure prediction by ZEFSAII (Michael W. Deem and Ramdas Pophale) SiO2 
 PCOD9457902
Probable space group: P B C N
;
_chemical_formula_sum "Si O2"
_cell_formula_units_Z 32
_cell_length_a 9.521497
_cell_length_b 14.795801
_cell_length_c 10.220741
_cell_angle_alpha 90.000000
_cell_angle_beta 90.000000
_cell_angle_gamma 90.000000
_cell_volume 1439.879338
_symmetry_space_group_name_H-M "P B C N"
_symmetry_group_IT_number 60
_symmetry_cell_setting 'orthorhombic'
loop_
_space_group_symop_operation_xyz
x,y,z
1/2-x,1/2-y,1/2+z
1/2+x,1/2-y,-z
-x,y,1/2-z
-x,-y,-z
1/2+x,1/2+y,1/2-z
1/2-x,1/2+y,z
x,-y,1/2+z
loop_
_atom_site_type_symbol
_atom_site_label
_atom_site_fract_x
_atom_site_fract_y
_atom_site_fract_z
Si Si1 0.592462 0.520425 0.628098
Si Si2 0.318960 0.280034 0.421673
Si Si3 0.386711 0.084750 0.359104
Si Si4 0.999237 0.675204 0.598041
O O1 0.500000 0.489690 0.750000
O O2 0.500000 0.500000 0.500000
O O3 0.619395 0.627896 0.634507
O O4 0.745014 0.473172 0.632977
O O5 0.345912 0.190780 0.334522
O O6 0.154990 0.293862 0.441712
O O7 0.393938 0.254907 0.558394
O O8 0.500000 0.057624 0.250000
O O9 0.546638 0.905940 0.495906
O O10 0.000000 0.654636 0.750000
#
# Coordination Sequence:
#
# PCOD9457902 Si02
#       4
#     8   8   8   8
#     4  12  29  48  76 110 157 199 254 310 385 456
#     4  10  25  44  76 105 150 192 254 300 379 441
#     4  10  26  48  76 112 153 194 253 316 379 453
#     4  10  25  44  80 104 149 195 254 302 390 443
#
# _framework density 22.224084999999999
#
# number of rings (size 3 to 8) (size 9 to 14) (size 15 to 20)
#    1.500    0.000    0.000    2.250   10.500    4.000 
#    0.000    0.000    0.000    0.000    0.000    0.000 
#    0.000    0.000    0.000    0.000    0.000    0.000 
#
# Total GULP energy -178826.307394 kJ/mol
# GULP energy per Si atom -5588.322106 kJ/mol
# Density = 2.217350 g / cm^3
# Si number density = 22.224085 Si / 1000 Ang^3
#
#
#
# Elastic Constant Matrix: (Units=GPa)
#
#
# Indices 1 2 3 4 5 6 
#
# 1 196.8444 80.0041 129.7507 0.0000 0.0000 0.0000
# 2 80.0041 102.4974 3.0165 0.0000 0.0000 0.0000
# 3 129.7507 3.0165 161.3847 0.0000 0.0000 0.0000
# 4 0.0000 0.0000 0.0000 45.0825 0.0000 0.0000
# 5 0.0000 0.0000 0.0000 0.0000 39.3397 0.0000
# 6 0.0000 0.0000 0.0000 0.0000 0.0000 -14.8672
#
#
#
# Elastic Compliance Matrix: (Units=1/GPa)
#
#
# Indices 1 2 3 4 5 6 
#
# 1 0.029607 -0.022421 -0.023384 0.000000 0.000000 0.000000
# 2 -0.022421 0.026741 0.017527 0.000000 0.000000 0.000000
# 3 -0.023384 0.017527 0.024669 0.000000 0.000000 0.000000
# 4 0.000000 0.000000 0.000000 0.022182 0.000000 0.000000
# 5 0.000000 0.000000 0.000000 0.000000 0.025420 0.000000
# 6 0.000000 0.000000 0.000000 0.000000 0.000000 -0.067262
#
#
# Mechanical properties :
#
#
# Convention : Reuss Voigt Hill
#
# Bulk Modulus (GPa) = 40.88390 98.47435 69.67912
# Shear Modulus (GPa) = 39.66111 30.44134 35.05123
#
# Velocity S-wave (km/s) = 4.22904 3.70502 3.97567
# Velocity P-wave (km/s) = 6.50250 7.91889 7.24539
#
# Compressibility (1/GPa) = 0.02445951
#
# Stress axis : x y z
#
# Youngs Moduli (GPa) = 33.77601 37.39511 40.53603
#
# Poissons Ratio (x) = 0.83845 0.94791
# Poissons Ratio (y) = 0.75730 -0.71046
# Poissons Ratio (z) = 0.78983 -0.65541
#
# Static dielectric constant tensor:
#      x y z
#    x 1.848670 0.000000 0.000000 
#    y 0.000000 1.875030 0.000000 
#    z 0.000000 0.000000 1.801750 
# 
# From -- ./inp_files/9466.got.cif
#   From: 2010.05.17/outbox.cif.g08.bks.cpg/sg60_5_cif.got.tgz:9466.got - 2010.06.03 14:59:27.
