data_PCOD9457991
_publ_section_title
;
Structure prediction by ZEFSAII (Michael W. Deem and Ramdas Pophale) SiO2 
 PCOD9457991
Probable space group: P B C N
;
_chemical_formula_sum "Si O2"
_cell_formula_units_Z 28
_cell_length_a 18.784917
_cell_length_b 6.403921
_cell_length_c 8.735968
_cell_angle_alpha 90.000000
_cell_angle_beta 90.000000
_cell_angle_gamma 90.000000
_cell_volume 1050.911830
_symmetry_space_group_name_H-M "P B C N"
_symmetry_group_IT_number 60
_symmetry_cell_setting 'orthorhombic'
loop_
_space_group_symop_operation_xyz
x,y,z
1/2-x,1/2-y,1/2+z
1/2+x,1/2-y,-z
-x,y,1/2-z
-x,-y,-z
1/2+x,1/2+y,1/2-z
1/2-x,1/2+y,z
x,-y,1/2+z
loop_
_atom_site_type_symbol
_atom_site_label
_atom_site_fract_x
_atom_site_fract_y
_atom_site_fract_z
Si Si1 0.500000 0.942289 0.250000
Si Si2 0.411838 0.804650 0.517949
Si Si3 0.810804 0.091783 0.421379
Si Si4 0.202613 0.399725 0.315663
O O1 0.474760 0.801006 0.393123
O O2 0.557118 0.101653 0.326972
O O3 0.365287 0.594349 0.540432
O O4 0.356658 0.965232 0.437014
O O5 0.769455 0.169750 0.574040
O O6 0.842777 0.242385 0.292888
O O7 0.743810 0.023911 0.314281
#
# Coordination Sequence:
#
# PCOD9457991 Si02
#       4
#     4   8   8   8
#     4  10  26  50  74 106 152 216 258 310 356 452
#     4  11  24  48  74 105 153 201 258 308 382 454
#     4  12  24  44  74 112 151 185 244 317 402 443
#     4  12  23  44  73 112 144 190 239 329 388 456
#
# _framework density 26.643526999999999
#
# number of rings (size 3 to 8) (size 9 to 14) (size 15 to 20)
#    0.000    0.571    5.714    1.714    0.000    0.000 
#    5.143    4.286    0.000    0.000    0.000    0.000 
#    0.000    0.000    0.000    0.000    0.000    0.000 
#
# Total GULP energy -156077.268343 kJ/mol
# GULP energy per Si atom -5574.188155 kJ/mol
# Density = 2.658289 g / cm^3
# Si number density = 26.643527 Si / 1000 Ang^3
#
#
#
# Elastic Constant Matrix: (Units=GPa)
#
#
# Indices 1 2 3 4 5 6 
#
# 1 91.2197 42.8377 53.7694 0.0000 0.0000 0.0000
# 2 42.8377 49.4938 62.1629 0.0000 0.0000 0.0000
# 3 53.7694 62.1629 229.9872 0.0000 0.0000 0.0000
# 4 0.0000 0.0000 0.0000 43.9937 0.0000 0.0000
# 5 0.0000 0.0000 0.0000 0.0000 80.1045 0.0000
# 6 0.0000 0.0000 0.0000 0.0000 0.0000 37.1277
#
#
#
# Elastic Compliance Matrix: (Units=1/GPa)
#
#
# Indices 1 2 3 4 5 6 
#
# 1 0.018470 -0.015991 0.000004 0.000000 0.000000 0.000000
# 2 -0.015991 0.044434 -0.008271 0.000000 0.000000 0.000000
# 3 0.000004 -0.008271 0.006583 0.000000 0.000000 0.000000
# 4 0.000000 0.000000 0.000000 0.022731 0.000000 0.000000
# 5 0.000000 0.000000 0.000000 0.000000 0.012484 0.000000
# 6 0.000000 0.000000 0.000000 0.000000 0.000000 0.026934
#
#
# Mechanical properties :
#
#
# Convention : Reuss Voigt Hill
#
# Bulk Modulus (GPa) = 47.68800 76.47118 62.07959
# Shear Modulus (GPa) = 26.71790 46.37389 36.54590
#
# Velocity S-wave (km/s) = 3.17012 4.17649 3.70761
# Velocity P-wave (km/s) = 5.59794 7.21258 6.45594
#
# Compressibility (1/GPa) = 0.02096963
#
# Stress axis : x y z
#
# Youngs Moduli (GPa) = 54.14287 22.50551 151.91218
#
# Poissons Ratio (x) = 0.35988 -0.00062
# Poissons Ratio (y) = 0.86580 1.25651
# Poissons Ratio (z) = -0.00022 0.18615
#
# Static dielectric constant tensor:
#      x y z
#    x 2.262080 0.000000 0.000000 
#    y 0.000000 2.413720 0.000000 
#    z 0.000000 0.000000 2.040280 
# 
# From -- ./inp_files/6456.got.cif
#   From: 2010.05.17/outbox.cif.g08.bks.cpg/sg60_4_cif.got.tgz:6456.got - 2010.06.03 14:59:27.
