data_PCOD9457587
_publ_section_title
;
Structure prediction by ZEFSAII (Michael W. Deem and Ramdas Pophale) SiO2 
 PCOD9457587
Probable space group: P B C N
;
_chemical_formula_sum "Si O2"
_cell_formula_units_Z 40
_cell_length_a 9.065342
_cell_length_b 13.537342
_cell_length_c 14.104388
_cell_angle_alpha 90.000000
_cell_angle_beta 90.000000
_cell_angle_gamma 90.000000
_cell_volume 1730.899452
_symmetry_space_group_name_H-M "P B C N"
_symmetry_group_IT_number 60
_symmetry_cell_setting 'orthorhombic'
loop_
_space_group_symop_operation_xyz
x,y,z
1/2-x,1/2-y,1/2+z
1/2+x,1/2-y,-z
-x,y,1/2-z
-x,-y,-z
1/2+x,1/2+y,1/2-z
1/2-x,1/2+y,z
x,-y,1/2+z
loop_
_atom_site_type_symbol
_atom_site_label
_atom_site_fract_x
_atom_site_fract_y
_atom_site_fract_z
Si Si1 0.152020 0.363194 0.358347
Si Si2 0.120057 0.951718 0.611946
Si Si3 0.000000 0.521160 0.250000
Si Si4 0.000000 0.190863 0.250000
Si Si5 0.429645 0.125542 0.060567
Si Si6 0.990118 0.851809 0.071245
O O1 0.087908 0.261532 0.319810
O O2 0.043826 0.390786 0.447831
O O3 0.320372 0.347925 0.392491
O O4 0.132275 0.443834 0.274849
O O5 0.279458 0.936430 0.569239
O O6 0.012659 0.899014 0.534703
O O7 0.115030 0.882166 0.702063
O O8 0.074285 0.063562 0.629210
O O9 0.008035 0.588198 0.344074
O O10 0.433273 0.245040 0.070223
#
# Coordination Sequence:
#
# PCOD9457587 Si02
#       6
#     8   8   4   4   8   8
#     4  10  24  45  70 100 142 178 231 282 342 411
#     4  10  24  42  69 101 133 177 232 281 341 406
#     4  11  26  43  68 104 136 189 222 285 346 400
#     4  11  22  43  68 102 140 183 216 287 340 406
#     4  11  24  46  68 102 136 179 230 287 341 412
#     4  10  23  46  71  97 133 186 222 287 348 405
#
# _framework density 23.109373000000001
#
# number of rings (size 3 to 8) (size 9 to 14) (size 15 to 20)
#    0.000    1.600    2.000    0.600    5.600    4.000 
#   10.800    0.000    0.000    0.000    0.000    0.000 
#    0.000    0.000    0.000    0.000    0.000    0.000 
#
# Total GULP energy -222879.651399 kJ/mol
# GULP energy per Si atom -5571.991285 kJ/mol
# Density = 2.305678 g / cm^3
# Si number density = 23.109373 Si / 1000 Ang^3
#
#
#
# Elastic Constant Matrix: (Units=GPa)
#
#
# Indices 1 2 3 4 5 6 
#
# 1 47.0978 32.2219 10.0886 0.0000 0.0000 0.0000
# 2 32.2219 146.8157 39.8005 0.0000 0.0000 0.0000
# 3 10.0886 39.8005 92.1216 0.0000 0.0000 0.0000
# 4 0.0000 0.0000 0.0000 -243.5968 0.0000 0.0000
# 5 0.0000 0.0000 0.0000 0.0000 27.9180 0.0000
# 6 0.0000 0.0000 0.0000 0.0000 0.0000 21.9401
#
#
#
# Elastic Compliance Matrix: (Units=1/GPa)
#
#
# Indices 1 2 3 4 5 6 
#
# 1 0.024998 -0.005374 -0.000416 0.000000 0.000000 0.000000
# 2 -0.005374 0.008870 -0.003244 0.000000 0.000000 0.000000
# 3 -0.000416 -0.003244 0.012302 0.000000 0.000000 0.000000
# 4 0.000000 0.000000 0.000000 -0.004105 0.000000 0.000000
# 5 0.000000 0.000000 0.000000 0.000000 0.035819 0.000000
# 6 0.000000 0.000000 0.000000 0.000000 0.000000 0.045579
#
#
# Mechanical properties :
#
#
# Convention : Reuss Voigt Hill
#
# Bulk Modulus (GPa) = 35.58283 50.02856 42.80569
# Shear Modulus (GPa) = 33.13516 -25.15280 3.99118
#
# Velocity S-wave (km/s) = 3.79072 -3.30271 1.31561
# Velocity P-wave (km/s) = 5.88136 2.67428 4.56849
#
# Compressibility (1/GPa) = 0.02810344
#
# Stress axis : x y z
#
# Youngs Moduli (GPa) = 40.00349 112.74018 81.28628
#
# Poissons Ratio (x) = 0.60581 0.03381
# Poissons Ratio (y) = 0.21496 0.26367
# Poissons Ratio (z) = 0.01664 0.36570
#
# Static dielectric constant tensor:
#      x y z
#    x 1.867080 0.000000 0.000000 
#    y 0.000000 1.831650 0.000000 
#    z 0.000000 0.000000 2.071630 
# 
# From -- ./inp_files/14726.got.cif
#   From: 2010.05.17/outbox.cif.g08.bks.cpg/sg60_8_cif.got.tgz:14726.got - 2010.06.03 14:59:27.
