data_PCOD9457293
_publ_section_title
;
Structure prediction by ZEFSAII (Michael W. Deem and Ramdas Pophale) SiO2 
 PCOD9457293
Probable space group: P B C N
;
_chemical_formula_sum "Si O2"
_cell_formula_units_Z 52
_cell_length_a 19.426019
_cell_length_b 5.291091
_cell_length_c 25.644314
_cell_angle_alpha 90.000000
_cell_angle_beta 90.000000
_cell_angle_gamma 90.000000
_cell_volume 2635.846565
_symmetry_space_group_name_H-M "P B C N"
_symmetry_group_IT_number 60
_symmetry_cell_setting 'orthorhombic'
loop_
_space_group_symop_operation_xyz
x,y,z
1/2-x,1/2-y,1/2+z
1/2+x,1/2-y,-z
-x,y,1/2-z
-x,-y,-z
1/2+x,1/2+y,1/2-z
1/2-x,1/2+y,z
x,-y,1/2+z
loop_
_atom_site_type_symbol
_atom_site_label
_atom_site_fract_x
_atom_site_fract_y
_atom_site_fract_z
Si Si1 0.786012 0.145039 0.173516
Si Si2 0.047169 0.194078 0.052761
Si Si3 0.457757 0.812027 0.943796
Si Si4 0.570684 0.614441 0.665142
Si Si5 0.000000 0.420507 0.750000
Si Si6 0.567947 0.292458 0.833257
Si Si7 0.215072 0.876633 0.701894
O O1 0.739464 0.913713 0.152885
O O2 0.865532 0.074989 0.166114
O O3 0.775306 0.145185 0.235940
O O4 0.085211 0.264718 0.106384
O O5 0.985438 0.402146 0.052719
O O6 0.082859 0.244857 0.996982
O O7 0.018120 0.906296 0.054512
O O8 0.423194 0.776546 0.887622
O O9 0.498441 0.469499 0.662960
O O10 0.559386 0.773159 0.717884
O O11 0.041093 0.575531 0.705628
O O12 0.635061 0.417166 0.809083
O O13 0.240195 0.607445 0.680761
#
# Coordination Sequence:
#
# PCOD9457293 Si02
#       7
#     8   8   8   8   4   8   8
#     4  10  23  38  55  77 114 157 190 224 280 350
#     4   9  18  34  55  81 110 144 185 233 286 337
#     4   9  18  34  55  81 110 144 185 233 286 337
#     4  11  23  36  57  86 117 147 192 243 288 337
#     4  12  22  32  54  90 116 144 184 242 290 332
#     4  11  23  36  57  86 117 147 192 243 288 337
#     4  10  23  38  55  77 114 157 190 224 280 350
#
# _framework density 19.728007999999999
#
# number of rings (size 3 to 8) (size 9 to 14) (size 15 to 20)
#    0.000    1.846    1.538    2.308   10.769    0.000 
#    0.000    0.000    0.000    1.846    0.000    0.000 
#    0.000    0.000    0.000    0.000    0.000    0.000 
#
# Total GULP energy -289728.516936 kJ/mol
# GULP energy per Si atom -5571.702249 kJ/mol
# Density = 1.968311 g / cm^3
# Si number density = 19.728008 Si / 1000 Ang^3
#
#
#
# Elastic Constant Matrix: (Units=GPa)
#
#
# Indices 1 2 3 4 5 6 
#
# 1 35.6630 1.2556 -21.2021 0.0000 0.0000 0.0000
# 2 1.2556 42.9062 12.1072 0.0000 0.0000 0.0000
# 3 -21.2021 12.1072 80.9834 0.0000 0.0000 0.0000
# 4 0.0000 0.0000 0.0000 20.3831 0.0000 0.0000
# 5 0.0000 0.0000 0.0000 0.0000 -14.9730 0.0000
# 6 0.0000 0.0000 0.0000 0.0000 0.0000 23.8459
#
#
#
# Elastic Compliance Matrix: (Units=1/GPa)
#
#
# Indices 1 2 3 4 5 6 
#
# 1 0.033743 -0.003634 0.009377 0.000000 0.000000 0.000000
# 2 -0.003634 0.024724 -0.004648 0.000000 0.000000 0.000000
# 3 0.009377 -0.004648 0.015498 0.000000 0.000000 0.000000
# 4 0.000000 0.000000 0.000000 0.049060 0.000000 0.000000
# 5 0.000000 0.000000 0.000000 0.000000 -0.066787 0.000000
# 6 0.000000 0.000000 0.000000 0.000000 0.000000 0.041936
#
#
# Mechanical properties :
#
#
# Convention : Reuss Voigt Hill
#
# Bulk Modulus (GPa) = 13.13056 15.98600 14.55828
# Shear Modulus (GPa) = 41.19679 17.01065 29.10372
#
# Velocity S-wave (km/s) = 4.57468 2.93961 3.84506
# Velocity P-wave (km/s) = 5.87996 4.43199 5.20655
#
# Compressibility (1/GPa) = 0.07615821
#
# Stress axis : x y z
#
# Youngs Moduli (GPa) = 29.63565 40.44575 64.52390
#
# Poissons Ratio (x) = 0.14696 -0.60507
# Poissons Ratio (y) = 0.10768 0.29989
# Poissons Ratio (z) = -0.27791 0.18798
#
# Static dielectric constant tensor:
#      x y z
#    x 1.672540 0.000000 0.000000 
#    y 0.000000 1.767190 0.000000 
#    z 0.000000 0.000000 1.816620 
# 
# From -- ./inp_files/25462.got.cif
#   From: 2010.05.17/outbox.cif.g08.bks.cpg/sg60_13_cif.got.tgz:25462.got - 2010.06.03 14:59:27.
