data_PCOD9457126
_publ_section_title
;
Structure prediction by ZEFSAII (Michael W. Deem and Ramdas Pophale) SiO2 
 PCOD9457126
Probable space group: P B C N
;
_chemical_formula_sum "Si O2"
_cell_formula_units_Z 60
_cell_length_a 17.441512
_cell_length_b 8.798549
_cell_length_c 16.076988
_cell_angle_alpha 90.000000
_cell_angle_beta 90.000000
_cell_angle_gamma 90.000000
_cell_volume 2467.174546
_symmetry_space_group_name_H-M "P B C N"
_symmetry_group_IT_number 60
_symmetry_cell_setting 'orthorhombic'
loop_
_space_group_symop_operation_xyz
x,y,z
1/2-x,1/2-y,1/2+z
1/2+x,1/2-y,-z
-x,y,1/2-z
-x,-y,-z
1/2+x,1/2+y,1/2-z
1/2-x,1/2+y,z
x,-y,1/2+z
loop_
_atom_site_type_symbol
_atom_site_label
_atom_site_fract_x
_atom_site_fract_y
_atom_site_fract_z
Si Si1 0.179286 0.474973 0.568189
Si Si2 0.000000 0.500000 0.000000
Si Si3 0.560990 0.055496 0.188795
Si Si4 0.569872 0.245962 0.525163
Si Si5 0.198918 0.783433 0.340227
Si Si6 0.081898 0.784888 0.778824
Si Si7 0.281028 0.254813 0.676853
Si Si8 0.691643 0.565760 0.055777
O O1 0.101034 0.415424 0.521235
O O2 0.216125 0.354878 0.631787
O O3 0.180601 0.637215 0.612808
O O4 0.240400 0.488921 0.495613
O O5 0.023934 0.494608 0.898202
O O6 0.984675 0.696371 0.991346
O O7 0.500000 0.133271 0.250000
O O8 0.634189 0.158581 0.174506
O O9 0.584054 0.898455 0.234576
O O10 0.584503 0.291025 0.620912
O O11 0.627581 0.371758 0.490886
O O12 0.239070 0.827110 0.253837
O O13 0.264113 0.702130 0.396490
O O14 0.165536 0.931806 0.383713
O O15 0.150998 0.846725 0.723191
O O16 0.000000 0.844436 0.750000
#
# Coordination Sequence:
#
# PCOD9457126 Si02
#       8
#     8   4   8   8   8   8   8   8
#     4  12  24  38  67 104 140 172 235 294 358 415
#     4  10  24  42  70  98 136 192 236 288 364 438
#     4  10  23  42  69 102 140 186 241 294 360 431
#     4  11  23  43  66  99 141 182 233 294 356 427
#     4  12  24  44  71  99 142 190 232 296 362 427
#     4  10  22  43  68  98 132 184 242 286 353 438
#     4  12  24  39  69 105 136 183 236 297 353 433
#     4  12  22  45  67 100 140 184 234 288 365 424
#
# _framework density 24.319317000000002
#
# number of rings (size 3 to 8) (size 9 to 14) (size 15 to 20)
#    0.000    0.800    4.000    4.000    7.467    0.000 
#    0.000    1.333    0.000    0.000    0.000    0.000 
#    0.000    0.000    0.000    0.000    0.000    0.000 
#
# Total GULP energy -334173.772842 kJ/mol
# GULP energy per Si atom -5569.562881 kJ/mol
# Density = 2.426396 g / cm^3
# Si number density = 24.319317 Si / 1000 Ang^3
#
#
#
# Elastic Constant Matrix: (Units=GPa)
#
#
# Indices 1 2 3 4 5 6 
#
# 1 67.0900 2.4885 28.7715 0.0000 0.0000 0.0000
# 2 2.4885 50.9598 3.0007 0.0000 0.0000 0.0000
# 3 28.7715 3.0007 92.7704 0.0000 0.0000 0.0000
# 4 0.0000 0.0000 0.0000 25.3412 0.0000 0.0000
# 5 0.0000 0.0000 0.0000 0.0000 54.4304 0.0000
# 6 0.0000 0.0000 0.0000 0.0000 0.0000 25.9667
#
#
#
# Elastic Compliance Matrix: (Units=1/GPa)
#
#
# Indices 1 2 3 4 5 6 
#
# 1 0.017206 -0.000527 -0.005319 0.000000 0.000000 0.000000
# 2 -0.000527 0.019677 -0.000473 0.000000 0.000000 0.000000
# 3 -0.005319 -0.000473 0.012444 0.000000 0.000000 0.000000
# 4 0.000000 0.000000 0.000000 0.039461 0.000000 0.000000
# 5 0.000000 0.000000 0.000000 0.000000 0.018372 0.000000
# 6 0.000000 0.000000 0.000000 0.000000 0.000000 0.038511
#
#
# Mechanical properties :
#
#
# Convention : Reuss Voigt Hill
#
# Bulk Modulus (GPa) = 27.25625 31.03794 29.14710
# Shear Modulus (GPa) = 29.31870 32.91827 31.11849
#
# Velocity S-wave (km/s) = 3.47590 3.68310 3.58100
# Velocity P-wave (km/s) = 5.22888 5.55674 5.39530
#
# Compressibility (1/GPa) = 0.03668883
#
# Stress axis : x y z
#
# Youngs Moduli (GPa) = 58.11918 50.82101 80.35827
#
# Poissons Ratio (x) = 0.02678 0.42744
# Poissons Ratio (y) = 0.03063 0.03801
# Poissons Ratio (z) = 0.30915 0.02404
#
# Static dielectric constant tensor:
#      x y z
#    x 2.190800 0.000000 0.000000 
#    y 0.000000 2.116690 0.000000 
#    z 0.000000 0.000000 2.020310 
# 
# From -- ./inp_files/20906.got.cif
#   From: 2010.05.17/outbox.cif.g08.bks.cpg/sg60_11_cif.got.tgz:20906.got - 2010.06.03 14:59:27.
