data_PCOD9457210
_publ_section_title
;
Structure prediction by ZEFSAII (Michael W. Deem and Ramdas Pophale) SiO2 
 PCOD9457210
Probable space group: P B C N
;
_chemical_formula_sum "Si O2"
_cell_formula_units_Z 36
_cell_length_a 8.047144
_cell_length_b 16.956173
_cell_length_c 11.964989
_cell_angle_alpha 90.000000
_cell_angle_beta 90.000000
_cell_angle_gamma 90.000000
_cell_volume 1632.607982
_symmetry_space_group_name_H-M "P B C N"
_symmetry_group_IT_number 60
_symmetry_cell_setting 'orthorhombic'
loop_
_space_group_symop_operation_xyz
x,y,z
1/2-x,1/2-y,1/2+z
1/2+x,1/2-y,-z
-x,y,1/2-z
-x,-y,-z
1/2+x,1/2+y,1/2-z
1/2-x,1/2+y,z
x,-y,1/2+z
loop_
_atom_site_type_symbol
_atom_site_label
_atom_site_fract_x
_atom_site_fract_y
_atom_site_fract_z
Si Si1 0.670393 0.143718 0.323202
Si Si2 0.340665 0.344467 0.889037
Si Si3 0.000000 0.386083 0.250000
Si Si4 0.815750 0.001423 0.736433
Si Si5 0.026275 0.287442 0.024952
O O1 0.500000 0.129800 0.250000
O O2 0.791756 0.187913 0.235157
O O3 0.760349 0.059219 0.335638
O O4 0.613022 0.185988 0.434552
O O5 0.333343 0.438016 0.865966
O O6 0.500724 0.304253 0.943245
O O7 0.193920 0.314715 0.966918
O O8 0.834381 0.438396 0.230807
O O9 0.986520 0.334995 0.361085
O O10 0.000000 0.036134 0.750000
#
# Coordination Sequence:
#
# PCOD9457210 Si02
#       5
#     8   8   4   8   8
#     4   8  18  41  63  90 131 178 219 269 347 398
#     4   9  23  41  68  98 129 183 223 281 352 403
#     4  12  26  44  66 110 136 178 230 288 336 406
#     4  10  22  45  69  93 142 184 222 275 350 421
#     4  11  23  40  71  97 139 172 232 293 336 407
#
# _framework density 22.050609000000001
#
# number of rings (size 3 to 8) (size 9 to 14) (size 15 to 20)
#    1.333    0.889    1.111    0.000    7.778    3.556 
#    4.000    2.222    0.000    0.000    0.000    0.000 
#    0.000    0.000    0.000    0.000    0.000    0.000 
#
# Total GULP energy -200535.740564 kJ/mol
# GULP energy per Si atom -5570.437238 kJ/mol
# Density = 2.200042 g / cm^3
# Si number density = 22.050609 Si / 1000 Ang^3
#
#
#
# Elastic Constant Matrix: (Units=GPa)
#
#
# Indices 1 2 3 4 5 6 
#
# 1 114.6553 4.9162 11.5912 0.0000 0.0000 0.0000
# 2 4.9162 41.2001 15.8550 0.0000 0.0000 0.0000
# 3 11.5912 15.8550 112.7971 0.0000 0.0000 0.0000
# 4 0.0000 0.0000 0.0000 -2.2744 0.0000 0.0000
# 5 0.0000 0.0000 0.0000 0.0000 34.2205 0.0000
# 6 0.0000 0.0000 0.0000 0.0000 0.0000 29.3974
#
#
#
# Elastic Compliance Matrix: (Units=1/GPa)
#
#
# Indices 1 2 3 4 5 6 
#
# 1 0.008835 -0.000745 -0.000803 0.000000 0.000000 0.000000
# 2 -0.000745 0.025723 -0.003539 0.000000 0.000000 0.000000
# 3 -0.000803 -0.003539 0.009445 0.000000 0.000000 0.000000
# 4 0.000000 0.000000 0.000000 -0.439669 0.000000 0.000000
# 5 0.000000 0.000000 0.000000 0.000000 0.029222 0.000000
# 6 0.000000 0.000000 0.000000 0.000000 0.000000 0.034017
#
#
# Mechanical properties :
#
#
# Convention : Reuss Voigt Hill
#
# Bulk Modulus (GPa) = 29.56102 37.04193 33.30147
# Shear Modulus (GPa) = -16.07840 28.02137 5.97149
#
# Velocity S-wave (km/s) = -2.70322 3.56866 1.64741
# Velocity P-wave (km/s) = 1.92142 5.81511 4.33055
#
# Compressibility (1/GPa) = 0.03382833
#
# Stress axis : x y z
#
# Youngs Moduli (GPa) = 113.18698 38.87622 105.87094
#
# Poissons Ratio (x) = 0.02897 0.08503
# Poissons Ratio (y) = 0.08434 0.37468
# Poissons Ratio (z) = 0.09091 0.13759
#
# Static dielectric constant tensor:
#      x y z
#    x 1.962970 0.000000 0.000000 
#    y 0.000000 1.795670 0.000000 
#    z 0.000000 0.000000 1.803870 
# 
# From -- ./inp_files/9895.got.cif
#   From: 2010.05.17/outbox.cif.g08.bks.cpg/sg60_5_cif.got.tgz:9895.got - 2010.06.03 14:59:27.
