data_PCOD9457493
_publ_section_title
;
Structure prediction by ZEFSAII (Michael W. Deem and Ramdas Pophale) SiO2 
 PCOD9457493
Probable space group: P B C N
;
_chemical_formula_sum "Si O2"
_cell_formula_units_Z 64
_cell_length_a 5.252620
_cell_length_b 19.566362
_cell_length_c 28.891062
_cell_angle_alpha 90.000000
_cell_angle_beta 90.000000
_cell_angle_gamma 90.000000
_cell_volume 2969.269200
_symmetry_space_group_name_H-M "P B C N"
_symmetry_group_IT_number 60
_symmetry_cell_setting 'orthorhombic'
loop_
_space_group_symop_operation_xyz
x,y,z
1/2-x,1/2-y,1/2+z
1/2+x,1/2-y,-z
-x,y,1/2-z
-x,-y,-z
1/2+x,1/2+y,1/2-z
1/2-x,1/2+y,z
x,-y,1/2+z
loop_
_atom_site_type_symbol
_atom_site_label
_atom_site_fract_x
_atom_site_fract_y
_atom_site_fract_z
Si Si1 0.587741 0.634483 0.147202
Si Si2 0.861663 0.476645 0.943242
Si Si3 0.075960 0.660048 0.094592
Si Si4 0.587449 0.271303 0.025787
Si Si5 0.506661 0.650477 0.693384
Si Si6 0.508160 0.768948 0.304517
Si Si7 0.710187 0.570409 0.534375
Si Si8 0.022471 0.016879 0.631612
O O1 0.371891 0.649452 0.107660
O O2 0.503105 0.688663 0.185494
O O3 0.581255 0.553140 0.153599
O O4 0.876410 0.654610 0.135866
O O5 0.005989 0.404314 0.937798
O O6 0.793474 0.495392 0.890289
O O7 0.998232 0.544141 0.962209
O O8 0.652618 0.454536 0.981622
O O9 0.024286 0.730459 0.069181
O O10 0.651369 0.349882 0.035183
O O11 0.354467 0.263264 0.989515
O O12 0.500000 0.643146 0.750000
O O13 0.267530 0.696770 0.678491
O O14 0.484842 0.578080 0.667672
O O15 0.763788 0.689022 0.677963
O O16 0.500000 0.778564 0.250000
O O17 0.604051 0.539116 0.582467
#
# Coordination Sequence:
#
# PCOD9457493 Si02
#       8
#     8   8   8   8   8   8   8   8
#     4  11  24  41  67  95 130 168 214 271 318 401
#     4  10  23  44  62  92 134 181 222 276 330 396
#     4  11  23  43  60  93 130 167 216 273 320 375
#     4  12  27  42  62  91 125 171 226 274 324 378
#     4  10  24  45  70 100 136 168 215 278 334 401
#     4  10  23  45  70  98 132 172 210 269 342 398
#     4  11  24  41  66  91 132 181 224 280 327 397
#     4  11  25  39  68  98 132 177 228 266 342 394
#
# _framework density 21.554123000000001
#
# number of rings (size 3 to 8) (size 9 to 14) (size 15 to 20)
#    0.000    1.250    2.500    1.875    8.750    0.500 
#    0.000    0.000    0.000    4.500    0.000    0.000 
#    0.000    0.000    0.000    0.000    0.000    0.000 
#
# Total GULP energy -356633.564854 kJ/mol
# GULP energy per Si atom -5572.399451 kJ/mol
# Density = 2.150507 g / cm^3
# Si number density = 21.554123 Si / 1000 Ang^3
#
#
#
# Elastic Constant Matrix: (Units=GPa)
#
#
# Indices 1 2 3 4 5 6 
#
# 1 77.6672 45.8681 17.8306 0.0000 0.0000 0.0000
# 2 45.8681 150.8013 31.7328 0.0000 0.0000 0.0000
# 3 17.8306 31.7328 31.7826 0.0000 0.0000 0.0000
# 4 0.0000 0.0000 0.0000 50.0099 0.0000 0.0000
# 5 0.0000 0.0000 0.0000 0.0000 12.8504 0.0000
# 6 0.0000 0.0000 0.0000 0.0000 0.0000 28.4057
#
#
#
# Elastic Compliance Matrix: (Units=1/GPa)
#
#
# Indices 1 2 3 4 5 6 
#
# 1 0.016380 -0.003859 -0.005336 0.000000 0.000000 0.000000
# 2 -0.003859 0.009304 -0.007125 0.000000 0.000000 0.000000
# 3 -0.005336 -0.007125 0.041571 0.000000 0.000000 0.000000
# 4 0.000000 0.000000 0.000000 0.019996 0.000000 0.000000
# 5 0.000000 0.000000 0.000000 0.000000 0.077818 0.000000
# 6 0.000000 0.000000 0.000000 0.000000 0.000000 0.035204
#
#
# Mechanical properties :
#
#
# Convention : Reuss Voigt Hill
#
# Bulk Modulus (GPa) = 28.88926 50.12379 39.50652
# Shear Modulus (GPa) = 20.45393 29.24118 24.84755
#
# Velocity S-wave (km/s) = 3.08386 3.68725 3.39897
# Velocity P-wave (km/s) = 5.11003 6.43686 5.81144
#
# Compressibility (1/GPa) = 0.03461495
#
# Stress axis : x y z
#
# Youngs Moduli (GPa) = 61.05148 107.47725 24.05529
#
# Poissons Ratio (x) = 0.41478 0.12836
# Poissons Ratio (y) = 0.23561 0.17139
# Poissons Ratio (z) = 0.32578 0.76574
#
# Static dielectric constant tensor:
#      x y z
#    x 1.951960 0.000000 0.000000 
#    y 0.000000 1.785780 0.000000 
#    z 0.000000 0.000000 1.821870 
# 
# From -- ./inp_files/25797.got.cif
#   From: 2010.05.17/outbox.cif.g08.bks.cpg/sg60_13_cif.got.tgz:25797.got - 2010.06.03 14:59:27.
