data_PCOD9457856
_publ_section_title
;
Structure prediction by ZEFSAII (Michael W. Deem and Ramdas Pophale) SiO2 
 PCOD9457856
Probable space group: P B C N
;
_chemical_formula_sum "Si O2"
_cell_formula_units_Z 36
_cell_length_a 6.686110
_cell_length_b 7.721860
_cell_length_c 27.113224
_cell_angle_alpha 90.000000
_cell_angle_beta 90.000000
_cell_angle_gamma 90.000000
_cell_volume 1399.834210
_symmetry_space_group_name_H-M "P B C N"
_symmetry_group_IT_number 60
_symmetry_cell_setting 'orthorhombic'
loop_
_space_group_symop_operation_xyz
x,y,z
1/2-x,1/2-y,1/2+z
1/2+x,1/2-y,-z
-x,y,1/2-z
-x,-y,-z
1/2+x,1/2+y,1/2-z
1/2-x,1/2+y,z
x,-y,1/2+z
loop_
_atom_site_type_symbol
_atom_site_label
_atom_site_fract_x
_atom_site_fract_y
_atom_site_fract_z
Si Si1 0.000000 0.681861 0.750000
Si Si2 0.700520 0.620411 0.943933
Si Si3 0.919375 0.218557 0.053045
Si Si4 0.060113 0.715886 0.368627
Si Si5 0.199388 0.010540 0.300427
O O1 0.802362 0.561316 0.749470
O O2 0.932347 0.818724 0.707911
O O3 0.556551 0.453777 0.940646
O O4 0.940189 0.613027 0.941173
O O5 0.634318 0.748252 0.900207
O O6 0.662553 0.705684 0.997567
O O7 0.741867 0.223814 0.092013
O O8 0.109013 0.551559 0.335063
O O9 0.073422 0.869947 0.328995
#
# Coordination Sequence:
#
# PCOD9457856 Si02
#       5
#     4   8   8   8   8
#     4  10  24  50  76 102 134 182 220 304 394 430
#     4  11  24  40  64  98 144 193 236 281 339 400
#     4  11  24  40  64 100 140 197 238 280 341 402
#     4  11  22  45  65 106 142 183 234 291 332 434
#     4  10  24  48  73 101 139 174 232 301 370 439
#
# _framework density 25.717334000000001
#
# number of rings (size 3 to 8) (size 9 to 14) (size 15 to 20)
#    0.000    1.333    4.444    0.000    3.111    4.444 
#   16.000    0.000    0.000    0.000    0.000    0.000 
#    0.000    0.000    0.000    0.000    0.000    0.000 
#
# Total GULP energy -201274.982173 kJ/mol
# GULP energy per Si atom -5590.971727 kJ/mol
# Density = 2.565880 g / cm^3
# Si number density = 25.717334 Si / 1000 Ang^3
#
#
#
# Elastic Constant Matrix: (Units=GPa)
#
#
# Indices 1 2 3 4 5 6 
#
# 1 80.9280 9.3128 49.1239 0.0000 0.0000 0.0000
# 2 9.3128 76.5168 13.1114 0.0000 0.0000 0.0000
# 3 49.1239 13.1114 93.4104 0.0000 0.0000 0.0000
# 4 0.0000 0.0000 0.0000 28.4327 0.0000 0.0000
# 5 0.0000 0.0000 0.0000 0.0000 50.0236 0.0000
# 6 0.0000 0.0000 0.0000 0.0000 0.0000 33.6085
#
#
#
# Elastic Compliance Matrix: (Units=1/GPa)
#
#
# Indices 1 2 3 4 5 6 
#
# 1 0.018177 -0.000588 -0.009476 0.000000 0.000000 0.000000
# 2 -0.000588 0.013410 -0.001573 0.000000 0.000000 0.000000
# 3 -0.009476 -0.001573 0.015910 0.000000 0.000000 0.000000
# 4 0.000000 0.000000 0.000000 0.035171 0.000000 0.000000
# 5 0.000000 0.000000 0.000000 0.000000 0.019991 0.000000
# 6 0.000000 0.000000 0.000000 0.000000 0.000000 0.029754
#
#
# Mechanical properties :
#
#
# Convention : Reuss Voigt Hill
#
# Bulk Modulus (GPa) = 41.28606 43.77236 42.52921
# Shear Modulus (GPa) = 30.53225 34.36676 32.44950
#
# Velocity S-wave (km/s) = 3.44935 3.65955 3.55600
# Velocity P-wave (km/s) = 5.65267 5.90880 5.78215
#
# Compressibility (1/GPa) = 0.02422125
#
# Stress axis : x y z
#
# Youngs Moduli (GPa) = 55.01580 74.57030 62.85448
#
# Poissons Ratio (x) = 0.04388 0.59563
# Poissons Ratio (y) = 0.03237 0.09886
# Poissons Ratio (z) = 0.52135 0.11729
#
# Static dielectric constant tensor:
#      x y z
#    x 2.028710 0.000000 0.000000 
#    y 0.000000 2.116930 0.000000 
#    z 0.000000 0.000000 2.026290 
# 
# From -- ./inp_files/25102.got.cif
#   From: 2010.05.17/outbox.cif.g08.bks.cpg/sg60_13_cif.got.tgz:25102.got - 2010.06.03 14:59:27.
