data_PCOD9457439
_publ_section_title
;
Structure prediction by ZEFSAII (Michael W. Deem and Ramdas Pophale) SiO2 
 PCOD9457439
Probable space group: P B C N
;
_chemical_formula_sum "Si O2"
_cell_formula_units_Z 56
_cell_length_a 5.415214
_cell_length_b 19.924810
_cell_length_c 22.124425
_cell_angle_alpha 90.000000
_cell_angle_beta 90.000000
_cell_angle_gamma 90.000000
_cell_volume 2387.161519
_symmetry_space_group_name_H-M "P B C N"
_symmetry_group_IT_number 60
_symmetry_cell_setting 'orthorhombic'
loop_
_space_group_symop_operation_xyz
x,y,z
1/2-x,1/2-y,1/2+z
1/2+x,1/2-y,-z
-x,y,1/2-z
-x,-y,-z
1/2+x,1/2+y,1/2-z
1/2-x,1/2+y,z
x,-y,1/2+z
loop_
_atom_site_type_symbol
_atom_site_label
_atom_site_fract_x
_atom_site_fract_y
_atom_site_fract_z
Si Si1 0.302672 0.071016 0.803453
Si Si2 0.500000 0.357212 0.750000
Si Si3 0.349581 0.072720 0.595020
Si Si4 0.500000 0.786381 0.750000
Si Si5 0.098327 0.926506 0.979224
Si Si6 0.014099 0.957155 0.649623
Si Si7 0.497935 0.314962 0.347857
Si Si8 0.641231 0.711985 0.520342
O O1 0.500000 0.066605 0.750000
O O2 0.390802 0.072297 0.873326
O O3 0.164350 0.141153 0.801417
O O4 0.138596 0.005281 0.805805
O O5 0.250480 0.321657 0.772718
O O6 0.603623 0.398803 0.807301
O O7 0.333193 0.081174 0.523594
O O8 0.201554 0.134085 0.625687
O O9 0.220429 0.004789 0.619414
O O10 0.401988 0.744854 0.692129
O O11 0.137292 0.929267 0.907789
O O12 0.921514 0.863392 0.995720
O O13 0.000000 0.000000 0.000000
O O14 0.351109 0.290773 0.406795
O O15 0.398334 0.756650 0.503175
#
# Coordination Sequence:
#
# PCOD9457439 Si02
#       8
#     8   4   8   4   8   8   8   8
#     4  11  22  39  75 103 135 181 235 305 360 421
#     4  12  30  45  66  99 144 190 236 282 354 430
#     4   9  20  41  72 100 131 172 235 298 356 420
#     4  12  30  45  68  97 140 194 238 290 342 434
#     4   9  21  46  70 105 141 187 242 298 363 429
#     4  10  23  43  65 100 142 178 233 288 362 426
#     4  10  25  45  68 100 136 181 243 295 357 424
#     4  11  27  47  75 106 147 192 244 302 372 438
#
# _framework density 23.458822000000001
#
# number of rings (size 3 to 8) (size 9 to 14) (size 15 to 20)
#    0.000    1.714    0.000    2.571   14.000    2.857 
#    5.143    0.000    0.000    0.000    0.000    0.000 
#    0.000    0.000    0.000    0.000    0.000    0.000 
#
# Total GULP energy -312702.123673 kJ/mol
# GULP energy per Si atom -5583.966494 kJ/mol
# Density = 2.340543 g / cm^3
# Si number density = 23.458822 Si / 1000 Ang^3
#
#
#
# Elastic Constant Matrix: (Units=GPa)
#
#
# Indices 1 2 3 4 5 6 
#
# 1 65.4410 21.0820 13.0601 0.0000 0.0000 0.0000
# 2 21.0820 85.6192 28.6636 0.0000 0.0000 0.0000
# 3 13.0601 28.6636 145.5286 0.0000 0.0000 0.0000
# 4 0.0000 0.0000 0.0000 2.8474 0.0000 0.0000
# 5 0.0000 0.0000 0.0000 0.0000 39.3489 0.0000
# 6 0.0000 0.0000 0.0000 0.0000 0.0000 63.0984
#
#
#
# Elastic Compliance Matrix: (Units=1/GPa)
#
#
# Indices 1 2 3 4 5 6 
#
# 1 0.016671 -0.003858 -0.000736 0.000000 0.000000 0.000000
# 2 -0.003858 0.013397 -0.002292 0.000000 0.000000 0.000000
# 3 -0.000736 -0.002292 0.007389 0.000000 0.000000 0.000000
# 4 0.000000 0.000000 0.000000 0.351198 0.000000 0.000000
# 5 0.000000 0.000000 0.000000 0.000000 0.025414 0.000000
# 6 0.000000 0.000000 0.000000 0.000000 0.000000 0.015848
#
#
# Mechanical properties :
#
#
# Convention : Reuss Voigt Hill
#
# Bulk Modulus (GPa) = 42.22424 46.91112 44.56768
# Shear Modulus (GPa) = 11.07210 36.64448 23.85829
#
# Velocity S-wave (km/s) = 2.17487 3.95660 3.19255
# Velocity P-wave (km/s) = 4.93408 6.39637 5.71221
#
# Compressibility (1/GPa) = 0.02368308
#
# Stress axis : x y z
#
# Youngs Moduli (GPa) = 59.98501 74.64280 135.33460
#
# Poissons Ratio (x) = 0.28800 0.09962
# Poissons Ratio (y) = 0.23145 0.31025
# Poissons Ratio (z) = 0.04416 0.17112
#
# Static dielectric constant tensor:
#      x y z
#    x 4.428730 0.000000 0.000000 
#    y 0.000000 2.215650 0.000000 
#    z 0.000000 0.000000 1.850100 
# 
# From -- ./inp_files/23709.got.cif
#   From: 2010.05.17/outbox.cif.g08.bks.cpg/sg60_12_cif.got.tgz:23709.got - 2010.06.03 14:59:27.
