data_PCOD9457774
_publ_section_title
;
Structure prediction by ZEFSAII (Michael W. Deem and Ramdas Pophale) SiO2 
 PCOD9457774
Probable space group: P B C N
;
_chemical_formula_sum "Si O2"
_cell_formula_units_Z 60
_cell_length_a 11.206325
_cell_length_b 9.101651
_cell_length_c 24.951747
_cell_angle_alpha 90.000000
_cell_angle_beta 90.000000
_cell_angle_gamma 90.000000
_cell_volume 2544.979863
_symmetry_space_group_name_H-M "P B C N"
_symmetry_group_IT_number 60
_symmetry_cell_setting 'orthorhombic'
loop_
_space_group_symop_operation_xyz
x,y,z
1/2-x,1/2-y,1/2+z
1/2+x,1/2-y,-z
-x,y,1/2-z
-x,-y,-z
1/2+x,1/2+y,1/2-z
1/2-x,1/2+y,z
x,-y,1/2+z
loop_
_atom_site_type_symbol
_atom_site_label
_atom_site_fract_x
_atom_site_fract_y
_atom_site_fract_z
Si Si1 0.631329 0.976078 0.631757
Si Si2 0.136169 0.527595 0.988903
Si Si3 0.010521 0.938167 0.586643
Si Si4 0.500000 0.550606 0.750000
Si Si5 0.842453 0.857350 0.157518
Si Si6 0.908333 0.505929 0.299953
Si Si7 0.644566 0.336556 0.486573
Si Si8 0.835761 0.826773 0.816430
O O1 0.651846 0.050263 0.574434
O O2 0.714978 0.071376 0.670880
O O3 0.495312 0.985679 0.648821
O O4 0.666886 0.804287 0.632415
O O5 0.226252 0.399796 0.001793
O O6 0.165570 0.667658 0.024313
O O7 0.000000 0.500000 0.000000
O O8 0.907511 0.021325 0.620252
O O9 0.085442 0.069530 0.559930
O O10 0.944253 0.853265 0.538076
O O11 0.099094 0.847873 0.625410
O O12 0.573756 0.649264 0.709036
O O13 0.409752 0.441466 0.719891
O O14 0.801109 0.621444 0.309223
O O15 0.854279 0.341126 0.298584
O O16 0.000000 0.527818 0.250000
#
# Coordination Sequence:
#
# PCOD9457774 Si02
#       8
#     8   8   8   4   8   8   8   8
#     4  12  27  45  74 104 145 189 243 296 364 436
#     4  12  27  44  72 107 148 193 247 300 365 434
#     4  10  24  45  75 101 148 193 241 301 363 431
#     4  10  24  44  74  92 138 182 228 296 358 420
#     4  11  25  45  72 104 140 186 244 296 363 435
#     4  12  29  47  73 105 143 184 241 296 365 432
#     4  11  25  45  71 105 149 192 245 299 365 431
#     4  11  26  48  71 104 141 185 237 295 361 426
#
# _framework density 23.575824999999998
#
# number of rings (size 3 to 8) (size 9 to 14) (size 15 to 20)
#    0.000    0.800    2.000    3.200   14.000    3.200 
#    0.000    0.000    0.000    0.000    0.000    0.000 
#    0.000    0.000    0.000    0.000    0.000    0.000 
#
# Total GULP energy -335989.527517 kJ/mol
# GULP energy per Si atom -5599.825459 kJ/mol
# Density = 2.352217 g / cm^3
# Si number density = 23.575825 Si / 1000 Ang^3
#
#
#
# Elastic Constant Matrix: (Units=GPa)
#
#
# Indices 1 2 3 4 5 6 
#
# 1 163.8731 29.4235 11.4640 0.0000 0.0000 0.0000
# 2 29.4235 95.8875 -17.0841 0.0000 0.0000 0.0000
# 3 11.4640 -17.0841 39.4604 0.0000 0.0000 0.0000
# 4 0.0000 0.0000 0.0000 19.9578 0.0000 0.0000
# 5 0.0000 0.0000 0.0000 0.0000 32.8224 0.0000
# 6 0.0000 0.0000 0.0000 0.0000 0.0000 34.6779
#
#
#
# Elastic Compliance Matrix: (Units=1/GPa)
#
#
# Indices 1 2 3 4 5 6 
#
# 1 0.006794 -0.002640 -0.003117 0.000000 0.000000 0.000000
# 2 -0.002640 0.012327 0.006104 0.000000 0.000000 0.000000
# 3 -0.003117 0.006104 0.028890 0.000000 0.000000 0.000000
# 4 0.000000 0.000000 0.000000 0.050106 0.000000 0.000000
# 5 0.000000 0.000000 0.000000 0.000000 0.030467 0.000000
# 6 0.000000 0.000000 0.000000 0.000000 0.000000 0.028837
#
#
# Mechanical properties :
#
#
# Convention : Reuss Voigt Hill
#
# Bulk Modulus (GPa) = 20.53223 38.53644 29.53434
# Shear Modulus (GPa) = 28.90807 35.85278 32.38043
#
# Velocity S-wave (km/s) = 3.50548 3.90390 3.71004
# Velocity P-wave (km/s) = 5.01123 6.05820 5.55942
#
# Compressibility (1/GPa) = 0.04870391
#
# Stress axis : x y z
#
# Youngs Moduli (GPa) = 147.18021 81.12579 34.61410
#
# Poissons Ratio (x) = 0.21419 0.10789
# Poissons Ratio (y) = 0.38859 -0.21127
# Poissons Ratio (z) = 0.45876 -0.49517
#
# Static dielectric constant tensor:
#      x y z
#    x 1.873910 0.000000 0.000000 
#    y 0.000000 1.829680 0.000000 
#    z 0.000000 0.000000 2.064290 
# 
# From -- ./inp_files/25330.got.cif
#   From: 2010.05.17/outbox.cif.g08.bks.cpg/sg60_13_cif.got.tgz:25330.got - 2010.06.03 14:59:27.
