data_PCOD9457890
_publ_section_title
;
Structure prediction by ZEFSAII (Michael W. Deem and Ramdas Pophale) SiO2 
 PCOD9457890
Probable space group: P B C N
;
_chemical_formula_sum "Si O2"
_cell_formula_units_Z 32
_cell_length_a 5.049267
_cell_length_b 9.426684
_cell_length_c 27.172619
_cell_angle_alpha 90.000000
_cell_angle_beta 90.000000
_cell_angle_gamma 90.000000
_cell_volume 1293.358092
_symmetry_space_group_name_H-M "P B C N"
_symmetry_group_IT_number 60
_symmetry_cell_setting 'orthorhombic'
loop_
_space_group_symop_operation_xyz
x,y,z
1/2-x,1/2-y,1/2+z
1/2+x,1/2-y,-z
-x,y,1/2-z
-x,-y,-z
1/2+x,1/2+y,1/2-z
1/2-x,1/2+y,z
x,-y,1/2+z
loop_
_atom_site_type_symbol
_atom_site_label
_atom_site_fract_x
_atom_site_fract_y
_atom_site_fract_z
Si Si1 0.023152 0.352055 0.194732
Si Si2 0.435853 0.837428 0.484214
Si Si3 0.202397 0.399452 0.642090
Si Si4 0.794039 0.956010 0.112832
O O1 0.164638 0.504518 0.191192
O O2 0.000000 0.301466 0.250000
O O3 0.749188 0.379599 0.165670
O O4 0.184826 0.247704 0.159526
O O5 0.706481 0.745512 0.485245
O O6 0.304192 0.857625 0.430747
O O7 0.500000 0.000000 0.500000
O O8 0.417445 0.479733 0.608587
O O9 0.920326 0.415603 0.616272
#
# Coordination Sequence:
#
# PCOD9457890 Si02
#       4
#     8   8   8   8
#     4  10  26  43  71  97 140 179 237 280 350 418
#     4  12  28  46  77 108 147 191 250 303 371 439
#     4  10  25  42  68  98 137 181 225 284 349 410
#     4  10  26  44  71  98 145 177 237 285 360 410
#
# _framework density 24.741796000000001
#
# number of rings (size 3 to 8) (size 9 to 14) (size 15 to 20)
#    1.500    0.000    0.000    2.250   14.000    0.000 
#    0.000    0.000    0.000    0.000    0.000    0.000 
#    0.000    0.000    0.000    0.000    0.000    0.000 
#
# Total GULP energy -178810.400135 kJ/mol
# GULP energy per Si atom -5587.825004 kJ/mol
# Density = 2.468548 g / cm^3
# Si number density = 24.741796 Si / 1000 Ang^3
#
#
#
# Elastic Constant Matrix: (Units=GPa)
#
#
# Indices 1 2 3 4 5 6 
#
# 1 126.2675 39.3767 9.8893 0.0000 0.0000 0.0000
# 2 39.3767 122.0668 23.2394 0.0000 0.0000 0.0000
# 3 9.8893 23.2394 100.8968 0.0000 0.0000 0.0000
# 4 0.0000 0.0000 0.0000 29.3852 0.0000 0.0000
# 5 0.0000 0.0000 0.0000 0.0000 21.1895 0.0000
# 6 0.0000 0.0000 0.0000 0.0000 0.0000 41.7314
#
#
#
# Elastic Compliance Matrix: (Units=1/GPa)
#
#
# Indices 1 2 3 4 5 6 
#
# 1 0.008810 -0.002800 -0.000219 0.000000 0.000000 0.000000
# 2 -0.002800 0.009458 -0.001904 0.000000 0.000000 0.000000
# 3 -0.000219 -0.001904 0.010371 0.000000 0.000000 0.000000
# 4 0.000000 0.000000 0.000000 0.034031 0.000000 0.000000
# 5 0.000000 0.000000 0.000000 0.000000 0.047193 0.000000
# 6 0.000000 0.000000 0.000000 0.000000 0.000000 0.023963
#
#
# Mechanical properties :
#
#
# Convention : Reuss Voigt Hill
#
# Bulk Modulus (GPa) = 53.20991 54.91579 54.06285
# Shear Modulus (GPa) = 33.34748 36.90959 35.12853
#
# Velocity S-wave (km/s) = 3.67525 3.86656 3.77212
# Velocity P-wave (km/s) = 6.28989 6.49442 6.39297
#
# Compressibility (1/GPa) = 0.01879349
#
# Stress axis : x y z
#
# Youngs Moduli (GPa) = 113.50587 105.72961 96.42201
#
# Poissons Ratio (x) = 0.29609 0.02107
# Poissons Ratio (y) = 0.31786 0.18359
# Poissons Ratio (z) = 0.02480 0.20131
#
# Static dielectric constant tensor:
#      x y z
#    x 1.945080 0.000000 0.000000 
#    y 0.000000 1.994190 0.000000 
#    z 0.000000 0.000000 1.967300 
# 
# From -- ./inp_files/24709.got.cif
#   From: 2010.05.17/outbox.cif.g08.bks.cpg/sg60_13_cif.got.tgz:24709.got - 2010.06.03 14:59:27.
