data_PCOD9457554
_publ_section_title
;
Structure prediction by ZEFSAII (Michael W. Deem and Ramdas Pophale) SiO2 
 PCOD9457554
Probable space group: P B C N
;
_chemical_formula_sum "Si O2"
_cell_formula_units_Z 24
_cell_length_a 9.951720
_cell_length_b 7.627576
_cell_length_c 12.509407
_cell_angle_alpha 90.000000
_cell_angle_beta 90.000000
_cell_angle_gamma 90.000000
_cell_volume 949.557820
_symmetry_space_group_name_H-M "P B C N"
_symmetry_group_IT_number 60
_symmetry_cell_setting 'orthorhombic'
loop_
_space_group_symop_operation_xyz
x,y,z
1/2-x,1/2-y,1/2+z
1/2+x,1/2-y,-z
-x,y,1/2-z
-x,-y,-z
1/2+x,1/2+y,1/2-z
1/2-x,1/2+y,z
x,-y,1/2+z
loop_
_atom_site_type_symbol
_atom_site_label
_atom_site_fract_x
_atom_site_fract_y
_atom_site_fract_z
Si Si1 0.945313 0.426169 0.131123
Si Si2 0.037992 0.785104 0.124736
Si Si3 0.830816 0.062680 0.048431
O O1 0.911018 0.229541 0.095120
O O2 0.804972 0.529562 0.112562
O O3 0.000000 0.597197 0.750000
O O4 0.953583 0.418924 0.909247
O O5 0.000000 0.795807 0.250000
O O6 0.168830 0.885487 0.077957
O O7 0.916869 0.888025 0.066861
#
# Coordination Sequence:
#
# PCOD9457554 Si02
#       3
#     8   8   8
#     4  11  23  44  71 108 144 190 242 295 372 428
#     4  10  23  45  68 100 139 193 239 291 369 418
#     4  11  22  45  70 100 149 184 243 301 350 439
#
# _framework density 25.274920000000002
#
# number of rings (size 3 to 8) (size 9 to 14) (size 15 to 20)
#    0.000    1.333    3.333    2.000    0.000    0.000 
#   18.000    0.000    0.000    0.000    0.000    0.000 
#    0.000    0.000    0.000    0.000    0.000    0.000 
#
# Total GULP energy -133767.849563 kJ/mol
# GULP energy per Si atom -5573.660398 kJ/mol
# Density = 2.521739 g / cm^3
# Si number density = 25.274920 Si / 1000 Ang^3
#
#
#
# Elastic Constant Matrix: (Units=GPa)
#
#
# Indices 1 2 3 4 5 6 
#
# 1 105.5505 36.5359 49.5654 0.0000 0.0000 0.0000
# 2 36.5359 182.2773 54.6913 0.0000 0.0000 0.0000
# 3 49.5654 54.6913 137.1725 0.0000 0.0000 0.0000
# 4 0.0000 0.0000 0.0000 32.6315 0.0000 0.0000
# 5 0.0000 0.0000 0.0000 0.0000 43.5881 0.0000
# 6 0.0000 0.0000 0.0000 0.0000 0.0000 29.6375
#
#
#
# Elastic Compliance Matrix: (Units=1/GPa)
#
#
# Indices 1 2 3 4 5 6 
#
# 1 0.011643 -0.001217 -0.003722 0.000000 0.000000 0.000000
# 2 -0.001217 0.006359 -0.002096 0.000000 0.000000 0.000000
# 3 -0.003722 -0.002096 0.009470 0.000000 0.000000 0.000000
# 4 0.000000 0.000000 0.000000 0.030645 0.000000 0.000000
# 5 0.000000 0.000000 0.000000 0.000000 0.022942 0.000000
# 6 0.000000 0.000000 0.000000 0.000000 0.000000 0.033741
#
#
# Mechanical properties :
#
#
# Convention : Reuss Voigt Hill
#
# Bulk Modulus (GPa) = 74.60706 78.50952 76.55829
# Shear Modulus (GPa) = 37.49883 40.11860 38.80872
#
# Velocity S-wave (km/s) = 3.85598 3.98840 3.92275
# Velocity P-wave (km/s) = 7.02902 7.23460 7.13255
#
# Compressibility (1/GPa) = 0.01340356
#
# Stress axis : x y z
#
# Youngs Moduli (GPa) = 85.88730 157.26120 105.59178
#
# Poissons Ratio (x) = 0.19139 0.39300
# Poissons Ratio (y) = 0.10453 0.22127
# Poissons Ratio (z) = 0.31966 0.32955
#
# Static dielectric constant tensor:
#      x y z
#    x 2.117570 0.000000 0.000000 
#    y 0.000000 1.969250 0.000000 
#    z 0.000000 0.000000 2.254940 
# 
# From -- ./inp_files/10468.got.cif
#   From: 2010.05.17/outbox.cif.g08.bks.cpg/sg60_6_cif.got.tgz:10468.got - 2010.06.03 14:59:27.
