data_PCOD9457915
_publ_section_title
;
Structure prediction by ZEFSAII (Michael W. Deem and Ramdas Pophale) SiO2 
 PCOD9457915
Probable space group: P B C N
;
_chemical_formula_sum "Si O2"
_cell_formula_units_Z 36
_cell_length_a 5.044985
_cell_length_b 24.699343
_cell_length_c 10.519398
_cell_angle_alpha 90.000000
_cell_angle_beta 90.000000
_cell_angle_gamma 90.000000
_cell_volume 1310.799199
_symmetry_space_group_name_H-M "P B C N"
_symmetry_group_IT_number 60
_symmetry_cell_setting 'orthorhombic'
loop_
_space_group_symop_operation_xyz
x,y,z
1/2-x,1/2-y,1/2+z
1/2+x,1/2-y,-z
-x,y,1/2-z
-x,-y,-z
1/2+x,1/2+y,1/2-z
1/2-x,1/2+y,z
x,-y,1/2+z
loop_
_atom_site_type_symbol
_atom_site_label
_atom_site_fract_x
_atom_site_fract_y
_atom_site_fract_z
Si Si1 0.315792 0.116013 0.866324
Si Si2 0.000000 0.198979 0.750000
Si Si3 0.247543 0.997201 0.909368
Si Si4 0.341426 0.877123 0.873677
Si Si5 0.373079 0.732495 0.418041
O O1 0.500000 0.135422 0.750000
O O2 0.054859 0.153379 0.860133
O O3 0.251914 0.053481 0.834894
O O4 0.471895 0.120681 0.999663
O O5 0.765623 0.238965 0.703561
O O6 0.246628 0.938464 0.846475
O O7 0.500000 0.000000 0.000000
O O8 0.000000 0.000000 0.000000
O O9 0.500000 0.859828 0.750000
O O10 0.121650 0.831228 0.891310
O O11 0.646703 0.756608 0.472252
#
# Coordination Sequence:
#
# PCOD9457915 Si02
#       5
#     8   4   8   8   8
#     4  11  25  47  76 106 149 200 254 315 381 466
#     4  12  26  44  78 110 152 204 264 308 392 472
#     4  10  25  46  75 109 147 196 251 314 381 450
#     4  11  24  50  75 111 154 199 254 318 383 454
#     4  12  27  47  74 111 155 203 256 315 384 458
#
# _framework density 27.46416
#
# number of rings (size 3 to 8) (size 9 to 14) (size 15 to 20)
#    0.000    0.889    3.333    2.000    9.333    0.000 
#    0.000    4.444    0.000    0.000    0.000    0.000 
#    0.000    0.000    0.000    0.000    0.000    0.000 
#
# Total GULP energy -201456.350116 kJ/mol
# GULP energy per Si atom -5596.009725 kJ/mol
# Density = 2.740165 g / cm^3
# Si number density = 27.464160 Si / 1000 Ang^3
#
#
#
# Elastic Constant Matrix: (Units=GPa)
#
#
# Indices 1 2 3 4 5 6 
#
# 1 122.5376 -10.9693 45.9612 0.0000 0.0000 0.0000
# 2 -10.9693 224.6760 0.2961 0.0000 0.0000 0.0000
# 3 45.9612 0.2961 168.8647 0.0000 0.0000 0.0000
# 4 0.0000 0.0000 0.0000 37.0101 0.0000 0.0000
# 5 0.0000 0.0000 0.0000 0.0000 71.4215 0.0000
# 6 0.0000 0.0000 0.0000 0.0000 0.0000 2.1866
#
#
#
# Elastic Compliance Matrix: (Units=1/GPa)
#
#
# Indices 1 2 3 4 5 6 
#
# 1 0.009134 0.000449 -0.002487 0.000000 0.000000 0.000000
# 2 0.000449 0.004473 -0.000130 0.000000 0.000000 0.000000
# 3 -0.002487 -0.000130 0.006599 0.000000 0.000000 0.000000
# 4 0.000000 0.000000 0.000000 0.027020 0.000000 0.000000
# 5 0.000000 0.000000 0.000000 0.000000 0.014001 0.000000
# 6 0.000000 0.000000 0.000000 0.000000 0.000000 0.457322
#
#
# Mechanical properties :
#
#
# Convention : Reuss Voigt Hill
#
# Bulk Modulus (GPa) = 63.01085 65.18383 64.09734
# Shear Modulus (GPa) = 9.46657 54.17633 31.82145
#
# Velocity S-wave (km/s) = 1.85859 4.44624 3.40759
# Velocity P-wave (km/s) = 5.25343 7.08127 6.23470
#
# Compressibility (1/GPa) = 0.01587028
#
# Stress axis : x y z
#
# Youngs Moduli (GPa) = 109.48449 223.56581 151.53864
#
# Poissons Ratio (x) = -0.10043 0.37684
# Poissons Ratio (y) = -0.04918 0.01972
# Poissons Ratio (z) = 0.27226 0.02909
#
# Static dielectric constant tensor:
#      x y z
#    x 2.194640 0.000000 0.000000 
#    y 0.000000 2.224840 0.000000 
#    z 0.000000 0.000000 2.259230 
# 
# From -- ./inp_files/9005.got.cif
#   From: 2010.05.17/outbox.cif.g08.bks.cpg/sg60_5_cif.got.tgz:9005.got - 2010.06.03 14:59:27.
