data_PCOD9457610
_publ_section_title
;
Structure prediction by ZEFSAII (Michael W. Deem and Ramdas Pophale) SiO2 
 PCOD9457610
Probable space group: P B C N
;
_chemical_formula_sum "Si O2"
_cell_formula_units_Z 48
_cell_length_a 11.237524
_cell_length_b 17.199640
_cell_length_c 12.073998
_cell_angle_alpha 90.000000
_cell_angle_beta 90.000000
_cell_angle_gamma 90.000000
_cell_volume 2333.678842
_symmetry_space_group_name_H-M "P B C N"
_symmetry_group_IT_number 60
_symmetry_cell_setting 'orthorhombic'
loop_
_space_group_symop_operation_xyz
x,y,z
1/2-x,1/2-y,1/2+z
1/2+x,1/2-y,-z
-x,y,1/2-z
-x,-y,-z
1/2+x,1/2+y,1/2-z
1/2-x,1/2+y,z
x,-y,1/2+z
loop_
_atom_site_type_symbol
_atom_site_label
_atom_site_fract_x
_atom_site_fract_y
_atom_site_fract_z
Si Si1 0.308374 0.635726 0.557209
Si Si2 0.500000 0.199586 0.250000
Si Si3 0.574125 0.661839 0.590354
Si Si4 0.000000 0.650791 0.750000
Si Si5 0.842702 0.229396 0.366015
Si Si6 0.739082 0.061243 0.731522
Si Si7 0.738785 0.879969 0.693655
O O1 0.449216 0.622920 0.557400
O O2 0.272942 0.715871 0.619661
O O3 0.253480 0.570238 0.636087
O O4 0.252952 0.640381 0.435674
O O5 0.463982 0.258649 0.348474
O O6 0.385575 0.143792 0.249125
O O7 0.640840 0.682137 0.477709
O O8 0.657985 0.611446 0.670802
O O9 0.052671 0.708353 0.656414
O O10 0.109926 0.598984 0.793235
O O11 0.832206 0.171718 0.262677
O O12 0.752897 0.972071 0.700754
#
# Coordination Sequence:
#
# PCOD9457610 Si02
#       7
#     8   4   8   4   8   8   8
#     4  11  24  45  69 101 136 187 236 280 349 427
#     4  12  21  44  73 100 132 186 240 282 339 430
#     4  12  23  45  74  97 139 189 230 293 353 416
#     4  10  23  48  65 102 140 178 238 292 347 412
#     4  11  24  42  74 101 130 179 242 287 335 420
#     4  11  26  45  68 102 149 181 224 299 365 415
#     4  12  26  45  70 108 139 182 239 288 361 422
#
# _framework density 20.568382
#
# number of rings (size 3 to 8) (size 9 to 14) (size 15 to 20)
#    0.000    0.667    5.000    2.500    4.667    0.667 
#    6.000    2.500    0.000    0.000    0.000    0.000 
#    0.000    0.000    0.000    0.000    0.000    0.000 
#
# Total GULP energy -268057.098057 kJ/mol
# GULP energy per Si atom -5584.522876 kJ/mol
# Density = 2.052157 g / cm^3
# Si number density = 20.568382 Si / 1000 Ang^3
#
#
#
# Elastic Constant Matrix: (Units=GPa)
#
#
# Indices 1 2 3 4 5 6 
#
# 1 109.8243 39.5677 5.8481 0.0000 0.0000 0.0000
# 2 39.5677 110.2219 40.4864 0.0000 0.0000 0.0000
# 3 5.8481 40.4864 103.3030 0.0000 0.0000 0.0000
# 4 0.0000 0.0000 0.0000 20.3963 0.0000 0.0000
# 5 0.0000 0.0000 0.0000 0.0000 26.4653 0.0000
# 6 0.0000 0.0000 0.0000 0.0000 0.0000 17.6276
#
#
#
# Elastic Compliance Matrix: (Units=1/GPa)
#
#
# Indices 1 2 3 4 5 6 
#
# 1 0.010552 -0.004169 0.001036 0.000000 0.000000 0.000000
# 2 -0.004169 0.012245 -0.004563 0.000000 0.000000 0.000000
# 3 0.001036 -0.004563 0.011410 0.000000 0.000000 0.000000
# 4 0.000000 0.000000 0.000000 0.049029 0.000000 0.000000
# 5 0.000000 0.000000 0.000000 0.000000 0.037785 0.000000
# 6 0.000000 0.000000 0.000000 0.000000 0.000000 0.056729
#
#
# Mechanical properties :
#
#
# Convention : Reuss Voigt Hill
#
# Bulk Modulus (GPa) = 53.14488 55.01706 54.08097
# Shear Modulus (GPa) = 25.07352 28.72764 26.90058
#
# Velocity S-wave (km/s) = 3.49525 3.74128 3.62036
# Velocity P-wave (km/s) = 6.49487 6.74310 6.62015
#
# Compressibility (1/GPa) = 0.01881649
#
# Stress axis : x y z
#
# Youngs Moduli (GPa) = 94.76712 81.66446 87.64272
#
# Poissons Ratio (x) = 0.34044 -0.09084
# Poissons Ratio (y) = 0.39506 0.39993
# Poissons Ratio (z) = -0.09822 0.37265
#
# Static dielectric constant tensor:
#      x y z
#    x 1.799400 0.000000 0.000000 
#    y 0.000000 1.740370 0.000000 
#    z 0.000000 0.000000 1.705300 
# 
# From -- ./inp_files/11065.got.cif
#   From: 2010.05.17/outbox.cif.g08.bks.cpg/sg60_6_cif.got.tgz:11065.got - 2010.06.03 14:59:27.
