data_PCOD9457377
_publ_section_title
;
Structure prediction by ZEFSAII (Michael W. Deem and Ramdas Pophale) SiO2 
 PCOD9457377
Probable space group: P B C N
;
_chemical_formula_sum "Si O2"
_cell_formula_units_Z 28
_cell_length_a 17.719180
_cell_length_b 16.180601
_cell_length_c 5.051980
_cell_angle_alpha 90.000000
_cell_angle_beta 90.000000
_cell_angle_gamma 90.000000
_cell_volume 1448.437937
_symmetry_space_group_name_H-M "P B C N"
_symmetry_group_IT_number 60
_symmetry_cell_setting 'orthorhombic'
loop_
_space_group_symop_operation_xyz
x,y,z
1/2-x,1/2-y,1/2+z
1/2+x,1/2-y,-z
-x,y,1/2-z
-x,-y,-z
1/2+x,1/2+y,1/2-z
1/2-x,1/2+y,z
x,-y,1/2+z
loop_
_atom_site_type_symbol
_atom_site_label
_atom_site_fract_x
_atom_site_fract_y
_atom_site_fract_z
Si Si1 0.080237 0.177015 0.606789
Si Si2 0.000000 0.938739 0.750000
Si Si3 0.703071 0.441431 0.141171
Si Si4 0.709578 0.212444 0.554033
O O1 0.065095 0.124187 0.341150
O O2 0.134140 0.120259 0.789196
O O3 0.126632 0.258525 0.531204
O O4 0.000000 0.190135 0.750000
O O5 0.000000 0.000000 0.500000
O O6 0.700662 0.510669 0.366619
O O7 0.775722 0.381352 0.140921
O O8 0.762071 0.231340 0.298667
#
# Coordination Sequence:
#
# PCOD9457377 Si02
#       4
#     8   4   8   8
#     4  11  25  39  61  93 130 163 198 252 317 376
#     4  12  24  36  54  92 130 156 188 240 312 378
#     4  11  23  39  62  89 121 162 205 254 299 357
#     4  10  23  42  60  84 122 170 211 240 298 378
#
# _framework density 19.331171000000001
#
# number of rings (size 3 to 8) (size 9 to 14) (size 15 to 20)
#    0.000    1.143    1.429    5.143   12.000    0.000 
#    0.000    0.000    0.000    1.714    0.000    0.000 
#    0.000    0.000    0.000    0.000    0.000    0.000 
#
# Total GULP energy -156386.978116 kJ/mol
# GULP energy per Si atom -5585.249218 kJ/mol
# Density = 1.928717 g / cm^3
# Si number density = 19.331171 Si / 1000 Ang^3
#
#
#
# Elastic Constant Matrix: (Units=GPa)
#
#
# Indices 1 2 3 4 5 6 
#
# 1 109.2454 73.5466 32.1850 0.0000 0.0000 0.0000
# 2 73.5466 81.3025 23.5444 0.0000 0.0000 0.0000
# 3 32.1850 23.5444 122.7373 0.0000 0.0000 0.0000
# 4 0.0000 0.0000 0.0000 19.6242 0.0000 0.0000
# 5 0.0000 0.0000 0.0000 0.0000 30.6566 0.0000
# 6 0.0000 0.0000 0.0000 0.0000 0.0000 37.7728
#
#
#
# Elastic Compliance Matrix: (Units=1/GPa)
#
#
# Indices 1 2 3 4 5 6 
#
# 1 0.023985 -0.021045 -0.002253 0.000000 0.000000 0.000000
# 2 -0.021045 0.031488 -0.000522 0.000000 0.000000 0.000000
# 3 -0.002253 -0.000522 0.008838 0.000000 0.000000 0.000000
# 4 0.000000 0.000000 0.000000 0.050958 0.000000 0.000000
# 5 0.000000 0.000000 0.000000 0.000000 0.032619 0.000000
# 6 0.000000 0.000000 0.000000 0.000000 0.000000 0.026474
#
#
# Mechanical properties :
#
#
# Convention : Reuss Voigt Hill
#
# Bulk Modulus (GPa) = 59.97645 63.53747 61.75696
# Shear Modulus (GPa) = 21.97238 29.87800 25.92519
#
# Velocity S-wave (km/s) = 3.37505 3.93566 3.66609
# Velocity P-wave (km/s) = 6.80302 7.32064 7.06657
#
# Compressibility (1/GPa) = 0.01667321
#
# Stress axis : x y z
#
# Youngs Moduli (GPa) = 41.69246 31.75812 113.14443
#
# Poissons Ratio (x) = 0.66834 0.25487
# Poissons Ratio (y) = 0.87741 0.05904
# Poissons Ratio (z) = 0.09392 0.01657
#
# Static dielectric constant tensor:
#      x y z
#    x 1.737220 0.000000 0.000000 
#    y 0.000000 1.665750 0.000000 
#    z 0.000000 0.000000 1.739620 
# 
# From -- ./inp_files/1534.got.cif
#   From: 2010.05.17/outbox.cif.g08.bks.cpg/sg60_1_cif.got.tgz:1534.got - 2010.06.03 14:59:27.
