data_PCOD9457930
_publ_section_title
;
Structure prediction by ZEFSAII (Michael W. Deem and Ramdas Pophale) SiO2 
 PCOD9457930
Probable space group: P B C N
;
_chemical_formula_sum "Si O2"
_cell_formula_units_Z 40
_cell_length_a 16.835022
_cell_length_b 11.413001
_cell_length_c 8.515774
_cell_angle_alpha 90.000000
_cell_angle_beta 90.000000
_cell_angle_gamma 90.000000
_cell_volume 1636.204832
_symmetry_space_group_name_H-M "P B C N"
_symmetry_group_IT_number 60
_symmetry_cell_setting 'orthorhombic'
loop_
_space_group_symop_operation_xyz
x,y,z
1/2-x,1/2-y,1/2+z
1/2+x,1/2-y,-z
-x,y,1/2-z
-x,-y,-z
1/2+x,1/2+y,1/2-z
1/2-x,1/2+y,z
x,-y,1/2+z
loop_
_atom_site_type_symbol
_atom_site_label
_atom_site_fract_x
_atom_site_fract_y
_atom_site_fract_z
Si Si1 0.809304 0.488270 0.865347
Si Si2 0.303208 0.585768 0.887692
Si Si3 0.449060 0.197105 0.100456
Si Si4 0.086968 0.863571 0.820840
Si Si5 0.886161 0.704089 0.978091
O O1 0.771654 0.564057 0.724804
O O2 0.884931 0.401712 0.852746
O O3 0.832406 0.590931 0.984948
O O4 0.736739 0.419084 0.941360
O O5 0.362866 0.480217 0.849879
O O6 0.352881 0.705352 0.891789
O O7 0.500000 0.238994 0.250000
O O8 0.413630 0.298412 0.989945
O O9 0.523886 0.156331 0.993910
O O10 0.116114 0.771492 0.688944
O O11 0.000000 0.896076 0.750000
#
# Coordination Sequence:
#
# PCOD9457930 Si02
#       5
#     8   8   8   8   8
#     4  12  27  46  76 111 155 193 264 316 399 449
#     4  12  27  46  75 111 157 198 254 330 386 461
#     4  11  26  47  80 110 148 200 254 322 385 470
#     4  10  25  49  73 108 153 201 258 311 386 473
#     4  11  26  47  73 107 152 209 251 317 386 475
#
# _framework density 24.446815000000001
#
# number of rings (size 3 to 8) (size 9 to 14) (size 15 to 20)
#    0.000    0.800    2.000    3.000    8.400    6.400 
#    0.000    0.000    0.000    0.000    0.000    0.000 
#    0.000    0.000    0.000    0.000    0.000    0.000 
#
# Total GULP energy -223330.932353 kJ/mol
# GULP energy per Si atom -5583.273309 kJ/mol
# Density = 2.439117 g / cm^3
# Si number density = 24.446815 Si / 1000 Ang^3
#
#
#
# Elastic Constant Matrix: (Units=GPa)
#
#
# Indices 1 2 3 4 5 6 
#
# 1 136.1422 94.1732 44.4321 0.0000 0.0000 0.0000
# 2 94.1732 119.6010 44.8276 0.0000 0.0000 0.0000
# 3 44.4321 44.8276 93.6276 0.0000 0.0000 0.0000
# 4 0.0000 0.0000 0.0000 -10.4644 0.0000 0.0000
# 5 0.0000 0.0000 0.0000 0.0000 39.2554 0.0000
# 6 0.0000 0.0000 0.0000 0.0000 0.0000 54.2905
#
#
#
# Elastic Compliance Matrix: (Units=1/GPa)
#
#
# Indices 1 2 3 4 5 6 
#
# 1 0.016419 -0.012197 -0.001952 0.000000 0.000000 0.000000
# 2 -0.012197 0.019250 -0.003428 0.000000 0.000000 0.000000
# 3 -0.001952 -0.003428 0.013249 0.000000 0.000000 0.000000
# 4 0.000000 0.000000 0.000000 -0.095562 0.000000 0.000000
# 5 0.000000 0.000000 0.000000 0.000000 0.025474 0.000000
# 6 0.000000 0.000000 0.000000 0.000000 0.000000 0.018419
#
#
# Mechanical properties :
#
#
# Convention : Reuss Voigt Hill
#
# Bulk Modulus (GPa) = 72.66025 79.58183 76.12104
# Shear Modulus (GPa) = 135.16675 27.67883 81.42279
#
# Velocity S-wave (km/s) = 7.44380 3.36848 5.77740
# Velocity P-wave (km/s) = 10.18167 6.91032 8.70112
#
# Compressibility (1/GPa) = 0.01376268
#
# Stress axis : x y z
#
# Youngs Moduli (GPa) = 60.90448 51.94889 75.47967
#
# Poissons Ratio (x) = 0.63360 0.14736
# Poissons Ratio (y) = 0.74283 0.25878
# Poissons Ratio (z) = 0.11891 0.17810
#
# Static dielectric constant tensor:
#      x y z
#    x 1.934540 0.000000 0.000000 
#    y 0.000000 1.888300 0.000000 
#    z 0.000000 0.000000 2.102270 
# 
# From -- ./inp_files/6536.got.cif
#   From: 2010.05.17/outbox.cif.g08.bks.cpg/sg60_4_cif.got.tgz:6536.got - 2010.06.03 14:59:27.
