data_PCOD9457396
_publ_section_title
;
Structure prediction by ZEFSAII (Michael W. Deem and Ramdas Pophale) SiO2 
 PCOD9457396
Probable space group: P B C N
;
_chemical_formula_sum "Si O2"
_cell_formula_units_Z 60
_cell_length_a 28.121103
_cell_length_b 16.833126
_cell_length_c 5.256604
_cell_angle_alpha 90.000000
_cell_angle_beta 90.000000
_cell_angle_gamma 90.000000
_cell_volume 2488.297977
_symmetry_space_group_name_H-M "P B C N"
_symmetry_group_IT_number 60
_symmetry_cell_setting 'orthorhombic'
loop_
_space_group_symop_operation_xyz
x,y,z
1/2-x,1/2-y,1/2+z
1/2+x,1/2-y,-z
-x,y,1/2-z
-x,-y,-z
1/2+x,1/2+y,1/2-z
1/2-x,1/2+y,z
x,-y,1/2+z
loop_
_atom_site_type_symbol
_atom_site_label
_atom_site_fract_x
_atom_site_fract_y
_atom_site_fract_z
Si Si1 0.266850 0.845157 0.639719
Si Si2 0.942896 0.551029 0.941786
Si Si3 0.283694 0.450304 0.304992
Si Si4 0.894863 0.052969 0.645783
Si Si5 0.851677 0.351883 0.531232
Si Si6 0.587648 0.282346 0.331089
Si Si7 0.822866 0.222885 0.122154
Si Si8 0.500000 0.817967 0.750000
O O1 0.255670 0.886266 0.373833
O O2 0.307579 0.885507 0.807123
O O3 0.213958 0.836772 0.751001
O O4 0.290288 0.758425 0.604263
O O5 0.950690 0.483772 0.159538
O O6 0.888475 0.580773 0.950514
O O7 0.973748 0.625486 0.044586
O O8 0.277330 0.513667 0.529907
O O9 0.338654 0.424956 0.333838
O O10 0.920834 0.137808 0.670169
O O11 0.904281 0.004958 0.386373
O O12 0.882132 0.287853 0.696314
O O13 0.833858 0.297629 0.300929
O O14 0.625162 0.308842 0.549309
O O15 0.538535 0.238242 0.389481
#
# Coordination Sequence:
#
# PCOD9457396 Si02
#       8
#     8   8   8   8   8   8   8   4
#     4  11  23  37  61  93 133 180 239 291 348 421
#     4  11  26  48  76 107 150 192 238 309 375 442
#     4  10  24  38  59  89 128 179 227 276 335 419
#     4  10  23  42  67 100 137 179 224 284 362 431
#     4  10  24  41  65  99 138 188 244 292 366 430
#     4  10  24  44  72 100 139 184 242 311 360 447
#     4  11  23  40  64  95 136 185 237 303 357 423
#     4  10  24  52  76 112 138 190 258 302 384 454
#
# _framework density 24.112867000000001
#
# number of rings (size 3 to 8) (size 9 to 14) (size 15 to 20)
#    0.000    1.600    1.333    1.200   16.800    1.067 
#    2.400    0.667    0.000    0.000    0.000    0.000 
#    0.000    0.000    0.000    0.000    0.000    0.000 
#
# Total GULP energy -335461.771799 kJ/mol
# GULP energy per Si atom -5591.029530 kJ/mol
# Density = 2.405799 g / cm^3
# Si number density = 24.112867 Si / 1000 Ang^3
#
#
#
# Elastic Constant Matrix: (Units=GPa)
#
#
# Indices 1 2 3 4 5 6 
#
# 1 123.8497 54.1806 35.4524 0.0000 0.0000 0.0000
# 2 54.1806 71.1909 21.5372 0.0000 0.0000 0.0000
# 3 35.4524 21.5372 80.0548 0.0000 0.0000 0.0000
# 4 0.0000 0.0000 0.0000 26.0169 0.0000 0.0000
# 5 0.0000 0.0000 0.0000 0.0000 18.2813 0.0000
# 6 0.0000 0.0000 0.0000 0.0000 0.0000 46.1668
#
#
#
# Elastic Compliance Matrix: (Units=1/GPa)
#
#
# Indices 1 2 3 4 5 6 
#
# 1 0.012874 -0.008789 -0.003337 0.000000 0.000000 0.000000
# 2 -0.008789 0.021291 -0.001836 0.000000 0.000000 0.000000
# 3 -0.003337 -0.001836 0.014463 0.000000 0.000000 0.000000
# 4 0.000000 0.000000 0.000000 0.038436 0.000000 0.000000
# 5 0.000000 0.000000 0.000000 0.000000 0.054701 0.000000
# 6 0.000000 0.000000 0.000000 0.000000 0.000000 0.021661
#
#
# Mechanical properties :
#
#
# Convention : Reuss Voigt Hill
#
# Bulk Modulus (GPa) = 48.29668 55.27065 51.78366
# Shear Modulus (GPa) = 25.22062 29.02135 27.12099
#
# Velocity S-wave (km/s) = 3.23761 3.47300 3.35737
# Velocity P-wave (km/s) = 5.83516 6.24930 6.04577
#
# Compressibility (1/GPa) = 0.02070536
#
# Stress axis : x y z
#
# Youngs Moduli (GPa) = 77.67439 46.96880 69.14125
#
# Poissons Ratio (x) = 0.41279 0.23072
# Poissons Ratio (y) = 0.68264 0.12693
# Poissons Ratio (z) = 0.25920 0.08623
#
# Static dielectric constant tensor:
#      x y z
#    x 1.925560 0.000000 0.000000 
#    y 0.000000 1.927400 0.000000 
#    z 0.000000 0.000000 2.011710 
# 
# From -- ./inp_files/2609.got.cif
#   From: 2010.05.17/outbox.cif.g08.bks.cpg/sg60_2_cif.got.tgz:2609.got - 2010.06.03 14:59:27.
