data_PCOD9457467
_publ_section_title
;
Structure prediction by ZEFSAII (Michael W. Deem and Ramdas Pophale) SiO2 
 PCOD9457467
Probable space group: P B C N
;
_chemical_formula_sum "Si O2"
_cell_formula_units_Z 56
_cell_length_a 9.128747
_cell_length_b 20.344417
_cell_length_c 13.865437
_cell_angle_alpha 90.000000
_cell_angle_beta 90.000000
_cell_angle_gamma 90.000000
_cell_volume 2575.075589
_symmetry_space_group_name_H-M "P B C N"
_symmetry_group_IT_number 60
_symmetry_cell_setting 'orthorhombic'
loop_
_space_group_symop_operation_xyz
x,y,z
1/2-x,1/2-y,1/2+z
1/2+x,1/2-y,-z
-x,y,1/2-z
-x,-y,-z
1/2+x,1/2+y,1/2-z
1/2-x,1/2+y,z
x,-y,1/2+z
loop_
_atom_site_type_symbol
_atom_site_label
_atom_site_fract_x
_atom_site_fract_y
_atom_site_fract_z
Si Si1 0.000000 0.932209 0.750000
Si Si2 0.000000 0.499153 0.750000
Si Si3 0.495196 0.151697 0.499405
Si Si4 0.927576 0.745709 0.156868
Si Si5 0.825330 0.391012 0.340839
Si Si6 0.794406 0.389820 0.666211
Si Si7 0.960274 0.037505 0.902030
Si Si8 0.739519 0.371265 0.121055
O O1 0.877730 0.894970 0.686796
O O2 0.923502 0.981045 0.825253
O O3 0.066656 0.545706 0.666845
O O4 0.129041 0.450929 0.782375
O O5 0.524108 0.212791 0.427947
O O6 0.407430 0.164982 0.598199
O O7 0.375253 0.109890 0.438192
O O8 0.643627 0.117915 0.535611
O O9 0.844755 0.682237 0.201622
O O10 0.823532 0.798249 0.107626
O O11 0.000000 0.779032 0.250000
O O12 0.673995 0.411860 0.391891
O O13 0.803130 0.373012 0.229291
O O14 0.108513 0.076703 0.877893
O O15 0.000000 0.000000 0.000000
#
# Coordination Sequence:
#
# PCOD9457467 Si02
#       8
#     4   4   8   8   8   8   8   8
#     4  12  22  46  60 106 146 170 234 294 368 434
#     4  12  20  40  72  98 140 190 222 300 354 450
#     4  10  25  45  68 107 131 188 251 283 367 436
#     4  10  24  47  71  97 139 192 238 297 363 430
#     4  12  23  43  69 103 144 181 236 295 370 441
#     4  10  23  43  68  97 143 180 236 290 356 429
#     4  12  26  40  68 105 138 187 230 299 369 431
#     4  12  24  47  72  99 144 187 238 308 360 433
#
# _framework density 21.746934
#
# number of rings (size 3 to 8) (size 9 to 14) (size 15 to 20)
#    0.857    0.000    5.000    1.714    2.000    4.000 
#    2.571    0.000    0.000    0.000    0.000    0.000 
#    0.000    0.000    0.000    0.000    0.000    0.000 
#
# Total GULP energy -311952.689882 kJ/mol
# GULP energy per Si atom -5570.583748 kJ/mol
# Density = 2.169744 g / cm^3
# Si number density = 21.746934 Si / 1000 Ang^3
#
#
#
# Elastic Constant Matrix: (Units=GPa)
#
#
# Indices 1 2 3 4 5 6 
#
# 1 112.7370 8.4841 37.0913 0.0000 0.0000 0.0000
# 2 8.4841 38.0315 18.4304 0.0000 0.0000 0.0000
# 3 37.0913 18.4304 96.1218 0.0000 0.0000 0.0000
# 4 0.0000 0.0000 0.0000 17.0851 0.0000 0.0000
# 5 0.0000 0.0000 0.0000 0.0000 43.0395 0.0000
# 6 0.0000 0.0000 0.0000 0.0000 0.0000 -24.8704
#
#
#
# Elastic Compliance Matrix: (Units=1/GPa)
#
#
# Indices 1 2 3 4 5 6 
#
# 1 0.010166 -0.000404 -0.003845 0.000000 0.000000 0.000000
# 2 -0.000404 0.029004 -0.005405 0.000000 0.000000 0.000000
# 3 -0.003845 -0.005405 0.012924 0.000000 0.000000 0.000000
# 4 0.000000 0.000000 0.000000 0.058531 0.000000 0.000000
# 5 0.000000 0.000000 0.000000 0.000000 0.023234 0.000000
# 6 0.000000 0.000000 0.000000 0.000000 0.000000 -0.040208
#
#
# Mechanical properties :
#
#
# Convention : Reuss Voigt Hill
#
# Bulk Modulus (GPa) = 30.50307 41.65574 36.07940
# Shear Modulus (GPa) = 40.35951 19.24316 29.80133
#
# Velocity S-wave (km/s) = 4.31266 2.97790 3.70587
# Velocity P-wave (km/s) = 6.23342 5.56958 5.91082
#
# Compressibility (1/GPa) = 0.03278359
#
# Stress axis : x y z
#
# Youngs Moduli (GPa) = 98.36971 34.47855 77.37773
#
# Poissons Ratio (x) = 0.01394 0.29753
# Poissons Ratio (y) = 0.03978 0.41823
# Poissons Ratio (z) = 0.37825 0.18636
#
# Static dielectric constant tensor:
#      x y z
#    x 1.925430 0.000000 0.000000 
#    y 0.000000 1.776270 0.000000 
#    z 0.000000 0.000000 1.800060 
# 
# From -- ./inp_files/15317.got.cif
#   From: 2010.05.17/outbox.cif.g08.bks.cpg/sg60_8_cif.got.tgz:15317.got - 2010.06.03 14:59:27.
