data_PCOD9457597
_publ_section_title
;
Structure prediction by ZEFSAII (Michael W. Deem and Ramdas Pophale) SiO2 
 PCOD9457597
Probable space group: P B C N
;
_chemical_formula_sum "Si O2"
_cell_formula_units_Z 48
_cell_length_a 16.872377
_cell_length_b 23.844545
_cell_length_c 5.199412
_cell_angle_alpha 90.000000
_cell_angle_beta 90.000000
_cell_angle_gamma 90.000000
_cell_volume 2091.797033
_symmetry_space_group_name_H-M "P B C N"
_symmetry_group_IT_number 60
_symmetry_cell_setting 'orthorhombic'
loop_
_space_group_symop_operation_xyz
x,y,z
1/2-x,1/2-y,1/2+z
1/2+x,1/2-y,-z
-x,y,1/2-z
-x,-y,-z
1/2+x,1/2+y,1/2-z
1/2-x,1/2+y,z
x,-y,1/2+z
loop_
_atom_site_type_symbol
_atom_site_label
_atom_site_fract_x
_atom_site_fract_y
_atom_site_fract_z
Si Si1 0.500000 0.792937 0.250000
Si Si2 0.306762 0.960331 0.687965
Si Si3 0.090361 0.354436 0.852898
Si Si4 0.433144 0.311938 0.062447
Si Si5 0.798034 0.746567 0.317926
Si Si6 0.860548 0.965773 0.975882
Si Si7 0.500000 0.401941 0.750000
O O1 0.569923 0.832735 0.357444
O O2 0.464098 0.747809 0.452027
O O3 0.368301 0.912219 0.771488
O O4 0.218278 0.934582 0.634698
O O5 0.315788 0.994725 0.420908
O O6 0.150041 0.307392 0.748814
O O7 0.000000 0.354388 0.750000
O O8 0.500000 0.333178 0.250000
O O9 0.353955 0.300507 0.214484
O O10 0.432565 0.359184 0.850689
O O11 0.771335 0.748571 0.612326
O O12 0.946938 0.940185 0.932393
O O13 0.855125 0.019004 0.777453
#
# Coordination Sequence:
#
# PCOD9457597 Si02
#       7
#     4   8   8   8   8   8   4
#     4  11  20  46  68  98 142 186 230 281 354 428
#     4  10  26  48  69 102 138 176 235 301 352 416
#     4  12  26  45  75 100 140 193 232 293 359 421
#     4  11  24  43  65  99 147 178 231 291 336 421
#     4  12  27  45  69 104 143 187 236 286 350 427
#     4  10  23  47  69  97 141 181 232 291 355 426
#     4  11  26  38  72 104 134 192 230 289 348 428
#
# _framework density 22.946778999999999
#
# number of rings (size 3 to 8) (size 9 to 14) (size 15 to 20)
#    0.000    1.000    3.333    1.500    9.333    0.667 
#    3.000    0.000    0.000    0.000    0.000    0.000 
#    0.000    0.000    0.000    0.000    0.000    0.000 
#
# Total GULP energy -267531.868905 kJ/mol
# GULP energy per Si atom -5573.580602 kJ/mol
# Density = 2.289455 g / cm^3
# Si number density = 22.946779 Si / 1000 Ang^3
#
#
#
# Elastic Constant Matrix: (Units=GPa)
#
#
# Indices 1 2 3 4 5 6 
#
# 1 88.4213 44.4509 -13.2288 0.0000 0.0000 0.0000
# 2 44.4509 73.3514 21.4147 0.0000 0.0000 0.0000
# 3 -13.2288 21.4147 59.0868 0.0000 0.0000 0.0000
# 4 0.0000 0.0000 0.0000 20.1492 0.0000 0.0000
# 5 0.0000 0.0000 0.0000 0.0000 43.2838 0.0000
# 6 0.0000 0.0000 0.0000 0.0000 0.0000 94.8507
#
#
#
# Elastic Compliance Matrix: (Units=1/GPa)
#
#
# Indices 1 2 3 4 5 6 
#
# 1 0.020625 -0.015485 0.010230 0.000000 0.000000 0.000000
# 2 -0.015485 0.026872 -0.013206 0.000000 0.000000 0.000000
# 3 0.010230 -0.013206 0.024001 0.000000 0.000000 0.000000
# 4 0.000000 0.000000 0.000000 0.049630 0.000000 0.000000
# 5 0.000000 0.000000 0.000000 0.000000 0.023103 0.000000
# 6 0.000000 0.000000 0.000000 0.000000 0.000000 0.010543
#
#
# Mechanical properties :
#
#
# Convention : Reuss Voigt Hill
#
# Bulk Modulus (GPa) = 28.92268 36.23700 32.57984
# Shear Modulus (GPa) = 24.60369 42.87159 33.73764
#
# Velocity S-wave (km/s) = 3.27801 4.32708 3.83855
# Velocity P-wave (km/s) = 5.19218 6.38677 5.82021
#
# Compressibility (1/GPa) = 0.03457495
#
# Stress axis : x y z
#
# Youngs Moduli (GPa) = 48.48598 37.21295 41.66520
#
# Poissons Ratio (x) = 0.57624 -0.42622
# Poissons Ratio (y) = 0.75080 0.55024
# Poissons Ratio (z) = -0.49600 0.49144
#
# Static dielectric constant tensor:
#      x y z
#    x 1.911950 0.000000 0.000000 
#    y 0.000000 1.829630 0.000000 
#    z 0.000000 0.000000 1.950140 
# 
# From -- ./inp_files/1341.got.cif
#   From: 2010.05.17/outbox.cif.g08.bks.cpg/sg60_1_cif.got.tgz:1341.got - 2010.06.03 14:59:27.
