data_PCOD9457256
_publ_section_title
;
Structure prediction by ZEFSAII (Michael W. Deem and Ramdas Pophale) SiO2 
 PCOD9457256
Probable space group: P B C N
;
_chemical_formula_sum "Si O2"
_cell_formula_units_Z 36
_cell_length_a 18.139845
_cell_length_b 8.980283
_cell_length_c 9.235457
_cell_angle_alpha 90.000000
_cell_angle_beta 90.000000
_cell_angle_gamma 90.000000
_cell_volume 1504.464642
_symmetry_space_group_name_H-M "P B C N"
_symmetry_group_IT_number 60
_symmetry_cell_setting 'orthorhombic'
loop_
_space_group_symop_operation_xyz
x,y,z
1/2-x,1/2-y,1/2+z
1/2+x,1/2-y,-z
-x,y,1/2-z
-x,-y,-z
1/2+x,1/2+y,1/2-z
1/2-x,1/2+y,z
x,-y,1/2+z
loop_
_atom_site_type_symbol
_atom_site_label
_atom_site_fract_x
_atom_site_fract_y
_atom_site_fract_z
Si Si1 0.883237 0.625474 0.755314
Si Si2 0.000000 0.367697 0.750000
Si Si3 0.912929 0.813759 0.472068
Si Si4 0.633281 0.630657 0.459738
Si Si5 0.791117 0.095691 0.766234
O O1 0.930535 0.477413 0.734553
O O2 0.904021 0.731988 0.622646
O O3 0.900028 0.716392 0.902550
O O4 0.796250 0.596902 0.763003
O O5 0.976976 0.260368 0.879831
O O6 0.835131 0.801508 0.381869
O O7 0.920487 0.991314 0.484898
O O8 0.683117 0.566745 0.325715
O O9 0.679015 0.637965 0.607784
#
# Coordination Sequence:
#
# PCOD9457256 Si02
#       5
#     8   4   8   8   8
#     4  12  25  45  73 110 145 190 241 302 364 426
#     4  12  30  44  70 108 156 188 240 304 360 432
#     4  10  24  48  66 106 142 194 235 293 361 431
#     4  10  22  46  75 106 134 192 241 295 354 439
#     4  10  23  41  80 103 143 178 253 293 356 421
#
# _framework density 23.928781000000001
#
# number of rings (size 3 to 8) (size 9 to 14) (size 15 to 20)
#    1.333    0.000    2.222    2.000    6.222    4.444 
#    0.000    3.333    0.000    0.000    0.000    0.000 
#    0.000    0.000    0.000    0.000    0.000    0.000 
#
# Total GULP energy -201292.946185 kJ/mol
# GULP energy per Si atom -5591.470727 kJ/mol
# Density = 2.387432 g / cm^3
# Si number density = 23.928781 Si / 1000 Ang^3
#
#
#
# Elastic Constant Matrix: (Units=GPa)
#
#
# Indices 1 2 3 4 5 6 
#
# 1 140.2743 31.3301 27.5462 0.0000 0.0000 0.0000
# 2 31.3301 81.1412 -4.3784 0.0000 0.0000 0.0000
# 3 27.5462 -4.3784 73.6141 0.0000 0.0000 0.0000
# 4 0.0000 0.0000 0.0000 18.4224 0.0000 0.0000
# 5 0.0000 0.0000 0.0000 0.0000 13.1535 0.0000
# 6 0.0000 0.0000 0.0000 0.0000 0.0000 32.7981
#
#
#
# Elastic Compliance Matrix: (Units=1/GPa)
#
#
# Indices 1 2 3 4 5 6 
#
# 1 0.008582 -0.003498 -0.003419 0.000000 0.000000 0.000000
# 2 -0.003498 0.013790 0.002129 0.000000 0.000000 0.000000
# 3 -0.003419 0.002129 0.014990 0.000000 0.000000 0.000000
# 4 0.000000 0.000000 0.000000 0.054282 0.000000 0.000000
# 5 0.000000 0.000000 0.000000 0.000000 0.076025 0.000000
# 6 0.000000 0.000000 0.000000 0.000000 0.000000 0.030490
#
#
# Mechanical properties :
#
#
# Convention : Reuss Voigt Hill
#
# Bulk Modulus (GPa) = 35.98999 44.89170 40.44084
# Shear Modulus (GPa) = 23.04184 28.91025 25.97605
#
# Velocity S-wave (km/s) = 3.10648 3.47966 3.29835
# Velocity P-wave (km/s) = 5.28584 5.91146 5.60738
#
# Compressibility (1/GPa) = 0.02778550
#
# Stress axis : x y z
#
# Youngs Moduli (GPa) = 116.52808 72.51773 66.70901
#
# Poissons Ratio (x) = 0.25367 0.22810
# Poissons Ratio (y) = 0.40762 -0.14203
# Poissons Ratio (z) = 0.39844 -0.15440
#
# Static dielectric constant tensor:
#      x y z
#    x 1.951700 0.000000 0.000000 
#    y 0.000000 1.955380 0.000000 
#    z 0.000000 0.000000 1.871210 
# 
# From -- ./inp_files/7183.got.cif
#   From: 2010.05.17/outbox.cif.g08.bks.cpg/sg60_4_cif.got.tgz:7183.got - 2010.06.03 14:59:27.
