data_PCOD9457505
_publ_section_title
;
Structure prediction by ZEFSAII (Michael W. Deem and Ramdas Pophale) SiO2 
 PCOD9457505
Probable space group: P B C N
;
_chemical_formula_sum "Si O2"
_cell_formula_units_Z 56
_cell_length_a 8.777054
_cell_length_b 15.417291
_cell_length_c 20.324568
_cell_angle_alpha 90.000000
_cell_angle_beta 90.000000
_cell_angle_gamma 90.000000
_cell_volume 2750.287934
_symmetry_space_group_name_H-M "P B C N"
_symmetry_group_IT_number 60
_symmetry_cell_setting 'orthorhombic'
loop_
_space_group_symop_operation_xyz
x,y,z
1/2-x,1/2-y,1/2+z
1/2+x,1/2-y,-z
-x,y,1/2-z
-x,-y,-z
1/2+x,1/2+y,1/2-z
1/2-x,1/2+y,z
x,-y,1/2+z
loop_
_atom_site_type_symbol
_atom_site_label
_atom_site_fract_x
_atom_site_fract_y
_atom_site_fract_z
Si Si1 0.852361 0.982046 0.065891
Si Si2 0.759073 0.629965 0.681698
Si Si3 0.000000 0.472352 0.250000
Si Si4 0.632824 0.602538 0.435345
Si Si5 0.500000 0.741312 0.750000
Si Si6 0.163490 0.350024 0.969372
Si Si7 0.936777 0.380015 0.853475
Si Si8 0.065420 0.269107 0.430679
O O1 0.793638 0.948337 0.134855
O O2 0.748937 0.057301 0.032921
O O3 0.850166 0.902863 0.014414
O O4 0.019751 0.021619 0.076531
O O5 0.617397 0.683565 0.708983
O O6 0.866151 0.687702 0.634332
O O7 0.855037 0.588689 0.740486
O O8 0.982816 0.534696 0.312867
O O9 0.791201 0.599213 0.397972
O O10 0.544493 0.688626 0.414253
O O11 0.410013 0.804689 0.700047
O O12 0.295324 0.276804 0.970501
O O13 0.071761 0.347617 0.900847
O O14 0.038253 0.334139 0.025969
#
# Coordination Sequence:
#
# PCOD9457505 Si02
#       8
#     8   8   4   8   4   8   8   8
#     4  10  23  44  67  98 134 167 219 271 337 388
#     4  12  25  46  64  99 129 178 221 277 318 395
#     4  11  28  42  66  95 128 180 230 261 328 386
#     4  10  24  42  69 101 128 173 213 272 337 396
#     4  11  28  44  70  91 138 178 226 267 322 392
#     4  11  21  42  68  97 135 170 213 280 330 395
#     4  11  23  46  64  96 131 180 217 272 323 396
#     4  11  24  41  69 100 132 168 220 273 336 392
#
# _framework density 20.361505999999999
#
# number of rings (size 3 to 8) (size 9 to 14) (size 15 to 20)
#    0.000    1.143    2.857    2.571    6.000    1.143 
#    2.571    1.429    0.000    0.000    0.000    0.000 
#    0.000    0.000    0.000    0.000    0.000    0.000 
#
# Total GULP energy -312968.341786 kJ/mol
# GULP energy per Si atom -5588.720389 kJ/mol
# Density = 2.031516 g / cm^3
# Si number density = 20.361506 Si / 1000 Ang^3
#
#
#
# Elastic Constant Matrix: (Units=GPa)
#
#
# Indices 1 2 3 4 5 6 
#
# 1 105.3494 29.4102 27.1104 0.0000 0.0000 0.0000
# 2 29.4102 75.7775 7.0259 0.0000 0.0000 0.0000
# 3 27.1104 7.0259 41.7389 0.0000 0.0000 0.0000
# 4 0.0000 0.0000 0.0000 21.5567 0.0000 0.0000
# 5 0.0000 0.0000 0.0000 0.0000 32.7788 0.0000
# 6 0.0000 0.0000 0.0000 0.0000 0.0000 26.9574
#
#
#
# Elastic Compliance Matrix: (Units=1/GPa)
#
#
# Indices 1 2 3 4 5 6 
#
# 1 0.012584 -0.004192 -0.007468 0.000000 0.000000 0.000000
# 2 -0.004192 0.014802 0.000231 0.000000 0.000000 0.000000
# 3 -0.007468 0.000231 0.028770 0.000000 0.000000 0.000000
# 4 0.000000 0.000000 0.000000 0.046389 0.000000 0.000000
# 5 0.000000 0.000000 0.000000 0.000000 0.030508 0.000000
# 6 0.000000 0.000000 0.000000 0.000000 0.000000 0.037096
#
#
# Mechanical properties :
#
#
# Convention : Reuss Voigt Hill
#
# Bulk Modulus (GPa) = 30.03113 38.88432 34.45773
# Shear Modulus (GPa) = 24.49705 26.87987 25.68846
#
# Velocity S-wave (km/s) = 3.47234 3.63730 3.55578
# Velocity P-wave (km/s) = 5.55493 6.06452 5.81531
#
# Compressibility (1/GPa) = 0.03329878
#
# Stress axis : x y z
#
# Youngs Moduli (GPa) = 79.46440 67.55871 34.75800
#
# Poissons Ratio (x) = 0.28318 0.25958
# Poissons Ratio (y) = 0.33309 -0.00803
# Poissons Ratio (z) = 0.59346 -0.01560
#
# Static dielectric constant tensor:
#      x y z
#    x 1.729600 0.000000 0.000000 
#    y 0.000000 1.727610 0.000000 
#    z 0.000000 0.000000 1.704560 
# 
# From -- ./inp_files/22246.got.cif
#   From: 2010.05.17/outbox.cif.g08.bks.cpg/sg60_12_cif.got.tgz:22246.got - 2010.06.03 14:59:27.
