data_PCOD9457870
_publ_section_title
;
Structure prediction by ZEFSAII (Michael W. Deem and Ramdas Pophale) SiO2 
 PCOD9457870
Probable space group: P B C N
;
_chemical_formula_sum "Si O2"
_cell_formula_units_Z 52
_cell_length_a 20.441039
_cell_length_b 9.540004
_cell_length_c 12.811419
_cell_angle_alpha 90.000000
_cell_angle_beta 90.000000
_cell_angle_gamma 90.000000
_cell_volume 2498.323993
_symmetry_space_group_name_H-M "P B C N"
_symmetry_group_IT_number 60
_symmetry_cell_setting 'orthorhombic'
loop_
_space_group_symop_operation_xyz
x,y,z
1/2-x,1/2-y,1/2+z
1/2+x,1/2-y,-z
-x,y,1/2-z
-x,-y,-z
1/2+x,1/2+y,1/2-z
1/2-x,1/2+y,z
x,-y,1/2+z
loop_
_atom_site_type_symbol
_atom_site_label
_atom_site_fract_x
_atom_site_fract_y
_atom_site_fract_z
Si Si1 0.604700 0.490806 0.114456
Si Si2 0.675034 0.287040 0.238623
Si Si3 0.000000 0.851128 0.750000
Si Si4 0.684685 0.765185 0.137126
Si Si5 0.176412 0.968616 0.590806
Si Si6 0.175924 0.574702 0.072262
Si Si7 0.618983 0.815669 0.337924
O O1 0.618451 0.335487 0.158899
O O2 0.540705 0.554076 0.168570
O O3 0.660308 0.605395 0.146378
O O4 0.617259 0.488862 0.990881
O O5 0.739716 0.276885 0.167715
O O6 0.673754 0.418132 0.318318
O O7 0.672757 0.156247 0.317128
O O8 0.950747 0.754339 0.816487
O O9 0.646051 0.855461 0.223395
O O10 0.665378 0.820029 0.023208
O O11 0.250618 0.982204 0.550238
O O12 0.167769 0.808668 0.627083
O O13 0.126892 0.444553 0.084184
#
# Coordination Sequence:
#
# PCOD9457870 Si02
#       7
#     8   8   4   8   8   8   8
#     4  11  24  42  68  99 133 185 229 272 331 402
#     4  12  21  38  64 100 135 165 221 277 337 414
#     4  10  24  50  66  88 138 192 232 270 324 402
#     4  11  22  36  63  96 140 168 207 286 350 393
#     4  12  21  38  67 100 128 169 222 279 345 404
#     4  12  23  37  66 106 136 164 218 283 358 406
#     4  11  25  43  64  94 137 181 219 280 339 401
#
# _framework density 20.813952
#
# number of rings (size 3 to 8) (size 9 to 14) (size 15 to 20)
#    0.000    0.615    9.231    0.000    0.000    1.846 
#    0.000    3.846    0.000    0.000    0.000    0.000 
#    0.000    0.000    0.000    0.000    0.000    0.000 
#
# Total GULP energy -290049.270563 kJ/mol
# GULP energy per Si atom -5577.870588 kJ/mol
# Density = 2.076658 g / cm^3
# Si number density = 20.813952 Si / 1000 Ang^3
#
#
#
# Elastic Constant Matrix: (Units=GPa)
#
#
# Indices 1 2 3 4 5 6 
#
# 1 92.2047 19.9585 12.8953 0.0000 0.0000 0.0000
# 2 19.9585 65.6253 19.8838 0.0000 0.0000 0.0000
# 3 12.8953 19.8838 64.5045 0.0000 0.0000 0.0000
# 4 0.0000 0.0000 0.0000 25.4829 0.0000 0.0000
# 5 0.0000 0.0000 0.0000 0.0000 21.5931 0.0000
# 6 0.0000 0.0000 0.0000 0.0000 0.0000 24.3880
#
#
#
# Elastic Compliance Matrix: (Units=1/GPa)
#
#
# Indices 1 2 3 4 5 6 
#
# 1 0.011719 -0.003148 -0.001372 0.000000 0.000000 0.000000
# 2 -0.003148 0.017654 -0.004812 0.000000 0.000000 0.000000
# 3 -0.001372 -0.004812 0.017261 0.000000 0.000000 0.000000
# 4 0.000000 0.000000 0.000000 0.039242 0.000000 0.000000
# 5 0.000000 0.000000 0.000000 0.000000 0.046311 0.000000
# 6 0.000000 0.000000 0.000000 0.000000 0.000000 0.041004
#
#
# Mechanical properties :
#
#
# Convention : Reuss Voigt Hill
#
# Bulk Modulus (GPa) = 35.75628 36.42329 36.08979
# Shear Modulus (GPa) = 24.85359 25.59926 25.22643
#
# Velocity S-wave (km/s) = 3.45930 3.51081 3.48515
# Velocity P-wave (km/s) = 5.75951 5.82854 5.79413
#
# Compressibility (1/GPa) = 0.02796711
#
# Stress axis : x y z
#
# Youngs Moduli (GPa) = 85.33282 56.64568 57.93547
#
# Poissons Ratio (x) = 0.17833 0.07950
# Poissons Ratio (y) = 0.26865 0.27881
# Poissons Ratio (z) = 0.11710 0.27260
#
# Static dielectric constant tensor:
#      x y z
#    x 1.733480 0.000000 0.000000 
#    y 0.000000 1.754560 0.000000 
#    z 0.000000 0.000000 1.886680 
# 
# From -- ./inp_files/17664.got.cif
#   From: 2010.05.17/outbox.cif.g08.bks.cpg/sg60_9_cif.got.tgz:17664.got - 2010.06.03 14:59:27.
