data_PCOD9457369
_publ_section_title
;
Structure prediction by ZEFSAII (Michael W. Deem and Ramdas Pophale) SiO2 
 PCOD9457369
Probable space group: P B C N
;
_chemical_formula_sum "Si O2"
_cell_formula_units_Z 48
_cell_length_a 26.884314
_cell_length_b 7.824684
_cell_length_c 9.291462
_cell_angle_alpha 90.000000
_cell_angle_beta 90.000000
_cell_angle_gamma 90.000000
_cell_volume 1954.563668
_symmetry_space_group_name_H-M "P B C N"
_symmetry_group_IT_number 60
_symmetry_cell_setting 'orthorhombic'
loop_
_space_group_symop_operation_xyz
x,y,z
1/2-x,1/2-y,1/2+z
1/2+x,1/2-y,-z
-x,y,1/2-z
-x,-y,-z
1/2+x,1/2+y,1/2-z
1/2-x,1/2+y,z
x,-y,1/2+z
loop_
_atom_site_type_symbol
_atom_site_label
_atom_site_fract_x
_atom_site_fract_y
_atom_site_fract_z
Si Si1 0.443733 0.174859 0.221115
Si Si2 0.552897 0.581335 0.538721
Si Si3 0.404728 0.939901 0.000400
Si Si4 0.789229 0.967940 0.284962
Si Si5 0.652085 0.377683 0.540536
Si Si6 0.181351 0.339593 0.203838
O O1 0.500000 0.116091 0.250000
O O2 0.443460 0.364736 0.290856
O O3 0.406676 0.076295 0.329005
O O4 0.429809 0.109483 0.064285
O O5 0.500000 0.500000 0.500000
O O6 0.562954 0.765724 0.462668
O O7 0.598674 0.457037 0.507408
O O8 0.352820 0.914937 0.079987
O O9 0.816721 0.843423 0.396466
O O10 0.731220 0.941909 0.262307
O O11 0.846621 0.282225 0.149164
O O12 0.818858 0.979696 0.135958
O O13 0.701644 0.655973 0.349387
#
# Coordination Sequence:
#
# PCOD9457369 Si02
#       6
#     8   8   8   8   8   8
#     4  10  23  43  71 100 143 187 244 296 375 437
#     4  10  23  45  75 105 147 193 246 304 383 439
#     4  10  23  46  66 105 144 184 247 302 369 445
#     4  10  23  41  68  97 139 186 238 299 372 431
#     4  10  23  45  68 101 146 181 252 303 362 455
#     4  10  24  41  69 102 143 189 236 308 367 450
#
# _framework density 24.557912000000002
#
# number of rings (size 3 to 8) (size 9 to 14) (size 15 to 20)
#    2.000    0.000    1.667    0.500    2.333    6.667 
#    3.000    0.000    0.000    0.000    0.000    0.000 
#    0.000    0.000    0.000    0.000    0.000    0.000 
#
# Total GULP energy -267838.778268 kJ/mol
# GULP energy per Si atom -5579.974547 kJ/mol
# Density = 2.450202 g / cm^3
# Si number density = 24.557912 Si / 1000 Ang^3
#
#
#
# Elastic Constant Matrix: (Units=GPa)
#
#
# Indices 1 2 3 4 5 6 
#
# 1 134.8149 20.2647 30.5714 0.0000 0.0000 0.0000
# 2 20.2647 77.8302 9.3745 0.0000 0.0000 0.0000
# 3 30.5714 9.3745 103.2446 0.0000 0.0000 0.0000
# 4 0.0000 0.0000 0.0000 2.6152 0.0000 0.0000
# 5 0.0000 0.0000 0.0000 0.0000 32.2099 0.0000
# 6 0.0000 0.0000 0.0000 0.0000 0.0000 25.4410
#
#
#
# Elastic Compliance Matrix: (Units=1/GPa)
#
#
# Indices 1 2 3 4 5 6 
#
# 1 0.008211 -0.001865 -0.002262 0.000000 0.000000 0.000000
# 2 -0.001865 0.013414 -0.000666 0.000000 0.000000 0.000000
# 3 -0.002262 -0.000666 0.010416 0.000000 0.000000 0.000000
# 4 0.000000 0.000000 0.000000 0.382380 0.000000 0.000000
# 5 0.000000 0.000000 0.000000 0.000000 0.031046 0.000000
# 6 0.000000 0.000000 0.000000 0.000000 0.000000 0.039307
#
#
# Mechanical properties :
#
#
# Convention : Reuss Voigt Hill
#
# Bulk Modulus (GPa) = 44.53307 48.47897 46.50602
# Shear Modulus (GPa) = 9.96322 29.09848 19.53085
#
# Velocity S-wave (km/s) = 2.01639 3.44596 2.82316
# Velocity P-wave (km/s) = 4.85741 5.96795 5.44108
#
# Compressibility (1/GPa) = 0.02245522
#
# Stress axis : x y z
#
# Youngs Moduli (GPa) = 121.78925 74.54692 96.00662
#
# Poissons Ratio (x) = 0.13906 0.21716
# Poissons Ratio (y) = 0.22719 0.06391
# Poissons Ratio (z) = 0.27548 0.04962
#
# Static dielectric constant tensor:
#      x y z
#    x 1.939310 0.000000 0.000000 
#    y 0.000000 2.051430 0.000000 
#    z 0.000000 0.000000 1.995240 
# 
# From -- ./inp_files/13065.got.cif
#   From: 2010.05.17/outbox.cif.g08.bks.cpg/sg60_7_cif.got.tgz:13065.got - 2010.06.03 14:59:27.
