data_PCOD9457094
_publ_section_title
;
Structure prediction by ZEFSAII (Michael W. Deem and Ramdas Pophale) SiO2 
 PCOD9457094
Probable space group: P B C N
;
_chemical_formula_sum "Si O2"
_cell_formula_units_Z 48
_cell_length_a 5.881046
_cell_length_b 14.340432
_cell_length_c 26.870205
_cell_angle_alpha 90.000000
_cell_angle_beta 90.000000
_cell_angle_gamma 90.000000
_cell_volume 2266.145500
_symmetry_space_group_name_H-M "P B C N"
_symmetry_group_IT_number 60
_symmetry_cell_setting 'orthorhombic'
loop_
_space_group_symop_operation_xyz
x,y,z
1/2-x,1/2-y,1/2+z
1/2+x,1/2-y,-z
-x,y,1/2-z
-x,-y,-z
1/2+x,1/2+y,1/2-z
1/2-x,1/2+y,z
x,-y,1/2+z
loop_
_atom_site_type_symbol
_atom_site_label
_atom_site_fract_x
_atom_site_fract_y
_atom_site_fract_z
Si Si1 0.249073 0.577832 0.724623
Si Si2 0.906015 0.877416 0.801472
Si Si3 0.487829 0.099787 0.026614
Si Si4 0.143651 0.757684 0.547913
Si Si5 0.378480 0.718651 0.644866
Si Si6 0.760562 0.835841 0.618503
O O1 0.500000 0.601338 0.750000
O O2 0.266902 0.467895 0.714616
O O3 0.279475 0.630085 0.672378
O O4 0.000000 0.597933 0.750000
O O5 0.753535 0.804344 0.830132
O O6 0.000000 0.836231 0.750000
O O7 0.107631 0.897982 0.840897
O O8 0.234487 0.142346 0.029422
O O9 0.595349 0.104579 0.082230
O O10 0.606860 0.180599 0.993721
O O11 0.500000 0.000000 0.000000
O O12 0.327984 0.716874 0.586379
O O13 0.927927 0.781764 0.581337
O O14 0.636674 0.752739 0.648795
#
# Coordination Sequence:
#
# PCOD9457094 Si02
#       6
#     8   8   8   8   8   8
#     4  11  27  44  70 106 142 188 240 296 361 436
#     4  10  24  43  67  97 140 177 229 295 351 432
#     4  11  23  42  70  95 134 183 231 301 370 440
#     4  10  22  43  62  97 136 169 237 296 353 440
#     4  10  24  40  71  95 135 182 233 289 362 432
#     4  10  23  42  66  99 134 185 227 290 364 429
#
# _framework density 21.181339999999999
#
# number of rings (size 3 to 8) (size 9 to 14) (size 15 to 20)
#    0.000    1.667    1.667    0.500   11.667    6.000 
#    0.000    0.000    0.000    0.000    0.000    0.000 
#    0.000    0.000    0.000    0.000    0.000    0.000 
#
# Total GULP energy -267472.983680 kJ/mol
# GULP energy per Si atom -5572.353827 kJ/mol
# Density = 2.113313 g / cm^3
# Si number density = 21.181340 Si / 1000 Ang^3
#
#
#
# Elastic Constant Matrix: (Units=GPa)
#
#
# Indices 1 2 3 4 5 6 
#
# 1 87.9545 28.8421 35.6389 0.0000 0.0000 0.0000
# 2 28.8421 39.7034 26.1051 0.0000 0.0000 0.0000
# 3 35.6389 26.1051 102.4350 0.0000 0.0000 0.0000
# 4 0.0000 0.0000 0.0000 51.5095 0.0000 0.0000
# 5 0.0000 0.0000 0.0000 0.0000 -91.8832 0.0000
# 6 0.0000 0.0000 0.0000 0.0000 0.0000 21.0325
#
#
#
# Elastic Compliance Matrix: (Units=1/GPa)
#
#
# Indices 1 2 3 4 5 6 
#
# 1 0.015688 -0.009379 -0.003068 0.000000 0.000000 0.000000
# 2 -0.009379 0.035864 -0.005877 0.000000 0.000000 0.000000
# 3 -0.003068 -0.005877 0.012327 0.000000 0.000000 0.000000
# 4 0.000000 0.000000 0.000000 0.019414 0.000000 0.000000
# 5 0.000000 0.000000 0.000000 0.000000 -0.010883 0.000000
# 6 0.000000 0.000000 0.000000 0.000000 0.000000 0.047545
#
#
# Mechanical properties :
#
#
# Convention : Reuss Voigt Hill
#
# Bulk Modulus (GPa) = 36.72157 45.69612 41.20884
# Shear Modulus (GPa) = 30.17847 5.43221 17.80534
#
# Velocity S-wave (km/s) = 3.77870 1.60318 2.90248
# Velocity P-wave (km/s) = 6.03428 5.00475 5.54347
#
# Compressibility (1/GPa) = 0.02723195
#
# Stress axis : x y z
#
# Youngs Moduli (GPa) = 63.74160 27.88296 81.12078
#
# Poissons Ratio (x) = 0.26153 0.24887
# Poissons Ratio (y) = 0.59786 0.47671
# Poissons Ratio (z) = 0.19556 0.16386
#
# Static dielectric constant tensor:
#      x y z
#    x 1.923940 0.000000 0.000000 
#    y 0.000000 1.715580 0.000000 
#    z 0.000000 0.000000 1.814170 
# 
# From -- ./inp_files/24874.got.cif
#   From: 2010.05.17/outbox.cif.g08.bks.cpg/sg60_13_cif.got.tgz:24874.got - 2010.06.03 14:59:27.
