data_PCOD9457507
_publ_section_title
;
Structure prediction by ZEFSAII (Michael W. Deem and Ramdas Pophale) SiO2 
 PCOD9457507
Probable space group: P B C N
;
_chemical_formula_sum "Si O2"
_cell_formula_units_Z 28
_cell_length_a 11.158824
_cell_length_b 11.209969
_cell_length_c 11.337266
_cell_angle_alpha 90.000000
_cell_angle_beta 90.000000
_cell_angle_gamma 90.000000
_cell_volume 1418.179410
_symmetry_space_group_name_H-M "P B C N"
_symmetry_group_IT_number 60
_symmetry_cell_setting 'orthorhombic'
loop_
_space_group_symop_operation_xyz
x,y,z
1/2-x,1/2-y,1/2+z
1/2+x,1/2-y,-z
-x,y,1/2-z
-x,-y,-z
1/2+x,1/2+y,1/2-z
1/2-x,1/2+y,z
x,-y,1/2+z
loop_
_atom_site_type_symbol
_atom_site_label
_atom_site_fract_x
_atom_site_fract_y
_atom_site_fract_z
Si Si1 0.525634 0.650186 0.616399
Si Si2 0.344756 0.571808 0.429434
Si Si3 0.920789 0.617488 0.976269
Si Si4 0.500000 0.741977 0.250000
O O1 0.500000 0.670240 0.750000
O O2 0.420208 0.580639 0.550248
O O3 0.641885 0.565914 0.608248
O O4 0.528745 0.774364 0.551944
O O5 0.211142 0.600467 0.469203
O O6 0.410079 0.656169 0.329102
O O7 0.000000 0.500000 0.000000
O O8 0.930546 0.671142 0.842754
#
# Coordination Sequence:
#
# PCOD9457507 Si02
#       4
#     8   8   8   4
#     4  10  23  44  67  99 131 182 229 279 351 411
#     4  10  23  45  72  98 136 183 234 284 348 423
#     4  11  27  43  71 106 140 184 232 291 363 409
#     4  10  24  50  66 110 144 182 236 298 352 422
#
# _framework density 19.743621999999998
#
# number of rings (size 3 to 8) (size 9 to 14) (size 15 to 20)
#    0.000    1.714    1.429    0.000   14.000    0.000 
#    0.000    0.000    0.000    0.000    0.000    0.000 
#    0.000    0.000    0.000    0.000    0.000    0.000 
#
# Total GULP energy -155961.382282 kJ/mol
# GULP energy per Si atom -5570.049367 kJ/mol
# Density = 1.969868 g / cm^3
# Si number density = 19.743622 Si / 1000 Ang^3
#
#
#
# Elastic Constant Matrix: (Units=GPa)
#
#
# Indices 1 2 3 4 5 6 
#
# 1 67.9997 8.8041 24.9233 0.0000 0.0000 0.0000
# 2 8.8041 106.7384 33.0485 0.0000 0.0000 0.0000
# 3 24.9233 33.0485 151.2475 0.0000 0.0000 0.0000
# 4 0.0000 0.0000 0.0000 -143.7117 0.0000 0.0000
# 5 0.0000 0.0000 0.0000 0.0000 22.3108 0.0000
# 6 0.0000 0.0000 0.0000 0.0000 0.0000 47.6831
#
#
#
# Elastic Compliance Matrix: (Units=1/GPa)
#
#
# Indices 1 2 3 4 5 6 
#
# 1 0.015679 -0.000529 -0.002468 0.000000 0.000000 0.000000
# 2 -0.000529 0.010066 -0.002112 0.000000 0.000000 0.000000
# 3 -0.002468 -0.002112 0.007480 0.000000 0.000000 0.000000
# 4 0.000000 0.000000 0.000000 -0.006958 0.000000 0.000000
# 5 0.000000 0.000000 0.000000 0.000000 0.044821 0.000000
# 6 0.000000 0.000000 0.000000 0.000000 0.000000 0.020972
#
#
# Mechanical properties :
#
#
# Convention : Reuss Voigt Hill
#
# Bulk Modulus (GPa) = 43.46632 51.05969 47.26300
# Shear Modulus (GPa) = 45.47607 2.53709 24.00658
#
# Velocity S-wave (km/s) = 4.80451 1.13482 3.49078
# Velocity P-wave (km/s) = 7.26917 5.25686 6.34332
#
# Compressibility (1/GPa) = 0.02300632
#
# Stress axis : x y z
#
# Youngs Moduli (GPa) = 63.77937 99.34058 133.69084
#
# Poissons Ratio (x) = 0.05256 0.32996
# Poissons Ratio (y) = 0.03375 0.28241
# Poissons Ratio (z) = 0.15741 0.20984
#
# Static dielectric constant tensor:
#      x y z
#    x 1.647120 0.000000 0.000000 
#    y 0.000000 1.441870 0.000000 
#    z 0.000000 0.000000 1.772190 
# 
# From -- ./inp_files/10518.got.cif
#   From: 2010.05.17/outbox.cif.g08.bks.cpg/sg60_6_cif.got.tgz:10518.got - 2010.06.03 14:59:27.
