data_PCOD9457960
_publ_section_title
;
Structure prediction by ZEFSAII (Michael W. Deem and Ramdas Pophale) SiO2 
 PCOD9457960
Probable space group: P B C N
;
_chemical_formula_sum "Si O2"
_cell_formula_units_Z 36
_cell_length_a 9.911703
_cell_length_b 19.053113
_cell_length_c 8.384674
_cell_angle_alpha 90.000000
_cell_angle_beta 90.000000
_cell_angle_gamma 90.000000
_cell_volume 1583.435600
_symmetry_space_group_name_H-M "P B C N"
_symmetry_group_IT_number 60
_symmetry_cell_setting 'orthorhombic'
loop_
_space_group_symop_operation_xyz
x,y,z
1/2-x,1/2-y,1/2+z
1/2+x,1/2-y,-z
-x,y,1/2-z
-x,-y,-z
1/2+x,1/2+y,1/2-z
1/2-x,1/2+y,z
x,-y,1/2+z
loop_
_atom_site_type_symbol
_atom_site_label
_atom_site_fract_x
_atom_site_fract_y
_atom_site_fract_z
Si Si1 0.243840 0.941356 0.037937
Si Si2 0.861518 0.697769 0.814679
Si Si3 0.651426 0.926683 0.806329
Si Si4 0.000000 0.079053 0.750000
Si Si5 0.815831 0.177831 0.530459
O O1 0.284853 0.863838 0.094167
O O2 0.104606 0.959121 0.130560
O O3 0.347956 0.000142 0.098139
O O4 0.253558 0.938707 0.848076
O O5 0.771044 0.718267 0.663581
O O6 0.000000 0.666986 0.750000
O O7 0.889426 0.764803 0.923281
O O8 0.500000 0.908413 0.750000
O O9 0.716522 0.868260 0.920594
O O10 0.913458 0.126794 0.628380
#
# Coordination Sequence:
#
# PCOD9457960 Si02
#       5
#     8   8   8   4   8
#     4  11  24  45  70 101 140 182 230 289 348 411
#     4  11  24  42  66  98 136 179 229 283 343 407
#     4  12  25  45  74 103 138 184 239 289 348 411
#     4  10  26  46  66 104 144 178 234 280 350 430
#     4  11  26  42  69 102 138 185 227 287 348 414
#
# _framework density 22.735372000000002
#
# number of rings (size 3 to 8) (size 9 to 14) (size 15 to 20)
#    0.000    0.889    0.000    6.667    9.333    3.556 
#    4.000    0.000    0.000    0.000    0.000    0.000 
#    0.000    0.000    0.000    0.000    0.000    0.000 
#
# Total GULP energy -201394.769836 kJ/mol
# GULP energy per Si atom -5594.299162 kJ/mol
# Density = 2.268363 g / cm^3
# Si number density = 22.735372 Si / 1000 Ang^3
#
#
#
# Elastic Constant Matrix: (Units=GPa)
#
#
# Indices 1 2 3 4 5 6 
#
# 1 70.3299 -4.1521 11.0073 0.0000 0.0000 0.0000
# 2 -4.1521 65.8808 27.1228 0.0000 0.0000 0.0000
# 3 11.0073 27.1228 119.0204 0.0000 0.0000 0.0000
# 4 0.0000 0.0000 0.0000 33.0390 0.0000 0.0000
# 5 0.0000 0.0000 0.0000 0.0000 40.3567 0.0000
# 6 0.0000 0.0000 0.0000 0.0000 0.0000 -7.0550
#
#
#
# Elastic Compliance Matrix: (Units=1/GPa)
#
#
# Indices 1 2 3 4 5 6 
#
# 1 0.014584 0.001627 -0.001720 0.000000 0.000000 0.000000
# 2 0.001627 0.016932 -0.004009 0.000000 0.000000 0.000000
# 3 -0.001720 -0.004009 0.009475 0.000000 0.000000 0.000000
# 4 0.000000 0.000000 0.000000 0.030267 0.000000 0.000000
# 5 0.000000 0.000000 0.000000 0.000000 0.024779 0.000000
# 6 0.000000 0.000000 0.000000 0.000000 0.000000 -0.141743
#
#
# Mechanical properties :
#
#
# Convention : Reuss Voigt Hill
#
# Bulk Modulus (GPa) = 30.49949 35.90969 33.20459
# Shear Modulus (GPa) = -188.15229 28.01834 -80.06697
#
# Velocity S-wave (km/s) = -9.10698 3.51432 -5.94082
# Velocity P-wave (km/s) = 9.85590 5.68297 5.69397
#
# Compressibility (1/GPa) = 0.03278743
#
# Stress axis : x y z
#
# Youngs Moduli (GPa) = 68.56887 59.05994 105.54611
#
# Poissons Ratio (x) = -0.09609 0.18149
# Poissons Ratio (y) = -0.11157 0.42313
# Poissons Ratio (z) = 0.11791 0.23677
#
# Static dielectric constant tensor:
#      x y z
#    x 1.876280 0.000000 0.000000 
#    y 0.000000 1.775390 0.000000 
#    z 0.000000 0.000000 1.914590 
# 
# From -- ./inp_files/3687.got.cif
#   From: 2010.05.17/outbox.cif.g08.bks.cpg/sg60_2_cif.got.tgz:3687.got - 2010.06.03 14:59:27.
