data_PCOD9457948
_publ_section_title
;
Structure prediction by ZEFSAII (Michael W. Deem and Ramdas Pophale) SiO2 
 PCOD9457948
Probable space group: P B C N
;
_chemical_formula_sum "Si O2"
_cell_formula_units_Z 28
_cell_length_a 5.038388
_cell_length_b 12.854462
_cell_length_c 16.501686
_cell_angle_alpha 90.000000
_cell_angle_beta 90.000000
_cell_angle_gamma 90.000000
_cell_volume 1068.744352
_symmetry_space_group_name_H-M "P B C N"
_symmetry_group_IT_number 60
_symmetry_cell_setting 'orthorhombic'
loop_
_space_group_symop_operation_xyz
x,y,z
1/2-x,1/2-y,1/2+z
1/2+x,1/2-y,-z
-x,y,1/2-z
-x,-y,-z
1/2+x,1/2+y,1/2-z
1/2-x,1/2+y,z
x,-y,1/2+z
loop_
_atom_site_type_symbol
_atom_site_label
_atom_site_fract_x
_atom_site_fract_y
_atom_site_fract_z
Si Si1 0.000000 0.796014 0.250000
Si Si2 0.311445 0.672920 0.376334
Si Si3 0.435496 0.867522 0.479353
Si Si4 0.423339 0.453040 0.105629
O O1 0.782372 0.723139 0.207647
O O2 0.096646 0.874226 0.180432
O O3 0.047221 0.653988 0.431276
O O4 0.471073 0.565739 0.368128
O O5 0.466100 0.759794 0.428502
O O6 0.141504 0.552816 0.562257
O O7 0.141652 0.905843 0.456364
#
# Coordination Sequence:
#
# PCOD9457948 Si02
#       4
#     4   8   8   8
#     4  10  26  44  68 108 142 190 242 288 370 442
#     4  11  24  47  76 106 152 192 240 314 364 431
#     4  11  25  45  72 108 139 192 255 296 363 437
#     4  11  26  46  72 106 146 191 245 301 365 439
#
# _framework density 26.198968000000001
#
# number of rings (size 3 to 8) (size 9 to 14) (size 15 to 20)
#    0.000    1.143    0.000    5.143    0.000   16.000 
#    0.000    2.857    0.000    0.000    0.000    0.000 
#    0.000    0.000    0.000    0.000    0.000    0.000 
#
# Total GULP energy -157191.642087 kJ/mol
# GULP energy per Si atom -5613.987217 kJ/mol
# Density = 2.613934 g / cm^3
# Si number density = 26.198968 Si / 1000 Ang^3
#
#
#
# Elastic Constant Matrix: (Units=GPa)
#
#
# Indices 1 2 3 4 5 6 
#
# 1 148.6414 56.5572 65.6063 0.0000 0.0000 0.0000
# 2 56.5572 214.9404 66.8110 0.0000 0.0000 0.0000
# 3 65.6063 66.8110 148.2987 0.0000 0.0000 0.0000
# 4 0.0000 0.0000 0.0000 61.7761 0.0000 0.0000
# 5 0.0000 0.0000 0.0000 0.0000 36.8075 0.0000
# 6 0.0000 0.0000 0.0000 0.0000 0.0000 59.8652
#
#
#
# Elastic Compliance Matrix: (Units=1/GPa)
#
#
# Indices 1 2 3 4 5 6 
#
# 1 0.008645 -0.001263 -0.003256 0.000000 0.000000 0.000000
# 2 -0.001263 0.005595 -0.001962 0.000000 0.000000 0.000000
# 3 -0.003256 -0.001962 0.009067 0.000000 0.000000 0.000000
# 4 0.000000 0.000000 0.000000 0.016187 0.000000 0.000000
# 5 0.000000 0.000000 0.000000 0.000000 0.027168 0.000000
# 6 0.000000 0.000000 0.000000 0.000000 0.000000 0.016704
#
#
# Mechanical properties :
#
#
# Convention : Reuss Voigt Hill
#
# Bulk Modulus (GPa) = 96.65170 98.86995 97.76083
# Shear Modulus (GPa) = 50.11231 53.21685 51.66458
#
# Velocity S-wave (km/s) = 4.37825 4.51184 4.44555
# Velocity P-wave (km/s) = 7.90761 8.05992 7.98413
#
# Compressibility (1/GPa) = 0.01034643
#
# Stress axis : x y z
#
# Youngs Moduli (GPa) = 115.67362 178.74635 110.28761
#
# Poissons Ratio (x) = 0.22572 0.35905
# Poissons Ratio (y) = 0.14607 0.21636
# Poissons Ratio (z) = 0.37658 0.35066
#
# Static dielectric constant tensor:
#      x y z
#    x 2.041730 0.000000 0.000000 
#    y 0.000000 2.142480 0.000000 
#    z 0.000000 0.000000 2.051170 
# 
# From -- ./inp_files/18359.got.cif
#   From: 2010.05.17/outbox.cif.g08.bks.cpg/sg60_10_cif.got.tgz:18359.got - 2010.06.03 14:59:27.
