data_PCOD9457607
_publ_section_title
;
Structure prediction by ZEFSAII (Michael W. Deem and Ramdas Pophale) SiO2 
 PCOD9457607
Probable space group: P B C N
;
_chemical_formula_sum "Si O2"
_cell_formula_units_Z 36
_cell_length_a 22.743938
_cell_length_b 4.849041
_cell_length_c 14.013891
_cell_angle_alpha 90.000000
_cell_angle_beta 90.000000
_cell_angle_gamma 90.000000
_cell_volume 1545.540017
_symmetry_space_group_name_H-M "P B C N"
_symmetry_group_IT_number 60
_symmetry_cell_setting 'orthorhombic'
loop_
_space_group_symop_operation_xyz
x,y,z
1/2-x,1/2-y,1/2+z
1/2+x,1/2-y,-z
-x,y,1/2-z
-x,-y,-z
1/2+x,1/2+y,1/2-z
1/2-x,1/2+y,z
x,-y,1/2+z
loop_
_atom_site_type_symbol
_atom_site_label
_atom_site_fract_x
_atom_site_fract_y
_atom_site_fract_z
Si Si1 0.288722 0.192358 0.604297
Si Si2 0.500000 0.655706 0.250000
Si Si3 0.887641 0.456446 0.779985
Si Si4 0.109626 0.400747 0.510422
Si Si5 0.924385 0.124273 0.605068
O O1 0.229944 0.008126 0.602252
O O2 0.327996 0.122464 0.697210
O O3 0.329627 0.076472 0.518937
O O4 0.516996 0.472771 0.158923
O O5 0.557333 0.841094 0.265923
O O6 0.885726 0.259705 0.689498
O O7 0.899277 0.306432 0.880866
O O8 0.065473 0.634657 0.471620
O O9 0.105694 0.139778 0.442607
#
# Coordination Sequence:
#
# PCOD9457607 Si02
#       5
#     8   4   8   8   8
#     4  10  23  47  76 100 141 193 244 304 364 429
#     4  12  26  46  72 110 158 184 248 302 348 460
#     4  10  27  47  73 108 150 191 239 307 363 438
#     4  10  26  43  77  98 146 189 237 295 369 417
#     4  12  24  47  70 110 144 189 240 290 361 446
#
# _framework density 23.292829999999999
#
# number of rings (size 3 to 8) (size 9 to 14) (size 15 to 20)
#    1.333    0.000    2.222    2.000    6.222    1.778 
#    0.000    6.667    0.000    0.000    0.000    0.000 
#    0.000    0.000    0.000    0.000    0.000    0.000 
#
# Total GULP energy -201146.658396 kJ/mol
# GULP energy per Si atom -5587.407178 kJ/mol
# Density = 2.323981 g / cm^3
# Si number density = 23.292830 Si / 1000 Ang^3
#
#
#
# Elastic Constant Matrix: (Units=GPa)
#
#
# Indices 1 2 3 4 5 6 
#
# 1 80.2597 19.7871 10.7343 0.0000 0.0000 0.0000
# 2 19.7871 86.6096 4.4706 0.0000 0.0000 0.0000
# 3 10.7343 4.4706 59.7589 0.0000 0.0000 0.0000
# 4 0.0000 0.0000 0.0000 3.3091 0.0000 0.0000
# 5 0.0000 0.0000 0.0000 0.0000 27.8579 0.0000
# 6 0.0000 0.0000 0.0000 0.0000 0.0000 42.7414
#
#
#
# Elastic Compliance Matrix: (Units=1/GPa)
#
#
# Indices 1 2 3 4 5 6 
#
# 1 0.013485 -0.002967 -0.002200 0.000000 0.000000 0.000000
# 2 -0.002967 0.012244 -0.000383 0.000000 0.000000 0.000000
# 3 -0.002200 -0.000383 0.017158 0.000000 0.000000 0.000000
# 4 0.000000 0.000000 0.000000 0.302199 0.000000 0.000000
# 5 0.000000 0.000000 0.000000 0.000000 0.035896 0.000000
# 6 0.000000 0.000000 0.000000 0.000000 0.000000 0.023397
#
#
# Mechanical properties :
#
#
# Convention : Reuss Voigt Hill
#
# Bulk Modulus (GPa) = 31.46070 32.95691 32.20880
# Shear Modulus (GPa) = 11.73501 27.55742 19.64621
#
# Velocity S-wave (km/s) = 2.24699 3.44333 2.90736
# Velocity P-wave (km/s) = 4.50199 5.47617 5.01280
#
# Compressibility (1/GPa) = 0.03178569
#
# Stress axis : x y z
#
# Youngs Moduli (GPa) = 74.15423 81.67430 58.28249
#
# Poissons Ratio (x) = 0.24236 0.12824
# Poissons Ratio (y) = 0.22004 0.02232
# Poissons Ratio (z) = 0.16317 0.03128
#
# Static dielectric constant tensor:
#      x y z
#    x 1.904730 0.000000 0.000000 
#    y 0.000000 1.878930 0.000000 
#    z 0.000000 0.000000 1.896260 
# 
# From -- ./inp_files/17588.got.cif
#   From: 2010.05.17/outbox.cif.g08.bks.cpg/sg60_9_cif.got.tgz:17588.got - 2010.06.03 14:59:27.
