data_PCOD9457202
_publ_section_title
;
Structure prediction by ZEFSAII (Michael W. Deem and Ramdas Pophale) SiO2 
 PCOD9457202
Probable space group: P B C N
;
_chemical_formula_sum "Si O2"
_cell_formula_units_Z 32
_cell_length_a 19.140096
_cell_length_b 4.827868
_cell_length_c 13.777618
_cell_angle_alpha 90.000000
_cell_angle_beta 90.000000
_cell_angle_gamma 90.000000
_cell_volume 1273.132599
_symmetry_space_group_name_H-M "P B C N"
_symmetry_group_IT_number 60
_symmetry_cell_setting 'orthorhombic'
loop_
_space_group_symop_operation_xyz
x,y,z
1/2-x,1/2-y,1/2+z
1/2+x,1/2-y,-z
-x,y,1/2-z
-x,-y,-z
1/2+x,1/2+y,1/2-z
1/2-x,1/2+y,z
x,-y,1/2+z
loop_
_atom_site_type_symbol
_atom_site_label
_atom_site_fract_x
_atom_site_fract_y
_atom_site_fract_z
Si Si1 0.629575 0.093404 0.190320
Si Si2 0.706270 0.855547 0.018949
Si Si3 0.928432 0.335029 0.490585
Si Si4 0.427005 0.446971 0.706727
O O1 0.690843 0.933782 0.132254
O O2 0.634917 0.340315 0.266767
O O3 0.586705 0.847032 0.240626
O O4 0.592316 0.250821 0.099295
O O5 0.773512 0.044033 0.996565
O O6 0.637099 0.964265 0.966444
O O7 0.934632 0.110473 0.407131
O O8 0.000000 0.500000 0.500000
O O9 0.500000 0.558518 0.750000
#
# Coordination Sequence:
#
# PCOD9457202 Si02
#       4
#     8   8   8   8
#     4  10  25  40  66  96 134 175 221 276 339 393
#     4  10  22  45  67  93 137 181 223 280 344 406
#     4  10  24  44  72  99 140 177 227 287 346 397
#     4  12  22  41  66 104 134 174 225 280 342 410
#
# _framework density 25.134851000000001
#
# number of rings (size 3 to 8) (size 9 to 14) (size 15 to 20)
#    1.500    0.000    2.500    2.250    0.000    5.000 
#    0.000    7.500    0.000    0.000    0.000    0.000 
#    0.000    0.000    0.000    0.000    0.000    0.000 
#
# Total GULP energy -178720.339527 kJ/mol
# GULP energy per Si atom -5585.010610 kJ/mol
# Density = 2.507764 g / cm^3
# Si number density = 25.134851 Si / 1000 Ang^3
#
#
#
# Elastic Constant Matrix: (Units=GPa)
#
#
# Indices 1 2 3 4 5 6 
#
# 1 77.0498 2.8762 -2.3440 0.0000 0.0000 0.0000
# 2 2.8762 83.4238 28.4837 0.0000 0.0000 0.0000
# 3 -2.3440 28.4837 107.6644 0.0000 0.0000 0.0000
# 4 0.0000 0.0000 0.0000 25.7553 0.0000 0.0000
# 5 0.0000 0.0000 0.0000 0.0000 32.3639 0.0000
# 6 0.0000 0.0000 0.0000 0.0000 0.0000 35.4952
#
#
#
# Elastic Compliance Matrix: (Units=1/GPa)
#
#
# Indices 1 2 3 4 5 6 
#
# 1 0.013014 -0.000600 0.000442 0.000000 0.000000 0.000000
# 2 -0.000600 0.013205 -0.003507 0.000000 0.000000 0.000000
# 3 0.000442 -0.003507 0.010225 0.000000 0.000000 0.000000
# 4 0.000000 0.000000 0.000000 0.038827 0.000000 0.000000
# 5 0.000000 0.000000 0.000000 0.000000 0.030899 0.000000
# 6 0.000000 0.000000 0.000000 0.000000 0.000000 0.028173
#
#
# Mechanical properties :
#
#
# Convention : Reuss Voigt Hill
#
# Bulk Modulus (GPa) = 34.34484 36.24108 35.29296
# Shear Modulus (GPa) = 33.03012 34.66436 33.84724
#
# Velocity S-wave (km/s) = 3.62901 3.71770 3.67362
# Velocity P-wave (km/s) = 5.59048 5.73396 5.66268
#
# Compressibility (1/GPa) = 0.02911645
#
# Stress axis : x y z
#
# Youngs Moduli (GPa) = 76.83766 75.72940 97.79532
#
# Poissons Ratio (x) = 0.04541 -0.04322
# Poissons Ratio (y) = 0.04607 0.34292
# Poissons Ratio (z) = -0.03396 0.26555
#
# Static dielectric constant tensor:
#      x y z
#    x 2.015760 0.000000 0.000000 
#    y 0.000000 1.984320 0.000000 
#    z 0.000000 0.000000 2.009580 
# 
# From -- ./inp_files/17149.got.cif
#   From: 2010.05.17/outbox.cif.g08.bks.cpg/sg60_9_cif.got.tgz:17149.got - 2010.06.03 14:59:27.
