data_PCOD9457627
_publ_section_title
;
Structure prediction by ZEFSAII (Michael W. Deem and Ramdas Pophale) SiO2 
 PCOD9457627
Probable space group: P B C N
;
_chemical_formula_sum "Si O2"
_cell_formula_units_Z 60
_cell_length_a 28.175133
_cell_length_b 8.981417
_cell_length_c 12.257321
_cell_angle_alpha 90.000000
_cell_angle_beta 90.000000
_cell_angle_gamma 90.000000
_cell_volume 3101.747175
_symmetry_space_group_name_H-M "P B C N"
_symmetry_group_IT_number 60
_symmetry_cell_setting 'orthorhombic'
loop_
_space_group_symop_operation_xyz
x,y,z
1/2-x,1/2-y,1/2+z
1/2+x,1/2-y,-z
-x,y,1/2-z
-x,-y,-z
1/2+x,1/2+y,1/2-z
1/2-x,1/2+y,z
x,-y,1/2+z
loop_
_atom_site_type_symbol
_atom_site_label
_atom_site_fract_x
_atom_site_fract_y
_atom_site_fract_z
Si Si1 0.500000 0.123976 0.250000
Si Si2 0.463854 0.166386 0.656962
Si Si3 0.905072 0.847024 0.696619
Si Si4 0.687992 0.251640 0.330366
Si Si5 0.257782 0.012952 0.787363
Si Si6 0.420260 0.318002 0.224091
Si Si7 0.305263 0.716753 0.409007
Si Si8 0.022181 0.835909 0.000136
O O1 0.456630 0.221394 0.297435
O O2 0.526374 0.008372 0.331907
O O3 0.500000 0.231259 0.750000
O O4 0.415043 0.229803 0.705159
O O5 0.480384 0.227708 0.541823
O O6 0.852529 0.836330 0.651382
O O7 0.937771 0.817479 0.592070
O O8 0.916806 0.011941 0.738604
O O9 0.718596 0.388024 0.277793
O O10 0.712965 0.098426 0.291292
O O11 0.633206 0.258979 0.289964
O O12 0.688727 0.266691 0.461417
O O13 0.233452 0.906623 0.876864
O O14 0.290148 0.129455 0.852158
O O15 0.450207 0.313383 0.112179
O O16 0.000000 0.000000 0.000000
#
# Coordination Sequence:
#
# PCOD9457627 Si02
#       8
#     4   8   8   8   8   8   8   8
#     4  10  24  38  58  86 132 166 204 266 306 366
#     4   8  20  38  56  78 120 165 198 249 305 348
#     4  11  21  39  61  88 121 163 207 257 310 366
#     4  11  23  42  66  98 124 163 216 256 330 392
#     4  10  24  42  68  92 130 163 201 276 330 381
#     4  12  23  38  63  93 124 167 215 256 306 378
#     4  11  22  42  68  93 128 163 209 266 325 388
#     4  11  20  36  63  86 117 165 210 253 299 364
#
# _framework density 19.343935999999999
#
# number of rings (size 3 to 8) (size 9 to 14) (size 15 to 20)
#    0.400    1.067    4.000    1.600    2.800    0.533 
#    0.000    0.000    2.933    0.000    0.000    0.000 
#    0.000    0.000    0.000    0.000    0.000    0.000 
#
# Total GULP energy -334440.815010 kJ/mol
# GULP energy per Si atom -5574.013583 kJ/mol
# Density = 1.929991 g / cm^3
# Si number density = 19.343936 Si / 1000 Ang^3
#
#
#
# Elastic Constant Matrix: (Units=GPa)
#
#
# Indices 1 2 3 4 5 6 
#
# 1 57.2464 27.5966 24.6577 0.0000 0.0000 0.0000
# 2 27.5966 120.1783 31.5493 0.0000 0.0000 0.0000
# 3 24.6577 31.5493 92.3292 0.0000 0.0000 0.0000
# 4 0.0000 0.0000 0.0000 20.7195 0.0000 0.0000
# 5 0.0000 0.0000 0.0000 0.0000 30.8200 0.0000
# 6 0.0000 0.0000 0.0000 0.0000 0.0000 23.5106
#
#
#
# Elastic Compliance Matrix: (Units=1/GPa)
#
#
# Indices 1 2 3 4 5 6 
#
# 1 0.021141 -0.003705 -0.004380 0.000000 0.000000 0.000000
# 2 -0.003705 0.009790 -0.002356 0.000000 0.000000 0.000000
# 3 -0.004380 -0.002356 0.012806 0.000000 0.000000 0.000000
# 4 0.000000 0.000000 0.000000 0.048264 0.000000 0.000000
# 5 0.000000 0.000000 0.000000 0.000000 0.032447 0.000000
# 6 0.000000 0.000000 0.000000 0.000000 0.000000 0.042534
#
#
# Mechanical properties :
#
#
# Convention : Reuss Voigt Hill
#
# Bulk Modulus (GPa) = 43.75367 48.59568 46.17467
# Shear Modulus (GPa) = 25.57799 27.40671 26.49235
#
# Velocity S-wave (km/s) = 3.64025 3.76814 3.70475
# Velocity P-wave (km/s) = 6.35110 6.64141 6.49788
#
# Compressibility (1/GPa) = 0.02285523
#
# Stress axis : x y z
#
# Youngs Moduli (GPa) = 47.30173 102.14323 78.09096
#
# Poissons Ratio (x) = 0.37841 0.34204
# Poissons Ratio (y) = 0.17524 0.18398
# Poissons Ratio (z) = 0.20718 0.24064
#
# Static dielectric constant tensor:
#      x y z
#    x 1.655480 0.000000 0.000000 
#    y 0.000000 1.686410 0.000000 
#    z 0.000000 0.000000 1.707960 
# 
# From -- ./inp_files/18101.got.cif
#   From: 2010.05.17/outbox.cif.g08.bks.cpg/sg60_10_cif.got.tgz:18101.got - 2010.06.03 14:59:27.
