data_PCOD9457703
_publ_section_title
;
Structure prediction by ZEFSAII (Michael W. Deem and Ramdas Pophale) SiO2 
 PCOD9457703
Probable space group: P B C N
;
_chemical_formula_sum "Si O2"
_cell_formula_units_Z 40
_cell_length_a 11.231619
_cell_length_b 18.330646
_cell_length_c 8.648869
_cell_angle_alpha 90.000000
_cell_angle_beta 90.000000
_cell_angle_gamma 90.000000
_cell_volume 1780.653642
_symmetry_space_group_name_H-M "P B C N"
_symmetry_group_IT_number 60
_symmetry_cell_setting 'orthorhombic'
loop_
_space_group_symop_operation_xyz
x,y,z
1/2-x,1/2-y,1/2+z
1/2+x,1/2-y,-z
-x,y,1/2-z
-x,-y,-z
1/2+x,1/2+y,1/2-z
1/2-x,1/2+y,z
x,-y,1/2+z
loop_
_atom_site_type_symbol
_atom_site_label
_atom_site_fract_x
_atom_site_fract_y
_atom_site_fract_z
Si Si1 0.382596 0.549102 0.012006
Si Si2 0.135948 0.822432 0.286109
Si Si3 0.336987 0.943592 0.978089
Si Si4 0.500000 0.037978 0.750000
Si Si5 0.000000 0.841216 0.750000
Si Si6 0.717606 0.700574 0.057598
O O1 0.363572 0.596616 0.856888
O O2 0.269528 0.496887 0.033866
O O3 0.500000 0.500000 0.000000
O O4 0.416678 0.607023 0.144377
O O5 0.201756 0.769462 0.405089
O O6 0.000000 0.802125 0.250000
O O7 0.199620 0.812162 0.123364
O O8 0.283918 0.873451 0.892943
O O9 0.416540 0.988118 0.857348
O O10 0.417102 0.920958 0.126095
O O11 0.089612 0.796234 0.858456
#
# Coordination Sequence:
#
# PCOD9457703 Si02
#       6
#     8   8   8   4   4   8
#     4  12  25  45  81 111 147 185 254 318 377 438
#     4  12  27  50  71 110 145 197 244 309 374 450
#     4  11  23  46  70 104 142 189 239 304 360 454
#     4  10  24  42  69 105 142 190 238 284 374 443
#     4  12  24  44  77 113 140 194 244 316 384 441
#     4  12  27  47  74 103 151 191 250 304 381 446
#
# _framework density 22.463661999999999
#
# number of rings (size 3 to 8) (size 9 to 14) (size 15 to 20)
#    0.000    0.400    4.000    3.600    5.600    0.000 
#    7.200    1.000    0.000    0.000    0.000    0.000 
#    0.000    0.000    0.000    0.000    0.000    0.000 
#
# Total GULP energy -223958.148060 kJ/mol
# GULP energy per Si atom -5598.953702 kJ/mol
# Density = 2.241253 g / cm^3
# Si number density = 22.463662 Si / 1000 Ang^3
#
#
#
# Elastic Constant Matrix: (Units=GPa)
#
#
# Indices 1 2 3 4 5 6 
#
# 1 126.8031 50.3530 28.9188 0.0000 0.0000 0.0000
# 2 50.3530 85.2795 20.6242 0.0000 0.0000 0.0000
# 3 28.9188 20.6242 93.9089 0.0000 0.0000 0.0000
# 4 0.0000 0.0000 0.0000 21.6506 0.0000 0.0000
# 5 0.0000 0.0000 0.0000 0.0000 49.8697 0.0000
# 6 0.0000 0.0000 0.0000 0.0000 0.0000 10.4713
#
#
#
# Elastic Compliance Matrix: (Units=1/GPa)
#
#
# Indices 1 2 3 4 5 6 
#
# 1 0.010647 -0.005802 -0.002005 0.000000 0.000000 0.000000
# 2 -0.005802 0.015545 -0.001627 0.000000 0.000000 0.000000
# 3 -0.002005 -0.001627 0.011623 0.000000 0.000000 0.000000
# 4 0.000000 0.000000 0.000000 0.046188 0.000000 0.000000
# 5 0.000000 0.000000 0.000000 0.000000 0.020052 0.000000
# 6 0.000000 0.000000 0.000000 0.000000 0.000000 0.095500
#
#
# Mechanical properties :
#
#
# Convention : Reuss Voigt Hill
#
# Bulk Modulus (GPa) = 52.77513 56.19817 54.48665
# Shear Modulus (GPa) = 22.24796 30.13801 26.19298
#
# Velocity S-wave (km/s) = 3.15047 3.66681 3.41840
# Velocity P-wave (km/s) = 6.06453 6.55736 6.31575
#
# Compressibility (1/GPa) = 0.01894832
#
# Stress axis : x y z
#
# Youngs Moduli (GPa) = 93.92040 64.32759 86.03387
#
# Poissons Ratio (x) = 0.37322 0.17246
# Poissons Ratio (y) = 0.54492 0.14001
# Poissons Ratio (z) = 0.18827 0.10469
#
# Static dielectric constant tensor:
#      x y z
#    x 1.788920 0.000000 0.000000 
#    y 0.000000 1.802190 0.000000 
#    z 0.000000 0.000000 1.865180 
# 
# From -- ./inp_files/4801.got.cif
#   From: 2010.05.17/outbox.cif.g08.bks.cpg/sg60_3_cif.got.tgz:4801.got - 2010.06.03 14:59:27.
