data_PCOD9457522
_publ_section_title
;
Structure prediction by ZEFSAII (Michael W. Deem and Ramdas Pophale) SiO2 
 PCOD9457522
Probable space group: P B C N
;
_chemical_formula_sum "Si O2"
_cell_formula_units_Z 36
_cell_length_a 5.370094
_cell_length_b 18.858759
_cell_length_c 15.838472
_cell_angle_alpha 90.000000
_cell_angle_beta 90.000000
_cell_angle_gamma 90.000000
_cell_volume 1604.014462
_symmetry_space_group_name_H-M "P B C N"
_symmetry_group_IT_number 60
_symmetry_cell_setting 'orthorhombic'
loop_
_space_group_symop_operation_xyz
x,y,z
1/2-x,1/2-y,1/2+z
1/2+x,1/2-y,-z
-x,y,1/2-z
-x,-y,-z
1/2+x,1/2+y,1/2-z
1/2-x,1/2+y,z
x,-y,1/2+z
loop_
_atom_site_type_symbol
_atom_site_label
_atom_site_fract_x
_atom_site_fract_y
_atom_site_fract_z
Si Si1 0.500000 0.570952 0.250000
Si Si2 0.519103 0.133446 0.565463
Si Si3 0.987517 0.188460 0.845797
Si Si4 0.128181 0.499188 0.336896
Si Si5 0.887165 0.647760 0.367355
O O1 0.416395 0.510700 0.319663
O O2 0.647920 0.624087 0.312761
O O3 0.248222 0.159933 0.598582
O O4 0.544516 0.050413 0.588506
O O5 0.593005 0.146840 0.468731
O O6 0.744198 0.170109 0.615927
O O7 0.959021 0.273255 0.842827
O O8 0.000000 0.160694 0.750000
O O9 0.000000 0.473360 0.250000
O O10 0.063618 0.582235 0.343536
#
# Coordination Sequence:
#
# PCOD9457522 Si02
#       5
#     4   8   8   8   8
#     4  10  24  42  74  94 146 184 250 280 364 424
#     4  12  28  45  75 107 147 180 243 301 358 418
#     4  12  27  47  72 105 145 191 233 294 366 432
#     4  10  23  44  69 104 137 192 236 294 355 432
#     4  11  26  46  71 106 141 193 240 295 354 437
#
# _framework density 22.443687000000001
#
# number of rings (size 3 to 8) (size 9 to 14) (size 15 to 20)
#    0.000    0.889    0.000    6.000   17.111    0.889 
#    0.000    0.000    0.000    0.000    0.000    0.000 
#    0.000    0.000    0.000    0.000    0.000    0.000 
#
# Total GULP energy -200442.306894 kJ/mol
# GULP energy per Si atom -5567.841858 kJ/mol
# Density = 2.239260 g / cm^3
# Si number density = 22.443687 Si / 1000 Ang^3
#
#
#
# Elastic Constant Matrix: (Units=GPa)
#
#
# Indices 1 2 3 4 5 6 
#
# 1 61.1426 10.2333 9.4817 0.0000 0.0000 0.0000
# 2 10.2333 102.9162 -1.0973 0.0000 0.0000 0.0000
# 3 9.4817 -1.0973 149.5984 0.0000 0.0000 0.0000
# 4 0.0000 0.0000 0.0000 36.3593 0.0000 0.0000
# 5 0.0000 0.0000 0.0000 0.0000 22.2422 0.0000
# 6 0.0000 0.0000 0.0000 0.0000 0.0000 184.3134
#
#
#
# Elastic Compliance Matrix: (Units=1/GPa)
#
#
# Indices 1 2 3 4 5 6 
#
# 1 0.016804 -0.001682 -0.001077 0.000000 0.000000 0.000000
# 2 -0.001682 0.009886 0.000179 0.000000 0.000000 0.000000
# 3 -0.001077 0.000179 0.006754 0.000000 0.000000 0.000000
# 4 0.000000 0.000000 0.000000 0.027503 0.000000 0.000000
# 5 0.000000 0.000000 0.000000 0.000000 0.044960 0.000000
# 6 0.000000 0.000000 0.000000 0.000000 0.000000 0.005426
#
#
# Mechanical properties :
#
#
# Convention : Reuss Voigt Hill
#
# Bulk Modulus (GPa) = 35.35734 38.98807 37.17271
# Shear Modulus (GPa) = 39.70741 68.25227 53.97984
#
# Velocity S-wave (km/s) = 4.21075 5.52055 4.90953
# Velocity P-wave (km/s) = 6.27922 7.61869 6.98116
#
# Compressibility (1/GPa) = 0.02828267
#
# Stress axis : x y z
#
# Youngs Moduli (GPa) = 59.51011 101.15483 148.05684
#
# Poissons Ratio (x) = 0.17018 0.15952
# Poissons Ratio (y) = 0.10012 -0.02652
# Poissons Ratio (z) = 0.06412 -0.01812
#
# Static dielectric constant tensor:
#      x y z
#    x 11.418600 0.000000 0.000000 
#    y 0.000000 1.825940 0.000000 
#    z 0.000000 0.000000 1.992380 
# 
# From -- ./inp_files/13698.got.cif
#   From: 2010.05.17/outbox.cif.g08.bks.cpg/sg60_7_cif.got.tgz:13698.got - 2010.06.03 14:59:27.
