data_PCOD9457608
_publ_section_title
;
Structure prediction by ZEFSAII (Michael W. Deem and Ramdas Pophale) SiO2 
 PCOD9457608
Probable space group: P B C N
;
_chemical_formula_sum "Si O2"
_cell_formula_units_Z 40
_cell_length_a 11.226427
_cell_length_b 7.544766
_cell_length_c 19.872994
_cell_angle_alpha 90.000000
_cell_angle_beta 90.000000
_cell_angle_gamma 90.000000
_cell_volume 1683.257789
_symmetry_space_group_name_H-M "P B C N"
_symmetry_group_IT_number 60
_symmetry_cell_setting 'orthorhombic'
loop_
_space_group_symop_operation_xyz
x,y,z
1/2-x,1/2-y,1/2+z
1/2+x,1/2-y,-z
-x,y,1/2-z
-x,-y,-z
1/2+x,1/2+y,1/2-z
1/2-x,1/2+y,z
x,-y,1/2+z
loop_
_atom_site_type_symbol
_atom_site_label
_atom_site_fract_x
_atom_site_fract_y
_atom_site_fract_z
Si Si1 0.052772 0.839706 0.884789
Si Si2 0.650529 0.875224 0.337450
Si Si3 0.703047 0.699429 0.618251
Si Si4 0.374594 0.228417 0.239411
Si Si5 0.092681 0.654720 0.515772
O O1 0.154217 0.687784 0.882058
O O2 0.947423 0.782150 0.833857
O O3 0.985119 0.818963 0.955912
O O4 0.124081 0.021359 0.877630
O O5 0.773024 0.830973 0.300938
O O6 0.667584 0.901241 0.417838
O O7 0.601417 0.051708 0.303234
O O8 0.674002 0.806306 0.686139
O O9 0.667196 0.794579 0.549052
O O10 0.500000 0.324579 0.250000
O O11 0.000000 0.500000 0.500000
#
# Coordination Sequence:
#
# PCOD9457608 Si02
#       5
#     8   8   8   8   8
#     4  10  26  46  76 114 159 196 263 321 403 467
#     4  10  28  50  72 111 159 203 255 329 399 480
#     4  12  24  46  80 115 149 208 262 332 393 481
#     4  12  28  47  76 109 153 201 266 323 395 480
#     4  10  23  47  78 111 162 203 264 326 401 470
#
# _framework density 23.763444
#
# number of rings (size 3 to 8) (size 9 to 14) (size 15 to 20)
#    1.200    0.000    0.000    4.200    8.400    4.800 
#    0.000    0.000    0.000    0.000    0.000    0.000 
#    0.000    0.000    0.000    0.000    0.000    0.000 
#
# Total GULP energy -223494.072639 kJ/mol
# GULP energy per Si atom -5587.351816 kJ/mol
# Density = 2.370936 g / cm^3
# Si number density = 23.763444 Si / 1000 Ang^3
#
#
#
# Elastic Constant Matrix: (Units=GPa)
#
#
# Indices 1 2 3 4 5 6 
#
# 1 151.2548 7.5509 51.2108 0.0000 0.0000 0.0000
# 2 7.5509 66.0385 20.0119 0.0000 0.0000 0.0000
# 3 51.2108 20.0119 168.3913 0.0000 0.0000 0.0000
# 4 0.0000 0.0000 0.0000 32.4300 0.0000 0.0000
# 5 0.0000 0.0000 0.0000 0.0000 48.3692 0.0000
# 6 0.0000 0.0000 0.0000 0.0000 0.0000 34.8514
#
#
#
# Elastic Compliance Matrix: (Units=1/GPa)
#
#
# Indices 1 2 3 4 5 6 
#
# 1 0.007372 -0.000170 -0.002222 0.000000 0.000000 0.000000
# 2 -0.000170 0.015712 -0.001816 0.000000 0.000000 0.000000
# 3 -0.002222 -0.001816 0.006830 0.000000 0.000000 0.000000
# 4 0.000000 0.000000 0.000000 0.030836 0.000000 0.000000
# 5 0.000000 0.000000 0.000000 0.000000 0.020674 0.000000
# 6 0.000000 0.000000 0.000000 0.000000 0.000000 0.028693
#
#
# Mechanical properties :
#
#
# Convention : Reuss Voigt Hill
#
# Bulk Modulus (GPa) = 46.51139 60.35909 53.43524
# Shear Modulus (GPa) = 39.77767 43.59084 41.68426
#
# Velocity S-wave (km/s) = 4.09577 4.28760 4.19278
# Velocity P-wave (km/s) = 6.47937 7.06869 6.78044
#
# Compressibility (1/GPa) = 0.02150011
#
# Stress axis : x y z
#
# Youngs Moduli (GPa) = 135.64695 63.64440 146.41241
#
# Poissons Ratio (x) = 0.01080 0.32530
# Poissons Ratio (y) = 0.02301 0.26584
# Poissons Ratio (z) = 0.30138 0.11556
#
# Static dielectric constant tensor:
#      x y z
#    x 1.920450 0.000000 0.000000 
#    y 0.000000 1.934470 0.000000 
#    z 0.000000 0.000000 1.908810 
# 
# From -- ./inp_files/19859.got.cif
#   From: 2010.05.17/outbox.cif.g08.bks.cpg/sg60_10_cif.got.tgz:19859.got - 2010.06.03 14:59:27.
