data_PCOD9457175
_publ_section_title
;
Structure prediction by ZEFSAII (Michael W. Deem and Ramdas Pophale) SiO2 
 PCOD9457175
Probable space group: P B C N
;
_chemical_formula_sum "Si O2"
_cell_formula_units_Z 40
_cell_length_a 12.772740
_cell_length_b 13.465806
_cell_length_c 9.550939
_cell_angle_alpha 90.000000
_cell_angle_beta 90.000000
_cell_angle_gamma 90.000000
_cell_volume 1642.716035
_symmetry_space_group_name_H-M "P B C N"
_symmetry_group_IT_number 60
_symmetry_cell_setting 'orthorhombic'
loop_
_space_group_symop_operation_xyz
x,y,z
1/2-x,1/2-y,1/2+z
1/2+x,1/2-y,-z
-x,y,1/2-z
-x,-y,-z
1/2+x,1/2+y,1/2-z
1/2-x,1/2+y,z
x,-y,1/2+z
loop_
_atom_site_type_symbol
_atom_site_label
_atom_site_fract_x
_atom_site_fract_y
_atom_site_fract_z
Si Si1 0.504959 0.251025 0.488138
Si Si2 0.155787 0.768466 0.257075
Si Si3 0.149436 0.125646 0.181668
Si Si4 0.431413 0.947380 0.386078
Si Si5 0.698053 0.478726 0.097558
O O1 0.587472 0.297012 0.379375
O O2 0.415673 0.214478 0.376398
O O3 0.443129 0.314076 0.604493
O O4 0.571896 0.166770 0.565338
O O5 0.255029 0.702520 0.211269
O O6 0.181077 0.872182 0.330338
O O7 0.132331 0.064133 0.325106
O O8 0.180352 0.041949 0.066153
O O9 0.500000 0.951996 0.250000
O O10 0.319776 0.997817 0.375188
O O11 0.500000 0.000000 0.500000
#
# Coordination Sequence:
#
# PCOD9457175 Si02
#       5
#     8   8   8   8   8
#     4  10  23  43  68  97 141 188 231 293 352 422
#     4  10  22  44  70  96 139 186 236 292 355 417
#     4  11  23  44  68 102 141 180 235 292 355 424
#     4  12  24  39  66 105 137 176 234 291 359 418
#     4  11  24  41  68  99 137 184 230 289 355 421
#
# _framework density 24.349917999999999
#
# number of rings (size 3 to 8) (size 9 to 14) (size 15 to 20)
#    0.000    1.200    2.000    3.600    2.800    4.000 
#    3.600    0.000    0.000    0.000    0.000    0.000 
#    0.000    0.000    0.000    0.000    0.000    0.000 
#
# Total GULP energy -223801.261431 kJ/mol
# GULP energy per Si atom -5595.031536 kJ/mol
# Density = 2.429450 g / cm^3
# Si number density = 24.349918 Si / 1000 Ang^3
#
#
#
# Elastic Constant Matrix: (Units=GPa)
#
#
# Indices 1 2 3 4 5 6 
#
# 1 71.0474 34.5977 31.3577 0.0000 0.0000 0.0000
# 2 34.5977 59.6927 15.6237 0.0000 0.0000 0.0000
# 3 31.3577 15.6237 124.9016 0.0000 0.0000 0.0000
# 4 0.0000 0.0000 0.0000 51.9106 0.0000 0.0000
# 5 0.0000 0.0000 0.0000 0.0000 43.9561 0.0000
# 6 0.0000 0.0000 0.0000 0.0000 0.0000 -0.4717
#
#
#
# Elastic Compliance Matrix: (Units=1/GPa)
#
#
# Indices 1 2 3 4 5 6 
#
# 1 0.021332 -0.011333 -0.003938 0.000000 0.000000 0.000000
# 2 -0.011333 0.023341 -0.000074 0.000000 0.000000 0.000000
# 3 -0.003938 -0.000074 0.009004 0.000000 0.000000 0.000000
# 4 0.000000 0.000000 0.000000 0.019264 0.000000 0.000000
# 5 0.000000 0.000000 0.000000 0.000000 0.022750 0.000000
# 6 0.000000 0.000000 0.000000 0.000000 0.000000 -2.120113
#
#
# Mechanical properties :
#
#
# Convention : Reuss Voigt Hill
#
# Bulk Modulus (GPa) = 43.50497 46.53332 45.01915
# Shear Modulus (GPa) = -2.51754 30.68318 14.08282
#
# Velocity S-wave (km/s) = -1.01791 3.55363 2.40750
# Velocity P-wave (km/s) = 4.06495 5.99912 5.12412
#
# Compressibility (1/GPa) = 0.02298588
#
# Stress axis : x y z
#
# Youngs Moduli (GPa) = 46.87753 42.84358 111.05848
#
# Poissons Ratio (x) = 0.48556 0.43735
# Poissons Ratio (y) = 0.53128 0.00825
# Poissons Ratio (z) = 0.18460 0.00318
#
# Static dielectric constant tensor:
#      x y z
#    x 1.937110 0.000000 0.000000 
#    y 0.000000 1.979760 0.000000 
#    z 0.000000 0.000000 1.885350 
# 
# From -- ./inp_files/5659.got.cif
#   From: 2010.05.17/outbox.cif.g08.bks.cpg/sg60_3_cif.got.tgz:5659.got - 2010.06.03 14:59:27.
