data_PCOD9457091
_publ_section_title
;
Structure prediction by ZEFSAII (Michael W. Deem and Ramdas Pophale) SiO2 
 PCOD9457091
Probable space group: P B C N
;
_chemical_formula_sum "Si O2"
_cell_formula_units_Z 28
_cell_length_a 4.983010
_cell_length_b 14.451703
_cell_length_c 15.608330
_cell_angle_alpha 90.000000
_cell_angle_beta 90.000000
_cell_angle_gamma 90.000000
_cell_volume 1124.002365
_symmetry_space_group_name_H-M "P B C N"
_symmetry_group_IT_number 60
_symmetry_cell_setting 'orthorhombic'
loop_
_space_group_symop_operation_xyz
x,y,z
1/2-x,1/2-y,1/2+z
1/2+x,1/2-y,-z
-x,y,1/2-z
-x,-y,-z
1/2+x,1/2+y,1/2-z
1/2-x,1/2+y,z
x,-y,1/2+z
loop_
_atom_site_type_symbol
_atom_site_label
_atom_site_fract_x
_atom_site_fract_y
_atom_site_fract_z
Si Si1 0.677270 0.608230 0.048379
Si Si2 0.500000 0.573876 0.750000
Si Si3 0.238427 0.253136 0.808067
Si Si4 0.673084 0.999458 0.395956
O O1 0.725747 0.702378 0.099240
O O2 0.371956 0.574918 0.059803
O O3 0.872755 0.535157 0.097004
O O4 0.776025 0.594158 0.951254
O O5 0.659096 0.645436 0.688715
O O6 0.710004 0.515394 0.802846
O O7 0.500000 0.263596 0.750000
O O8 0.000000 0.296609 0.750000
#
# Coordination Sequence:
#
# PCOD9457091 Si02
#       4
#     8   4   8   8
#     4  10  22  43  62  91 121 168 208 259 314 374
#     4  10  26  38  62  98 124 164 206 266 316 384
#     4  10  23  40  58  93 125 167 204 250 324 386
#     4  10  23  40  66  91 122 158 218 261 307 371
#
# _framework density 24.910976999999999
#
# number of rings (size 3 to 8) (size 9 to 14) (size 15 to 20)
#    0.857    1.143    0.000    1.714   10.000    0.000 
#    5.143    0.000    0.000    0.000    0.000    0.000 
#    0.000    0.000    0.000    0.000    0.000    0.000 
#
# Total GULP energy -156656.562405 kJ/mol
# GULP energy per Si atom -5594.877229 kJ/mol
# Density = 2.485428 g / cm^3
# Si number density = 24.910977 Si / 1000 Ang^3
#
#
#
# Elastic Constant Matrix: (Units=GPa)
#
#
# Indices 1 2 3 4 5 6 
#
# 1 128.5482 9.8300 9.6007 0.0000 0.0000 0.0000
# 2 9.8300 32.2907 4.1948 0.0000 0.0000 0.0000
# 3 9.6007 4.1948 68.2861 0.0000 0.0000 0.0000
# 4 0.0000 0.0000 0.0000 567.0551 0.0000 0.0000
# 5 0.0000 0.0000 0.0000 0.0000 40.3704 0.0000
# 6 0.0000 0.0000 0.0000 0.0000 0.0000 11.0171
#
#
#
# Elastic Compliance Matrix: (Units=1/GPa)
#
#
# Indices 1 2 3 4 5 6 
#
# 1 0.008030 -0.002316 -0.000987 0.000000 0.000000 0.000000
# 2 -0.002316 0.031886 -0.001633 0.000000 0.000000 0.000000
# 3 -0.000987 -0.001633 0.014883 0.000000 0.000000 0.000000
# 4 0.000000 0.000000 0.000000 0.001763 0.000000 0.000000
# 5 0.000000 0.000000 0.000000 0.000000 0.024771 0.000000
# 6 0.000000 0.000000 0.000000 0.000000 0.000000 0.090768
#
#
# Mechanical properties :
#
#
# Convention : Reuss Voigt Hill
#
# Bulk Modulus (GPa) = 22.25830 30.70846 26.48338
# Shear Modulus (GPa) = 25.38724 137.38848 81.38786
#
# Velocity S-wave (km/s) = 3.19583 7.43448 5.72210
# Velocity P-wave (km/s) = 4.75103 9.27628 7.36959
#
# Compressibility (1/GPa) = 0.04492707
#
# Stress axis : x y z
#
# Youngs Moduli (GPa) = 124.53293 31.36175 67.18938
#
# Poissons Ratio (x) = 0.07264 0.06630
# Poissons Ratio (y) = 0.28846 0.10973
# Poissons Ratio (z) = 0.12288 0.05122
#
# Static dielectric constant tensor:
#      x y z
#    x 1.944670 0.000000 0.000000 
#    y 0.000000 1.989320 0.000000 
#    z 0.000000 0.000000 2.010920 
# 
# From -- ./inp_files/18480.got.cif
#   From: 2010.05.17/outbox.cif.g08.bks.cpg/sg60_10_cif.got.tgz:18480.got - 2010.06.03 14:59:27.
