data_PCOD9457598
_publ_section_title
;
Structure prediction by ZEFSAII (Michael W. Deem and Ramdas Pophale) SiO2 
 PCOD9457598
Probable space group: P B C N
;
_chemical_formula_sum "Si O2"
_cell_formula_units_Z 32
_cell_length_a 5.799250
_cell_length_b 19.136832
_cell_length_c 11.095145
_cell_angle_alpha 90.000000
_cell_angle_beta 90.000000
_cell_angle_gamma 90.000000
_cell_volume 1231.331126
_symmetry_space_group_name_H-M "P B C N"
_symmetry_group_IT_number 60
_symmetry_cell_setting 'orthorhombic'
loop_
_space_group_symop_operation_xyz
x,y,z
1/2-x,1/2-y,1/2+z
1/2+x,1/2-y,-z
-x,y,1/2-z
-x,-y,-z
1/2+x,1/2+y,1/2-z
1/2-x,1/2+y,z
x,-y,1/2+z
loop_
_atom_site_type_symbol
_atom_site_label
_atom_site_fract_x
_atom_site_fract_y
_atom_site_fract_z
Si Si1 0.069524 0.904834 0.405234
Si Si2 0.948911 0.662423 0.425385
Si Si3 0.198481 0.289775 0.149599
Si Si4 0.318099 0.554017 0.351408
O O1 0.274646 0.866023 0.473703
O O2 0.883479 0.852313 0.346386
O O3 0.923585 0.934884 0.516963
O O4 0.188018 0.969976 0.335083
O O5 0.814994 0.714190 0.336729
O O6 0.117904 0.708266 0.509573
O O7 0.084092 0.598092 0.364919
O O8 0.000000 0.298040 0.250000
O O9 0.500000 0.579809 0.250000
#
# Coordination Sequence:
#
# PCOD9457598 Si02
#       4
#     8   8   8   8
#     4  10  23  47  70 110 153 199 267 318 389 484
#     4  11  23  48  72 112 158 201 262 328 387 486
#     4  11  25  45  76 111 158 206 256 327 403 478
#     4  10  24  45  74 107 151 205 258 322 393 467
#
# _framework density 25.988136999999998
#
# number of rings (size 3 to 8) (size 9 to 14) (size 15 to 20)
#    0.000    1.500    2.500    0.750    3.500    2.000 
#    4.500    0.000    0.000    0.000    0.000    0.000 
#    0.000    0.000    0.000    0.000    0.000    0.000 
#
# Total GULP energy -178955.775827 kJ/mol
# GULP energy per Si atom -5592.367995 kJ/mol
# Density = 2.592899 g / cm^3
# Si number density = 25.988137 Si / 1000 Ang^3
#
#
#
# Elastic Constant Matrix: (Units=GPa)
#
#
# Indices 1 2 3 4 5 6 
#
# 1 150.7280 108.4232 62.9502 0.0000 0.0000 0.0000
# 2 108.4232 209.5772 56.7492 0.0000 0.0000 0.0000
# 3 62.9502 56.7492 106.5436 0.0000 0.0000 0.0000
# 4 0.0000 0.0000 0.0000 36.9994 0.0000 0.0000
# 5 0.0000 0.0000 0.0000 0.0000 81.0092 0.0000
# 6 0.0000 0.0000 0.0000 0.0000 0.0000 67.5008
#
#
#
# Elastic Compliance Matrix: (Units=1/GPa)
#
#
# Indices 1 2 3 4 5 6 
#
# 1 0.012157 -0.005076 -0.004479 0.000000 0.000000 0.000000
# 2 -0.005076 0.007695 -0.001100 0.000000 0.000000 0.000000
# 3 -0.004479 -0.001100 0.012618 0.000000 0.000000 0.000000
# 4 0.000000 0.000000 0.000000 0.027027 0.000000 0.000000
# 5 0.000000 0.000000 0.000000 0.000000 0.012344 0.000000
# 6 0.000000 0.000000 0.000000 0.000000 0.000000 0.014815
#
#
# Mechanical properties :
#
#
# Convention : Reuss Voigt Hill
#
# Bulk Modulus (GPa) = 89.60240 102.56602 96.08421
# Shear Modulus (GPa) = 44.76856 53.01697 48.89276
#
# Velocity S-wave (km/s) = 4.15499 4.52159 4.34216
# Velocity P-wave (km/s) = 7.58760 8.17385 7.88617
#
# Compressibility (1/GPa) = 0.01116042
#
# Stress axis : x y z
#
# Youngs Moduli (GPa) = 82.26029 129.94658 79.25370
#
# Poissons Ratio (x) = 0.65965 0.35495
# Poissons Ratio (y) = 0.41758 0.08715
# Poissons Ratio (z) = 0.36842 0.14289
#
# Static dielectric constant tensor:
#      x y z
#    x 2.222900 0.000000 0.000000 
#    y 0.000000 2.048550 0.000000 
#    z 0.000000 0.000000 1.781490 
# 
# From -- ./inp_files/8844.got.cif
#   From: 2010.05.17/outbox.cif.g08.bks.cpg/sg60_5_cif.got.tgz:8844.got - 2010.06.03 14:59:27.
