data_PCOD9457734
_publ_section_title
;
Structure prediction by ZEFSAII (Michael W. Deem and Ramdas Pophale) SiO2 
 PCOD9457734
Probable space group: P B C N
;
_chemical_formula_sum "Si O2"
_cell_formula_units_Z 40
_cell_length_a 7.969024
_cell_length_b 17.884029
_cell_length_c 11.442247
_cell_angle_alpha 90.000000
_cell_angle_beta 90.000000
_cell_angle_gamma 90.000000
_cell_volume 1630.729091
_symmetry_space_group_name_H-M "P B C N"
_symmetry_group_IT_number 60
_symmetry_cell_setting 'orthorhombic'
loop_
_space_group_symop_operation_xyz
x,y,z
1/2-x,1/2-y,1/2+z
1/2+x,1/2-y,-z
-x,y,1/2-z
-x,-y,-z
1/2+x,1/2+y,1/2-z
1/2-x,1/2+y,z
x,-y,1/2+z
loop_
_atom_site_type_symbol
_atom_site_label
_atom_site_fract_x
_atom_site_fract_y
_atom_site_fract_z
Si Si1 0.732642 0.804840 0.087615
Si Si2 0.950050 0.579067 0.442138
Si Si3 0.691843 0.600127 0.787089
Si Si4 0.413876 0.644521 0.468491
Si Si5 0.249957 0.438846 0.778261
O O1 0.748063 0.824512 0.224720
O O2 0.679818 0.720678 0.065824
O O3 0.588360 0.858204 0.036289
O O4 0.907796 0.829512 0.024903
O O5 0.786412 0.579103 0.356935
O O6 0.000000 0.500000 0.500000
O O7 0.100533 0.596356 0.354272
O O8 0.500000 0.589767 0.750000
O O9 0.775275 0.528408 0.727077
O O10 0.687431 0.604430 0.925952
O O11 0.407221 0.589076 0.356283
#
# Coordination Sequence:
#
# PCOD9457734 Si02
#       5
#     8   8   8   8   8
#     4  11  25  47  73 101 149 191 243 302 370 440
#     4  11  23  43  68 103 139 186 238 295 360 435
#     4  10  24  43  70  99 144 185 238 297 364 437
#     4  11  26  46  71 107 146 192 244 302 370 442
#     4  11  24  42  71 102 143 182 239 300 363 436
#
# _framework density 24.528905999999999
#
# number of rings (size 3 to 8) (size 9 to 14) (size 15 to 20)
#    0.000    1.200    2.000    2.400    5.600    1.600 
#    0.000    0.000    0.000    0.000    0.000    0.000 
#    0.000    0.000    0.000    0.000    0.000    0.000 
#
# Total GULP energy -223498.495170 kJ/mol
# GULP energy per Si atom -5587.462379 kJ/mol
# Density = 2.447308 g / cm^3
# Si number density = 24.528906 Si / 1000 Ang^3
#
#
#
# Elastic Constant Matrix: (Units=GPa)
#
#
# Indices 1 2 3 4 5 6 
#
# 1 68.1046 10.1944 16.4474 0.0000 0.0000 0.0000
# 2 10.1944 128.6134 54.5933 0.0000 0.0000 0.0000
# 3 16.4474 54.5933 166.9192 0.0000 0.0000 0.0000
# 4 0.0000 0.0000 0.0000 31.6274 0.0000 0.0000
# 5 0.0000 0.0000 0.0000 0.0000 33.7045 0.0000
# 6 0.0000 0.0000 0.0000 0.0000 0.0000 24.3750
#
#
#
# Elastic Compliance Matrix: (Units=1/GPa)
#
#
# Indices 1 2 3 4 5 6 
#
# 1 0.015089 -0.000656 -0.001272 0.000000 0.000000 0.000000
# 2 -0.000656 0.009057 -0.002898 0.000000 0.000000 0.000000
# 3 -0.001272 -0.002898 0.007064 0.000000 0.000000 0.000000
# 4 0.000000 0.000000 0.000000 0.031618 0.000000 0.000000
# 5 0.000000 0.000000 0.000000 0.000000 0.029670 0.000000
# 6 0.000000 0.000000 0.000000 0.000000 0.000000 0.041026
#
#
# Mechanical properties :
#
#
# Convention : Reuss Voigt Hill
#
# Bulk Modulus (GPa) = 46.38590 58.45635 52.42113
# Shear Modulus (GPa) = 33.25328 36.76820 35.01074
#
# Velocity S-wave (km/s) = 3.68595 3.87586 3.78210
# Velocity P-wave (km/s) = 6.08824 6.62669 6.36317
#
# Compressibility (1/GPa) = 0.02155828
#
# Stress axis : x y z
#
# Youngs Moduli (GPa) = 66.27459 110.40921 141.56284
#
# Poissons Ratio (x) = 0.07242 0.18010
# Poissons Ratio (y) = 0.04347 0.41020
# Poissons Ratio (z) = 0.08432 0.31993
#
# Static dielectric constant tensor:
#      x y z
#    x 2.076730 0.000000 0.000000 
#    y 0.000000 1.921310 0.000000 
#    z 0.000000 0.000000 2.058110 
# 
# From -- ./inp_files/9765.got.cif
#   From: 2010.05.17/outbox.cif.g08.bks.cpg/sg60_5_cif.got.tgz:9765.got - 2010.06.03 14:59:27.
