data_PCOD9457047
_publ_section_title
;
Structure prediction by ZEFSAII (Michael W. Deem and Ramdas Pophale) SiO2 
 PCOD9457047
Probable space group: P B C N
;
_chemical_formula_sum "Si O2"
_cell_formula_units_Z 40
_cell_length_a 5.392657
_cell_length_b 26.756897
_cell_length_c 12.460718
_cell_angle_alpha 90.000000
_cell_angle_beta 90.000000
_cell_angle_gamma 90.000000
_cell_volume 1797.966569
_symmetry_space_group_name_H-M "P B C N"
_symmetry_group_IT_number 60
_symmetry_cell_setting 'orthorhombic'
loop_
_space_group_symop_operation_xyz
x,y,z
1/2-x,1/2-y,1/2+z
1/2+x,1/2-y,-z
-x,y,1/2-z
-x,-y,-z
1/2+x,1/2+y,1/2-z
1/2-x,1/2+y,z
x,-y,1/2+z
loop_
_atom_site_type_symbol
_atom_site_label
_atom_site_fract_x
_atom_site_fract_y
_atom_site_fract_z
Si Si1 0.294773 0.463096 0.949230
Si Si2 0.106989 0.555458 0.863117
Si Si3 0.242946 0.681792 0.189598
Si Si4 0.168257 0.769061 0.057211
Si Si5 0.556453 0.371171 0.006230
O O1 0.199758 0.497828 0.853283
O O2 0.416168 0.410073 0.928509
O O3 0.500000 0.500000 0.000000
O O4 0.090409 0.450453 0.040023
O O5 0.000000 0.571904 0.750000
O O6 0.311167 0.594795 0.904561
O O7 0.500000 0.672671 0.250000
O O8 0.221962 0.741372 0.168584
O O9 0.254511 0.656923 0.072287
O O10 0.000000 0.664021 0.250000
O O11 0.410158 0.755441 0.986043
O O12 0.118345 0.828210 0.054871
#
# Coordination Sequence:
#
# PCOD9457047 Si02
#       5
#     8   8   8   8   8
#     4   9  21  43  64  94 134 174 224 285 354 403
#     4  10  22  44  68  97 137 176 234 289 354 424
#     4  11  24  44  66 103 143 185 234 282 348 420
#     4  10  22  42  68  92 137 184 226 291 348 400
#     4  10  23  42  68  96 136 183 231 289 347 423
#
# _framework density 22.247354999999999
#
# number of rings (size 3 to 8) (size 9 to 14) (size 15 to 20)
#    0.000    2.000    0.000    2.400    8.400    3.200 
#   14.400    0.000    0.000    0.000    0.000    0.000 
#    0.000    0.000    0.000    0.000    0.000    0.000 
#
# Total GULP energy -223131.526244 kJ/mol
# GULP energy per Si atom -5578.288156 kJ/mol
# Density = 2.219672 g / cm^3
# Si number density = 22.247355 Si / 1000 Ang^3
#
#
#
# Elastic Constant Matrix: (Units=GPa)
#
#
# Indices 1 2 3 4 5 6 
#
# 1 112.8081 47.4011 21.1015 0.0000 0.0000 0.0000
# 2 47.4011 154.9664 27.5576 0.0000 0.0000 0.0000
# 3 21.1015 27.5576 60.4321 0.0000 0.0000 0.0000
# 4 0.0000 0.0000 0.0000 19.0390 0.0000 0.0000
# 5 0.0000 0.0000 0.0000 0.0000 30.3297 0.0000
# 6 0.0000 0.0000 0.0000 0.0000 0.0000 41.7497
#
#
#
# Elastic Compliance Matrix: (Units=1/GPa)
#
#
# Indices 1 2 3 4 5 6 
#
# 1 0.010480 -0.002780 -0.002392 0.000000 0.000000 0.000000
# 2 -0.002780 0.007760 -0.002568 0.000000 0.000000 0.000000
# 3 -0.002392 -0.002568 0.018554 0.000000 0.000000 0.000000
# 4 0.000000 0.000000 0.000000 0.052524 0.000000 0.000000
# 5 0.000000 0.000000 0.000000 0.000000 0.032971 0.000000
# 6 0.000000 0.000000 0.000000 0.000000 0.000000 0.023952
#
#
# Mechanical properties :
#
#
# Convention : Reuss Voigt Hill
#
# Bulk Modulus (GPa) = 46.91685 57.81410 52.36547
# Shear Modulus (GPa) = 29.61642 33.70012 31.65827
#
# Velocity S-wave (km/s) = 3.65257 3.89626 3.77638
# Velocity P-wave (km/s) = 6.23882 6.80327 6.52715
#
# Compressibility (1/GPa) = 0.02131430
#
# Stress axis : x y z
#
# Youngs Moduli (GPa) = 95.41738 128.86405 53.89804
#
# Poissons Ratio (x) = 0.35829 0.12890
# Poissons Ratio (y) = 0.26530 0.13840
# Poissons Ratio (z) = 0.22820 0.33090
#
# Static dielectric constant tensor:
#      x y z
#    x 1.895500 0.000000 0.000000 
#    y 0.000000 1.872020 0.000000 
#    z 0.000000 0.000000 1.817420 
# 
# From -- ./inp_files/9080.got.cif
#   From: 2010.05.17/outbox.cif.g08.bks.cpg/sg60_5_cif.got.tgz:9080.got - 2010.06.03 14:59:27.
