data_PCOD9457216
_publ_section_title
;
Structure prediction by ZEFSAII (Michael W. Deem and Ramdas Pophale) SiO2 
 PCOD9457216
Probable space group: P B C N
;
_chemical_formula_sum "Si O2"
_cell_formula_units_Z 32
_cell_length_a 12.177530
_cell_length_b 8.965286
_cell_length_c 10.623217
_cell_angle_alpha 90.000000
_cell_angle_beta 90.000000
_cell_angle_gamma 90.000000
_cell_volume 1159.790133
_symmetry_space_group_name_H-M "P B C N"
_symmetry_group_IT_number 60
_symmetry_cell_setting 'orthorhombic'
loop_
_space_group_symop_operation_xyz
x,y,z
1/2-x,1/2-y,1/2+z
1/2+x,1/2-y,-z
-x,y,1/2-z
-x,-y,-z
1/2+x,1/2+y,1/2-z
1/2-x,1/2+y,z
x,-y,1/2+z
loop_
_atom_site_type_symbol
_atom_site_label
_atom_site_fract_x
_atom_site_fract_y
_atom_site_fract_z
Si Si1 0.518643 0.703329 0.038675
Si Si2 0.672473 0.464932 0.069133
Si Si3 0.647606 0.067295 0.889331
Si Si4 0.340282 0.237875 0.204597
O O1 0.340207 0.663985 0.829197
O O2 0.564381 0.729062 0.897372
O O3 0.415551 0.589502 0.036428
O O4 0.469626 0.858168 0.088614
O O5 0.791283 0.489005 0.008386
O O6 0.769393 0.700760 0.859919
O O7 0.617992 0.622216 0.112363
O O8 0.654368 0.939906 0.783263
#
# Coordination Sequence:
#
# PCOD9457216 Si02
#       4
#     8   8   8   8
#     4  10  22  45  71 106 152 193 249 319 375 446
#     4  10  23  44  73 106 152 196 246 320 381 449
#     4  11  23  44  73 112 148 194 258 317 367 460
#     4  11  24  41  74 106 150 198 249 304 389 452
#
# _framework density 27.591197999999999
#
# number of rings (size 3 to 8) (size 9 to 14) (size 15 to 20)
#    0.000    1.500    2.500    1.500    3.500    0.000 
#    0.000    0.000    5.500    0.000    0.000    0.000 
#    0.000    0.000    0.000    0.000    0.000    0.000 
#
# Total GULP energy -179218.874024 kJ/mol
# GULP energy per Si atom -5600.589813 kJ/mol
# Density = 2.752840 g / cm^3
# Si number density = 27.591198 Si / 1000 Ang^3
#
#
#
# Elastic Constant Matrix: (Units=GPa)
#
#
# Indices 1 2 3 4 5 6 
#
# 1 125.8964 59.3993 33.0430 0.0000 0.0000 0.0000
# 2 59.3993 191.2754 46.6131 0.0000 0.0000 0.0000
# 3 33.0430 46.6131 90.6183 0.0000 0.0000 0.0000
# 4 0.0000 0.0000 0.0000 54.3985 0.0000 0.0000
# 5 0.0000 0.0000 0.0000 0.0000 15.7039 0.0000
# 6 0.0000 0.0000 0.0000 0.0000 0.0000 69.9903
#
#
#
# Elastic Compliance Matrix: (Units=1/GPa)
#
#
# Indices 1 2 3 4 5 6 
#
# 1 0.009699 -0.002458 -0.002272 0.000000 0.000000 0.000000
# 2 -0.002458 0.006600 -0.002499 0.000000 0.000000 0.000000
# 3 -0.002272 -0.002499 0.013149 0.000000 0.000000 0.000000
# 4 0.000000 0.000000 0.000000 0.018383 0.000000 0.000000
# 5 0.000000 0.000000 0.000000 0.000000 0.063678 0.000000
# 6 0.000000 0.000000 0.000000 0.000000 0.000000 0.014288
#
#
# Mechanical properties :
#
#
# Convention : Reuss Voigt Hill
#
# Bulk Modulus (GPa) = 66.70996 76.21117 71.46057
# Shear Modulus (GPa) = 34.42265 45.93419 40.17842
#
# Velocity S-wave (km/s) = 3.53596 4.08464 3.82016
# Velocity P-wave (km/s) = 6.39540 7.06592 6.73901
#
# Compressibility (1/GPa) = 0.01499027
#
# Stress axis : x y z
#
# Youngs Moduli (GPa) = 103.10060 151.50547 76.05032
#
# Poissons Ratio (x) = 0.37245 0.17280
# Poissons Ratio (y) = 0.25345 0.19003
# Poissons Ratio (z) = 0.23427 0.37858
#
# Static dielectric constant tensor:
#      x y z
#    x 2.157410 0.000000 0.000000 
#    y 0.000000 2.233160 0.000000 
#    z 0.000000 0.000000 2.231820 
# 
# From -- ./inp_files/11565.got.cif
#   From: 2010.05.17/outbox.cif.g08.bks.cpg/sg60_6_cif.got.tgz:11565.got - 2010.06.03 14:59:27.
