data_PCOD9457159
_publ_section_title
;
Structure prediction by ZEFSAII (Michael W. Deem and Ramdas Pophale) SiO2 
 PCOD9457159
Probable space group: P B C N
;
_chemical_formula_sum "Si O2"
_cell_formula_units_Z 60
_cell_length_a 15.944954
_cell_length_b 11.174165
_cell_length_c 15.466781
_cell_angle_alpha 90.000000
_cell_angle_beta 90.000000
_cell_angle_gamma 90.000000
_cell_volume 2755.740297
_symmetry_space_group_name_H-M "P B C N"
_symmetry_group_IT_number 60
_symmetry_cell_setting 'orthorhombic'
loop_
_space_group_symop_operation_xyz
x,y,z
1/2-x,1/2-y,1/2+z
1/2+x,1/2-y,-z
-x,y,1/2-z
-x,-y,-z
1/2+x,1/2+y,1/2-z
1/2-x,1/2+y,z
x,-y,1/2+z
loop_
_atom_site_type_symbol
_atom_site_label
_atom_site_fract_x
_atom_site_fract_y
_atom_site_fract_z
Si Si1 0.150339 0.101366 0.760708
Si Si2 0.769457 0.445227 0.843297
Si Si3 0.044253 0.624626 0.488567
Si Si4 0.699117 0.668321 0.567344
Si Si5 0.891078 0.807319 0.893946
Si Si6 0.000000 0.939506 0.750000
Si Si7 0.936932 0.701864 0.331681
Si Si8 0.769112 0.581357 0.025483
O O1 0.170961 0.194488 0.835599
O O2 0.110360 0.172035 0.680408
O O3 0.229752 0.024886 0.731809
O O4 0.074324 0.017579 0.791455
O O5 0.702142 0.335560 0.856388
O O6 0.862367 0.395705 0.831539
O O7 0.765815 0.530996 0.927689
O O8 0.066889 0.681034 0.582171
O O9 0.134610 0.598176 0.447839
O O10 0.000000 0.500000 0.500000
O O11 0.987166 0.697274 0.421433
O O12 0.626638 0.654744 0.494396
O O13 0.759169 0.779084 0.536662
O O14 0.733389 0.533013 0.574890
O O15 0.953738 0.870027 0.827598
O O16 0.000000 0.687636 0.250000
#
# Coordination Sequence:
#
# PCOD9457159 Si02
#       8
#     8   8   8   8   8   4   8   8
#     4  11  25  42  69 104 139 190 244 294 369 444
#     4  10  24  43  70  97 144 193 237 298 367 440
#     4  11  23  43  67 101 139 182 240 298 369 440
#     4  10  23  43  72 101 141 183 242 303 348 446
#     4   9  22  45  69  97 144 184 240 301 360 437
#     4  10  22  48  64 102 138 186 244 290 368 434
#     4  12  25  43  71 103 144 189 238 307 377 430
#     4  10  22  44  67 103 134 186 239 293 362 428
#
# _framework density 21.772732999999999
#
# number of rings (size 3 to 8) (size 9 to 14) (size 15 to 20)
#    0.000    1.600    2.000    1.600    9.333    0.533 
#    8.400    0.000    0.000    0.000    0.000    0.000 
#    0.000    0.000    0.000    0.000    0.000    0.000 
#
# Total GULP energy -334057.578264 kJ/mol
# GULP energy per Si atom -5567.626304 kJ/mol
# Density = 2.172318 g / cm^3
# Si number density = 21.772733 Si / 1000 Ang^3
#
#
#
# Elastic Constant Matrix: (Units=GPa)
#
#
# Indices 1 2 3 4 5 6 
#
# 1 92.8963 30.5159 19.7247 0.0000 0.0000 0.0000
# 2 30.5159 106.8135 31.6180 0.0000 0.0000 0.0000
# 3 19.7247 31.6180 48.0692 0.0000 0.0000 0.0000
# 4 0.0000 0.0000 0.0000 29.1100 0.0000 0.0000
# 5 0.0000 0.0000 0.0000 0.0000 20.1543 0.0000
# 6 0.0000 0.0000 0.0000 0.0000 0.0000 39.5019
#
#
#
# Elastic Compliance Matrix: (Units=1/GPa)
#
#
# Indices 1 2 3 4 5 6 
#
# 1 0.012311 -0.002511 -0.003400 0.000000 0.000000 0.000000
# 2 -0.002511 0.012138 -0.006953 0.000000 0.000000 0.000000
# 3 -0.003400 -0.006953 0.026772 0.000000 0.000000 0.000000
# 4 0.000000 0.000000 0.000000 0.034352 0.000000 0.000000
# 5 0.000000 0.000000 0.000000 0.000000 0.049617 0.000000
# 6 0.000000 0.000000 0.000000 0.000000 0.000000 0.025315
#
#
# Mechanical properties :
#
#
# Convention : Reuss Voigt Hill
#
# Bulk Modulus (GPa) = 39.22747 45.72179 42.47463
# Shear Modulus (GPa) = 25.67617 28.81460 27.24539
#
# Velocity S-wave (km/s) = 3.43779 3.64184 3.54129
# Velocity P-wave (km/s) = 5.81496 6.22327 6.02258
#
# Compressibility (1/GPa) = 0.02549234
#
# Stress axis : x y z
#
# Youngs Moduli (GPa) = 81.22515 82.38795 37.35197
#
# Poissons Ratio (x) = 0.20685 0.12701
# Poissons Ratio (y) = 0.20393 0.25972
# Poissons Ratio (z) = 0.27620 0.57288
#
# Static dielectric constant tensor:
#      x y z
#    x 1.808670 0.000000 0.000000 
#    y 0.000000 1.996710 0.000000 
#    z 0.000000 0.000000 1.845990 
# 
# From -- ./inp_files/17467.got.cif
#   From: 2010.05.17/outbox.cif.g08.bks.cpg/sg60_9_cif.got.tgz:17467.got - 2010.06.03 14:59:27.
