data_PCOD9457974
_publ_section_title
;
Structure prediction by ZEFSAII (Michael W. Deem and Ramdas Pophale) SiO2 
 PCOD9457974
Probable space group: P B C N
;
_chemical_formula_sum "Si O2"
_cell_formula_units_Z 40
_cell_length_a 15.938282
_cell_length_b 18.052390
_cell_length_c 5.409364
_cell_angle_alpha 90.000000
_cell_angle_beta 90.000000
_cell_angle_gamma 90.000000
_cell_volume 1556.404294
_symmetry_space_group_name_H-M "P B C N"
_symmetry_group_IT_number 60
_symmetry_cell_setting 'orthorhombic'
loop_
_space_group_symop_operation_xyz
x,y,z
1/2-x,1/2-y,1/2+z
1/2+x,1/2-y,-z
-x,y,1/2-z
-x,-y,-z
1/2+x,1/2+y,1/2-z
1/2-x,1/2+y,z
x,-y,1/2+z
loop_
_atom_site_type_symbol
_atom_site_label
_atom_site_fract_x
_atom_site_fract_y
_atom_site_fract_z
Si Si1 0.914572 0.325192 0.106740
Si Si2 0.323412 0.528118 0.647228
Si Si3 0.407875 0.326072 0.207160
Si Si4 0.630524 0.031795 0.331440
Si Si5 0.298709 0.240082 0.547063
O O1 0.843230 0.328137 0.318545
O O2 0.000000 0.339820 0.250000
O O3 0.917599 0.244913 0.974045
O O4 0.888290 0.384237 0.902294
O O5 0.363268 0.489092 0.411821
O O6 0.339181 0.615415 0.611045
O O7 0.229316 0.493159 0.673984
O O8 0.500000 0.358195 0.250000
O O9 0.371956 0.296219 0.467054
O O10 0.594845 0.987634 0.565948
O O11 0.254801 0.228869 0.280191
#
# Coordination Sequence:
#
# PCOD9457974 Si02
#       5
#     8   8   8   8   8
#     4  12  28  50  84 122 169 214 282 352 426 490
#     4  10  26  47  75 113 162 217 272 332 408 503
#     4  12  28  50  84 122 169 214 282 352 426 490
#     4  10  26  47  75 113 162 217 272 332 408 503
#     4  12  28  44  78 120 158 210 270 350 412 486
#
# _framework density 25.700261999999999
#
# number of rings (size 3 to 8) (size 9 to 14) (size 15 to 20)
#    0.000    0.800    4.000    0.000   11.200    4.800 
#    0.000    0.000    0.000    0.000    0.000    0.000 
#    0.000    0.000    0.000    0.000    0.000    0.000 
#
# Total GULP energy -223693.247397 kJ/mol
# GULP energy per Si atom -5592.331185 kJ/mol
# Density = 2.564177 g / cm^3
# Si number density = 25.700262 Si / 1000 Ang^3
#
#
#
# Elastic Constant Matrix: (Units=GPa)
#
#
# Indices 1 2 3 4 5 6 
#
# 1 119.8321 5.5134 6.6439 0.0000 0.0000 0.0000
# 2 5.5134 98.2621 -20.7908 0.0000 0.0000 0.0000
# 3 6.6439 -20.7908 112.0441 0.0000 0.0000 0.0000
# 4 0.0000 0.0000 0.0000 47.3830 0.0000 0.0000
# 5 0.0000 0.0000 0.0000 0.0000 28.0247 0.0000
# 6 0.0000 0.0000 0.0000 0.0000 0.0000 26.3339
#
#
#
# Elastic Compliance Matrix: (Units=1/GPa)
#
#
# Indices 1 2 3 4 5 6 
#
# 1 0.008406 -0.000601 -0.000610 0.000000 0.000000 0.000000
# 2 -0.000601 0.010636 0.002009 0.000000 0.000000 0.000000
# 3 -0.000610 0.002009 0.009334 0.000000 0.000000 0.000000
# 4 0.000000 0.000000 0.000000 0.021105 0.000000 0.000000
# 5 0.000000 0.000000 0.000000 0.000000 0.035683 0.000000
# 6 0.000000 0.000000 0.000000 0.000000 0.000000 0.037974
#
#
# Mechanical properties :
#
#
# Convention : Reuss Voigt Hill
#
# Bulk Modulus (GPa) = 33.36317 34.76345 34.06331
# Shear Modulus (GPa) = 38.01370 42.93312 40.47341
#
# Velocity S-wave (km/s) = 3.85010 4.09165 3.97271
# Velocity P-wave (km/s) = 5.72488 5.98982 5.85885
#
# Compressibility (1/GPa) = 0.02997317
#
# Stress axis : x y z
#
# Youngs Moduli (GPa) = 118.95602 94.02316 107.13467
#
# Poissons Ratio (x) = 0.05648 0.06535
# Poissons Ratio (y) = 0.07146 -0.21525
# Poissons Ratio (z) = 0.07256 -0.18891
#
# Static dielectric constant tensor:
#      x y z
#    x 2.982440 0.000000 0.000000 
#    y 0.000000 2.118710 0.000000 
#    z 0.000000 0.000000 2.005330 
# 
# From -- ./inp_files/1640.got.cif
#   From: 2010.05.17/outbox.cif.g08.bks.cpg/sg60_1_cif.got.tgz:1640.got - 2010.06.03 14:59:27.
