data_PCOD9457751
_publ_section_title
;
Structure prediction by ZEFSAII (Michael W. Deem and Ramdas Pophale) SiO2 
 PCOD9457751
Probable space group: P B C N
;
_chemical_formula_sum "Si O2"
_cell_formula_units_Z 48
_cell_length_a 8.104036
_cell_length_b 14.154081
_cell_length_c 18.692410
_cell_angle_alpha 90.000000
_cell_angle_beta 90.000000
_cell_angle_gamma 90.000000
_cell_volume 2144.116291
_symmetry_space_group_name_H-M "P B C N"
_symmetry_group_IT_number 60
_symmetry_cell_setting 'orthorhombic'
loop_
_space_group_symop_operation_xyz
x,y,z
1/2-x,1/2-y,1/2+z
1/2+x,1/2-y,-z
-x,y,1/2-z
-x,-y,-z
1/2+x,1/2+y,1/2-z
1/2-x,1/2+y,z
x,-y,1/2+z
loop_
_atom_site_type_symbol
_atom_site_label
_atom_site_fract_x
_atom_site_fract_y
_atom_site_fract_z
Si Si1 0.598608 0.185027 0.441153
Si Si2 0.185933 0.982565 0.527043
Si Si3 0.814515 0.583235 0.715901
Si Si4 0.430010 0.767661 0.393924
Si Si5 0.788492 0.581280 0.112551
Si Si6 0.226970 0.853357 0.138883
O O1 0.549953 0.202392 0.523461
O O2 0.467488 0.127285 0.395093
O O3 0.604703 0.285785 0.403212
O O4 0.764984 0.122495 0.448727
O O5 0.284747 0.013744 0.456799
O O6 0.237990 0.053100 0.590595
O O7 0.000000 0.000000 0.500000
O O8 0.817808 0.660748 0.652716
O O9 0.767547 0.483634 0.681442
O O10 0.698235 0.615860 0.780343
O O11 0.000000 0.574702 0.750000
O O12 0.347595 0.664368 0.391376
O O13 0.608497 0.788325 0.360171
#
# Coordination Sequence:
#
# PCOD9457751 Si02
#       6
#     8   8   8   8   8   8
#     4  12  22  40  73 104 136 182 238 289 345 419
#     4  12  25  41  70 102 138 186 238 289 348 416
#     4  10  24  44  67  97 145 186 226 288 353 417
#     4  11  21  41  70 101 138 184 228 286 355 414
#     4  12  24  42  73 102 139 182 234 285 356 419
#     4  11  25  45  67 104 142 178 234 290 347 417
#
# _framework density 22.386846999999999
#
# number of rings (size 3 to 8) (size 9 to 14) (size 15 to 20)
#    0.000    0.667    5.000    3.500    2.333    2.667 
#    0.000    4.167    0.000    2.000    0.000    0.000 
#    0.000    0.000    0.000    0.000    0.000    0.000 
#
# Total GULP energy -268268.995466 kJ/mol
# GULP energy per Si atom -5588.937406 kJ/mol
# Density = 2.233589 g / cm^3
# Si number density = 22.386847 Si / 1000 Ang^3
#
#
#
# Elastic Constant Matrix: (Units=GPa)
#
#
# Indices 1 2 3 4 5 6 
#
# 1 30.5891 -1.4035 -0.6883 0.0000 0.0000 0.0000
# 2 -1.4035 110.4124 50.1090 0.0000 0.0000 0.0000
# 3 -0.6883 50.1090 114.6837 0.0000 0.0000 0.0000
# 4 0.0000 0.0000 0.0000 51.4561 0.0000 0.0000
# 5 0.0000 0.0000 0.0000 0.0000 17.4484 0.0000
# 6 0.0000 0.0000 0.0000 0.0000 0.0000 17.8916
#
#
#
# Elastic Compliance Matrix: (Units=1/GPa)
#
#
# Indices 1 2 3 4 5 6 
#
# 1 0.032711 0.000407 0.000018 0.000000 0.000000 0.000000
# 2 0.000407 0.011302 -0.004936 0.000000 0.000000 0.000000
# 3 0.000018 -0.004936 0.010876 0.000000 0.000000 0.000000
# 4 0.000000 0.000000 0.000000 0.019434 0.000000 0.000000
# 5 0.000000 0.000000 0.000000 0.000000 0.057312 0.000000
# 6 0.000000 0.000000 0.000000 0.000000 0.000000 0.055892
#
#
# Mechanical properties :
#
#
# Convention : Reuss Voigt Hill
#
# Bulk Modulus (GPa) = 21.80124 39.07996 30.44060
# Shear Modulus (GPa) = 23.60306 31.20376 27.40341
#
# Velocity S-wave (km/s) = 3.25056 3.73747 3.50249
# Velocity P-wave (km/s) = 4.88342 6.00995 5.47573
#
# Compressibility (1/GPa) = 0.04586896
#
# Stress axis : x y z
#
# Youngs Moduli (GPa) = 30.57119 88.47839 91.94243
#
# Poissons Ratio (x) = -0.03605 -0.00168
# Poissons Ratio (y) = -0.01246 0.45381
# Poissons Ratio (z) = -0.00056 0.43672
#
# Static dielectric constant tensor:
#      x y z
#    x 1.972680 0.000000 0.000000 
#    y 0.000000 1.460540 0.000000 
#    z 0.000000 0.000000 1.785890 
# 
# From -- ./inp_files/19282.got.cif
#   From: 2010.05.17/outbox.cif.g08.bks.cpg/sg60_10_cif.got.tgz:19282.got - 2010.06.03 14:59:27.
