data_PCOD9457933
_publ_section_title
;
Structure prediction by ZEFSAII (Michael W. Deem and Ramdas Pophale) SiO2 
 PCOD9457933
Probable space group: P B C N
;
_chemical_formula_sum "Si O2"
_cell_formula_units_Z 36
_cell_length_a 12.959373
_cell_length_b 17.666853
_cell_length_c 5.774467
_cell_angle_alpha 90.000000
_cell_angle_beta 90.000000
_cell_angle_gamma 90.000000
_cell_volume 1322.071945
_symmetry_space_group_name_H-M "P B C N"
_symmetry_group_IT_number 60
_symmetry_cell_setting 'orthorhombic'
loop_
_space_group_symop_operation_xyz
x,y,z
1/2-x,1/2-y,1/2+z
1/2+x,1/2-y,-z
-x,y,1/2-z
-x,-y,-z
1/2+x,1/2+y,1/2-z
1/2-x,1/2+y,z
x,-y,1/2+z
loop_
_atom_site_type_symbol
_atom_site_label
_atom_site_fract_x
_atom_site_fract_y
_atom_site_fract_z
Si Si1 0.000000 0.173643 0.750000
Si Si2 0.898225 0.064547 0.112528
Si Si3 0.259109 0.938161 0.558821
Si Si4 0.691673 0.768715 0.601001
Si Si5 0.115918 0.589393 0.657179
O O1 0.065571 0.119477 0.584834
O O2 0.083807 0.221439 0.891241
O O3 0.830881 0.991880 0.046924
O O4 0.812685 0.106635 0.264364
O O5 0.000000 0.042158 0.250000
O O6 0.310891 0.886643 0.369339
O O7 0.345597 0.001951 0.621845
O O8 0.357434 0.854532 0.947242
O O9 0.757369 0.750288 0.360072
O O10 0.000000 0.591675 0.750000
#
# Coordination Sequence:
#
# PCOD9457933 Si02
#       5
#     4   8   8   8   8
#     4  12  32  52  84 120 168 228 286 344 424 514
#     4  11  26  45  81 122 167 211 275 345 424 504
#     4  10  25  49  83 128 165 219 273 355 434 492
#     4  12  33  58  86 123 173 230 288 350 424 510
#     4  11  26  52  84 123 168 223 288 350 422 510
#
# _framework density 27.229984999999999
#
# number of rings (size 3 to 8) (size 9 to 14) (size 15 to 20)
#    0.000    0.889    0.000    2.667   20.222    1.778 
#    2.000    0.000    0.000    0.000    0.000    0.000 
#    0.000    0.000    0.000    0.000    0.000    0.000 
#
# Total GULP energy -201189.986845 kJ/mol
# GULP energy per Si atom -5588.610746 kJ/mol
# Density = 2.716801 g / cm^3
# Si number density = 27.229985 Si / 1000 Ang^3
#
#
#
# Elastic Constant Matrix: (Units=GPa)
#
#
# Indices 1 2 3 4 5 6 
#
# 1 217.6804 39.0888 66.5121 0.0000 0.0000 0.0000
# 2 39.0888 105.5211 22.0800 0.0000 0.0000 0.0000
# 3 66.5121 22.0800 119.5789 0.0000 0.0000 0.0000
# 4 0.0000 0.0000 0.0000 37.4001 0.0000 0.0000
# 5 0.0000 0.0000 0.0000 0.0000 74.8791 0.0000
# 6 0.0000 0.0000 0.0000 0.0000 0.0000 -1.8214
#
#
#
# Elastic Compliance Matrix: (Units=1/GPa)
#
#
# Indices 1 2 3 4 5 6 
#
# 1 0.005760 -0.001522 -0.002923 0.000000 0.000000 0.000000
# 2 -0.001522 0.010260 -0.001048 0.000000 0.000000 0.000000
# 3 -0.002923 -0.001048 0.010182 0.000000 0.000000 0.000000
# 4 0.000000 0.000000 0.000000 0.026738 0.000000 0.000000
# 5 0.000000 0.000000 0.000000 0.000000 0.013355 0.000000
# 6 0.000000 0.000000 0.000000 0.000000 0.000000 -0.549028
#
#
# Mechanical properties :
#
#
# Convention : Reuss Voigt Hill
#
# Bulk Modulus (GPa) = 65.71893 77.57134 71.64514
# Shear Modulus (GPa) = -10.71409 43.09821 16.19206
#
# Velocity S-wave (km/s) = -1.98575 3.98269 2.44117
# Velocity P-wave (km/s) = 4.35081 7.04971 5.85781
#
# Compressibility (1/GPa) = 0.01521632
#
# Stress axis : x y z
#
# Youngs Moduli (GPa) = 173.60106 97.46678 98.21314
#
# Poissons Ratio (x) = 0.14837 0.28707
# Poissons Ratio (y) = 0.26426 0.10291
# Poissons Ratio (z) = 0.50742 0.10212
#
# Static dielectric constant tensor:
#      x y z
#    x 2.017610 0.000000 0.000000 
#    y 0.000000 2.269360 0.000000 
#    z 0.000000 0.000000 2.665080 
# 
# From -- ./inp_files/747.got.cif
#   From: 2010.05.17/outbox.cif.g08.bks.cpg/sg60_1_cif.got.tgz:747.got - 2010.06.03 14:59:27.
