data_PCOD9457453
_publ_section_title
;
Structure prediction by ZEFSAII (Michael W. Deem and Ramdas Pophale) SiO2 
 PCOD9457453
Probable space group: P B C N
;
_chemical_formula_sum "Si O2"
_cell_formula_units_Z 48
_cell_length_a 15.209713
_cell_length_b 8.241300
_cell_length_c 15.260850
_cell_angle_alpha 90.000000
_cell_angle_beta 90.000000
_cell_angle_gamma 90.000000
_cell_volume 1912.914092
_symmetry_space_group_name_H-M "P B C N"
_symmetry_group_IT_number 60
_symmetry_cell_setting 'orthorhombic'
loop_
_space_group_symop_operation_xyz
x,y,z
1/2-x,1/2-y,1/2+z
1/2+x,1/2-y,-z
-x,y,1/2-z
-x,-y,-z
1/2+x,1/2+y,1/2-z
1/2-x,1/2+y,z
x,-y,1/2+z
loop_
_atom_site_type_symbol
_atom_site_label
_atom_site_fract_x
_atom_site_fract_y
_atom_site_fract_z
Si Si1 0.142397 0.907484 0.669427
Si Si2 0.061413 0.366347 0.829083
Si Si3 0.186946 0.101773 0.497276
Si Si4 0.156894 0.429115 0.444240
Si Si5 0.530700 0.490583 0.100717
Si Si6 0.233762 0.807453 0.275557
O O1 0.170362 0.973799 0.574119
O O2 0.036811 0.905632 0.658924
O O3 0.175610 0.049536 0.733895
O O4 0.193712 0.751643 0.704869
O O5 0.068241 0.504043 0.902857
O O6 0.160896 0.331407 0.794943
O O7 0.000000 0.416307 0.750000
O O8 0.029294 0.193592 0.866276
O O9 0.154909 0.284503 0.514522
O O10 0.289983 0.083362 0.480119
O O11 0.129837 0.051878 0.411877
O O12 0.215519 0.353930 0.364723
O O13 0.500000 0.500000 0.000000
#
# Coordination Sequence:
#
# PCOD9457453 Si02
#       6
#     8   8   8   8   8   8
#     4  11  24  41  66  95 133 174 221 281 337 406
#     4  12  24  41  68  96 135 174 224 286 343 399
#     4  11  22  42  65  97 132 182 225 275 338 415
#     4  12  23  41  69  98 131 178 231 275 343 412
#     4  10  23  43  66  95 134 182 223 268 343 411
#     4  12  22  41  65  97 130 171 228 276 340 401
#
# _framework density 25.092606
#
# number of rings (size 3 to 8) (size 9 to 14) (size 15 to 20)
#    0.000    0.667    6.667    1.000    0.000    2.667 
#    0.000    3.333    0.000    0.000    0.000    0.000 
#    0.000    0.000    0.000    0.000    0.000    0.000 
#
# Total GULP energy -268475.959383 kJ/mol
# GULP energy per Si atom -5593.249154 kJ/mol
# Density = 2.503549 g / cm^3
# Si number density = 25.092606 Si / 1000 Ang^3
#
#
#
# Elastic Constant Matrix: (Units=GPa)
#
#
# Indices 1 2 3 4 5 6 
#
# 1 52.2542 -5.3482 29.0229 0.0000 0.0000 0.0000
# 2 -5.3482 51.3057 -5.7016 0.0000 0.0000 0.0000
# 3 29.0229 -5.7016 59.1510 0.0000 0.0000 0.0000
# 4 0.0000 0.0000 0.0000 4.1253 0.0000 0.0000
# 5 0.0000 0.0000 0.0000 0.0000 43.2946 0.0000
# 6 0.0000 0.0000 0.0000 0.0000 0.0000 39.1261
#
#
#
# Elastic Compliance Matrix: (Units=1/GPa)
#
#
# Indices 1 2 3 4 5 6 
#
# 1 0.026395 0.001326 -0.012823 0.000000 0.000000 0.000000
# 2 0.001326 0.019769 0.001255 0.000000 0.000000 0.000000
# 3 -0.012823 0.001255 0.023319 0.000000 0.000000 0.000000
# 4 0.000000 0.000000 0.000000 0.242408 0.000000 0.000000
# 5 0.000000 0.000000 0.000000 0.000000 0.023098 0.000000
# 6 0.000000 0.000000 0.000000 0.000000 0.000000 0.025558
#
#
# Mechanical properties :
#
#
# Convention : Reuss Voigt Hill
#
# Bulk Modulus (GPa) = 20.40880 22.07300 21.24090
# Shear Modulus (GPa) = 12.58294 26.95839 19.77066
#
# Velocity S-wave (km/s) = 2.24176 3.28129 2.81001
# Velocity P-wave (km/s) = 3.85379 4.81368 4.36023
#
# Compressibility (1/GPa) = 0.04899847
#
# Stress axis : x y z
#
# Youngs Moduli (GPa) = 37.88573 50.58502 42.88424
#
# Poissons Ratio (x) = -0.06710 0.54991
# Poissons Ratio (y) = -0.05025 -0.05381
# Poissons Ratio (z) = 0.48581 -0.06347
#
# Static dielectric constant tensor:
#      x y z
#    x 2.088070 0.000000 0.000000 
#    y 0.000000 2.018860 0.000000 
#    z 0.000000 0.000000 2.005830 
# 
# From -- ./inp_files/20463.got.cif
#   From: 2010.05.17/outbox.cif.g08.bks.cpg/sg60_11_cif.got.tgz:20463.got - 2010.06.03 14:59:27.
