data_PCOD9457164
_publ_section_title
;
Structure prediction by ZEFSAII (Michael W. Deem and Ramdas Pophale) SiO2 
 PCOD9457164
Probable space group: P B C N
;
_chemical_formula_sum "Si O2"
_cell_formula_units_Z 44
_cell_length_a 15.871372
_cell_length_b 13.612360
_cell_length_c 8.681027
_cell_angle_alpha 90.000000
_cell_angle_beta 90.000000
_cell_angle_gamma 90.000000
_cell_volume 1875.508359
_symmetry_space_group_name_H-M "P B C N"
_symmetry_group_IT_number 60
_symmetry_cell_setting 'orthorhombic'
loop_
_space_group_symop_operation_xyz
x,y,z
1/2-x,1/2-y,1/2+z
1/2+x,1/2-y,-z
-x,y,1/2-z
-x,-y,-z
1/2+x,1/2+y,1/2-z
1/2-x,1/2+y,z
x,-y,1/2+z
loop_
_atom_site_type_symbol
_atom_site_label
_atom_site_fract_x
_atom_site_fract_y
_atom_site_fract_z
Si Si1 0.329932 0.365092 0.187011
Si Si2 0.429760 0.135821 0.968420
Si Si3 0.365000 0.413898 0.684873
Si Si4 0.478546 0.344608 0.968975
Si Si5 0.500000 0.027526 0.250000
Si Si6 0.244831 0.222293 0.985828
O O1 0.324062 0.480829 0.213179
O O2 0.311340 0.298912 0.336138
O O3 0.424974 0.350925 0.124611
O O4 0.265472 0.329583 0.053148
O O5 0.444739 0.094906 0.138952
O O6 0.493131 0.228049 0.941824
O O7 0.336359 0.177140 0.949957
O O8 0.445788 0.045717 0.855247
O O9 0.415124 0.379942 0.835115
O O10 0.437766 0.409024 0.551732
O O11 0.296733 0.337397 0.626016
#
# Coordination Sequence:
#
# PCOD9457164 Si02
#       6
#     8   8   8   8   4   8
#     4  11  24  43  67 100 141 191 233 297 357 424
#     4  10  23  43  67 102 135 189 233 302 348 428
#     4  11  23  44  72 103 140 191 234 305 351 433
#     4  10  23  45  70 103 145 183 247 294 362 421
#     4  10  22  44  68  96 140 186 244 276 362 432
#     4  11  25  42  65 105 143 180 243 291 364 419
#
# _framework density 23.460307
#
# number of rings (size 3 to 8) (size 9 to 14) (size 15 to 20)
#    0.000    1.455    0.000    4.909    2.545    5.091 
#    6.545    1.818    0.000    0.000    0.000    0.000 
#    0.000    0.000    0.000    0.000    0.000    0.000 
#
# Total GULP energy -246186.909633 kJ/mol
# GULP energy per Si atom -5595.157037 kJ/mol
# Density = 2.340691 g / cm^3
# Si number density = 23.460307 Si / 1000 Ang^3
#
#
#
# Elastic Constant Matrix: (Units=GPa)
#
#
# Indices 1 2 3 4 5 6 
#
# 1 51.6134 17.8831 26.4973 0.0000 0.0000 0.0000
# 2 17.8831 120.8872 32.7025 0.0000 0.0000 0.0000
# 3 26.4973 32.7025 100.7530 0.0000 0.0000 0.0000
# 4 0.0000 0.0000 0.0000 27.8845 0.0000 0.0000
# 5 0.0000 0.0000 0.0000 0.0000 54.5206 0.0000
# 6 0.0000 0.0000 0.0000 0.0000 0.0000 33.9596
#
#
#
# Elastic Compliance Matrix: (Units=1/GPa)
#
#
# Indices 1 2 3 4 5 6 
#
# 1 0.022798 -0.001919 -0.005373 0.000000 0.000000 0.000000
# 2 -0.001919 0.009230 -0.002491 0.000000 0.000000 0.000000
# 3 -0.005373 -0.002491 0.012147 0.000000 0.000000 0.000000
# 4 0.000000 0.000000 0.000000 0.035862 0.000000 0.000000
# 5 0.000000 0.000000 0.000000 0.000000 0.018342 0.000000
# 6 0.000000 0.000000 0.000000 0.000000 0.000000 0.029447
#
#
# Mechanical properties :
#
#
# Convention : Reuss Voigt Hill
#
# Bulk Modulus (GPa) = 40.63601 47.49103 44.06352
# Shear Modulus (GPa) = 32.13480 36.35100 34.24290
#
# Velocity S-wave (km/s) = 3.70503 3.94060 3.82463
# Velocity P-wave (km/s) = 5.97175 6.40246 6.19085
#
# Compressibility (1/GPa) = 0.02460872
#
# Stress axis : x y z
#
# Youngs Moduli (GPa) = 43.86345 108.34254 82.32580
#
# Poissons Ratio (x) = 0.20792 0.44232
# Poissons Ratio (y) = 0.08418 0.20509
# Poissons Ratio (z) = 0.23567 0.26990
#
# Static dielectric constant tensor:
#      x y z
#    x 1.882020 0.000000 0.000000 
#    y 0.000000 1.882830 0.000000 
#    z 0.000000 0.000000 1.943600 
# 
# From -- ./inp_files/6657.got.cif
#   From: 2010.05.17/outbox.cif.g08.bks.cpg/sg60_4_cif.got.tgz:6657.got - 2010.06.03 14:59:27.
