data_PCOD9457788
_publ_section_title
;
Structure prediction by ZEFSAII (Michael W. Deem and Ramdas Pophale) SiO2 
 PCOD9457788
Probable space group: P B C N
;
_chemical_formula_sum "Si O2"
_cell_formula_units_Z 32
_cell_length_a 21.419266
_cell_length_b 5.280646
_cell_length_c 12.209946
_cell_angle_alpha 90.000000
_cell_angle_beta 90.000000
_cell_angle_gamma 90.000000
_cell_volume 1381.037216
_symmetry_space_group_name_H-M "P B C N"
_symmetry_group_IT_number 60
_symmetry_cell_setting 'orthorhombic'
loop_
_space_group_symop_operation_xyz
x,y,z
1/2-x,1/2-y,1/2+z
1/2+x,1/2-y,-z
-x,y,1/2-z
-x,-y,-z
1/2+x,1/2+y,1/2-z
1/2-x,1/2+y,z
x,-y,1/2+z
loop_
_atom_site_type_symbol
_atom_site_label
_atom_site_fract_x
_atom_site_fract_y
_atom_site_fract_z
Si Si1 0.230009 0.268325 0.005555
Si Si2 0.653342 0.882581 0.111651
Si Si3 0.063335 0.110627 0.550489
Si Si4 0.065981 0.623341 0.689355
O O1 0.238846 0.006163 0.067300
O O2 0.164141 0.363565 0.961174
O O3 0.276795 0.228291 0.900808
O O4 0.621396 0.937570 0.225663
O O5 0.609622 0.688323 0.046742
O O6 0.054720 0.376860 0.614162
O O7 0.084204 0.885581 0.630602
O O8 0.000000 0.000000 0.500000
O O9 0.000000 0.669396 0.750000
#
# Coordination Sequence:
#
# PCOD9457788 Si02
#       4
#     8   8   8   8
#     4   8  20  38  69  89 134 185 204 286 338 399
#     4  10  24  45  70  96 144 171 236 273 356 406
#     4  12  27  43  69 103 136 183 227 291 346 416
#     4  12  27  42  70 102 135 183 228 283 350 413
#
# _framework density 23.170991000000001
#
# number of rings (size 3 to 8) (size 9 to 14) (size 15 to 20)
#    1.500    0.000    2.500    1.500    7.000    0.000 
#    0.000    7.500    0.000    0.000    0.000    0.000 
#    0.000    0.000    0.000    0.000    0.000    0.000 
#
# Total GULP energy -178379.025097 kJ/mol
# GULP energy per Si atom -5574.344534 kJ/mol
# Density = 2.311825 g / cm^3
# Si number density = 23.170991 Si / 1000 Ang^3
#
#
#
# Elastic Constant Matrix: (Units=GPa)
#
#
# Indices 1 2 3 4 5 6 
#
# 1 68.8319 -6.7399 9.1784 0.0000 0.0000 0.0000
# 2 -6.7399 151.5742 26.3213 0.0000 0.0000 0.0000
# 3 9.1784 26.3213 32.0625 0.0000 0.0000 0.0000
# 4 0.0000 0.0000 0.0000 20.6620 0.0000 0.0000
# 5 0.0000 0.0000 0.0000 0.0000 11.1155 0.0000
# 6 0.0000 0.0000 0.0000 0.0000 0.0000 32.8081
#
#
#
# Elastic Compliance Matrix: (Units=1/GPa)
#
#
# Indices 1 2 3 4 5 6 
#
# 1 0.015471 0.001699 -0.005824 0.000000 0.000000 0.000000
# 2 0.001699 0.007881 -0.006956 0.000000 0.000000 0.000000
# 3 -0.005824 -0.006956 0.038567 0.000000 0.000000 0.000000
# 4 0.000000 0.000000 0.000000 0.048398 0.000000 0.000000
# 5 0.000000 0.000000 0.000000 0.000000 0.089965 0.000000
# 6 0.000000 0.000000 0.000000 0.000000 0.000000 0.030480
#
#
# Mechanical properties :
#
#
# Convention : Reuss Voigt Hill
#
# Bulk Modulus (GPa) = 25.15258 34.44315 29.79786
# Shear Modulus (GPa) = 18.78454 27.83102 23.30778
#
# Velocity S-wave (km/s) = 2.85035 3.46947 3.17504
# Velocity P-wave (km/s) = 4.65956 5.56297 5.13119
#
# Compressibility (1/GPa) = 0.03975736
#
# Stress axis : x y z
#
# Youngs Moduli (GPa) = 64.63655 126.88811 25.92894
#
# Poissons Ratio (x) = -0.21562 0.15101
# Poissons Ratio (y) = -0.10984 0.18037
# Poissons Ratio (z) = 0.37644 0.88266
#
# Static dielectric constant tensor:
#      x y z
#    x 1.947940 0.000000 0.000000 
#    y 0.000000 2.015650 0.000000 
#    z 0.000000 0.000000 1.865880 
# 
# From -- ./inp_files/12957.got.cif
#   From: 2010.05.17/outbox.cif.g08.bks.cpg/sg60_7_cif.got.tgz:12957.got - 2010.06.03 14:59:27.
