data_PCOD9457315
_publ_section_title
;
Structure prediction by ZEFSAII (Michael W. Deem and Ramdas Pophale) SiO2 
 PCOD9457315
Probable space group: P B C N
;
_chemical_formula_sum "Si O2"
_cell_formula_units_Z 40
_cell_length_a 5.403184
_cell_length_b 19.031649
_cell_length_c 17.994806
_cell_angle_alpha 90.000000
_cell_angle_beta 90.000000
_cell_angle_gamma 90.000000
_cell_volume 1850.432918
_symmetry_space_group_name_H-M "P B C N"
_symmetry_group_IT_number 60
_symmetry_cell_setting 'orthorhombic'
loop_
_space_group_symop_operation_xyz
x,y,z
1/2-x,1/2-y,1/2+z
1/2+x,1/2-y,-z
-x,y,1/2-z
-x,-y,-z
1/2+x,1/2+y,1/2-z
1/2-x,1/2+y,z
x,-y,1/2+z
loop_
_atom_site_type_symbol
_atom_site_label
_atom_site_fract_x
_atom_site_fract_y
_atom_site_fract_z
Si Si1 0.421344 0.415324 0.076263
Si Si2 0.294645 0.981543 0.940323
Si Si3 0.759516 0.822457 0.795078
Si Si4 0.867967 0.525828 0.321913
Si Si5 0.207826 0.758273 0.049601
O O1 0.695034 0.444361 0.090294
O O2 0.266187 0.466602 0.129997
O O3 0.350128 0.335569 0.082383
O O4 0.392233 0.435144 0.988272
O O5 0.414925 0.941496 0.872987
O O6 0.500000 0.000000 0.000000
O O7 0.500000 0.810479 0.750000
O O8 0.792715 0.906816 0.802774
O O9 0.741778 0.791298 0.878487
O O10 0.000000 0.794873 0.750000
O O11 0.000000 0.495466 0.250000
O O12 0.463204 0.759735 0.000779
#
# Coordination Sequence:
#
# PCOD9457315 Si02
#       5
#     8   8   8   8   8
#     4  10  23  39  68  99 130 175 230 292 344 404
#     4   9  20  39  64  96 129 164 221 293 345 397
#     4  11  26  48  68 101 148 194 232 294 370 437
#     4  10  23  39  68  96 132 176 229 284 351 420
#     4  12  28  46  73 105 142 195 246 293 352 437
#
# _framework density 21.616564
#
# number of rings (size 3 to 8) (size 9 to 14) (size 15 to 20)
#    0.000    1.600    0.000    2.400   19.600    0.800 
#    3.600    0.000    0.000    0.000    0.000    0.000 
#    0.000    0.000    0.000    0.000    0.000    0.000 
#
# Total GULP energy -222958.520315 kJ/mol
# GULP energy per Si atom -5573.963008 kJ/mol
# Density = 2.156736 g / cm^3
# Si number density = 21.616564 Si / 1000 Ang^3
#
#
#
# Elastic Constant Matrix: (Units=GPa)
#
#
# Indices 1 2 3 4 5 6 
#
# 1 128.0375 40.7203 67.0277 0.0000 0.0000 0.0000
# 2 40.7203 100.7462 38.1917 0.0000 0.0000 0.0000
# 3 67.0277 38.1917 144.0583 0.0000 0.0000 0.0000
# 4 0.0000 0.0000 0.0000 36.7260 0.0000 0.0000
# 5 0.0000 0.0000 0.0000 0.0000 34.3859 0.0000
# 6 0.0000 0.0000 0.0000 0.0000 0.0000 22.0183
#
#
#
# Elastic Compliance Matrix: (Units=1/GPa)
#
#
# Indices 1 2 3 4 5 6 
#
# 1 0.010984 -0.002782 -0.004373 0.000000 0.000000 0.000000
# 2 -0.002782 0.011739 -0.001818 0.000000 0.000000 0.000000
# 3 -0.004373 -0.001818 0.009458 0.000000 0.000000 0.000000
# 4 0.000000 0.000000 0.000000 0.027229 0.000000 0.000000
# 5 0.000000 0.000000 0.000000 0.000000 0.029082 0.000000
# 6 0.000000 0.000000 0.000000 0.000000 0.000000 0.045417
#
#
# Mechanical properties :
#
#
# Convention : Reuss Voigt Hill
#
# Bulk Modulus (GPa) = 70.24431 73.85795 72.05113
# Shear Modulus (GPa) = 31.92828 33.75286 32.84057
#
# Velocity S-wave (km/s) = 3.84738 3.95579 3.90196
# Velocity P-wave (km/s) = 7.23205 7.42333 7.32832
#
# Compressibility (1/GPa) = 0.01423603
#
# Stress axis : x y z
#
# Youngs Moduli (GPa) = 91.03833 85.18256 105.72584
#
# Poissons Ratio (x) = 0.23697 0.46237
# Poissons Ratio (y) = 0.25326 0.19220
# Poissons Ratio (z) = 0.39814 0.15486
#
# Static dielectric constant tensor:
#      x y z
#    x 1.942990 0.000000 0.000000 
#    y 0.000000 1.821280 0.000000 
#    z 0.000000 0.000000 1.902910 
# 
# From -- ./inp_files/18516.got.cif
#   From: 2010.05.17/outbox.cif.g08.bks.cpg/sg60_10_cif.got.tgz:18516.got - 2010.06.03 14:59:27.
