data_PCOD9457553
_publ_section_title
;
Structure prediction by ZEFSAII (Michael W. Deem and Ramdas Pophale) SiO2 
 PCOD9457553
Probable space group: P B C N
;
_chemical_formula_sum "Si O2"
_cell_formula_units_Z 48
_cell_length_a 11.333071
_cell_length_b 11.738785
_cell_length_c 17.768811
_cell_angle_alpha 90.000000
_cell_angle_beta 90.000000
_cell_angle_gamma 90.000000
_cell_volume 2363.900138
_symmetry_space_group_name_H-M "P B C N"
_symmetry_group_IT_number 60
_symmetry_cell_setting 'orthorhombic'
loop_
_space_group_symop_operation_xyz
x,y,z
1/2-x,1/2-y,1/2+z
1/2+x,1/2-y,-z
-x,y,1/2-z
-x,-y,-z
1/2+x,1/2+y,1/2-z
1/2-x,1/2+y,z
x,-y,1/2+z
loop_
_atom_site_type_symbol
_atom_site_label
_atom_site_fract_x
_atom_site_fract_y
_atom_site_fract_z
Si Si1 0.406380 0.225209 0.097346
Si Si2 0.442444 0.969152 0.825154
Si Si3 0.308865 0.639650 0.323547
Si Si4 0.576966 0.189890 0.579468
Si Si5 0.145019 0.183581 0.155065
Si Si6 0.990105 0.959831 0.338614
O O1 0.470843 0.127733 0.144793
O O2 0.269816 0.223333 0.122693
O O3 0.467424 0.346097 0.115384
O O4 0.419378 0.197313 0.009679
O O5 0.500000 0.021059 0.750000
O O6 0.318741 0.909677 0.807155
O O7 0.421261 0.063385 0.888306
O O8 0.315003 0.737227 0.386013
O O9 0.356739 0.694069 0.245790
O O10 0.393007 0.536243 0.351016
O O11 0.459631 0.248909 0.614007
O O12 0.116486 0.048726 0.145630
O O13 0.000000 0.929754 0.250000
#
# Coordination Sequence:
#
# PCOD9457553 Si02
#       6
#     8   8   8   8   8   8
#     4  12  26  40  68 103 134 172 220 277 336 398
#     4  12  25  43  67  98 130 173 230 271 328 393
#     4  10  23  45  70  93 130 177 231 271 318 403
#     4  11  27  43  67  98 140 177 211 280 345 387
#     4  10  23  45  67  96 133 175 226 270 333 392
#     4   9  22  42  67  94 125 175 223 270 325 390
#
# _framework density 20.305427000000002
#
# number of rings (size 3 to 8) (size 9 to 14) (size 15 to 20)
#    0.000    1.333    1.667    3.500    7.000    5.333 
#    0.000    0.000    0.000    0.000    0.000    0.000 
#    0.000    0.000    0.000    0.000    0.000    0.000 
#
# Total GULP energy -268290.569763 kJ/mol
# GULP energy per Si atom -5589.386870 kJ/mol
# Density = 2.025921 g / cm^3
# Si number density = 20.305427 Si / 1000 Ang^3
#
#
#
# Elastic Constant Matrix: (Units=GPa)
#
#
# Indices 1 2 3 4 5 6 
#
# 1 95.8329 7.4063 20.0248 0.0000 0.0000 0.0000
# 2 7.4063 51.4590 15.6160 0.0000 0.0000 0.0000
# 3 20.0248 15.6160 75.6883 0.0000 0.0000 0.0000
# 4 0.0000 0.0000 0.0000 1146.0838 0.0000 0.0000
# 5 0.0000 0.0000 0.0000 0.0000 18.2157 0.0000
# 6 0.0000 0.0000 0.0000 0.0000 0.0000 4.9317
#
#
#
# Elastic Compliance Matrix: (Units=1/GPa)
#
#
# Indices 1 2 3 4 5 6 
#
# 1 0.011073 -0.000752 -0.002774 0.000000 0.000000 0.000000
# 2 -0.000752 0.020782 -0.004089 0.000000 0.000000 0.000000
# 3 -0.002774 -0.004089 0.014790 0.000000 0.000000 0.000000
# 4 0.000000 0.000000 0.000000 0.000873 0.000000 0.000000
# 5 0.000000 0.000000 0.000000 0.000000 0.054898 0.000000
# 6 0.000000 0.000000 0.000000 0.000000 0.000000 0.202769
#
#
# Mechanical properties :
#
#
# Convention : Reuss Voigt Hill
#
# Bulk Modulus (GPa) = 31.83253 34.34162 33.08708
# Shear Modulus (GPa) = 15.11099 245.84178 130.47638
#
# Velocity S-wave (km/s) = 2.73093 11.01521 8.02474
# Velocity P-wave (km/s) = 5.06507 13.36896 10.10900
#
# Compressibility (1/GPa) = 0.03141440
#
# Stress axis : x y z
#
# Youngs Moduli (GPa) = 90.31265 48.11863 67.61458
#
# Poissons Ratio (x) = 0.03617 0.18759
# Poissons Ratio (y) = 0.06789 0.27647
# Poissons Ratio (z) = 0.25056 0.19675
#
# Static dielectric constant tensor:
#      x y z
#    x 1.730020 0.000000 0.000000 
#    y 0.000000 1.704350 0.000000 
#    z 0.000000 0.000000 1.701630 
# 
# From -- ./inp_files/20007.got.cif
#   From: 2010.05.17/outbox.cif.g08.bks.cpg/sg60_11_cif.got.tgz:20007.got - 2010.06.03 14:59:27.
