data_PCOD9457923
_publ_section_title
;
Structure prediction by ZEFSAII (Michael W. Deem and Ramdas Pophale) SiO2 
 PCOD9457923
Probable space group: P B C N
;
_chemical_formula_sum "Si O2"
_cell_formula_units_Z 64
_cell_length_a 12.695330
_cell_length_b 8.861524
_cell_length_c 24.995486
_cell_angle_alpha 90.000000
_cell_angle_beta 90.000000
_cell_angle_gamma 90.000000
_cell_volume 2811.991462
_symmetry_space_group_name_H-M "P B C N"
_symmetry_group_IT_number 60
_symmetry_cell_setting 'orthorhombic'
loop_
_space_group_symop_operation_xyz
x,y,z
1/2-x,1/2-y,1/2+z
1/2+x,1/2-y,-z
-x,y,1/2-z
-x,-y,-z
1/2+x,1/2+y,1/2-z
1/2-x,1/2+y,z
x,-y,1/2+z
loop_
_atom_site_type_symbol
_atom_site_label
_atom_site_fract_x
_atom_site_fract_y
_atom_site_fract_z
Si Si1 0.884124 0.844642 0.770356
Si Si2 0.281505 0.061487 0.786286
Si Si3 0.480164 0.382185 0.428837
Si Si4 0.524259 0.837527 0.024776
Si Si5 0.783822 0.997276 0.930907
Si Si6 0.297959 0.377808 0.954959
Si Si7 0.361310 0.786265 0.113230
Si Si8 0.849217 0.295545 0.643286
O O1 0.799597 0.970263 0.751813
O O2 0.851098 0.686492 0.742921
O O3 0.882012 0.804600 0.832918
O O4 0.000000 0.889040 0.750000
O O5 0.350718 0.935051 0.816239
O O6 0.214035 0.158925 0.828822
O O7 0.477898 0.284988 0.483132
O O8 0.595349 0.451526 0.423865
O O9 0.389755 0.508629 0.434165
O O10 0.456538 0.273513 0.379076
O O11 0.643133 0.780408 0.033182
O O12 0.467132 0.823322 0.081578
O O13 0.500000 0.000000 0.000000
O O14 0.707191 0.062587 0.885521
O O15 0.788164 0.819312 0.924091
O O16 0.753603 0.054025 0.989966
O O17 0.213367 0.351417 0.909170
#
# Coordination Sequence:
#
# PCOD9457923 Si02
#       8
#     8   8   8   8   8   8   8   8
#     4  11  27  50  76  98 142 187 240 314 371 417
#     4  10  25  48  66 112 129 176 252 300 346 438
#     4  11  22  44  63 104 138 184 224 279 343 430
#     4  11  25  39  66 104 141 175 234 277 338 443
#     4  11  25  41  66  99 144 182 228 278 346 434
#     4  11  22  42  66 102 142 185 223 278 348 429
#     4  12  25  44  70  97 136 188 235 284 361 419
#     4  11  23  39  77  96 140 179 234 290 359 410
#
# _framework density 22.759671999999998
#
# number of rings (size 3 to 8) (size 9 to 14) (size 15 to 20)
#    0.000    1.000    3.750    2.250   10.500    0.000 
#    2.250    1.250    0.000    0.000    0.000    0.000 
#    0.000    0.000    0.000    0.000    0.000    0.000 
#
# Total GULP energy -358350.267031 kJ/mol
# GULP energy per Si atom -5599.222922 kJ/mol
# Density = 2.270787 g / cm^3
# Si number density = 22.759672 Si / 1000 Ang^3
#
#
#
# Elastic Constant Matrix: (Units=GPa)
#
#
# Indices 1 2 3 4 5 6 
#
# 1 39.2792 -0.1193 2.3916 0.0000 0.0000 0.0000
# 2 -0.1193 72.3108 1.2683 0.0000 0.0000 0.0000
# 3 2.3916 1.2683 95.6844 0.0000 0.0000 0.0000
# 4 0.0000 0.0000 0.0000 31.3504 0.0000 0.0000
# 5 0.0000 0.0000 0.0000 0.0000 31.9346 0.0000
# 6 0.0000 0.0000 0.0000 0.0000 0.0000 22.5109
#
#
#
# Elastic Compliance Matrix: (Units=1/GPa)
#
#
# Indices 1 2 3 4 5 6 
#
# 1 0.025498 0.000053 -0.000638 0.000000 0.000000 0.000000
# 2 0.000053 0.013833 -0.000185 0.000000 0.000000 0.000000
# 3 -0.000638 -0.000185 0.010469 0.000000 0.000000 0.000000
# 4 0.000000 0.000000 0.000000 0.031898 0.000000 0.000000
# 5 0.000000 0.000000 0.000000 0.000000 0.031314 0.000000
# 6 0.000000 0.000000 0.000000 0.000000 0.000000 0.044423
#
#
# Mechanical properties :
#
#
# Convention : Reuss Voigt Hill
#
# Bulk Modulus (GPa) = 20.72073 23.81728 22.26901
# Shear Modulus (GPa) = 28.56164 30.74143 29.65153
#
# Velocity S-wave (km/s) = 3.54633 3.67917 3.61336
# Velocity P-wave (km/s) = 5.08847 5.34189 5.21672
#
# Compressibility (1/GPa) = 0.04826085
#
# Stress axis : x y z
#
# Youngs Moduli (GPa) = 39.21909 72.29339 95.51625
#
# Poissons Ratio (x) = -0.00385 0.06094
# Poissons Ratio (y) = -0.00209 0.01764
# Poissons Ratio (z) = 0.02502 0.01335
#
# Static dielectric constant tensor:
#      x y z
#    x 1.829160 0.000000 0.000000 
#    y 0.000000 1.860400 0.000000 
#    z 0.000000 0.000000 1.861800 
# 
# From -- ./inp_files/24441.got.cif
#   From: 2010.05.17/outbox.cif.g08.bks.cpg/sg60_13_cif.got.tgz:24441.got - 2010.06.03 14:59:27.
