data_PCOD9457959
_publ_section_title
;
Structure prediction by ZEFSAII (Michael W. Deem and Ramdas Pophale) SiO2 
 PCOD9457959
Probable space group: P B C N
;
_chemical_formula_sum "Si O2"
_cell_formula_units_Z 36
_cell_length_a 9.689788
_cell_length_b 8.211979
_cell_length_c 18.447917
_cell_angle_alpha 90.000000
_cell_angle_beta 90.000000
_cell_angle_gamma 90.000000
_cell_volume 1467.943842
_symmetry_space_group_name_H-M "P B C N"
_symmetry_group_IT_number 60
_symmetry_cell_setting 'orthorhombic'
loop_
_space_group_symop_operation_xyz
x,y,z
1/2-x,1/2-y,1/2+z
1/2+x,1/2-y,-z
-x,y,1/2-z
-x,-y,-z
1/2+x,1/2+y,1/2-z
1/2-x,1/2+y,z
x,-y,1/2+z
loop_
_atom_site_type_symbol
_atom_site_label
_atom_site_fract_x
_atom_site_fract_y
_atom_site_fract_z
Si Si1 0.092706 0.784191 0.053777
Si Si2 0.415608 0.282717 0.889295
Si Si3 0.840016 0.448599 0.376265
Si Si4 0.500000 0.878824 0.750000
Si Si5 0.147124 0.126442 0.854719
O O1 0.124612 0.595103 0.068712
O O2 0.184585 0.890108 0.109886
O O3 0.934337 0.820508 0.072462
O O4 0.124573 0.827694 0.971513
O O5 0.567107 0.209559 0.891053
O O6 0.309996 0.144005 0.863760
O O7 0.395168 0.441304 0.840582
O O8 0.895259 0.516034 0.299429
O O9 0.592022 0.757794 0.701806
#
# Coordination Sequence:
#
# PCOD9457959 Si02
#       5
#     8   8   8   4   8
#     4  11  22  41  66 100 132 169 217 271 332 384
#     4  12  23  42  67  99 127 170 218 273 333 380
#     4  11  24  41  67  94 135 176 214 274 323 398
#     4  10  26  46  62  96 130 176 226 256 330 394
#     4  11  24  40  65  92 131 170 213 270 315 390
#
# _framework density 24.524097999999999
#
# number of rings (size 3 to 8) (size 9 to 14) (size 15 to 20)
#    0.000    0.889    0.000    8.000    0.000    8.000 
#    0.000    0.000    0.000    0.000    0.000    0.000 
#    0.000    0.000    0.000    0.000    0.000    0.000 
#
# Total GULP energy -201685.750041 kJ/mol
# GULP energy per Si atom -5602.381946 kJ/mol
# Density = 2.446828 g / cm^3
# Si number density = 24.524098 Si / 1000 Ang^3
#
#
#
# Elastic Constant Matrix: (Units=GPa)
#
#
# Indices 1 2 3 4 5 6 
#
# 1 64.2779 5.0639 14.1321 0.0000 0.0000 0.0000
# 2 5.0639 120.2319 24.9625 0.0000 0.0000 0.0000
# 3 14.1321 24.9625 97.2046 0.0000 0.0000 0.0000
# 4 0.0000 0.0000 0.0000 9.4439 0.0000 0.0000
# 5 0.0000 0.0000 0.0000 0.0000 12.1768 0.0000
# 6 0.0000 0.0000 0.0000 0.0000 0.0000 34.7287
#
#
#
# Elastic Compliance Matrix: (Units=1/GPa)
#
#
# Indices 1 2 3 4 5 6 
#
# 1 0.016076 -0.000203 -0.002285 0.000000 0.000000 0.000000
# 2 -0.000203 0.008788 -0.002227 0.000000 0.000000 0.000000
# 3 -0.002285 -0.002227 0.011192 0.000000 0.000000 0.000000
# 4 0.000000 0.000000 0.000000 0.105888 0.000000 0.000000
# 5 0.000000 0.000000 0.000000 0.000000 0.082123 0.000000
# 6 0.000000 0.000000 0.000000 0.000000 0.000000 0.028795
#
#
# Mechanical properties :
#
#
# Convention : Reuss Voigt Hill
#
# Bulk Modulus (GPa) = 37.55797 41.11462 39.33629
# Shear Modulus (GPa) = 18.43878 27.10695 22.77287
#
# Velocity S-wave (km/s) = 2.74499 3.32824 3.05059
# Velocity P-wave (km/s) = 5.03930 5.61880 5.33693
#
# Compressibility (1/GPa) = 0.02662551
#
# Stress axis : x y z
#
# Youngs Moduli (GPa) = 62.20525 113.78838 89.35103
#
# Poissons Ratio (x) = 0.02306 0.20418
# Poissons Ratio (y) = 0.01260 0.19902
# Poissons Ratio (z) = 0.14215 0.25345
#
# Static dielectric constant tensor:
#      x y z
#    x 1.862990 0.000000 0.000000 
#    y 0.000000 1.936220 0.000000 
#    z 0.000000 0.000000 1.931650 
# 
# From -- ./inp_files/21901.got.cif
#   From: 2010.05.17/outbox.cif.g08.bks.cpg/sg60_11_cif.got.tgz:21901.got - 2010.06.03 14:59:27.
