data_PCOD9457649
_publ_section_title
;
Structure prediction by ZEFSAII (Michael W. Deem and Ramdas Pophale) SiO2 
 PCOD9457649
Probable space group: P B C N
;
_chemical_formula_sum "Si O2"
_cell_formula_units_Z 48
_cell_length_a 27.190385
_cell_length_b 9.141764
_cell_length_c 9.037866
_cell_angle_alpha 90.000000
_cell_angle_beta 90.000000
_cell_angle_gamma 90.000000
_cell_volume 2246.525024
_symmetry_space_group_name_H-M "P B C N"
_symmetry_group_IT_number 60
_symmetry_cell_setting 'orthorhombic'
loop_
_space_group_symop_operation_xyz
x,y,z
1/2-x,1/2-y,1/2+z
1/2+x,1/2-y,-z
-x,y,1/2-z
-x,-y,-z
1/2+x,1/2+y,1/2-z
1/2-x,1/2+y,z
x,-y,1/2+z
loop_
_atom_site_type_symbol
_atom_site_label
_atom_site_fract_x
_atom_site_fract_y
_atom_site_fract_z
Si Si1 0.252982 0.485189 0.998883
Si Si2 0.319935 0.746090 0.905388
Si Si3 0.589495 0.841019 0.427015
Si Si4 0.000946 0.160783 0.928964
Si Si5 0.087804 0.339252 0.424226
Si Si6 0.179349 0.733289 0.093773
O O1 0.213428 0.590741 0.076087
O O2 0.285055 0.372956 0.094307
O O3 0.291344 0.594552 0.922902
O O4 0.220824 0.374044 0.901660
O O5 0.356969 0.772828 0.039428
O O6 0.348184 0.762538 0.750545
O O7 0.548940 0.743724 0.509417
O O8 0.579985 0.848675 0.251653
O O9 0.589112 0.000970 0.501027
O O10 0.954510 0.247931 0.995168
O O11 0.000000 0.156348 0.750000
O O12 0.000000 0.000000 0.000000
O O13 0.140475 0.266565 0.461640
#
# Coordination Sequence:
#
# PCOD9457649 Si02
#       6
#     8   8   8   8   8   8
#     4  10  24  40  66  98 140 180 236 284 348 396
#     4  11  23  42  67  99 137 183 234 284 342 406
#     4  12  26  46  72 103 139 182 231 282 343 410
#     4  12  27  50  77 106 140 176 222 280 343 410
#     4  12  26  46  72 103 139 182 231 282 343 410
#     4  11  23  42  67  99 137 183 234 284 342 406
#
# _framework density 21.366330999999999
#
# number of rings (size 3 to 8) (size 9 to 14) (size 15 to 20)
#    0.000    0.667    1.667    6.000    2.333    6.667 
#    0.000    0.000    0.000    0.000    0.000    0.000 
#    0.000    0.000    0.000    0.000    0.000    0.000 
#
# Total GULP energy -268371.136923 kJ/mol
# GULP energy per Si atom -5591.065353 kJ/mol
# Density = 2.131770 g / cm^3
# Si number density = 21.366331 Si / 1000 Ang^3
#
#
#
# Elastic Constant Matrix: (Units=GPa)
#
#
# Indices 1 2 3 4 5 6 
#
# 1 80.6573 23.2783 10.4641 0.0000 0.0000 0.0000
# 2 23.2783 69.9553 1.8853 0.0000 0.0000 0.0000
# 3 10.4641 1.8853 158.4953 0.0000 0.0000 0.0000
# 4 0.0000 0.0000 0.0000 12.1235 0.0000 0.0000
# 5 0.0000 0.0000 0.0000 0.0000 180.6652 0.0000
# 6 0.0000 0.0000 0.0000 0.0000 0.0000 28.1770
#
#
#
# Elastic Compliance Matrix: (Units=1/GPa)
#
#
# Indices 1 2 3 4 5 6 
#
# 1 0.013831 -0.004579 -0.000859 0.000000 0.000000 0.000000
# 2 -0.004579 0.015816 0.000114 0.000000 0.000000 0.000000
# 3 -0.000859 0.000114 0.006365 0.000000 0.000000 0.000000
# 4 0.000000 0.000000 0.000000 0.082485 0.000000 0.000000
# 5 0.000000 0.000000 0.000000 0.000000 0.005535 0.000000
# 6 0.000000 0.000000 0.000000 0.000000 0.000000 0.035490
#
#
# Mechanical properties :
#
#
# Convention : Reuss Voigt Hill
#
# Bulk Modulus (GPa) = 39.42623 42.26260 40.84441
# Shear Modulus (GPa) = 27.99187 62.42514 45.20850
#
# Velocity S-wave (km/s) = 3.62345 5.41110 4.60486
# Velocity P-wave (km/s) = 5.99987 7.67222 6.88699
#
# Compressibility (1/GPa) = 0.02536383
#
# Stress axis : x y z
#
# Youngs Moduli (GPa) = 72.30053 63.22878 157.11739
#
# Poissons Ratio (x) = 0.28954 0.13491
# Poissons Ratio (y) = 0.33109 -0.01794
# Poissons Ratio (z) = 0.06208 -0.00722
#
# Static dielectric constant tensor:
#      x y z
#    x 1.755830 0.000000 0.000000 
#    y 0.000000 1.743360 0.000000 
#    z 0.000000 0.000000 1.133760 
# 
# From -- ./inp_files/13034.got.cif
#   From: 2010.05.17/outbox.cif.g08.bks.cpg/sg60_7_cif.got.tgz:13034.got - 2010.06.03 14:59:27.
