data_PCOD9457160
_publ_section_title
;
Structure prediction by ZEFSAII (Michael W. Deem and Ramdas Pophale) SiO2 
 PCOD9457160
Probable space group: P B C N
;
_chemical_formula_sum "Si O2"
_cell_formula_units_Z 56
_cell_length_a 9.488647
_cell_length_b 19.793669
_cell_length_c 13.720578
_cell_angle_alpha 90.000000
_cell_angle_beta 90.000000
_cell_angle_gamma 90.000000
_cell_volume 2576.932250
_symmetry_space_group_name_H-M "P B C N"
_symmetry_group_IT_number 60
_symmetry_cell_setting 'orthorhombic'
loop_
_space_group_symop_operation_xyz
x,y,z
1/2-x,1/2-y,1/2+z
1/2+x,1/2-y,-z
-x,y,1/2-z
-x,-y,-z
1/2+x,1/2+y,1/2-z
1/2-x,1/2+y,z
x,-y,1/2+z
loop_
_atom_site_type_symbol
_atom_site_label
_atom_site_fract_x
_atom_site_fract_y
_atom_site_fract_z
Si Si1 0.540391 0.284376 0.506420
Si Si2 0.833494 0.564072 0.627895
Si Si3 0.085494 0.878110 0.650547
Si Si4 0.148634 0.593741 0.650541
Si Si5 0.162110 0.996607 0.031671
Si Si6 0.243463 0.761363 0.175510
Si Si7 0.224638 0.211385 0.890258
O O1 0.519640 0.354759 0.563284
O O2 0.631044 0.276832 0.408484
O O3 0.385228 0.263435 0.470802
O O4 0.622151 0.239501 0.584456
O O5 0.833961 0.557401 0.744582
O O6 0.760368 0.508036 0.562446
O O7 0.740609 0.630951 0.606055
O O8 0.998385 0.574870 0.603792
O O9 0.173941 0.940876 0.608818
O O10 0.180904 0.811090 0.666746
O O11 0.000000 0.893117 0.750000
O O12 0.278781 0.569099 0.585821
O O13 0.153086 0.673673 0.671537
O O14 0.000000 0.000000 0.000000
O O15 0.179248 0.765699 0.283644
#
# Coordination Sequence:
#
# PCOD9457160 Si02
#       7
#     8   8   8   8   8   8   8
#     4  12  21  40  64 100 137 178 223 282 352 409
#     4  10  22  44  67  96 130 180 232 280 342 414
#     4  12  25  42  70 101 144 181 227 289 354 412
#     4  10  24  42  74  97 131 183 235 285 344 421
#     4  12  26  45  68 102 140 188 231 287 350 422
#     4  11  23  42  69 103 133 180 232 290 345 414
#     4  11  23  39  67  99 140 174 225 284 350 418
#
# _framework density 21.731265
#
# number of rings (size 3 to 8) (size 9 to 14) (size 15 to 20)
#    0.000    0.857    4.286    2.571    4.000    0.000 
#    0.000    0.000   12.571    0.000    0.000    0.000 
#    0.000    0.000    0.000    0.000    0.000    0.000 
#
# Total GULP energy -312743.369591 kJ/mol
# GULP energy per Si atom -5584.703028 kJ/mol
# Density = 2.168180 g / cm^3
# Si number density = 21.731265 Si / 1000 Ang^3
#
#
#
# Elastic Constant Matrix: (Units=GPa)
#
#
# Indices 1 2 3 4 5 6 
#
# 1 99.3963 4.6253 28.7894 0.0000 0.0000 0.0000
# 2 4.6253 61.1339 13.5934 0.0000 0.0000 0.0000
# 3 28.7894 13.5934 81.5164 0.0000 0.0000 0.0000
# 4 0.0000 0.0000 0.0000 28.6363 0.0000 0.0000
# 5 0.0000 0.0000 0.0000 0.0000 48.9180 0.0000
# 6 0.0000 0.0000 0.0000 0.0000 0.0000 26.1353
#
#
#
# Elastic Compliance Matrix: (Units=1/GPa)
#
#
# Indices 1 2 3 4 5 6 
#
# 1 0.011207 0.000033 -0.003964 0.000000 0.000000 0.000000
# 2 0.000033 0.016988 -0.002845 0.000000 0.000000 0.000000
# 3 -0.003964 -0.002845 0.014142 0.000000 0.000000 0.000000
# 4 0.000000 0.000000 0.000000 0.034921 0.000000 0.000000
# 5 0.000000 0.000000 0.000000 0.000000 0.020442 0.000000
# 6 0.000000 0.000000 0.000000 0.000000 0.000000 0.038262
#
#
# Mechanical properties :
#
#
# Convention : Reuss Voigt Hill
#
# Bulk Modulus (GPa) = 34.73818 37.34031 36.03925
# Shear Modulus (GPa) = 31.42536 33.74049 32.58293
#
# Velocity S-wave (km/s) = 3.80687 3.94461 3.87635
# Velocity P-wave (km/s) = 5.94501 6.16171 6.05433
#
# Compressibility (1/GPa) = 0.02878677
#
# Stress axis : x y z
#
# Youngs Moduli (GPa) = 89.22816 58.86677 70.71301
#
# Poissons Ratio (x) = -0.00197 0.28028
# Poissons Ratio (y) = -0.00298 0.20115
# Poissons Ratio (z) = 0.35367 0.16745
#
# Static dielectric constant tensor:
#      x y z
#    x 1.796400 0.000000 0.000000 
#    y 0.000000 1.794270 0.000000 
#    z 0.000000 0.000000 1.805870 
# 
# From -- ./inp_files/15263.got.cif
#   From: 2010.05.17/outbox.cif.g08.bks.cpg/sg60_8_cif.got.tgz:15263.got - 2010.06.03 14:59:27.
