data_PCOD9457465
_publ_section_title
;
Structure prediction by ZEFSAII (Michael W. Deem and Ramdas Pophale) SiO2 
 PCOD9457465
Probable space group: P B C N
;
_chemical_formula_sum "Si O2"
_cell_formula_units_Z 56
_cell_length_a 8.831169
_cell_length_b 13.907786
_cell_length_c 22.059538
_cell_angle_alpha 90.000000
_cell_angle_beta 90.000000
_cell_angle_gamma 90.000000
_cell_volume 2709.396766
_symmetry_space_group_name_H-M "P B C N"
_symmetry_group_IT_number 60
_symmetry_cell_setting 'orthorhombic'
loop_
_space_group_symop_operation_xyz
x,y,z
1/2-x,1/2-y,1/2+z
1/2+x,1/2-y,-z
-x,y,1/2-z
-x,-y,-z
1/2+x,1/2+y,1/2-z
1/2-x,1/2+y,z
x,-y,1/2+z
loop_
_atom_site_type_symbol
_atom_site_label
_atom_site_fract_x
_atom_site_fract_y
_atom_site_fract_z
Si Si1 0.649997 0.501423 0.218444
Si Si2 0.773869 0.687298 0.404988
Si Si3 0.164302 0.509509 0.162341
Si Si4 0.293164 0.441793 0.479615
Si Si5 0.869771 0.390642 0.134885
Si Si6 0.626211 0.402555 0.432304
Si Si7 0.020130 0.201546 0.320618
O O1 0.500000 0.459790 0.250000
O O2 0.769249 0.528068 0.271259
O O3 0.732266 0.429987 0.174151
O O4 0.594094 0.596770 0.184028
O O5 0.879238 0.608572 0.371500
O O6 0.714002 0.634197 0.465309
O O7 0.843051 0.790095 0.422170
O O8 0.637009 0.699662 0.357053
O O9 0.299721 0.459638 0.123943
O O10 0.023834 0.437347 0.160264
O O11 0.156729 0.422353 0.433914
O O12 0.450367 0.425234 0.443868
O O13 0.293658 0.547807 0.509262
O O14 0.878891 0.277269 0.143702
O O15 0.000000 0.232025 0.250000
#
# Coordination Sequence:
#
# PCOD9457465 Si02
#       7
#     8   8   8   8   8   8   8
#     4  11  23  42  70  95 138 176 225 282 350 416
#     4  11  23  41  73  97 132 185 230 286 342 409
#     4  11  22  42  66 101 132 177 229 287 340 406
#     4  10  26  42  64 101 135 182 225 286 340 421
#     4  12  26  42  70 103 138 177 233 284 350 415
#     4  10  23  43  68  89 139 176 231 271 351 408
#     4  11  23  45  69  98 136 183 225 284 360 408
#
# _framework density 20.668807999999999
#
# number of rings (size 3 to 8) (size 9 to 14) (size 15 to 20)
#    0.000    1.143    4.286    2.143    6.000    4.571 
#    0.000    1.429    0.000    0.000    0.000    0.000 
#    0.000    0.000    0.000    0.000    0.000    0.000 
#
# Total GULP energy -312938.790275 kJ/mol
# GULP energy per Si atom -5588.192683 kJ/mol
# Density = 2.062176 g / cm^3
# Si number density = 20.668808 Si / 1000 Ang^3
#
#
#
# Elastic Constant Matrix: (Units=GPa)
#
#
# Indices 1 2 3 4 5 6 
#
# 1 41.0632 0.6591 28.7416 0.0000 0.0000 0.0000
# 2 0.6591 63.2327 9.8909 0.0000 0.0000 0.0000
# 3 28.7416 9.8909 55.6169 0.0000 0.0000 0.0000
# 4 0.0000 0.0000 0.0000 14.4981 0.0000 0.0000
# 5 0.0000 0.0000 0.0000 0.0000 30.3341 0.0000
# 6 0.0000 0.0000 0.0000 0.0000 0.0000 31.9244
#
#
#
# Elastic Compliance Matrix: (Units=1/GPa)
#
#
# Indices 1 2 3 4 5 6 
#
# 1 0.038628 0.002798 -0.020460 0.000000 0.000000 0.000000
# 2 0.002798 0.016470 -0.004375 0.000000 0.000000 0.000000
# 3 -0.020460 -0.004375 0.029331 0.000000 0.000000 0.000000
# 4 0.000000 0.000000 0.000000 0.068975 0.000000 0.000000
# 5 0.000000 0.000000 0.000000 0.000000 0.032966 0.000000
# 6 0.000000 0.000000 0.000000 0.000000 0.000000 0.031324
#
#
# Mechanical properties :
#
#
# Convention : Reuss Voigt Hill
#
# Bulk Modulus (GPa) = 24.77968 26.49955 25.63962
# Shear Modulus (GPa) = 18.16731 23.39274 20.78002
#
# Velocity S-wave (km/s) = 2.96796 3.36786 3.17421
# Velocity P-wave (km/s) = 4.87443 5.28887 5.08587
#
# Compressibility (1/GPa) = 0.04035565
#
# Stress axis : x y z
#
# Youngs Moduli (GPa) = 25.88780 60.71742 34.09333
#
# Poissons Ratio (x) = -0.16987 0.69754
# Poissons Ratio (y) = -0.07243 0.14915
# Poissons Ratio (z) = 0.52966 0.26562
#
# Static dielectric constant tensor:
#      x y z
#    x 1.732440 0.000000 0.000000 
#    y 0.000000 1.728140 0.000000 
#    z 0.000000 0.000000 1.758720 
# 
# From -- ./inp_files/22236.got.cif
#   From: 2010.05.17/outbox.cif.g08.bks.cpg/sg60_12_cif.got.tgz:22236.got - 2010.06.03 14:59:27.
