data_PCOD9457817
_publ_section_title
;
Structure prediction by ZEFSAII (Michael W. Deem and Ramdas Pophale) SiO2 
 PCOD9457817
Probable space group: P B C N
;
_chemical_formula_sum "Si O2"
_cell_formula_units_Z 48
_cell_length_a 21.630828
_cell_length_b 9.391376
_cell_length_c 10.547838
_cell_angle_alpha 90.000000
_cell_angle_beta 90.000000
_cell_angle_gamma 90.000000
_cell_volume 2142.721975
_symmetry_space_group_name_H-M "P B C N"
_symmetry_group_IT_number 60
_symmetry_cell_setting 'orthorhombic'
loop_
_space_group_symop_operation_xyz
x,y,z
1/2-x,1/2-y,1/2+z
1/2+x,1/2-y,-z
-x,y,1/2-z
-x,-y,-z
1/2+x,1/2+y,1/2-z
1/2-x,1/2+y,z
x,-y,1/2+z
loop_
_atom_site_type_symbol
_atom_site_label
_atom_site_fract_x
_atom_site_fract_y
_atom_site_fract_z
Si Si1 0.931781 0.447266 0.469911
Si Si2 0.281883 0.937967 0.362502
Si Si3 0.863308 0.257844 0.309304
Si Si4 0.660158 0.572992 0.802533
Si Si5 0.248812 0.808683 0.007676
Si Si6 0.924958 0.662984 0.248936
O O1 0.925396 0.309675 0.378579
O O2 0.905427 0.567559 0.372169
O O3 0.908079 0.403578 0.610435
O O4 0.000000 0.500000 0.500000
O O5 0.341378 0.854456 0.308459
O O6 0.221213 0.901641 0.281201
O O7 0.271136 0.854500 0.493121
O O8 0.273035 0.105164 0.384830
O O9 0.809128 0.302203 0.406323
O O10 0.861062 0.089868 0.287917
O O11 0.607810 0.685227 0.765133
O O12 0.688868 0.607976 0.940644
O O13 0.000000 0.673782 0.250000
#
# Coordination Sequence:
#
# PCOD9457817 Si02
#       6
#     8   8   8   8   8   8
#     4  10  24  46  71 101 133 186 241 297 349 412
#     4  11  23  39  60  97 139 176 223 274 353 422
#     4  11  24  38  66  98 134 182 228 286 346 421
#     4  11  24  41  63 102 136 183 231 283 353 420
#     4  11  23  39  61  97 141 178 221 284 347 430
#     4  10  24  47  72  98 138 185 241 297 349 414
#
# _framework density 22.401415
#
# number of rings (size 3 to 8) (size 9 to 14) (size 15 to 20)
#    0.000    1.333    3.333    1.000    7.000    0.000 
#    0.000    5.833    0.000    0.000    0.000    0.000 
#    0.000    0.000    0.000    0.000    0.000    0.000 
#
# Total GULP energy -267470.205107 kJ/mol
# GULP energy per Si atom -5572.295940 kJ/mol
# Density = 2.235043 g / cm^3
# Si number density = 22.401415 Si / 1000 Ang^3
#
#
#
# Elastic Constant Matrix: (Units=GPa)
#
#
# Indices 1 2 3 4 5 6 
#
# 1 78.4297 48.9217 28.1411 0.0000 0.0000 0.0000
# 2 48.9217 193.7904 48.7405 0.0000 0.0000 0.0000
# 3 28.1411 48.7405 72.6069 0.0000 0.0000 0.0000
# 4 0.0000 0.0000 0.0000 36.9493 0.0000 0.0000
# 5 0.0000 0.0000 0.0000 0.0000 26.7519 0.0000
# 6 0.0000 0.0000 0.0000 0.0000 0.0000 41.0900
#
#
#
# Elastic Compliance Matrix: (Units=1/GPa)
#
#
# Indices 1 2 3 4 5 6 
#
# 1 0.016149 -0.003011 -0.004238 0.000000 0.000000 0.000000
# 2 -0.003011 0.006770 -0.003378 0.000000 0.000000 0.000000
# 3 -0.004238 -0.003378 0.017683 0.000000 0.000000 0.000000
# 4 0.000000 0.000000 0.000000 0.027064 0.000000 0.000000
# 5 0.000000 0.000000 0.000000 0.000000 0.037380 0.000000
# 6 0.000000 0.000000 0.000000 0.000000 0.000000 0.024337
#
#
# Mechanical properties :
#
#
# Convention : Reuss Voigt Hill
#
# Bulk Modulus (GPa) = 51.68280 66.27042 58.97661
# Shear Modulus (GPa) = 31.82990 35.55980 33.69485
#
# Velocity S-wave (km/s) = 3.77356 3.98853 3.88253
# Velocity P-wave (km/s) = 6.48904 7.13152 6.81785
#
# Compressibility (1/GPa) = 0.01934880
#
# Stress axis : x y z
#
# Youngs Moduli (GPa) = 61.92359 147.71496 56.55261
#
# Poissons Ratio (x) = 0.44475 0.23966
# Poissons Ratio (y) = 0.18644 0.19101
# Poissons Ratio (z) = 0.26242 0.49892
#
# Static dielectric constant tensor:
#      x y z
#    x 1.851700 0.000000 0.000000 
#    y 0.000000 1.785940 0.000000 
#    z 0.000000 0.000000 1.970700 
# 
# From -- ./inp_files/13044.got.cif
#   From: 2010.05.17/outbox.cif.g08.bks.cpg/sg60_7_cif.got.tgz:13044.got - 2010.06.03 14:59:27.
