data_PCOD9457594
_publ_section_title
;
Structure prediction by ZEFSAII (Michael W. Deem and Ramdas Pophale) SiO2 
 PCOD9457594
Probable space group: P B C N
;
_chemical_formula_sum "Si O2"
_cell_formula_units_Z 28
_cell_length_a 7.911293
_cell_length_b 26.670435
_cell_length_c 5.018414
_cell_angle_alpha 90.000000
_cell_angle_beta 90.000000
_cell_angle_gamma 90.000000
_cell_volume 1058.873439
_symmetry_space_group_name_H-M "P B C N"
_symmetry_group_IT_number 60
_symmetry_cell_setting 'orthorhombic'
loop_
_space_group_symop_operation_xyz
x,y,z
1/2-x,1/2-y,1/2+z
1/2+x,1/2-y,-z
-x,y,1/2-z
-x,-y,-z
1/2+x,1/2+y,1/2-z
1/2-x,1/2+y,z
x,-y,1/2+z
loop_
_atom_site_type_symbol
_atom_site_label
_atom_site_fract_x
_atom_site_fract_y
_atom_site_fract_z
Si Si1 0.346563 0.369856 0.464169
Si Si2 0.500000 0.160152 0.750000
Si Si3 0.215812 0.716919 0.344626
Si Si4 0.688560 0.478901 0.795442
O O1 0.500000 0.366012 0.250000
O O2 0.322465 0.325396 0.683812
O O3 0.340547 0.422396 0.617896
O O4 0.169330 0.369353 0.308326
O O5 0.554238 0.193014 0.004797
O O6 0.197941 0.759801 0.115560
O O7 0.500000 0.502090 0.750000
O O8 0.775952 0.487199 0.515892
#
# Coordination Sequence:
#
# PCOD9457594 Si02
#       4
#     8   4   8   8
#     4  12  29  52  88 123 164 217 278 340 416 497
#     4  12  30  58  78 118 176 208 274 354 406 482
#     4  12  29  56  84 117 167 224 274 342 420 490
#     4  10  23  46  79 119 162 208 267 336 409 489
#
# _framework density 26.443196
#
# number of rings (size 3 to 8) (size 9 to 14) (size 15 to 20)
#    0.000    0.571    2.857    3.429    8.000    4.571 
#    0.000    1.429    0.000    0.000    0.000    0.000 
#    0.000    0.000    0.000    0.000    0.000    0.000 
#
# Total GULP energy -156463.657612 kJ/mol
# GULP energy per Si atom -5587.987772 kJ/mol
# Density = 2.638301 g / cm^3
# Si number density = 26.443196 Si / 1000 Ang^3
#
#
#
# Elastic Constant Matrix: (Units=GPa)
#
#
# Indices 1 2 3 4 5 6 
#
# 1 156.3762 34.5252 53.4765 0.0000 0.0000 0.0000
# 2 34.5252 151.2966 86.5913 0.0000 0.0000 0.0000
# 3 53.4765 86.5913 270.7553 0.0000 0.0000 0.0000
# 4 0.0000 0.0000 0.0000 87.9664 0.0000 0.0000
# 5 0.0000 0.0000 0.0000 0.0000 44.4887 0.0000
# 6 0.0000 0.0000 0.0000 0.0000 0.0000 14.8844
#
#
#
# Elastic Compliance Matrix: (Units=1/GPa)
#
#
# Indices 1 2 3 4 5 6 
#
# 1 0.006976 -0.000983 -0.001063 0.000000 0.000000 0.000000
# 2 -0.000983 0.008229 -0.002438 0.000000 0.000000 0.000000
# 3 -0.001063 -0.002438 0.004683 0.000000 0.000000 0.000000
# 4 0.000000 0.000000 0.000000 0.011368 0.000000 0.000000
# 5 0.000000 0.000000 0.000000 0.000000 0.022478 0.000000
# 6 0.000000 0.000000 0.000000 0.000000 0.000000 0.067184
#
#
# Mechanical properties :
#
#
# Convention : Reuss Voigt Hill
#
# Bulk Modulus (GPa) = 91.58073 103.06823 97.32448
# Shear Modulus (GPa) = 37.44612 56.39024 46.91818
#
# Velocity S-wave (km/s) = 3.76719 4.62292 4.21681
# Velocity P-wave (km/s) = 7.32328 8.21930 7.78420
#
# Compressibility (1/GPa) = 0.01091933
#
# Stress axis : x y z
#
# Youngs Moduli (GPa) = 143.35829 121.52176 213.54122
#
# Poissons Ratio (x) = 0.11949 0.22705
# Poissons Ratio (y) = 0.14096 0.52052
# Poissons Ratio (z) = 0.15243 0.29621
#
# Static dielectric constant tensor:
#      x y z
#    x 2.324410 0.000000 0.000000 
#    y 0.000000 2.056530 0.000000 
#    z 0.000000 0.000000 2.380660 
# 
# From -- ./inp_files/299.got.cif
#   From: 2010.05.17/outbox.cif.g08.bks.cpg/sg60_1_cif.got.tgz:299.got - 2010.06.03 14:59:27.
