data_PCOD9457414
_publ_section_title
;
Structure prediction by ZEFSAII (Michael W. Deem and Ramdas Pophale) SiO2 
 PCOD9457414
Probable space group: P B C N
;
_chemical_formula_sum "Si O2"
_cell_formula_units_Z 40
_cell_length_a 9.259770
_cell_length_b 23.130294
_cell_length_c 8.729918
_cell_angle_alpha 90.000000
_cell_angle_beta 90.000000
_cell_angle_gamma 90.000000
_cell_volume 1869.784335
_symmetry_space_group_name_H-M "P B C N"
_symmetry_group_IT_number 60
_symmetry_cell_setting 'orthorhombic'
loop_
_space_group_symop_operation_xyz
x,y,z
1/2-x,1/2-y,1/2+z
1/2+x,1/2-y,-z
-x,y,1/2-z
-x,-y,-z
1/2+x,1/2+y,1/2-z
1/2-x,1/2+y,z
x,-y,1/2+z
loop_
_atom_site_type_symbol
_atom_site_label
_atom_site_fract_x
_atom_site_fract_y
_atom_site_fract_z
Si Si1 0.927270 0.447669 0.084248
Si Si2 0.819700 0.792145 0.500030
Si Si3 0.508184 0.818830 0.064516
Si Si4 0.500000 0.632603 0.250000
Si Si5 0.894984 0.944614 0.006122
Si Si6 0.000000 0.851694 0.250000
O O1 0.954110 0.383935 0.016183
O O2 0.759021 0.461554 0.072581
O O3 0.000000 0.445339 0.250000
O O4 0.000000 0.500000 0.000000
O O5 0.869310 0.726169 0.515572
O O6 0.647949 0.800653 0.502013
O O7 0.904980 0.827844 0.633876
O O8 0.878254 0.814488 0.335258
O O9 0.500000 0.816841 0.250000
O O10 0.603313 0.588921 0.344429
O O11 0.945212 0.894756 0.120726
O O12 0.000000 0.000000 0.000000
#
# Coordination Sequence:
#
# PCOD9457414 Si02
#       6
#     8   8   8   4   8   4
#     4  11  28  47  69  99 145 189 241 296 361 431
#     4  11  25  44  75 106 147 189 242 308 365 438
#     4  11  26  47  72 104 149 189 246 295 371 431
#     4  10  25  44  74 108 143 182 252 302 370 432
#     4  11  25  44  75 101 144 190 247 295 359 437
#     4  10  23  42  70 102 141 188 238 292 370 418
#
# _framework density 21.39284
#
# number of rings (size 3 to 8) (size 9 to 14) (size 15 to 20)
#    0.000    1.200    1.000    3.000   19.600    0.000 
#    1.800    0.000    0.000    0.000    0.000    0.000 
#    0.000    0.000    0.000    0.000    0.000    0.000 
#
# Total GULP energy -223620.379088 kJ/mol
# GULP energy per Si atom -5590.509477 kJ/mol
# Density = 2.134415 g / cm^3
# Si number density = 21.392840 Si / 1000 Ang^3
#
#
#
# Elastic Constant Matrix: (Units=GPa)
#
#
# Indices 1 2 3 4 5 6 
#
# 1 145.8639 59.8389 20.3801 0.0000 0.0000 0.0000
# 2 59.8389 184.7180 41.0450 0.0000 0.0000 0.0000
# 3 20.3801 41.0450 69.8555 0.0000 0.0000 0.0000
# 4 0.0000 0.0000 0.0000 26.7781 0.0000 0.0000
# 5 0.0000 0.0000 0.0000 0.0000 32.8805 0.0000
# 6 0.0000 0.0000 0.0000 0.0000 0.0000 10.4694
#
#
#
# Elastic Compliance Matrix: (Units=1/GPa)
#
#
# Indices 1 2 3 4 5 6 
#
# 1 0.007958 -0.002372 -0.000928 0.000000 0.000000 0.000000
# 2 -0.002372 0.006933 -0.003382 0.000000 0.000000 0.000000
# 3 -0.000928 -0.003382 0.016573 0.000000 0.000000 0.000000
# 4 0.000000 0.000000 0.000000 0.037344 0.000000 0.000000
# 5 0.000000 0.000000 0.000000 0.000000 0.030413 0.000000
# 6 0.000000 0.000000 0.000000 0.000000 0.000000 0.095517
#
#
# Mechanical properties :
#
#
# Convention : Reuss Voigt Hill
#
# Bulk Modulus (GPa) = 55.24525 71.44061 63.34293
# Shear Modulus (GPa) = 23.34959 32.63717 27.99338
#
# Velocity S-wave (km/s) = 3.30732 3.91015 3.62130
# Velocity P-wave (km/s) = 6.36119 7.33845 6.86722
#
# Compressibility (1/GPa) = 0.01810110
#
# Stress axis : x y z
#
# Youngs Moduli (GPa) = 125.65306 144.22750 60.33847
#
# Poissons Ratio (x) = 0.34209 0.05601
# Poissons Ratio (y) = 0.29803 0.20406
# Poissons Ratio (z) = 0.11663 0.48777
#
# Static dielectric constant tensor:
#      x y z
#    x 1.746130 0.000000 0.000000 
#    y 0.000000 2.163220 0.000000 
#    z 0.000000 0.000000 1.534730 
# 
# From -- ./inp_files/3912.got.cif
#   From: 2010.05.17/outbox.cif.g08.bks.cpg/sg60_2_cif.got.tgz:3912.got - 2010.06.03 14:59:27.
