data_PCOD9457582
_publ_section_title
;
Structure prediction by ZEFSAII (Michael W. Deem and Ramdas Pophale) SiO2 
 PCOD9457582
Probable space group: P B C N
;
_chemical_formula_sum "Si O2"
_cell_formula_units_Z 60
_cell_length_a 11.941728
_cell_length_b 9.222004
_cell_length_c 23.905231
_cell_angle_alpha 90.000000
_cell_angle_beta 90.000000
_cell_angle_gamma 90.000000
_cell_volume 2632.603327
_symmetry_space_group_name_H-M "P B C N"
_symmetry_group_IT_number 60
_symmetry_cell_setting 'orthorhombic'
loop_
_space_group_symop_operation_xyz
x,y,z
1/2-x,1/2-y,1/2+z
1/2+x,1/2-y,-z
-x,y,1/2-z
-x,-y,-z
1/2+x,1/2+y,1/2-z
1/2-x,1/2+y,z
x,-y,1/2+z
loop_
_atom_site_type_symbol
_atom_site_label
_atom_site_fract_x
_atom_site_fract_y
_atom_site_fract_z
Si Si1 0.701839 0.526453 0.350568
Si Si2 0.867779 0.478787 0.996161
Si Si3 0.939371 0.517916 0.805683
Si Si4 0.252092 0.730741 0.573794
Si Si5 0.844317 0.492223 0.623998
Si Si6 0.348624 0.308611 0.748359
Si Si7 0.500000 0.491348 0.250000
Si Si8 0.839554 0.804694 0.179151
O O1 0.833052 0.555271 0.335552
O O2 0.672780 0.658715 0.391497
O O3 0.689027 0.374987 0.381021
O O4 0.641981 0.542324 0.290098
O O5 0.826511 0.469520 0.059739
O O6 0.813787 0.617364 0.964996
O O7 0.831833 0.335524 0.961912
O O8 0.000000 0.500000 0.000000
O O9 0.881562 0.663876 0.782628
O O10 0.000000 0.454974 0.750000
O O11 0.037039 0.543550 0.850348
O O12 0.746872 0.570903 0.659215
O O13 0.850861 0.318447 0.632114
O O14 0.439962 0.367221 0.789869
O O15 0.227939 0.282275 0.772543
O O16 0.450518 0.370766 0.295291
#
# Coordination Sequence:
#
# PCOD9457582 Si02
#       8
#     8   8   8   8   8   8   4   8
#     4  11  23  41  72  99 138 185 237 291 363 423
#     4  11  25  48  75 102 143 186 247 318 376 424
#     4  12  23  41  69 102 142 185 230 283 363 443
#     4  10  23  46  70 103 136 187 249 311 350 433
#     4  12  25  44  70  98 140 188 237 294 371 425
#     4  12  23  43  63 102 147 181 235 291 345 432
#     4  12  26  40  64 100 148 188 236 278 348 440
#     4  12  26  43  67 102 145 191 234 289 353 444
#
# _framework density 22.791126999999999
#
# number of rings (size 3 to 8) (size 9 to 14) (size 15 to 20)
#    0.000    0.533    4.667    4.000    2.800    1.067 
#    0.000    2.667    0.000    0.000    0.000    0.000 
#    0.000    0.000    0.000    0.000    0.000    0.000 
#
# Total GULP energy -334616.850891 kJ/mol
# GULP energy per Si atom -5576.947515 kJ/mol
# Density = 2.273925 g / cm^3
# Si number density = 22.791127 Si / 1000 Ang^3
#
#
#
# Elastic Constant Matrix: (Units=GPa)
#
#
# Indices 1 2 3 4 5 6 
#
# 1 93.8636 18.0289 24.7285 0.0000 0.0000 0.0000
# 2 18.0289 125.9087 42.1682 0.0000 0.0000 0.0000
# 3 24.7285 42.1682 109.9955 0.0000 0.0000 0.0000
# 4 0.0000 0.0000 0.0000 49.8899 0.0000 0.0000
# 5 0.0000 0.0000 0.0000 0.0000 32.3024 0.0000
# 6 0.0000 0.0000 0.0000 0.0000 0.0000 35.9961
#
#
#
# Elastic Compliance Matrix: (Units=1/GPa)
#
#
# Indices 1 2 3 4 5 6 
#
# 1 0.011411 -0.000889 -0.002224 0.000000 0.000000 0.000000
# 2 -0.000889 0.009181 -0.003320 0.000000 0.000000 0.000000
# 3 -0.002224 -0.003320 0.010864 0.000000 0.000000 0.000000
# 4 0.000000 0.000000 0.000000 0.020044 0.000000 0.000000
# 5 0.000000 0.000000 0.000000 0.000000 0.030957 0.000000
# 6 0.000000 0.000000 0.000000 0.000000 0.000000 0.027781
#
#
# Mechanical properties :
#
#
# Convention : Reuss Voigt Hill
#
# Bulk Modulus (GPa) = 53.79405 55.51321 54.65363
# Shear Modulus (GPa) = 38.66927 39.96050 39.31489
#
# Velocity S-wave (km/s) = 4.12355 4.19183 4.15783
# Velocity P-wave (km/s) = 6.80631 6.91656 6.86166
#
# Compressibility (1/GPa) = 0.01858941
#
# Stress axis : x y z
#
# Youngs Moduli (GPa) = 87.63835 108.91531 92.04595
#
# Poissons Ratio (x) = 0.09681 0.20475
# Poissons Ratio (y) = 0.07790 0.30559
# Poissons Ratio (z) = 0.19495 0.36160
#
# Static dielectric constant tensor:
#      x y z
#    x 2.883350 0.000000 0.000000 
#    y 0.000000 1.889790 0.000000 
#    z 0.000000 0.000000 1.964390 
# 
# From -- ./inp_files/25351.got.cif
#   From: 2010.05.17/outbox.cif.g08.bks.cpg/sg60_13_cif.got.tgz:25351.got - 2010.06.03 14:59:27.
