data_PCOD9457182
_publ_section_title
;
Structure prediction by ZEFSAII (Michael W. Deem and Ramdas Pophale) SiO2 
 PCOD9457182
Probable space group: P B C N
;
_chemical_formula_sum "Si O2"
_cell_formula_units_Z 48
_cell_length_a 9.031346
_cell_length_b 15.711759
_cell_length_c 14.324695
_cell_angle_alpha 90.000000
_cell_angle_beta 90.000000
_cell_angle_gamma 90.000000
_cell_volume 2032.650324
_symmetry_space_group_name_H-M "P B C N"
_symmetry_group_IT_number 60
_symmetry_cell_setting 'orthorhombic'
loop_
_space_group_symop_operation_xyz
x,y,z
1/2-x,1/2-y,1/2+z
1/2+x,1/2-y,-z
-x,y,1/2-z
-x,-y,-z
1/2+x,1/2+y,1/2-z
1/2-x,1/2+y,z
x,-y,1/2+z
loop_
_atom_site_type_symbol
_atom_site_label
_atom_site_fract_x
_atom_site_fract_y
_atom_site_fract_z
Si Si1 0.565936 0.150610 0.370545
Si Si2 0.576759 0.346913 0.344322
Si Si3 0.743793 0.309802 0.027969
Si Si4 0.172641 0.379251 0.269730
Si Si5 0.272000 0.074664 0.300567
Si Si6 0.927573 0.139683 0.040745
O O1 0.519207 0.250322 0.362108
O O2 0.637455 0.136303 0.469856
O O3 0.421129 0.093848 0.359339
O O4 0.688279 0.130958 0.290730
O O5 0.500000 0.380194 0.250000
O O6 0.745347 0.334643 0.315472
O O7 0.571676 0.404240 0.437379
O O8 0.761077 0.342283 0.133815
O O9 0.805546 0.214214 0.029366
O O10 0.592873 0.321440 0.968218
O O11 0.217837 0.477880 0.268983
O O12 0.000000 0.369869 0.250000
O O13 0.128609 0.093839 0.365224
#
# Coordination Sequence:
#
# PCOD9457182 Si02
#       6
#     8   8   8   8   8   8
#     4  10  22  44  71  95 133 187 226 289 338 413
#     4  11  21  44  70  93 134 182 227 282 346 409
#     4  11  25  42  69 105 134 177 239 289 348 407
#     4  12  27  43  67 105 139 182 231 287 348 420
#     4  11  23  46  67  97 142 181 229 283 363 411
#     4  11  24  44  70 101 136 183 231 292 346 420
#
# _framework density 23.614488999999999
#
# number of rings (size 3 to 8) (size 9 to 14) (size 15 to 20)
#    0.000    1.000    5.000    3.000    7.000    3.333 
#    3.000    0.000    0.000    0.000    0.000    0.000 
#    0.000    0.000    0.000    0.000    0.000    0.000 
#
# Total GULP energy -267678.168291 kJ/mol
# GULP energy per Si atom -5576.628506 kJ/mol
# Density = 2.356074 g / cm^3
# Si number density = 23.614489 Si / 1000 Ang^3
#
#
#
# Elastic Constant Matrix: (Units=GPa)
#
#
# Indices 1 2 3 4 5 6 
#
# 1 86.4110 31.4603 2.9631 0.0000 0.0000 0.0000
# 2 31.4603 46.1997 3.2069 0.0000 0.0000 0.0000
# 3 2.9631 3.2069 86.6521 0.0000 0.0000 0.0000
# 4 0.0000 0.0000 0.0000 7.0983 0.0000 0.0000
# 5 0.0000 0.0000 0.0000 0.0000 52.5425 0.0000
# 6 0.0000 0.0000 0.0000 0.0000 0.0000 26.6590
#
#
#
# Elastic Compliance Matrix: (Units=1/GPa)
#
#
# Indices 1 2 3 4 5 6 
#
# 1 0.015389 -0.010470 -0.000139 0.000000 0.000000 0.000000
# 2 -0.010470 0.028824 -0.000709 0.000000 0.000000 0.000000
# 3 -0.000139 -0.000709 0.011571 0.000000 0.000000 0.000000
# 4 0.000000 0.000000 0.000000 0.140878 0.000000 0.000000
# 5 0.000000 0.000000 0.000000 0.000000 0.019032 0.000000
# 6 0.000000 0.000000 0.000000 0.000000 0.000000 0.037511
#
#
# Mechanical properties :
#
#
# Convention : Reuss Voigt Hill
#
# Bulk Modulus (GPa) = 30.16606 32.72482 31.44544
# Shear Modulus (GPa) = 17.42829 29.36882 23.39856
#
# Velocity S-wave (km/s) = 2.71962 3.53041 3.15120
# Velocity P-wave (km/s) = 4.76066 5.52326 5.15608
#
# Compressibility (1/GPa) = 0.03314984
#
# Stress axis : x y z
#
# Youngs Moduli (GPa) = 64.98066 34.69341 86.42020
#
# Poissons Ratio (x) = 0.36323 0.01199
# Poissons Ratio (y) = 0.68034 0.06125
# Poissons Ratio (z) = 0.00902 0.02459
#
# Static dielectric constant tensor:
#      x y z
#    x 1.995110 0.000000 0.000000 
#    y 0.000000 1.862380 0.000000 
#    z 0.000000 0.000000 1.975870 
# 
# From -- ./inp_files/15005.got.cif
#   From: 2010.05.17/outbox.cif.g08.bks.cpg/sg60_8_cif.got.tgz:15005.got - 2010.06.03 14:59:27.
