data_PCOD9457985
_publ_section_title
;
Structure prediction by ZEFSAII (Michael W. Deem and Ramdas Pophale) SiO2 
 PCOD9457985
Probable space group: P B C N
;
_chemical_formula_sum "Si O2"
_cell_formula_units_Z 60
_cell_length_a 27.196198
_cell_length_b 12.855092
_cell_length_c 7.964379
_cell_angle_alpha 90.000000
_cell_angle_beta 90.000000
_cell_angle_gamma 90.000000
_cell_volume 2784.423574
_symmetry_space_group_name_H-M "P B C N"
_symmetry_group_IT_number 60
_symmetry_cell_setting 'orthorhombic'
loop_
_space_group_symop_operation_xyz
x,y,z
1/2-x,1/2-y,1/2+z
1/2+x,1/2-y,-z
-x,y,1/2-z
-x,-y,-z
1/2+x,1/2+y,1/2-z
1/2-x,1/2+y,z
x,-y,1/2+z
loop_
_atom_site_type_symbol
_atom_site_label
_atom_site_fract_x
_atom_site_fract_y
_atom_site_fract_z
Si Si1 0.384142 0.271587 0.614902
Si Si2 0.848273 0.403639 0.214278
Si Si3 0.786954 0.100304 0.451032
Si Si4 0.194422 0.678699 0.111968
Si Si5 0.500000 0.771352 0.750000
Si Si6 0.240599 0.886376 0.156698
Si Si7 0.103326 0.371945 0.807314
Si Si8 0.983053 0.884372 0.941933
O O1 0.379376 0.204490 0.784465
O O2 0.333253 0.330660 0.592132
O O3 0.394084 0.171283 0.495829
O O4 0.425272 0.356971 0.575277
O O5 0.800436 0.397247 0.339224
O O6 0.880274 0.508709 0.220728
O O7 0.823236 0.397757 0.033228
O O8 0.742542 0.121755 0.316932
O O9 0.774081 0.122646 0.646021
O O10 0.790431 0.978174 0.426750
O O11 0.220689 0.784905 0.062093
O O12 0.146868 0.694808 0.222526
O O13 0.549053 0.841864 0.753543
O O14 0.499328 0.696887 0.585201
O O15 0.000000 0.866748 0.750000
O O16 0.000000 0.000000 0.000000
#
# Coordination Sequence:
#
# PCOD9457985 Si02
#       8
#     8   8   8   8   4   8   8   8
#     4  11  25  43  67 101 134 177 233 282 343 427
#     4  11  24  41  67  98 135 184 228 284 347 420
#     4  11  24  39  63  98 133 179 228 272 345 422
#     4  11  23  40  65  93 141 180 221 282 343 421
#     4  10  26  48  78 106 144 188 240 308 354 434
#     4  11  24  38  63  95 137 182 222 282 341 414
#     4  11  23  47  69  98 138 185 230 288 359 408
#     4  11  25  49  77 104 142 183 236 299 367 422
#
# _framework density 21.548445999999998
#
# number of rings (size 3 to 8) (size 9 to 14) (size 15 to 20)
#    0.000    1.067    4.667    0.800    5.600    2.133 
#    1.200    2.000    0.000    0.000    0.000    0.000 
#    0.000    0.000    0.000    0.000    0.000    0.000 
#
# Total GULP energy -334132.233329 kJ/mol
# GULP energy per Si atom -5568.870555 kJ/mol
# Density = 2.149940 g / cm^3
# Si number density = 21.548446 Si / 1000 Ang^3
#
#
#
# Elastic Constant Matrix: (Units=GPa)
#
#
# Indices 1 2 3 4 5 6 
#
# 1 129.8875 55.2655 31.3724 0.0000 0.0000 0.0000
# 2 55.2655 150.2120 19.0699 0.0000 0.0000 0.0000
# 3 31.3724 19.0699 64.5673 0.0000 0.0000 0.0000
# 4 0.0000 0.0000 0.0000 21.0675 0.0000 0.0000
# 5 0.0000 0.0000 0.0000 0.0000 17.6982 0.0000
# 6 0.0000 0.0000 0.0000 0.0000 0.0000 36.6238
#
#
#
# Elastic Compliance Matrix: (Units=1/GPa)
#
#
# Indices 1 2 3 4 5 6 
#
# 1 0.009999 -0.003181 -0.003919 0.000000 0.000000 0.000000
# 2 -0.003181 0.007929 -0.000796 0.000000 0.000000 0.000000
# 3 -0.003919 -0.000796 0.017627 0.000000 0.000000 0.000000
# 4 0.000000 0.000000 0.000000 0.047466 0.000000 0.000000
# 5 0.000000 0.000000 0.000000 0.000000 0.056503 0.000000
# 6 0.000000 0.000000 0.000000 0.000000 0.000000 0.027305
#
#
# Mechanical properties :
#
#
# Convention : Reuss Voigt Hill
#
# Bulk Modulus (GPa) = 50.60087 61.78693 56.19390
# Shear Modulus (GPa) = 26.42586 31.00850 28.71718
#
# Velocity S-wave (km/s) = 3.50572 3.79755 3.65455
# Velocity P-wave (km/s) = 6.31824 6.92562 6.62889
#
# Compressibility (1/GPa) = 0.01976250
#
# Stress axis : x y z
#
# Youngs Moduli (GPa) = 100.00876 126.12283 56.73137
#
# Poissons Ratio (x) = 0.40124 0.22232
# Poissons Ratio (y) = 0.31816 0.04516
# Poissons Ratio (z) = 0.39192 0.10039
#
# Static dielectric constant tensor:
#      x y z
#    x 1.818230 0.000000 0.000000 
#    y 0.000000 1.881110 0.000000 
#    z 0.000000 0.000000 1.910940 
# 
# From -- ./inp_files/8187.got.cif
#   From: 2010.05.17/outbox.cif.g08.bks.cpg/sg60_5_cif.got.tgz:8187.got - 2010.06.03 14:59:27.
