data_PCOD9457143
_publ_section_title
;
Structure prediction by ZEFSAII (Michael W. Deem and Ramdas Pophale) SiO2 
 PCOD9457143
Probable space group: P B C N
;
_chemical_formula_sum "Si O2"
_cell_formula_units_Z 40
_cell_length_a 16.513657
_cell_length_b 9.130144
_cell_length_c 11.757672
_cell_angle_alpha 90.000000
_cell_angle_beta 90.000000
_cell_angle_gamma 90.000000
_cell_volume 1772.728503
_symmetry_space_group_name_H-M "P B C N"
_symmetry_group_IT_number 60
_symmetry_cell_setting 'orthorhombic'
loop_
_space_group_symop_operation_xyz
x,y,z
1/2-x,1/2-y,1/2+z
1/2+x,1/2-y,-z
-x,y,1/2-z
-x,-y,-z
1/2+x,1/2+y,1/2-z
1/2-x,1/2+y,z
x,-y,1/2+z
loop_
_atom_site_type_symbol
_atom_site_label
_atom_site_fract_x
_atom_site_fract_y
_atom_site_fract_z
Si Si1 0.145228 0.562006 0.334648
Si Si2 0.145660 0.711530 0.571095
Si Si3 0.926613 0.210196 0.825622
Si Si4 0.724018 0.496908 0.824946
Si Si5 0.971146 0.651888 0.558696
O O1 0.138840 0.678409 0.437078
O O2 0.095001 0.634223 0.232031
O O3 0.237723 0.548604 0.295585
O O4 0.104960 0.407011 0.369131
O O5 0.200780 0.578788 0.615906
O O6 0.053082 0.711584 0.616445
O O7 0.192142 0.858086 0.605493
O O8 0.848867 0.109227 0.814164
O O9 0.000000 0.149182 0.750000
O O10 0.946536 0.238841 0.957356
O O11 0.000000 0.500000 0.500000
#
# Coordination Sequence:
#
# PCOD9457143 Si02
#       5
#     8   8   8   8   8
#     4  11  24  46  75 101 141 195 237 300 355 442
#     4  11  26  44  73 107 145 186 248 297 361 437
#     4  12  24  47  71 103 146 186 242 298 358 434
#     4  12  28  45  71 112 142 188 243 303 364 425
#     4  10  22  43  76 102 138 193 238 287 365 436
#
# _framework density 22.564088000000002
#
# number of rings (size 3 to 8) (size 9 to 14) (size 15 to 20)
#    0.000    0.800    6.000    2.400    2.800    0.800 
#    3.600    0.000    0.000    0.000    0.000    0.000 
#    0.000    0.000    0.000    0.000    0.000    0.000 
#
# Total GULP energy -223680.086264 kJ/mol
# GULP energy per Si atom -5592.002157 kJ/mol
# Density = 2.251273 g / cm^3
# Si number density = 22.564088 Si / 1000 Ang^3
#
#
#
# Elastic Constant Matrix: (Units=GPa)
#
#
# Indices 1 2 3 4 5 6 
#
# 1 167.3363 58.2887 60.0562 0.0000 0.0000 0.0000
# 2 58.2887 69.2979 38.4752 0.0000 0.0000 0.0000
# 3 60.0562 38.4752 77.1552 0.0000 0.0000 0.0000
# 4 0.0000 0.0000 0.0000 10.2963 0.0000 0.0000
# 5 0.0000 0.0000 0.0000 0.0000 44.0779 0.0000
# 6 0.0000 0.0000 0.0000 0.0000 0.0000 49.0379
#
#
#
# Elastic Compliance Matrix: (Units=1/GPa)
#
#
# Indices 1 2 3 4 5 6 
#
# 1 0.009564 -0.005409 -0.004747 0.000000 0.000000 0.000000
# 2 -0.005409 0.023014 -0.007267 0.000000 0.000000 0.000000
# 3 -0.004747 -0.007267 0.020280 0.000000 0.000000 0.000000
# 4 0.000000 0.000000 0.000000 0.097122 0.000000 0.000000
# 5 0.000000 0.000000 0.000000 0.000000 0.022687 0.000000
# 6 0.000000 0.000000 0.000000 0.000000 0.000000 0.020392
#
#
# Mechanical properties :
#
#
# Convention : Reuss Voigt Hill
#
# Bulk Modulus (GPa) = 55.51560 69.71440 62.61500
# Shear Modulus (GPa) = 21.37591 31.14705 26.26148
#
# Velocity S-wave (km/s) = 3.08123 3.71938 3.41524
# Velocity P-wave (km/s) = 6.10865 7.02910 6.58498
#
# Compressibility (1/GPa) = 0.01801295
#
# Stress axis : x y z
#
# Youngs Moduli (GPa) = 104.56189 43.45102 49.31077
#
# Poissons Ratio (x) = 0.23501 0.23408
# Poissons Ratio (y) = 0.56555 0.35832
# Poissons Ratio (z) = 0.49636 0.31574
#
# Static dielectric constant tensor:
#      x y z
#    x 1.872160 0.000000 0.000000 
#    y 0.000000 1.809520 0.000000 
#    z 0.000000 0.000000 1.953770 
# 
# From -- ./inp_files/12278.got.cif
#   From: 2010.05.17/outbox.cif.g08.bks.cpg/sg60_7_cif.got.tgz:12278.got - 2010.06.03 14:59:27.
