data_PCOD9457236
_publ_section_title
;
Structure prediction by ZEFSAII (Michael W. Deem and Ramdas Pophale) SiO2 
 PCOD9457236
Probable space group: P B C N
;
_chemical_formula_sum "Si O2"
_cell_formula_units_Z 36
_cell_length_a 7.299141
_cell_length_b 9.432857
_cell_length_c 21.168207
_cell_angle_alpha 90.000000
_cell_angle_beta 90.000000
_cell_angle_gamma 90.000000
_cell_volume 1457.468166
_symmetry_space_group_name_H-M "P B C N"
_symmetry_group_IT_number 60
_symmetry_cell_setting 'orthorhombic'
loop_
_space_group_symop_operation_xyz
x,y,z
1/2-x,1/2-y,1/2+z
1/2+x,1/2-y,-z
-x,y,1/2-z
-x,-y,-z
1/2+x,1/2+y,1/2-z
1/2-x,1/2+y,z
x,-y,1/2+z
loop_
_atom_site_type_symbol
_atom_site_label
_atom_site_fract_x
_atom_site_fract_y
_atom_site_fract_z
Si Si1 0.037734 0.437388 0.068899
Si Si2 0.337627 0.642292 0.114677
Si Si3 0.341563 0.526834 0.878698
Si Si4 0.641849 0.776383 0.697625
Si Si5 0.500000 0.726002 0.250000
O O1 0.147178 0.560555 0.106753
O O2 0.154422 0.296038 0.082517
O O3 0.830698 0.399124 0.088963
O O4 0.000000 0.500000 0.000000
O O5 0.502604 0.553120 0.082265
O O6 0.406859 0.649024 0.188507
O O7 0.447534 0.652627 0.843021
O O8 0.235631 0.406196 0.838137
O O9 0.500000 0.823780 0.750000
O O10 0.821631 0.694449 0.725404
#
# Coordination Sequence:
#
# PCOD9457236 Si02
#       5
#     8   8   8   8   4
#     4  12  29  51  77 107 151 201 262 317 378 462
#     4  11  28  47  75 111 147 202 250 314 397 451
#     4  11  25  47  66 107 145 190 255 305 383 449
#     4  11  25  39  70 100 148 190 237 306 379 459
#     4  10  22  46  68 108 148 188 244 312 384 464
#
# _framework density 24.700367
#
# number of rings (size 3 to 8) (size 9 to 14) (size 15 to 20)
#    0.000    0.889    4.444    1.333   17.111    0.889 
#    0.000    0.000    0.000    0.000    0.000    0.000 
#    0.000    0.000    0.000    0.000    0.000    0.000 
#
# Total GULP energy -200742.133549 kJ/mol
# GULP energy per Si atom -5576.170376 kJ/mol
# Density = 2.464415 g / cm^3
# Si number density = 24.700367 Si / 1000 Ang^3
#
#
#
# Elastic Constant Matrix: (Units=GPa)
#
#
# Indices 1 2 3 4 5 6 
#
# 1 91.7571 -18.0041 9.2712 0.0000 0.0000 0.0000
# 2 -18.0041 85.8353 -9.3897 0.0000 0.0000 0.0000
# 3 9.2712 -9.3897 54.1478 0.0000 0.0000 0.0000
# 4 0.0000 0.0000 0.0000 13.8786 0.0000 0.0000
# 5 0.0000 0.0000 0.0000 0.0000 14.4463 0.0000
# 6 0.0000 0.0000 0.0000 0.0000 0.0000 27.4515
#
#
#
# Elastic Compliance Matrix: (Units=1/GPa)
#
#
# Indices 1 2 3 4 5 6 
#
# 1 0.011497 0.002239 -0.001580 0.000000 0.000000 0.000000
# 2 0.002239 0.012311 0.001752 0.000000 0.000000 0.000000
# 3 -0.001580 0.001752 0.019042 0.000000 0.000000 0.000000
# 4 0.000000 0.000000 0.000000 0.072053 0.000000 0.000000
# 5 0.000000 0.000000 0.000000 0.000000 0.069222 0.000000
# 6 0.000000 0.000000 0.000000 0.000000 0.000000 0.036428
#
#
# Mechanical properties :
#
#
# Convention : Reuss Voigt Hill
#
# Bulk Modulus (GPa) = 20.97716 21.72165 21.34940
# Shear Modulus (GPa) = 21.58669 27.81281 24.69975
#
# Velocity S-wave (km/s) = 2.95946 3.35924 3.16567
# Velocity P-wave (km/s) = 4.49321 4.88459 4.69298
#
# Compressibility (1/GPa) = 0.04767090
#
# Stress axis : x y z
#
# Youngs Moduli (GPa) = 86.97702 81.22552 52.51461
#
# Poissons Ratio (x) = -0.18184 0.08299
# Poissons Ratio (y) = -0.19471 -0.09198
# Poissons Ratio (z) = 0.13745 -0.14228
#
# Static dielectric constant tensor:
#      x y z
#    x 1.993410 0.000000 0.000000 
#    y 0.000000 1.999800 0.000000 
#    z 0.000000 0.000000 2.427980 
# 
# From -- ./inp_files/21944.got.cif
#   From: 2010.05.17/outbox.cif.g08.bks.cpg/sg60_11_cif.got.tgz:21944.got - 2010.06.03 14:59:27.
