data_PCOD9457853
_publ_section_title
;
Structure prediction by ZEFSAII (Michael W. Deem and Ramdas Pophale) SiO2 
 PCOD9457853
Probable space group: P B C N
;
_chemical_formula_sum "Si O2"
_cell_formula_units_Z 36
_cell_length_a 6.151168
_cell_length_b 12.173758
_cell_length_c 21.461049
_cell_angle_alpha 90.000000
_cell_angle_beta 90.000000
_cell_angle_gamma 90.000000
_cell_volume 1607.064098
_symmetry_space_group_name_H-M "P B C N"
_symmetry_group_IT_number 60
_symmetry_cell_setting 'orthorhombic'
loop_
_space_group_symop_operation_xyz
x,y,z
1/2-x,1/2-y,1/2+z
1/2+x,1/2-y,-z
-x,y,1/2-z
-x,-y,-z
1/2+x,1/2+y,1/2-z
1/2-x,1/2+y,z
x,-y,1/2+z
loop_
_atom_site_type_symbol
_atom_site_label
_atom_site_fract_x
_atom_site_fract_y
_atom_site_fract_z
Si Si1 0.639977 0.909705 0.190394
Si Si2 0.824971 0.086741 0.473691
Si Si3 0.000000 0.754932 0.250000
Si Si4 0.876918 0.722970 0.577262
Si Si5 0.486023 0.119187 0.369503
O O1 0.500000 0.937790 0.250000
O O2 0.529426 0.828655 0.140494
O O3 0.833841 0.837282 0.216981
O O4 0.677870 0.023922 0.154606
O O5 0.675173 0.123965 0.530839
O O6 0.669803 0.065752 0.413913
O O7 0.959472 0.193715 0.453774
O O8 0.000000 0.000000 0.500000
O O9 0.080086 0.677602 0.192906
O O10 0.656142 0.790313 0.593648
#
# Coordination Sequence:
#
# PCOD9457853 Si02
#       5
#     8   8   4   8   8
#     4  11  24  43  73 101 140 186 236 292 347 427
#     4  12  26  43  73 103 142 191 234 295 359 428
#     4  10  24  48  68 106 148 188 232 298 358 420
#     4  11  25  44  67 103 142 184 233 293 351 425
#     4  11  24  46  71 105 142 188 242 290 362 425
#
# _framework density 22.401097
#
# number of rings (size 3 to 8) (size 9 to 14) (size 15 to 20)
#    0.000    0.889    3.333    2.667    3.111    7.111 
#    8.000    0.000    0.000    0.000    0.000    0.000 
#    0.000    0.000    0.000    0.000    0.000    0.000 
#
# Total GULP energy -201031.467069 kJ/mol
# GULP energy per Si atom -5584.207419 kJ/mol
# Density = 2.235011 g / cm^3
# Si number density = 22.401097 Si / 1000 Ang^3
#
#
#
# Elastic Constant Matrix: (Units=GPa)
#
#
# Indices 1 2 3 4 5 6 
#
# 1 37.5785 17.9735 38.5565 0.0000 0.0000 0.0000
# 2 17.9735 99.5581 50.7513 0.0000 0.0000 0.0000
# 3 38.5565 50.7513 152.3386 0.0000 0.0000 0.0000
# 4 0.0000 0.0000 0.0000 41.9735 0.0000 0.0000
# 5 0.0000 0.0000 0.0000 0.0000 32.6494 0.0000
# 6 0.0000 0.0000 0.0000 0.0000 0.0000 51.8859
#
#
#
# Elastic Compliance Matrix: (Units=1/GPa)
#
#
# Indices 1 2 3 4 5 6 
#
# 1 0.036361 -0.002256 -0.008451 0.000000 0.000000 0.000000
# 2 -0.002256 0.012239 -0.003506 0.000000 0.000000 0.000000
# 3 -0.008451 -0.003506 0.009871 0.000000 0.000000 0.000000
# 4 0.000000 0.000000 0.000000 0.023825 0.000000 0.000000
# 5 0.000000 0.000000 0.000000 0.000000 0.030628 0.000000
# 6 0.000000 0.000000 0.000000 0.000000 0.000000 0.019273
#
#
# Mechanical properties :
#
#
# Convention : Reuss Voigt Hill
#
# Bulk Modulus (GPa) = 33.28440 56.00420 44.64430
# Shear Modulus (GPa) = 29.30134 37.44801 33.37467
#
# Velocity S-wave (km/s) = 3.62060 4.09308 3.86407
# Velocity P-wave (km/s) = 5.68937 6.88424 6.31513
#
# Compressibility (1/GPa) = 0.03004410
#
# Stress axis : x y z
#
# Youngs Moduli (GPa) = 27.50172 81.70496 101.30202
#
# Poissons Ratio (x) = 0.18435 0.85613
# Poissons Ratio (y) = 0.06205 0.35521
# Poissons Ratio (z) = 0.23243 0.28649
#
# Static dielectric constant tensor:
#      x y z
#    x 1.828310 0.000000 0.000000 
#    y 0.000000 1.830420 0.000000 
#    z 0.000000 0.000000 1.830120 
# 
# From -- ./inp_files/23457.got.cif
#   From: 2010.05.17/outbox.cif.g08.bks.cpg/sg60_12_cif.got.tgz:23457.got - 2010.06.03 14:59:27.
