data_PCOD9457169
_publ_section_title
;
Structure prediction by ZEFSAII (Michael W. Deem and Ramdas Pophale) SiO2 
 PCOD9457169
Probable space group: P B C N
;
_chemical_formula_sum "Si O2"
_cell_formula_units_Z 48
_cell_length_a 8.785759
_cell_length_b 14.849621
_cell_length_c 15.908746
_cell_angle_alpha 90.000000
_cell_angle_beta 90.000000
_cell_angle_gamma 90.000000
_cell_volume 2075.537591
_symmetry_space_group_name_H-M "P B C N"
_symmetry_group_IT_number 60
_symmetry_cell_setting 'orthorhombic'
loop_
_space_group_symop_operation_xyz
x,y,z
1/2-x,1/2-y,1/2+z
1/2+x,1/2-y,-z
-x,y,1/2-z
-x,-y,-z
1/2+x,1/2+y,1/2-z
1/2-x,1/2+y,z
x,-y,1/2+z
loop_
_atom_site_type_symbol
_atom_site_label
_atom_site_fract_x
_atom_site_fract_y
_atom_site_fract_z
Si Si1 0.671415 0.780721 0.716813
Si Si2 0.315357 0.415098 0.251986
Si Si3 0.211077 0.551108 0.976644
Si Si4 0.661080 0.574064 0.139101
Si Si5 0.647520 0.317985 0.888284
Si Si6 0.900361 0.612386 0.910686
O O1 0.500000 0.788569 0.750000
O O2 0.710216 0.677203 0.695891
O O3 0.712743 0.846806 0.640457
O O4 0.771327 0.803049 0.799107
O O5 0.500000 0.414617 0.250000
O O6 0.286975 0.516659 0.280399
O O7 0.207162 0.402955 0.170609
O O8 0.253409 0.625059 0.045305
O O9 0.161468 0.458008 0.021171
O O10 0.350650 0.511037 0.923886
O O11 0.077884 0.583496 0.913463
O O12 0.504519 0.626675 0.132744
O O13 0.610805 0.219283 0.926063
#
# Coordination Sequence:
#
# PCOD9457169 Si02
#       6
#     8   8   8   8   8   8
#     4  10  24  42  68 101 133 183 233 289 351 418
#     4  10  22  44  69  97 138 180 231 292 352 419
#     4  11  26  43  68 105 140 191 234 290 360 426
#     4  12  25  40  73 103 136 182 235 292 355 413
#     4  11  25  47  70 100 146 187 236 293 353 430
#     4  10  25  45  70 100 146 188 234 296 355 423
#
# _framework density 23.126538
#
# number of rings (size 3 to 8) (size 9 to 14) (size 15 to 20)
#    0.000    1.333    0.000    4.000   11.667    0.000 
#    3.000    0.000    0.000    0.000    0.000    0.000 
#    0.000    0.000    0.000    0.000    0.000    0.000 
#
# Total GULP energy -267487.784426 kJ/mol
# GULP energy per Si atom -5572.662176 kJ/mol
# Density = 2.307390 g / cm^3
# Si number density = 23.126538 Si / 1000 Ang^3
#
#
#
# Elastic Constant Matrix: (Units=GPa)
#
#
# Indices 1 2 3 4 5 6 
#
# 1 86.1560 42.9196 30.1149 0.0000 0.0000 0.0000
# 2 42.9196 184.2027 49.6413 0.0000 0.0000 0.0000
# 3 30.1149 49.6413 34.2177 0.0000 0.0000 0.0000
# 4 0.0000 0.0000 0.0000 60.0199 0.0000 0.0000
# 5 0.0000 0.0000 0.0000 0.0000 22.7112 0.0000
# 6 0.0000 0.0000 0.0000 0.0000 0.0000 35.9247
#
#
#
# Elastic Compliance Matrix: (Units=1/GPa)
#
#
# Indices 1 2 3 4 5 6 
#
# 1 0.016765 0.000115 -0.014922 0.000000 0.000000 0.000000
# 2 0.000115 0.008915 -0.013034 0.000000 0.000000 0.000000
# 3 -0.014922 -0.013034 0.061266 0.000000 0.000000 0.000000
# 4 0.000000 0.000000 0.000000 0.016661 0.000000 0.000000
# 5 0.000000 0.000000 0.000000 0.000000 0.044031 0.000000
# 6 0.000000 0.000000 0.000000 0.000000 0.000000 0.027836
#
#
# Mechanical properties :
#
#
# Convention : Reuss Voigt Hill
#
# Bulk Modulus (GPa) = 31.98527 61.10311 46.54419
# Shear Modulus (GPa) = 20.69723 35.85787 28.27755
#
# Velocity S-wave (km/s) = 2.99483 3.94192 3.50055
# Velocity P-wave (km/s) = 5.08126 6.87000 6.04219
#
# Compressibility (1/GPa) = 0.03126439
#
# Stress axis : x y z
#
# Youngs Moduli (GPa) = 59.64661 112.17592 16.32215
#
# Poissons Ratio (x) = -0.01290 0.24356
# Poissons Ratio (y) = -0.00686 0.21274
# Poissons Ratio (z) = 0.89005 1.46210
#
# Static dielectric constant tensor:
#      x y z
#    x 1.874250 0.000000 0.000000 
#    y 0.000000 1.848510 0.000000 
#    z 0.000000 0.000000 2.001330 
# 
# From -- ./inp_files/19262.got.cif
#   From: 2010.05.17/outbox.cif.g08.bks.cpg/sg60_10_cif.got.tgz:19262.got - 2010.06.03 14:59:27.
