data_PCOD9457089
_publ_section_title
;
Structure prediction by ZEFSAII (Michael W. Deem and Ramdas Pophale) SiO2 
 PCOD9457089
Probable space group: P B C N
;
_chemical_formula_sum "Si O2"
_cell_formula_units_Z 36
_cell_length_a 10.012391
_cell_length_b 8.839237
_cell_length_c 20.861036
_cell_angle_alpha 90.000000
_cell_angle_beta 90.000000
_cell_angle_gamma 90.000000
_cell_volume 1846.241259
_symmetry_space_group_name_H-M "P B C N"
_symmetry_group_IT_number 60
_symmetry_cell_setting 'orthorhombic'
loop_
_space_group_symop_operation_xyz
x,y,z
1/2-x,1/2-y,1/2+z
1/2+x,1/2-y,-z
-x,y,1/2-z
-x,-y,-z
1/2+x,1/2+y,1/2-z
1/2-x,1/2+y,z
x,-y,1/2+z
loop_
_atom_site_type_symbol
_atom_site_label
_atom_site_fract_x
_atom_site_fract_y
_atom_site_fract_z
Si Si1 0.156316 0.447019 0.131416
Si Si2 0.089480 0.639138 0.377247
Si Si3 0.000000 0.521083 0.250000
Si Si4 0.386001 0.382118 0.578604
Si Si5 0.661488 0.536301 0.567201
O O1 0.143085 0.291570 0.093722
O O2 0.304053 0.513461 0.127985
O O3 0.056122 0.574974 0.102556
O O4 0.097676 0.427870 0.203270
O O5 0.119424 0.807195 0.399516
O O6 0.201079 0.529042 0.406275
O O7 0.084173 0.620755 0.300213
O O8 0.542965 0.416734 0.579697
O O9 0.334159 0.430131 0.508465
#
# Coordination Sequence:
#
# PCOD9457089 Si02
#       5
#     8   8   4   8   8
#     4  10  22  43  62  90 127 166 207 258 305 370
#     4  10  22  43  62  90 127 166 207 258 305 370
#     4   8  24  44  62  88 128 168 220 238 308 376
#     4  11  23  39  64  97 126 162 209 260 319 366
#     4  11  23  39  64  97 126 162 209 260 319 366
#
# _framework density 19.499077
#
# number of rings (size 3 to 8) (size 9 to 14) (size 15 to 20)
#    1.333    0.444    0.000    4.000    0.000    8.889 
#    0.000    0.000    0.000    0.000    0.000    0.000 
#    0.000    0.000    0.000    0.000    0.000    0.000 
#
# Total GULP energy -200772.450685 kJ/mol
# GULP energy per Si atom -5577.012519 kJ/mol
# Density = 1.945470 g / cm^3
# Si number density = 19.499077 Si / 1000 Ang^3
#
#
#
# Elastic Constant Matrix: (Units=GPa)
#
#
# Indices 1 2 3 4 5 6 
#
# 1 38.4076 -23.9039 20.0797 0.0000 0.0000 0.0000
# 2 -23.9039 45.7958 -16.1806 0.0000 0.0000 0.0000
# 3 20.0797 -16.1806 60.3900 0.0000 0.0000 0.0000
# 4 0.0000 0.0000 0.0000 59.6640 0.0000 0.0000
# 5 0.0000 0.0000 0.0000 0.0000 33.8995 0.0000
# 6 0.0000 0.0000 0.0000 0.0000 0.0000 17.1832
#
#
#
# Elastic Compliance Matrix: (Units=1/GPa)
#
#
# Indices 1 2 3 4 5 6 
#
# 1 0.042635 0.019049 -0.009072 0.000000 0.000000 0.000000
# 2 0.019049 0.032630 0.002409 0.000000 0.000000 0.000000
# 3 -0.009072 0.002409 0.020221 0.000000 0.000000 0.000000
# 4 0.000000 0.000000 0.000000 0.016761 0.000000 0.000000
# 5 0.000000 0.000000 0.000000 0.000000 0.029499 0.000000
# 6 0.000000 0.000000 0.000000 0.000000 0.000000 0.058196
#
#
# Mechanical properties :
#
#
# Convention : Reuss Voigt Hill
#
# Bulk Modulus (GPa) = 8.31558 11.62043 9.96800
# Shear Modulus (GPa) = 23.22807 33.12255 28.17531
#
# Velocity S-wave (km/s) = 3.45518 4.12597 3.80538
# Velocity P-wave (km/s) = 4.49350 5.35449 4.94278
#
# Compressibility (1/GPa) = 0.12025626
#
# Stress axis : x y z
#
# Youngs Moduli (GPa) = 23.45497 30.64675 49.45337
#
# Poissons Ratio (x) = -0.58378 0.44866
# Poissons Ratio (y) = -0.44678 -0.11914
# Poissons Ratio (z) = 0.21279 -0.07383
#
# Static dielectric constant tensor:
#      x y z
#    x 1.670560 0.000000 0.000000 
#    y 0.000000 1.639800 0.000000 
#    z 0.000000 0.000000 1.690800 
# 
# From -- ./inp_files/21909.got.cif
#   From: 2010.05.17/outbox.cif.g08.bks.cpg/sg60_11_cif.got.tgz:21909.got - 2010.06.03 14:59:27.
