data_PCOD9457114
_publ_section_title
;
Structure prediction by ZEFSAII (Michael W. Deem and Ramdas Pophale) SiO2 
 PCOD9457114
Probable space group: P B C N
;
_chemical_formula_sum "Si O2"
_cell_formula_units_Z 56
_cell_length_a 7.631762
_cell_length_b 15.540739
_cell_length_c 20.742909
_cell_angle_alpha 90.000000
_cell_angle_beta 90.000000
_cell_angle_gamma 90.000000
_cell_volume 2460.175828
_symmetry_space_group_name_H-M "P B C N"
_symmetry_group_IT_number 60
_symmetry_cell_setting 'orthorhombic'
loop_
_space_group_symop_operation_xyz
x,y,z
1/2-x,1/2-y,1/2+z
1/2+x,1/2-y,-z
-x,y,1/2-z
-x,-y,-z
1/2+x,1/2+y,1/2-z
1/2-x,1/2+y,z
x,-y,1/2+z
loop_
_atom_site_type_symbol
_atom_site_label
_atom_site_fract_x
_atom_site_fract_y
_atom_site_fract_z
Si Si1 0.791767 0.038697 0.173212
Si Si2 0.201504 0.844850 0.030797
Si Si3 0.806535 0.509705 0.530498
Si Si4 0.500000 0.399855 0.250000
Si Si5 0.886795 0.689975 0.559734
Si Si6 0.368351 0.737261 0.658431
Si Si7 0.518405 0.719372 0.174783
Si Si8 0.000000 0.378372 0.750000
O O1 0.697555 0.018216 0.105655
O O2 0.661778 0.061906 0.232006
O O3 0.903527 0.125311 0.165018
O O4 0.909244 0.960170 0.197296
O O5 0.409315 0.833578 0.046499
O O6 0.090862 0.810299 0.091699
O O7 0.184076 0.943893 0.009087
O O8 0.157904 0.779431 0.973834
O O9 0.772654 0.611857 0.531723
O O10 0.000000 0.500000 0.500000
O O11 0.632358 0.336551 0.287263
O O12 0.872700 0.708921 0.635917
O O13 0.178488 0.778496 0.648776
O O14 0.481444 0.814658 0.688438
O O15 0.500000 0.737327 0.250000
#
# Coordination Sequence:
#
# PCOD9457114 Si02
#       8
#     8   8   8   4   8   8   8   4
#     4  12  24  43  70  99 148 181 241 306 362 441
#     4  10  22  43  66  98 134 179 223 295 347 426
#     4  10  24  43  64 106 139 184 234 286 360 443
#     4  11  26  46  64 107 140 184 244 307 368 439
#     4  10  23  41  68  95 137 178 231 285 350 431
#     4  10  24  43  67  97 137 179 242 293 357 447
#     4  11  21  43  69  97 136 186 236 292 365 432
#     4  11  24  40  70  99 128 196 230 297 364 431
#
# _framework density 22.762599999999999
#
# number of rings (size 3 to 8) (size 9 to 14) (size 15 to 20)
#    0.000    1.429    3.571    0.000    6.000    4.571 
#    5.143    1.429    0.000    0.000    0.000    0.000 
#    0.000    0.000    0.000    0.000    0.000    0.000 
#
# Total GULP energy -312855.159887 kJ/mol
# GULP energy per Si atom -5586.699284 kJ/mol
# Density = 2.271079 g / cm^3
# Si number density = 22.762600 Si / 1000 Ang^3
#
#
#
# Elastic Constant Matrix: (Units=GPa)
#
#
# Indices 1 2 3 4 5 6 
#
# 1 50.0245 34.0122 6.4998 0.0000 0.0000 0.0000
# 2 34.0122 49.2781 -2.0274 0.0000 0.0000 0.0000
# 3 6.4998 -2.0274 105.4798 0.0000 0.0000 0.0000
# 4 0.0000 0.0000 0.0000 32.0769 0.0000 0.0000
# 5 0.0000 0.0000 0.0000 0.0000 20.9453 0.0000
# 6 0.0000 0.0000 0.0000 0.0000 0.0000 25.2253
#
#
#
# Elastic Compliance Matrix: (Units=1/GPa)
#
#
# Indices 1 2 3 4 5 6 
#
# 1 0.038525 -0.026709 -0.002887 0.000000 0.000000 0.000000
# 2 -0.026709 0.038826 0.002392 0.000000 0.000000 0.000000
# 3 -0.002887 0.002392 0.009704 0.000000 0.000000 0.000000
# 4 0.000000 0.000000 0.000000 0.031175 0.000000 0.000000
# 5 0.000000 0.000000 0.000000 0.000000 0.047743 0.000000
# 6 0.000000 0.000000 0.000000 0.000000 0.000000 0.039643
#
#
# Mechanical properties :
#
#
# Convention : Reuss Voigt Hill
#
# Bulk Modulus (GPa) = 30.63063 31.30573 30.96818
# Shear Modulus (GPa) = 18.45644 26.73604 22.59624
#
# Velocity S-wave (km/s) = 2.85058 3.43090 3.15412
# Velocity P-wave (km/s) = 4.93155 5.42935 5.18643
#
# Compressibility (1/GPa) = 0.03264706
#
# Stress axis : x y z
#
# Youngs Moduli (GPa) = 25.95703 25.75574 103.04612
#
# Poissons Ratio (x) = 0.68792 0.29753
# Poissons Ratio (y) = 0.69329 -0.24650
# Poissons Ratio (z) = 0.07495 -0.06161
#
# Static dielectric constant tensor:
#      x y z
#    x 1.935780 0.000000 0.000000 
#    y 0.000000 1.817170 0.000000 
#    z 0.000000 0.000000 1.907890 
# 
# From -- ./inp_files/22243.got.cif
#   From: 2010.05.17/outbox.cif.g08.bks.cpg/sg60_12_cif.got.tgz:22243.got - 2010.06.03 14:59:27.
