data_PCOD9457327
_publ_section_title
;
Structure prediction by ZEFSAII (Michael W. Deem and Ramdas Pophale) SiO2 
 PCOD9457327
Probable space group: P B C N
;
_chemical_formula_sum "Si O2"
_cell_formula_units_Z 28
_cell_length_a 7.471855
_cell_length_b 16.620947
_cell_length_c 9.617165
_cell_angle_alpha 90.000000
_cell_angle_beta 90.000000
_cell_angle_gamma 90.000000
_cell_volume 1194.349047
_symmetry_space_group_name_H-M "P B C N"
_symmetry_group_IT_number 60
_symmetry_cell_setting 'orthorhombic'
loop_
_space_group_symop_operation_xyz
x,y,z
1/2-x,1/2-y,1/2+z
1/2+x,1/2-y,-z
-x,y,1/2-z
-x,-y,-z
1/2+x,1/2+y,1/2-z
1/2-x,1/2+y,z
x,-y,1/2+z
loop_
_atom_site_type_symbol
_atom_site_label
_atom_site_fract_x
_atom_site_fract_y
_atom_site_fract_z
Si Si1 0.787349 0.079818 0.395604
Si Si2 0.485078 0.142248 0.592847
Si Si3 0.101570 0.097969 0.618343
Si Si4 0.000000 0.204325 0.250000
O O1 0.605684 0.097268 0.479975
O O2 0.949542 0.089018 0.504553
O O3 0.831961 0.147509 0.282885
O O4 0.818210 0.989993 0.339700
O O5 0.500000 0.105571 0.750000
O O6 0.275269 0.142606 0.562629
O O7 0.540611 0.234308 0.623402
O O8 0.000000 0.135275 0.750000
#
# Coordination Sequence:
#
# PCOD9457327 Si02
#       4
#     8   8   8   4
#     4  11  23  42  64  95 133 171 227 275 337 407
#     4  10  23  40  64  96 131 169 222 272 338 395
#     4  11  21  42  68  92 129 176 221 278 337 401
#     4  10  24  40  66  98 132 176 222 278 346 394
#
# _framework density 23.443733000000002
#
# number of rings (size 3 to 8) (size 9 to 14) (size 15 to 20)
#    0.857    0.571    4.286    0.857    4.000    0.000 
#    0.000    1.429    0.000    0.000    0.000    0.000 
#    0.000    0.000    0.000    0.000    0.000    0.000 
#
# Total GULP energy -156318.996650 kJ/mol
# GULP energy per Si atom -5582.821309 kJ/mol
# Density = 2.339037 g / cm^3
# Si number density = 23.443733 Si / 1000 Ang^3
#
#
#
# Elastic Constant Matrix: (Units=GPa)
#
#
# Indices 1 2 3 4 5 6 
#
# 1 165.7593 27.2218 43.8935 0.0000 0.0000 0.0000
# 2 27.2218 66.8665 3.5989 0.0000 0.0000 0.0000
# 3 43.8935 3.5989 40.3197 0.0000 0.0000 0.0000
# 4 0.0000 0.0000 0.0000 -8.3570 0.0000 0.0000
# 5 0.0000 0.0000 0.0000 0.0000 49.8419 0.0000
# 6 0.0000 0.0000 0.0000 0.0000 0.0000 25.1853
#
#
#
# Elastic Compliance Matrix: (Units=1/GPa)
#
#
# Indices 1 2 3 4 5 6 
#
# 1 0.009106 -0.003189 -0.009629 0.000000 0.000000 0.000000
# 2 -0.003189 0.016144 0.002031 0.000000 0.000000 0.000000
# 3 -0.009629 0.002031 0.035103 0.000000 0.000000 0.000000
# 4 0.000000 0.000000 0.000000 -0.119660 0.000000 0.000000
# 5 0.000000 0.000000 0.000000 0.000000 0.020063 0.000000
# 6 0.000000 0.000000 0.000000 0.000000 0.000000 0.039706
#
#
# Mechanical properties :
#
#
# Convention : Reuss Voigt Hill
#
# Bulk Modulus (GPa) = 25.78718 46.93043 36.35881
# Shear Modulus (GPa) = 143.00600 26.54945 84.77772
#
# Velocity S-wave (km/s) = 7.81870 3.36888 6.02003
# Velocity P-wave (km/s) = 9.61940 5.93247 7.99147
#
# Compressibility (1/GPa) = 0.03877895
#
# Stress axis : x y z
#
# Youngs Moduli (GPa) = 109.81414 61.94196 28.48771
#
# Poissons Ratio (x) = 0.19753 0.27430
# Poissons Ratio (y) = 0.35020 -0.05785
# Poissons Ratio (z) = 1.05738 -0.12578
#
# Static dielectric constant tensor:
#      x y z
#    x 1.881290 0.000000 0.000000 
#    y 0.000000 1.940600 0.000000 
#    z 0.000000 0.000000 1.987610 
# 
# From -- ./inp_files/13553.got.cif
#   From: 2010.05.17/outbox.cif.g08.bks.cpg/sg60_7_cif.got.tgz:13553.got - 2010.06.03 14:59:27.
