data_PCOD9457211
_publ_section_title
;
Structure prediction by ZEFSAII (Michael W. Deem and Ramdas Pophale) SiO2 
 PCOD9457211
Probable space group: P B C N
;
_chemical_formula_sum "Si O2"
_cell_formula_units_Z 48
_cell_length_a 18.936486
_cell_length_b 8.775594
_cell_length_c 12.910966
_cell_angle_alpha 90.000000
_cell_angle_beta 90.000000
_cell_angle_gamma 90.000000
_cell_volume 2145.530295
_symmetry_space_group_name_H-M "P B C N"
_symmetry_group_IT_number 60
_symmetry_cell_setting 'orthorhombic'
loop_
_space_group_symop_operation_xyz
x,y,z
1/2-x,1/2-y,1/2+z
1/2+x,1/2-y,-z
-x,y,1/2-z
-x,-y,-z
1/2+x,1/2+y,1/2-z
1/2-x,1/2+y,z
x,-y,1/2+z
loop_
_atom_site_type_symbol
_atom_site_label
_atom_site_fract_x
_atom_site_fract_y
_atom_site_fract_z
Si Si1 0.149621 0.908783 0.467860
Si Si2 0.188096 0.706336 0.647193
Si Si3 0.455241 0.207078 0.346692
Si Si4 0.199817 0.387984 0.535696
Si Si5 0.957408 0.843726 0.523487
Si Si6 0.099380 0.634722 0.844387
O O1 0.140116 0.816207 0.575442
O O2 0.110722 0.813784 0.378445
O O3 0.233659 0.912131 0.458026
O O4 0.119874 0.077114 0.480748
O O5 0.185655 0.539386 0.599702
O O6 0.267190 0.769285 0.619975
O O7 0.155819 0.693583 0.760846
O O8 0.500000 0.265572 0.250000
O O9 0.509538 0.225502 0.441947
O O10 0.429577 0.034902 0.324458
O O11 0.134960 0.369962 0.458443
O O12 0.960829 0.761017 0.634502
O O13 0.000000 0.000000 0.500000
#
# Coordination Sequence:
#
# PCOD9457211 Si02
#       6
#     8   8   8   8   8   8
#     4   9  22  47  68 100 142 179 245 293 355 430
#     4  10  24  41  71 106 137 183 229 291 368 423
#     4  11  25  43  72 103 141 190 241 292 362 425
#     4  10  22  45  70 100 146 177 236 302 356 440
#     4  10  24  44  68  95 140 190 235 294 341 430
#     4  12  24  44  74 104 145 188 235 303 365 429
#
# _framework density 22.372091999999999
#
# number of rings (size 3 to 8) (size 9 to 14) (size 15 to 20)
#    1.000    0.667    1.667    1.500    2.333    9.333 
#    3.000    0.833    0.000    0.000    0.000    0.000 
#    0.000    0.000    0.000    0.000    0.000    0.000 
#
# Total GULP energy -267215.348378 kJ/mol
# GULP energy per Si atom -5566.986425 kJ/mol
# Density = 2.232117 g / cm^3
# Si number density = 22.372092 Si / 1000 Ang^3
#
#
#
# Elastic Constant Matrix: (Units=GPa)
#
#
# Indices 1 2 3 4 5 6 
#
# 1 45.9280 -17.2241 -5.4378 0.0000 0.0000 0.0000
# 2 -17.2241 61.8880 13.5004 0.0000 0.0000 0.0000
# 3 -5.4378 13.5004 57.7120 0.0000 0.0000 0.0000
# 4 0.0000 0.0000 0.0000 9.5722 0.0000 0.0000
# 5 0.0000 0.0000 0.0000 0.0000 50.9122 0.0000
# 6 0.0000 0.0000 0.0000 0.0000 0.0000 24.0925
#
#
#
# Elastic Compliance Matrix: (Units=1/GPa)
#
#
# Indices 1 2 3 4 5 6 
#
# 1 0.024341 0.006611 0.000747 0.000000 0.000000 0.000000
# 2 0.006611 0.018823 -0.003780 0.000000 0.000000 0.000000
# 3 0.000747 -0.003780 0.018282 0.000000 0.000000 0.000000
# 4 0.000000 0.000000 0.000000 0.104469 0.000000 0.000000
# 5 0.000000 0.000000 0.000000 0.000000 0.019642 0.000000
# 6 0.000000 0.000000 0.000000 0.000000 0.000000 0.041507
#
#
# Mechanical properties :
#
#
# Convention : Reuss Voigt Hill
#
# Bulk Modulus (GPa) = 14.57678 16.35612 15.46645
# Shear Modulus (GPa) = 20.59525 28.56135 24.57830
#
# Velocity S-wave (km/s) = 3.03739 3.57690 3.31813
# Velocity P-wave (km/s) = 4.33944 4.93820 4.64847
#
# Compressibility (1/GPa) = 0.06860225
#
# Stress axis : x y z
#
# Youngs Moduli (GPa) = 41.08283 53.12683 54.69830
#
# Poissons Ratio (x) = -0.35124 -0.04085
# Poissons Ratio (y) = -0.27162 0.20677
# Poissons Ratio (z) = -0.03068 0.20083
#
# Static dielectric constant tensor:
#      x y z
#    x 2.029760 0.000000 0.000000 
#    y 0.000000 1.959660 0.000000 
#    z 0.000000 0.000000 1.830300 
# 
# From -- ./inp_files/13041.got.cif
#   From: 2010.05.17/outbox.cif.g08.bks.cpg/sg60_7_cif.got.tgz:13041.got - 2010.06.03 14:59:27.
