data_PCOD9457477
_publ_section_title
;
Structure prediction by ZEFSAII (Michael W. Deem and Ramdas Pophale) SiO2 
 PCOD9457477
Probable space group: P B C N
;
_chemical_formula_sum "Si O2"
_cell_formula_units_Z 44
_cell_length_a 13.742099
_cell_length_b 10.504667
_cell_length_c 12.626201
_cell_angle_alpha 90.000000
_cell_angle_beta 90.000000
_cell_angle_gamma 90.000000
_cell_volume 1822.670067
_symmetry_space_group_name_H-M "P B C N"
_symmetry_group_IT_number 60
_symmetry_cell_setting 'orthorhombic'
loop_
_space_group_symop_operation_xyz
x,y,z
1/2-x,1/2-y,1/2+z
1/2+x,1/2-y,-z
-x,y,1/2-z
-x,-y,-z
1/2+x,1/2+y,1/2-z
1/2-x,1/2+y,z
x,-y,1/2+z
loop_
_atom_site_type_symbol
_atom_site_label
_atom_site_fract_x
_atom_site_fract_y
_atom_site_fract_z
Si Si1 0.572617 0.501262 0.117827
Si Si2 0.344724 0.746597 0.982371
Si Si3 0.651911 0.558277 0.336413
Si Si4 0.500000 0.884247 0.250000
Si Si5 0.362834 0.001024 0.080244
Si Si6 0.124273 0.260290 0.437282
O O1 0.594449 0.360799 0.077248
O O2 0.649804 0.538623 0.210417
O O3 0.593566 0.616766 0.037109
O O4 0.540563 0.485511 0.854878
O O5 0.240303 0.740022 0.926899
O O6 0.341710 0.695993 0.105122
O O7 0.378616 0.891034 0.992293
O O8 0.748824 0.495401 0.385844
O O9 0.427769 0.969354 0.180858
O O10 0.563044 0.801355 0.166355
O O11 0.390279 0.135628 0.028958
#
# Coordination Sequence:
#
# PCOD9457477 Si02
#       6
#     8   8   8   4   8   8
#     4  11  22  43  73  98 131 183 235 284 344 414
#     4  11  23  41  68 102 138 177 226 288 350 412
#     4  10  23  43  69  98 133 182 237 283 337 419
#     4  12  24  44  70  98 142 194 232 282 358 428
#     4  11  25  44  69 105 144 182 232 294 355 420
#     4  11  23  42  69 102 137 180 233 288 347 416
#
# _framework density 24.140408999999998
#
# number of rings (size 3 to 8) (size 9 to 14) (size 15 to 20)
#    0.000    1.091    0.000    7.636    0.000    1.455 
#    0.000    7.273    0.000    1.091    0.000    0.000 
#    0.000    0.000    0.000    0.000    0.000    0.000 
#
# Total GULP energy -245913.845163 kJ/mol
# GULP energy per Si atom -5588.951026 kJ/mol
# Density = 2.408546 g / cm^3
# Si number density = 24.140409 Si / 1000 Ang^3
#
#
#
# Elastic Constant Matrix: (Units=GPa)
#
#
# Indices 1 2 3 4 5 6 
#
# 1 175.1708 35.7421 40.0625 0.0000 0.0000 0.0000
# 2 35.7421 90.2145 13.6926 0.0000 0.0000 0.0000
# 3 40.0625 13.6926 89.7602 0.0000 0.0000 0.0000
# 4 0.0000 0.0000 0.0000 8.4366 0.0000 0.0000
# 5 0.0000 0.0000 0.0000 0.0000 52.3100 0.0000
# 6 0.0000 0.0000 0.0000 0.0000 0.0000 11.7350
#
#
#
# Elastic Compliance Matrix: (Units=1/GPa)
#
#
# Indices 1 2 3 4 5 6 
#
# 1 0.006788 -0.002282 -0.002681 0.000000 0.000000 0.000000
# 2 -0.002282 0.012115 -0.000829 0.000000 0.000000 0.000000
# 3 -0.002681 -0.000829 0.012464 0.000000 0.000000 0.000000
# 4 0.000000 0.000000 0.000000 0.118531 0.000000 0.000000
# 5 0.000000 0.000000 0.000000 0.000000 0.019117 0.000000
# 6 0.000000 0.000000 0.000000 0.000000 0.000000 0.085215
#
#
# Mechanical properties :
#
#
# Convention : Reuss Voigt Hill
#
# Bulk Modulus (GPa) = 50.55500 59.34888 54.95194
# Shear Modulus (GPa) = 18.35474 32.20620 25.28047
#
# Velocity S-wave (km/s) = 2.76040 3.65652 3.23960
# Velocity P-wave (km/s) = 5.58098 6.51653 6.06681
#
# Compressibility (1/GPa) = 0.01978044
#
# Stress axis : x y z
#
# Youngs Moduli (GPa) = 147.32694 82.54378 80.23051
#
# Poissons Ratio (x) = 0.18838 0.21513
# Poissons Ratio (y) = 0.33623 0.06655
# Poissons Ratio (z) = 0.39504 0.06847
#
# Static dielectric constant tensor:
#      x y z
#    x 1.974480 0.000000 0.000000 
#    y 0.000000 1.922880 0.000000 
#    z 0.000000 0.000000 2.271240 
# 
# From -- ./inp_files/12387.got.cif
#   From: 2010.05.17/outbox.cif.g08.bks.cpg/sg60_7_cif.got.tgz:12387.got - 2010.06.03 14:59:27.
