data_PCOD9457332
_publ_section_title
;
Structure prediction by ZEFSAII (Michael W. Deem and Ramdas Pophale) SiO2 
 PCOD9457332
Probable space group: P B C N
;
_chemical_formula_sum "Si O2"
_cell_formula_units_Z 48
_cell_length_a 9.084066
_cell_length_b 18.009048
_cell_length_c 14.711797
_cell_angle_alpha 90.000000
_cell_angle_beta 90.000000
_cell_angle_gamma 90.000000
_cell_volume 2406.782030
_symmetry_space_group_name_H-M "P B C N"
_symmetry_group_IT_number 60
_symmetry_cell_setting 'orthorhombic'
loop_
_space_group_symop_operation_xyz
x,y,z
1/2-x,1/2-y,1/2+z
1/2+x,1/2-y,-z
-x,y,1/2-z
-x,-y,-z
1/2+x,1/2+y,1/2-z
1/2-x,1/2+y,z
x,-y,1/2+z
loop_
_atom_site_type_symbol
_atom_site_label
_atom_site_fract_x
_atom_site_fract_y
_atom_site_fract_z
Si Si1 0.090258 0.421379 0.992508
Si Si2 0.000000 0.707067 0.750000
Si Si3 0.092957 0.963953 0.916636
Si Si4 0.547471 0.691043 0.424606
Si Si5 0.756417 0.844575 0.333077
Si Si6 0.500000 0.444951 0.250000
Si Si7 0.122905 0.289486 0.565592
O O1 0.154409 0.378525 0.084089
O O2 0.241312 0.443902 0.943677
O O3 0.000000 0.500000 0.000000
O O4 0.988343 0.359692 0.940059
O O5 0.028812 0.756610 0.662460
O O6 0.147775 0.659446 0.753397
O O7 0.007637 0.888486 0.897002
O O8 0.090943 0.009516 0.824040
O O9 0.000000 0.000000 0.000000
O O10 0.713333 0.685101 0.462099
O O11 0.444593 0.728091 0.499316
O O12 0.833153 0.763463 0.349008
O O13 0.888760 0.898376 0.311350
#
# Coordination Sequence:
#
# PCOD9457332 Si02
#       7
#     8   4   8   8   8   4   8
#     4  12  25  44  72 106 139 191 240 294 364 430
#     4  10  23  40  66  95 136 170 230 296 339 412
#     4  12  24  45  68 101 147 188 236 293 363 430
#     4  11  21  40  67  99 132 179 233 287 351 419
#     4  11  25  46  67 104 138 192 237 292 366 423
#     4  12  27  44  70 103 146 188 240 298 363 432
#     4  11  21  43  72  98 136 181 240 284 351 442
#
# _framework density 19.943641
#
# number of rings (size 3 to 8) (size 9 to 14) (size 15 to 20)
#    0.000    0.667    6.667    1.500    2.333    4.000 
#    0.000    0.000    0.000    0.000    0.000    0.000 
#    0.000    0.000    0.000    0.000    0.000    0.000 
#
# Total GULP energy -267312.155967 kJ/mol
# GULP energy per Si atom -5569.003249 kJ/mol
# Density = 1.989825 g / cm^3
# Si number density = 19.943641 Si / 1000 Ang^3
#
#
#
# Elastic Constant Matrix: (Units=GPa)
#
#
# Indices 1 2 3 4 5 6 
#
# 1 151.5392 40.6108 37.1409 0.0000 0.0000 0.0000
# 2 40.6108 104.4175 15.3131 0.0000 0.0000 0.0000
# 3 37.1409 15.3131 48.8485 0.0000 0.0000 0.0000
# 4 0.0000 0.0000 0.0000 30.8207 0.0000 0.0000
# 5 0.0000 0.0000 0.0000 0.0000 36.6544 0.0000
# 6 0.0000 0.0000 0.0000 0.0000 0.0000 34.3337
#
#
#
# Elastic Compliance Matrix: (Units=1/GPa)
#
#
# Indices 1 2 3 4 5 6 
#
# 1 0.008705 -0.002531 -0.005825 0.000000 0.000000 0.000000
# 2 -0.002531 0.010775 -0.001453 0.000000 0.000000 0.000000
# 3 -0.005825 -0.001453 0.025356 0.000000 0.000000 0.000000
# 4 0.000000 0.000000 0.000000 0.032446 0.000000 0.000000
# 5 0.000000 0.000000 0.000000 0.000000 0.027282 0.000000
# 6 0.000000 0.000000 0.000000 0.000000 0.000000 0.029126
#
#
# Mechanical properties :
#
#
# Convention : Reuss Voigt Hill
#
# Bulk Modulus (GPa) = 39.65638 54.54829 47.10234
# Shear Modulus (GPa) = 30.91889 34.47779 32.69834
#
# Velocity S-wave (km/s) = 3.94167 4.16235 4.05351
# Velocity P-wave (km/s) = 6.37519 7.10709 6.75107
#
# Compressibility (1/GPa) = 0.02521662
#
# Stress axis : x y z
#
# Youngs Moduli (GPa) = 114.87629 92.81147 39.43844
#
# Poissons Ratio (x) = 0.23494 0.22973
# Poissons Ratio (y) = 0.29079 0.05730
# Poissons Ratio (z) = 0.66917 0.13485
#
# Static dielectric constant tensor:
#      x y z
#    x 1.757870 0.000000 0.000000 
#    y 0.000000 1.617300 0.000000 
#    z 0.000000 0.000000 1.715910 
# 
# From -- ./inp_files/15066.got.cif
#   From: 2010.05.17/outbox.cif.g08.bks.cpg/sg60_8_cif.got.tgz:15066.got - 2010.06.03 14:59:27.
