data_PCOD9457576
_publ_section_title
;
Structure prediction by ZEFSAII (Michael W. Deem and Ramdas Pophale) SiO2 
 PCOD9457576
Probable space group: P B C N
;
_chemical_formula_sum "Si O2"
_cell_formula_units_Z 32
_cell_length_a 14.288843
_cell_length_b 11.913290
_cell_length_c 8.318835
_cell_angle_alpha 90.000000
_cell_angle_beta 90.000000
_cell_angle_gamma 90.000000
_cell_volume 1416.091411
_symmetry_space_group_name_H-M "P B C N"
_symmetry_group_IT_number 60
_symmetry_cell_setting 'orthorhombic'
loop_
_space_group_symop_operation_xyz
x,y,z
1/2-x,1/2-y,1/2+z
1/2+x,1/2-y,-z
-x,y,1/2-z
-x,-y,-z
1/2+x,1/2+y,1/2-z
1/2-x,1/2+y,z
x,-y,1/2+z
loop_
_atom_site_type_symbol
_atom_site_label
_atom_site_fract_x
_atom_site_fract_y
_atom_site_fract_z
Si Si1 0.428022 0.032373 0.859685
Si Si2 0.438278 0.361217 0.022372
Si Si3 0.887605 0.891046 0.853145
Si Si4 0.169566 0.647766 0.125583
O O1 0.500000 0.102597 0.750000
O O2 0.381688 0.931908 0.757565
O O3 0.500000 0.000000 0.000000
O O4 0.347432 0.097542 0.947604
O O5 0.411419 0.370731 0.833829
O O6 0.548690 0.335046 0.994355
O O7 0.410720 0.478090 0.107418
O O8 0.382900 0.265566 0.115791
O O9 0.780286 0.853915 0.858350
#
# Coordination Sequence:
#
# PCOD9457576 Si02
#       4
#     8   8   8   8
#     4   9  21  42  63 102 137 170 231 290 340 427
#     4  10  24  46  69 100 142 186 225 304 344 422
#     4  10  23  46  67 102 141 177 251 279 349 437
#     4  11  22  43  73  98 140 191 228 292 366 415
#
# _framework density 22.59741
#
# number of rings (size 3 to 8) (size 9 to 14) (size 15 to 20)
#    0.000    2.000    0.000    1.500    3.500    4.000 
#   49.500    0.000    0.000    0.000    0.000    0.000 
#    0.000    0.000    0.000    0.000    0.000    0.000 
#
# Total GULP energy -178397.500445 kJ/mol
# GULP energy per Si atom -5574.921889 kJ/mol
# Density = 2.254598 g / cm^3
# Si number density = 22.597410 Si / 1000 Ang^3
#
#
#
# Elastic Constant Matrix: (Units=GPa)
#
#
# Indices 1 2 3 4 5 6 
#
# 1 163.8389 33.6994 37.3800 0.0000 0.0000 0.0000
# 2 33.6994 88.6564 26.5188 0.0000 0.0000 0.0000
# 3 37.3800 26.5188 83.8993 0.0000 0.0000 0.0000
# 4 0.0000 0.0000 0.0000 12.7346 0.0000 0.0000
# 5 0.0000 0.0000 0.0000 0.0000 23.5030 0.0000
# 6 0.0000 0.0000 0.0000 0.0000 0.0000 96.4398
#
#
#
# Elastic Compliance Matrix: (Units=1/GPa)
#
#
# Indices 1 2 3 4 5 6 
#
# 1 0.007081 -0.001930 -0.002545 0.000000 0.000000 0.000000
# 2 -0.001930 0.012984 -0.003244 0.000000 0.000000 0.000000
# 3 -0.002545 -0.003244 0.014078 0.000000 0.000000 0.000000
# 4 0.000000 0.000000 0.000000 0.078526 0.000000 0.000000
# 5 0.000000 0.000000 0.000000 0.000000 0.042548 0.000000
# 6 0.000000 0.000000 0.000000 0.000000 0.000000 0.010369
#
#
# Mechanical properties :
#
#
# Convention : Reuss Voigt Hill
#
# Bulk Modulus (GPa) = 53.46173 59.06566 56.26370
# Shear Modulus (GPa) = 26.70101 42.45523 34.57812
#
# Velocity S-wave (km/s) = 3.44116 4.33917 3.91600
# Velocity P-wave (km/s) = 6.28478 7.16237 6.73788
#
# Compressibility (1/GPa) = 0.01870497
#
# Stress axis : x y z
#
# Youngs Moduli (GPa) = 141.21872 77.02042 71.03233
#
# Poissons Ratio (x) = 0.14869 0.18076
# Poissons Ratio (y) = 0.27262 0.23041
# Poissons Ratio (z) = 0.35936 0.24983
#
# Static dielectric constant tensor:
#      x y z
#    x 1.722320 0.000000 0.000000 
#    y 0.000000 1.896870 0.000000 
#    z 0.000000 0.000000 1.909230 
# 
# From -- ./inp_files/5535.got.cif
#   From: 2010.05.17/outbox.cif.g08.bks.cpg/sg60_3_cif.got.tgz:5535.got - 2010.06.03 14:59:27.
