data_PCOD9457604
_publ_section_title
;
Structure prediction by ZEFSAII (Michael W. Deem and Ramdas Pophale) SiO2 
 PCOD9457604
Probable space group: P B C N
;
_chemical_formula_sum "Si O2"
_cell_formula_units_Z 40
_cell_length_a 15.758150
_cell_length_b 8.380166
_cell_length_c 13.986158
_cell_angle_alpha 90.000000
_cell_angle_beta 90.000000
_cell_angle_gamma 90.000000
_cell_volume 1846.954862
_symmetry_space_group_name_H-M "P B C N"
_symmetry_group_IT_number 60
_symmetry_cell_setting 'orthorhombic'
loop_
_space_group_symop_operation_xyz
x,y,z
1/2-x,1/2-y,1/2+z
1/2+x,1/2-y,-z
-x,y,1/2-z
-x,-y,-z
1/2+x,1/2+y,1/2-z
1/2-x,1/2+y,z
x,-y,1/2+z
loop_
_atom_site_type_symbol
_atom_site_label
_atom_site_fract_x
_atom_site_fract_y
_atom_site_fract_z
Si Si1 0.508262 0.596919 0.856756
Si Si2 0.151950 0.108781 0.351751
Si Si3 0.217802 0.411403 0.458715
Si Si4 0.568342 0.859116 0.503859
Si Si5 0.159755 0.870627 0.631790
O O1 0.500000 0.667362 0.750000
O O2 0.445521 0.444485 0.854490
O O3 0.473240 0.720696 0.932833
O O4 0.601749 0.530091 0.877396
O O5 0.171373 0.254720 0.421240
O O6 0.177906 0.149197 0.243504
O O7 0.204864 0.957656 0.389488
O O8 0.152689 0.558206 0.454304
O O9 0.258757 0.387168 0.563404
O O10 0.602728 0.775373 0.407656
O O11 0.500000 0.000000 0.500000
#
# Coordination Sequence:
#
# PCOD9457604 Si02
#       5
#     8   8   8   8   8
#     4  10  23  47  72  99 136 188 229 289 346 415
#     4  11  24  44  70 100 144 177 239 285 351 415
#     4  12  25  44  68 103 142 183 228 293 346 416
#     4  12  26  43  69 102 139 183 234 287 342 418
#     4  11  25  44  74 100 139 189 229 289 357 405
#
# _framework density 21.657271000000001
#
# number of rings (size 3 to 8) (size 9 to 14) (size 15 to 20)
#    0.000    0.800    4.000    1.800    5.600    1.600 
#    3.600    0.000    0.000    0.000    0.000    0.000 
#    0.000    0.000    0.000    0.000    0.000    0.000 
#
# Total GULP energy -223832.288400 kJ/mol
# GULP energy per Si atom -5595.807210 kJ/mol
# Density = 2.160798 g / cm^3
# Si number density = 21.657271 Si / 1000 Ang^3
#
#
#
# Elastic Constant Matrix: (Units=GPa)
#
#
# Indices 1 2 3 4 5 6 
#
# 1 53.3284 -0.4553 22.8336 0.0000 0.0000 0.0000
# 2 -0.4553 65.7391 34.2840 0.0000 0.0000 0.0000
# 3 22.8336 34.2840 122.2441 0.0000 0.0000 0.0000
# 4 0.0000 0.0000 0.0000 8.1099 0.0000 0.0000
# 5 0.0000 0.0000 0.0000 0.0000 32.0900 0.0000
# 6 0.0000 0.0000 0.0000 0.0000 0.0000 32.8157
#
#
#
# Elastic Compliance Matrix: (Units=1/GPa)
#
#
# Indices 1 2 3 4 5 6 
#
# 1 0.020736 0.002534 -0.004584 0.000000 0.000000 0.000000
# 2 0.002534 0.018127 -0.005557 0.000000 0.000000 0.000000
# 3 -0.004584 -0.005557 0.010595 0.000000 0.000000 0.000000
# 4 0.000000 0.000000 0.000000 0.123307 0.000000 0.000000
# 5 0.000000 0.000000 0.000000 0.000000 0.031162 0.000000
# 6 0.000000 0.000000 0.000000 0.000000 0.000000 0.030473
#
#
# Mechanical properties :
#
#
# Convention : Reuss Voigt Hill
#
# Bulk Modulus (GPa) = 29.20170 39.40401 34.30285
# Shear Modulus (GPa) = 19.15491 26.91307 23.03399
#
# Velocity S-wave (km/s) = 2.97721 3.52899 3.26478
# Velocity P-wave (km/s) = 5.03301 5.90245 5.48498
#
# Compressibility (1/GPa) = 0.03424459
#
# Stress axis : x y z
#
# Youngs Moduli (GPa) = 48.22511 55.16510 94.38286
#
# Poissons Ratio (x) = -0.13980 0.43265
# Poissons Ratio (y) = -0.12221 0.52451
# Poissons Ratio (z) = 0.22106 0.30657
#
# Static dielectric constant tensor:
#      x y z
#    x 1.840680 0.000000 0.000000 
#    y 0.000000 1.783920 0.000000 
#    z 0.000000 0.000000 1.788400 
# 
# From -- ./inp_files/16609.got.cif
#   From: 2010.05.17/outbox.cif.g08.bks.cpg/sg60_9_cif.got.tgz:16609.got - 2010.06.03 14:59:27.
