data_PCOD9457739
_publ_section_title
;
Structure prediction by ZEFSAII (Michael W. Deem and Ramdas Pophale) SiO2 
 PCOD9457739
Probable space group: P B C N
;
_chemical_formula_sum "Si O2"
_cell_formula_units_Z 32
_cell_length_a 14.257538
_cell_length_b 10.255451
_cell_length_c 8.827881
_cell_angle_alpha 90.000000
_cell_angle_beta 90.000000
_cell_angle_gamma 90.000000
_cell_volume 1290.790534
_symmetry_space_group_name_H-M "P B C N"
_symmetry_group_IT_number 60
_symmetry_cell_setting 'orthorhombic'
loop_
_space_group_symop_operation_xyz
x,y,z
1/2-x,1/2-y,1/2+z
1/2+x,1/2-y,-z
-x,y,1/2-z
-x,-y,-z
1/2+x,1/2+y,1/2-z
1/2-x,1/2+y,z
x,-y,1/2+z
loop_
_atom_site_type_symbol
_atom_site_label
_atom_site_fract_x
_atom_site_fract_y
_atom_site_fract_z
Si Si1 0.776416 0.193405 0.421426
Si Si2 0.077447 0.824109 0.059433
Si Si3 0.149983 0.001411 0.820056
Si Si4 0.953679 0.371603 0.419810
O O1 0.670383 0.236001 0.444890
O O2 0.800651 0.098330 0.561905
O O3 0.844178 0.322797 0.405819
O O4 0.786857 0.102366 0.272453
O O5 0.988044 0.736660 0.039733
O O6 0.078377 0.915092 0.913638
O O7 0.095972 0.913051 0.200594
O O8 0.000000 0.363189 0.250000
O O9 0.000000 0.500000 0.500000
#
# Coordination Sequence:
#
# PCOD9457739 Si02
#       4
#     8   8   8   8
#     4  11  25  45  72 104 144 185 235 291 354 413
#     4  11  25  45  72 104 144 185 235 291 354 413
#     4  10  24  43  74  99 138 190 238 287 350 415
#     4  12  30  47  71 106 146 185 234 290 358 425
#
# _framework density 24.791008000000001
#
# number of rings (size 3 to 8) (size 9 to 14) (size 15 to 20)
#    0.000    1.000    2.500    1.500   10.500    6.000 
#    0.000    0.000    0.000    0.000    0.000    0.000 
#    0.000    0.000    0.000    0.000    0.000    0.000 
#
# Total GULP energy -178991.143069 kJ/mol
# GULP energy per Si atom -5593.473221 kJ/mol
# Density = 2.473458 g / cm^3
# Si number density = 24.791008 Si / 1000 Ang^3
#
#
#
# Elastic Constant Matrix: (Units=GPa)
#
#
# Indices 1 2 3 4 5 6 
#
# 1 81.8568 2.2236 -15.8743 0.0000 0.0000 0.0000
# 2 2.2236 107.2813 37.0818 0.0000 0.0000 0.0000
# 3 -15.8743 37.0818 107.1959 0.0000 0.0000 0.0000
# 4 0.0000 0.0000 0.0000 -4.5827 0.0000 0.0000
# 5 0.0000 0.0000 0.0000 0.0000 -21.7430 0.0000
# 6 0.0000 0.0000 0.0000 0.0000 0.0000 24.5178
#
#
#
# Elastic Compliance Matrix: (Units=1/GPa)
#
#
# Indices 1 2 3 4 5 6 
#
# 1 0.012678 -0.001036 0.002236 0.000000 0.000000 0.000000
# 2 -0.001036 0.010672 -0.003845 0.000000 0.000000 0.000000
# 3 0.002236 -0.003845 0.010990 0.000000 0.000000 0.000000
# 4 0.000000 0.000000 0.000000 -0.218213 0.000000 0.000000
# 5 0.000000 0.000000 0.000000 0.000000 -0.045992 0.000000
# 6 0.000000 0.000000 0.000000 0.000000 0.000000 0.040787
#
#
# Mechanical properties :
#
#
# Convention : Reuss Voigt Hill
#
# Bulk Modulus (GPa) = 34.42329 38.13291 36.27810
# Shear Modulus (GPa) = -28.71817 17.83196 -5.44310
#
# Velocity S-wave (km/s) = -3.40724 2.68487 -1.48336
# Velocity P-wave (km/s) = 1.25039 5.00265 3.42513
#
# Compressibility (1/GPa) = 0.02905010
#
# Stress axis : x y z
#
# Youngs Moduli (GPa) = 78.87588 93.70513 90.99290
#
# Poissons Ratio (x) = 0.09704 -0.20343
# Poissons Ratio (y) = 0.08168 0.34987
# Poissons Ratio (z) = -0.17634 0.36030
#
# Static dielectric constant tensor:
#      x y z
#    x 1.960580 0.000000 0.000000 
#    y 0.000000 2.013800 0.000000 
#    z 0.000000 0.000000 2.000860 
# 
# From -- ./inp_files/5467.got.cif
#   From: 2010.05.17/outbox.cif.g08.bks.cpg/sg60_3_cif.got.tgz:5467.got - 2010.06.03 14:59:27.
