data_PCOD9457217
_publ_section_title
;
Structure prediction by ZEFSAII (Michael W. Deem and Ramdas Pophale) SiO2 
 PCOD9457217
Probable space group: P B C N
;
_chemical_formula_sum "Si O2"
_cell_formula_units_Z 28
_cell_length_a 4.888103
_cell_length_b 20.130266
_cell_length_c 10.604995
_cell_angle_alpha 90.000000
_cell_angle_beta 90.000000
_cell_angle_gamma 90.000000
_cell_volume 1043.518927
_symmetry_space_group_name_H-M "P B C N"
_symmetry_group_IT_number 60
_symmetry_cell_setting 'orthorhombic'
loop_
_space_group_symop_operation_xyz
x,y,z
1/2-x,1/2-y,1/2+z
1/2+x,1/2-y,-z
-x,y,1/2-z
-x,-y,-z
1/2+x,1/2+y,1/2-z
1/2-x,1/2+y,z
x,-y,1/2+z
loop_
_atom_site_type_symbol
_atom_site_label
_atom_site_fract_x
_atom_site_fract_y
_atom_site_fract_z
Si Si1 0.500000 0.647658 0.250000
Si Si2 0.658902 0.208038 0.025538
Si Si3 0.636045 0.406410 0.368818
Si Si4 0.775238 0.539336 0.414458
O O1 0.321790 0.689390 0.348571
O O2 0.726124 0.600917 0.319730
O O3 0.653563 0.142325 0.938301
O O4 0.362616 0.239217 0.040684
O O5 0.500000 0.370407 0.250000
O O6 0.737694 0.476944 0.319633
O O7 0.432755 0.433071 0.477549
O O8 0.000000 0.500000 0.500000
#
# Coordination Sequence:
#
# PCOD9457217 Si02
#       4
#     4   8   8   8
#     4  10  24  50  72 110 152 194 256 328 388 466
#     4  11  28  49  72 105 145 202 254 302 379 461
#     4  10  23  44  67 105 140 179 246 302 371 458
#     4  10  22  45  71 108 144 188 239 313 398 455
#
# _framework density 26.832286
#
# number of rings (size 3 to 8) (size 9 to 14) (size 15 to 20)
#    0.000    1.714    1.429    0.000   12.000    1.143 
#   10.286    0.000    0.000    0.000    0.000    0.000 
#    0.000    0.000    0.000    0.000    0.000    0.000 
#
# Total GULP energy -156118.534405 kJ/mol
# GULP energy per Si atom -5575.661943 kJ/mol
# Density = 2.677121 g / cm^3
# Si number density = 26.832286 Si / 1000 Ang^3
#
#
#
# Elastic Constant Matrix: (Units=GPa)
#
#
# Indices 1 2 3 4 5 6 
#
# 1 114.7612 27.6500 10.4731 0.0000 0.0000 0.0000
# 2 27.6500 133.6635 14.8523 0.0000 0.0000 0.0000
# 3 10.4731 14.8523 100.3579 0.0000 0.0000 0.0000
# 4 0.0000 0.0000 0.0000 5.4481 0.0000 0.0000
# 5 0.0000 0.0000 0.0000 0.0000 46.1277 0.0000
# 6 0.0000 0.0000 0.0000 0.0000 0.0000 0.8619
#
#
#
# Elastic Compliance Matrix: (Units=1/GPa)
#
#
# Indices 1 2 3 4 5 6 
#
# 1 0.009218 -0.001830 -0.000691 0.000000 0.000000 0.000000
# 2 -0.001830 0.007970 -0.000989 0.000000 0.000000 0.000000
# 3 -0.000691 -0.000989 0.010183 0.000000 0.000000 0.000000
# 4 0.000000 0.000000 0.000000 0.183549 0.000000 0.000000
# 5 0.000000 0.000000 0.000000 0.000000 0.021679 0.000000
# 6 0.000000 0.000000 0.000000 0.000000 0.000000 1.160205
#
#
# Mechanical properties :
#
#
# Convention : Reuss Voigt Hill
#
# Bulk Modulus (GPa) = 49.13740 50.52592 49.83166
# Shear Modulus (GPa) = 3.55466 30.20803 16.88135
#
# Velocity S-wave (km/s) = 1.15223 3.35895 2.51099
# Velocity P-wave (km/s) = 4.48584 5.82362 5.19794
#
# Compressibility (1/GPa) = 0.02035110
#
# Stress axis : x y z
#
# Youngs Moduli (GPa) = 108.48657 125.47248 98.20524
#
# Poissons Ratio (x) = 0.22962 0.06787
# Poissons Ratio (y) = 0.19853 0.09708
# Poissons Ratio (z) = 0.07498 0.12403
#
# Static dielectric constant tensor:
#      x y z
#    x 2.408260 0.000000 0.000000 
#    y 0.000000 2.185930 0.000000 
#    z 0.000000 0.000000 2.187880 
# 
# From -- ./inp_files/8743.got.cif
#   From: 2010.05.17/outbox.cif.g08.bks.cpg/sg60_5_cif.got.tgz:8743.got - 2010.06.03 14:59:27.
