data_PCOD9457905
_publ_section_title
;
Structure prediction by ZEFSAII (Michael W. Deem and Ramdas Pophale) SiO2 
 PCOD9457905
Probable space group: P B C N
;
_chemical_formula_sum "Si O2"
_cell_formula_units_Z 40
_cell_length_a 11.167845
_cell_length_b 5.185551
_cell_length_c 25.178675
_cell_angle_alpha 90.000000
_cell_angle_beta 90.000000
_cell_angle_gamma 90.000000
_cell_volume 1458.133070
_symmetry_space_group_name_H-M "P B C N"
_symmetry_group_IT_number 60
_symmetry_cell_setting 'orthorhombic'
loop_
_space_group_symop_operation_xyz
x,y,z
1/2-x,1/2-y,1/2+z
1/2+x,1/2-y,-z
-x,y,1/2-z
-x,-y,-z
1/2+x,1/2+y,1/2-z
1/2-x,1/2+y,z
x,-y,1/2+z
loop_
_atom_site_type_symbol
_atom_site_label
_atom_site_fract_x
_atom_site_fract_y
_atom_site_fract_z
Si Si1 0.000000 0.508263 0.750000
Si Si2 0.500000 0.500000 0.000000
Si Si3 0.178047 0.794427 0.673311
Si Si4 0.112349 0.760337 0.895453
Si Si5 0.182712 0.359922 0.052419
Si Si6 0.383385 0.242969 0.349447
O O1 0.914443 0.684206 0.785108
O O2 0.914298 0.351880 0.709339
O O3 0.405965 0.388384 0.952295
O O4 0.588698 0.259366 0.987363
O O5 0.291281 0.594841 0.680755
O O6 0.149966 0.727699 0.611959
O O7 0.058395 0.979903 0.857344
O O8 0.246115 0.724264 0.869665
O O9 0.064232 0.471456 0.889281
O O10 0.201340 0.665971 0.046282
#
# Coordination Sequence:
#
# PCOD9457905 Si02
#       6
#     4   4   8   8   8   8
#     4  12  26  44  84 104 150 212 236 316 408 418
#     4  12  26  44  84 104 148 212 230 316 404 418
#     4  10  25  46  68 104 147 189 252 305 363 467
#     4  10  25  45  69 108 149 187 251 309 363 458
#     4  10  25  46  68 104 146 187 250 302 360 463
#     4  10  25  45  69 108 149 187 252 310 362 458
#
# _framework density 27.432341000000001
#
# number of rings (size 3 to 8) (size 9 to 14) (size 15 to 20)
#    0.000    1.600    0.000    1.200   11.200   11.200 
#    0.000    0.000    0.000    0.000    0.000    0.000 
#    0.000    0.000    0.000    0.000    0.000    0.000 
#
# Total GULP energy -222724.470556 kJ/mol
# GULP energy per Si atom -5568.111764 kJ/mol
# Density = 2.736990 g / cm^3
# Si number density = 27.432341 Si / 1000 Ang^3
#
#
#
# Elastic Constant Matrix: (Units=GPa)
#
#
# Indices 1 2 3 4 5 6 
#
# 1 64.0495 -26.9338 23.8647 0.0000 0.0000 0.0000
# 2 -26.9338 117.3944 23.2570 0.0000 0.0000 0.0000
# 3 23.8647 23.2570 146.0907 0.0000 0.0000 0.0000
# 4 0.0000 0.0000 0.0000 56.9993 0.0000 0.0000
# 5 0.0000 0.0000 0.0000 0.0000 62.1914 0.0000
# 6 0.0000 0.0000 0.0000 0.0000 0.0000 22.6152
#
#
#
# Elastic Compliance Matrix: (Units=1/GPa)
#
#
# Indices 1 2 3 4 5 6 
#
# 1 0.019289 0.005214 -0.003981 0.000000 0.000000 0.000000
# 2 0.005214 0.010205 -0.002476 0.000000 0.000000 0.000000
# 3 -0.003981 -0.002476 0.007890 0.000000 0.000000 0.000000
# 4 0.000000 0.000000 0.000000 0.017544 0.000000 0.000000
# 5 0.000000 0.000000 0.000000 0.000000 0.016079 0.000000
# 6 0.000000 0.000000 0.000000 0.000000 0.000000 0.044218
#
#
# Mechanical properties :
#
#
# Convention : Reuss Voigt Hill
#
# Bulk Modulus (GPa) = 28.65567 40.87893 34.76730
# Shear Modulus (GPa) = 38.65659 48.85095 43.75377
#
# Velocity S-wave (km/s) = 3.75795 4.22451 3.99804
# Velocity P-wave (km/s) = 5.41278 6.22329 5.83213
#
# Compressibility (1/GPa) = 0.03489711
#
# Stress axis : x y z
#
# Youngs Moduli (GPa) = 51.84340 97.98970 126.74903
#
# Poissons Ratio (x) = -0.51093 0.50459
# Poissons Ratio (y) = -0.27032 0.31388
# Poissons Ratio (z) = 0.20639 0.24266
#
# Static dielectric constant tensor:
#      x y z
#    x 2.928280 0.000000 0.000000 
#    y 0.000000 2.145980 0.000000 
#    z 0.000000 0.000000 2.014830 
# 
# From -- ./inp_files/25267.got.cif
#   From: 2010.05.17/outbox.cif.g08.bks.cpg/sg60_13_cif.got.tgz:25267.got - 2010.06.03 14:59:27.
