data_PCOD9457229
_publ_section_title
;
Structure prediction by ZEFSAII (Michael W. Deem and Ramdas Pophale) SiO2 
 PCOD9457229
Probable space group: P B C N
;
_chemical_formula_sum "Si O2"
_cell_formula_units_Z 60
_cell_length_a 16.026248
_cell_length_b 17.706489
_cell_length_c 9.350469
_cell_angle_alpha 90.000000
_cell_angle_beta 90.000000
_cell_angle_gamma 90.000000
_cell_volume 2653.369347
_symmetry_space_group_name_H-M "P B C N"
_symmetry_group_IT_number 60
_symmetry_cell_setting 'orthorhombic'
loop_
_space_group_symop_operation_xyz
x,y,z
1/2-x,1/2-y,1/2+z
1/2+x,1/2-y,-z
-x,y,1/2-z
-x,-y,-z
1/2+x,1/2+y,1/2-z
1/2-x,1/2+y,z
x,-y,1/2+z
loop_
_atom_site_type_symbol
_atom_site_label
_atom_site_fract_x
_atom_site_fract_y
_atom_site_fract_z
Si Si1 0.907543 0.931800 0.746310
Si Si2 0.837612 0.696249 0.236211
Si Si3 0.000000 0.799716 0.250000
Si Si4 0.069589 0.562495 0.367496
Si Si5 0.247097 0.410102 0.566169
Si Si6 0.904162 0.911636 0.415006
Si Si7 0.867500 0.551643 0.846928
Si Si8 0.255417 0.343145 0.262878
O O1 0.828533 0.899608 0.833721
O O2 0.888902 0.934388 0.577856
O O3 0.000000 0.894698 0.750000
O O4 0.917058 0.013296 0.821891
O O5 0.920605 0.746626 0.229621
O O6 0.855586 0.623890 0.139146
O O7 0.817274 0.655882 0.386561
O O8 0.765614 0.755596 0.199285
O O9 0.981715 0.855498 0.383596
O O10 0.059174 0.555036 0.536569
O O11 0.102169 0.485729 0.299062
O O12 0.000000 0.587049 0.250000
O O13 0.202644 0.491169 0.595777
O O14 0.268905 0.395113 0.402290
O O15 0.825746 0.866620 0.351125
O O16 0.830324 0.632084 0.808284
#
# Coordination Sequence:
#
# PCOD9457229 Si02
#       8
#     8   8   4   8   8   8   8   8
#     4  12  25  39  65 104 140 177 229 294 347 419
#     4  10  25  41  71  93 138 181 230 276 353 425
#     4  10  22  46  64  94 134 186 226 274 350 422
#     4  11  23  44  70 101 134 179 233 291 356 416
#     4  11  25  44  67 103 140 184 237 288 348 421
#     4  11  24  38  67  97 138 179 227 281 354 418
#     4  11  23  41  70 100 133 179 228 298 342 412
#     4  11  24  43  69  99 137 179 233 285 353 420
#
# _framework density 22.612759
#
# number of rings (size 3 to 8) (size 9 to 14) (size 15 to 20)
#    0.000    1.067    4.000    1.600    9.333    1.067 
#    0.000    0.000    0.000    0.800    0.000    0.000 
#    0.000    0.000    0.000    0.000    0.000    0.000 
#
# Total GULP energy -334880.567604 kJ/mol
# GULP energy per Si atom -5581.342793 kJ/mol
# Density = 2.256129 g / cm^3
# Si number density = 22.612759 Si / 1000 Ang^3
#
#
#
# Elastic Constant Matrix: (Units=GPa)
#
#
# Indices 1 2 3 4 5 6 
#
# 1 75.1487 27.2555 24.7778 0.0000 0.0000 0.0000
# 2 27.2555 61.4946 -7.7082 0.0000 0.0000 0.0000
# 3 24.7778 -7.7082 104.3895 0.0000 0.0000 0.0000
# 4 0.0000 0.0000 0.0000 9.8311 0.0000 0.0000
# 5 0.0000 0.0000 0.0000 0.0000 38.7133 0.0000
# 6 0.0000 0.0000 0.0000 0.0000 0.0000 15.3128
#
#
#
# Elastic Compliance Matrix: (Units=1/GPa)
#
#
# Indices 1 2 3 4 5 6 
#
# 1 0.018056 -0.008620 -0.004922 0.000000 0.000000 0.000000
# 2 -0.008620 0.020529 0.003562 0.000000 0.000000 0.000000
# 3 -0.004922 0.003562 0.011011 0.000000 0.000000 0.000000
# 4 0.000000 0.000000 0.000000 0.101718 0.000000 0.000000
# 5 0.000000 0.000000 0.000000 0.000000 0.025831 0.000000
# 6 0.000000 0.000000 0.000000 0.000000 0.000000 0.065305
#
#
# Mechanical properties :
#
#
# Convention : Reuss Voigt Hill
#
# Bulk Modulus (GPa) = 33.74389 36.63146 35.18768
# Shear Modulus (GPa) = 18.36288 25.88528 22.12408
#
# Velocity S-wave (km/s) = 2.85276 3.38704 3.13132
# Velocity P-wave (km/s) = 5.07995 5.61522 5.35428
#
# Compressibility (1/GPa) = 0.02963499
#
# Stress axis : x y z
#
# Youngs Moduli (GPa) = 55.38260 48.71273 90.81943
#
# Poissons Ratio (x) = 0.41990 0.44704
# Poissons Ratio (y) = 0.47739 -0.32348
# Poissons Ratio (z) = 0.27261 -0.17351
#
# Static dielectric constant tensor:
#      x y z
#    x 1.960000 0.000000 0.000000 
#    y 0.000000 1.839870 0.000000 
#    z 0.000000 0.000000 1.835030 
# 
# From -- ./inp_files/6920.got.cif
#   From: 2010.05.17/outbox.cif.g08.bks.cpg/sg60_4_cif.got.tgz:6920.got - 2010.06.03 14:59:27.
