data_PCOD9457254
_publ_section_title
;
Structure prediction by ZEFSAII (Michael W. Deem and Ramdas Pophale) SiO2 
 PCOD9457254
Probable space group: P B C N
;
_chemical_formula_sum "Si O2"
_cell_formula_units_Z 32
_cell_length_a 7.096438
_cell_length_b 12.721436
_cell_length_c 12.690814
_cell_angle_alpha 90.000000
_cell_angle_beta 90.000000
_cell_angle_gamma 90.000000
_cell_volume 1145.687116
_symmetry_space_group_name_H-M "P B C N"
_symmetry_group_IT_number 60
_symmetry_cell_setting 'orthorhombic'
loop_
_space_group_symop_operation_xyz
x,y,z
1/2-x,1/2-y,1/2+z
1/2+x,1/2-y,-z
-x,y,1/2-z
-x,-y,-z
1/2+x,1/2+y,1/2-z
1/2-x,1/2+y,z
x,-y,1/2+z
loop_
_atom_site_type_symbol
_atom_site_label
_atom_site_fract_x
_atom_site_fract_y
_atom_site_fract_z
Si Si1 0.021465 0.374122 0.499483
Si Si2 0.624621 0.611988 0.613666
Si Si3 0.810012 0.587491 0.198482
Si Si4 0.255587 0.213569 0.668939
O O1 0.744842 0.140002 0.514235
O O2 0.904659 0.345710 0.603596
O O3 0.933811 0.320550 0.397316
O O4 0.000000 0.500000 0.500000
O O5 0.656696 0.488303 0.643939
O O6 0.715068 0.657969 0.720027
O O7 0.415851 0.657738 0.602364
O O8 0.739583 0.665990 0.289307
O O9 0.000000 0.533726 0.250000
#
# Coordination Sequence:
#
# PCOD9457254 Si02
#       4
#     8   8   8   8
#     4  10  23  44  75 103 147 200 249 311 385 451
#     4  10  22  46  73 103 149 194 241 313 374 451
#     4  11  23  45  72 104 147 192 246 315 368 455
#     4  11  23  47  68 111 148 188 260 304 368 467
#
# _framework density 27.930834000000001
#
# number of rings (size 3 to 8) (size 9 to 14) (size 15 to 20)
#    0.000    1.500    2.500    3.750    0.000    6.000 
#    9.000    2.500    0.000    1.500    0.000    0.000 
#    0.000    0.000    0.000    0.000    0.000    0.000 
#
# Total GULP energy -178833.465495 kJ/mol
# GULP energy per Si atom -5588.545797 kJ/mol
# Density = 2.786726 g / cm^3
# Si number density = 27.930834 Si / 1000 Ang^3
#
#
#
# Elastic Constant Matrix: (Units=GPa)
#
#
# Indices 1 2 3 4 5 6 
#
# 1 143.6217 34.9365 28.0124 0.0000 0.0000 0.0000
# 2 34.9365 119.3422 4.8179 0.0000 0.0000 0.0000
# 3 28.0124 4.8179 128.9672 0.0000 0.0000 0.0000
# 4 0.0000 0.0000 0.0000 40.7091 0.0000 0.0000
# 5 0.0000 0.0000 0.0000 0.0000 64.4708 0.0000
# 6 0.0000 0.0000 0.0000 0.0000 0.0000 32.8230
#
#
#
# Elastic Compliance Matrix: (Units=1/GPa)
#
#
# Indices 1 2 3 4 5 6 
#
# 1 0.007819 -0.002224 -0.001615 0.000000 0.000000 0.000000
# 2 -0.002224 0.009024 0.000146 0.000000 0.000000 0.000000
# 3 -0.001615 0.000146 0.008099 0.000000 0.000000 0.000000
# 4 0.000000 0.000000 0.000000 0.024565 0.000000 0.000000
# 5 0.000000 0.000000 0.000000 0.000000 0.015511 0.000000
# 6 0.000000 0.000000 0.000000 0.000000 0.000000 0.030466
#
#
# Mechanical properties :
#
#
# Convention : Reuss Voigt Hill
#
# Bulk Modulus (GPa) = 56.95948 58.60719 57.78333
# Shear Modulus (GPa) = 45.98873 49.21151 47.60012
#
# Velocity S-wave (km/s) = 4.06214 4.20206 4.13269
# Velocity P-wave (km/s) = 6.51449 6.67620 6.59584
#
# Compressibility (1/GPa) = 0.01755634
#
# Stress axis : x y z
#
# Youngs Moduli (GPa) = 127.89881 110.81151 123.46762
#
# Poissons Ratio (x) = 0.24641 0.19942
# Poissons Ratio (y) = 0.28440 -0.01801
# Poissons Ratio (z) = 0.20658 -0.01616
#
# Static dielectric constant tensor:
#      x y z
#    x 2.209980 0.000000 0.000000 
#    y 0.000000 2.290520 0.000000 
#    z 0.000000 0.000000 1.847880 
# 
# From -- ./inp_files/14401.got.cif
#   From: 2010.05.17/outbox.cif.g08.bks.cpg/sg60_8_cif.got.tgz:14401.got - 2010.06.03 14:59:27.
