data_PCOD9457632
_publ_section_title
;
Structure prediction by ZEFSAII (Michael W. Deem and Ramdas Pophale) SiO2 
 PCOD9457632
Probable space group: P B C N
;
_chemical_formula_sum "Si O2"
_cell_formula_units_Z 44
_cell_length_a 24.696041
_cell_length_b 9.483702
_cell_length_c 9.151360
_cell_angle_alpha 90.000000
_cell_angle_beta 90.000000
_cell_angle_gamma 90.000000
_cell_volume 2143.339050
_symmetry_space_group_name_H-M "P B C N"
_symmetry_group_IT_number 60
_symmetry_cell_setting 'orthorhombic'
loop_
_space_group_symop_operation_xyz
x,y,z
1/2-x,1/2-y,1/2+z
1/2+x,1/2-y,-z
-x,y,1/2-z
-x,-y,-z
1/2+x,1/2+y,1/2-z
1/2-x,1/2+y,z
x,-y,1/2+z
loop_
_atom_site_type_symbol
_atom_site_label
_atom_site_fract_x
_atom_site_fract_y
_atom_site_fract_z
Si Si1 0.393552 0.855841 0.880893
Si Si2 0.795795 0.852706 0.118861
Si Si3 0.000000 0.000000 0.000000
Si Si4 0.109517 0.633801 0.724551
Si Si5 0.707921 0.654524 0.273319
Si Si6 0.500000 0.727679 0.250000
Si Si7 0.500000 0.274325 0.250000
O O1 0.354431 0.720851 0.868108
O O2 0.450394 0.818379 0.807342
O O3 0.369507 0.991905 0.799780
O O4 0.398369 0.889622 0.051981
O O5 0.753837 0.750101 0.199578
O O6 0.795095 0.004516 0.194238
O O7 0.782297 0.863803 0.946678
O O8 0.015998 0.125705 0.117111
O O9 0.982418 0.121427 0.880126
O O10 0.151869 0.760267 0.744446
O O11 0.051790 0.678644 0.789695
#
# Coordination Sequence:
#
# PCOD9457632 Si02
#       7
#     8   8   4   8   8   4   4
#     4  11  26  43  65  95 133 172 216 266 321 381
#     4  11  25  45  69  98 130 170 216 268 324 383
#     4  10  24  38  66  94 136 162 218 266 316 384
#     4  11  26  43  65  95 133 172 216 266 321 381
#     4  11  25  45  69  98 130 170 216 268 324 383
#     4  11  23  42  64  96 132 170 214 262 326 378
#     4  11  23  42  64  96 132 170 214 262 326 378
#
# _framework density 20.528717
#
# number of rings (size 3 to 8) (size 9 to 14) (size 15 to 20)
#    0.000    1.091    1.818    2.727    7.636    7.273 
#    0.000    0.000    0.000    0.000    0.000    0.000 
#    0.000    0.000    0.000    0.000    0.000    0.000 
#
# Total GULP energy -245023.304513 kJ/mol
# GULP energy per Si atom -5568.711466 kJ/mol
# Density = 2.048199 g / cm^3
# Si number density = 20.528717 Si / 1000 Ang^3
#
#
#
# Elastic Constant Matrix: (Units=GPa)
#
#
# Indices 1 2 3 4 5 6 
#
# 1 71.6831 23.6626 35.8375 0.0000 0.0000 0.0000
# 2 23.6626 159.3333 77.0039 0.0000 0.0000 0.0000
# 3 35.8375 77.0039 87.5641 0.0000 0.0000 0.0000
# 4 0.0000 0.0000 0.0000 35.0344 0.0000 0.0000
# 5 0.0000 0.0000 0.0000 0.0000 23.9437 0.0000
# 6 0.0000 0.0000 0.0000 0.0000 0.0000 1.0315
#
#
#
# Elastic Compliance Matrix: (Units=1/GPa)
#
#
# Indices 1 2 3 4 5 6 
#
# 1 0.017749 0.001521 -0.008602 0.000000 0.000000 0.000000
# 2 0.001521 0.011046 -0.010336 0.000000 0.000000 0.000000
# 3 -0.008602 -0.010336 0.024030 0.000000 0.000000 0.000000
# 4 0.000000 0.000000 0.000000 0.028543 0.000000 0.000000
# 5 0.000000 0.000000 0.000000 0.000000 0.041765 0.000000
# 6 0.000000 0.000000 0.000000 0.000000 0.000000 0.969497
#
#
# Mechanical properties :
#
#
# Convention : Reuss Voigt Hill
#
# Bulk Modulus (GPa) = 55.58289 65.73204 60.65747
# Shear Modulus (GPa) = 4.41127 24.14033 14.27580
#
# Velocity S-wave (km/s) = 1.46748 3.43290 2.63992
# Velocity P-wave (km/s) = 5.47775 6.91391 6.23731
#
# Compressibility (1/GPa) = 0.01799115
#
# Stress axis : x y z
#
# Youngs Moduli (GPa) = 56.34267 90.53431 41.61417
#
# Poissons Ratio (x) = -0.13773 0.35796
# Poissons Ratio (y) = -0.08572 0.43013
# Poissons Ratio (z) = 0.48465 0.93577
#
# Static dielectric constant tensor:
#      x y z
#    x 1.744260 0.000000 0.000000 
#    y 0.000000 1.722010 0.000000 
#    z 0.000000 0.000000 1.725140 
# 
# From -- ./inp_files/8369.got.cif
#   From: 2010.05.17/outbox.cif.g08.bks.cpg/sg60_5_cif.got.tgz:8369.got - 2010.06.03 14:59:27.
