data_PCOD9457877
_publ_section_title
;
Structure prediction by ZEFSAII (Michael W. Deem and Ramdas Pophale) SiO2 
 PCOD9457877
Probable space group: P B C N
;
_chemical_formula_sum "Si O2"
_cell_formula_units_Z 52
_cell_length_a 7.260464
_cell_length_b 11.600935
_cell_length_c 24.524744
_cell_angle_alpha 90.000000
_cell_angle_beta 90.000000
_cell_angle_gamma 90.000000
_cell_volume 2065.674330
_symmetry_space_group_name_H-M "P B C N"
_symmetry_group_IT_number 60
_symmetry_cell_setting 'orthorhombic'
loop_
_space_group_symop_operation_xyz
x,y,z
1/2-x,1/2-y,1/2+z
1/2+x,1/2-y,-z
-x,y,1/2-z
-x,-y,-z
1/2+x,1/2+y,1/2-z
1/2-x,1/2+y,z
x,-y,1/2+z
loop_
_atom_site_type_symbol
_atom_site_label
_atom_site_fract_x
_atom_site_fract_y
_atom_site_fract_z
Si Si1 0.721696 0.070590 0.102533
Si Si2 0.654545 0.367657 0.380609
Si Si3 0.869159 0.962333 0.199337
Si Si4 0.976702 0.845411 0.505018
Si Si5 0.874896 0.403066 0.024861
Si Si6 0.662751 0.880619 0.856681
Si Si7 0.500000 0.013113 0.250000
O O1 0.527657 0.132147 0.109077
O O2 0.843980 0.108092 0.051929
O O3 0.833579 0.069043 0.158223
O O4 0.669167 0.938501 0.086759
O O5 0.482462 0.373000 0.338061
O O6 0.595719 0.363466 0.443815
O O7 0.755193 0.245265 0.366023
O O8 0.663848 0.938961 0.222305
O O9 0.000000 0.989392 0.250000
O O10 0.182791 0.892347 0.506635
O O11 0.247413 0.005029 0.627389
O O12 0.014330 0.712127 0.981578
O O13 0.000000 0.500000 0.000000
O O14 0.597653 0.906333 0.795005
#
# Coordination Sequence:
#
# PCOD9457877 Si02
#       7
#     8   8   8   8   8   8   4
#     4  11  27  49  78 116 167 214 278 332 418 500
#     4  12  27  50  83 117 168 217 279 343 421 492
#     4  11  24  51  83 115 161 213 277 355 415 491
#     4  12  28  48  78 119 163 220 270 337 420 513
#     4  12  26  47  75 113 161 211 265 334 411 503
#     4  11  27  50  81 123 161 222 275 350 411 499
#     4  10  24  50  82 122 160 206 282 350 428 496
#
# _framework density 25.173376999999999
#
# number of rings (size 3 to 8) (size 9 to 14) (size 15 to 20)
#    0.000    0.615    3.077    3.231    7.538    0.000 
#    0.000    3.077    6.769    0.000    0.000    0.000 
#    0.000    0.000    0.000    0.000    0.000    0.000 
#
# Total GULP energy -290938.729608 kJ/mol
# GULP energy per Si atom -5594.975569 kJ/mol
# Density = 2.511608 g / cm^3
# Si number density = 25.173377 Si / 1000 Ang^3
#
#
#
# Elastic Constant Matrix: (Units=GPa)
#
#
# Indices 1 2 3 4 5 6 
#
# 1 129.7681 56.7954 67.4108 0.0000 0.0000 0.0000
# 2 56.7954 181.2200 47.8731 0.0000 0.0000 0.0000
# 3 67.4108 47.8731 168.3305 0.0000 0.0000 0.0000
# 4 0.0000 0.0000 0.0000 16.4864 0.0000 0.0000
# 5 0.0000 0.0000 0.0000 0.0000 62.1601 0.0000
# 6 0.0000 0.0000 0.0000 0.0000 0.0000 39.7279
#
#
#
# Elastic Compliance Matrix: (Units=1/GPa)
#
#
# Indices 1 2 3 4 5 6 
#
# 1 0.010601 -0.002380 -0.003569 0.000000 0.000000 0.000000
# 2 -0.002380 0.006501 -0.000896 0.000000 0.000000 0.000000
# 3 -0.003569 -0.000896 0.007625 0.000000 0.000000 0.000000
# 4 0.000000 0.000000 0.000000 0.060656 0.000000 0.000000
# 5 0.000000 0.000000 0.000000 0.000000 0.016087 0.000000
# 6 0.000000 0.000000 0.000000 0.000000 0.000000 0.025171
#
#
# Mechanical properties :
#
#
# Convention : Reuss Voigt Hill
#
# Bulk Modulus (GPa) = 90.59484 91.49745 91.04614
# Shear Modulus (GPa) = 34.71991 44.15748 39.43869
#
# Velocity S-wave (km/s) = 3.71783 4.19278 3.96243
# Velocity P-wave (km/s) = 7.38215 7.73725 7.56179
#
# Compressibility (1/GPa) = 0.01103816
#
# Stress axis : x y z
#
# Youngs Moduli (GPa) = 94.32651 153.83126 131.15441
#
# Poissons Ratio (x) = 0.36609 0.46805
# Poissons Ratio (y) = 0.22448 0.11748
# Poissons Ratio (z) = 0.33663 0.13779
#
# Static dielectric constant tensor:
#      x y z
#    x 2.088530 0.000000 0.000000 
#    y 0.000000 2.049470 0.000000 
#    z 0.000000 0.000000 2.012310 
# 
# From -- ./inp_files/22142.got.cif
#   From: 2010.05.17/outbox.cif.g08.bks.cpg/sg60_12_cif.got.tgz:22142.got - 2010.06.03 14:59:27.
