data_PCOD9457097
_publ_section_title
;
Structure prediction by ZEFSAII (Michael W. Deem and Ramdas Pophale) SiO2 
 PCOD9457097
Probable space group: P B C N
;
_chemical_formula_sum "Si O2"
_cell_formula_units_Z 56
_cell_length_a 14.024937
_cell_length_b 13.187287
_cell_length_c 14.003710
_cell_angle_alpha 90.000000
_cell_angle_beta 90.000000
_cell_angle_gamma 90.000000
_cell_volume 2589.998339
_symmetry_space_group_name_H-M "P B C N"
_symmetry_group_IT_number 60
_symmetry_cell_setting 'orthorhombic'
loop_
_space_group_symop_operation_xyz
x,y,z
1/2-x,1/2-y,1/2+z
1/2+x,1/2-y,-z
-x,y,1/2-z
-x,-y,-z
1/2+x,1/2+y,1/2-z
1/2-x,1/2+y,z
x,-y,1/2+z
loop_
_atom_site_type_symbol
_atom_site_label
_atom_site_fract_x
_atom_site_fract_y
_atom_site_fract_z
Si Si1 0.569553 0.200150 0.908384
Si Si2 0.183096 0.958702 0.217368
Si Si3 0.281668 0.679433 0.533866
Si Si4 0.400570 0.012125 0.699294
Si Si5 0.110533 0.610472 0.003457
Si Si6 0.711570 0.521540 0.576620
Si Si7 0.436382 0.428975 0.571798
O O1 0.669190 0.198999 0.964245
O O2 0.531407 0.314978 0.906288
O O3 0.591754 0.134851 0.813212
O O4 0.491291 0.134054 0.961152
O O5 0.289723 0.008123 0.229675
O O6 0.097781 0.023264 0.171399
O O7 0.194539 0.871696 0.137027
O O8 0.161707 0.938621 0.327879
O O9 0.340373 0.781375 0.523116
O O10 0.301353 0.596844 0.450475
O O11 0.500000 0.980207 0.750000
O O12 0.398504 0.956028 0.597611
O O13 0.177834 0.551133 0.929306
O O14 0.662584 0.576131 0.486859
O O15 0.500000 0.500000 0.500000
#
# Coordination Sequence:
#
# PCOD9457097 Si02
#       7
#     8   8   8   8   8   8   8
#     4  11  21  39  67  92 133 178 225 273 351 418
#     4  10  22  43  68  96 136 176 231 290 340 426
#     4  10  22  43  64  98 134 179 224 285 353 412
#     4  11  23  41  65 100 139 170 224 289 350 417
#     4  12  22  43  67  97 139 181 225 292 354 420
#     4  11  22  43  70  95 133 181 226 288 351 411
#     4  11  23  46  67  96 139 183 228 293 348 412
#
# _framework density 21.621634
#
# number of rings (size 3 to 8) (size 9 to 14) (size 15 to 20)
#    0.000    1.143    5.714    3.000    2.000    0.571 
#   15.429    0.000    0.000    0.000    0.000    0.000 
#    0.000    0.000    0.000    0.000    0.000    0.000 
#
# Total GULP energy -312081.673007 kJ/mol
# GULP energy per Si atom -5572.887018 kJ/mol
# Density = 2.157242 g / cm^3
# Si number density = 21.621634 Si / 1000 Ang^3
#
#
#
# Elastic Constant Matrix: (Units=GPa)
#
#
# Indices 1 2 3 4 5 6 
#
# 1 75.6507 17.8186 0.1504 0.0000 0.0000 0.0000
# 2 17.8186 117.3746 16.7917 0.0000 0.0000 0.0000
# 3 0.1504 16.7917 68.1076 0.0000 0.0000 0.0000
# 4 0.0000 0.0000 0.0000 0.6205 0.0000 0.0000
# 5 0.0000 0.0000 0.0000 0.0000 38.9181 0.0000
# 6 0.0000 0.0000 0.0000 0.0000 0.0000 39.6990
#
#
#
# Elastic Compliance Matrix: (Units=1/GPa)
#
#
# Indices 1 2 3 4 5 6 
#
# 1 0.013725 -0.002155 0.000501 0.000000 0.000000 0.000000
# 2 -0.002155 0.009170 -0.002256 0.000000 0.000000 0.000000
# 3 0.000501 -0.002256 0.015238 0.000000 0.000000 0.000000
# 4 0.000000 0.000000 0.000000 1.611508 0.000000 0.000000
# 5 0.000000 0.000000 0.000000 0.000000 0.025695 0.000000
# 6 0.000000 0.000000 0.000000 0.000000 0.000000 0.025190
#
#
# Mechanical properties :
#
#
# Convention : Reuss Voigt Hill
#
# Bulk Modulus (GPa) = 32.98994 36.73936 34.86465
# Shear Modulus (GPa) = 2.90960 30.93902 16.92431
#
# Velocity S-wave (km/s) = 1.16130 3.78687 2.80080
# Velocity P-wave (km/s) = 4.13390 6.01243 5.15938
#
# Compressibility (1/GPa) = 0.03031227
#
# Stress axis : x y z
#
# Youngs Moduli (GPa) = 72.85805 109.05516 65.62647
#
# Poissons Ratio (x) = 0.23505 -0.03288
# Poissons Ratio (y) = 0.15703 0.14805
# Poissons Ratio (z) = -0.03651 0.24603
#
# Static dielectric constant tensor:
#      x y z
#    x 1.862390 0.000000 0.000000 
#    y 0.000000 1.827570 0.000000 
#    z 0.000000 0.000000 1.814740 
# 
# From -- ./inp_files/16837.got.cif
#   From: 2010.05.17/outbox.cif.g08.bks.cpg/sg60_9_cif.got.tgz:16837.got - 2010.06.03 14:59:27.
