data_PCOD9457244
_publ_section_title
;
Structure prediction by ZEFSAII (Michael W. Deem and Ramdas Pophale) SiO2 
 PCOD9457244
Probable space group: P B C N
;
_chemical_formula_sum "Si O2"
_cell_formula_units_Z 48
_cell_length_a 24.633505
_cell_length_b 5.593924
_cell_length_c 13.559024
_cell_angle_alpha 90.000000
_cell_angle_beta 90.000000
_cell_angle_gamma 90.000000
_cell_volume 1868.405777
_symmetry_space_group_name_H-M "P B C N"
_symmetry_group_IT_number 60
_symmetry_cell_setting 'orthorhombic'
loop_
_space_group_symop_operation_xyz
x,y,z
1/2-x,1/2-y,1/2+z
1/2+x,1/2-y,-z
-x,y,1/2-z
-x,-y,-z
1/2+x,1/2+y,1/2-z
1/2-x,1/2+y,z
x,-y,1/2+z
loop_
_atom_site_type_symbol
_atom_site_label
_atom_site_fract_x
_atom_site_fract_y
_atom_site_fract_z
Si Si1 0.876974 0.126006 0.041674
Si Si2 0.375287 0.959558 0.286369
Si Si3 0.221270 0.865544 0.547865
Si Si4 0.239794 0.642172 0.270741
Si Si5 0.932128 0.477294 0.901178
Si Si6 0.960781 0.232371 0.588407
O O1 0.855598 0.252143 0.140458
O O2 0.837943 0.923459 0.996775
O O3 0.936074 0.029530 0.075307
O O4 0.886475 0.324268 0.957973
O O5 0.323919 0.109686 0.250298
O O6 0.407881 0.881734 0.190400
O O7 0.416666 0.124191 0.347413
O O8 0.256347 0.103263 0.520590
O O9 0.225810 0.856990 0.668442
O O10 0.255497 0.395705 0.322632
O O11 0.979560 0.289712 0.871796
O O12 0.957354 0.659068 0.978811
#
# Coordination Sequence:
#
# PCOD9457244 Si02
#       6
#     8   8   8   8   8   8
#     4  11  25  42  72 106 143 193 248 313 372 455
#     4  11  25  42  70 103 145 189 242 308 372 451
#     4  10  23  42  70 103 144 192 243 301 363 440
#     4  10  23  41  67 101 140 192 243 290 365 444
#     4  10  22  46  70  99 141 191 236 309 379 449
#     4  10  24  43  70 104 140 180 251 306 374 446
#
# _framework density 25.690349000000001
#
# number of rings (size 3 to 8) (size 9 to 14) (size 15 to 20)
#    0.000    1.667    0.000    3.000   11.667    2.667 
#    0.000    5.000    0.000    0.000    0.000    0.000 
#    0.000    0.000    0.000    0.000    0.000    0.000 
#
# Total GULP energy -268722.979569 kJ/mol
# GULP energy per Si atom -5598.395408 kJ/mol
# Density = 2.563188 g / cm^3
# Si number density = 25.690349 Si / 1000 Ang^3
#
#
#
# Elastic Constant Matrix: (Units=GPa)
#
#
# Indices 1 2 3 4 5 6 
#
# 1 94.3175 18.1574 28.9734 0.0000 0.0000 0.0000
# 2 18.1574 131.4311 35.8958 0.0000 0.0000 0.0000
# 3 28.9734 35.8958 107.5735 0.0000 0.0000 0.0000
# 4 0.0000 0.0000 0.0000 29.7578 0.0000 0.0000
# 5 0.0000 0.0000 0.0000 0.0000 32.4400 0.0000
# 6 0.0000 0.0000 0.0000 0.0000 0.0000 47.6096
#
#
#
# Elastic Compliance Matrix: (Units=1/GPa)
#
#
# Indices 1 2 3 4 5 6 
#
# 1 0.011640 -0.000827 -0.002859 0.000000 0.000000 0.000000
# 2 -0.000827 0.008430 -0.002590 0.000000 0.000000 0.000000
# 3 -0.002859 -0.002590 0.010930 0.000000 0.000000 0.000000
# 4 0.000000 0.000000 0.000000 0.033605 0.000000 0.000000
# 5 0.000000 0.000000 0.000000 0.000000 0.030826 0.000000
# 6 0.000000 0.000000 0.000000 0.000000 0.000000 0.021004
#
#
# Mechanical properties :
#
#
# Convention : Reuss Voigt Hill
#
# Bulk Modulus (GPa) = 54.20771 55.48614 54.84693
# Shear Modulus (GPa) = 36.99927 38.64785 37.82356
#
# Velocity S-wave (km/s) = 3.79912 3.88283 3.84120
# Velocity P-wave (km/s) = 6.35536 6.46117 6.40849
#
# Compressibility (1/GPa) = 0.01844756
#
# Stress axis : x y z
#
# Youngs Moduli (GPa) = 85.91065 118.62015 91.48840
#
# Poissons Ratio (x) = 0.09813 0.26157
# Poissons Ratio (y) = 0.07107 0.23698
# Poissons Ratio (z) = 0.24562 0.30726
#
# Static dielectric constant tensor:
#      x y z
#    x 2.055580 0.000000 0.000000 
#    y 0.000000 2.021290 0.000000 
#    z 0.000000 0.000000 2.005030 
# 
# From -- ./inp_files/18066.got.cif
#   From: 2010.05.17/outbox.cif.g08.bks.cpg/sg60_10_cif.got.tgz:18066.got - 2010.06.03 14:59:27.
