data_PCOD9457613
_publ_section_title
;
Structure prediction by ZEFSAII (Michael W. Deem and Ramdas Pophale) SiO2 
 PCOD9457613
Probable space group: P B C N
;
_chemical_formula_sum "Si O2"
_cell_formula_units_Z 60
_cell_length_a 10.145569
_cell_length_b 9.519081
_cell_length_c 26.457186
_cell_angle_alpha 90.000000
_cell_angle_beta 90.000000
_cell_angle_gamma 90.000000
_cell_volume 2555.142241
_symmetry_space_group_name_H-M "P B C N"
_symmetry_group_IT_number 60
_symmetry_cell_setting 'orthorhombic'
loop_
_space_group_symop_operation_xyz
x,y,z
1/2-x,1/2-y,1/2+z
1/2+x,1/2-y,-z
-x,y,1/2-z
-x,-y,-z
1/2+x,1/2+y,1/2-z
1/2-x,1/2+y,z
x,-y,1/2+z
loop_
_atom_site_type_symbol
_atom_site_label
_atom_site_fract_x
_atom_site_fract_y
_atom_site_fract_z
Si Si1 0.645883 0.967275 0.841523
Si Si2 0.426850 0.136082 0.564726
Si Si3 0.482113 0.712515 0.883787
Si Si4 0.723186 0.653027 0.255832
Si Si5 0.500000 0.123505 0.750000
Si Si6 0.832829 0.575145 0.046653
Si Si7 0.877794 0.892826 0.220416
Si Si8 0.976151 0.048886 0.056886
O O1 0.647876 0.082463 0.885448
O O2 0.551390 0.031303 0.797174
O O3 0.586660 0.828931 0.867278
O O4 0.775913 0.918856 0.811028
O O5 0.346877 0.099273 0.513619
O O6 0.460638 0.299844 0.566251
O O7 0.566376 0.051110 0.560666
O O8 0.389978 0.788393 0.924988
O O9 0.403709 0.665289 0.834419
O O10 0.536428 0.570634 0.907735
O O11 0.615519 0.765000 0.238373
O O12 0.846666 0.757314 0.254490
O O13 0.726503 0.519836 0.219056
O O14 0.682702 0.552735 0.063252
O O15 0.000000 0.962917 0.250000
O O16 0.000000 0.000000 0.000000
#
# Coordination Sequence:
#
# PCOD9457613 Si02
#       8
#     8   8   8   8   4   8   8   8
#     4  11  25  51  73 104 154 196 249 309 381 443
#     4  10  24  46  75 105 151 200 245 311 375 447
#     4  11  25  45  76 104 144 194 250 308 367 442
#     4  12  26  47  73 104 150 196 243 312 368 451
#     4  12  26  46  74 110 148 194 250 304 376 448
#     4  10  23  48  70 108 151 194 248 307 374 440
#     4  12  26  46  72 108 147 191 250 303 370 444
#     4  12  25  46  74 111 145 190 250 312 371 451
#
# _framework density 23.482059
#
# number of rings (size 3 to 8) (size 9 to 14) (size 15 to 20)
#    0.000    0.800    4.667    1.600    3.733    1.067 
#    7.200    0.000    0.000    0.000    0.000    0.000 
#    0.000    0.000    0.000    0.000    0.000    0.000 
#
# Total GULP energy -335577.020533 kJ/mol
# GULP energy per Si atom -5592.950342 kJ/mol
# Density = 2.342861 g / cm^3
# Si number density = 23.482059 Si / 1000 Ang^3
#
#
#
# Elastic Constant Matrix: (Units=GPa)
#
#
# Indices 1 2 3 4 5 6 
#
# 1 48.4223 18.2199 -4.5983 0.0000 0.0000 0.0000
# 2 18.2199 200.8745 42.4671 0.0000 0.0000 0.0000
# 3 -4.5983 42.4671 95.6787 0.0000 0.0000 0.0000
# 4 0.0000 0.0000 0.0000 44.3663 0.0000 0.0000
# 5 0.0000 0.0000 0.0000 0.0000 15.5506 0.0000
# 6 0.0000 0.0000 0.0000 0.0000 0.0000 20.0296
#
#
#
# Elastic Compliance Matrix: (Units=1/GPa)
#
#
# Indices 1 2 3 4 5 6 
#
# 1 0.021765 -0.002423 0.002121 0.000000 0.000000 0.000000
# 2 -0.002423 0.005763 -0.002675 0.000000 0.000000 0.000000
# 3 0.002121 -0.002675 0.011741 0.000000 0.000000 0.000000
# 4 0.000000 0.000000 0.000000 0.022540 0.000000 0.000000
# 5 0.000000 0.000000 0.000000 0.000000 0.064306 0.000000
# 6 0.000000 0.000000 0.000000 0.000000 0.000000 0.049926
#
#
# Mechanical properties :
#
#
# Convention : Reuss Voigt Hill
#
# Bulk Modulus (GPa) = 30.01469 50.79477 40.40473
# Shear Modulus (GPa) = 25.89358 35.24842 30.57100
#
# Velocity S-wave (km/s) = 3.32429 3.87858 3.61208
# Velocity P-wave (km/s) = 5.24826 6.46035 5.88559
#
# Compressibility (1/GPa) = 0.03331702
#
# Stress axis : x y z
#
# Youngs Moduli (GPa) = 45.94615 173.50907 85.17392
#
# Poissons Ratio (x) = 0.42034 -0.18068
# Poissons Ratio (y) = 0.11131 0.22780
# Poissons Ratio (z) = -0.09746 0.46405
#
# Static dielectric constant tensor:
#      x y z
#    x 1.980090 0.000000 0.000000 
#    y 0.000000 1.842290 0.000000 
#    z 0.000000 0.000000 1.724250 
# 
# From -- ./inp_files/25357.got.cif
#   From: 2010.05.17/outbox.cif.g08.bks.cpg/sg60_13_cif.got.tgz:25357.got - 2010.06.03 14:59:27.
