data_PCOD9457573
_publ_section_title
;
Structure prediction by ZEFSAII (Michael W. Deem and Ramdas Pophale) SiO2 
 PCOD9457573
Probable space group: P B C N
;
_chemical_formula_sum "Si O2"
_cell_formula_units_Z 32
_cell_length_a 10.581320
_cell_length_b 9.991140
_cell_length_c 13.479439
_cell_angle_alpha 90.000000
_cell_angle_beta 90.000000
_cell_angle_gamma 90.000000
_cell_volume 1425.038871
_symmetry_space_group_name_H-M "P B C N"
_symmetry_group_IT_number 60
_symmetry_cell_setting 'orthorhombic'
loop_
_space_group_symop_operation_xyz
x,y,z
1/2-x,1/2-y,1/2+z
1/2+x,1/2-y,-z
-x,y,1/2-z
-x,-y,-z
1/2+x,1/2+y,1/2-z
1/2-x,1/2+y,z
x,-y,1/2+z
loop_
_atom_site_type_symbol
_atom_site_label
_atom_site_fract_x
_atom_site_fract_y
_atom_site_fract_z
Si Si1 0.004248 0.351103 0.541306
Si Si2 0.717863 0.329166 0.519495
Si Si3 0.315798 0.251593 0.197498
Si Si4 0.638775 0.526537 0.204386
O O1 0.861973 0.298230 0.546143
O O2 0.000000 0.500000 0.500000
O O3 0.104300 0.277034 0.469469
O O4 0.065848 0.327189 0.649109
O O5 0.727753 0.337218 0.400174
O O6 0.666949 0.449160 0.587741
O O7 0.334964 0.371862 0.273063
O O8 0.225222 0.137571 0.240517
O O9 0.500000 0.550563 0.250000
#
# Coordination Sequence:
#
# PCOD9457573 Si02
#       4
#     8   8   8   8
#     4  10  23  45  77 111 150 203 253 328 391 461
#     4  10  25  45  77 106 155 199 252 327 387 458
#     4  10  27  45  72 113 149 193 269 311 386 472
#     4  12  27  46  74 108 153 203 257 320 393 461
#
# _framework density 22.455528000000001
#
# number of rings (size 3 to 8) (size 9 to 14) (size 15 to 20)
#    1.500    0.000    0.000    3.000    7.000    1.000 
#    0.000    0.000    0.000    0.000    0.000    0.000 
#    0.000    0.000    0.000    0.000    0.000    0.000 
#
# Total GULP energy -178245.583920 kJ/mol
# GULP energy per Si atom -5570.174497 kJ/mol
# Density = 2.240442 g / cm^3
# Si number density = 22.455528 Si / 1000 Ang^3
#
#
#
# Elastic Constant Matrix: (Units=GPa)
#
#
# Indices 1 2 3 4 5 6 
#
# 1 169.4884 77.9005 18.6429 0.0000 0.0000 0.0000
# 2 77.9005 177.7497 71.6272 0.0000 0.0000 0.0000
# 3 18.6429 71.6272 96.7202 0.0000 0.0000 0.0000
# 4 0.0000 0.0000 0.0000 20.0672 0.0000 0.0000
# 5 0.0000 0.0000 0.0000 0.0000 27.9362 0.0000
# 6 0.0000 0.0000 0.0000 0.0000 0.0000 14.4813
#
#
#
# Elastic Compliance Matrix: (Units=1/GPa)
#
#
# Indices 1 2 3 4 5 6 
#
# 1 0.007521 -0.003866 0.001413 0.000000 0.000000 0.000000
# 2 -0.003866 0.010006 -0.006665 0.000000 0.000000 0.000000
# 3 0.001413 -0.006665 0.015002 0.000000 0.000000 0.000000
# 4 0.000000 0.000000 0.000000 0.049833 0.000000 0.000000
# 5 0.000000 0.000000 0.000000 0.000000 0.035796 0.000000
# 6 0.000000 0.000000 0.000000 0.000000 0.000000 0.069054
#
#
# Mechanical properties :
#
#
# Convention : Reuss Voigt Hill
#
# Bulk Modulus (GPa) = 69.95590 86.69993 78.32791
# Shear Modulus (GPa) = 23.78548 30.88279 27.33414
#
# Velocity S-wave (km/s) = 3.25811 3.71251 3.49271
# Velocity P-wave (km/s) = 6.73605 7.55450 7.15698
#
# Compressibility (1/GPa) = 0.01429472
#
# Stress axis : x y z
#
# Youngs Moduli (GPa) = 132.95274 99.94222 66.65603
#
# Poissons Ratio (x) = 0.38635 -0.09419
# Poissons Ratio (y) = 0.51397 0.44425
# Poissons Ratio (z) = -0.18787 0.66609
#
# Static dielectric constant tensor:
#      x y z
#    x 1.858880 0.000000 0.000000 
#    y 0.000000 1.810370 0.000000 
#    z 0.000000 0.000000 2.086690 
# 
# From -- ./inp_files/15610.got.cif
#   From: 2010.05.17/outbox.cif.g08.bks.cpg/sg60_8_cif.got.tgz:15610.got - 2010.06.03 14:59:27.
