data_PCOD9457804
_publ_section_title
;
Structure prediction by ZEFSAII (Michael W. Deem and Ramdas Pophale) SiO2 
 PCOD9457804
Probable space group: P B C N
;
_chemical_formula_sum "Si O2"
_cell_formula_units_Z 40
_cell_length_a 7.904408
_cell_length_b 8.712141
_cell_length_c 25.979060
_cell_angle_alpha 90.000000
_cell_angle_beta 90.000000
_cell_angle_gamma 90.000000
_cell_volume 1789.030224
_symmetry_space_group_name_H-M "P B C N"
_symmetry_group_IT_number 60
_symmetry_cell_setting 'orthorhombic'
loop_
_space_group_symop_operation_xyz
x,y,z
1/2-x,1/2-y,1/2+z
1/2+x,1/2-y,-z
-x,y,1/2-z
-x,-y,-z
1/2+x,1/2+y,1/2-z
1/2-x,1/2+y,z
x,-y,1/2+z
loop_
_atom_site_type_symbol
_atom_site_label
_atom_site_fract_x
_atom_site_fract_y
_atom_site_fract_z
Si Si1 0.452294 0.524597 0.191809
Si Si2 0.080340 0.817102 0.391031
Si Si3 0.395401 0.890037 0.038076
Si Si4 0.646965 0.379431 0.550433
Si Si5 0.290249 0.182426 0.641118
O O1 0.500000 0.556560 0.250000
O O2 0.590815 0.417459 0.162208
O O3 0.281773 0.421302 0.187463
O O4 0.408430 0.680078 0.160509
O O5 0.217763 0.691764 0.408272
O O6 0.886038 0.762169 0.385937
O O7 0.103768 0.949618 0.433346
O O8 0.485566 0.727522 0.045809
O O9 0.369560 0.928419 0.097766
O O10 0.227506 0.872577 0.005683
O O11 0.500000 0.000000 0.000000
#
# Coordination Sequence:
#
# PCOD9457804 Si02
#       5
#     8   8   8   8   8
#     4  10  24  47  72  99 130 179 231 296 355 391
#     4  10  25  42  66 101 137 181 230 289 340 416
#     4  12  25  37  66 102 142 192 219 281 346 412
#     4  12  24  41  64 102 146 183 238 271 348 420
#     4  10  24  46  68 101 140 174 237 285 341 421
#
# _framework density 22.358481000000001
#
# number of rings (size 3 to 8) (size 9 to 14) (size 15 to 20)
#    1.200    0.000    4.000    1.200    8.400    3.200 
#    0.000    1.000    0.000    0.000    0.000    0.000 
#    0.000    0.000    0.000    0.000    0.000    0.000 
#
# Total GULP energy -222978.326625 kJ/mol
# GULP energy per Si atom -5574.458166 kJ/mol
# Density = 2.230759 g / cm^3
# Si number density = 22.358481 Si / 1000 Ang^3
#
#
#
# Elastic Constant Matrix: (Units=GPa)
#
#
# Indices 1 2 3 4 5 6 
#
# 1 47.8238 28.7314 42.8479 0.0000 0.0000 0.0000
# 2 28.7314 95.2550 41.0337 0.0000 0.0000 0.0000
# 3 42.8479 41.0337 145.2700 0.0000 0.0000 0.0000
# 4 0.0000 0.0000 0.0000 24.2809 0.0000 0.0000
# 5 0.0000 0.0000 0.0000 0.0000 41.2076 0.0000
# 6 0.0000 0.0000 0.0000 0.0000 0.0000 33.8676
#
#
#
# Elastic Compliance Matrix: (Units=1/GPa)
#
#
# Indices 1 2 3 4 5 6 
#
# 1 0.031367 -0.006234 -0.007491 0.000000 0.000000 0.000000
# 2 -0.006234 0.013192 -0.001887 0.000000 0.000000 0.000000
# 3 -0.007491 -0.001887 0.009626 0.000000 0.000000 0.000000
# 4 0.000000 0.000000 0.000000 0.041185 0.000000 0.000000
# 5 0.000000 0.000000 0.000000 0.000000 0.024267 0.000000
# 6 0.000000 0.000000 0.000000 0.000000 0.000000 0.029527
#
#
# Mechanical properties :
#
#
# Convention : Reuss Voigt Hill
#
# Bulk Modulus (GPa) = 43.55407 57.06388 50.30898
# Shear Modulus (GPa) = 26.58986 31.58694 29.08840
#
# Velocity S-wave (km/s) = 3.45229 3.76273 3.61085
# Velocity P-wave (km/s) = 5.95091 6.66747 6.31936
#
# Compressibility (1/GPa) = 0.02295997
#
# Stress axis : x y z
#
# Youngs Moduli (GPa) = 31.88077 75.80598 103.88214
#
# Poissons Ratio (x) = 0.47259 0.77816
# Poissons Ratio (y) = 0.19875 0.19606
# Poissons Ratio (z) = 0.23881 0.14307
#
# Static dielectric constant tensor:
#      x y z
#    x 2.245850 0.000000 0.000000 
#    y 0.000000 1.593860 0.000000 
#    z 0.000000 0.000000 1.775330 
# 
# From -- ./inp_files/23852.got.cif
#   From: 2010.05.17/outbox.cif.g08.bks.cpg/sg60_12_cif.got.tgz:23852.got - 2010.06.03 14:59:27.
