data_PCOD9457741
_publ_section_title
;
Structure prediction by ZEFSAII (Michael W. Deem and Ramdas Pophale) SiO2 
 PCOD9457741
Probable space group: P B C N
;
_chemical_formula_sum "Si O2"
_cell_formula_units_Z 28
_cell_length_a 5.043271
_cell_length_b 12.529592
_cell_length_c 16.471712
_cell_angle_alpha 90.000000
_cell_angle_beta 90.000000
_cell_angle_gamma 90.000000
_cell_volume 1040.849589
_symmetry_space_group_name_H-M "P B C N"
_symmetry_group_IT_number 60
_symmetry_cell_setting 'orthorhombic'
loop_
_space_group_symop_operation_xyz
x,y,z
1/2-x,1/2-y,1/2+z
1/2+x,1/2-y,-z
-x,y,1/2-z
-x,-y,-z
1/2+x,1/2+y,1/2-z
1/2-x,1/2+y,z
x,-y,1/2+z
loop_
_atom_site_type_symbol
_atom_site_label
_atom_site_fract_x
_atom_site_fract_y
_atom_site_fract_z
Si Si1 0.573818 0.838076 0.336382
Si Si2 0.948793 0.321458 0.993792
Si Si3 0.000000 0.934744 0.250000
Si Si4 0.798706 0.370133 0.674384
O O1 0.500000 0.893416 0.250000
O O2 0.504357 0.885378 0.423435
O O3 0.414833 0.726957 0.331337
O O4 0.884295 0.852364 0.318983
O O5 0.149847 0.220720 0.006418
O O6 0.035072 0.370286 0.908758
O O7 0.136184 0.022364 0.309627
O O8 0.000000 0.359192 0.750000
#
# Coordination Sequence:
#
# PCOD9457741 Si02
#       4
#     8   8   4   8
#     4  11  25  46  77 107 149 196 250 307 375 448
#     4  10  24  43  77 111 144 201 254 308 382 448
#     4  12  28  46  76 116 146 208 246 310 378 456
#     4  11  25  50  77 108 154 199 250 313 379 448
#
# _framework density 26.901101000000001
#
# number of rings (size 3 to 8) (size 9 to 14) (size 15 to 20)
#    0.000    1.143    1.429    2.571   14.000    1.143 
#    2.571    5.714    0.000    0.000    0.000    0.000 
#    0.000    0.000    0.000    0.000    0.000    0.000 
#
# Total GULP energy -156262.421119 kJ/mol
# GULP energy per Si atom -5580.800754 kJ/mol
# Density = 2.683987 g / cm^3
# Si number density = 26.901101 Si / 1000 Ang^3
#
#
#
# Elastic Constant Matrix: (Units=GPa)
#
#
# Indices 1 2 3 4 5 6 
#
# 1 68.2710 52.4556 37.7558 0.0000 0.0000 0.0000
# 2 52.4556 141.5434 30.4085 0.0000 0.0000 0.0000
# 3 37.7558 30.4085 275.4356 0.0000 0.0000 0.0000
# 4 0.0000 0.0000 0.0000 14.0951 0.0000 0.0000
# 5 0.0000 0.0000 0.0000 0.0000 68.7664 0.0000
# 6 0.0000 0.0000 0.0000 0.0000 0.0000 45.8205
#
#
#
# Elastic Compliance Matrix: (Units=1/GPa)
#
#
# Indices 1 2 3 4 5 6 
#
# 1 0.021635 -0.007560 -0.002131 0.000000 0.000000 0.000000
# 2 -0.007560 0.009878 -0.000054 0.000000 0.000000 0.000000
# 3 -0.002131 -0.000054 0.003929 0.000000 0.000000 0.000000
# 4 0.000000 0.000000 0.000000 0.070947 0.000000 0.000000
# 5 0.000000 0.000000 0.000000 0.000000 0.014542 0.000000
# 6 0.000000 0.000000 0.000000 0.000000 0.000000 0.021824
#
#
# Mechanical properties :
#
#
# Convention : Reuss Voigt Hill
#
# Bulk Modulus (GPa) = 62.69091 80.72110 71.70601
# Shear Modulus (GPa) = 29.83963 50.04504 39.94234
#
# Velocity S-wave (km/s) = 3.33413 4.31784 3.85747
# Velocity P-wave (km/s) = 6.17873 7.41148 6.82300
#
# Compressibility (1/GPa) = 0.01595128
#
# Stress axis : x y z
#
# Youngs Moduli (GPa) = 46.22215 101.23171 254.53614
#
# Poissons Ratio (x) = 0.76531 0.54241
# Poissons Ratio (y) = 0.34944 0.01382
# Poissons Ratio (z) = 0.09850 0.00550
#
# Static dielectric constant tensor:
#      x y z
#    x 0.128710 0.000000 0.000000 
#    y 0.000000 2.039340 0.000000 
#    z 0.000000 0.000000 2.136120 
# 
# From -- ./inp_files/18343.got.cif
#   From: 2010.05.17/outbox.cif.g08.bks.cpg/sg60_10_cif.got.tgz:18343.got - 2010.06.03 14:59:27.
