data_PCOD9457096
_publ_section_title
;
Structure prediction by ZEFSAII (Michael W. Deem and Ramdas Pophale) SiO2 
 PCOD9457096
Probable space group: P B C N
;
_chemical_formula_sum "Si O2"
_cell_formula_units_Z 48
_cell_length_a 5.933673
_cell_length_b 14.299704
_cell_length_c 27.306949
_cell_angle_alpha 90.000000
_cell_angle_beta 90.000000
_cell_angle_gamma 90.000000
_cell_volume 2316.988275
_symmetry_space_group_name_H-M "P B C N"
_symmetry_group_IT_number 60
_symmetry_cell_setting 'orthorhombic'
loop_
_space_group_symop_operation_xyz
x,y,z
1/2-x,1/2-y,1/2+z
1/2+x,1/2-y,-z
-x,y,1/2-z
-x,-y,-z
1/2+x,1/2+y,1/2-z
1/2-x,1/2+y,z
x,-y,1/2+z
loop_
_atom_site_type_symbol
_atom_site_label
_atom_site_fract_x
_atom_site_fract_y
_atom_site_fract_z
Si Si1 0.221243 0.086108 0.869955
Si Si2 0.488553 0.447495 0.693283
Si Si3 0.238294 0.800381 0.877046
Si Si4 0.736013 0.796447 0.508491
Si Si5 0.396546 0.065639 0.123470
Si Si6 0.867468 0.966540 0.452678
O O1 0.300004 0.192051 0.866815
O O2 0.031564 0.077919 0.911947
O O3 0.119136 0.042845 0.820262
O O4 0.414279 0.012966 0.883833
O O5 0.500000 0.425006 0.750000
O O6 0.593376 0.366471 0.658498
O O7 0.239725 0.459545 0.672027
O O8 0.211650 0.819980 0.934786
O O9 0.495464 0.833478 0.868974
O O10 0.484677 0.747329 0.507546
O O11 0.705162 0.886183 0.473424
O O12 0.247553 0.053160 0.075061
O O13 0.000000 0.000000 0.500000
#
# Coordination Sequence:
#
# PCOD9457096 Si02
#       6
#     8   8   8   8   8   8
#     4  10  22  43  63  96 132 182 223 289 353 424
#     4  10  24  46  67 101 132 176 238 301 373 429
#     4  11  24  42  68 101 139 184 243 289 364 424
#     4  12  26  41  67 102 147 191 244 288 352 437
#     4  10  23  42  68  89 143 175 227 299 347 430
#     4  11  23  37  62  95 135 186 233 278 353 410
#
# _framework density 20.716549000000001
#
# number of rings (size 3 to 8) (size 9 to 14) (size 15 to 20)
#    0.000    1.333    1.667    4.000    4.667    6.667 
#    6.000    0.000    0.000    0.000    0.000    0.000 
#    0.000    0.000    0.000    0.000    0.000    0.000 
#
# Total GULP energy -267759.524578 kJ/mol
# GULP energy per Si atom -5578.323429 kJ/mol
# Density = 2.066940 g / cm^3
# Si number density = 20.716549 Si / 1000 Ang^3
#
#
#
# Elastic Constant Matrix: (Units=GPa)
#
#
# Indices 1 2 3 4 5 6 
#
# 1 46.7821 0.1686 16.2822 0.0000 0.0000 0.0000
# 2 0.1686 63.1320 14.6070 0.0000 0.0000 0.0000
# 3 16.2822 14.6070 133.4994 0.0000 0.0000 0.0000
# 4 0.0000 0.0000 0.0000 21.5277 0.0000 0.0000
# 5 0.0000 0.0000 0.0000 0.0000 9.9575 0.0000
# 6 0.0000 0.0000 0.0000 0.0000 0.0000 26.4855
#
#
#
# Elastic Compliance Matrix: (Units=1/GPa)
#
#
# Indices 1 2 3 4 5 6 
#
# 1 0.022344 0.000586 -0.002789 0.000000 0.000000 0.000000
# 2 0.000586 0.016267 -0.001851 0.000000 0.000000 0.000000
# 3 -0.002789 -0.001851 0.008033 0.000000 0.000000 0.000000
# 4 0.000000 0.000000 0.000000 0.046452 0.000000 0.000000
# 5 0.000000 0.000000 0.000000 0.000000 0.100427 0.000000
# 6 0.000000 0.000000 0.000000 0.000000 0.000000 0.037757
#
#
# Mechanical properties :
#
#
# Convention : Reuss Voigt Hill
#
# Bulk Modulus (GPa) = 25.95066 33.94766 29.94916
# Shear Modulus (GPa) = 19.82286 25.75118 22.78702
#
# Velocity S-wave (km/s) = 3.09667 3.52948 3.32014
# Velocity P-wave (km/s) = 5.03384 5.74734 5.40238
#
# Compressibility (1/GPa) = 0.03853467
#
# Stress axis : x y z
#
# Youngs Moduli (GPa) = 44.75399 61.47571 124.47988
#
# Poissons Ratio (x) = -0.03601 0.34721
# Poissons Ratio (y) = -0.02621 0.23044
# Poissons Ratio (z) = 0.12483 0.11381
#
# Static dielectric constant tensor:
#      x y z
#    x 1.845180 0.000000 0.000000 
#    y 0.000000 1.774500 0.000000 
#    z 0.000000 0.000000 1.690390 
# 
# From -- ./inp_files/24852.got.cif
#   From: 2010.05.17/outbox.cif.g08.bks.cpg/sg60_13_cif.got.tgz:24852.got - 2010.06.03 14:59:27.
