data_PCOD9457497
_publ_section_title
;
Structure prediction by ZEFSAII (Michael W. Deem and Ramdas Pophale) SiO2 
 PCOD9457497
Probable space group: P B C N
;
_chemical_formula_sum "Si O2"
_cell_formula_units_Z 32
_cell_length_a 14.232729
_cell_length_b 11.052709
_cell_length_c 8.289642
_cell_angle_alpha 90.000000
_cell_angle_beta 90.000000
_cell_angle_gamma 90.000000
_cell_volume 1304.045340
_symmetry_space_group_name_H-M "P B C N"
_symmetry_group_IT_number 60
_symmetry_cell_setting 'orthorhombic'
loop_
_space_group_symop_operation_xyz
x,y,z
1/2-x,1/2-y,1/2+z
1/2+x,1/2-y,-z
-x,y,1/2-z
-x,-y,-z
1/2+x,1/2+y,1/2-z
1/2-x,1/2+y,z
x,-y,1/2+z
loop_
_atom_site_type_symbol
_atom_site_label
_atom_site_fract_x
_atom_site_fract_y
_atom_site_fract_z
Si Si1 0.465082 0.637255 0.012990
Si Si2 0.599979 0.961846 0.335354
Si Si3 0.145459 0.675074 0.347316
Si Si4 0.355029 0.270733 0.823637
O O1 0.559185 0.712300 0.054069
O O2 0.394249 0.657802 0.164806
O O3 0.500000 0.500000 0.000000
O O4 0.408705 0.698060 0.864823
O O5 0.500000 0.948415 0.250000
O O6 0.600126 0.910381 0.514780
O O7 0.662285 0.866059 0.235680
O O8 0.633110 0.098710 0.315235
O O9 0.255479 0.683288 0.383453
#
# Coordination Sequence:
#
# PCOD9457497 Si02
#       4
#     8   8   8   8
#     4  10  23  47  67  99 153 190 240 309 371 443
#     4  11  23  47  68 101 145 182 243 305 362 434
#     4  11  25  42  76 105 139 192 245 306 362 446
#     4  10  23  44  66 101 143 191 240 299 373 434
#
# _framework density 24.539026
#
# number of rings (size 3 to 8) (size 9 to 14) (size 15 to 20)
#    0.000    1.500    5.000    0.750    7.000    2.000 
#    4.500    0.000    0.000    0.000    0.000    0.000 
#    0.000    0.000    0.000    0.000    0.000    0.000 
#
# Total GULP energy -179025.080651 kJ/mol
# GULP energy per Si atom -5594.533770 kJ/mol
# Density = 2.448317 g / cm^3
# Si number density = 24.539026 Si / 1000 Ang^3
#
#
#
# Elastic Constant Matrix: (Units=GPa)
#
#
# Indices 1 2 3 4 5 6 
#
# 1 143.9802 51.2133 34.9763 0.0000 0.0000 0.0000
# 2 51.2133 142.8855 30.8032 0.0000 0.0000 0.0000
# 3 34.9763 30.8032 46.3747 0.0000 0.0000 0.0000
# 4 0.0000 0.0000 0.0000 36.9091 0.0000 0.0000
# 5 0.0000 0.0000 0.0000 0.0000 22.2891 0.0000
# 6 0.0000 0.0000 0.0000 0.0000 0.0000 14.2228
#
#
#
# Elastic Compliance Matrix: (Units=1/GPa)
#
#
# Indices 1 2 3 4 5 6 
#
# 1 0.008992 -0.002055 -0.005417 0.000000 0.000000 0.000000
# 2 -0.002055 0.008638 -0.004187 0.000000 0.000000 0.000000
# 3 -0.005417 -0.004187 0.028430 0.000000 0.000000 0.000000
# 4 0.000000 0.000000 0.000000 0.027094 0.000000 0.000000
# 5 0.000000 0.000000 0.000000 0.000000 0.044865 0.000000
# 6 0.000000 0.000000 0.000000 0.000000 0.000000 0.070310
#
#
# Mechanical properties :
#
#
# Convention : Reuss Voigt Hill
#
# Bulk Modulus (GPa) = 43.97270 63.02510 53.49890
# Shear Modulus (GPa) = 22.80721 29.10071 25.95396
#
# Velocity S-wave (km/s) = 3.05196 3.44742 3.25570
# Velocity P-wave (km/s) = 5.51159 6.44869 5.99847
#
# Compressibility (1/GPa) = 0.02274138
#
# Stress axis : x y z
#
# Youngs Moduli (GPa) = 111.20543 115.76764 35.17359
#
# Poissons Ratio (x) = 0.23793 0.19053
# Poissons Ratio (y) = 0.22856 0.14729
# Poissons Ratio (z) = 0.60240 0.48477
#
# Static dielectric constant tensor:
#      x y z
#    x 1.880470 0.000000 0.000000 
#    y 0.000000 2.014700 0.000000 
#    z 0.000000 0.000000 2.060240 
# 
# From -- ./inp_files/5449.got.cif
#   From: 2010.05.17/outbox.cif.g08.bks.cpg/sg60_3_cif.got.tgz:5449.got - 2010.06.03 14:59:27.
