data_PCOD9457482
_publ_section_title
;
Structure prediction by ZEFSAII (Michael W. Deem and Ramdas Pophale) SiO2 
 PCOD9457482
Probable space group: P B C N
;
_chemical_formula_sum "Si O2"
_cell_formula_units_Z 48
_cell_length_a 15.442235
_cell_length_b 17.098413
_cell_length_c 9.177609
_cell_angle_alpha 90.000000
_cell_angle_beta 90.000000
_cell_angle_gamma 90.000000
_cell_volume 2423.234879
_symmetry_space_group_name_H-M "P B C N"
_symmetry_group_IT_number 60
_symmetry_cell_setting 'orthorhombic'
loop_
_space_group_symop_operation_xyz
x,y,z
1/2-x,1/2-y,1/2+z
1/2+x,1/2-y,-z
-x,y,1/2-z
-x,-y,-z
1/2+x,1/2+y,1/2-z
1/2-x,1/2+y,z
x,-y,1/2+z
loop_
_atom_site_type_symbol
_atom_site_label
_atom_site_fract_x
_atom_site_fract_y
_atom_site_fract_z
Si Si1 0.361557 0.326425 0.623177
Si Si2 0.493126 0.582841 0.922098
Si Si3 0.432852 0.021694 0.622276
Si Si4 0.131398 0.799399 0.961015
Si Si5 0.656821 0.146978 0.355052
Si Si6 0.835192 0.334379 0.519869
O O1 0.411230 0.378982 0.505513
O O2 0.260759 0.351833 0.625684
O O3 0.371349 0.239190 0.564796
O O4 0.390077 0.318451 0.791908
O O5 0.500000 0.569247 0.750000
O O6 0.570152 0.643493 0.950890
O O7 0.500000 0.500000 0.000000
O O8 0.500000 0.045719 0.750000
O O9 0.379601 0.941181 0.644080
O O10 0.500000 0.000000 0.500000
O O11 0.369686 0.088675 0.561192
O O12 0.122859 0.710440 0.025065
O O13 0.231228 0.825021 0.983495
O O14 0.637627 0.172983 0.189005
#
# Coordination Sequence:
#
# PCOD9457482 Si02
#       6
#     8   8   8   8   8   8
#     4  10  23  43  70  97 129 174 221 272 326 394
#     4  12  26  44  66  96 130 168 220 272 330 388
#     4  12  26  42  64  98 133 175 219 272 332 397
#     4  10  23  43  70  96 128 175 218 273 327 392
#     4  10  23  44  65  97 135 174 220 268 331 390
#     4  10  23  44  65  96 134 173 221 266 332 391
#
# _framework density 19.808232
#
# number of rings (size 3 to 8) (size 9 to 14) (size 15 to 20)
#    0.000    1.333    1.667    2.500    7.000    2.000 
#    0.000    0.000    0.000    0.000    0.000    0.000 
#    0.000    0.000    0.000    0.000    0.000    0.000 
#
# Total GULP energy -267619.091009 kJ/mol
# GULP energy per Si atom -5575.397729 kJ/mol
# Density = 1.976315 g / cm^3
# Si number density = 19.808232 Si / 1000 Ang^3
#
#
#
# Elastic Constant Matrix: (Units=GPa)
#
#
# Indices 1 2 3 4 5 6 
#
# 1 25.7901 41.9778 39.3998 0.0000 0.0000 0.0000
# 2 41.9778 114.7669 44.4208 0.0000 0.0000 0.0000
# 3 39.3998 44.4208 164.6625 0.0000 0.0000 0.0000
# 4 0.0000 0.0000 0.0000 39.2244 0.0000 0.0000
# 5 0.0000 0.0000 0.0000 0.0000 16.6349 0.0000
# 6 0.0000 0.0000 0.0000 0.0000 0.0000 26.8577
#
#
#
# Elastic Compliance Matrix: (Units=1/GPa)
#
#
# Indices 1 2 3 4 5 6 
#
# 1 0.147033 -0.044845 -0.023084 0.000000 0.000000 0.000000
# 2 -0.044845 0.023407 0.004416 0.000000 0.000000 0.000000
# 3 -0.023084 0.004416 0.010405 0.000000 0.000000 0.000000
# 4 0.000000 0.000000 0.000000 0.025494 0.000000 0.000000
# 5 0.000000 0.000000 0.000000 0.000000 0.060114 0.000000
# 6 0.000000 0.000000 0.000000 0.000000 0.000000 0.037233
#
#
# Mechanical properties :
#
#
# Convention : Reuss Voigt Hill
#
# Bulk Modulus (GPa) = 18.58066 61.86847 40.22457
# Shear Modulus (GPa) = 11.14447 28.50481 19.82464
#
# Velocity S-wave (km/s) = 2.37453 3.79758 3.16702
# Velocity P-wave (km/s) = 4.11321 7.10847 5.80727
#
# Compressibility (1/GPa) = 0.05381939
#
# Stress axis : x y z
#
# Youngs Moduli (GPa) = 6.80119 42.72229 96.10651
#
# Poissons Ratio (x) = 1.91589 2.21849
# Poissons Ratio (y) = 0.30500 -0.42440
# Poissons Ratio (z) = 0.15700 -0.18866
#
# Static dielectric constant tensor:
#      x y z
#    x 1.736430 0.000000 0.000000 
#    y 0.000000 1.672540 0.000000 
#    z 0.000000 0.000000 1.669740 
# 
# From -- ./inp_files/6708.got.cif
#   From: 2010.05.17/outbox.cif.g08.bks.cpg/sg60_4_cif.got.tgz:6708.got - 2010.06.03 14:59:27.
