data_PCOD9457687
_publ_section_title
;
Structure prediction by ZEFSAII (Michael W. Deem and Ramdas Pophale) SiO2 
 PCOD9457687
Probable space group: P B C N
;
_chemical_formula_sum "Si O2"
_cell_formula_units_Z 40
_cell_length_a 8.673969
_cell_length_b 24.003884
_cell_length_c 8.823597
_cell_angle_alpha 90.000000
_cell_angle_beta 90.000000
_cell_angle_gamma 90.000000
_cell_volume 1837.151829
_symmetry_space_group_name_H-M "P B C N"
_symmetry_group_IT_number 60
_symmetry_cell_setting 'orthorhombic'
loop_
_space_group_symop_operation_xyz
x,y,z
1/2-x,1/2-y,1/2+z
1/2+x,1/2-y,-z
-x,y,1/2-z
-x,-y,-z
1/2+x,1/2+y,1/2-z
1/2-x,1/2+y,z
x,-y,1/2+z
loop_
_atom_site_type_symbol
_atom_site_label
_atom_site_fract_x
_atom_site_fract_y
_atom_site_fract_z
Si Si1 0.317292 0.429467 0.233877
Si Si2 0.710976 0.673320 0.956226
Si Si3 0.909893 0.217983 0.410026
Si Si4 0.831428 0.476684 0.962096
Si Si5 0.325631 0.865950 0.729042
O O1 0.500000 0.429741 0.250000
O O2 0.267185 0.367700 0.184239
O O3 0.239100 0.450013 0.387335
O O4 0.268121 0.472941 0.104197
O O5 0.827607 0.724859 0.953840
O O6 0.537321 0.696625 0.971636
O O7 0.744017 0.637856 0.108124
O O8 0.776973 0.172371 0.381013
O O9 0.000000 0.225288 0.250000
O O10 0.835537 0.427774 0.837531
O O11 0.000000 0.500000 0.000000
O O12 0.500000 0.844746 0.750000
#
# Coordination Sequence:
#
# PCOD9457687 Si02
#       5
#     8   8   8   8   8
#     4  12  26  43  69  99 136 178 226 279 336 401
#     4  11  24  44  68  98 133 177 223 277 336 397
#     4  10  24  42  66 100 134 172 222 275 334 399
#     4  12  26  45  68 100 136 178 226 275 334 398
#     4  11  23  42  67  93 131 175 221 276 332 395
#
# _framework density 21.772834
#
# number of rings (size 3 to 8) (size 9 to 14) (size 15 to 20)
#    0.000    0.800    0.000    7.200    0.000   12.800 
#    0.000    0.000    0.000    0.000    0.000    0.000 
#    0.000    0.000    0.000    0.000    0.000    0.000 
#
# Total GULP energy -224098.653249 kJ/mol
# GULP energy per Si atom -5602.466331 kJ/mol
# Density = 2.172328 g / cm^3
# Si number density = 21.772834 Si / 1000 Ang^3
#
#
#
# Elastic Constant Matrix: (Units=GPa)
#
#
# Indices 1 2 3 4 5 6 
#
# 1 121.0348 62.3648 20.2004 0.0000 0.0000 0.0000
# 2 62.3648 141.6965 34.8721 0.0000 0.0000 0.0000
# 3 20.2004 34.8721 31.9831 0.0000 0.0000 0.0000
# 4 0.0000 0.0000 0.0000 27.7376 0.0000 0.0000
# 5 0.0000 0.0000 0.0000 0.0000 35.3801 0.0000
# 6 0.0000 0.0000 0.0000 0.0000 0.0000 31.8113
#
#
#
# Elastic Compliance Matrix: (Units=1/GPa)
#
#
# Indices 1 2 3 4 5 6 
#
# 1 0.010801 -0.004203 -0.002240 0.000000 0.000000 0.000000
# 2 -0.004203 0.011281 -0.009645 0.000000 0.000000 0.000000
# 3 -0.002240 -0.009645 0.043198 0.000000 0.000000 0.000000
# 4 0.000000 0.000000 0.000000 0.036052 0.000000 0.000000
# 5 0.000000 0.000000 0.000000 0.000000 0.028264 0.000000
# 6 0.000000 0.000000 0.000000 0.000000 0.000000 0.031435
#
#
# Mechanical properties :
#
#
# Convention : Reuss Voigt Hill
#
# Bulk Modulus (GPa) = 30.20758 58.84323 44.52540
# Shear Modulus (GPa) = 24.48068 30.80427 27.64247
#
# Velocity S-wave (km/s) = 3.35680 3.76547 3.56699
# Velocity P-wave (km/s) = 5.37850 6.78157 6.12037
#
# Compressibility (1/GPa) = 0.03310427
#
# Stress axis : x y z
#
# Youngs Moduli (GPa) = 92.58011 88.64543 23.14938
#
# Poissons Ratio (x) = 0.37256 0.05185
# Poissons Ratio (y) = 0.38910 0.22328
# Poissons Ratio (z) = 0.20735 0.85502
#
# Static dielectric constant tensor:
#      x y z
#    x 1.755630 0.000000 0.000000 
#    y 0.000000 1.769810 0.000000 
#    z 0.000000 0.000000 1.803540 
# 
# From -- ./inp_files/3868.got.cif
#   From: 2010.05.17/outbox.cif.g08.bks.cpg/sg60_2_cif.got.tgz:3868.got - 2010.06.03 14:59:27.
