data_PCOD9457622
_publ_section_title
;
Structure prediction by ZEFSAII (Michael W. Deem and Ramdas Pophale) SiO2 
 PCOD9457622
Probable space group: P B C N
;
_chemical_formula_sum "Si O2"
_cell_formula_units_Z 56
_cell_length_a 13.576159
_cell_length_b 12.505735
_cell_length_c 13.744662
_cell_angle_alpha 90.000000
_cell_angle_beta 90.000000
_cell_angle_gamma 90.000000
_cell_volume 2333.566608
_symmetry_space_group_name_H-M "P B C N"
_symmetry_group_IT_number 60
_symmetry_cell_setting 'orthorhombic'
loop_
_space_group_symop_operation_xyz
x,y,z
1/2-x,1/2-y,1/2+z
1/2+x,1/2-y,-z
-x,y,1/2-z
-x,-y,-z
1/2+x,1/2+y,1/2-z
1/2-x,1/2+y,z
x,-y,1/2+z
loop_
_atom_site_type_symbol
_atom_site_label
_atom_site_fract_x
_atom_site_fract_y
_atom_site_fract_z
Si Si1 0.445781 0.365300 0.434972
Si Si2 0.606196 0.832281 0.695348
Si Si3 0.681499 0.296517 0.742659
Si Si4 0.357522 0.744201 0.476010
Si Si5 0.908900 0.029409 0.366129
Si Si6 0.112314 0.493176 0.469932
Si Si7 0.267664 0.878855 0.127068
O O1 0.392423 0.276503 0.370041
O O2 0.539179 0.302271 0.482821
O O3 0.391589 0.424319 0.524152
O O4 0.490873 0.461880 0.371228
O O5 0.500000 0.835351 0.750000
O O6 0.703618 0.827727 0.761683
O O7 0.621199 0.933780 0.625584
O O8 0.663923 0.305946 0.628619
O O9 0.604818 0.370470 0.797794
O O10 0.673548 0.177978 0.787123
O O11 0.274677 0.709759 0.552499
O O12 0.360074 0.870163 0.459649
O O13 0.825724 0.944811 0.336103
O O14 0.170378 0.543783 0.559599
O O15 0.000000 0.500000 0.500000
#
# Coordination Sequence:
#
# PCOD9457622 Si02
#       7
#     8   8   8   8   8   8   8
#     4  10  23  52  73 102 148 195 232 311 371 443
#     4  12  26  47  71 108 147 188 241 307 377 438
#     4  12  27  44  74 113 142 190 256 309 362 451
#     4  11  25  47  73 106 144 191 244 298 372 437
#     4  10  24  46  77 102 140 192 246 294 375 438
#     4  12  26  45  77  99 146 196 237 297 376 438
#     4  11  25  48  72 104 147 190 242 306 363 452
#
# _framework density 23.997599000000001
#
# number of rings (size 3 to 8) (size 9 to 14) (size 15 to 20)
#    0.000    0.857    2.857    3.429    6.000    0.571 
#   15.429    0.000    0.000    0.000    0.000    0.000 
#    0.000    0.000    0.000    0.000    0.000    0.000 
#
# Total GULP energy -313857.049862 kJ/mol
# GULP energy per Si atom -5604.590176 kJ/mol
# Density = 2.394298 g / cm^3
# Si number density = 23.997599 Si / 1000 Ang^3
#
#
#
# Elastic Constant Matrix: (Units=GPa)
#
#
# Indices 1 2 3 4 5 6 
#
# 1 67.5898 21.5440 14.4675 0.0000 0.0000 0.0000
# 2 21.5440 103.4978 1.3552 0.0000 0.0000 0.0000
# 3 14.4675 1.3552 70.4089 0.0000 0.0000 0.0000
# 4 0.0000 0.0000 0.0000 -1.8660 0.0000 0.0000
# 5 0.0000 0.0000 0.0000 0.0000 35.8438 0.0000
# 6 0.0000 0.0000 0.0000 0.0000 0.0000 34.2335
#
#
#
# Elastic Compliance Matrix: (Units=1/GPa)
#
#
# Indices 1 2 3 4 5 6 
#
# 1 0.016598 -0.003411 -0.003345 0.000000 0.000000 0.000000
# 2 -0.003411 0.010366 0.000501 0.000000 0.000000 0.000000
# 3 -0.003345 0.000501 0.014880 0.000000 0.000000 0.000000
# 4 0.000000 0.000000 0.000000 -0.535894 0.000000 0.000000
# 5 0.000000 0.000000 0.000000 0.000000 0.027899 0.000000
# 6 0.000000 0.000000 0.000000 0.000000 0.000000 0.029211
#
#
# Mechanical properties :
#
#
# Convention : Reuss Voigt Hill
#
# Bulk Modulus (GPa) = 34.08924 35.13665 34.61294
# Shear Modulus (GPa) = -12.05832 27.25090 7.59629
#
# Velocity S-wave (km/s) = -2.24404 3.37347 1.78110
# Velocity P-wave (km/s) = 2.74260 5.46327 4.32256
#
# Compressibility (1/GPa) = 0.02933477
#
# Stress axis : x y z
#
# Youngs Moduli (GPa) = 60.24651 96.47314 67.20238
#
# Poissons Ratio (x) = 0.32910 0.22479
# Poissons Ratio (y) = 0.20552 -0.03370
# Poissons Ratio (z) = 0.20152 -0.04838
#
# Static dielectric constant tensor:
#      x y z
#    x 1.943850 0.000000 0.000000 
#    y 0.000000 1.940410 0.000000 
#    z 0.000000 0.000000 1.962440 
# 
# From -- ./inp_files/16857.got.cif
#   From: 2010.05.17/outbox.cif.g08.bks.cpg/sg60_9_cif.got.tgz:16857.got - 2010.06.03 14:59:27.
