data_PCOD9457760
_publ_section_title
;
Structure prediction by ZEFSAII (Michael W. Deem and Ramdas Pophale) SiO2 
 PCOD9457760
Probable space group: P B C N
;
_chemical_formula_sum "Si O2"
_cell_formula_units_Z 28
_cell_length_a 11.134358
_cell_length_b 10.405061
_cell_length_c 10.828752
_cell_angle_alpha 90.000000
_cell_angle_beta 90.000000
_cell_angle_gamma 90.000000
_cell_volume 1254.550706
_symmetry_space_group_name_H-M "P B C N"
_symmetry_group_IT_number 60
_symmetry_cell_setting 'orthorhombic'
loop_
_space_group_symop_operation_xyz
x,y,z
1/2-x,1/2-y,1/2+z
1/2+x,1/2-y,-z
-x,y,1/2-z
-x,-y,-z
1/2+x,1/2+y,1/2-z
1/2-x,1/2+y,z
x,-y,1/2+z
loop_
_atom_site_type_symbol
_atom_site_label
_atom_site_fract_x
_atom_site_fract_y
_atom_site_fract_z
Si Si1 0.284730 0.176549 0.862374
Si Si2 0.536895 0.446136 0.129109
Si Si3 0.645169 0.207134 0.362497
Si Si4 0.000000 0.477584 0.250000
O O1 0.178096 0.072884 0.866317
O O2 0.236753 0.268127 0.751642
O O3 0.409450 0.111367 0.826164
O O4 0.293820 0.223694 0.003635
O O5 0.500000 0.525917 0.250000
O O6 0.459493 0.314565 0.137802
O O7 0.500000 0.500000 0.000000
O O8 0.580165 0.071047 0.337352
#
# Coordination Sequence:
#
# PCOD9457760 Si02
#       4
#     8   8   8   4
#     4  11  27  43  77 100 146 191 238 301 366 436
#     4  10  24  44  69 104 140 183 235 299 358 435
#     4  11  26  49  69 109 145 182 247 299 361 442
#     4  12  26  48  72 108 148 196 244 300 370 438
#
# _framework density 22.318747999999999
#
# number of rings (size 3 to 8) (size 9 to 14) (size 15 to 20)
#    0.000    1.143    4.286    0.857   16.000    0.000 
#    0.000    0.000    0.000    0.000    0.000    0.000 
#    0.000    0.000    0.000    0.000    0.000    0.000 
#
# Total GULP energy -156376.089761 kJ/mol
# GULP energy per Si atom -5584.860349 kJ/mol
# Density = 2.226795 g / cm^3
# Si number density = 22.318748 Si / 1000 Ang^3
#
#
#
# Elastic Constant Matrix: (Units=GPa)
#
#
# Indices 1 2 3 4 5 6 
#
# 1 114.0069 20.5852 74.7606 0.0000 0.0000 0.0000
# 2 20.5852 32.5163 26.2852 0.0000 0.0000 0.0000
# 3 74.7606 26.2852 217.1041 0.0000 0.0000 0.0000
# 4 0.0000 0.0000 0.0000 26.8072 0.0000 0.0000
# 5 0.0000 0.0000 0.0000 0.0000 50.6823 0.0000
# 6 0.0000 0.0000 0.0000 0.0000 0.0000 26.6794
#
#
#
# Elastic Compliance Matrix: (Units=1/GPa)
#
#
# Indices 1 2 3 4 5 6 
#
# 1 0.011943 -0.004696 -0.003544 0.000000 0.000000 0.000000
# 2 -0.004696 0.035937 -0.002734 0.000000 0.000000 0.000000
# 3 -0.003544 -0.002734 0.006158 0.000000 0.000000 0.000000
# 4 0.000000 0.000000 0.000000 0.037303 0.000000 0.000000
# 5 0.000000 0.000000 0.000000 0.000000 0.019731 0.000000
# 6 0.000000 0.000000 0.000000 0.000000 0.000000 0.037482
#
#
# Mechanical properties :
#
#
# Convention : Reuss Voigt Hill
#
# Bulk Modulus (GPa) = 31.16284 67.43214 49.29749
# Shear Modulus (GPa) = 27.59405 36.96689 32.28047
#
# Velocity S-wave (km/s) = 3.52001 4.07420 3.80720
# Velocity P-wave (km/s) = 5.52391 7.23954 6.43912
#
# Compressibility (1/GPa) = 0.03208950
#
# Stress axis : x y z
#
# Youngs Moduli (GPa) = 83.72785 27.82673 162.40262
#
# Poissons Ratio (x) = 0.13068 0.57559
# Poissons Ratio (y) = 0.39319 0.44398
# Poissons Ratio (z) = 0.29675 0.07607
#
# Static dielectric constant tensor:
#      x y z
#    x 1.795260 0.000000 0.000000 
#    y 0.000000 1.882500 0.000000 
#    z 0.000000 0.000000 1.913040 
# 
# From -- ./inp_files/10532.got.cif
#   From: 2010.05.17/outbox.cif.g08.bks.cpg/sg60_6_cif.got.tgz:10532.got - 2010.06.03 14:59:27.
