data_PCOD9457011
_publ_section_title
;
Structure prediction by ZEFSAII (Michael W. Deem and Ramdas Pophale) SiO2 
 PCOD9457011
Probable space group: P B C N
;
_chemical_formula_sum "Si O2"
_cell_formula_units_Z 64
_cell_length_a 21.650626
_cell_length_b 9.300855
_cell_length_c 15.843900
_cell_angle_alpha 90.000000
_cell_angle_beta 90.000000
_cell_angle_gamma 90.000000
_cell_volume 3190.475576
_symmetry_space_group_name_H-M "P B C N"
_symmetry_group_IT_number 60
_symmetry_cell_setting 'orthorhombic'
loop_
_space_group_symop_operation_xyz
x,y,z
1/2-x,1/2-y,1/2+z
1/2+x,1/2-y,-z
-x,y,1/2-z
-x,-y,-z
1/2+x,1/2+y,1/2-z
1/2-x,1/2+y,z
x,-y,1/2+z
loop_
_atom_site_type_symbol
_atom_site_label
_atom_site_fract_x
_atom_site_fract_y
_atom_site_fract_z
Si Si1 0.558013 0.309073 0.443882
Si Si2 0.419783 0.764939 0.904756
Si Si3 0.849682 0.979844 0.024927
Si Si4 0.844385 0.165961 0.185503
Si Si5 0.878847 0.580974 0.561444
Si Si6 0.385646 0.395522 0.235358
Si Si7 0.746784 0.710415 0.814198
Si Si8 0.725451 0.972288 0.931963
O O1 0.485130 0.287393 0.440642
O O2 0.587901 0.437093 0.499078
O O3 0.585626 0.165867 0.487051
O O4 0.581737 0.346068 0.350176
O O5 0.411852 0.701152 0.811081
O O6 0.411850 0.935174 0.910207
O O7 0.365925 0.684400 0.956874
O O8 0.797251 0.993493 0.955437
O O9 0.825969 0.060294 0.108628
O O10 0.870442 0.307865 0.138860
O O11 0.787766 0.212913 0.243697
O O12 0.890672 0.064654 0.240042
O O13 0.814090 0.538824 0.516871
O O14 0.312180 0.367810 0.226095
O O15 0.720292 0.826068 0.879865
O O16 0.789098 0.601404 0.868127
#
# Coordination Sequence:
#
# PCOD9457011 Si02
#       8
#     8   8   8   8   8   8   8   8
#     4  11  21  46  63  90 127 172 219 267 313 383
#     4  11  25  38  68  92 127 172 219 264 324 374
#     4  10  22  42  63  94 124 168 219 262 314 389
#     4  10  24  39  62  93 130 164 211 263 324 388
#     4  11  25  40  65  98 131 163 210 277 327 381
#     4  11  23  41  61  91 124 176 217 257 318 389
#     4  12  22  39  59  91 128 167 201 259 323 384
#     4  12  23  39  63  91 131 164 208 260 328 384
#
# _framework density 20.059704
#
# number of rings (size 3 to 8) (size 9 to 14) (size 15 to 20)
#    0.000    1.000    3.750    2.625    7.000    0.000 
#    0.000    0.000    0.000    7.500    0.000    0.000 
#    0.000    0.000    0.000    0.000    0.000    0.000 
#
# Total GULP energy -357438.047010 kJ/mol
# GULP energy per Si atom -5584.969485 kJ/mol
# Density = 2.001405 g / cm^3
# Si number density = 20.059704 Si / 1000 Ang^3
#
#
#
# Elastic Constant Matrix: (Units=GPa)
#
#
# Indices 1 2 3 4 5 6 
#
# 1 63.5263 37.2253 24.3237 0.0000 0.0000 0.0000
# 2 37.2253 125.7303 38.2522 0.0000 0.0000 0.0000
# 3 24.3237 38.2522 49.2760 0.0000 0.0000 0.0000
# 4 0.0000 0.0000 0.0000 22.5356 0.0000 0.0000
# 5 0.0000 0.0000 0.0000 0.0000 14.4365 0.0000
# 6 0.0000 0.0000 0.0000 0.0000 0.0000 20.4116
#
#
#
# Elastic Compliance Matrix: (Units=1/GPa)
#
#
# Indices 1 2 3 4 5 6 
#
# 1 0.020826 -0.003978 -0.007192 0.000000 0.000000 0.000000
# 2 -0.003978 0.011173 -0.006710 0.000000 0.000000 0.000000
# 3 -0.007192 -0.006710 0.029053 0.000000 0.000000 0.000000
# 4 0.000000 0.000000 0.000000 0.044374 0.000000 0.000000
# 5 0.000000 0.000000 0.000000 0.000000 0.069269 0.000000
# 6 0.000000 0.000000 0.000000 0.000000 0.000000 0.048992
#
#
# Mechanical properties :
#
#
# Convention : Reuss Voigt Hill
#
# Bulk Modulus (GPa) = 39.53812 48.68166 44.10989
# Shear Modulus (GPa) = 18.66528 20.72550 19.69539
#
# Velocity S-wave (km/s) = 3.05370 3.21782 3.13683
# Velocity P-wave (km/s) = 5.67331 6.17469 5.92930
#
# Compressibility (1/GPa) = 0.02529205
#
# Stress axis : x y z
#
# Youngs Moduli (GPa) = 48.01592 89.50473 34.42022
#
# Poissons Ratio (x) = 0.35604 0.24756
# Poissons Ratio (y) = 0.19100 0.23094
# Poissons Ratio (z) = 0.34535 0.60053
#
# Static dielectric constant tensor:
#      x y z
#    x 1.700210 0.000000 0.000000 
#    y 0.000000 1.717080 0.000000 
#    z 0.000000 0.000000 1.705230 
# 
# From -- ./inp_files/17939.got.cif
#   From: 2010.05.17/outbox.cif.g08.bks.cpg/sg60_9_cif.got.tgz:17939.got - 2010.06.03 14:59:27.
