data_PCOD9457174
_publ_section_title
;
Structure prediction by ZEFSAII (Michael W. Deem and Ramdas Pophale) SiO2 
 PCOD9457174
Probable space group: P B C N
;
_chemical_formula_sum "Si O2"
_cell_formula_units_Z 56
_cell_length_a 10.427653
_cell_length_b 15.568771
_cell_length_c 14.416427
_cell_angle_alpha 90.000000
_cell_angle_beta 90.000000
_cell_angle_gamma 90.000000
_cell_volume 2340.445533
_symmetry_space_group_name_H-M "P B C N"
_symmetry_group_IT_number 60
_symmetry_cell_setting 'orthorhombic'
loop_
_space_group_symop_operation_xyz
x,y,z
1/2-x,1/2-y,1/2+z
1/2+x,1/2-y,-z
-x,y,1/2-z
-x,-y,-z
1/2+x,1/2+y,1/2-z
1/2-x,1/2+y,z
x,-y,1/2+z
loop_
_atom_site_type_symbol
_atom_site_label
_atom_site_fract_x
_atom_site_fract_y
_atom_site_fract_z
Si Si1 0.999142 0.883661 0.412155
Si Si2 0.282990 0.932816 0.763143
Si Si3 0.984794 0.638148 0.551353
Si Si4 0.000000 0.434198 0.250000
Si Si5 0.613915 0.797482 0.860313
Si Si6 0.255804 0.892299 0.971190
Si Si7 0.155581 0.219883 0.026184
Si Si8 0.500000 0.481760 0.750000
O O1 0.968726 0.789638 0.365463
O O2 0.875725 0.906415 0.474852
O O3 0.123580 0.867966 0.476252
O O4 0.021850 0.955458 0.336809
O O5 0.365363 0.849718 0.733112
O O6 0.271140 0.936736 0.873554
O O7 0.373838 0.008949 0.727102
O O8 0.134383 0.933113 0.730598
O O9 0.914636 0.639817 0.450243
O O10 0.882357 0.412245 0.469195
O O11 0.952244 0.613308 0.656005
O O12 0.020464 0.739286 0.554398
O O13 0.758410 0.771354 0.884690
O O14 0.277403 0.788849 0.957375
#
# Coordination Sequence:
#
# PCOD9457174 Si02
#       8
#     8   8   8   4   8   8   8   4
#     4  10  22  44  70  92 137 182 232 288 338 411
#     4  12  28  43  68 104 143 185 225 279 358 420
#     4   9  21  42  65  99 126 169 233 280 333 396
#     4  12  26  43  67 100 136 182 224 278 346 423
#     4  10  22  44  71  97 131 179 237 285 333 406
#     4   9  21  43  64  96 130 175 228 277 338 407
#     4   8  20  42  66  96 123 177 233 284 336 388
#     4  12  30  43  65 112 146 182 230 278 370 417
#
# _framework density 23.927067000000001
#
# number of rings (size 3 to 8) (size 9 to 14) (size 15 to 20)
#    0.857    1.143    0.000    1.714    6.000    4.000 
#    7.714    0.000    0.000    0.000    0.000    0.000 
#    0.000    0.000    0.000    0.000    0.000    0.000 
#
# Total GULP energy -311768.331115 kJ/mol
# GULP energy per Si atom -5567.291627 kJ/mol
# Density = 2.387261 g / cm^3
# Si number density = 23.927067 Si / 1000 Ang^3
#
#
#
# Elastic Constant Matrix: (Units=GPa)
#
#
# Indices 1 2 3 4 5 6 
#
# 1 81.0833 7.0748 -7.2718 0.0000 0.0000 0.0000
# 2 7.0748 38.5173 16.0375 0.0000 0.0000 0.0000
# 3 -7.2718 16.0375 75.4968 0.0000 0.0000 0.0000
# 4 0.0000 0.0000 0.0000 29.7369 0.0000 0.0000
# 5 0.0000 0.0000 0.0000 0.0000 27.5651 0.0000
# 6 0.0000 0.0000 0.0000 0.0000 0.0000 11.8543
#
#
#
# Elastic Compliance Matrix: (Units=1/GPa)
#
#
# Indices 1 2 3 4 5 6 
#
# 1 0.012777 -0.003137 0.001897 0.000000 0.000000 0.000000
# 2 -0.003137 0.029252 -0.006516 0.000000 0.000000 0.000000
# 3 0.001897 -0.006516 0.014812 0.000000 0.000000 0.000000
# 4 0.000000 0.000000 0.000000 0.033628 0.000000 0.000000
# 5 0.000000 0.000000 0.000000 0.000000 0.036278 0.000000
# 6 0.000000 0.000000 0.000000 0.000000 0.000000 0.084357
#
#
# Mechanical properties :
#
#
# Convention : Reuss Voigt Hill
#
# Bulk Modulus (GPa) = 24.19576 25.19761 24.69669
# Shear Modulus (GPa) = 20.79935 25.78171 23.29053
#
# Velocity S-wave (km/s) = 2.95156 3.28611 3.12332
# Velocity P-wave (km/s) = 4.66367 4.99519 4.83227
#
# Compressibility (1/GPa) = 0.04132955
#
# Stress axis : x y z
#
# Youngs Moduli (GPa) = 78.26679 34.18623 67.51078
#
# Poissons Ratio (x) = 0.10723 -0.12807
# Poissons Ratio (y) = 0.24550 0.43989
# Poissons Ratio (z) = -0.14847 0.22275
#
# Static dielectric constant tensor:
#      x y z
#    x 2.008470 0.000000 0.000000 
#    y 0.000000 1.964970 0.000000 
#    z 0.000000 0.000000 1.975560 
# 
# From -- ./inp_files/16210.got.cif
#   From: 2010.05.17/outbox.cif.g08.bks.cpg/sg60_9_cif.got.tgz:16210.got - 2010.06.03 14:59:27.
