data_PCOD9457776
_publ_section_title
;
Structure prediction by ZEFSAII (Michael W. Deem and Ramdas Pophale) SiO2 
 PCOD9457776
Probable space group: P B C N
;
_chemical_formula_sum "Si O2"
_cell_formula_units_Z 32
_cell_length_a 4.889903
_cell_length_b 9.678981
_cell_length_c 26.734984
_cell_angle_alpha 90.000000
_cell_angle_beta 90.000000
_cell_angle_gamma 90.000000
_cell_volume 1265.347496
_symmetry_space_group_name_H-M "P B C N"
_symmetry_group_IT_number 60
_symmetry_cell_setting 'orthorhombic'
loop_
_space_group_symop_operation_xyz
x,y,z
1/2-x,1/2-y,1/2+z
1/2+x,1/2-y,-z
-x,y,1/2-z
-x,-y,-z
1/2+x,1/2+y,1/2-z
1/2-x,1/2+y,z
x,-y,1/2+z
loop_
_atom_site_type_symbol
_atom_site_label
_atom_site_fract_x
_atom_site_fract_y
_atom_site_fract_z
Si Si1 0.917245 0.843581 0.016691
Si Si2 0.339092 0.984604 0.301639
Si Si3 0.463987 0.811341 0.390003
Si Si4 0.319868 0.542493 0.142030
O O1 0.754628 0.853173 0.069254
O O2 0.272291 0.910660 0.110155
O O3 0.682810 0.757609 0.985080
O O4 0.000000 0.000000 0.000000
O O5 0.500000 0.973211 0.250000
O O6 0.369850 0.842935 0.333035
O O7 0.530100 0.088604 0.334413
O O8 0.023503 0.017371 0.311184
O O9 0.540522 0.653311 0.392619
#
# Coordination Sequence:
#
# PCOD9457776 Si02
#       4
#     8   8   8   8
#     4  12  31  56  88 123 169 222 291 358 435 513
#     4  10  24  44  77 116 159 212 274 334 415 500
#     4  10  28  49  79 116 166 215 276 346 422 498
#     4  10  25  46  76 110 161 208 268 332 416 490
#
# _framework density 25.289494000000001
#
# number of rings (size 3 to 8) (size 9 to 14) (size 15 to 20)
#    1.500    0.000    0.000    1.500   10.500    4.000 
#    0.000    0.000    0.000    0.000    0.000    0.000 
#    0.000    0.000    0.000    0.000    0.000    0.000 
#
# Total GULP energy -178454.435461 kJ/mol
# GULP energy per Si atom -5576.701108 kJ/mol
# Density = 2.523193 g / cm^3
# Si number density = 25.289494 Si / 1000 Ang^3
#
#
#
# Elastic Constant Matrix: (Units=GPa)
#
#
# Indices 1 2 3 4 5 6 
#
# 1 218.6821 76.8129 72.8706 0.0000 0.0000 0.0000
# 2 76.8129 155.4681 63.1631 0.0000 0.0000 0.0000
# 3 72.8706 63.1631 141.9898 0.0000 0.0000 0.0000
# 4 0.0000 0.0000 0.0000 15.0984 0.0000 0.0000
# 5 0.0000 0.0000 0.0000 0.0000 54.8152 0.0000
# 6 0.0000 0.0000 0.0000 0.0000 0.0000 51.2668
#
#
#
# Elastic Compliance Matrix: (Units=1/GPa)
#
#
# Indices 1 2 3 4 5 6 
#
# 1 0.006031 -0.002102 -0.002160 0.000000 0.000000 0.000000
# 2 -0.002102 0.008584 -0.002740 0.000000 0.000000 0.000000
# 3 -0.002160 -0.002740 0.009370 0.000000 0.000000 0.000000
# 4 0.000000 0.000000 0.000000 0.066232 0.000000 0.000000
# 5 0.000000 0.000000 0.000000 0.000000 0.018243 0.000000
# 6 0.000000 0.000000 0.000000 0.000000 0.000000 0.019506
#
#
# Mechanical properties :
#
#
# Convention : Reuss Voigt Hill
#
# Bulk Modulus (GPa) = 100.18811 104.64813 102.41812
# Shear Modulus (GPa) = 34.41232 44.45564 39.43398
#
# Velocity S-wave (km/s) = 3.69282 4.19724 3.95308
# Velocity P-wave (km/s) = 7.60822 8.05972 7.83722
#
# Compressibility (1/GPa) = 0.00998122
#
# Stress axis : x y z
#
# Youngs Moduli (GPa) = 165.80894 116.49747 106.72354
#
# Poissons Ratio (x) = 0.24490 0.23053
# Poissons Ratio (y) = 0.34857 0.29238
# Poissons Ratio (z) = 0.35815 0.31916
#
# Static dielectric constant tensor:
#      x y z
#    x 2.038590 0.000000 0.000000 
#    y 0.000000 1.947020 0.000000 
#    z 0.000000 0.000000 2.151610 
# 
# From -- ./inp_files/21375.got.cif
#   From: 2010.05.17/outbox.cif.g08.bks.cpg/sg60_11_cif.got.tgz:21375.got - 2010.06.03 14:59:27.
