data_PCOD9457445
_publ_section_title
;
Structure prediction by ZEFSAII (Michael W. Deem and Ramdas Pophale) SiO2 
 PCOD9457445
Probable space group: P B C N
;
_chemical_formula_sum "Si O2"
_cell_formula_units_Z 64
_cell_length_a 22.944252
_cell_length_b 15.432198
_cell_length_c 8.600453
_cell_angle_alpha 90.000000
_cell_angle_beta 90.000000
_cell_angle_gamma 90.000000
_cell_volume 3045.250461
_symmetry_space_group_name_H-M "P B C N"
_symmetry_group_IT_number 60
_symmetry_cell_setting 'orthorhombic'
loop_
_space_group_symop_operation_xyz
x,y,z
1/2-x,1/2-y,1/2+z
1/2+x,1/2-y,-z
-x,y,1/2-z
-x,-y,-z
1/2+x,1/2+y,1/2-z
1/2-x,1/2+y,z
x,-y,1/2+z
loop_
_atom_site_type_symbol
_atom_site_label
_atom_site_fract_x
_atom_site_fract_y
_atom_site_fract_z
Si Si1 0.153454 0.072270 0.953667
Si Si2 0.244447 0.805494 0.923040
Si Si3 0.127977 0.733300 0.495227
Si Si4 0.603052 0.070430 0.488646
Si Si5 0.729288 0.126312 0.423182
Si Si6 0.863259 0.102464 0.911852
Si Si7 0.935382 0.595598 0.817556
Si Si8 0.937127 0.261404 0.825551
O O1 0.132077 0.163912 0.023757
O O2 0.151101 0.083334 0.768545
O O3 0.219395 0.064518 0.016781
O O4 0.119458 0.987539 0.007866
O O5 0.307989 0.809233 0.004117
O O6 0.253590 0.832925 0.744091
O O7 0.226182 0.705503 0.952759
O O8 0.194096 0.861201 0.002619
O O9 0.083354 0.685053 0.605442
O O10 0.106737 0.723078 0.318175
O O11 0.667258 0.080270 0.417342
O O12 0.606596 0.075538 0.673218
O O13 0.565602 0.152578 0.429108
O O14 0.573033 0.981510 0.439581
O O15 0.912048 0.177578 0.913877
O O16 0.000000 0.596434 0.750000
O O17 0.000000 0.246559 0.750000
#
# Coordination Sequence:
#
# PCOD9457445 Si02
#       8
#     8   8   8   8   8   8   8   8
#     4  10  24  39  64  94 137 163 215 272 332 396
#     4  11  21  40  64  93 133 160 221 263 333 399
#     4  10  23  43  65  93 127 169 215 276 325 386
#     4  12  25  41  66  96 129 172 227 266 343 384
#     4  11  23  38  65 100 127 179 207 275 335 409
#     4  11  23  42  65  99 132 177 213 274 335 391
#     4  12  27  44  65  93 132 178 226 276 322 396
#     4  11  22  45  70  94 131 176 224 272 333 397
#
# _framework density 21.016334000000001
#
# number of rings (size 3 to 8) (size 9 to 14) (size 15 to 20)
#    0.000    1.000    2.500    4.500    7.000    1.000 
#    0.000    3.125    0.000    0.000    0.000    0.000 
#    0.000    0.000    0.000    0.000    0.000    0.000 
#
# Total GULP energy -357989.036770 kJ/mol
# GULP energy per Si atom -5593.578700 kJ/mol
# Density = 2.096850 g / cm^3
# Si number density = 21.016334 Si / 1000 Ang^3
#
#
#
# Elastic Constant Matrix: (Units=GPa)
#
#
# Indices 1 2 3 4 5 6 
#
# 1 49.9718 23.1723 -1.8574 0.0000 0.0000 0.0000
# 2 23.1723 77.9696 15.7709 0.0000 0.0000 0.0000
# 3 -1.8574 15.7709 50.7294 0.0000 0.0000 0.0000
# 4 0.0000 0.0000 0.0000 27.1330 0.0000 0.0000
# 5 0.0000 0.0000 0.0000 0.0000 30.4536 0.0000
# 6 0.0000 0.0000 0.0000 0.0000 0.0000 17.8192
#
#
#
# Elastic Compliance Matrix: (Units=1/GPa)
#
#
# Indices 1 2 3 4 5 6 
#
# 1 0.023706 -0.007705 0.003263 0.000000 0.000000 0.000000
# 2 -0.007705 0.016191 -0.005316 0.000000 0.000000 0.000000
# 3 0.003263 -0.005316 0.021484 0.000000 0.000000 0.000000
# 4 0.000000 0.000000 0.000000 0.036855 0.000000 0.000000
# 5 0.000000 0.000000 0.000000 0.000000 0.032837 0.000000
# 6 0.000000 0.000000 0.000000 0.000000 0.000000 0.056119
#
#
# Mechanical properties :
#
#
# Convention : Reuss Voigt Hill
#
# Bulk Modulus (GPa) = 23.88580 28.09359 25.98970
# Shear Modulus (GPa) = 22.65904 24.52017 23.58960
#
# Velocity S-wave (km/s) = 3.28710 3.41943 3.35392
# Velocity P-wave (km/s) = 5.07905 5.38392 5.23370
#
# Compressibility (1/GPa) = 0.04186587
#
# Stress axis : x y z
#
# Youngs Moduli (GPa) = 42.18412 61.76393 46.54529
#
# Poissons Ratio (x) = 0.47591 -0.15190
# Poissons Ratio (y) = 0.32504 0.24741
# Poissons Ratio (z) = -0.13767 0.32831
#
# Static dielectric constant tensor:
#      x y z
#    x 1.773020 0.000000 0.000000 
#    y 0.000000 1.765870 0.000000 
#    z 0.000000 0.000000 1.751710 
# 
# From -- ./inp_files/7966.got.cif
#   From: 2010.05.17/outbox.cif.g08.bks.cpg/sg60_4_cif.got.tgz:7966.got - 2010.06.03 14:59:27.
