data_PCOD9457471
_publ_section_title
;
Structure prediction by ZEFSAII (Michael W. Deem and Ramdas Pophale) SiO2 
 PCOD9457471
Probable space group: P B C N
;
_chemical_formula_sum "Si O2"
_cell_formula_units_Z 40
_cell_length_a 8.804100
_cell_length_b 8.731926
_cell_length_c 22.003464
_cell_angle_alpha 90.000000
_cell_angle_beta 90.000000
_cell_angle_gamma 90.000000
_cell_volume 1691.554794
_symmetry_space_group_name_H-M "P B C N"
_symmetry_group_IT_number 60
_symmetry_cell_setting 'orthorhombic'
loop_
_space_group_symop_operation_xyz
x,y,z
1/2-x,1/2-y,1/2+z
1/2+x,1/2-y,-z
-x,y,1/2-z
-x,-y,-z
1/2+x,1/2+y,1/2-z
1/2-x,1/2+y,z
x,-y,1/2+z
loop_
_atom_site_type_symbol
_atom_site_label
_atom_site_fract_x
_atom_site_fract_y
_atom_site_fract_z
Si Si1 0.348790 0.592751 0.515348
Si Si2 0.771286 0.347550 0.902616
Si Si3 0.911421 0.829960 0.612783
Si Si4 0.353590 0.922546 0.733941
Si Si5 0.816001 0.127778 0.685850
O O1 0.500000 0.500000 0.500000
O O2 0.228590 0.481754 0.547235
O O3 0.372138 0.717245 0.567294
O O4 0.316171 0.667551 0.450433
O O5 0.591797 0.302536 0.896524
O O6 0.829941 0.383800 0.835769
O O7 0.831874 0.696093 0.651451
O O8 0.894495 0.001148 0.642210
O O9 0.500000 0.023587 0.750000
O O10 0.374843 0.784995 0.783335
O O11 0.213177 0.023280 0.755133
#
# Coordination Sequence:
#
# PCOD9457471 Si02
#       5
#     8   8   8   8   8
#     4  10  23  43  69 101 132 178 234 285 346 409
#     4  11  24  43  71  97 136 185 232 281 349 427
#     4  10  23  45  69  97 139 177 231 283 355 409
#     4  11  26  40  68 100 139 181 231 281 353 417
#     4  10  24  42  65  99 138 178 224 292 339 418
#
# _framework density 23.646885000000001
#
# number of rings (size 3 to 8) (size 9 to 14) (size 15 to 20)
#    0.000    1.600    0.000    2.400   14.000    1.600 
#    3.600    5.000    0.000    0.000    0.000    0.000 
#    0.000    0.000    0.000    0.000    0.000    0.000 
#
# Total GULP energy -222942.906182 kJ/mol
# GULP energy per Si atom -5573.572655 kJ/mol
# Density = 2.359306 g / cm^3
# Si number density = 23.646885 Si / 1000 Ang^3
#
#
#
# Elastic Constant Matrix: (Units=GPa)
#
#
# Indices 1 2 3 4 5 6 
#
# 1 56.7189 13.6671 47.3368 0.0000 0.0000 0.0000
# 2 13.6671 74.4233 46.0786 0.0000 0.0000 0.0000
# 3 47.3368 46.0786 172.2875 0.0000 0.0000 0.0000
# 4 0.0000 0.0000 0.0000 2.3711 0.0000 0.0000
# 5 0.0000 0.0000 0.0000 0.0000 33.7769 0.0000
# 6 0.0000 0.0000 0.0000 0.0000 0.0000 17.3373
#
#
#
# Elastic Compliance Matrix: (Units=1/GPa)
#
#
# Indices 1 2 3 4 5 6 
#
# 1 0.022885 -0.000371 -0.006189 0.000000 0.000000 0.000000
# 2 -0.000371 0.016109 -0.004207 0.000000 0.000000 0.000000
# 3 -0.006189 -0.004207 0.008630 0.000000 0.000000 0.000000
# 4 0.000000 0.000000 0.000000 0.421742 0.000000 0.000000
# 5 0.000000 0.000000 0.000000 0.000000 0.029606 0.000000
# 6 0.000000 0.000000 0.000000 0.000000 0.000000 0.057679
#
#
# Mechanical properties :
#
#
# Convention : Reuss Voigt Hill
#
# Bulk Modulus (GPa) = 38.32626 57.51051 47.91839
# Shear Modulus (GPa) = 8.51963 23.78689 16.15326
#
# Velocity S-wave (km/s) = 1.90018 3.17507 2.61646
# Velocity P-wave (km/s) = 4.58881 6.14937 5.42549
#
# Compressibility (1/GPa) = 0.02609177
#
# Stress axis : x y z
#
# Youngs Moduli (GPa) = 43.69662 62.07631 115.87993
#
# Poissons Ratio (x) = 0.02303 0.71713
# Poissons Ratio (y) = 0.01621 0.48745
# Poissons Ratio (z) = 0.27042 0.26112
#
# Static dielectric constant tensor:
#      x y z
#    x 2.062620 0.000000 0.000000 
#    y 0.000000 1.986070 0.000000 
#    z 0.000000 0.000000 1.921500 
# 
# From -- ./inp_files/23822.got.cif
#   From: 2010.05.17/outbox.cif.g08.bks.cpg/sg60_12_cif.got.tgz:23822.got - 2010.06.03 14:59:27.
