data_PCOD9457810
_publ_section_title
;
Structure prediction by ZEFSAII (Michael W. Deem and Ramdas Pophale) SiO2 
 PCOD9457810
Probable space group: P B C N
;
_chemical_formula_sum "Si O2"
_cell_formula_units_Z 44
_cell_length_a 33.071577
_cell_length_b 7.049246
_cell_length_c 7.909805
_cell_angle_alpha 90.000000
_cell_angle_beta 90.000000
_cell_angle_gamma 90.000000
_cell_volume 1844.010323
_symmetry_space_group_name_H-M "P B C N"
_symmetry_group_IT_number 60
_symmetry_cell_setting 'orthorhombic'
loop_
_space_group_symop_operation_xyz
x,y,z
1/2-x,1/2-y,1/2+z
1/2+x,1/2-y,-z
-x,y,1/2-z
-x,-y,-z
1/2+x,1/2+y,1/2-z
1/2-x,1/2+y,z
x,-y,1/2+z
loop_
_atom_site_type_symbol
_atom_site_label
_atom_site_fract_x
_atom_site_fract_y
_atom_site_fract_z
Si Si1 0.877132 0.588840 0.655714
Si Si2 0.000000 0.028133 0.750000
Si Si3 0.940237 0.847029 0.496594
Si Si4 0.294716 0.896838 0.542510
Si Si5 0.208467 0.788457 0.412576
Si Si6 0.623663 0.310179 0.012002
O O1 0.914666 0.667160 0.549229
O O2 0.835150 0.644329 0.562922
O O3 0.879377 0.358881 0.651881
O O4 0.878586 0.694167 0.835637
O O5 0.977307 0.890099 0.621194
O O6 0.036312 0.155527 0.679221
O O7 0.909784 0.027058 0.505651
O O8 0.252612 0.869448 0.443552
O O9 0.295804 0.123941 0.553434
O O10 0.293516 0.794142 0.722631
O O11 0.167658 0.904797 0.449804
#
# Coordination Sequence:
#
# PCOD9457810 Si02
#       6
#     8   4   8   8   8   8
#     4  11  24  42  68  99 133 178 224 270 333 400
#     4  10  24  46  70 102 130 170 224 282 326 416
#     4  11  24  46  72  96 140 172 218 276 344 393
#     4  11  23  40  62  92 132 171 221 271 318 387
#     4  11  23  40  62  92 132 171 221 271 318 387
#     4  11  24  42  68  99 133 178 224 270 333 400
#
# _framework density 23.861038000000001
#
# number of rings (size 3 to 8) (size 9 to 14) (size 15 to 20)
#    0.000    1.091    1.818    6.545    7.636    0.000 
#    0.000    5.455    0.000    0.000    0.000    0.000 
#    0.000    0.000    0.000    0.000    0.000    0.000 
#
# Total GULP energy -245979.600936 kJ/mol
# GULP energy per Si atom -5590.445476 kJ/mol
# Density = 2.380673 g / cm^3
# Si number density = 23.861038 Si / 1000 Ang^3
#
#
#
# Elastic Constant Matrix: (Units=GPa)
#
#
# Indices 1 2 3 4 5 6 
#
# 1 149.3317 26.9533 14.8860 0.0000 0.0000 0.0000
# 2 26.9533 50.5931 -14.6942 0.0000 0.0000 0.0000
# 3 14.8860 -14.6942 60.3297 0.0000 0.0000 0.0000
# 4 0.0000 0.0000 0.0000 39.4168 0.0000 0.0000
# 5 0.0000 0.0000 0.0000 0.0000 40.3730 0.0000
# 6 0.0000 0.0000 0.0000 0.0000 0.0000 31.4922
#
#
#
# Elastic Compliance Matrix: (Units=1/GPa)
#
#
# Indices 1 2 3 4 5 6 
#
# 1 0.007951 -0.005172 -0.003221 0.000000 0.000000 0.000000
# 2 -0.005172 0.024634 0.007276 0.000000 0.000000 0.000000
# 3 -0.003221 0.007276 0.019143 0.000000 0.000000 0.000000
# 4 0.000000 0.000000 0.000000 0.025370 0.000000 0.000000
# 5 0.000000 0.000000 0.000000 0.000000 0.024769 0.000000
# 6 0.000000 0.000000 0.000000 0.000000 0.000000 0.031754
#
#
# Mechanical properties :
#
#
# Convention : Reuss Voigt Hill
#
# Bulk Modulus (GPa) = 20.20464 34.94941 27.57703
# Shear Modulus (GPa) = 32.81865 37.79701 35.30783
#
# Velocity S-wave (km/s) = 3.71267 3.98433 3.85090
# Velocity P-wave (km/s) = 5.18311 5.98710 5.59955
#
# Compressibility (1/GPa) = 0.04949357
#
# Stress axis : x y z
#
# Youngs Moduli (GPa) = 125.76934 40.59444 52.23936
#
# Poissons Ratio (x) = 0.20994 0.16829
# Poissons Ratio (y) = 0.65042 -0.38009
# Poissons Ratio (z) = 0.40516 -0.29537
#
# Static dielectric constant tensor:
#      x y z
#    x 1.931660 0.000000 0.000000 
#    y 0.000000 1.833090 0.000000 
#    z 0.000000 0.000000 2.009060 
# 
# From -- ./inp_files/8344.got.cif
#   From: 2010.05.17/outbox.cif.g08.bks.cpg/sg60_5_cif.got.tgz:8344.got - 2010.06.03 14:59:27.
