data_PCOD9457871
_publ_section_title
;
Structure prediction by ZEFSAII (Michael W. Deem and Ramdas Pophale) SiO2 
 PCOD9457871
Probable space group: P B C N
;
_chemical_formula_sum "Si O2"
_cell_formula_units_Z 40
_cell_length_a 18.096566
_cell_length_b 8.935915
_cell_length_c 10.230163
_cell_angle_alpha 90.000000
_cell_angle_beta 90.000000
_cell_angle_gamma 90.000000
_cell_volume 1654.313271
_symmetry_space_group_name_H-M "P B C N"
_symmetry_group_IT_number 60
_symmetry_cell_setting 'orthorhombic'
loop_
_space_group_symop_operation_xyz
x,y,z
1/2-x,1/2-y,1/2+z
1/2+x,1/2-y,-z
-x,y,1/2-z
-x,-y,-z
1/2+x,1/2+y,1/2-z
1/2-x,1/2+y,z
x,-y,1/2+z
loop_
_atom_site_type_symbol
_atom_site_label
_atom_site_fract_x
_atom_site_fract_y
_atom_site_fract_z
Si Si1 0.217244 0.122637 0.118277
Si Si2 0.387662 0.826628 0.674954
Si Si3 0.540113 0.686109 0.065972
Si Si4 0.359988 0.567447 0.851394
Si Si5 0.098947 0.664826 0.688549
O O1 0.303962 0.146042 0.127904
O O2 0.179046 0.284721 0.141273
O O3 0.181118 0.016691 0.230750
O O4 0.192643 0.064555 0.976982
O O5 0.435395 0.724127 0.578914
O O6 0.379612 0.735330 0.808863
O O7 0.420461 0.992268 0.676071
O O8 0.565931 0.522080 0.109157
O O9 0.458127 0.731442 0.107923
O O10 0.589870 0.792111 0.160183
#
# Coordination Sequence:
#
# PCOD9457871 Si02
#       5
#     8   8   8   8   8
#     4  11  26  44  72 107 148 190 243 304 363 439
#     4  12  25  43  76 105 144 193 249 296 374 429
#     4  10  24  50  67 105 148 189 246 298 362 441
#     4  11  25  47  71 107 146 198 238 302 366 438
#     4  10  25  46  71 103 150 187 240 311 360 433
#
# _framework density 24.179216
#
# number of rings (size 3 to 8) (size 9 to 14) (size 15 to 20)
#    0.000    1.200    2.000    1.800   11.200    0.800 
#    7.200    0.000    0.000    0.000    0.000    0.000 
#    0.000    0.000    0.000    0.000    0.000    0.000 
#
# Total GULP energy -224163.718407 kJ/mol
# GULP energy per Si atom -5604.092960 kJ/mol
# Density = 2.412418 g / cm^3
# Si number density = 24.179216 Si / 1000 Ang^3
#
#
#
# Elastic Constant Matrix: (Units=GPa)
#
#
# Indices 1 2 3 4 5 6 
#
# 1 105.6528 33.5801 12.9248 0.0000 0.0000 0.0000
# 2 33.5801 126.5711 24.1705 0.0000 0.0000 0.0000
# 3 12.9248 24.1705 118.9423 0.0000 0.0000 0.0000
# 4 0.0000 0.0000 0.0000 21.5006 0.0000 0.0000
# 5 0.0000 0.0000 0.0000 0.0000 26.3677 0.0000
# 6 0.0000 0.0000 0.0000 0.0000 0.0000 31.4413
#
#
#
# Elastic Compliance Matrix: (Units=1/GPa)
#
#
# Indices 1 2 3 4 5 6 
#
# 1 0.010376 -0.002640 -0.000591 0.000000 0.000000 0.000000
# 2 -0.002640 0.008891 -0.001520 0.000000 0.000000 0.000000
# 3 -0.000591 -0.001520 0.008781 0.000000 0.000000 0.000000
# 4 0.000000 0.000000 0.000000 0.046510 0.000000 0.000000
# 5 0.000000 0.000000 0.000000 0.000000 0.037925 0.000000
# 6 0.000000 0.000000 0.000000 0.000000 0.000000 0.031805
#
#
# Mechanical properties :
#
#
# Convention : Reuss Voigt Hill
#
# Bulk Modulus (GPa) = 53.91949 54.72413 54.32181
# Shear Modulus (GPa) = 31.25524 34.56131 32.90828
#
# Velocity S-wave (km/s) = 3.59924 3.78482 3.69320
# Velocity P-wave (km/s) = 6.29453 6.46387 6.37976
#
# Compressibility (1/GPa) = 0.01854617
#
# Stress axis : x y z
#
# Youngs Moduli (GPa) = 96.37279 112.46858 113.88822
#
# Poissons Ratio (x) = 0.29692 0.06731
# Poissons Ratio (y) = 0.25443 0.17310
# Poissons Ratio (z) = 0.05696 0.17095
#
# Static dielectric constant tensor:
#      x y z
#    x 1.900140 0.000000 0.000000 
#    y 0.000000 1.937900 0.000000 
#    z 0.000000 0.000000 1.898220 
# 
# From -- ./inp_files/12302.got.cif
#   From: 2010.05.17/outbox.cif.g08.bks.cpg/sg60_7_cif.got.tgz:12302.got - 2010.06.03 14:59:27.
