data_PCOD9457564
_publ_section_title
;
Structure prediction by ZEFSAII (Michael W. Deem and Ramdas Pophale) SiO2 
 PCOD9457564
Probable space group: P B C N
;
_chemical_formula_sum "Si O2"
_cell_formula_units_Z 40
_cell_length_a 8.662818
_cell_length_b 11.895230
_cell_length_c 17.433392
_cell_angle_alpha 90.000000
_cell_angle_beta 90.000000
_cell_angle_gamma 90.000000
_cell_volume 1796.445018
_symmetry_space_group_name_H-M "P B C N"
_symmetry_group_IT_number 60
_symmetry_cell_setting 'orthorhombic'
loop_
_space_group_symop_operation_xyz
x,y,z
1/2-x,1/2-y,1/2+z
1/2+x,1/2-y,-z
-x,y,1/2-z
-x,-y,-z
1/2+x,1/2+y,1/2-z
1/2-x,1/2+y,z
x,-y,1/2+z
loop_
_atom_site_type_symbol
_atom_site_label
_atom_site_fract_x
_atom_site_fract_y
_atom_site_fract_z
Si Si1 0.063926 0.385001 0.465050
Si Si2 0.043451 0.231248 0.659411
Si Si3 0.454027 0.484974 0.838818
Si Si4 0.593756 0.035478 0.170041
Si Si5 0.334346 0.693824 0.072960
O O1 0.076498 0.419917 0.376014
O O2 0.221074 0.355695 0.508369
O O3 0.000000 0.500000 0.500000
O O4 0.948161 0.281634 0.466267
O O5 0.222690 0.243774 0.635286
O O6 0.000000 0.230560 0.750000
O O7 0.974047 0.350500 0.632714
O O8 0.978361 0.112370 0.630134
O O9 0.500000 0.486572 0.750000
O O10 0.277063 0.446991 0.833600
O O11 0.564228 0.401734 0.885850
O O12 0.500000 0.024575 0.250000
#
# Coordination Sequence:
#
# PCOD9457564 Si02
#       5
#     8   8   8   8   8
#     4  12  29  49  75 103 154 196 250 316 374 452
#     4  10  23  45  73 105 150 189 251 314 369 456
#     4  11  26  46  79 109 150 198 249 311 376 449
#     4  11  26  47  75 110 150 193 252 310 377 450
#     4  12  28  48  73 109 152 201 255 306 387 447
#
# _framework density 22.266196000000001
#
# number of rings (size 3 to 8) (size 9 to 14) (size 15 to 20)
#    0.000    0.800    2.000    3.600   14.000    1.600 
#    0.000    0.000    0.000    0.000    0.000    0.000 
#    0.000    0.000    0.000    0.000    0.000    0.000 
#
# Total GULP energy -223441.270623 kJ/mol
# GULP energy per Si atom -5586.031766 kJ/mol
# Density = 2.221552 g / cm^3
# Si number density = 22.266196 Si / 1000 Ang^3
#
#
#
# Elastic Constant Matrix: (Units=GPa)
#
#
# Indices 1 2 3 4 5 6 
#
# 1 179.3878 82.6237 69.9936 0.0000 0.0000 0.0000
# 2 82.6237 149.9487 72.6854 0.0000 0.0000 0.0000
# 3 69.9936 72.6854 115.1389 0.0000 0.0000 0.0000
# 4 0.0000 0.0000 0.0000 48.0686 0.0000 0.0000
# 5 0.0000 0.0000 0.0000 0.0000 51.2833 0.0000
# 6 0.0000 0.0000 0.0000 0.0000 0.0000 75.3391
#
#
#
# Elastic Compliance Matrix: (Units=1/GPa)
#
#
# Indices 1 2 3 4 5 6 
#
# 1 0.008154 -0.003012 -0.003056 0.000000 0.000000 0.000000
# 2 -0.003012 0.010722 -0.004938 0.000000 0.000000 0.000000
# 3 -0.003056 -0.004938 0.013660 0.000000 0.000000 0.000000
# 4 0.000000 0.000000 0.000000 0.020804 0.000000 0.000000
# 5 0.000000 0.000000 0.000000 0.000000 0.019500 0.000000
# 6 0.000000 0.000000 0.000000 0.000000 0.000000 0.013273
#
#
# Mechanical properties :
#
#
# Convention : Reuss Voigt Hill
#
# Bulk Modulus (GPa) = 95.00690 99.45344 97.23017
# Shear Modulus (GPa) = 44.79055 49.54971 47.17013
#
# Velocity S-wave (km/s) = 4.48995 4.72246 4.60767
# Velocity P-wave (km/s) = 8.34511 8.63123 8.48937
#
# Compressibility (1/GPa) = 0.01052555
#
# Stress axis : x y z
#
# Youngs Moduli (GPa) = 122.64053 93.26633 73.20779
#
# Poissons Ratio (x) = 0.28090 0.22369
# Poissons Ratio (y) = 0.36937 0.36148
# Poissons Ratio (z) = 0.37473 0.46052
#
# Static dielectric constant tensor:
#      x y z
#    x 1.387800 0.000000 0.000000 
#    y 0.000000 1.786040 0.000000 
#    z 0.000000 0.000000 1.906300 
# 
# From -- ./inp_files/18989.got.cif
#   From: 2010.05.17/outbox.cif.g08.bks.cpg/sg60_10_cif.got.tgz:18989.got - 2010.06.03 14:59:27.
