data_PCOD9457868
_publ_section_title
;
Structure prediction by ZEFSAII (Michael W. Deem and Ramdas Pophale) SiO2 
 PCOD9457868
Probable space group: P B C N
;
_chemical_formula_sum "Si O2"
_cell_formula_units_Z 48
_cell_length_a 26.404013
_cell_length_b 9.449505
_cell_length_c 7.379236
_cell_angle_alpha 90.000000
_cell_angle_beta 90.000000
_cell_angle_gamma 90.000000
_cell_volume 1841.155192
_symmetry_space_group_name_H-M "P B C N"
_symmetry_group_IT_number 60
_symmetry_cell_setting 'orthorhombic'
loop_
_space_group_symop_operation_xyz
x,y,z
1/2-x,1/2-y,1/2+z
1/2+x,1/2-y,-z
-x,y,1/2-z
-x,-y,-z
1/2+x,1/2+y,1/2-z
1/2-x,1/2+y,z
x,-y,1/2+z
loop_
_atom_site_type_symbol
_atom_site_label
_atom_site_fract_x
_atom_site_fract_y
_atom_site_fract_z
Si Si1 0.249150 0.790506 0.779443
Si Si2 0.288849 0.966537 0.098793
Si Si3 0.861080 0.834570 0.553509
Si Si4 0.601448 0.128600 0.839353
Si Si5 0.000000 0.500000 0.000000
Si Si6 0.892894 0.853687 0.164037
Si Si7 0.000000 0.235342 0.750000
O O1 0.246856 0.626824 0.730124
O O2 0.192096 0.823546 0.842572
O O3 0.263872 0.879946 0.599279
O O4 0.285199 0.869668 0.920765
O O5 0.347647 0.966179 0.155134
O O6 0.896125 0.717414 0.652792
O O7 0.859072 0.813107 0.337987
O O8 0.879418 0.993716 0.586871
O O9 0.550186 0.039306 0.861342
O O10 0.607916 0.239587 0.003391
O O11 0.999503 0.660609 0.077343
O O12 0.949596 0.855946 0.243117
#
# Coordination Sequence:
#
# PCOD9457868 Si02
#       7
#     8   8   8   8   4   8   4
#     4  11  25  43  68 106 144 194 240 303 371 448
#     4  11  25  44  72 104 148 191 250 302 376 450
#     4  11  23  43  76 101 147 188 241 307 378 441
#     4  10  25  47  70 107 144 197 247 308 375 450
#     4  10  24  50  66 100 144 188 246 304 368 440
#     4  11  23  44  72 103 138 186 243 305 369 443
#     4  10  26  44  68 102 138 184 240 304 364 444
#
# _framework density 26.070588000000001
#
# number of rings (size 3 to 8) (size 9 to 14) (size 15 to 20)
#    0.000    1.333    1.667    2.000    9.333    3.333 
#    3.000    0.000    0.000    0.000    0.000    0.000 
#    0.000    0.000    0.000    0.000    0.000    0.000 
#
# Total GULP energy -268125.287337 kJ/mol
# GULP energy per Si atom -5585.943486 kJ/mol
# Density = 2.601125 g / cm^3
# Si number density = 26.070588 Si / 1000 Ang^3
#
#
#
# Elastic Constant Matrix: (Units=GPa)
#
#
# Indices 1 2 3 4 5 6 
#
# 1 134.9983 45.6231 -5.2157 0.0000 0.0000 0.0000
# 2 45.6231 127.1139 6.1170 0.0000 0.0000 0.0000
# 3 -5.2157 6.1170 112.6877 0.0000 0.0000 0.0000
# 4 0.0000 0.0000 0.0000 33.7004 0.0000 0.0000
# 5 0.0000 0.0000 0.0000 0.0000 38.7893 0.0000
# 6 0.0000 0.0000 0.0000 0.0000 0.0000 41.6144
#
#
#
# Elastic Compliance Matrix: (Units=1/GPa)
#
#
# Indices 1 2 3 4 5 6 
#
# 1 0.008465 -0.003065 0.000558 0.000000 0.000000 0.000000
# 2 -0.003065 0.008997 -0.000630 0.000000 0.000000 0.000000
# 3 0.000558 -0.000630 0.008934 0.000000 0.000000 0.000000
# 4 0.000000 0.000000 0.000000 0.029673 0.000000 0.000000
# 5 0.000000 0.000000 0.000000 0.000000 0.025780 0.000000
# 6 0.000000 0.000000 0.000000 0.000000 0.000000 0.024030
#
#
# Mechanical properties :
#
#
# Convention : Reuss Voigt Hill
#
# Bulk Modulus (GPa) = 49.69648 51.98318 50.83983
# Shear Modulus (GPa) = 42.06568 44.70586 43.38577
#
# Velocity S-wave (km/s) = 4.02123 4.14551 4.08384
# Velocity P-wave (km/s) = 6.37684 6.54953 6.46376
#
# Compressibility (1/GPa) = 0.02012215
#
# Stress axis : x y z
#
# Youngs Moduli (GPa) = 118.13480 111.14346 111.93027
#
# Poissons Ratio (x) = 0.34066 -0.06248
# Poissons Ratio (y) = 0.36209 0.07055
# Poissons Ratio (z) = -0.06594 0.07005
#
# Static dielectric constant tensor:
#      x y z
#    x 2.044060 0.000000 0.000000 
#    y 0.000000 1.905880 0.000000 
#    z 0.000000 0.000000 2.292760 
# 
# From -- ./inp_files/8424.got.cif
#   From: 2010.05.17/outbox.cif.g08.bks.cpg/sg60_5_cif.got.tgz:8424.got - 2010.06.03 14:59:27.
