data_PCOD9457995
_publ_section_title
;
Structure prediction by ZEFSAII (Michael W. Deem and Ramdas Pophale) SiO2 
 PCOD9457995
Probable space group: P B C N
;
_chemical_formula_sum "Si O2"
_cell_formula_units_Z 28
_cell_length_a 17.081689
_cell_length_b 5.629746
_cell_length_c 9.967954
_cell_angle_alpha 90.000000
_cell_angle_beta 90.000000
_cell_angle_gamma 90.000000
_cell_volume 958.573981
_symmetry_space_group_name_H-M "P B C N"
_symmetry_group_IT_number 60
_symmetry_cell_setting 'orthorhombic'
loop_
_space_group_symop_operation_xyz
x,y,z
1/2-x,1/2-y,1/2+z
1/2+x,1/2-y,-z
-x,y,1/2-z
-x,-y,-z
1/2+x,1/2+y,1/2-z
1/2-x,1/2+y,z
x,-y,1/2+z
loop_
_atom_site_type_symbol
_atom_site_label
_atom_site_fract_x
_atom_site_fract_y
_atom_site_fract_z
Si Si1 0.229981 0.965550 0.507461
Si Si2 0.628658 0.937204 0.187755
Si Si3 0.918599 0.245085 0.931592
Si Si4 0.000000 0.938065 0.750000
O O1 0.268822 0.203529 0.572002
O O2 0.282500 0.929971 0.371969
O O3 0.142055 0.056347 0.503161
O O4 0.618631 0.144533 0.295551
O O5 0.580380 0.945644 0.045829
O O6 0.578265 0.720418 0.250980
O O7 0.007114 0.890429 0.123406
#
# Coordination Sequence:
#
# PCOD9457995 Si02
#       4
#     8   8   8   4
#     4  10  26  50  82 122 164 222 289 361 432 510
#     4  11  28  53  86 127 180 233 304 371 454 540
#     4  11  28  52  88 127 181 237 301 377 454 542
#     4  12  28  50  86 132 184 238 296 366 468 550
#
# _framework density 29.210058
#
# number of rings (size 3 to 8) (size 9 to 14) (size 15 to 20)
#    0.000    1.143    0.000    1.714   16.000   13.714 
#    0.000    0.000    0.000    0.000    0.000    0.000 
#    0.000    0.000    0.000    0.000    0.000    0.000 
#
# Total GULP energy -156259.782976 kJ/mol
# GULP energy per Si atom -5580.706535 kJ/mol
# Density = 2.914358 g / cm^3
# Si number density = 29.210058 Si / 1000 Ang^3
#
#
#
# Elastic Constant Matrix: (Units=GPa)
#
#
# Indices 1 2 3 4 5 6 
#
# 1 110.6501 84.9439 57.1283 0.0000 0.0000 0.0000
# 2 84.9439 192.3584 44.6835 0.0000 0.0000 0.0000
# 3 57.1283 44.6835 192.6263 0.0000 0.0000 0.0000
# 4 0.0000 0.0000 0.0000 42.7935 0.0000 0.0000
# 5 0.0000 0.0000 0.0000 0.0000 59.7160 0.0000
# 6 0.0000 0.0000 0.0000 0.0000 0.0000 71.4028
#
#
#
# Elastic Compliance Matrix: (Units=1/GPa)
#
#
# Indices 1 2 3 4 5 6 
#
# 1 0.015275 -0.006017 -0.003134 0.000000 0.000000 0.000000
# 2 -0.006017 0.007865 -0.000040 0.000000 0.000000 0.000000
# 3 -0.003134 -0.000040 0.006130 0.000000 0.000000 0.000000
# 4 0.000000 0.000000 0.000000 0.023368 0.000000 0.000000
# 5 0.000000 0.000000 0.000000 0.000000 0.016746 0.000000
# 6 0.000000 0.000000 0.000000 0.000000 0.000000 0.014005
#
#
# Mechanical properties :
#
#
# Convention : Reuss Voigt Hill
#
# Bulk Modulus (GPa) = 91.84999 96.57179 94.21089
# Shear Modulus (GPa) = 47.43759 55.37440 51.40600
#
# Velocity S-wave (km/s) = 4.03428 4.35872 4.19964
# Velocity P-wave (km/s) = 7.29476 7.64619 7.47254
#
# Compressibility (1/GPa) = 0.01088732
#
# Stress axis : x y z
#
# Youngs Moduli (GPa) = 65.46595 127.14450 163.12578
#
# Poissons Ratio (x) = 0.76506 0.51130
# Poissons Ratio (y) = 0.39393 0.00651
# Poissons Ratio (z) = 0.20520 0.00507
#
# Static dielectric constant tensor:
#      x y z
#    x 2.302290 0.000000 0.000000 
#    y 0.000000 2.327170 0.000000 
#    z 0.000000 0.000000 2.305600 
# 
# From -- ./inp_files/12669.got.cif
#   From: 2010.05.17/outbox.cif.g08.bks.cpg/sg60_7_cif.got.tgz:12669.got - 2010.06.03 14:59:27.
