data_PCOD9457104
_publ_section_title
;
Structure prediction by ZEFSAII (Michael W. Deem and Ramdas Pophale) SiO2 
 PCOD9457104
Probable space group: P B C N
;
_chemical_formula_sum "Si O2"
_cell_formula_units_Z 64
_cell_length_a 10.682559
_cell_length_b 17.531148
_cell_length_c 15.561649
_cell_angle_alpha 90.000000
_cell_angle_beta 90.000000
_cell_angle_gamma 90.000000
_cell_volume 2914.347076
_symmetry_space_group_name_H-M "P B C N"
_symmetry_group_IT_number 60
_symmetry_cell_setting 'orthorhombic'
loop_
_space_group_symop_operation_xyz
x,y,z
1/2-x,1/2-y,1/2+z
1/2+x,1/2-y,-z
-x,y,1/2-z
-x,-y,-z
1/2+x,1/2+y,1/2-z
1/2-x,1/2+y,z
x,-y,1/2+z
loop_
_atom_site_type_symbol
_atom_site_label
_atom_site_fract_x
_atom_site_fract_y
_atom_site_fract_z
Si Si1 0.743814 0.255792 0.114933
Si Si2 0.126755 0.408452 0.086432
Si Si3 0.020570 0.190212 0.571593
Si Si4 0.114989 0.438655 0.685534
Si Si5 0.801819 0.838471 0.280324
Si Si6 0.656720 0.405891 0.547214
Si Si7 0.609014 0.156415 0.488496
Si Si8 0.641569 0.505079 0.215853
O O1 0.608582 0.266334 0.073185
O O2 0.725587 0.270077 0.216022
O O3 0.797010 0.171777 0.095626
O O4 0.812813 0.330836 0.076035
O O5 0.081195 0.478973 0.143990
O O6 0.188137 0.348342 0.152222
O O7 0.241501 0.430673 0.023676
O O8 0.019871 0.376816 0.025178
O O9 0.071874 0.168775 0.664255
O O10 0.034595 0.120223 0.506446
O O11 0.113827 0.255640 0.540231
O O12 0.135821 0.387654 0.600090
O O13 0.246808 0.448539 0.735700
O O14 0.000000 0.415388 0.750000
O O15 0.819018 0.917639 0.229871
O O16 0.639751 0.469993 0.617299
O O17 0.500000 0.517717 0.250000
#
# Coordination Sequence:
#
# PCOD9457104 Si02
#       8
#     8   8   8   8   8   8   8   8
#     4  11  23  40  66  99 126 178 227 273 342 406
#     4  10  22  45  64  96 134 170 219 282 334 407
#     4  10  22  43  65  94 134 174 219 279 339 401
#     4  11  26  41  69 103 134 179 225 278 337 405
#     4  10  24  43  69  94 136 176 223 279 341 409
#     4  10  23  43  66  95 135 175 219 286 329 405
#     4  11  24  39  69  94 132 175 222 276 340 404
#     4  11  25  45  66 101 138 177 228 277 344 400
#
# _framework density 21.960319999999999
#
# number of rings (size 3 to 8) (size 9 to 14) (size 15 to 20)
#    0.000    1.500    1.250    2.250    8.750    0.000 
#    4.500    2.500    0.000    0.000    0.000    0.000 
#    0.000    0.000    0.000    0.000    0.000    0.000 
#
# Total GULP energy -357022.984014 kJ/mol
# GULP energy per Si atom -5578.484125 kJ/mol
# Density = 2.191034 g / cm^3
# Si number density = 21.960320 Si / 1000 Ang^3
#
#
#
# Elastic Constant Matrix: (Units=GPa)
#
#
# Indices 1 2 3 4 5 6 
#
# 1 24.5226 1.7752 11.9508 0.0000 0.0000 0.0000
# 2 1.7752 20.8696 3.5730 0.0000 0.0000 0.0000
# 3 11.9508 3.5730 84.8351 0.0000 0.0000 0.0000
# 4 0.0000 0.0000 0.0000 38.3043 0.0000 0.0000
# 5 0.0000 0.0000 0.0000 0.0000 36.5431 0.0000
# 6 0.0000 0.0000 0.0000 0.0000 0.0000 5.1220
#
#
#
# Elastic Compliance Matrix: (Units=1/GPa)
#
#
# Indices 1 2 3 4 5 6 
#
# 1 0.043935 -0.002697 -0.006076 0.000000 0.000000 0.000000
# 2 -0.002697 0.048430 -0.001660 0.000000 0.000000 0.000000
# 3 -0.006076 -0.001660 0.012713 0.000000 0.000000 0.000000
# 4 0.000000 0.000000 0.000000 0.026107 0.000000 0.000000
# 5 0.000000 0.000000 0.000000 0.000000 0.027365 0.000000
# 6 0.000000 0.000000 0.000000 0.000000 0.000000 0.195237
#
#
# Mechanical properties :
#
#
# Convention : Reuss Voigt Hill
#
# Bulk Modulus (GPa) = 11.87457 18.31392 15.09424
# Shear Modulus (GPa) = 12.41549 23.52243 17.96896
#
# Velocity S-wave (km/s) = 2.38031 3.27637 2.86360
# Velocity P-wave (km/s) = 3.60188 4.76135 4.22161
#
# Compressibility (1/GPa) = 0.08421357
#
# Stress axis : x y z
#
# Youngs Moduli (GPa) = 22.76097 20.64829 78.65750
#
# Poissons Ratio (x) = 0.05569 0.47789
# Poissons Ratio (y) = 0.06139 0.13056
# Poissons Ratio (z) = 0.13828 0.03427
#
# Static dielectric constant tensor:
#      x y z
#    x 1.943410 0.000000 0.000000 
#    y 0.000000 1.320380 0.000000 
#    z 0.000000 0.000000 1.980460 
# 
# From -- ./inp_files/16369.got.cif
#   From: 2010.05.17/outbox.cif.g08.bks.cpg/sg60_9_cif.got.tgz:16369.got - 2010.06.03 14:59:27.
