data_PCOD9457884
_publ_section_title
;
Structure prediction by ZEFSAII (Michael W. Deem and Ramdas Pophale) SiO2 
 PCOD9457884
Probable space group: P B C N
;
_chemical_formula_sum "Si O2"
_cell_formula_units_Z 40
_cell_length_a 12.657666
_cell_length_b 24.797498
_cell_length_c 6.188506
_cell_angle_alpha 90.000000
_cell_angle_beta 90.000000
_cell_angle_gamma 90.000000
_cell_volume 1942.438655
_symmetry_space_group_name_H-M "P B C N"
_symmetry_group_IT_number 60
_symmetry_cell_setting 'orthorhombic'
loop_
_space_group_symop_operation_xyz
x,y,z
1/2-x,1/2-y,1/2+z
1/2+x,1/2-y,-z
-x,y,1/2-z
-x,-y,-z
1/2+x,1/2+y,1/2-z
1/2-x,1/2+y,z
x,-y,1/2+z
loop_
_atom_site_type_symbol
_atom_site_label
_atom_site_fract_x
_atom_site_fract_y
_atom_site_fract_z
Si Si1 0.175975 0.110630 0.143471
Si Si2 0.500000 0.301305 0.750000
Si Si3 0.770699 0.660661 0.738847
Si Si4 0.389816 0.146089 0.360727
Si Si5 0.500000 0.474451 0.750000
Si Si6 0.630951 0.246846 0.413425
O O1 0.288390 0.115899 0.260867
O O2 0.106053 0.061679 0.230353
O O3 0.100161 0.161944 0.188651
O O4 0.206895 0.114560 0.889381
O O5 0.529204 0.265287 0.545687
O O6 0.810717 0.704482 0.567859
O O7 0.691944 0.697474 0.877450
O O8 0.868693 0.641465 0.884186
O O9 0.500000 0.128378 0.250000
O O10 0.380659 0.209268 0.295165
O O11 0.500000 0.500000 0.500000
#
# Coordination Sequence:
#
# PCOD9457884 Si02
#       6
#     8   4   8   8   4   8
#     4  10  25  41  63 100 127 169 216 287 351 410
#     4  11  20  36  54  84 130 174 230 272 328 385
#     4  11  20  36  55  83 134 178 238 281 318 387
#     4  11  23  36  57  85 135 187 234 272 321 392
#     4  11  28  52  86 112 130 160 210 290 380 455
#     4  11  20  31  50  84 124 189 238 275 306 368
#
# _framework density 20.592669999999998
#
# number of rings (size 3 to 8) (size 9 to 14) (size 15 to 20)
#    0.000    1.200    4.000    2.400    5.600    2.400 
#    0.000    0.000    0.000    1.200    0.000    0.000 
#    0.000    0.000    0.000    0.000    0.000    0.000 
#
# Total GULP energy -222829.796119 kJ/mol
# GULP energy per Si atom -5570.744903 kJ/mol
# Density = 2.054580 g / cm^3
# Si number density = 20.592670 Si / 1000 Ang^3
#
#
#
# Elastic Constant Matrix: (Units=GPa)
#
#
# Indices 1 2 3 4 5 6 
#
# 1 156.2892 41.8578 57.6683 0.0000 0.0000 0.0000
# 2 41.8578 52.9897 38.3687 0.0000 0.0000 0.0000
# 3 57.6683 38.3687 126.2473 0.0000 0.0000 0.0000
# 4 0.0000 0.0000 0.0000 18.9823 0.0000 0.0000
# 5 0.0000 0.0000 0.0000 0.0000 49.6474 0.0000
# 6 0.0000 0.0000 0.0000 0.0000 0.0000 20.5070
#
#
#
# Elastic Compliance Matrix: (Units=1/GPa)
#
#
# Indices 1 2 3 4 5 6 
#
# 1 0.008649 -0.005092 -0.002403 0.000000 0.000000 0.000000
# 2 -0.005092 0.027194 -0.005939 0.000000 0.000000 0.000000
# 3 -0.002403 -0.005939 0.010824 0.000000 0.000000 0.000000
# 4 0.000000 0.000000 0.000000 0.052681 0.000000 0.000000
# 5 0.000000 0.000000 0.000000 0.000000 0.020142 0.000000
# 6 0.000000 0.000000 0.000000 0.000000 0.000000 0.048764
#
#
# Mechanical properties :
#
#
# Convention : Reuss Voigt Hill
#
# Bulk Modulus (GPa) = 50.50831 67.92397 59.21614
# Shear Modulus (GPa) = 24.78680 31.00276 27.89478
#
# Velocity S-wave (km/s) = 3.47316 3.88432 3.68448
# Velocity P-wave (km/s) = 6.37686 7.29201 6.84973
#
# Compressibility (1/GPa) = 0.01979872
#
# Stress axis : x y z
#
# Youngs Moduli (GPa) = 115.62242 36.77293 92.39042
#
# Poissons Ratio (x) = 0.18724 0.22203
# Poissons Ratio (y) = 0.58873 0.54869
# Poissons Ratio (z) = 0.27786 0.21839
#
# Static dielectric constant tensor:
#      x y z
#    x 1.804110 0.000000 0.000000 
#    y 0.000000 1.704770 0.000000 
#    z 0.000000 0.000000 1.759140 
# 
# From -- ./inp_files/1216.got.cif
#   From: 2010.05.17/outbox.cif.g08.bks.cpg/sg60_1_cif.got.tgz:1216.got - 2010.06.03 14:59:27.
