data_PCOD9457546
_publ_section_title
;
Structure prediction by ZEFSAII (Michael W. Deem and Ramdas Pophale) SiO2 
 PCOD9457546
Probable space group: P B C N
;
_chemical_formula_sum "Si O2"
_cell_formula_units_Z 48
_cell_length_a 16.949212
_cell_length_b 11.736818
_cell_length_c 13.033356
_cell_angle_alpha 90.000000
_cell_angle_beta 90.000000
_cell_angle_gamma 90.000000
_cell_volume 2592.723117
_symmetry_space_group_name_H-M "P B C N"
_symmetry_group_IT_number 60
_symmetry_cell_setting 'orthorhombic'
loop_
_space_group_symop_operation_xyz
x,y,z
1/2-x,1/2-y,1/2+z
1/2+x,1/2-y,-z
-x,y,1/2-z
-x,-y,-z
1/2+x,1/2+y,1/2-z
1/2-x,1/2+y,z
x,-y,1/2+z
loop_
_atom_site_type_symbol
_atom_site_label
_atom_site_fract_x
_atom_site_fract_y
_atom_site_fract_z
Si Si1 0.650703 0.902636 0.524068
Si Si2 0.917544 0.049861 0.540653
Si Si3 0.684327 0.695032 0.381139
Si Si4 0.314145 0.350277 0.859956
Si Si5 0.647187 0.832171 0.976654
Si Si6 0.514823 0.224025 0.131418
O O1 0.656205 0.817332 0.426073
O O2 0.726225 0.878947 0.597757
O O3 0.572551 0.870041 0.585281
O O4 0.645913 0.033014 0.491933
O O5 0.863377 0.101730 0.449146
O O6 0.941166 0.156260 0.611907
O O7 0.869340 0.952990 0.600221
O O8 0.000000 0.000000 0.500000
O O9 0.676533 0.669241 0.261108
O O10 0.776830 0.691979 0.406951
O O11 0.338734 0.234464 0.917477
O O12 0.568004 0.783084 0.927223
O O13 0.500000 0.206199 0.250000
#
# Coordination Sequence:
#
# PCOD9457546 Si02
#       6
#     8   8   8   8   8   8
#     4  10  23  45  62  96 133 164 220 269 314 397
#     4  11  23  43  62  96 133 162 218 271 311 386
#     4  10  24  41  66  97 131 174 216 266 329 383
#     4  11  23  41  69  94 128 176 218 264 328 379
#     4  11  22  44  64  93 134 170 216 270 316 390
#     4  11  24  40  66  95 127 170 210 265 331 380
#
# _framework density 18.513354
#
# number of rings (size 3 to 8) (size 9 to 14) (size 15 to 20)
#    0.000    1.333    3.333    1.500    2.333    2.667 
#    0.000    0.000    0.000    0.000    0.000    0.000 
#    0.000    0.000    0.000    0.000    0.000    0.000 
#
# Total GULP energy -268127.075577 kJ/mol
# GULP energy per Si atom -5585.980741 kJ/mol
# Density = 1.847122 g / cm^3
# Si number density = 18.513354 Si / 1000 Ang^3
#
#
#
# Elastic Constant Matrix: (Units=GPa)
#
#
# Indices 1 2 3 4 5 6 
#
# 1 116.3444 12.9428 53.7986 0.0000 0.0000 0.0000
# 2 12.9428 108.9446 60.2909 0.0000 0.0000 0.0000
# 3 53.7986 60.2909 158.4308 0.0000 0.0000 0.0000
# 4 0.0000 0.0000 0.0000 9.1583 0.0000 0.0000
# 5 0.0000 0.0000 0.0000 0.0000 9.3989 0.0000
# 6 0.0000 0.0000 0.0000 0.0000 0.0000 40.7441
#
#
#
# Elastic Compliance Matrix: (Units=1/GPa)
#
#
# Indices 1 2 3 4 5 6 
#
# 1 0.010265 0.000899 -0.003828 0.000000 0.000000 0.000000
# 2 0.000899 0.011706 -0.004760 0.000000 0.000000 0.000000
# 3 -0.003828 -0.004760 0.009423 0.000000 0.000000 0.000000
# 4 0.000000 0.000000 0.000000 0.109190 0.000000 0.000000
# 5 0.000000 0.000000 0.000000 0.000000 0.106396 0.000000
# 6 0.000000 0.000000 0.000000 0.000000 0.000000 0.024543
#
#
# Mechanical properties :
#
#
# Convention : Reuss Voigt Hill
#
# Bulk Modulus (GPa) = 62.43506 70.86493 66.65000
# Shear Modulus (GPa) = 17.10916 28.97276 23.04096
#
# Velocity S-wave (km/s) = 3.04329 3.96026 3.53166
# Velocity P-wave (km/s) = 6.79311 7.69885 7.26012
#
# Compressibility (1/GPa) = 0.01601664
#
# Stress axis : x y z
#
# Youngs Moduli (GPa) = 97.41662 85.42265 106.12119
#
# Poissons Ratio (x) = -0.07678 0.40621
# Poissons Ratio (y) = -0.08756 0.50515
# Poissons Ratio (z) = 0.37289 0.40662
#
# Static dielectric constant tensor:
#      x y z
#    x 1.453810 0.000000 0.000000 
#    y 0.000000 1.644770 0.000000 
#    z 0.000000 0.000000 1.695300 
# 
# From -- ./inp_files/12402.got.cif
#   From: 2010.05.17/outbox.cif.g08.bks.cpg/sg60_7_cif.got.tgz:12402.got - 2010.06.03 14:59:27.
