data_PCOD9457034
_publ_section_title
;
Structure prediction by ZEFSAII (Michael W. Deem and Ramdas Pophale) SiO2 
 PCOD9457034
Probable space group: P B C N
;
_chemical_formula_sum "Si O2"
_cell_formula_units_Z 40
_cell_length_a 10.798905
_cell_length_b 16.159280
_cell_length_c 8.897185
_cell_angle_alpha 90.000000
_cell_angle_beta 90.000000
_cell_angle_gamma 90.000000
_cell_volume 1552.581289
_symmetry_space_group_name_H-M "P B C N"
_symmetry_group_IT_number 60
_symmetry_cell_setting 'orthorhombic'
loop_
_space_group_symop_operation_xyz
x,y,z
1/2-x,1/2-y,1/2+z
1/2+x,1/2-y,-z
-x,y,1/2-z
-x,-y,-z
1/2+x,1/2+y,1/2-z
1/2-x,1/2+y,z
x,-y,1/2+z
loop_
_atom_site_type_symbol
_atom_site_label
_atom_site_fract_x
_atom_site_fract_y
_atom_site_fract_z
Si Si1 0.858017 0.495496 0.799727
Si Si2 0.136985 0.678974 0.317236
Si Si3 0.009262 0.092203 0.067544
Si Si4 0.693843 0.279613 0.449254
Si Si5 0.722197 0.106959 0.567147
O O1 0.810337 0.410730 0.722661
O O2 0.780331 0.571842 0.735693
O O3 0.000000 0.509276 0.750000
O O4 0.842058 0.468473 0.972129
O O5 0.172147 0.694839 0.487433
O O6 0.000000 0.677708 0.250000
O O7 0.197813 0.753017 0.222977
O O8 0.000000 0.092669 0.250000
O O9 0.905257 0.151787 0.996416
O O10 0.142721 0.119533 0.003978
O O11 0.000000 0.000000 0.000000
O O12 0.653728 0.192448 0.529724
#
# Coordination Sequence:
#
# PCOD9457034 Si02
#       5
#     8   8   8   8   8
#     4  10  22  42  66  95 132 174 224 281 345 419
#     4  10  22  42  66  95 136 182 230 288 349 420
#     4  12  26  46  71 104 143 187 240 303 369 435
#     4  11  24  42  66  99 137 181 233 287 352 427
#     4  11  23  42  69 101 136 180 230 287 354 423
#
# _framework density 25.763545000000001
#
# number of rings (size 3 to 8) (size 9 to 14) (size 15 to 20)
#    0.000    1.200    0.000    6.600    0.000    6.400 
#    0.000    2.000    0.000    0.000    0.000    0.000 
#    0.000    0.000    0.000    0.000    0.000    0.000 
#
# Total GULP energy -223852.899820 kJ/mol
# GULP energy per Si atom -5596.322495 kJ/mol
# Density = 2.570491 g / cm^3
# Si number density = 25.763545 Si / 1000 Ang^3
#
#
#
# Elastic Constant Matrix: (Units=GPa)
#
#
# Indices 1 2 3 4 5 6 
#
# 1 126.9525 35.2404 27.1606 0.0000 0.0000 0.0000
# 2 35.2404 165.5288 36.1554 0.0000 0.0000 0.0000
# 3 27.1606 36.1554 108.4300 0.0000 0.0000 0.0000
# 4 0.0000 0.0000 0.0000 49.2035 0.0000 0.0000
# 5 0.0000 0.0000 0.0000 0.0000 37.5748 0.0000
# 6 0.0000 0.0000 0.0000 0.0000 0.0000 38.3784
#
#
#
# Elastic Compliance Matrix: (Units=1/GPa)
#
#
# Indices 1 2 3 4 5 6 
#
# 1 0.008644 -0.001475 -0.001674 0.000000 0.000000 0.000000
# 2 -0.001475 0.006767 -0.001887 0.000000 0.000000 0.000000
# 3 -0.001674 -0.001887 0.010271 0.000000 0.000000 0.000000
# 4 0.000000 0.000000 0.000000 0.020324 0.000000 0.000000
# 5 0.000000 0.000000 0.000000 0.000000 0.026614 0.000000
# 6 0.000000 0.000000 0.000000 0.000000 0.000000 0.026056
#
#
# Mechanical properties :
#
#
# Convention : Reuss Voigt Hill
#
# Bulk Modulus (GPa) = 64.05407 66.44710 65.25059
# Shear Modulus (GPa) = 43.87835 45.18835 44.53335
#
# Velocity S-wave (km/s) = 4.13136 4.19258 4.16208
# Velocity P-wave (km/s) = 6.90462 7.02026 6.96268
#
# Compressibility (1/GPa) = 0.01561181
#
# Stress axis : x y z
#
# Youngs Moduli (GPa) = 115.68191 147.76683 97.36143
#
# Poissons Ratio (x) = 0.21793 0.16294
# Poissons Ratio (y) = 0.17061 0.18373
# Poissons Ratio (z) = 0.19360 0.27886
#
# Static dielectric constant tensor:
#      x y z
#    x 2.070790 0.000000 0.000000 
#    y 0.000000 2.052060 0.000000 
#    z 0.000000 0.000000 2.056200 
# 
# From -- ./inp_files/4733.got.cif
#   From: 2010.05.17/outbox.cif.g08.bks.cpg/sg60_3_cif.got.tgz:4733.got - 2010.06.03 14:59:27.
