data_PCOD9457074
_publ_section_title
;
Structure prediction by ZEFSAII (Michael W. Deem and Ramdas Pophale) SiO2 
 PCOD9457074
Probable space group: P B C N
;
_chemical_formula_sum "Si O2"
_cell_formula_units_Z 64
_cell_length_a 11.179731
_cell_length_b 14.720944
_cell_length_c 17.301432
_cell_angle_alpha 90.000000
_cell_angle_beta 90.000000
_cell_angle_gamma 90.000000
_cell_volume 2847.403829
_symmetry_space_group_name_H-M "P B C N"
_symmetry_group_IT_number 60
_symmetry_cell_setting 'orthorhombic'
loop_
_space_group_symop_operation_xyz
x,y,z
1/2-x,1/2-y,1/2+z
1/2+x,1/2-y,-z
-x,y,1/2-z
-x,-y,-z
1/2+x,1/2+y,1/2-z
1/2-x,1/2+y,z
x,-y,1/2+z
loop_
_atom_site_type_symbol
_atom_site_label
_atom_site_fract_x
_atom_site_fract_y
_atom_site_fract_z
Si Si1 0.207593 0.265667 0.861742
Si Si2 0.632883 0.312192 0.785591
Si Si3 0.187557 0.496106 0.523015
Si Si4 0.089924 0.901875 0.443901
Si Si5 0.755659 0.167101 0.880140
Si Si6 0.414978 0.735880 0.490438
Si Si7 0.016125 0.396074 0.931121
Si Si8 0.914889 0.015061 0.823219
O O1 0.269286 0.289409 0.780686
O O2 0.097396 0.334605 0.876265
O O3 0.149875 0.167539 0.881696
O O4 0.315484 0.274909 0.924854
O O5 0.500000 0.305465 0.750000
O O6 0.655474 0.232411 0.846879
O O7 0.642183 0.414468 0.819470
O O8 0.304160 0.449944 0.489384
O O9 0.216234 0.593890 0.556959
O O10 0.098987 0.518833 0.452733
O O11 0.113182 0.438926 0.586064
O O12 0.000925 0.032854 0.602056
O O13 0.012496 0.843067 0.504361
O O14 0.849770 0.229347 0.925924
O O15 0.822936 0.099622 0.820796
O O16 0.482957 0.831229 0.495664
O O17 0.000000 0.020306 0.750000
#
# Coordination Sequence:
#
# PCOD9457074 Si02
#       8
#     8   8   8   8   8   8   8   8
#     4  11  22  45  70 102 140 183 230 289 355 420
#     4  11  28  43  68 100 141 193 235 284 346 430
#     4  11  23  40  67 106 138 172 226 294 360 414
#     4  10  23  41  73 105 136 177 230 304 353 411
#     4  11  25  45  67 100 139 180 229 293 350 417
#     4  10  22  42  72 101 130 174 230 290 347 411
#     4  10  23  40  65 104 133 173 219 292 353 417
#     4  10  24  45  68  96 136 189 237 280 346 427
#
# _framework density 22.476613
#
# number of rings (size 3 to 8) (size 9 to 14) (size 15 to 20)
#    0.000    1.500    2.500    0.750    7.000    4.000 
#    2.250    0.000    0.000    0.000    0.000    0.000 
#    0.000    0.000    0.000    0.000    0.000    0.000 
#
# Total GULP energy -357487.893861 kJ/mol
# GULP energy per Si atom -5585.748342 kJ/mol
# Density = 2.242546 g / cm^3
# Si number density = 22.476613 Si / 1000 Ang^3
#
#
#
# Elastic Constant Matrix: (Units=GPa)
#
#
# Indices 1 2 3 4 5 6 
#
# 1 111.0521 60.7552 24.7699 0.0000 0.0000 0.0000
# 2 60.7552 142.3571 35.0275 0.0000 0.0000 0.0000
# 3 24.7699 35.0275 37.2661 0.0000 0.0000 0.0000
# 4 0.0000 0.0000 0.0000 24.0388 0.0000 0.0000
# 5 0.0000 0.0000 0.0000 0.0000 38.8111 0.0000
# 6 0.0000 0.0000 0.0000 0.0000 0.0000 50.9892
#
#
#
# Elastic Compliance Matrix: (Units=1/GPa)
#
#
# Indices 1 2 3 4 5 6 
#
# 1 0.012231 -0.004188 -0.004193 0.000000 0.000000 0.000000
# 2 -0.004188 0.010572 -0.007153 0.000000 0.000000 0.000000
# 3 -0.004193 -0.007153 0.036345 0.000000 0.000000 0.000000
# 4 0.000000 0.000000 0.000000 0.041599 0.000000 0.000000
# 5 0.000000 0.000000 0.000000 0.000000 0.025766 0.000000
# 6 0.000000 0.000000 0.000000 0.000000 0.000000 0.019612
#
#
# Mechanical properties :
#
#
# Convention : Reuss Voigt Hill
#
# Bulk Modulus (GPa) = 35.61407 59.08672 47.35040
# Shear Modulus (GPa) = 26.80181 34.10934 30.45558
#
# Velocity S-wave (km/s) = 3.45691 3.89980 3.68501
# Velocity P-wave (km/s) = 5.64030 6.82811 6.26243
#
# Compressibility (1/GPa) = 0.02807879
#
# Stress axis : x y z
#
# Youngs Moduli (GPa) = 81.75622 94.58787 27.51441
#
# Poissons Ratio (x) = 0.39617 0.11537
# Poissons Ratio (y) = 0.34243 0.19681
# Poissons Ratio (z) = 0.34282 0.67660
#
# Static dielectric constant tensor:
#      x y z
#    x 1.917760 0.000000 0.000000 
#    y 0.000000 1.858770 0.000000 
#    z 0.000000 0.000000 1.862420 
# 
# From -- ./inp_files/20223.got.cif
#   From: 2010.05.17/outbox.cif.g08.bks.cpg/sg60_11_cif.got.tgz:20223.got - 2010.06.03 14:59:27.
