data_PCOD9457156
_publ_section_title
;
Structure prediction by ZEFSAII (Michael W. Deem and Ramdas Pophale) SiO2 
 PCOD9457156
Probable space group: P B C N
;
_chemical_formula_sum "Si O2"
_cell_formula_units_Z 40
_cell_length_a 11.652013
_cell_length_b 7.811392
_cell_length_c 18.381092
_cell_angle_alpha 90.000000
_cell_angle_beta 90.000000
_cell_angle_gamma 90.000000
_cell_volume 1673.018340
_symmetry_space_group_name_H-M "P B C N"
_symmetry_group_IT_number 60
_symmetry_cell_setting 'orthorhombic'
loop_
_space_group_symop_operation_xyz
x,y,z
1/2-x,1/2-y,1/2+z
1/2+x,1/2-y,-z
-x,y,1/2-z
-x,-y,-z
1/2+x,1/2+y,1/2-z
1/2-x,1/2+y,z
x,-y,1/2+z
loop_
_atom_site_type_symbol
_atom_site_label
_atom_site_fract_x
_atom_site_fract_y
_atom_site_fract_z
Si Si1 0.445958 0.385143 0.934655
Si Si2 0.638618 0.291625 0.304220
Si Si3 0.617421 0.730928 0.645680
Si Si4 0.133794 0.521301 0.974981
Si Si5 0.688676 0.596463 0.398740
O O1 0.389980 0.536117 0.885562
O O2 0.367692 0.219956 0.948161
O O3 0.570300 0.305289 0.913220
O O4 0.500000 0.500000 0.000000
O O5 0.511223 0.231895 0.324679
O O6 0.682828 0.264287 0.222671
O O7 0.646861 0.485713 0.329511
O O8 0.715439 0.211121 0.365429
O O9 0.646177 0.875351 0.586773
O O10 0.241657 0.512072 0.032531
O O11 0.000000 0.500000 0.000000
#
# Coordination Sequence:
#
# PCOD9457156 Si02
#       5
#     8   8   8   8   8
#     4  11  23  43  69 102 141 179 230 297 358 414
#     4  10  22  44  66  95 141 188 230 285 356 428
#     4  10  23  45  66  97 144 186 230 292 354 420
#     4  12  21  42  73 107 139 183 240 298 349 419
#     4  11  23  43  70 101 142 187 234 293 359 418
#
# _framework density 23.908882999999999
#
# number of rings (size 3 to 8) (size 9 to 14) (size 15 to 20)
#    0.000    1.200    4.000    2.400    0.000    0.000 
#    7.200    2.000    0.000    0.000    0.000    0.000 
#    0.000    0.000    0.000    0.000    0.000    0.000 
#
# Total GULP energy -222710.908904 kJ/mol
# GULP energy per Si atom -5567.772723 kJ/mol
# Density = 2.385446 g / cm^3
# Si number density = 23.908883 Si / 1000 Ang^3
#
#
#
# Elastic Constant Matrix: (Units=GPa)
#
#
# Indices 1 2 3 4 5 6 
#
# 1 75.4429 44.9025 29.6035 0.0000 0.0000 0.0000
# 2 44.9025 130.8073 76.3594 0.0000 0.0000 0.0000
# 3 29.6035 76.3594 152.4939 0.0000 0.0000 0.0000
# 4 0.0000 0.0000 0.0000 -12.2625 0.0000 0.0000
# 5 0.0000 0.0000 0.0000 0.0000 24.7780 0.0000
# 6 0.0000 0.0000 0.0000 0.0000 0.0000 27.8015
#
#
#
# Elastic Compliance Matrix: (Units=1/GPa)
#
#
# Indices 1 2 3 4 5 6 
#
# 1 0.016688 -0.005422 -0.000524 0.000000 0.000000 0.000000
# 2 -0.005422 0.012564 -0.005239 0.000000 0.000000 0.000000
# 3 -0.000524 -0.005239 0.009283 0.000000 0.000000 0.000000
# 4 0.000000 0.000000 0.000000 -0.081550 0.000000 0.000000
# 5 0.000000 0.000000 0.000000 0.000000 0.040358 0.000000
# 6 0.000000 0.000000 0.000000 0.000000 0.000000 0.035969
#
#
# Mechanical properties :
#
#
# Convention : Reuss Voigt Hill
#
# Bulk Modulus (GPa) = 61.86619 73.38609 67.62614
# Shear Modulus (GPa) = 81.86950 21.92198 51.89574
#
# Velocity S-wave (km/s) = 5.85804 3.03132 4.66398
# Velocity P-wave (km/s) = 8.46685 6.55839 7.57298
#
# Compressibility (1/GPa) = 0.01616392
#
# Stress axis : x y z
#
# Youngs Moduli (GPa) = 59.92256 79.59003 107.72707
#
# Poissons Ratio (x) = 0.43157 0.05650
# Poissons Ratio (y) = 0.32493 0.56436
# Poissons Ratio (z) = 0.03143 0.41696
#
# Static dielectric constant tensor:
#      x y z
#    x 3.870990 0.000000 0.000000 
#    y 0.000000 1.881110 0.000000 
#    z 0.000000 0.000000 1.761250 
# 
# From -- ./inp_files/19834.got.cif
#   From: 2010.05.17/outbox.cif.g08.bks.cpg/sg60_10_cif.got.tgz:19834.got - 2010.06.03 14:59:27.
