data_PCOD9457891
_publ_section_title
;
Structure prediction by ZEFSAII (Michael W. Deem and Ramdas Pophale) SiO2 
 PCOD9457891
Probable space group: P B C N
;
_chemical_formula_sum "Si O2"
_cell_formula_units_Z 32
_cell_length_a 5.234446
_cell_length_b 9.169915
_cell_length_c 28.672322
_cell_angle_alpha 90.000000
_cell_angle_beta 90.000000
_cell_angle_gamma 90.000000
_cell_volume 1376.254966
_symmetry_space_group_name_H-M "P B C N"
_symmetry_group_IT_number 60
_symmetry_cell_setting 'orthorhombic'
loop_
_space_group_symop_operation_xyz
x,y,z
1/2-x,1/2-y,1/2+z
1/2+x,1/2-y,-z
-x,y,1/2-z
-x,-y,-z
1/2+x,1/2+y,1/2-z
1/2-x,1/2+y,z
x,-y,1/2+z
loop_
_atom_site_type_symbol
_atom_site_label
_atom_site_fract_x
_atom_site_fract_y
_atom_site_fract_z
Si Si1 0.624670 0.159123 0.986344
Si Si2 0.228006 0.627973 0.356627
Si Si3 0.960951 0.884124 0.305035
Si Si4 0.582828 0.883524 0.385890
O O1 0.736085 0.138380 0.933205
O O2 0.375010 0.269059 0.988243
O O3 0.500000 0.000000 0.000000
O O4 0.365571 0.516018 0.322495
O O5 0.423879 0.736986 0.380071
O O6 0.047421 0.731508 0.326812
O O7 0.085564 0.527190 0.393363
O O8 0.703282 0.909990 0.334536
O O9 0.000000 0.876564 0.250000
#
# Coordination Sequence:
#
# PCOD9457891 Si02
#       4
#     8   8   8   8
#     4  12  29  49  81 115 155 201 265 318 391 462
#     4  10  25  42  70 102 140 188 239 295 376 432
#     4  11  26  42  72 101 143 188 244 300 370 443
#     4  11  25  46  73 102 148 189 243 305 370 444
#
# _framework density 23.251504000000001
#
# number of rings (size 3 to 8) (size 9 to 14) (size 15 to 20)
#    0.000    1.000    0.000    3.750   21.000    2.000 
#    0.000    0.000    0.000    0.000    0.000    0.000 
#    0.000    0.000    0.000    0.000    0.000    0.000 
#
# Total GULP energy -178442.247961 kJ/mol
# GULP energy per Si atom -5576.320249 kJ/mol
# Density = 2.319858 g / cm^3
# Si number density = 23.251504 Si / 1000 Ang^3
#
#
#
# Elastic Constant Matrix: (Units=GPa)
#
#
# Indices 1 2 3 4 5 6 
#
# 1 73.8524 23.7569 -1.7101 0.0000 0.0000 0.0000
# 2 23.7569 145.5630 0.1913 0.0000 0.0000 0.0000
# 3 -1.7101 0.1913 119.2836 0.0000 0.0000 0.0000
# 4 0.0000 0.0000 0.0000 -213.5588 0.0000 0.0000
# 5 0.0000 0.0000 0.0000 0.0000 44.8134 0.0000
# 6 0.0000 0.0000 0.0000 0.0000 0.0000 74.2767
#
#
#
# Elastic Compliance Matrix: (Units=1/GPa)
#
#
# Indices 1 2 3 4 5 6 
#
# 1 0.014296 -0.002333 0.000209 0.000000 0.000000 0.000000
# 2 -0.002333 0.007251 -0.000045 0.000000 0.000000 0.000000
# 3 0.000209 -0.000045 0.008386 0.000000 0.000000 0.000000
# 4 0.000000 0.000000 0.000000 -0.004683 0.000000 0.000000
# 5 0.000000 0.000000 0.000000 0.000000 0.022315 0.000000
# 6 0.000000 0.000000 0.000000 0.000000 0.000000 0.013463
#
#
# Mechanical properties :
#
#
# Convention : Reuss Voigt Hill
#
# Bulk Modulus (GPa) = 39.07244 42.57501 40.82373
# Shear Modulus (GPa) = 67.65949 2.20367 34.93158
#
# Velocity S-wave (km/s) = 5.40020 0.97458 3.88020
# Velocity P-wave (km/s) = 7.46482 4.42909 6.13761
#
# Compressibility (1/GPa) = 0.02559348
#
# Stress axis : x y z
#
# Youngs Moduli (GPa) = 69.94970 137.91619 119.24001
#
# Poissons Ratio (x) = 0.32182 -0.02489
# Poissons Ratio (y) = 0.16323 0.00538
# Poissons Ratio (z) = -0.01460 0.00622
#
# Static dielectric constant tensor:
#      x y z
#    x 2.044020 0.000000 0.000000 
#    y 0.000000 1.839770 0.000000 
#    z 0.000000 0.000000 1.948820 
# 
# From -- ./inp_files/25537.got.cif
#   From: 2010.05.17/outbox.cif.g08.bks.cpg/sg60_13_cif.got.tgz:25537.got - 2010.06.03 14:59:27.
