data_PCOD9457561
_publ_section_title
;
Structure prediction by ZEFSAII (Michael W. Deem and Ramdas Pophale) SiO2 
 PCOD9457561
Probable space group: P B C N
;
_chemical_formula_sum "Si O2"
_cell_formula_units_Z 40
_cell_length_a 9.216358
_cell_length_b 14.482551
_cell_length_c 13.876427
_cell_angle_alpha 90.000000
_cell_angle_beta 90.000000
_cell_angle_gamma 90.000000
_cell_volume 1852.175171
_symmetry_space_group_name_H-M "P B C N"
_symmetry_group_IT_number 60
_symmetry_cell_setting 'orthorhombic'
loop_
_space_group_symop_operation_xyz
x,y,z
1/2-x,1/2-y,1/2+z
1/2+x,1/2-y,-z
-x,y,1/2-z
-x,-y,-z
1/2+x,1/2+y,1/2-z
1/2-x,1/2+y,z
x,-y,1/2+z
loop_
_atom_site_type_symbol
_atom_site_label
_atom_site_fract_x
_atom_site_fract_y
_atom_site_fract_z
Si Si1 0.362253 0.034321 0.600791
Si Si2 0.832502 0.118344 0.729842
Si Si3 0.542253 0.851554 0.965374
Si Si4 0.631656 0.534197 0.066589
Si Si5 0.235191 0.768319 0.911247
O O1 0.260495 0.078897 0.681077
O O2 0.494059 0.098408 0.565830
O O3 0.267476 0.027042 0.504185
O O4 0.417306 0.929660 0.613112
O O5 0.745672 0.201546 0.680115
O O6 0.000000 0.146926 0.750000
O O7 0.850090 0.034502 0.654723
O O8 0.400942 0.796998 0.931583
O O9 0.673360 0.785730 0.995611
O O10 0.500000 0.500000 0.000000
O O11 0.635191 0.640760 0.100078
#
# Coordination Sequence:
#
# PCOD9457561 Si02
#       5
#     8   8   8   8   8
#     4  10  23  45  71  98 146 190 233 303 365 428
#     4  12  25  43  70 108 145 189 247 306 360 444
#     4  10  23  45  72  99 138 195 234 304 371 433
#     4  11  22  46  70 105 144 186 238 294 372 436
#     4  11  25  43  73 105 137 187 248 294 369 442
#
# _framework density 21.596229999999998
#
# number of rings (size 3 to 8) (size 9 to 14) (size 15 to 20)
#    0.000    1.200    4.000    1.200    2.800    2.400 
#    3.600    0.000    0.000    0.000    0.000    0.000 
#    0.000    0.000    0.000    0.000    0.000    0.000 
#
# Total GULP energy -223437.247860 kJ/mol
# GULP energy per Si atom -5585.931197 kJ/mol
# Density = 2.154708 g / cm^3
# Si number density = 21.596230 Si / 1000 Ang^3
#
#
#
# Elastic Constant Matrix: (Units=GPa)
#
#
# Indices 1 2 3 4 5 6 
#
# 1 93.0352 35.5918 23.1159 0.0000 0.0000 0.0000
# 2 35.5918 107.4327 20.9018 0.0000 0.0000 0.0000
# 3 23.1159 20.9018 59.0510 0.0000 0.0000 0.0000
# 4 0.0000 0.0000 0.0000 23.8390 0.0000 0.0000
# 5 0.0000 0.0000 0.0000 0.0000 34.7032 0.0000
# 6 0.0000 0.0000 0.0000 0.0000 0.0000 42.9465
#
#
#
# Elastic Compliance Matrix: (Units=1/GPa)
#
#
# Indices 1 2 3 4 5 6 
#
# 1 0.013076 -0.003583 -0.003850 0.000000 0.000000 0.000000
# 2 -0.003583 0.010978 -0.002483 0.000000 0.000000 0.000000
# 3 -0.003850 -0.002483 0.019321 0.000000 0.000000 0.000000
# 4 0.000000 0.000000 0.000000 0.041948 0.000000 0.000000
# 5 0.000000 0.000000 0.000000 0.000000 0.028816 0.000000
# 6 0.000000 0.000000 0.000000 0.000000 0.000000 0.023285
#
#
# Mechanical properties :
#
#
# Convention : Reuss Voigt Hill
#
# Bulk Modulus (GPa) = 42.47782 46.52644 44.50213
# Shear Modulus (GPa) = 30.28385 32.29168 31.28776
#
# Velocity S-wave (km/s) = 3.74876 3.87104 3.81039
# Velocity P-wave (km/s) = 6.20076 6.44751 6.32534
#
# Compressibility (1/GPa) = 0.02354170
#
# Stress axis : x y z
#
# Youngs Moduli (GPa) = 76.47604 91.08882 51.75757
#
# Poissons Ratio (x) = 0.32636 0.19929
# Poissons Ratio (y) = 0.27400 0.12853
# Poissons Ratio (z) = 0.29447 0.22621
#
# Static dielectric constant tensor:
#      x y z
#    x 1.867830 0.000000 0.000000 
#    y 0.000000 1.889350 0.000000 
#    z 0.000000 0.000000 1.766990 
# 
# From -- ./inp_files/14689.got.cif
#   From: 2010.05.17/outbox.cif.g08.bks.cpg/sg60_8_cif.got.tgz:14689.got - 2010.06.03 14:59:27.
