data_PCOD9457831
_publ_section_title
;
Structure prediction by ZEFSAII (Michael W. Deem and Ramdas Pophale) SiO2 
 PCOD9457831
Probable space group: P B C N
;
_chemical_formula_sum "Si O2"
_cell_formula_units_Z 32
_cell_length_a 5.050621
_cell_length_b 28.242557
_cell_length_c 8.943521
_cell_angle_alpha 90.000000
_cell_angle_beta 90.000000
_cell_angle_gamma 90.000000
_cell_volume 1275.725760
_symmetry_space_group_name_H-M "P B C N"
_symmetry_group_IT_number 60
_symmetry_cell_setting 'orthorhombic'
loop_
_space_group_symop_operation_xyz
x,y,z
1/2-x,1/2-y,1/2+z
1/2+x,1/2-y,-z
-x,y,1/2-z
-x,-y,-z
1/2+x,1/2+y,1/2-z
1/2-x,1/2+y,z
x,-y,1/2+z
loop_
_atom_site_type_symbol
_atom_site_label
_atom_site_fract_x
_atom_site_fract_y
_atom_site_fract_z
Si Si1 0.563414 0.891272 0.586277
Si Si2 0.000000 0.771555 0.750000
Si Si3 0.000000 0.880326 0.250000
Si Si4 0.977074 0.944080 0.994730
Si Si5 0.188840 0.690244 0.965003
O O1 0.500000 0.873275 0.750000
O O2 0.818806 0.922762 0.621550
O O3 0.574721 0.841615 0.493988
O O4 0.320230 0.924187 0.524944
O O5 0.158841 0.736710 0.863660
O O6 0.174334 0.799099 0.625180
O O7 0.874653 0.918789 0.363010
O O8 0.846771 0.845955 0.139899
O O9 0.000000 0.000000 0.000000
#
# Coordination Sequence:
#
# PCOD9457831 Si02
#       5
#     8   4   4   8   8
#     4  11  26  44  75 102 154 191 247 309 388 446
#     4  12  26  44  75 110 150 206 265 332 378 504
#     4  10  24  46  73 104 156 194 251 320 386 456
#     4  11  25  46  73 110 144 200 251 313 376 469
#     4  11  26  44  74 108 155 200 265 317 410 449
#
# _framework density 25.083760000000002
#
# number of rings (size 3 to 8) (size 9 to 14) (size 15 to 20)
#    0.000    1.000    0.000    4.500   14.000    3.000 
#    0.000    0.000    0.000    0.000    0.000    0.000 
#    0.000    0.000    0.000    0.000    0.000    0.000 
#
# Total GULP energy -178327.003403 kJ/mol
# GULP energy per Si atom -5572.718856 kJ/mol
# Density = 2.502667 g / cm^3
# Si number density = 25.083760 Si / 1000 Ang^3
#
#
#
# Elastic Constant Matrix: (Units=GPa)
#
#
# Indices 1 2 3 4 5 6 
#
# 1 117.6277 58.7137 34.7908 0.0000 0.0000 0.0000
# 2 58.7137 185.5797 70.4821 0.0000 0.0000 0.0000
# 3 34.7908 70.4821 121.1410 0.0000 0.0000 0.0000
# 4 0.0000 0.0000 0.0000 -10.3512 0.0000 0.0000
# 5 0.0000 0.0000 0.0000 0.0000 20.1009 0.0000
# 6 0.0000 0.0000 0.0000 0.0000 0.0000 45.3503
#
#
#
# Elastic Compliance Matrix: (Units=1/GPa)
#
#
# Indices 1 2 3 4 5 6 
#
# 1 0.010267 -0.002732 -0.001359 0.000000 0.000000 0.000000
# 2 -0.002732 0.007644 -0.003663 0.000000 0.000000 0.000000
# 3 -0.001359 -0.003663 0.010776 0.000000 0.000000 0.000000
# 4 0.000000 0.000000 0.000000 -0.096607 0.000000 0.000000
# 5 0.000000 0.000000 0.000000 0.000000 0.049749 0.000000
# 6 0.000000 0.000000 0.000000 0.000000 0.000000 0.022051
#
#
# Mechanical properties :
#
#
# Convention : Reuss Voigt Hill
#
# Bulk Modulus (GPa) = 75.87579 83.59129 79.73354
# Shear Modulus (GPa) = 210.25288 28.37746 119.31517
#
# Velocity S-wave (km/s) = 9.16528 3.36714 6.90434
# Velocity P-wave (km/s) = 11.92970 6.96520 9.76810
#
# Compressibility (1/GPa) = 0.01317943
#
# Stress axis : x y z
#
# Youngs Moduli (GPa) = 97.39838 130.82116 92.79694
#
# Poissons Ratio (x) = 0.35742 0.12611
# Poissons Ratio (y) = 0.26611 0.33989
# Poissons Ratio (z) = 0.13237 0.47917
#
# Static dielectric constant tensor:
#      x y z
#    x -5.944440 0.000000 0.000000 
#    y 0.000000 1.939720 0.000000 
#    z 0.000000 0.000000 5.257460 
# 
# From -- ./inp_files/3080.got.cif
#   From: 2010.05.17/outbox.cif.g08.bks.cpg/sg60_2_cif.got.tgz:3080.got - 2010.06.03 14:59:27.
