data_PCOD9457209
_publ_section_title
;
Structure prediction by ZEFSAII (Michael W. Deem and Ramdas Pophale) SiO2 
 PCOD9457209
Probable space group: P B C N
;
_chemical_formula_sum "Si O2"
_cell_formula_units_Z 32
_cell_length_a 5.173728
_cell_length_b 8.574644
_cell_length_c 27.543320
_cell_angle_alpha 90.000000
_cell_angle_beta 90.000000
_cell_angle_gamma 90.000000
_cell_volume 1221.900883
_symmetry_space_group_name_H-M "P B C N"
_symmetry_group_IT_number 60
_symmetry_cell_setting 'orthorhombic'
loop_
_space_group_symop_operation_xyz
x,y,z
1/2-x,1/2-y,1/2+z
1/2+x,1/2-y,-z
-x,y,1/2-z
-x,-y,-z
1/2+x,1/2+y,1/2-z
1/2-x,1/2+y,z
x,-y,1/2+z
loop_
_atom_site_type_symbol
_atom_site_label
_atom_site_fract_x
_atom_site_fract_y
_atom_site_fract_z
Si Si1 0.256414 0.021344 0.716966
Si Si2 0.780191 0.643822 0.002846
Si Si3 0.499783 0.510270 0.084167
Si Si4 0.172212 0.725028 0.144940
O O1 0.500000 0.013249 0.750000
O O2 0.212205 0.195347 0.697323
O O3 0.000000 0.977577 0.750000
O O4 0.376167 0.947374 0.666152
O O5 0.704486 0.533880 0.957942
O O6 0.544866 0.766642 0.002996
O O7 0.753779 0.553030 0.053877
O O8 0.411531 0.668686 0.111520
O O9 0.502212 0.352911 0.117023
#
# Coordination Sequence:
#
# PCOD9457209 Si02
#       4
#     8   8   8   8
#     4  11  24  47  71 100 138 182 225 288 365 419
#     4  11  24  47  70  99 146 191 240 287 348 415
#     4  10  22  45  69 106 138 188 231 291 345 407
#     4  10  22  46  70 106 138 178 238 288 344 430
#
# _framework density 26.188701999999999
#
# number of rings (size 3 to 8) (size 9 to 14) (size 15 to 20)
#    0.000    1.500    2.500    1.500    0.000    4.000 
#   18.000    0.000    0.000    0.000    0.000    0.000 
#    0.000    0.000    0.000    0.000    0.000    0.000 
#
# Total GULP energy -178196.797052 kJ/mol
# GULP energy per Si atom -5568.649908 kJ/mol
# Density = 2.612909 g / cm^3
# Si number density = 26.188702 Si / 1000 Ang^3
#
#
#
# Elastic Constant Matrix: (Units=GPa)
#
#
# Indices 1 2 3 4 5 6 
#
# 1 105.7276 42.6650 44.7265 0.0000 0.0000 0.0000
# 2 42.6650 70.6534 12.5358 0.0000 0.0000 0.0000
# 3 44.7265 12.5358 118.5296 0.0000 0.0000 0.0000
# 4 0.0000 0.0000 0.0000 59.6556 0.0000 0.0000
# 5 0.0000 0.0000 0.0000 0.0000 -74.2134 0.0000
# 6 0.0000 0.0000 0.0000 0.0000 0.0000 55.0164
#
#
#
# Elastic Compliance Matrix: (Units=1/GPa)
#
#
# Indices 1 2 3 4 5 6 
#
# 1 0.014686 -0.008036 -0.004692 0.000000 0.000000 0.000000
# 2 -0.008036 0.018821 0.001042 0.000000 0.000000 0.000000
# 3 -0.004692 0.001042 0.010097 0.000000 0.000000 0.000000
# 4 0.000000 0.000000 0.000000 0.016763 0.000000 0.000000
# 5 0.000000 0.000000 0.000000 0.000000 -0.013475 0.000000
# 6 0.000000 0.000000 0.000000 0.000000 0.000000 0.018176
#
#
# Mechanical properties :
#
#
# Convention : Reuss Voigt Hill
#
# Bulk Modulus (GPa) = 49.42568 54.97391 52.19980
# Shear Modulus (GPa) = 52.52968 21.09061 36.81015
#
# Velocity S-wave (km/s) = 4.48349 2.84092 3.75317
# Velocity P-wave (km/s) = 6.76137 5.63898 6.22552
#
# Compressibility (1/GPa) = 0.02023240
#
# Stress axis : x y z
#
# Youngs Moduli (GPa) = 68.09319 53.13136 99.04000
#
# Poissons Ratio (x) = 0.42695 0.46467
# Poissons Ratio (y) = 0.54718 -0.10317
# Poissons Ratio (z) = 0.31947 -0.05535
#
# Static dielectric constant tensor:
#      x y z
#    x 2.017720 0.000000 0.000000 
#    y 0.000000 2.129560 0.000000 
#    z 0.000000 0.000000 2.639060 
# 
# From -- ./inp_files/25542.got.cif
#   From: 2010.05.17/outbox.cif.g08.bks.cpg/sg60_13_cif.got.tgz:25542.got - 2010.06.03 14:59:27.
