data_PCOD9457736
_publ_section_title
;
Structure prediction by ZEFSAII (Michael W. Deem and Ramdas Pophale) SiO2 
 PCOD9457736
Probable space group: P B C N
;
_chemical_formula_sum "Si O2"
_cell_formula_units_Z 48
_cell_length_a 14.385449
_cell_length_b 9.629405
_cell_length_c 14.340093
_cell_angle_alpha 90.000000
_cell_angle_beta 90.000000
_cell_angle_gamma 90.000000
_cell_volume 1986.437213
_symmetry_space_group_name_H-M "P B C N"
_symmetry_group_IT_number 60
_symmetry_cell_setting 'orthorhombic'
loop_
_space_group_symop_operation_xyz
x,y,z
1/2-x,1/2-y,1/2+z
1/2+x,1/2-y,-z
-x,y,1/2-z
-x,-y,-z
1/2+x,1/2+y,1/2-z
1/2-x,1/2+y,z
x,-y,1/2+z
loop_
_atom_site_type_symbol
_atom_site_label
_atom_site_fract_x
_atom_site_fract_y
_atom_site_fract_z
Si Si1 0.157206 0.999116 0.346311
Si Si2 0.422307 0.905122 0.049256
Si Si3 0.969766 0.906355 0.361666
Si Si4 0.286211 0.225085 0.408470
Si Si5 0.325695 0.179466 0.081799
Si Si6 0.129281 0.174859 0.169787
O O1 0.248077 0.075145 0.382406
O O2 0.123986 0.119455 0.274859
O O3 0.190917 0.839418 0.329608
O O4 0.065184 0.964747 0.405240
O O5 0.438076 0.796475 0.133647
O O6 0.349782 0.017932 0.088714
O O7 0.376354 0.809160 0.970102
O O8 0.500000 0.000000 0.000000
O O9 0.916561 0.768803 0.392565
O O10 0.000000 0.892795 0.250000
O O11 0.895996 0.028698 0.378195
O O12 0.208141 0.287174 0.477311
O O13 0.234963 0.212538 0.143620
#
# Coordination Sequence:
#
# PCOD9457736 Si02
#       6
#     8   8   8   8   8   8
#     4  11  25  43  69 102 143 188 249 308 372 460
#     4  11  24  43  67 106 142 188 243 311 372 447
#     4  10  24  44  67 101 137 194 249 302 377 454
#     4  11  24  43  69 106 141 192 243 300 384 447
#     4  11  23  44  68 100 141 189 239 302 377 450
#     4  10  24  43  71  96 142 192 242 299 380 448
#
# _framework density 24.163864
#
# number of rings (size 3 to 8) (size 9 to 14) (size 15 to 20)
#    0.000    1.333    1.667    3.000   11.667    0.667 
#    0.000    2.500    0.000    0.000    0.000    0.000 
#    0.000    0.000    0.000    0.000    0.000    0.000 
#
# Total GULP energy -267418.631726 kJ/mol
# GULP energy per Si atom -5571.221494 kJ/mol
# Density = 2.410887 g / cm^3
# Si number density = 24.163864 Si / 1000 Ang^3
#
#
#
# Elastic Constant Matrix: (Units=GPa)
#
#
# Indices 1 2 3 4 5 6 
#
# 1 101.3048 35.5303 25.5245 0.0000 0.0000 0.0000
# 2 35.5303 152.1603 33.4670 0.0000 0.0000 0.0000
# 3 25.5245 33.4670 66.2545 0.0000 0.0000 0.0000
# 4 0.0000 0.0000 0.0000 36.3262 0.0000 0.0000
# 5 0.0000 0.0000 0.0000 0.0000 22.2327 0.0000
# 6 0.0000 0.0000 0.0000 0.0000 0.0000 56.1465
#
#
#
# Elastic Compliance Matrix: (Units=1/GPa)
#
#
# Indices 1 2 3 4 5 6 
#
# 1 0.011405 -0.001909 -0.003429 0.000000 0.000000 0.000000
# 2 -0.001909 0.007713 -0.003161 0.000000 0.000000 0.000000
# 3 -0.003429 -0.003161 0.018011 0.000000 0.000000 0.000000
# 4 0.000000 0.000000 0.000000 0.027528 0.000000 0.000000
# 5 0.000000 0.000000 0.000000 0.000000 0.044979 0.000000
# 6 0.000000 0.000000 0.000000 0.000000 0.000000 0.017811
#
#
# Mechanical properties :
#
#
# Convention : Reuss Voigt Hill
#
# Bulk Modulus (GPa) = 49.67496 56.52926 53.10211
# Shear Modulus (GPa) = 33.07871 37.95426 35.51648
#
# Velocity S-wave (km/s) = 3.70392 3.96751 3.83798
# Velocity P-wave (km/s) = 6.23652 6.66581 6.45474
#
# Compressibility (1/GPa) = 0.02013087
#
# Stress axis : x y z
#
# Youngs Moduli (GPa) = 87.68285 129.65302 55.52142
#
# Poissons Ratio (x) = 0.24748 0.19041
# Poissons Ratio (y) = 0.16737 0.17548
# Poissons Ratio (z) = 0.30071 0.40979
#
# Static dielectric constant tensor:
#      x y z
#    x 2.011630 0.000000 0.000000 
#    y 0.000000 1.871570 0.000000 
#    z 0.000000 0.000000 2.103830 
# 
# From -- ./inp_files/20524.got.cif
#   From: 2010.05.17/outbox.cif.g08.bks.cpg/sg60_11_cif.got.tgz:20524.got - 2010.06.03 14:59:27.
