data_PCOD9457989
_publ_section_title
;
Structure prediction by ZEFSAII (Michael W. Deem and Ramdas Pophale) SiO2 
 PCOD9457989
Probable space group: P B C N
;
_chemical_formula_sum "Si O2"
_cell_formula_units_Z 40
_cell_length_a 4.817883
_cell_length_b 26.894326
_cell_length_c 11.426340
_cell_angle_alpha 90.000000
_cell_angle_beta 90.000000
_cell_angle_gamma 90.000000
_cell_volume 1480.553334
_symmetry_space_group_name_H-M "P B C N"
_symmetry_group_IT_number 60
_symmetry_cell_setting 'orthorhombic'
loop_
_space_group_symop_operation_xyz
x,y,z
1/2-x,1/2-y,1/2+z
1/2+x,1/2-y,-z
-x,y,1/2-z
-x,-y,-z
1/2+x,1/2+y,1/2-z
1/2-x,1/2+y,z
x,-y,1/2+z
loop_
_atom_site_type_symbol
_atom_site_label
_atom_site_fract_x
_atom_site_fract_y
_atom_site_fract_z
Si Si1 0.677232 0.280248 0.963216
Si Si2 0.296316 0.473529 0.593651
Si Si3 0.777108 0.404321 0.574652
Si Si4 0.608194 0.865311 0.129150
Si Si5 0.500000 0.821914 0.750000
Si Si6 0.500000 0.444561 0.250000
O O1 0.792832 0.290347 0.832977
O O2 0.362316 0.263188 0.977234
O O3 0.734661 0.328026 0.043708
O O4 0.500000 0.500000 0.500000
O O5 0.476988 0.423675 0.610940
O O6 0.293992 0.516297 0.689270
O O7 0.990756 0.451178 0.581192
O O8 0.848464 0.359545 0.661077
O O9 0.845742 0.385129 0.444370
O O10 0.500000 0.841649 0.250000
O O11 0.809508 0.910111 0.167848
#
# Coordination Sequence:
#
# PCOD9457989 Si02
#       6
#     8   8   8   8   4   4
#     4  11  29  50  78 108 138 181 236 303 371 443
#     4  12  24  42  67 101 148 191 247 284 333 414
#     4  11  25  47  68 103 144 197 242 289 345 416
#     4  11  27  44  72 102 144 185 234 296 363 426
#     4  10  26  49  78 104 146 186 240 295 366 436
#     4  12  26  39  70 104 146 192 230 291 354 406
#
# _framework density 27.016926999999999
#
# number of rings (size 3 to 8) (size 9 to 14) (size 15 to 20)
#    0.000    0.800    2.000    3.000    8.400    6.400 
#    0.000    0.000    0.000    0.000    0.000    0.000 
#    0.000    0.000    0.000    0.000    0.000    0.000 
#
# Total GULP energy -224373.403767 kJ/mol
# GULP energy per Si atom -5609.335094 kJ/mol
# Density = 2.695544 g / cm^3
# Si number density = 27.016927 Si / 1000 Ang^3
#
#
#
# Elastic Constant Matrix: (Units=GPa)
#
#
# Indices 1 2 3 4 5 6 
#
# 1 134.4734 28.9343 21.6223 0.0000 0.0000 0.0000
# 2 28.9343 111.1516 44.3245 0.0000 0.0000 0.0000
# 3 21.6223 44.3245 152.2496 0.0000 0.0000 0.0000
# 4 0.0000 0.0000 0.0000 51.3903 0.0000 0.0000
# 5 0.0000 0.0000 0.0000 0.0000 27.0760 0.0000
# 6 0.0000 0.0000 0.0000 0.0000 0.0000 55.6032
#
#
#
# Elastic Compliance Matrix: (Units=1/GPa)
#
#
# Indices 1 2 3 4 5 6 
#
# 1 0.007925 -0.001826 -0.000594 0.000000 0.000000 0.000000
# 2 -0.001826 0.010599 -0.002826 0.000000 0.000000 0.000000
# 3 -0.000594 -0.002826 0.007475 0.000000 0.000000 0.000000
# 4 0.000000 0.000000 0.000000 0.019459 0.000000 0.000000
# 5 0.000000 0.000000 0.000000 0.000000 0.036933 0.000000
# 6 0.000000 0.000000 0.000000 0.000000 0.000000 0.017985
#
#
# Mechanical properties :
#
#
# Convention : Reuss Voigt Hill
#
# Bulk Modulus (GPa) = 64.48858 65.29299 64.89078
# Shear Modulus (GPa) = 43.08950 47.01345 45.05148
#
# Velocity S-wave (km/s) = 3.99796 4.17603 4.08797
# Velocity P-wave (km/s) = 6.72556 6.89001 6.80828
#
# Compressibility (1/GPa) = 0.01550662
#
# Stress axis : x y z
#
# Youngs Moduli (GPa) = 126.18579 94.34679 133.77294
#
# Poissons Ratio (x) = 0.17229 0.07944
# Poissons Ratio (y) = 0.23043 0.37810
# Poissons Ratio (z) = 0.07493 0.26666
#
# Static dielectric constant tensor:
#      x y z
#    x 2.075710 0.000000 0.000000 
#    y 0.000000 2.083550 0.000000 
#    z 0.000000 0.000000 2.229410 
# 
# From -- ./inp_files/9105.got.cif
#   From: 2010.05.17/outbox.cif.g08.bks.cpg/sg60_5_cif.got.tgz:9105.got - 2010.06.03 14:59:27.
