data_PCOD9457881
_publ_section_title
;
Structure prediction by ZEFSAII (Michael W. Deem and Ramdas Pophale) SiO2 
 PCOD9457881
Probable space group: P B C N
;
_chemical_formula_sum "Si O2"
_cell_formula_units_Z 24
_cell_length_a 11.833625
_cell_length_b 6.805923
_cell_length_c 9.684315
_cell_angle_alpha 90.000000
_cell_angle_beta 90.000000
_cell_angle_gamma 90.000000
_cell_volume 779.962533
_symmetry_space_group_name_H-M "P B C N"
_symmetry_group_IT_number 60
_symmetry_cell_setting 'orthorhombic'
loop_
_space_group_symop_operation_xyz
x,y,z
1/2-x,1/2-y,1/2+z
1/2+x,1/2-y,-z
-x,y,1/2-z
-x,-y,-z
1/2+x,1/2+y,1/2-z
1/2-x,1/2+y,z
x,-y,1/2+z
loop_
_atom_site_type_symbol
_atom_site_label
_atom_site_fract_x
_atom_site_fract_y
_atom_site_fract_z
Si Si1 0.946645 0.200011 0.070972
Si Si2 0.135297 0.857978 0.269792
Si Si3 0.666107 0.093604 0.958879
O O1 0.057112 0.317233 0.116574
O O2 0.871375 0.079332 0.175433
O O3 0.874878 0.373481 0.997525
O O4 0.000000 0.000000 0.000000
O O5 0.226471 0.888391 0.144053
O O6 0.168203 0.715049 0.396661
O O7 0.000000 0.802804 0.250000
#
# Coordination Sequence:
#
# PCOD9457881 Si02
#       3
#     8   8   8
#     4   9  22  52  95 140 203 268 356 415 527 620
#     4  11  26  55 101 152 207 269 353 428 538 636
#     4  10  24  55 100 148 205 277 341 443 521 633
#
# _framework density 30.770709
#
# number of rings (size 3 to 8) (size 9 to 14) (size 15 to 20)
#    0.000    2.000    0.000    0.000    0.000    6.667 
#   18.000   13.333   22.000   20.000    0.000    0.000 
#    0.000    0.000    0.000    0.000    0.000    0.000 
#
# Total GULP energy -133986.490503 kJ/mol
# GULP energy per Si atom -5582.770438 kJ/mol
# Density = 3.070067 g / cm^3
# Si number density = 30.770709 Si / 1000 Ang^3
#
#
#
# Elastic Constant Matrix: (Units=GPa)
#
#
# Indices 1 2 3 4 5 6 
#
# 1 357.3152 155.7338 180.3041 0.0000 0.0000 0.0000
# 2 155.7338 315.6078 159.6361 0.0000 0.0000 0.0000
# 3 180.3041 159.6361 245.3652 0.0000 0.0000 0.0000
# 4 0.0000 0.0000 0.0000 85.1998 0.0000 0.0000
# 5 0.0000 0.0000 0.0000 0.0000 93.2542 0.0000
# 6 0.0000 0.0000 0.0000 0.0000 0.0000 40.1690
#
#
#
# Elastic Compliance Matrix: (Units=1/GPa)
#
#
# Indices 1 2 3 4 5 6 
#
# 1 0.004590 -0.000833 -0.002831 0.000000 0.000000 0.000000
# 2 -0.000833 0.004874 -0.002559 0.000000 0.000000 0.000000
# 3 -0.002831 -0.002559 0.007821 0.000000 0.000000 0.000000
# 4 0.000000 0.000000 0.000000 0.011737 0.000000 0.000000
# 5 0.000000 0.000000 0.000000 0.000000 0.010723 0.000000
# 6 0.000000 0.000000 0.000000 0.000000 0.000000 0.024895
#
#
# Mechanical properties :
#
#
# Convention : Reuss Voigt Hill
#
# Bulk Modulus (GPa) = 206.65746 212.18179 209.41962
# Shear Modulus (GPa) = 63.53301 71.89889 67.71595
#
# Velocity S-wave (km/s) = 4.54885 4.83908 4.69621
# Velocity P-wave (km/s) = 9.74144 10.01638 9.87986
#
# Compressibility (1/GPa) = 0.00483893
#
# Stress axis : x y z
#
# Youngs Moduli (GPa) = 217.84704 205.17956 127.86431
#
# Poissons Ratio (x) = 0.17092 0.36201
# Poissons Ratio (y) = 0.18148 0.32717
# Poissons Ratio (z) = 0.61677 0.52501
#
# Static dielectric constant tensor:
#      x y z
#    x 2.555520 0.000000 0.000000 
#    y 0.000000 2.276760 0.000000 
#    z 0.000000 0.000000 3.001470 
# 
# From -- ./inp_files/9317.got.cif
#   From: 2010.05.17/outbox.cif.g08.bks.cpg/sg60_5_cif.got.tgz:9317.got - 2010.06.03 14:59:27.
