data_PCOD9457395
_publ_section_title
;
Structure prediction by ZEFSAII (Michael W. Deem and Ramdas Pophale) SiO2 
 PCOD9457395
Probable space group: P B C N
;
_chemical_formula_sum "Si O2"
_cell_formula_units_Z 48
_cell_length_a 5.300502
_cell_length_b 21.317030
_cell_length_c 13.992359
_cell_angle_alpha 90.000000
_cell_angle_beta 90.000000
_cell_angle_gamma 90.000000
_cell_volume 1581.010078
_symmetry_space_group_name_H-M "P B C N"
_symmetry_group_IT_number 60
_symmetry_cell_setting 'orthorhombic'
loop_
_space_group_symop_operation_xyz
x,y,z
1/2-x,1/2-y,1/2+z
1/2+x,1/2-y,-z
-x,y,1/2-z
-x,-y,-z
1/2+x,1/2+y,1/2-z
1/2-x,1/2+y,z
x,-y,1/2+z
loop_
_atom_site_type_symbol
_atom_site_label
_atom_site_fract_x
_atom_site_fract_y
_atom_site_fract_z
Si Si1 0.789822 0.862894 0.799744
Si Si2 0.754370 0.149033 0.837677
Si Si3 0.711930 0.983270 0.549482
Si Si4 0.850058 0.339090 0.603779
Si Si5 0.250049 0.801607 0.377447
Si Si6 0.331774 0.508025 0.651178
O O1 0.500000 0.847182 0.750000
O O2 0.662201 0.834453 0.896239
O O3 0.104202 0.848237 0.815813
O O4 0.776918 0.938241 0.811401
O O5 0.753142 0.192622 0.741663
O O6 0.512643 0.166769 0.898472
O O7 0.760162 0.076764 0.810793
O O8 0.000876 0.160503 0.900256
O O9 0.403481 0.006286 0.567726
O O10 0.856672 0.008273 0.646855
O O11 0.695801 0.907509 0.558475
O O12 0.000000 0.000000 0.500000
O O13 0.776016 0.267633 0.583938
#
# Coordination Sequence:
#
# PCOD9457395 Si02
#       6
#     8   8   8   8   8   8
#     4  11  22  36  66 104 133 170 234 304 362 406
#     4  10  23  42  66  99 139 179 228 297 350 427
#     4  11  24  45  65 100 143 187 228 293 369 436
#     4  11  24  40  69 101 138 183 234 298 354 439
#     4  10  24  41  67 100 137 182 232 290 359 410
#     4  11  25  41  68 102 138 184 234 292 371 426
#
# _framework density 30.360340000000001
#
# number of rings (size 3 to 8) (size 9 to 14) (size 15 to 20)
#    0.000    1.333    3.333    2.000    9.333    2.667 
#    0.000    1.667    0.000    0.000    0.000    0.000 
#    0.000    0.000    0.000    0.000    0.000    0.000 
#
# Total GULP energy -267513.955549 kJ/mol
# GULP energy per Si atom -5573.207407 kJ/mol
# Density = 3.029124 g / cm^3
# Si number density = 30.360340 Si / 1000 Ang^3
#
#
#
# Elastic Constant Matrix: (Units=GPa)
#
#
# Indices 1 2 3 4 5 6 
#
# 1 289.7174 68.5434 24.4230 0.0000 0.0000 0.0000
# 2 68.5434 214.5556 39.9500 0.0000 0.0000 0.0000
# 3 24.4230 39.9500 44.6673 0.0000 0.0000 0.0000
# 4 0.0000 0.0000 0.0000 56.5773 0.0000 0.0000
# 5 0.0000 0.0000 0.0000 0.0000 56.7654 0.0000
# 6 0.0000 0.0000 0.0000 0.0000 0.0000 68.4092
#
#
#
# Elastic Compliance Matrix: (Units=1/GPa)
#
#
# Indices 1 2 3 4 5 6 
#
# 1 0.003785 -0.000989 -0.001186 0.000000 0.000000 0.000000
# 2 -0.000989 0.005850 -0.004692 0.000000 0.000000 0.000000
# 3 -0.001186 -0.004692 0.027232 0.000000 0.000000 0.000000
# 4 0.000000 0.000000 0.000000 0.017675 0.000000 0.000000
# 5 0.000000 0.000000 0.000000 0.000000 0.017616 0.000000
# 6 0.000000 0.000000 0.000000 0.000000 0.000000 0.014618
#
#
# Mechanical properties :
#
#
# Convention : Reuss Voigt Hill
#
# Bulk Modulus (GPa) = 43.22282 90.53034 66.87658
# Shear Modulus (GPa) = 46.20160 64.08532 55.14346
#
# Velocity S-wave (km/s) = 3.90523 4.59935 4.26643
# Velocity P-wave (km/s) = 5.88234 7.62160 6.80774
#
# Compressibility (1/GPa) = 0.02313593
#
# Stress axis : x y z
#
# Youngs Moduli (GPa) = 264.16795 170.93337 36.72102
#
# Poissons Ratio (x) = 0.16898 0.04354
# Poissons Ratio (y) = 0.26115 0.17229
# Poissons Ratio (z) = 0.31321 0.80200
#
# Static dielectric constant tensor:
#      x y z
#    x 2.389570 0.000000 0.000000 
#    y 0.000000 1.974420 0.000000 
#    z 0.000000 0.000000 1.352870 
# 
# From -- ./inp_files/21620.got.cif
#   From: 2010.05.17/outbox.cif.g08.bks.cpg/sg60_11_cif.got.tgz:21620.got - 2010.06.03 14:59:27.
