data_PCOD9457630
_publ_section_title
;
Structure prediction by ZEFSAII (Michael W. Deem and Ramdas Pophale) SiO2 
 PCOD9457630
Probable space group: P B C N
;
_chemical_formula_sum "Si O2"
_cell_formula_units_Z 32
_cell_length_a 14.632910
_cell_length_b 15.397424
_cell_length_c 5.188121
_cell_angle_alpha 90.000000
_cell_angle_beta 90.000000
_cell_angle_gamma 90.000000
_cell_volume 1168.930975
_symmetry_space_group_name_H-M "P B C N"
_symmetry_group_IT_number 60
_symmetry_cell_setting 'orthorhombic'
loop_
_space_group_symop_operation_xyz
x,y,z
1/2-x,1/2-y,1/2+z
1/2+x,1/2-y,-z
-x,y,1/2-z
-x,-y,-z
1/2+x,1/2+y,1/2-z
1/2-x,1/2+y,z
x,-y,1/2+z
loop_
_atom_site_type_symbol
_atom_site_label
_atom_site_fract_x
_atom_site_fract_y
_atom_site_fract_z
Si Si1 0.658704 0.309545 0.447167
Si Si2 0.629370 0.551960 0.568744
Si Si3 0.000000 0.620217 0.250000
Si Si4 0.500000 0.241716 0.750000
Si Si5 0.699145 0.889158 0.800049
O O1 0.611473 0.355275 0.203348
O O2 0.586200 0.299794 0.675561
O O3 0.741447 0.370161 0.543354
O O4 0.688547 0.211281 0.394723
O O5 0.598952 0.513231 0.295972
O O6 0.738078 0.560859 0.503198
O O7 0.097345 0.573304 0.221629
O O8 0.014128 0.680127 0.502460
#
# Coordination Sequence:
#
# PCOD9457630 Si02
#       5
#     8   8   4   4   8
#     4  11  22  42  73  98 131 177 230 281 340 397
#     4  12  26  42  66 100 140 178 224 276 340 408
#     4  10  24  38  66 108 134 162 232 296 334 396
#     4  10  24  38  66 108 134 162 232 296 334 396
#     4  11  22  42  73  98 131 177 230 281 340 397
#
# _framework density 27.375442
#
# number of rings (size 3 to 8) (size 9 to 14) (size 15 to 20)
#    0.000    1.000    5.000    1.500    7.000    0.000 
#    0.000    2.500    0.000    0.000    0.000    0.000 
#    0.000    0.000    0.000    0.000    0.000    0.000 
#
# Total GULP energy -179100.556697 kJ/mol
# GULP energy per Si atom -5596.892397 kJ/mol
# Density = 2.731313 g / cm^3
# Si number density = 27.375442 Si / 1000 Ang^3
#
#
#
# Elastic Constant Matrix: (Units=GPa)
#
#
# Indices 1 2 3 4 5 6 
#
# 1 176.3246 3.3210 41.2438 0.0000 0.0000 0.0000
# 2 3.3210 106.4352 32.8057 0.0000 0.0000 0.0000
# 3 41.2438 32.8057 189.3060 0.0000 0.0000 0.0000
# 4 0.0000 0.0000 0.0000 29.7209 0.0000 0.0000
# 5 0.0000 0.0000 0.0000 0.0000 33.0882 0.0000
# 6 0.0000 0.0000 0.0000 0.0000 0.0000 -3.3919
#
#
#
# Elastic Compliance Matrix: (Units=1/GPa)
#
#
# Indices 1 2 3 4 5 6 
#
# 1 0.005981 0.000227 -0.001342 0.000000 0.000000 0.000000
# 2 0.000227 0.009934 -0.001771 0.000000 0.000000 0.000000
# 3 -0.001342 -0.001771 0.005882 0.000000 0.000000 0.000000
# 4 0.000000 0.000000 0.000000 0.033646 0.000000 0.000000
# 5 0.000000 0.000000 0.000000 0.000000 0.030222 0.000000
# 6 0.000000 0.000000 0.000000 0.000000 0.000000 -0.294823
#
#
# Mechanical properties :
#
#
# Convention : Reuss Voigt Hill
#
# Bulk Modulus (GPa) = 62.40465 69.64519 66.02492
# Shear Modulus (GPa) = -25.24698 38.19646 6.47474
#
# Velocity S-wave (km/s) = -3.04015 3.73940 1.53958
# Velocity P-wave (km/s) = 3.24376 6.64380 5.22791
#
# Compressibility (1/GPa) = 0.01602445
#
# Stress axis : x y z
#
# Youngs Moduli (GPa) = 167.19352 100.66267 170.01482
#
# Poissons Ratio (x) = -0.02287 0.22824
# Poissons Ratio (y) = -0.03798 0.30110
# Poissons Ratio (z) = 0.22445 0.17828
#
# Static dielectric constant tensor:
#      x y z
#    x 2.268780 0.000000 0.000000 
#    y 0.000000 2.136100 0.000000 
#    z 0.000000 0.000000 2.129560 
# 
# From -- ./inp_files/1088.got.cif
#   From: 2010.05.17/outbox.cif.g08.bks.cpg/sg60_1_cif.got.tgz:1088.got - 2010.06.03 14:59:27.
