data_PCOD9457844
_publ_section_title
;
Structure prediction by ZEFSAII (Michael W. Deem and Ramdas Pophale) SiO2 
 PCOD9457844
Probable space group: P B C N
;
_chemical_formula_sum "Si O2"
_cell_formula_units_Z 44
_cell_length_a 16.841128
_cell_length_b 9.124485
_cell_length_c 13.600923
_cell_angle_alpha 90.000000
_cell_angle_beta 90.000000
_cell_angle_gamma 90.000000
_cell_volume 2090.007864
_symmetry_space_group_name_H-M "P B C N"
_symmetry_group_IT_number 60
_symmetry_cell_setting 'orthorhombic'
loop_
_space_group_symop_operation_xyz
x,y,z
1/2-x,1/2-y,1/2+z
1/2+x,1/2-y,-z
-x,y,1/2-z
-x,-y,-z
1/2+x,1/2+y,1/2-z
1/2-x,1/2+y,z
x,-y,1/2+z
loop_
_atom_site_type_symbol
_atom_site_label
_atom_site_fract_x
_atom_site_fract_y
_atom_site_fract_z
Si Si1 0.246893 0.587289 0.931982
Si Si2 0.872238 0.661557 0.734844
Si Si3 0.500000 0.083375 0.250000
Si Si4 0.090958 0.079089 0.392041
Si Si5 0.496337 0.712392 0.569844
Si Si6 0.153124 0.662210 0.533695
O O1 0.204402 0.644345 0.833987
O O2 0.321331 0.486687 0.901626
O O3 0.284126 0.717587 0.995577
O O4 0.183999 0.492516 0.993513
O O5 0.913392 0.810920 0.698819
O O6 0.929539 0.523422 0.716385
O O7 0.853003 0.664902 0.849391
O O8 0.527738 0.185105 0.339962
O O9 0.069900 0.171542 0.490092
O O10 0.031110 0.941740 0.389692
O O11 0.568421 0.792382 0.512386
#
# Coordination Sequence:
#
# PCOD9457844 Si02
#       6
#     8   8   4   8   8   8
#     4  11  24  46  66 104 142 183 237 292 348 431
#     4  12  26  42  72 104 142 188 233 296 363 428
#     4  12  26  42  76 106 140 184 242 302 356 432
#     4  10  24  47  69  96 145 183 237 291 350 432
#     4  10  24  47  71 101 136 189 240 296 355 426
#     4  11  25  44  71 100 142 186 233 292 360 417
#
# _framework density 21.052551999999999
#
# number of rings (size 3 to 8) (size 9 to 14) (size 15 to 20)
#    0.000    1.091    3.636    1.091    5.091    6.545 
#    3.273    0.000    0.000    0.000    0.000    0.000 
#    0.000    0.000    0.000    0.000    0.000    0.000 
#
# Total GULP energy -246313.996813 kJ/mol
# GULP energy per Si atom -5598.045382 kJ/mol
# Density = 2.100464 g / cm^3
# Si number density = 21.052552 Si / 1000 Ang^3
#
#
#
# Elastic Constant Matrix: (Units=GPa)
#
#
# Indices 1 2 3 4 5 6 
#
# 1 59.6363 9.2759 8.2979 0.0000 0.0000 0.0000
# 2 9.2759 58.0912 21.4382 0.0000 0.0000 0.0000
# 3 8.2979 21.4382 98.7730 0.0000 0.0000 0.0000
# 4 0.0000 0.0000 0.0000 40.4358 0.0000 0.0000
# 5 0.0000 0.0000 0.0000 0.0000 36.8413 0.0000
# 6 0.0000 0.0000 0.0000 0.0000 0.0000 14.5030
#
#
#
# Elastic Compliance Matrix: (Units=1/GPa)
#
#
# Indices 1 2 3 4 5 6 
#
# 1 0.017273 -0.002416 -0.000927 0.000000 0.000000 0.000000
# 2 -0.002416 0.019051 -0.003932 0.000000 0.000000 0.000000
# 3 -0.000927 -0.003932 0.011055 0.000000 0.000000 0.000000
# 4 0.000000 0.000000 0.000000 0.024731 0.000000 0.000000
# 5 0.000000 0.000000 0.000000 0.000000 0.027143 0.000000
# 6 0.000000 0.000000 0.000000 0.000000 0.000000 0.068951
#
#
# Mechanical properties :
#
#
# Convention : Reuss Voigt Hill
#
# Bulk Modulus (GPa) = 30.45984 32.72495 31.59239
# Shear Modulus (GPa) = 25.81335 30.18858 28.00097
#
# Velocity S-wave (km/s) = 3.50543 3.79088 3.65094
# Velocity P-wave (km/s) = 5.55733 5.89399 5.72814
#
# Compressibility (1/GPa) = 0.03283011
#
# Stress axis : x y z
#
# Youngs Moduli (GPa) = 57.89358 52.49014 90.45278
#
# Poissons Ratio (x) = 0.12682 0.08382
# Poissons Ratio (y) = 0.13988 0.35566
# Poissons Ratio (z) = 0.05365 0.20639
#
# Static dielectric constant tensor:
#      x y z
#    x 1.739820 0.000000 0.000000 
#    y 0.000000 1.770350 0.000000 
#    z 0.000000 0.000000 1.702480 
# 
# From -- ./inp_files/17294.got.cif
#   From: 2010.05.17/outbox.cif.g08.bks.cpg/sg60_9_cif.got.tgz:17294.got - 2010.06.03 14:59:27.
