data_PCOD9457595
_publ_section_title
;
Structure prediction by ZEFSAII (Michael W. Deem and Ramdas Pophale) SiO2 
 PCOD9457595
Probable space group: P B C N
;
_chemical_formula_sum "Si O2"
_cell_formula_units_Z 40
_cell_length_a 18.502719
_cell_length_b 7.720377
_cell_length_c 12.302345
_cell_angle_alpha 90.000000
_cell_angle_beta 90.000000
_cell_angle_gamma 90.000000
_cell_volume 1757.364963
_symmetry_space_group_name_H-M "P B C N"
_symmetry_group_IT_number 60
_symmetry_cell_setting 'orthorhombic'
loop_
_space_group_symop_operation_xyz
x,y,z
1/2-x,1/2-y,1/2+z
1/2+x,1/2-y,-z
-x,y,1/2-z
-x,-y,-z
1/2+x,1/2+y,1/2-z
1/2-x,1/2+y,z
x,-y,1/2+z
loop_
_atom_site_type_symbol
_atom_site_label
_atom_site_fract_x
_atom_site_fract_y
_atom_site_fract_z
Si Si1 0.839778 0.198563 0.165089
Si Si2 0.680804 0.687004 0.616690
Si Si3 0.579265 0.855090 0.799474
Si Si4 0.618706 0.772709 0.392686
Si Si5 0.968388 0.307372 0.024113
O O1 0.763993 0.293049 0.149112
O O2 0.851743 0.163242 0.292539
O O3 0.905692 0.305462 0.113153
O O4 0.837927 0.014385 0.106156
O O5 0.629793 0.769824 0.709102
O O6 0.666201 0.774123 0.500579
O O7 0.500000 0.889123 0.750000
O O8 0.613418 0.034282 0.842143
O O9 0.563992 0.745606 0.909392
O O10 0.538724 0.712548 0.429362
O O11 0.000000 0.500000 0.000000
#
# Coordination Sequence:
#
# PCOD9457595 Si02
#       5
#     8   8   8   8   8
#     4  12  29  46  73 106 155 194 254 307 383 441
#     4  12  30  46  71 112 150 200 250 312 376 454
#     4  11  23  46  78 109 146 193 251 303 373 449
#     4  11  25  47  76 104 146 193 245 308 376 441
#     4  10  23  46  80 104 142 195 247 303 374 445
#
# _framework density 22.761348999999999
#
# number of rings (size 3 to 8) (size 9 to 14) (size 15 to 20)
#    0.000    0.800    2.000    4.200   14.000    2.400 
#    0.000    0.000    0.000    0.000    0.000    0.000 
#    0.000    0.000    0.000    0.000    0.000    0.000 
#
# Total GULP energy -223931.553112 kJ/mol
# GULP energy per Si atom -5598.288828 kJ/mol
# Density = 2.270954 g / cm^3
# Si number density = 22.761349 Si / 1000 Ang^3
#
#
#
# Elastic Constant Matrix: (Units=GPa)
#
#
# Indices 1 2 3 4 5 6 
#
# 1 99.9475 3.3958 51.8208 0.0000 0.0000 0.0000
# 2 3.3958 61.7142 3.2387 0.0000 0.0000 0.0000
# 3 51.8208 3.2387 169.3575 0.0000 0.0000 0.0000
# 4 0.0000 0.0000 0.0000 -43.6203 0.0000 0.0000
# 5 0.0000 0.0000 0.0000 0.0000 24.6895 0.0000
# 6 0.0000 0.0000 0.0000 0.0000 0.0000 19.3258
#
#
#
# Elastic Compliance Matrix: (Units=1/GPa)
#
#
# Indices 1 2 3 4 5 6 
#
# 1 0.011905 -0.000464 -0.003634 0.000000 0.000000 0.000000
# 2 -0.000464 0.016238 -0.000168 0.000000 0.000000 0.000000
# 3 -0.003634 -0.000168 0.007020 0.000000 0.000000 0.000000
# 4 0.000000 0.000000 0.000000 -0.022925 0.000000 0.000000
# 5 0.000000 0.000000 0.000000 0.000000 0.040503 0.000000
# 6 0.000000 0.000000 0.000000 0.000000 0.000000 0.051744
#
#
# Mechanical properties :
#
#
# Convention : Reuss Voigt Hill
#
# Bulk Modulus (GPa) = 37.55214 49.76997 43.66105
# Shear Modulus (GPa) = 41.01884 18.24992 29.63438
#
# Velocity S-wave (km/s) = 4.24975 2.83467 3.61218
# Velocity P-wave (km/s) = 6.37295 5.71203 6.05152
#
# Compressibility (1/GPa) = 0.02662964
#
# Stress axis : x y z
#
# Youngs Moduli (GPa) = 83.99739 61.58346 142.45397
#
# Poissons Ratio (x) = 0.02860 0.51766
# Poissons Ratio (y) = 0.03901 0.02400
# Poissons Ratio (z) = 0.30524 0.01037
#
# Static dielectric constant tensor:
#      x y z
#    x 1.818380 0.000000 0.000000 
#    y 0.000000 1.922440 0.000000 
#    z 0.000000 0.000000 1.879440 
# 
# From -- ./inp_files/12311.got.cif
#   From: 2010.05.17/outbox.cif.g08.bks.cpg/sg60_7_cif.got.tgz:12311.got - 2010.06.03 14:59:27.
