data_PCOD9457694
_publ_section_title
;
Structure prediction by ZEFSAII (Michael W. Deem and Ramdas Pophale) SiO2 
 PCOD9457694
Probable space group: P B C N
;
_chemical_formula_sum "Si O2"
_cell_formula_units_Z 48
_cell_length_a 16.450585
_cell_length_b 9.491863
_cell_length_c 12.989624
_cell_angle_alpha 90.000000
_cell_angle_beta 90.000000
_cell_angle_gamma 90.000000
_cell_volume 2028.286910
_symmetry_space_group_name_H-M "P B C N"
_symmetry_group_IT_number 60
_symmetry_cell_setting 'orthorhombic'
loop_
_space_group_symop_operation_xyz
x,y,z
1/2-x,1/2-y,1/2+z
1/2+x,1/2-y,-z
-x,y,1/2-z
-x,-y,-z
1/2+x,1/2+y,1/2-z
1/2-x,1/2+y,z
x,-y,1/2+z
loop_
_atom_site_type_symbol
_atom_site_label
_atom_site_fract_x
_atom_site_fract_y
_atom_site_fract_z
Si Si1 0.560487 0.801318 0.106418
Si Si2 0.833866 0.993343 0.318129
Si Si3 0.214877 0.907939 0.485110
Si Si4 0.131877 0.308335 0.611055
Si Si5 0.500000 0.045573 0.250000
Si Si6 0.269855 0.322138 0.848141
Si Si7 0.500000 0.574972 0.250000
O O1 0.649294 0.773472 0.158334
O O2 0.506330 0.678084 0.153208
O O3 0.528668 0.946733 0.154431
O O4 0.569244 0.782880 0.984277
O O5 0.847333 0.083112 0.421709
O O6 0.766603 0.080125 0.253084
O O7 0.917299 0.989642 0.254955
O O8 0.820629 0.832037 0.350251
O O9 0.300781 0.895971 0.546443
O O10 0.206366 0.785108 0.400351
O O11 0.213902 0.058145 0.431825
O O12 0.077397 0.370462 0.703487
#
# Coordination Sequence:
#
# PCOD9457694 Si02
#       7
#     8   8   8   8   4   8   4
#     4   9  20  44  61  98 134 178 236 281 349 426
#     4  11  23  45  68 104 142 182 242 296 358 436
#     4  11  23  44  66  99 141 185 236 294 357 433
#     4  11  24  43  66 104 143 186 241 291 361 432
#     4  11  23  42  74 104 141 195 234 302 361 429
#     4  10  24  42  67  97 135 182 236 294 355 420
#     4   9  21  40  72  96 139 179 228 302 357 411
#
# _framework density 23.665291
#
# number of rings (size 3 to 8) (size 9 to 14) (size 15 to 20)
#    0.000    1.667    3.333    1.000    2.333    7.333 
#    3.000    0.000    0.000    0.000    0.000    0.000 
#    0.000    0.000    0.000    0.000    0.000    0.000 
#
# Total GULP energy -267631.698313 kJ/mol
# GULP energy per Si atom -5575.660382 kJ/mol
# Density = 2.361143 g / cm^3
# Si number density = 23.665291 Si / 1000 Ang^3
#
#
#
# Elastic Constant Matrix: (Units=GPa)
#
#
# Indices 1 2 3 4 5 6 
#
# 1 52.6771 22.5669 20.0487 0.0000 0.0000 0.0000
# 2 22.5669 86.0596 52.8514 0.0000 0.0000 0.0000
# 3 20.0487 52.8514 70.8851 0.0000 0.0000 0.0000
# 4 0.0000 0.0000 0.0000 17.1228 0.0000 0.0000
# 5 0.0000 0.0000 0.0000 0.0000 38.1856 0.0000
# 6 0.0000 0.0000 0.0000 0.0000 0.0000 33.5438
#
#
#
# Elastic Compliance Matrix: (Units=1/GPa)
#
#
# Indices 1 2 3 4 5 6 
#
# 1 0.021852 -0.003569 -0.003520 0.000000 0.000000 0.000000
# 2 -0.003569 0.022017 -0.015407 0.000000 0.000000 0.000000
# 3 -0.003520 -0.015407 0.026590 0.000000 0.000000 0.000000
# 4 0.000000 0.000000 0.000000 0.058402 0.000000 0.000000
# 5 0.000000 0.000000 0.000000 0.000000 0.026188 0.000000
# 6 0.000000 0.000000 0.000000 0.000000 0.000000 0.029812
#
#
# Mechanical properties :
#
#
# Convention : Reuss Voigt Hill
#
# Bulk Modulus (GPa) = 39.26304 44.50621 41.88462
# Shear Modulus (GPa) = 20.97846 25.38075 23.17961
#
# Velocity S-wave (km/s) = 2.98059 3.27844 3.13305
# Velocity P-wave (km/s) = 5.33593 5.76006 5.55205
#
# Compressibility (1/GPa) = 0.02546925
#
# Stress axis : x y z
#
# Youngs Moduli (GPa) = 45.76252 45.41914 37.60838
#
# Poissons Ratio (x) = 0.16208 0.13237
# Poissons Ratio (y) = 0.16330 0.57941
# Poissons Ratio (z) = 0.16107 0.69975
#
# Static dielectric constant tensor:
#      x y z
#    x 1.886190 0.000000 0.000000 
#    y 0.000000 1.880080 0.000000 
#    z 0.000000 0.000000 2.134260 
# 
# From -- ./inp_files/17375.got.cif
#   From: 2010.05.17/outbox.cif.g08.bks.cpg/sg60_9_cif.got.tgz:17375.got - 2010.06.03 14:59:27.
