data_PCOD9457146
_publ_section_title
;
Structure prediction by ZEFSAII (Michael W. Deem and Ramdas Pophale) SiO2 
 PCOD9457146
Probable space group: P B C N
;
_chemical_formula_sum "Si O2"
_cell_formula_units_Z 36
_cell_length_a 20.266508
_cell_length_b 8.942306
_cell_length_c 9.041627
_cell_angle_alpha 90.000000
_cell_angle_beta 90.000000
_cell_angle_gamma 90.000000
_cell_volume 1638.607878
_symmetry_space_group_name_H-M "P B C N"
_symmetry_group_IT_number 60
_symmetry_cell_setting 'orthorhombic'
loop_
_space_group_symop_operation_xyz
x,y,z
1/2-x,1/2-y,1/2+z
1/2+x,1/2-y,-z
-x,y,1/2-z
-x,-y,-z
1/2+x,1/2+y,1/2-z
1/2-x,1/2+y,z
x,-y,1/2+z
loop_
_atom_site_type_symbol
_atom_site_label
_atom_site_fract_x
_atom_site_fract_y
_atom_site_fract_z
Si Si1 0.221004 0.291948 0.039137
Si Si2 0.000000 0.048837 0.250000
Si Si3 0.587966 0.647729 0.522541
Si Si4 0.948541 0.531113 0.124251
Si Si5 0.311458 0.903869 0.366986
O O1 0.216523 0.355259 0.206526
O O2 0.166018 0.157764 0.018879
O O3 0.210502 0.433194 0.928322
O O4 0.288913 0.214842 0.990206
O O5 0.053562 0.958882 0.353681
O O6 0.955563 0.132684 0.373066
O O7 0.582323 0.810430 0.591837
O O8 0.890496 0.413359 0.146363
O O9 0.000000 0.546152 0.250000
O O10 0.000000 0.500000 0.000000
#
# Coordination Sequence:
#
# PCOD9457146 Si02
#       5
#     8   4   8   8   8
#     4  11  25  47  70 105 138 191 242 297 362 427
#     4  10  22  44  64 102 140 184 226 286 358 426
#     4  10  23  42  68  98 138 180 233 287 353 426
#     4  11  23  42  69 101 137 182 232 292 353 426
#     4  11  25  46  72 102 144 187 242 296 358 429
#
# _framework density 21.969867000000001
#
# number of rings (size 3 to 8) (size 9 to 14) (size 15 to 20)
#    0.000    1.333    1.111    4.000    4.667    5.333 
#    4.000    0.000    0.000    0.000    0.000    0.000 
#    0.000    0.000    0.000    0.000    0.000    0.000 
#
# Total GULP energy -200595.932465 kJ/mol
# GULP energy per Si atom -5572.109235 kJ/mol
# Density = 2.191986 g / cm^3
# Si number density = 21.969867 Si / 1000 Ang^3
#
#
#
# Elastic Constant Matrix: (Units=GPa)
#
#
# Indices 1 2 3 4 5 6 
#
# 1 154.4923 37.3424 104.7726 0.0000 0.0000 0.0000
# 2 37.3424 69.0854 37.2882 0.0000 0.0000 0.0000
# 3 104.7726 37.2882 215.3102 0.0000 0.0000 0.0000
# 4 0.0000 0.0000 0.0000 33.7851 0.0000 0.0000
# 5 0.0000 0.0000 0.0000 0.0000 220.4829 0.0000
# 6 0.0000 0.0000 0.0000 0.0000 0.0000 46.8402
#
#
#
# Elastic Compliance Matrix: (Units=1/GPa)
#
#
# Indices 1 2 3 4 5 6 
#
# 1 0.010243 -0.003140 -0.004441 0.000000 0.000000 0.000000
# 2 -0.003140 0.016930 -0.001404 0.000000 0.000000 0.000000
# 3 -0.004441 -0.001404 0.007049 0.000000 0.000000 0.000000
# 4 0.000000 0.000000 0.000000 0.029599 0.000000 0.000000
# 5 0.000000 0.000000 0.000000 0.000000 0.004535 0.000000
# 6 0.000000 0.000000 0.000000 0.000000 0.000000 0.021349
#
#
# Mechanical properties :
#
#
# Convention : Reuss Voigt Hill
#
# Bulk Modulus (GPa) = 61.52972 88.63269 75.08121
# Shear Modulus (GPa) = 44.21166 77.52061 60.86613
#
# Velocity S-wave (km/s) = 4.49082 5.94656 5.26920
# Velocity P-wave (km/s) = 7.41331 9.35837 8.44205
#
# Compressibility (1/GPa) = 0.01625231
#
# Stress axis : x y z
#
# Youngs Moduli (GPa) = 97.62395 59.06714 141.87309
#
# Poissons Ratio (x) = 0.18547 0.63003
# Poissons Ratio (y) = 0.30653 0.19920
# Poissons Ratio (z) = 0.43353 0.08293
#
# Static dielectric constant tensor:
#      x y z
#    x 1.994630 0.000000 0.000000 
#    y 0.000000 1.719790 0.000000 
#    z 0.000000 0.000000 1.781350 
# 
# From -- ./inp_files/7163.got.cif
#   From: 2010.05.17/outbox.cif.g08.bks.cpg/sg60_4_cif.got.tgz:7163.got - 2010.06.03 14:59:27.
