data_PCOD9457841
_publ_section_title
;
Structure prediction by ZEFSAII (Michael W. Deem and Ramdas Pophale) SiO2 
 PCOD9457841
Probable space group: P B C N
;
_chemical_formula_sum "Si O2"
_cell_formula_units_Z 48
_cell_length_a 25.017377
_cell_length_b 7.543161
_cell_length_c 10.528826
_cell_angle_alpha 90.000000
_cell_angle_beta 90.000000
_cell_angle_gamma 90.000000
_cell_volume 1986.895834
_symmetry_space_group_name_H-M "P B C N"
_symmetry_group_IT_number 60
_symmetry_cell_setting 'orthorhombic'
loop_
_space_group_symop_operation_xyz
x,y,z
1/2-x,1/2-y,1/2+z
1/2+x,1/2-y,-z
-x,y,1/2-z
-x,-y,-z
1/2+x,1/2+y,1/2-z
1/2-x,1/2+y,z
x,-y,1/2+z
loop_
_atom_site_type_symbol
_atom_site_label
_atom_site_fract_x
_atom_site_fract_y
_atom_site_fract_z
Si Si1 0.355236 0.808744 0.228057
Si Si2 0.467436 0.212465 0.625124
Si Si3 0.743164 0.364109 0.878581
Si Si4 0.192467 0.990307 0.870664
Si Si5 0.143662 0.287930 0.711400
Si Si6 0.030066 0.281051 0.621426
O O1 0.406077 0.738114 0.149949
O O2 0.303274 0.784871 0.138610
O O3 0.342856 0.686079 0.349706
O O4 0.365869 0.012307 0.261088
O O5 0.500000 0.264228 0.750000
O O6 0.496992 0.280931 0.500248
O O7 0.468729 0.996917 0.616407
O O8 0.803748 0.300266 0.876402
O O9 0.735095 0.464638 0.743839
O O10 0.775759 0.969078 0.002347
O O11 0.157111 0.156488 0.826138
O O12 0.091643 0.225553 0.635285
O O13 0.000000 0.229485 0.750000
#
# Coordination Sequence:
#
# PCOD9457841 Si02
#       6
#     8   8   8   8   8   8
#     4   9  23  44  68  97 135 178 222 277 341 398
#     4   9  18  39  60  93 131 170 218 276 328 395
#     4  10  24  47  64 101 140 173 226 281 333 410
#     4  10  25  45  65 102 138 170 229 280 325 419
#     4  11  22  45  69 102 133 186 218 280 349 399
#     4   9  20  36  64  96 128 168 227 274 326 403
#
# _framework density 24.158289
#
# number of rings (size 3 to 8) (size 9 to 14) (size 15 to 20)
#    1.000    1.333    0.000    1.000    2.333    4.000 
#   21.000    1.667    0.000    0.000    0.000    0.000 
#    0.000    0.000    0.000    0.000    0.000    0.000 
#
# Total GULP energy -268236.477916 kJ/mol
# GULP energy per Si atom -5588.259957 kJ/mol
# Density = 2.410330 g / cm^3
# Si number density = 24.158289 Si / 1000 Ang^3
#
#
#
# Elastic Constant Matrix: (Units=GPa)
#
#
# Indices 1 2 3 4 5 6 
#
# 1 145.6545 3.6070 15.2435 0.0000 0.0000 0.0000
# 2 3.6070 82.3208 7.4196 0.0000 0.0000 0.0000
# 3 15.2435 7.4196 98.0117 0.0000 0.0000 0.0000
# 4 0.0000 0.0000 0.0000 -23.9181 0.0000 0.0000
# 5 0.0000 0.0000 0.0000 0.0000 29.5890 0.0000
# 6 0.0000 0.0000 0.0000 0.0000 0.0000 9.5245
#
#
#
# Elastic Compliance Matrix: (Units=1/GPa)
#
#
# Indices 1 2 3 4 5 6 
#
# 1 0.006983 -0.000210 -0.001070 0.000000 0.000000 0.000000
# 2 -0.000210 0.012237 -0.000894 0.000000 0.000000 0.000000
# 3 -0.001070 -0.000894 0.010437 0.000000 0.000000 0.000000
# 4 0.000000 0.000000 0.000000 -0.041809 0.000000 0.000000
# 5 0.000000 0.000000 0.000000 0.000000 0.033796 0.000000
# 6 0.000000 0.000000 0.000000 0.000000 0.000000 0.104992
#
#
# Mechanical properties :
#
#
# Convention : Reuss Voigt Hill
#
# Bulk Modulus (GPa) = 39.50987 42.05859 40.78423
# Shear Modulus (GPa) = 35.86294 23.02022 29.44158
#
# Velocity S-wave (km/s) = 3.85710 3.09024 3.49477
# Velocity P-wave (km/s) = 6.01883 5.49365 5.76223
#
# Compressibility (1/GPa) = 0.02531013
#
# Stress axis : x y z
#
# Youngs Moduli (GPa) = 143.21017 81.71717 95.81330
#
# Poissons Ratio (x) = 0.01712 0.10253
# Poissons Ratio (y) = 0.03000 0.08564
# Poissons Ratio (z) = 0.15326 0.07304
#
# Static dielectric constant tensor:
#      x y z
#    x 3.686230 0.000000 0.000000 
#    y 0.000000 2.052660 0.000000 
#    z 0.000000 0.000000 1.866850 
# 
# From -- ./inp_files/13241.got.cif
#   From: 2010.05.17/outbox.cif.g08.bks.cpg/sg60_7_cif.got.tgz:13241.got - 2010.06.03 14:59:27.
