data_PCOD9457951
_publ_section_title
;
Structure prediction by ZEFSAII (Michael W. Deem and Ramdas Pophale) SiO2 
 PCOD9457951
Probable space group: P B C N
;
_chemical_formula_sum "Si O2"
_cell_formula_units_Z 40
_cell_length_a 5.913755
_cell_length_b 23.136058
_cell_length_c 13.145124
_cell_angle_alpha 90.000000
_cell_angle_beta 90.000000
_cell_angle_gamma 90.000000
_cell_volume 1798.528731
_symmetry_space_group_name_H-M "P B C N"
_symmetry_group_IT_number 60
_symmetry_cell_setting 'orthorhombic'
loop_
_space_group_symop_operation_xyz
x,y,z
1/2-x,1/2-y,1/2+z
1/2+x,1/2-y,-z
-x,y,1/2-z
-x,-y,-z
1/2+x,1/2+y,1/2-z
1/2-x,1/2+y,z
x,-y,1/2+z
loop_
_atom_site_type_symbol
_atom_site_label
_atom_site_fract_x
_atom_site_fract_y
_atom_site_fract_z
Si Si1 0.623578 0.387583 0.849362
Si Si2 0.573517 0.299992 0.136311
Si Si3 0.758058 0.509934 0.799919
Si Si4 0.818294 0.901106 0.469386
Si Si5 0.571692 0.189601 0.490287
O O1 0.500000 0.363251 0.750000
O O2 0.775252 0.440937 0.813761
O O3 0.745894 0.338852 0.914550
O O4 0.449594 0.416526 0.928392
O O5 0.500000 0.285816 0.250000
O O6 0.471565 0.361915 0.105703
O O7 0.488696 0.250600 0.058978
O O8 0.835701 0.303111 0.105018
O O9 0.500000 0.519063 0.750000
O O10 0.755392 0.543556 0.906710
O O11 0.000000 0.529015 0.750000
O O12 0.625150 0.856954 0.503745
#
# Coordination Sequence:
#
# PCOD9457951 Si02
#       5
#     8   8   8   8   8
#     4  10  26  45  69 101 140 186 244 297 369 435
#     4  11  25  43  67 100 145 184 242 299 366 431
#     4  11  27  47  75 109 145 191 245 300 372 437
#     4  11  25  45  70 100 145 186 243 294 368 435
#     4  11  25  43  69 102 139 189 239 298 363 437
#
# _framework density 22.240400999999999
#
# number of rings (size 3 to 8) (size 9 to 14) (size 15 to 20)
#    0.000    1.200    2.000    1.200   16.800    0.800 
#    0.000    0.000    0.000    0.000    0.000    0.000 
#    0.000    0.000    0.000    0.000    0.000    0.000 
#
# Total GULP energy -223260.906748 kJ/mol
# GULP energy per Si atom -5581.522669 kJ/mol
# Density = 2.218978 g / cm^3
# Si number density = 22.240401 Si / 1000 Ang^3
#
#
#
# Elastic Constant Matrix: (Units=GPa)
#
#
# Indices 1 2 3 4 5 6 
#
# 1 74.3946 4.2023 38.7354 0.0000 0.0000 0.0000
# 2 4.2023 51.6909 -1.0619 0.0000 0.0000 0.0000
# 3 38.7354 -1.0619 92.0829 0.0000 0.0000 0.0000
# 4 0.0000 0.0000 0.0000 34.4104 0.0000 0.0000
# 5 0.0000 0.0000 0.0000 0.0000 14.8211 0.0000
# 6 0.0000 0.0000 0.0000 0.0000 0.0000 -45.1555
#
#
#
# Elastic Compliance Matrix: (Units=1/GPa)
#
#
# Indices 1 2 3 4 5 6 
#
# 1 0.017336 -0.001560 -0.007311 0.000000 0.000000 0.000000
# 2 -0.001560 0.019491 0.000881 0.000000 0.000000 0.000000
# 3 -0.007311 0.000881 0.013945 0.000000 0.000000 0.000000
# 4 0.000000 0.000000 0.000000 0.029061 0.000000 0.000000
# 5 0.000000 0.000000 0.000000 0.000000 0.067471 0.000000
# 6 0.000000 0.000000 0.000000 0.000000 0.000000 -0.022146
#
#
# Mechanical properties :
#
#
# Convention : Reuss Voigt Hill
#
# Bulk Modulus (GPa) = 28.74108 33.54668 31.14388
# Shear Modulus (GPa) = 32.73631 12.56804 22.65218
#
# Velocity S-wave (km/s) = 3.84074 2.37976 3.19488
# Velocity P-wave (km/s) = 5.71133 4.76103 5.25770
#
# Compressibility (1/GPa) = 0.03479340
#
# Stress axis : x y z
#
# Youngs Moduli (GPa) = 57.68196 51.30664 71.70904
#
# Poissons Ratio (x) = 0.08002 0.52424
# Poissons Ratio (y) = 0.08996 -0.06316
# Poissons Ratio (z) = 0.42170 -0.04519
#
# Static dielectric constant tensor:
#      x y z
#    x 1.939010 0.000000 0.000000 
#    y 0.000000 1.738780 0.000000 
#    z 0.000000 0.000000 1.814350 
# 
# From -- ./inp_files/9082.got.cif
#   From: 2010.05.17/outbox.cif.g08.bks.cpg/sg60_5_cif.got.tgz:9082.got - 2010.06.03 14:59:27.
