data_PCOD9457328
_publ_section_title
;
Structure prediction by ZEFSAII (Michael W. Deem and Ramdas Pophale) SiO2 
 PCOD9457328
Probable space group: P B C N
;
_chemical_formula_sum "Si O2"
_cell_formula_units_Z 64
_cell_length_a 10.108670
_cell_length_b 22.243525
_cell_length_c 14.558349
_cell_angle_alpha 90.000000
_cell_angle_beta 90.000000
_cell_angle_gamma 90.000000
_cell_volume 3273.480497
_symmetry_space_group_name_H-M "P B C N"
_symmetry_group_IT_number 60
_symmetry_cell_setting 'orthorhombic'
loop_
_space_group_symop_operation_xyz
x,y,z
1/2-x,1/2-y,1/2+z
1/2+x,1/2-y,-z
-x,y,1/2-z
-x,-y,-z
1/2+x,1/2+y,1/2-z
1/2-x,1/2+y,z
x,-y,1/2+z
loop_
_atom_site_type_symbol
_atom_site_label
_atom_site_fract_x
_atom_site_fract_y
_atom_site_fract_z
Si Si1 0.642719 0.840430 0.261855
Si Si2 0.294555 0.803664 0.912603
Si Si3 0.159739 0.580978 0.916753
Si Si4 0.236629 0.188855 0.042269
Si Si5 0.134892 0.023091 0.454482
Si Si6 0.132954 0.407730 0.046789
Si Si7 0.639330 0.758897 0.774851
Si Si8 0.974015 0.859190 0.641382
O O1 0.500000 0.810362 0.250000
O O2 0.652363 0.890313 0.183830
O O3 0.652875 0.871745 0.359458
O O4 0.750594 0.789983 0.254423
O O5 0.349732 0.805587 0.808954
O O6 0.138683 0.815301 0.898437
O O7 0.306308 0.742498 0.972403
O O8 0.363430 0.857319 0.967766
O O9 0.274506 0.531068 0.916312
O O10 0.010638 0.560978 0.944375
O O11 0.195185 0.635949 0.984623
O O12 0.330502 0.215373 0.123891
O O13 0.109272 0.158816 0.090580
O O14 0.238600 0.052138 0.526698
O O15 0.085299 0.074923 0.384344
O O16 0.000000 0.000000 0.500000
O O17 0.500000 0.728998 0.750000
O O18 0.000000 0.854137 0.750000
#
# Coordination Sequence:
#
# PCOD9457328 Si02
#       8
#     8   8   8   8   8   8   8   8
#     4  10  23  40  64  97 129 170 212 260 328 392
#     4  11  24  39  64  96 133 169 215 264 331 403
#     4  11  23  43  67  95 129 171 222 271 330 388
#     4  12  24  39  67  94 132 174 213 272 330 398
#     4  11  24  44  68  94 125 171 226 278 329 387
#     4  10  23  43  67  94 130 170 216 271 328 395
#     4  12  25  37  59  98 137 166 210 265 324 391
#     4  11  25  44  67  94 131 178 225 272 334 401
#
# _framework density 19.551055999999999
#
# number of rings (size 3 to 8) (size 9 to 14) (size 15 to 20)
#    0.000    1.000    5.000    1.125    5.250    2.000 
#    0.000    0.000    0.000    0.000    0.000    0.000 
#    0.000    0.000    0.000    0.000    0.000    0.000 
#
# Total GULP energy -357144.386382 kJ/mol
# GULP energy per Si atom -5580.381037 kJ/mol
# Density = 1.950656 g / cm^3
# Si number density = 19.551056 Si / 1000 Ang^3
#
#
#
# Elastic Constant Matrix: (Units=GPa)
#
#
# Indices 1 2 3 4 5 6 
#
# 1 99.0614 19.5655 -18.2370 0.0000 0.0000 0.0000
# 2 19.5655 57.4289 0.3020 0.0000 0.0000 0.0000
# 3 -18.2370 0.3020 57.8851 0.0000 0.0000 0.0000
# 4 0.0000 0.0000 0.0000 12.7626 0.0000 0.0000
# 5 0.0000 0.0000 0.0000 0.0000 -45.8544 0.0000
# 6 0.0000 0.0000 0.0000 0.0000 0.0000 35.4641
#
#
#
# Elastic Compliance Matrix: (Units=1/GPa)
#
#
# Indices 1 2 3 4 5 6 
#
# 1 0.011549 -0.003954 0.003659 0.000000 0.000000 0.000000
# 2 -0.003954 0.018767 -0.001344 0.000000 0.000000 0.000000
# 3 0.003659 -0.001344 0.018436 0.000000 0.000000 0.000000
# 4 0.000000 0.000000 0.000000 0.078354 0.000000 0.000000
# 5 0.000000 0.000000 0.000000 0.000000 -0.021808 0.000000
# 6 0.000000 0.000000 0.000000 0.000000 0.000000 0.028198
#
#
# Mechanical properties :
#
#
# Convention : Reuss Voigt Hill
#
# Bulk Modulus (GPa) = 21.98999 24.18181 23.08590
# Shear Modulus (GPa) = 32.90985 14.65746 23.78365
#
# Velocity S-wave (km/s) = 4.10723 2.74104 3.49160
# Velocity P-wave (km/s) = 5.81071 4.73425 5.29988
#
# Compressibility (1/GPa) = 0.04547523
#
# Stress axis : x y z
#
# Youngs Moduli (GPa) = 86.58475 53.28504 54.24313
#
# Poissons Ratio (x) = 0.21069 -0.19849
# Poissons Ratio (y) = 0.34236 0.07288
# Poissons Ratio (z) = -0.31684 0.07160
#
# Static dielectric constant tensor:
#      x y z
#    x 1.753850 0.000000 0.000000 
#    y 0.000000 1.661580 0.000000 
#    z 0.000000 0.000000 1.677680 
# 
# From -- ./inp_files/15433.got.cif
#   From: 2010.05.17/outbox.cif.g08.bks.cpg/sg60_8_cif.got.tgz:15433.got - 2010.06.03 14:59:27.
