data_PCOD9457457
_publ_section_title
;
Structure prediction by ZEFSAII (Michael W. Deem and Ramdas Pophale) SiO2 
 PCOD9457457
Probable space group: P B C N
;
_chemical_formula_sum "Si O2"
_cell_formula_units_Z 64
_cell_length_a 14.643224
_cell_length_b 22.673949
_cell_length_c 8.234830
_cell_angle_alpha 90.000000
_cell_angle_beta 90.000000
_cell_angle_gamma 90.000000
_cell_volume 2734.125903
_symmetry_space_group_name_H-M "P B C N"
_symmetry_group_IT_number 60
_symmetry_cell_setting 'orthorhombic'
loop_
_space_group_symop_operation_xyz
x,y,z
1/2-x,1/2-y,1/2+z
1/2+x,1/2-y,-z
-x,y,1/2-z
-x,-y,-z
1/2+x,1/2+y,1/2-z
1/2-x,1/2+y,z
x,-y,1/2+z
loop_
_atom_site_type_symbol
_atom_site_label
_atom_site_fract_x
_atom_site_fract_y
_atom_site_fract_z
Si Si1 0.123677 0.624136 0.895794
Si Si2 0.432555 0.862114 0.020009
Si Si3 0.941975 0.114531 0.592171
Si Si4 0.422743 0.655095 0.367759
Si Si5 0.778868 0.955914 0.228062
Si Si6 0.249405 0.083141 0.395018
Si Si7 0.824519 0.255098 0.932792
Si Si8 0.129965 0.244304 0.940349
O O1 0.097279 0.635166 0.707891
O O2 0.201729 0.576051 0.879803
O O3 0.030840 0.606817 0.989563
O O4 0.161290 0.683238 0.977111
O O5 0.350696 0.889070 0.912070
O O6 0.445760 0.792960 0.980818
O O7 0.873429 0.063517 0.643694
O O8 0.891823 0.175417 0.543384
O O9 0.000000 0.130102 0.750000
O O10 0.016946 0.103773 0.453727
O O11 0.500000 0.681577 0.250000
O O12 0.326546 0.626580 0.317614
O O13 0.388331 0.705546 0.488075
O O14 0.776669 0.932771 0.415370
O O15 0.757341 0.024486 0.211490
O O16 0.845076 0.256031 0.744822
O O17 0.718205 0.238965 0.954092
#
# Coordination Sequence:
#
# PCOD9457457 Si02
#       8
#     8   8   8   8   8   8   8   8
#     4  10  23  43  67 101 131 179 217 279 344 400
#     4  10  23  43  70  96 137 172 225 277 337 406
#     4  12  24  45  66  97 140 180 214 276 341 401
#     4  12  28  43  68 103 139 175 227 275 338 412
#     4  11  25  45  69  93 133 175 231 279 339 394
#     4  11  25  47  66  97 130 177 228 286 332 398
#     4  12  24  41  67 102 139 177 220 272 345 406
#     4  12  24  40  68  99 140 179 218 277 337 414
#
# _framework density 23.407845999999999
#
# number of rings (size 3 to 8) (size 9 to 14) (size 15 to 20)
#    0.000    0.750    5.000    1.500    7.000    2.500 
#    0.000    0.000    0.000    0.000    0.000    0.000 
#    0.000    0.000    0.000    0.000    0.000    0.000 
#
# Total GULP energy -357993.832204 kJ/mol
# GULP energy per Si atom -5593.653628 kJ/mol
# Density = 2.335457 g / cm^3
# Si number density = 23.407846 Si / 1000 Ang^3
#
#
#
# Elastic Constant Matrix: (Units=GPa)
#
#
# Indices 1 2 3 4 5 6 
#
# 1 119.2626 17.9980 13.0268 0.0000 0.0000 0.0000
# 2 17.9980 71.6730 3.7195 0.0000 0.0000 0.0000
# 3 13.0268 3.7195 34.1567 0.0000 0.0000 0.0000
# 4 0.0000 0.0000 0.0000 20.7279 0.0000 0.0000
# 5 0.0000 0.0000 0.0000 0.0000 20.1251 0.0000
# 6 0.0000 0.0000 0.0000 0.0000 0.0000 14.2820
#
#
#
# Elastic Compliance Matrix: (Units=1/GPa)
#
#
# Indices 1 2 3 4 5 6 
#
# 1 0.009055 -0.002106 -0.003224 0.000000 0.000000 0.000000
# 2 -0.002106 0.014522 -0.000778 0.000000 0.000000 0.000000
# 3 -0.003224 -0.000778 0.030591 0.000000 0.000000 0.000000
# 4 0.000000 0.000000 0.000000 0.048244 0.000000 0.000000
# 5 0.000000 0.000000 0.000000 0.000000 0.049689 0.000000
# 6 0.000000 0.000000 0.000000 0.000000 0.000000 0.070018
#
#
# Mechanical properties :
#
#
# Convention : Reuss Voigt Hill
#
# Bulk Modulus (GPa) = 23.83748 32.73122 28.28435
# Shear Modulus (GPa) = 20.13533 23.71686 21.92609
#
# Velocity S-wave (km/s) = 2.93609 3.18654 3.06387
# Velocity P-wave (km/s) = 4.65831 5.24900 4.96245
#
# Compressibility (1/GPa) = 0.04195074
#
# Stress axis : x y z
#
# Youngs Moduli (GPa) = 110.43740 68.86293 32.68918
#
# Poissons Ratio (x) = 0.14506 0.10539
# Poissons Ratio (y) = 0.23264 0.02543
# Poissons Ratio (z) = 0.35605 0.05357
#
# Static dielectric constant tensor:
#      x y z
#    x 1.911200 0.000000 0.000000 
#    y 0.000000 1.867800 0.000000 
#    z 0.000000 0.000000 1.914590 
# 
# From -- ./inp_files/6305.got.cif
#   From: 2010.05.17/outbox.cif.g08.bks.cpg/sg60_4_cif.got.tgz:6305.got - 2010.06.03 14:59:27.
