data_PCOD9457571
_publ_section_title
;
Structure prediction by ZEFSAII (Michael W. Deem and Ramdas Pophale) SiO2 
 PCOD9457571
Probable space group: P B C N
;
_chemical_formula_sum "Si O2"
_cell_formula_units_Z 32
_cell_length_a 4.997629
_cell_length_b 18.155332
_cell_length_c 12.820996
_cell_angle_alpha 90.000000
_cell_angle_beta 90.000000
_cell_angle_gamma 90.000000
_cell_volume 1163.295298
_symmetry_space_group_name_H-M "P B C N"
_symmetry_group_IT_number 60
_symmetry_cell_setting 'orthorhombic'
loop_
_space_group_symop_operation_xyz
x,y,z
1/2-x,1/2-y,1/2+z
1/2+x,1/2-y,-z
-x,y,1/2-z
-x,-y,-z
1/2+x,1/2+y,1/2-z
1/2-x,1/2+y,z
x,-y,1/2+z
loop_
_atom_site_type_symbol
_atom_site_label
_atom_site_fract_x
_atom_site_fract_y
_atom_site_fract_z
Si Si1 0.643999 0.063128 0.140908
Si Si2 0.959823 0.200999 0.906977
Si Si3 0.901759 0.176028 0.361301
Si Si4 0.458364 0.103581 0.910314
O O1 0.500000 0.085353 0.250000
O O2 0.623131 0.975205 0.134847
O O3 0.947350 0.094846 0.136029
O O4 0.485411 0.090065 0.036528
O O5 0.884274 0.281058 0.865915
O O6 0.735660 0.140454 0.878445
O O7 0.233398 0.161503 0.880251
O O8 0.031306 0.207530 0.467218
O O9 0.000000 0.203093 0.250000
#
# Coordination Sequence:
#
# PCOD9457571 Si02
#       4
#     8   8   8   8
#     4  10  23  45  75 109 145 194 253 309 369 445
#     4  11  24  47  71 103 147 191 240 303 369 440
#     4  11  25  45  74 107 147 199 251 303 368 447
#     4  10  24  45  72 103 143 188 238 303 373 432
#
# _framework density 27.508064000000001
#
# number of rings (size 3 to 8) (size 9 to 14) (size 15 to 20)
#    0.000    1.500    0.000    3.000    0.000   18.000 
#    0.000   10.000    0.000    0.000    0.000    0.000 
#    0.000    0.000    0.000    0.000    0.000    0.000 
#
# Total GULP energy -178921.615994 kJ/mol
# GULP energy per Si atom -5591.300500 kJ/mol
# Density = 2.744545 g / cm^3
# Si number density = 27.508064 Si / 1000 Ang^3
#
#
#
# Elastic Constant Matrix: (Units=GPa)
#
#
# Indices 1 2 3 4 5 6 
#
# 1 147.9581 40.0151 0.2011 0.0000 0.0000 0.0000
# 2 40.0151 200.9087 26.3945 0.0000 0.0000 0.0000
# 3 0.2011 26.3945 140.4026 0.0000 0.0000 0.0000
# 4 0.0000 0.0000 0.0000 33.8072 0.0000 0.0000
# 5 0.0000 0.0000 0.0000 0.0000 31.8358 0.0000
# 6 0.0000 0.0000 0.0000 0.0000 0.0000 52.7863
#
#
#
# Elastic Compliance Matrix: (Units=1/GPa)
#
#
# Indices 1 2 3 4 5 6 
#
# 1 0.007153 -0.001459 0.000264 0.000000 0.000000 0.000000
# 2 -0.001459 0.005401 -0.001013 0.000000 0.000000 0.000000
# 3 0.000264 -0.001013 0.007312 0.000000 0.000000 0.000000
# 4 0.000000 0.000000 0.000000 0.029579 0.000000 0.000000
# 5 0.000000 0.000000 0.000000 0.000000 0.031411 0.000000
# 6 0.000000 0.000000 0.000000 0.000000 0.000000 0.018944
#
#
# Mechanical properties :
#
#
# Convention : Reuss Voigt Hill
#
# Bulk Modulus (GPa) = 64.72677 69.16565 66.94621
# Shear Modulus (GPa) = 45.71700 51.86312 48.79006
#
# Velocity S-wave (km/s) = 4.08112 4.34681 4.21606
# Velocity P-wave (km/s) = 6.76673 7.09868 6.93469
#
# Compressibility (1/GPa) = 0.01544956
#
# Stress axis : x y z
#
# Youngs Moduli (GPa) = 139.80156 185.14513 136.75245
#
# Poissons Ratio (x) = 0.27019 -0.03612
# Poissons Ratio (y) = 0.20402 0.13857
# Poissons Ratio (z) = -0.03692 0.18760
#
# Static dielectric constant tensor:
#      x y z
#    x 2.275270 0.000000 0.000000 
#    y 0.000000 2.110600 0.000000 
#    z 0.000000 0.000000 2.184560 
# 
# From -- ./inp_files/9704.got.cif
#   From: 2010.05.17/outbox.cif.g08.bks.cpg/sg60_5_cif.got.tgz:9704.got - 2010.06.03 14:59:27.
