data_PCOD9457339
_publ_section_title
;
Structure prediction by ZEFSAII (Michael W. Deem and Ramdas Pophale) SiO2 
 PCOD9457339
Probable space group: P B C N
;
_chemical_formula_sum "Si O2"
_cell_formula_units_Z 36
_cell_length_a 5.004205
_cell_length_b 24.848234
_cell_length_c 11.633271
_cell_angle_alpha 90.000000
_cell_angle_beta 90.000000
_cell_angle_gamma 90.000000
_cell_volume 1446.546724
_symmetry_space_group_name_H-M "P B C N"
_symmetry_group_IT_number 60
_symmetry_cell_setting 'orthorhombic'
loop_
_space_group_symop_operation_xyz
x,y,z
1/2-x,1/2-y,1/2+z
1/2+x,1/2-y,-z
-x,y,1/2-z
-x,-y,-z
1/2+x,1/2+y,1/2-z
1/2-x,1/2+y,z
x,-y,1/2+z
loop_
_atom_site_type_symbol
_atom_site_label
_atom_site_fract_x
_atom_site_fract_y
_atom_site_fract_z
Si Si1 0.557533 0.459278 0.121468
Si Si2 0.000000 0.810635 0.750000
Si Si3 0.058047 0.536105 0.120255
Si Si4 0.219033 0.237148 0.571170
Si Si5 0.225640 0.127523 0.474934
O O1 0.500000 0.438734 0.250000
O O2 0.346706 0.508852 0.112847
O O3 0.845488 0.486911 0.105525
O O4 0.484014 0.411644 0.036123
O O5 0.791486 0.771441 0.816712
O O6 0.877362 0.846434 0.645707
O O7 0.000000 0.553446 0.250000
O O8 0.973157 0.589046 0.052268
O O9 0.412247 0.259492 0.469072
O O10 0.291249 0.174400 0.565547
#
# Coordination Sequence:
#
# PCOD9457339 Si02
#       5
#     8   4   8   8   8
#     4  10  23  45  65 109 143 180 225 283 340 427
#     4  10  26  48  72 106 136 182 250 288 346 420
#     4  10  23  40  71 104 145 176 233 279 340 428
#     4  10  25  47  68 103 138 173 237 299 339 406
#     4  11  24  44  77  99 141 194 225 290 362 406
#
# _framework density 24.886854
#
# number of rings (size 3 to 8) (size 9 to 14) (size 15 to 20)
#    0.000    1.778    0.000    1.333    7.778    8.000 
#   22.000    0.000    0.000    0.000    0.000    0.000 
#    0.000    0.000    0.000    0.000    0.000    0.000 
#
# Total GULP energy -201408.992785 kJ/mol
# GULP energy per Si atom -5594.694244 kJ/mol
# Density = 2.483021 g / cm^3
# Si number density = 24.886854 Si / 1000 Ang^3
#
#
#
# Elastic Constant Matrix: (Units=GPa)
#
#
# Indices 1 2 3 4 5 6 
#
# 1 114.3413 46.1269 32.6588 0.0000 0.0000 0.0000
# 2 46.1269 174.3998 68.3845 0.0000 0.0000 0.0000
# 3 32.6588 68.3845 131.0759 0.0000 0.0000 0.0000
# 4 0.0000 0.0000 0.0000 78.5684 0.0000 0.0000
# 5 0.0000 0.0000 0.0000 0.0000 34.0308 0.0000
# 6 0.0000 0.0000 0.0000 0.0000 0.0000 44.3983
#
#
#
# Elastic Compliance Matrix: (Units=1/GPa)
#
#
# Indices 1 2 3 4 5 6 
#
# 1 0.009990 -0.002095 -0.001396 0.000000 0.000000 0.000000
# 2 -0.002095 0.007648 -0.003468 0.000000 0.000000 0.000000
# 3 -0.001396 -0.003468 0.009786 0.000000 0.000000 0.000000
# 4 0.000000 0.000000 0.000000 0.012728 0.000000 0.000000
# 5 0.000000 0.000000 0.000000 0.000000 0.029385 0.000000
# 6 0.000000 0.000000 0.000000 0.000000 0.000000 0.022523
#
#
# Mechanical properties :
#
#
# Convention : Reuss Voigt Hill
#
# Bulk Modulus (GPa) = 74.04161 79.35082 76.69621
# Shear Modulus (GPa) = 45.25707 49.57595 47.41651
#
# Velocity S-wave (km/s) = 4.26903 4.46809 4.36969
# Velocity P-wave (km/s) = 7.35631 7.65325 7.50625
#
# Compressibility (1/GPa) = 0.01350592
#
# Stress axis : x y z
#
# Youngs Moduli (GPa) = 100.10468 130.75549 102.18252
#
# Poissons Ratio (x) = 0.27389 0.14266
# Poissons Ratio (y) = 0.20969 0.35438
# Poissons Ratio (z) = 0.13976 0.45347
#
# Static dielectric constant tensor:
#      x y z
#    x 2.020400 0.000000 0.000000 
#    y 0.000000 1.944130 0.000000 
#    z 0.000000 0.000000 2.190710 
# 
# From -- ./inp_files/13704.got.cif
#   From: 2010.05.17/outbox.cif.g08.bks.cpg/sg60_7_cif.got.tgz:13704.got - 2010.06.03 14:59:27.
