data_PCOD9457243
_publ_section_title
;
Structure prediction by ZEFSAII (Michael W. Deem and Ramdas Pophale) SiO2 
 PCOD9457243
Probable space group: P B C N
;
_chemical_formula_sum "Si O2"
_cell_formula_units_Z 48
_cell_length_a 16.223945
_cell_length_b 10.474382
_cell_length_c 12.166145
_cell_angle_alpha 90.000000
_cell_angle_beta 90.000000
_cell_angle_gamma 90.000000
_cell_volume 2067.463553
_symmetry_space_group_name_H-M "P B C N"
_symmetry_group_IT_number 60
_symmetry_cell_setting 'orthorhombic'
loop_
_space_group_symop_operation_xyz
x,y,z
1/2-x,1/2-y,1/2+z
1/2+x,1/2-y,-z
-x,y,1/2-z
-x,-y,-z
1/2+x,1/2+y,1/2-z
1/2-x,1/2+y,z
x,-y,1/2+z
loop_
_atom_site_type_symbol
_atom_site_label
_atom_site_fract_x
_atom_site_fract_y
_atom_site_fract_z
Si Si1 0.179511 0.795648 0.661503
Si Si2 0.176617 0.913671 0.203085
Si Si3 0.701262 0.710001 0.582067
Si Si4 0.607875 0.102036 0.200773
Si Si5 0.390639 0.816014 0.371093
Si Si6 0.549226 0.765421 0.898203
O O1 0.250311 0.687094 0.675374
O O2 0.156943 0.784204 0.533990
O O3 0.115239 0.765304 0.759169
O O4 0.201604 0.944506 0.672859
O O5 0.167232 0.896370 0.334127
O O6 0.094145 0.863751 0.142431
O O7 0.689921 0.845266 0.644456
O O8 0.798981 0.686897 0.574418
O O9 0.540135 0.197909 0.147876
O O10 0.603024 0.126936 0.331032
O O11 0.590166 0.959297 0.167071
O O12 0.447897 0.774905 0.471247
#
# Coordination Sequence:
#
# PCOD9457243 Si02
#       6
#     8   8   8   8   8   8
#     4  11  25  39  67 105 138 174 237 291 341 408
#     4  10  24  40  67 100 137 187 222 291 351 405
#     4  10  24  38  67  96 139 174 232 284 345 406
#     4  10  24  44  70 100 137 194 223 288 358 411
#     4  11  24  37  70 103 137 176 240 287 341 412
#     4  10  22  46  70  95 143 181 235 286 350 425
#
# _framework density 23.216853
#
# number of rings (size 3 to 8) (size 9 to 14) (size 15 to 20)
#    0.000    1.667    1.667    0.500   21.000    0.000 
#    0.000    0.833    7.333    0.000    0.000    0.000 
#    0.000    0.000    0.000    0.000    0.000    0.000 
#
# Total GULP energy -267933.227920 kJ/mol
# GULP energy per Si atom -5581.942248 kJ/mol
# Density = 2.316401 g / cm^3
# Si number density = 23.216853 Si / 1000 Ang^3
#
#
#
# Elastic Constant Matrix: (Units=GPa)
#
#
# Indices 1 2 3 4 5 6 
#
# 1 51.4578 25.2347 1.0640 0.0000 0.0000 0.0000
# 2 25.2347 122.6486 28.4235 0.0000 0.0000 0.0000
# 3 1.0640 28.4235 168.5041 0.0000 0.0000 0.0000
# 4 0.0000 0.0000 0.0000 22.5197 0.0000 0.0000
# 5 0.0000 0.0000 0.0000 0.0000 26.0710 0.0000
# 6 0.0000 0.0000 0.0000 0.0000 0.0000 5.9874
#
#
#
# Elastic Compliance Matrix: (Units=1/GPa)
#
#
# Indices 1 2 3 4 5 6 
#
# 1 0.021680 -0.004609 0.000641 0.000000 0.000000 0.000000
# 2 -0.004609 0.009465 -0.001567 0.000000 0.000000 0.000000
# 3 0.000641 -0.001567 0.006195 0.000000 0.000000 0.000000
# 4 0.000000 0.000000 0.000000 0.044406 0.000000 0.000000
# 5 0.000000 0.000000 0.000000 0.000000 0.038357 0.000000
# 6 0.000000 0.000000 0.000000 0.000000 0.000000 0.167017
#
#
# Mechanical properties :
#
#
# Convention : Reuss Voigt Hill
#
# Bulk Modulus (GPa) = 38.06873 50.22832 44.14853
# Shear Modulus (GPa) = 16.28939 30.10816 23.19878
#
# Velocity S-wave (km/s) = 2.65168 3.60505 3.16448
# Velocity P-wave (km/s) = 5.08014 6.24579 5.69288
#
# Compressibility (1/GPa) = 0.02626828
#
# Stress axis : x y z
#
# Youngs Moduli (GPa) = 46.12445 105.65290 161.42232
#
# Poissons Ratio (x) = 0.48697 -0.10340
# Poissons Ratio (y) = 0.21260 0.25302
# Poissons Ratio (z) = -0.02955 0.16561
#
# Static dielectric constant tensor:
#      x y z
#    x 2.000370 0.000000 0.000000 
#    y 0.000000 1.828330 0.000000 
#    z 0.000000 0.000000 1.904960 
# 
# From -- ./inp_files/12797.got.cif
#   From: 2010.05.17/outbox.cif.g08.bks.cpg/sg60_7_cif.got.tgz:12797.got - 2010.06.03 14:59:27.
