data_PCOD9457284
_publ_section_title
;
Structure prediction by ZEFSAII (Michael W. Deem and Ramdas Pophale) SiO2 
 PCOD9457284
Probable space group: P B C N
;
_chemical_formula_sum "Si O2"
_cell_formula_units_Z 32
_cell_length_a 19.266200
_cell_length_b 7.190764
_cell_length_c 7.981829
_cell_angle_alpha 90.000000
_cell_angle_beta 90.000000
_cell_angle_gamma 90.000000
_cell_volume 1105.792192
_symmetry_space_group_name_H-M "P B C N"
_symmetry_group_IT_number 60
_symmetry_cell_setting 'orthorhombic'
loop_
_space_group_symop_operation_xyz
x,y,z
1/2-x,1/2-y,1/2+z
1/2+x,1/2-y,-z
-x,y,1/2-z
-x,-y,-z
1/2+x,1/2+y,1/2-z
1/2-x,1/2+y,z
x,-y,1/2+z
loop_
_atom_site_type_symbol
_atom_site_label
_atom_site_fract_x
_atom_site_fract_y
_atom_site_fract_z
Si Si1 0.796019 0.414217 0.199816
Si Si2 0.014455 0.214863 0.048977
Si Si3 0.667055 0.626515 0.464342
Si Si4 0.621067 0.224642 0.392054
O O1 0.709867 0.773138 0.353912
O O2 0.724314 0.439371 0.099304
O O3 0.847996 0.316563 0.073884
O O4 0.835981 0.594171 0.268141
O O5 0.000000 0.241235 0.250000
O O6 0.960144 0.317224 0.925221
O O7 0.095070 0.236479 0.000478
O O8 0.000000 0.000000 0.000000
O O9 0.637009 0.443911 0.369532
#
# Coordination Sequence:
#
# PCOD9457284 Si02
#       4
#     8   8   8   8
#     4  12  30  50  85 129 173 230 296 371 445 542
#     4  10  22  54  87 123 170 230 287 361 450 535
#     4  11  29  54  89 124 178 229 294 367 457 540
#     4  11  29  53  87 124 172 231 296 366 452 539
#
# _framework density 28.938528000000002
#
# number of rings (size 3 to 8) (size 9 to 14) (size 15 to 20)
#    0.000    1.000    2.500    0.000    7.000    5.000 
#    9.000    0.000    0.000    1.500    0.000    0.000 
#    0.000    0.000    0.000    0.000    0.000    0.000 
#
# Total GULP energy -179425.174610 kJ/mol
# GULP energy per Si atom -5607.036707 kJ/mol
# Density = 2.887266 g / cm^3
# Si number density = 28.938528 Si / 1000 Ang^3
#
#
#
# Elastic Constant Matrix: (Units=GPa)
#
#
# Indices 1 2 3 4 5 6 
#
# 1 232.9231 54.6182 113.1620 0.0000 0.0000 0.0000
# 2 54.6182 141.9779 62.7182 0.0000 0.0000 0.0000
# 3 113.1620 62.7182 138.5578 0.0000 0.0000 0.0000
# 4 0.0000 0.0000 0.0000 61.8617 0.0000 0.0000
# 5 0.0000 0.0000 0.0000 0.0000 65.6399 0.0000
# 6 0.0000 0.0000 0.0000 0.0000 0.0000 39.8934
#
#
#
# Elastic Compliance Matrix: (Units=1/GPa)
#
#
# Indices 1 2 3 4 5 6 
#
# 1 0.007122 -0.000213 -0.005721 0.000000 0.000000 0.000000
# 2 -0.000213 0.008810 -0.003814 0.000000 0.000000 0.000000
# 3 -0.005721 -0.003814 0.013616 0.000000 0.000000 0.000000
# 4 0.000000 0.000000 0.000000 0.016165 0.000000 0.000000
# 5 0.000000 0.000000 0.000000 0.000000 0.015235 0.000000
# 6 0.000000 0.000000 0.000000 0.000000 0.000000 0.025067
#
#
# Mechanical properties :
#
#
# Convention : Reuss Voigt Hill
#
# Bulk Modulus (GPa) = 99.47098 108.27286 103.87192
# Shear Modulus (GPa) = 45.93012 52.34301 49.13657
#
# Velocity S-wave (km/s) = 3.98824 4.25757 4.12511
# Velocity P-wave (km/s) = 7.46029 7.85272 7.65902
#
# Compressibility (1/GPa) = 0.01005318
#
# Stress axis : x y z
#
# Youngs Moduli (GPa) = 140.40070 113.50644 73.44437
#
# Poissons Ratio (x) = 0.02417 0.42015
# Poissons Ratio (y) = 0.02989 0.28012
# Poissons Ratio (z) = 0.80318 0.43291
#
# Static dielectric constant tensor:
#      x y z
#    x 2.277330 0.000000 0.000000 
#    y 0.000000 2.324780 0.000000 
#    z 0.000000 0.000000 2.314710 
# 
# From -- ./inp_files/5483.got.cif
#   From: 2010.05.17/outbox.cif.g08.bks.cpg/sg60_3_cif.got.tgz:5483.got - 2010.06.03 14:59:27.
