data_PCOD9457913
_publ_section_title
;
Structure prediction by ZEFSAII (Michael W. Deem and Ramdas Pophale) SiO2 
 PCOD9457913
Probable space group: P B C N
;
_chemical_formula_sum "Si O2"
_cell_formula_units_Z 40
_cell_length_a 13.474299
_cell_length_b 9.174725
_cell_length_c 12.570915
_cell_angle_alpha 90.000000
_cell_angle_beta 90.000000
_cell_angle_gamma 90.000000
_cell_volume 1554.054073
_symmetry_space_group_name_H-M "P B C N"
_symmetry_group_IT_number 60
_symmetry_cell_setting 'orthorhombic'
loop_
_space_group_symop_operation_xyz
x,y,z
1/2-x,1/2-y,1/2+z
1/2+x,1/2-y,-z
-x,y,1/2-z
-x,-y,-z
1/2+x,1/2+y,1/2-z
1/2-x,1/2+y,z
x,-y,1/2+z
loop_
_atom_site_type_symbol
_atom_site_label
_atom_site_fract_x
_atom_site_fract_y
_atom_site_fract_z
Si Si1 0.588959 0.250277 0.168822
Si Si2 0.776363 0.714914 0.901824
Si Si3 0.386222 0.936076 0.290542
Si Si4 0.923946 0.264861 0.993927
Si Si5 0.830029 0.018512 0.528581
O O1 0.500000 0.293550 0.250000
O O2 0.525799 0.201139 0.063632
O O3 0.645606 0.104209 0.201557
O O4 0.659818 0.383941 0.134791
O O5 0.822749 0.649435 0.796788
O O6 0.662227 0.768712 0.904552
O O7 0.761196 0.586300 0.990900
O O8 0.834973 0.857858 0.938332
O O9 0.500000 0.940299 0.250000
O O10 0.392004 0.859349 0.405318
O O11 0.918288 0.097866 0.032179
#
# Coordination Sequence:
#
# PCOD9457913 Si02
#       5
#     8   8   8   8   8
#     4  11  25  44  77 111 150 209 255 327 395 474
#     4  10  26  47  70 114 150 208 253 331 383 470
#     4  11  25  46  81 110 158 205 267 318 402 471
#     4  10  25  46  74 109 154 200 263 326 390 467
#     4  10  25  46  74 101 165 189 272 310 395 458
#
# _framework density 25.739131
#
# number of rings (size 3 to 8) (size 9 to 14) (size 15 to 20)
#    1.200    0.400    0.000    2.400    8.400    4.000 
#    3.600    0.000    0.000    0.000    0.000    0.000 
#    0.000    0.000    0.000    0.000    0.000    0.000 
#
# Total GULP energy -223420.877712 kJ/mol
# GULP energy per Si atom -5585.521943 kJ/mol
# Density = 2.568055 g / cm^3
# Si number density = 25.739131 Si / 1000 Ang^3
#
#
#
# Elastic Constant Matrix: (Units=GPa)
#
#
# Indices 1 2 3 4 5 6 
#
# 1 60.3432 20.9367 40.7939 0.0000 0.0000 0.0000
# 2 20.9367 195.5615 69.6730 0.0000 0.0000 0.0000
# 3 40.7939 69.6730 108.8853 0.0000 0.0000 0.0000
# 4 0.0000 0.0000 0.0000 45.2020 0.0000 0.0000
# 5 0.0000 0.0000 0.0000 0.0000 56.4585 0.0000
# 6 0.0000 0.0000 0.0000 0.0000 0.0000 30.1461
#
#
#
# Elastic Compliance Matrix: (Units=1/GPa)
#
#
# Indices 1 2 3 4 5 6 
#
# 1 0.022280 0.000762 -0.008835 0.000000 0.000000 0.000000
# 2 0.000762 0.006650 -0.004540 0.000000 0.000000 0.000000
# 3 -0.008835 -0.004540 0.015399 0.000000 0.000000 0.000000
# 4 0.000000 0.000000 0.000000 0.022123 0.000000 0.000000
# 5 0.000000 0.000000 0.000000 0.000000 0.017712 0.000000
# 6 0.000000 0.000000 0.000000 0.000000 0.000000 0.033172
#
#
# Mechanical properties :
#
#
# Convention : Reuss Voigt Hill
#
# Bulk Modulus (GPa) = 52.34870 69.73304 61.04087
# Shear Modulus (GPa) = 33.57286 41.92041 37.74664
#
# Velocity S-wave (km/s) = 3.61550 4.04005 3.83366
# Velocity P-wave (km/s) = 6.14910 6.99383 6.58503
#
# Compressibility (1/GPa) = 0.01910267
#
# Stress axis : x y z
#
# Youngs Moduli (GPa) = 44.88298 150.38712 64.93764
#
# Poissons Ratio (x) = -0.11465 0.57373
# Poissons Ratio (y) = -0.03422 0.29485
# Poissons Ratio (z) = 0.39655 0.68283
#
# Static dielectric constant tensor:
#      x y z
#    x 2.081450 0.000000 0.000000 
#    y 0.000000 1.984860 0.000000 
#    z 0.000000 0.000000 2.094220 
# 
# From -- ./inp_files/12292.got.cif
#   From: 2010.05.17/outbox.cif.g08.bks.cpg/sg60_7_cif.got.tgz:12292.got - 2010.06.03 14:59:27.
