data_PCOD9457286
_publ_section_title
;
Structure prediction by ZEFSAII (Michael W. Deem and Ramdas Pophale) SiO2 
 PCOD9457286
Probable space group: P B C N
;
_chemical_formula_sum "Si O2"
_cell_formula_units_Z 56
_cell_length_a 21.321449
_cell_length_b 13.234548
_cell_length_c 9.252011
_cell_angle_alpha 90.000000
_cell_angle_beta 90.000000
_cell_angle_gamma 90.000000
_cell_volume 2610.730060
_symmetry_space_group_name_H-M "P B C N"
_symmetry_group_IT_number 60
_symmetry_cell_setting 'orthorhombic'
loop_
_space_group_symop_operation_xyz
x,y,z
1/2-x,1/2-y,1/2+z
1/2+x,1/2-y,-z
-x,y,1/2-z
-x,-y,-z
1/2+x,1/2+y,1/2-z
1/2-x,1/2+y,z
x,-y,1/2+z
loop_
_atom_site_type_symbol
_atom_site_label
_atom_site_fract_x
_atom_site_fract_y
_atom_site_fract_z
Si Si1 0.479517 0.241874 0.604411
Si Si2 0.907846 0.330391 0.912938
Si Si3 0.117787 0.438850 0.134364
Si Si4 0.730820 0.212961 0.368591
Si Si5 0.797804 0.128614 0.631874
Si Si6 0.563342 0.661681 0.679701
Si Si7 0.202609 0.537522 0.362079
O O1 0.500000 0.295784 0.750000
O O2 0.542218 0.199281 0.531460
O O3 0.432636 0.149594 0.638937
O O4 0.449812 0.313280 0.485654
O O5 0.912006 0.449864 0.888727
O O6 0.836781 0.296440 0.948766
O O7 0.925094 0.266909 0.768101
O O8 0.157255 0.458470 0.279155
O O9 0.164235 0.422391 0.998624
O O10 0.784629 0.195979 0.487595
O O11 0.732020 0.312793 0.269979
O O12 0.723734 0.122415 0.251576
O O13 0.869343 0.108950 0.677962
O O14 0.762944 0.025549 0.593674
O O15 0.500000 0.616283 0.750000
#
# Coordination Sequence:
#
# PCOD9457286 Si02
#       7
#     8   8   8   8   8   8   8
#     4  11  21  29  54  83 117 160 193 236 289 355
#     4   9  18  36  47  77 117 157 190 229 284 359
#     4  11  20  33  53  81 124 161 192 233 284 367
#     4  10  23  36  58  88 118 157 203 246 300 368
#     4  11  22  39  65  85 119 164 197 252 311 353
#     4   9  21  39  56  77 114 151 201 247 301 358
#     4  11  22  38  56  87 127 152 204 250 293 355
#
# _framework density 21.449939000000001
#
# number of rings (size 3 to 8) (size 9 to 14) (size 15 to 20)
#    0.000    1.714    2.857    3.857    4.000    1.714 
#    0.000    0.000    0.000    0.857    0.000    0.000 
#    0.000    0.000    0.000    0.000    0.000    0.000 
#
# Total GULP energy -312757.681583 kJ/mol
# GULP energy per Si atom -5584.958600 kJ/mol
# Density = 2.140112 g / cm^3
# Si number density = 21.449939 Si / 1000 Ang^3
#
#
#
# Elastic Constant Matrix: (Units=GPa)
#
#
# Indices 1 2 3 4 5 6 
#
# 1 79.1877 11.7303 33.9285 0.0000 0.0000 0.0000
# 2 11.7303 14.0688 -0.3223 0.0000 0.0000 0.0000
# 3 33.9285 -0.3223 82.9820 0.0000 0.0000 0.0000
# 4 0.0000 0.0000 0.0000 -10.4852 0.0000 0.0000
# 5 0.0000 0.0000 0.0000 0.0000 25.5380 0.0000
# 6 0.0000 0.0000 0.0000 0.0000 0.0000 4.7785
#
#
#
# Elastic Compliance Matrix: (Units=1/GPa)
#
#
# Indices 1 2 3 4 5 6 
#
# 1 0.018079 -0.015245 -0.007451 0.000000 0.000000 0.000000
# 2 -0.015245 0.083940 0.006559 0.000000 0.000000 0.000000
# 3 -0.007451 0.006559 0.015123 0.000000 0.000000 0.000000
# 4 0.000000 0.000000 0.000000 -0.095373 0.000000 0.000000
# 5 0.000000 0.000000 0.000000 0.000000 0.039157 0.000000
# 6 0.000000 0.000000 0.000000 0.000000 0.000000 0.209271
#
#
# Mechanical properties :
#
#
# Convention : Reuss Voigt Hill
#
# Bulk Modulus (GPa) = 11.78290 29.65683 20.71987
# Shear Modulus (GPa) = 15.11667 12.69306 13.90487
#
# Velocity S-wave (km/s) = 2.65758 2.43524 2.54883
# Velocity P-wave (km/s) = 3.86291 4.66511 4.28283
#
# Compressibility (1/GPa) = 0.08486872
#
# Stress axis : x y z
#
# Youngs Moduli (GPa) = 55.31309 11.91324 66.12543
#
# Poissons Ratio (x) = 0.18161 0.49270
# Poissons Ratio (y) = 0.84323 -0.43372
# Poissons Ratio (z) = 0.41214 -0.07814
#
# Static dielectric constant tensor:
#      x y z
#    x 1.808170 0.000000 0.000000 
#    y 0.000000 1.781080 0.000000 
#    z 0.000000 0.000000 1.795730 
# 
# From -- ./inp_files/7385.got.cif
#   From: 2010.05.17/outbox.cif.g08.bks.cpg/sg60_4_cif.got.tgz:7385.got - 2010.06.03 14:59:27.
