data_PCOD9457093
_publ_section_title
;
Structure prediction by ZEFSAII (Michael W. Deem and Ramdas Pophale) SiO2 
 PCOD9457093
Probable space group: P B C N
;
_chemical_formula_sum "Si O2"
_cell_formula_units_Z 52
_cell_length_a 8.752962
_cell_length_b 11.241766
_cell_length_c 24.196385
_cell_angle_alpha 90.000000
_cell_angle_beta 90.000000
_cell_angle_gamma 90.000000
_cell_volume 2380.894053
_symmetry_space_group_name_H-M "P B C N"
_symmetry_group_IT_number 60
_symmetry_cell_setting 'orthorhombic'
loop_
_space_group_symop_operation_xyz
x,y,z
1/2-x,1/2-y,1/2+z
1/2+x,1/2-y,-z
-x,y,1/2-z
-x,-y,-z
1/2+x,1/2+y,1/2-z
1/2-x,1/2+y,z
x,-y,1/2+z
loop_
_atom_site_type_symbol
_atom_site_label
_atom_site_fract_x
_atom_site_fract_y
_atom_site_fract_z
Si Si1 0.781269 0.717002 0.011132
Si Si2 0.000000 0.192105 0.750000
Si Si3 0.108389 0.016167 0.671879
Si Si4 0.363668 0.897622 0.102865
Si Si5 0.074248 0.396297 0.536847
Si Si6 0.828148 0.813092 0.739300
Si Si7 0.578863 0.672831 0.115484
O O1 0.677264 0.665080 0.059995
O O2 0.953149 0.710361 0.034293
O O3 0.780877 0.643580 0.953820
O O4 0.724185 0.846314 0.992379
O O5 0.837502 0.258451 0.753010
O O6 0.014412 0.106086 0.803237
O O7 0.158232 0.928142 0.721128
O O8 0.044885 0.932222 0.623147
O O9 0.245476 0.098187 0.651876
O O10 0.495152 0.801228 0.112214
O O11 0.409764 0.035706 0.094231
O O12 0.000000 0.500000 0.500000
O O13 0.829797 0.835009 0.673247
O O14 0.000000 0.753964 0.750000
#
# Coordination Sequence:
#
# PCOD9457093 Si02
#       7
#     8   4   8   8   8   8   8
#     4  11  22  41  66 101 140 179 235 285 343 441
#     4  12  24  48  74 110 134 192 250 294 388 428
#     4  11  23  46  70 101 144 183 242 303 359 437
#     4  11  24  42  72  99 144 195 225 294 371 421
#     4  10  22  43  62  96 141 183 229 282 350 417
#     4  10  24  47  70 103 147 182 246 314 354 447
#     4  11  22  44  68  99 146 183 236 307 349 435
#
# _framework density 21.840536
#
# number of rings (size 3 to 8) (size 9 to 14) (size 15 to 20)
#    0.000    1.231    5.385    2.769    0.000    4.308 
#    6.923    0.000    0.000    0.000    0.000    0.000 
#    0.000    0.000    0.000    0.000    0.000    0.000 
#
# Total GULP energy -289745.095022 kJ/mol
# GULP energy per Si atom -5572.021058 kJ/mol
# Density = 2.179083 g / cm^3
# Si number density = 21.840536 Si / 1000 Ang^3
#
#
#
# Elastic Constant Matrix: (Units=GPa)
#
#
# Indices 1 2 3 4 5 6 
#
# 1 79.9109 18.8979 26.5084 0.0000 0.0000 0.0000
# 2 18.8979 34.9168 12.0413 0.0000 0.0000 0.0000
# 3 26.5084 12.0413 106.5249 0.0000 0.0000 0.0000
# 4 0.0000 0.0000 0.0000 29.3006 0.0000 0.0000
# 5 0.0000 0.0000 0.0000 0.0000 36.4801 0.0000
# 6 0.0000 0.0000 0.0000 0.0000 0.0000 29.5024
#
#
#
# Elastic Compliance Matrix: (Units=1/GPa)
#
#
# Indices 1 2 3 4 5 6 
#
# 1 0.015202 -0.007204 -0.002969 0.000000 0.000000 0.000000
# 2 -0.007204 0.033215 -0.001962 0.000000 0.000000 0.000000
# 3 -0.002969 -0.001962 0.010348 0.000000 0.000000 0.000000
# 4 0.000000 0.000000 0.000000 0.034129 0.000000 0.000000
# 5 0.000000 0.000000 0.000000 0.000000 0.027412 0.000000
# 6 0.000000 0.000000 0.000000 0.000000 0.000000 0.033896
#
#
# Mechanical properties :
#
#
# Convention : Reuss Voigt Hill
#
# Bulk Modulus (GPa) = 28.98877 37.36087 33.17482
# Shear Modulus (GPa) = 26.31986 29.98360 28.15173
#
# Velocity S-wave (km/s) = 3.47521 3.70921 3.59411
# Velocity P-wave (km/s) = 5.42259 5.95715 5.69615
#
# Compressibility (1/GPa) = 0.03449611
#
# Stress axis : x y z
#
# Youngs Moduli (GPa) = 65.77887 30.10674 96.63708
#
# Poissons Ratio (x) = 0.21689 0.28689
# Poissons Ratio (y) = 0.47388 0.18958
# Poissons Ratio (z) = 0.19528 0.05906
#
# Static dielectric constant tensor:
#      x y z
#    x 1.851340 0.000000 0.000000 
#    y 0.000000 1.883840 0.000000 
#    z 0.000000 0.000000 1.887180 
# 
# From -- ./inp_files/25188.got.cif
#   From: 2010.05.17/outbox.cif.g08.bks.cpg/sg60_13_cif.got.tgz:25188.got - 2010.06.03 14:59:27.
