data_PCOD9457724
_publ_section_title
;
Structure prediction by ZEFSAII (Michael W. Deem and Ramdas Pophale) SiO2 
 PCOD9457724
Probable space group: P B C N
;
_chemical_formula_sum "Si O2"
_cell_formula_units_Z 60
_cell_length_a 29.240116
_cell_length_b 8.257585
_cell_length_c 11.498332
_cell_angle_alpha 90.000000
_cell_angle_beta 90.000000
_cell_angle_gamma 90.000000
_cell_volume 2776.303805
_symmetry_space_group_name_H-M "P B C N"
_symmetry_group_IT_number 60
_symmetry_cell_setting 'orthorhombic'
loop_
_space_group_symop_operation_xyz
x,y,z
1/2-x,1/2-y,1/2+z
1/2+x,1/2-y,-z
-x,y,1/2-z
-x,-y,-z
1/2+x,1/2+y,1/2-z
1/2-x,1/2+y,z
x,-y,1/2+z
loop_
_atom_site_type_symbol
_atom_site_label
_atom_site_fract_x
_atom_site_fract_y
_atom_site_fract_z
Si Si1 0.815343 0.256065 0.421392
Si Si2 0.908912 0.152071 0.816052
Si Si3 0.500000 0.749293 0.250000
Si Si4 0.453669 0.797029 0.474992
Si Si5 0.813307 0.794122 0.191214
Si Si6 0.047951 0.662984 0.396398
Si Si7 0.915866 0.218549 0.371139
Si Si8 0.745243 0.018702 0.305965
O O1 0.824384 0.235972 0.557391
O O2 0.863510 0.266414 0.353231
O O3 0.785206 0.107570 0.375985
O O4 0.783174 0.406146 0.392185
O O5 0.913618 0.222198 0.947059
O O6 0.857917 0.156381 0.764260
O O7 0.938370 0.261372 0.726617
O O8 0.924261 0.964329 0.826483
O O9 0.474404 0.688328 0.368799
O O10 0.455485 0.827966 0.187891
O O11 0.495274 0.818645 0.565890
O O12 0.441498 0.972656 0.420412
O O13 0.791294 0.636324 0.248567
O O14 0.772465 0.922728 0.206306
O O15 0.074789 0.767141 0.492661
#
# Coordination Sequence:
#
# PCOD9457724 Si02
#       8
#     8   8   4   8   8   8   8   8
#     4  11  22  45  68  96 140 172 225 286 340 415
#     4  12  25  40  71 101 135 179 231 281 347 411
#     4  10  26  44  68 100 142 182 238 276 356 404
#     4  10  25  43  68  96 131 182 229 283 331 408
#     4  11  23  42  68 101 134 179 225 280 342 413
#     4  10  24  44  67  94 138 175 229 284 338 397
#     4  11  25  43  66 101 140 184 222 288 341 414
#     4  10  24  43  68 100 134 177 224 279 351 412
#
# _framework density 21.611467999999999
#
# number of rings (size 3 to 8) (size 9 to 14) (size 15 to 20)
#    0.000    1.333    2.667    1.200   11.200    1.067 
#    0.000    1.333    0.000    0.000    0.000    0.000 
#    0.000    0.000    0.000    0.000    0.000    0.000 
#
# Total GULP energy -334562.604063 kJ/mol
# GULP energy per Si atom -5576.043401 kJ/mol
# Density = 2.156228 g / cm^3
# Si number density = 21.611468 Si / 1000 Ang^3
#
#
#
# Elastic Constant Matrix: (Units=GPa)
#
#
# Indices 1 2 3 4 5 6 
#
# 1 107.8837 36.4653 51.3079 0.0000 0.0000 0.0000
# 2 36.4653 74.6686 23.4498 0.0000 0.0000 0.0000
# 3 51.3079 23.4498 119.0565 0.0000 0.0000 0.0000
# 4 0.0000 0.0000 0.0000 67.4899 0.0000 0.0000
# 5 0.0000 0.0000 0.0000 0.0000 41.4143 0.0000
# 6 0.0000 0.0000 0.0000 0.0000 0.0000 34.1005
#
#
#
# Elastic Compliance Matrix: (Units=1/GPa)
#
#
# Indices 1 2 3 4 5 6 
#
# 1 0.013183 -0.004961 -0.004704 0.000000 0.000000 0.000000
# 2 -0.004961 0.016142 -0.001042 0.000000 0.000000 0.000000
# 3 -0.004704 -0.001042 0.010632 0.000000 0.000000 0.000000
# 4 0.000000 0.000000 0.000000 0.014817 0.000000 0.000000
# 5 0.000000 0.000000 0.000000 0.000000 0.024146 0.000000
# 6 0.000000 0.000000 0.000000 0.000000 0.000000 0.029325
#
#
# Mechanical properties :
#
#
# Convention : Reuss Voigt Hill
#
# Bulk Modulus (GPa) = 53.92552 58.22831 56.07692
# Shear Modulus (GPa) = 36.80784 41.29332 39.05058
#
# Velocity S-wave (km/s) = 4.13142 4.37591 4.25542
# Velocity P-wave (km/s) = 6.91119 7.24798 7.08159
#
# Compressibility (1/GPa) = 0.01854409
#
# Stress axis : x y z
#
# Youngs Moduli (GPa) = 75.85340 61.94907 94.05690
#
# Poissons Ratio (x) = 0.30732 0.44247
# Poissons Ratio (y) = 0.37630 0.09797
# Poissons Ratio (z) = 0.35684 0.06452
#
# Static dielectric constant tensor:
#      x y z
#    x 1.728580 0.000000 0.000000 
#    y 0.000000 1.776170 0.000000 
#    z 0.000000 0.000000 1.771400 
# 
# From -- ./inp_files/13382.got.cif
#   From: 2010.05.17/outbox.cif.g08.bks.cpg/sg60_7_cif.got.tgz:13382.got - 2010.06.03 14:59:27.
