data_PCOD9457399
_publ_section_title
;
Structure prediction by ZEFSAII (Michael W. Deem and Ramdas Pophale) SiO2 
 PCOD9457399
Probable space group: P B C N
;
_chemical_formula_sum "Si O2"
_cell_formula_units_Z 52
_cell_length_a 24.165653
_cell_length_b 8.786167
_cell_length_c 11.985854
_cell_angle_alpha 90.000000
_cell_angle_beta 90.000000
_cell_angle_gamma 90.000000
_cell_volume 2544.878027
_symmetry_space_group_name_H-M "P B C N"
_symmetry_group_IT_number 60
_symmetry_cell_setting 'orthorhombic'
loop_
_space_group_symop_operation_xyz
x,y,z
1/2-x,1/2-y,1/2+z
1/2+x,1/2-y,-z
-x,y,1/2-z
-x,-y,-z
1/2+x,1/2+y,1/2-z
1/2-x,1/2+y,z
x,-y,1/2+z
loop_
_atom_site_type_symbol
_atom_site_label
_atom_site_fract_x
_atom_site_fract_y
_atom_site_fract_z
Si Si1 0.569704 0.768009 0.893160
Si Si2 0.435100 0.877978 0.137306
Si Si3 0.176894 0.720797 0.516457
Si Si4 0.500000 0.548421 0.750000
Si Si5 0.821449 0.244862 0.746496
Si Si6 0.257068 0.485222 0.634295
Si Si7 0.446400 0.727347 0.362047
O O1 0.523049 0.654815 0.847611
O O2 0.620882 0.746683 0.810969
O O3 0.553340 0.945116 0.884838
O O4 0.584537 0.728984 0.020973
O O5 0.382309 0.823308 0.068387
O O6 0.423840 0.842888 0.268364
O O7 0.490856 0.783835 0.111490
O O8 0.172033 0.736322 0.384576
O O9 0.221126 0.591050 0.551687
O O10 0.200666 0.876232 0.569008
O O11 0.546201 0.435817 0.697279
O O12 0.785202 0.381188 0.797227
O O13 0.789813 0.091683 0.780318
#
# Coordination Sequence:
#
# PCOD9457399 Si02
#       7
#     8   8   8   4   8   8   8
#     4  12  24  40  69  98 128 169 220 264 327 384
#     4  10  23  42  67  96 128 178 213 265 328 382
#     4  11  23  44  69  95 135 164 221 268 322 390
#     4  10  24  42  62  96 132 172 216 260 322 390
#     4  11  25  41  69  99 125 174 216 264 335 379
#     4  10  24  46  62  97 131 172 213 271 326 383
#     4  10  25  45  62  94 140 172 215 269 323 389
#
# _framework density 20.433201
#
# number of rings (size 3 to 8) (size 9 to 14) (size 15 to 20)
#    0.000    1.538    1.538    2.769    8.615    1.231 
#   11.077    0.000    0.000    0.000    0.000    0.000 
#    0.000    0.000    0.000    0.000    0.000    0.000 
#
# Total GULP energy -290816.459554 kJ/mol
# GULP energy per Si atom -5592.624222 kJ/mol
# Density = 2.038669 g / cm^3
# Si number density = 20.433201 Si / 1000 Ang^3
#
#
#
# Elastic Constant Matrix: (Units=GPa)
#
#
# Indices 1 2 3 4 5 6 
#
# 1 35.2685 22.2101 24.5405 0.0000 0.0000 0.0000
# 2 22.2101 110.7959 58.4736 0.0000 0.0000 0.0000
# 3 24.5405 58.4736 176.4280 0.0000 0.0000 0.0000
# 4 0.0000 0.0000 0.0000 26.8798 0.0000 0.0000
# 5 0.0000 0.0000 0.0000 0.0000 23.5090 0.0000
# 6 0.0000 0.0000 0.0000 0.0000 0.0000 16.2278
#
#
#
# Elastic Compliance Matrix: (Units=1/GPa)
#
#
# Indices 1 2 3 4 5 6 
#
# 1 0.033684 -0.005187 -0.002966 0.000000 0.000000 0.000000
# 2 -0.005187 0.011738 -0.003169 0.000000 0.000000 0.000000
# 3 -0.002966 -0.003169 0.007131 0.000000 0.000000 0.000000
# 4 0.000000 0.000000 0.000000 0.037203 0.000000 0.000000
# 5 0.000000 0.000000 0.000000 0.000000 0.042537 0.000000
# 6 0.000000 0.000000 0.000000 0.000000 0.000000 0.061623
#
#
# Mechanical properties :
#
#
# Convention : Reuss Voigt Hill
#
# Bulk Modulus (GPa) = 33.43467 59.21563 46.32515
# Shear Modulus (GPa) = 22.07229 27.80788 24.94008
#
# Velocity S-wave (km/s) = 3.29023 3.69306 3.49745
# Velocity P-wave (km/s) = 5.55271 6.87226 6.24742
#
# Compressibility (1/GPa) = 0.02990907
#
# Stress axis : x y z
#
# Youngs Moduli (GPa) = 29.68743 85.19551 140.23560
#
# Poissons Ratio (x) = 0.44190 0.41598
# Poissons Ratio (y) = 0.15398 0.44437
# Poissons Ratio (z) = 0.08806 0.26996
#
# Static dielectric constant tensor:
#      x y z
#    x 1.730470 0.000000 0.000000 
#    y 0.000000 1.665380 0.000000 
#    z 0.000000 0.000000 1.699670 
# 
# From -- ./inp_files/13260.got.cif
#   From: 2010.05.17/outbox.cif.g08.bks.cpg/sg60_7_cif.got.tgz:13260.got - 2010.06.03 14:59:27.
