data_PCOD9457793
_publ_section_title
;
Structure prediction by ZEFSAII (Michael W. Deem and Ramdas Pophale) SiO2 
 PCOD9457793
Probable space group: P B C N
;
_chemical_formula_sum "Si O2"
_cell_formula_units_Z 60
_cell_length_a 9.100621
_cell_length_b 24.238756
_cell_length_c 10.639364
_cell_angle_alpha 90.000000
_cell_angle_beta 90.000000
_cell_angle_gamma 90.000000
_cell_volume 2346.913173
_symmetry_space_group_name_H-M "P B C N"
_symmetry_group_IT_number 60
_symmetry_cell_setting 'orthorhombic'
loop_
_space_group_symop_operation_xyz
x,y,z
1/2-x,1/2-y,1/2+z
1/2+x,1/2-y,-z
-x,y,1/2-z
-x,-y,-z
1/2+x,1/2+y,1/2-z
1/2-x,1/2+y,z
x,-y,1/2+z
loop_
_atom_site_type_symbol
_atom_site_label
_atom_site_fract_x
_atom_site_fract_y
_atom_site_fract_z
Si Si1 0.453218 0.908287 0.550814
Si Si2 0.218146 0.056587 0.476290
Si Si3 0.783605 0.024410 0.306084
Si Si4 0.842270 0.222806 0.532521
Si Si5 0.847776 0.346656 0.177189
Si Si6 0.528036 0.629955 0.380639
Si Si7 0.500000 0.187637 0.250000
Si Si8 0.167440 0.782801 0.153937
O O1 0.611759 0.929322 0.510504
O O2 0.371358 0.951634 0.641728
O O3 0.362834 0.895402 0.423553
O O4 0.484908 0.852788 0.631361
O O5 0.210012 0.020810 0.345387
O O6 0.119770 0.110753 0.449749
O O7 0.173135 0.026172 0.604408
O O8 0.891672 0.073709 0.343824
O O9 0.688161 0.209762 0.602921
O O10 0.800878 0.272185 0.440609
O O11 0.859383 0.166464 0.454759
O O12 0.006648 0.220293 0.591182
O O13 0.708452 0.338847 0.271777
O O14 0.000000 0.345383 0.250000
O O15 0.500000 0.660523 0.250000
O O16 0.643413 0.227761 0.256919
#
# Coordination Sequence:
#
# PCOD9457793 Si02
#       8
#     8   8   8   8   8   8   4   8
#     4  12  25  46  73 101 149 192 244 306 369 451
#     4  11  25  43  77 110 144 193 249 310 388 470
#     4  11  22  48  73 107 146 190 250 309 388 468
#     4  12  25  49  72 104 153 200 250 311 373 451
#     4  12  27  46  68 109 150 191 253 310 376 443
#     4  10  24  45  73 105 142 194 248 300 377 458
#     4  12  22  44  74  96 140 192 240 292 364 430
#     4  12  27  45  71 106 143 199 253 310 374 435
#
# _framework density 25.565496
#
# number of rings (size 3 to 8) (size 9 to 14) (size 15 to 20)
#    0.000    0.533    5.333    1.600    3.733    2.667 
#    0.000    0.000    0.000    0.000    0.000    0.000 
#    0.000    0.000    0.000    0.000    0.000    0.000 
#
# Total GULP energy -334888.466330 kJ/mol
# GULP energy per Si atom -5581.474439 kJ/mol
# Density = 2.550731 g / cm^3
# Si number density = 25.565496 Si / 1000 Ang^3
#
#
#
# Elastic Constant Matrix: (Units=GPa)
#
#
# Indices 1 2 3 4 5 6 
#
# 1 96.0158 0.9135 33.2239 0.0000 0.0000 0.0000
# 2 0.9135 36.0339 24.4450 0.0000 0.0000 0.0000
# 3 33.2239 24.4450 98.1024 0.0000 0.0000 0.0000
# 4 0.0000 0.0000 0.0000 5.7023 0.0000 0.0000
# 5 0.0000 0.0000 0.0000 0.0000 50.6863 0.0000
# 6 0.0000 0.0000 0.0000 0.0000 0.0000 10.3177
#
#
#
# Elastic Compliance Matrix: (Units=1/GPa)
#
#
# Indices 1 2 3 4 5 6 
#
# 1 0.012055 0.002965 -0.004822 0.000000 0.000000 0.000000
# 2 0.002965 0.034126 -0.009508 0.000000 0.000000 0.000000
# 3 -0.004822 -0.009508 0.014195 0.000000 0.000000 0.000000
# 4 0.000000 0.000000 0.000000 0.175367 0.000000 0.000000
# 5 0.000000 0.000000 0.000000 0.000000 0.019729 0.000000
# 6 0.000000 0.000000 0.000000 0.000000 0.000000 0.096921
#
#
# Mechanical properties :
#
#
# Convention : Reuss Voigt Hill
#
# Bulk Modulus (GPa) = 26.56120 38.59077 32.57599
# Shear Modulus (GPa) = 12.89750 24.77925 18.83838
#
# Velocity S-wave (km/s) = 2.24852 3.11665 2.71747
# Velocity P-wave (km/s) = 4.14164 5.29896 4.75563
#
# Compressibility (1/GPa) = 0.03764890
#
# Stress axis : x y z
#
# Youngs Moduli (GPa) = 82.95238 29.30275 70.44508
#
# Poissons Ratio (x) = -0.08689 0.33965
# Poissons Ratio (y) = -0.24598 0.66978
# Poissons Ratio (z) = 0.39996 0.27861
#
# Static dielectric constant tensor:
#      x y z
#    x 2.019760 0.000000 0.000000 
#    y 0.000000 2.046390 0.000000 
#    z 0.000000 0.000000 2.677800 
# 
# From -- ./inp_files/10310.got.cif
#   From: 2010.05.17/outbox.cif.g08.bks.cpg/sg60_6_cif.got.tgz:10310.got - 2010.06.03 14:59:27.
