data_PCOD9457083
_publ_section_title
;
Structure prediction by ZEFSAII (Michael W. Deem and Ramdas Pophale) SiO2 
 PCOD9457083
Probable space group: P B C N
;
_chemical_formula_sum "Si O2"
_cell_formula_units_Z 56
_cell_length_a 5.523056
_cell_length_b 31.485146
_cell_length_c 14.424127
_cell_angle_alpha 90.000000
_cell_angle_beta 90.000000
_cell_angle_gamma 90.000000
_cell_volume 2508.272379
_symmetry_space_group_name_H-M "P B C N"
_symmetry_group_IT_number 60
_symmetry_cell_setting 'orthorhombic'
loop_
_space_group_symop_operation_xyz
x,y,z
1/2-x,1/2-y,1/2+z
1/2+x,1/2-y,-z
-x,y,1/2-z
-x,-y,-z
1/2+x,1/2+y,1/2-z
1/2-x,1/2+y,z
x,-y,1/2+z
loop_
_atom_site_type_symbol
_atom_site_label
_atom_site_fract_x
_atom_site_fract_y
_atom_site_fract_z
Si Si1 0.220733 0.856444 0.152961
Si Si2 0.007890 0.452982 0.458320
Si Si3 0.000000 0.574873 0.750000
Si Si4 0.482642 0.178124 0.002081
Si Si5 0.997425 0.904194 0.498514
Si Si6 0.899133 0.163375 0.353117
Si Si7 0.000000 0.222329 0.750000
Si Si8 0.323684 0.260507 0.903092
O O1 0.282777 0.892351 0.227093
O O2 0.178604 0.810798 0.198094
O O3 0.442969 0.853273 0.080007
O O4 0.001404 0.871902 0.089053
O O5 0.030565 0.451083 0.345459
O O6 0.251879 0.430223 0.497564
O O7 0.000000 0.500000 0.500000
O O8 0.746410 0.432061 0.484841
O O9 0.363915 0.160009 0.095651
O O10 0.722146 0.203858 0.028725
O O11 0.332584 0.216080 0.955427
O O12 0.969533 0.873387 0.586572
O O13 0.000000 0.155503 0.250000
O O14 0.945593 0.214277 0.365650
O O15 0.857963 0.251697 0.679763
#
# Coordination Sequence:
#
# PCOD9457083 Si02
#       8
#     8   8   4   8   8   8   4   8
#     4  11  22  42  69 102 138 185 239 308 364 425
#     4  11  25  49  79 111 148 177 222 288 364 453
#     4  10  22  42  74 113 136 184 230 285 360 448
#     4  12  23  43  61  89 136 188 246 303 377 405
#     4  11  24  48  72 105 143 186 230 288 367 431
#     4  12  26  43  64  92 134 189 246 296 352 437
#     4  12  24  36  60 101 134 178 252 311 358 432
#     4  12  24  38  58  89 131 187 240 308 364 410
#
# _framework density 22.326124
#
# number of rings (size 3 to 8) (size 9 to 14) (size 15 to 20)
#    0.000    0.571    2.857    6.429    2.000    1.714 
#    2.571    0.000    0.000    0.000    0.000    0.000 
#    0.000    0.000    0.000    0.000    0.000    0.000 
#
# Total GULP energy -312504.615698 kJ/mol
# GULP energy per Si atom -5580.439566 kJ/mol
# Density = 2.227531 g / cm^3
# Si number density = 22.326124 Si / 1000 Ang^3
#
#
#
# Elastic Constant Matrix: (Units=GPa)
#
#
# Indices 1 2 3 4 5 6 
#
# 1 103.9620 43.1104 36.5955 0.0000 0.0000 0.0000
# 2 43.1104 124.1592 55.5137 0.0000 0.0000 0.0000
# 3 36.5955 55.5137 145.1953 0.0000 0.0000 0.0000
# 4 0.0000 0.0000 0.0000 8.7757 0.0000 0.0000
# 5 0.0000 0.0000 0.0000 0.0000 33.5714 0.0000
# 6 0.0000 0.0000 0.0000 0.0000 0.0000 42.2734
#
#
#
# Elastic Compliance Matrix: (Units=1/GPa)
#
#
# Indices 1 2 3 4 5 6 
#
# 1 0.011561 -0.003270 -0.001663 0.000000 0.000000 0.000000
# 2 -0.003270 0.010640 -0.003244 0.000000 0.000000 0.000000
# 3 -0.001663 -0.003244 0.008547 0.000000 0.000000 0.000000
# 4 0.000000 0.000000 0.000000 0.113952 0.000000 0.000000
# 5 0.000000 0.000000 0.000000 0.000000 0.029787 0.000000
# 6 0.000000 0.000000 0.000000 0.000000 0.000000 0.023656
#
#
# Mechanical properties :
#
#
# Convention : Reuss Voigt Hill
#
# Bulk Modulus (GPa) = 69.48166 71.52841 70.50503
# Shear Modulus (GPa) = 22.80042 32.79722 27.79882
#
# Velocity S-wave (km/s) = 3.19916 3.83692 3.53246
# Velocity P-wave (km/s) = 6.69589 7.19283 6.94880
#
# Compressibility (1/GPa) = 0.01439229
#
# Stress axis : x y z
#
# Youngs Moduli (GPa) = 86.50118 93.98438 117.00328
#
# Poissons Ratio (x) = 0.30736 0.19462
# Poissons Ratio (y) = 0.28289 0.37954
# Poissons Ratio (z) = 0.14389 0.30487
#
# Static dielectric constant tensor:
#      x y z
#    x 3.585300 0.000000 0.000000 
#    y 0.000000 1.827290 0.000000 
#    z 0.000000 0.000000 1.929690 
# 
# From -- ./inp_files/14139.got.cif
#   From: 2010.05.17/outbox.cif.g08.bks.cpg/sg60_8_cif.got.tgz:14139.got - 2010.06.03 14:59:27.
