data_PCOD9457873
_publ_section_title
;
Structure prediction by ZEFSAII (Michael W. Deem and Ramdas Pophale) SiO2 
 PCOD9457873
Probable space group: P B C N
;
_chemical_formula_sum "Si O2"
_cell_formula_units_Z 36
_cell_length_a 18.493726
_cell_length_b 8.328994
_cell_length_c 8.780346
_cell_angle_alpha 90.000000
_cell_angle_beta 90.000000
_cell_angle_gamma 90.000000
_cell_volume 1352.472983
_symmetry_space_group_name_H-M "P B C N"
_symmetry_group_IT_number 60
_symmetry_cell_setting 'orthorhombic'
loop_
_space_group_symop_operation_xyz
x,y,z
1/2-x,1/2-y,1/2+z
1/2+x,1/2-y,-z
-x,y,1/2-z
-x,-y,-z
1/2+x,1/2+y,1/2-z
1/2-x,1/2+y,z
x,-y,1/2+z
loop_
_atom_site_type_symbol
_atom_site_label
_atom_site_fract_x
_atom_site_fract_y
_atom_site_fract_z
Si Si1 0.310394 0.279394 0.211606
Si Si2 0.264703 0.464637 0.907912
Si Si3 0.108452 0.429387 0.506209
Si Si4 0.000000 0.034626 0.750000
Si Si5 0.532288 0.737898 0.452192
O O1 0.248464 0.160442 0.271683
O O2 0.320072 0.402311 0.349700
O O3 0.376644 0.169023 0.161287
O O4 0.287137 0.376955 0.061865
O O5 0.186915 0.550721 0.930415
O O6 0.084145 0.610011 0.539575
O O7 0.046074 0.327024 0.422707
O O8 0.024531 0.146605 0.887566
O O9 0.051675 0.903762 0.665697
#
# Coordination Sequence:
#
# PCOD9457873 Si02
#       5
#     8   8   8   4   8
#     4  12  25  47  73 109 154 205 258 310 381 449
#     4  12  25  48  71 112 154 203 256 315 382 455
#     4  11  26  46  79 109 155 200 251 312 387 467
#     4  10  24  50  68 110 146 188 254 308 376 458
#     4  10  26  48  77 111 149 195 252 315 393 454
#
# _framework density 26.617905
#
# number of rings (size 3 to 8) (size 9 to 14) (size 15 to 20)
#    0.000    0.889    4.444    0.000    6.222    3.556 
#   12.000    0.000    0.000    0.000    0.000    0.000 
#    0.000    0.000    0.000    0.000    0.000    0.000 
#
# Total GULP energy -201623.982987 kJ/mol
# GULP energy per Si atom -5600.666194 kJ/mol
# Density = 2.655732 g / cm^3
# Si number density = 26.617905 Si / 1000 Ang^3
#
#
#
# Elastic Constant Matrix: (Units=GPa)
#
#
# Indices 1 2 3 4 5 6 
#
# 1 98.7150 72.1015 21.4640 0.0000 0.0000 0.0000
# 2 72.1015 208.8290 79.3701 0.0000 0.0000 0.0000
# 3 21.4640 79.3701 108.8949 0.0000 0.0000 0.0000
# 4 0.0000 0.0000 0.0000 62.2778 0.0000 0.0000
# 5 0.0000 0.0000 0.0000 0.0000 22.9710 0.0000
# 6 0.0000 0.0000 0.0000 0.0000 0.0000 41.1797
#
#
#
# Elastic Compliance Matrix: (Units=1/GPa)
#
#
# Indices 1 2 3 4 5 6 
#
# 1 0.013629 -0.005096 0.001028 0.000000 0.000000 0.000000
# 2 -0.005096 0.008529 -0.005212 0.000000 0.000000 0.000000
# 3 0.001028 -0.005212 0.012779 0.000000 0.000000 0.000000
# 4 0.000000 0.000000 0.000000 0.016057 0.000000 0.000000
# 5 0.000000 0.000000 0.000000 0.000000 0.043533 0.000000
# 6 0.000000 0.000000 0.000000 0.000000 0.000000 0.024284
#
#
# Mechanical properties :
#
#
# Convention : Reuss Voigt Hill
#
# Bulk Modulus (GPa) = 61.06100 84.70111 72.88105
# Shear Modulus (GPa) = 35.00628 41.51926 38.26277
#
# Velocity S-wave (km/s) = 3.63042 3.95375 3.79553
# Velocity P-wave (km/s) = 6.36890 7.26175 6.82993
#
# Compressibility (1/GPa) = 0.01637707
#
# Stress axis : x y z
#
# Youngs Moduli (GPa) = 73.37270 117.24392 78.25060
#
# Poissons Ratio (x) = 0.59753 -0.08046
# Poissons Ratio (y) = 0.37394 0.40785
# Poissons Ratio (z) = -0.07545 0.61109
#
# Static dielectric constant tensor:
#      x y z
#    x 2.144590 0.000000 0.000000 
#    y 0.000000 2.052880 0.000000 
#    z 0.000000 0.000000 2.102730 
# 
# From -- ./inp_files/7177.got.cif
#   From: 2010.05.17/outbox.cif.g08.bks.cpg/sg60_4_cif.got.tgz:7177.got - 2010.06.03 14:59:27.
