data_PCOD9457036
_publ_section_title
;
Structure prediction by ZEFSAII (Michael W. Deem and Ramdas Pophale) SiO2 
 PCOD9457036
Probable space group: P B C N
;
_chemical_formula_sum "Si O2"
_cell_formula_units_Z 36
_cell_length_a 8.296884
_cell_length_b 22.100518
_cell_length_c 9.184348
_cell_angle_alpha 90.000000
_cell_angle_beta 90.000000
_cell_angle_gamma 90.000000
_cell_volume 1684.091959
_symmetry_space_group_name_H-M "P B C N"
_symmetry_group_IT_number 60
_symmetry_cell_setting 'orthorhombic'
loop_
_space_group_symop_operation_xyz
x,y,z
1/2-x,1/2-y,1/2+z
1/2+x,1/2-y,-z
-x,y,1/2-z
-x,-y,-z
1/2+x,1/2+y,1/2-z
1/2-x,1/2+y,z
x,-y,1/2+z
loop_
_atom_site_type_symbol
_atom_site_label
_atom_site_fract_x
_atom_site_fract_y
_atom_site_fract_z
Si Si1 0.500000 0.633552 0.250000
Si Si2 0.309700 0.069685 0.754075
Si Si3 0.337999 0.465627 0.946743
Si Si4 0.245272 0.200779 0.808289
Si Si5 0.426631 0.746698 0.059256
O O1 0.617128 0.589594 0.160145
O O2 0.423926 0.680218 0.133820
O O3 0.500000 0.081883 0.750000
O O4 0.249970 0.056630 0.591462
O O5 0.221859 0.129308 0.815121
O O6 0.267472 0.013314 0.856191
O O7 0.500000 0.500000 0.000000
O O8 0.408391 0.220414 0.895416
O O9 0.285442 0.216958 0.642114
O O10 0.108141 0.237799 0.890616
#
# Coordination Sequence:
#
# PCOD9457036 Si02
#       5
#     4   8   8   8   8
#     4  10  22  42  66  96 128 170 232 276 322 412
#     4  12  25  44  67  99 143 174 228 287 348 401
#     4  12  24  44  68  98 134 184 227 276 335 415
#     4  10  23  43  64  97 127 175 215 278 335 402
#     4  10  23  42  66  89 135 164 224 272 330 403
#
# _framework density 21.376505000000002
#
# number of rings (size 3 to 8) (size 9 to 14) (size 15 to 20)
#    0.000    1.333    4.444    2.000    6.222    0.889 
#    0.000    0.000    0.000    0.000    0.000    0.000 
#    0.000    0.000    0.000    0.000    0.000    0.000 
#
# Total GULP energy -201287.541816 kJ/mol
# GULP energy per Si atom -5591.320606 kJ/mol
# Density = 2.132785 g / cm^3
# Si number density = 21.376505 Si / 1000 Ang^3
#
#
#
# Elastic Constant Matrix: (Units=GPa)
#
#
# Indices 1 2 3 4 5 6 
#
# 1 40.2098 -2.1720 21.4308 0.0000 0.0000 0.0000
# 2 -2.1720 110.9289 25.7604 0.0000 0.0000 0.0000
# 3 21.4308 25.7604 115.9512 0.0000 0.0000 0.0000
# 4 0.0000 0.0000 0.0000 -2.9347 0.0000 0.0000
# 5 0.0000 0.0000 0.0000 0.0000 40.6236 0.0000
# 6 0.0000 0.0000 0.0000 0.0000 0.0000 7.1345
#
#
#
# Elastic Compliance Matrix: (Units=1/GPa)
#
#
# Indices 1 2 3 4 5 6 
#
# 1 0.027939 0.001841 -0.005573 0.000000 0.000000 0.000000
# 2 0.001841 0.009627 -0.002479 0.000000 0.000000 0.000000
# 3 -0.005573 -0.002479 0.010205 0.000000 0.000000 0.000000
# 4 0.000000 0.000000 0.000000 -0.340746 0.000000 0.000000
# 5 0.000000 0.000000 0.000000 0.000000 0.024616 0.000000
# 6 0.000000 0.000000 0.000000 0.000000 0.000000 0.140164
#
#
# Mechanical properties :
#
#
# Convention : Reuss Voigt Hill
#
# Bulk Modulus (GPa) = 28.28900 39.68092 33.98496
# Shear Modulus (GPa) = -48.08142 23.76939 -12.15602
#
# Velocity S-wave (km/s) = -4.74779 3.33819 -2.38725
# Velocity P-wave (km/s) = 4.09791 5.78457 2.88690
#
# Compressibility (1/GPa) = 0.03534942
#
# Stress axis : x y z
#
# Youngs Moduli (GPa) = 35.79193 103.87979 97.99034
#
# Poissons Ratio (x) = -0.19127 0.54610
# Poissons Ratio (y) = -0.06590 0.24292
# Poissons Ratio (z) = 0.19947 0.25752
#
# Static dielectric constant tensor:
#      x y z
#    x 1.807230 0.000000 0.000000 
#    y 0.000000 1.759040 0.000000 
#    z 0.000000 0.000000 1.792590 
# 
# From -- ./inp_files/3679.got.cif
#   From: 2010.05.17/outbox.cif.g08.bks.cpg/sg60_2_cif.got.tgz:3679.got - 2010.06.03 14:59:27.
