data_PCOD9457851
_publ_section_title
;
Structure prediction by ZEFSAII (Michael W. Deem and Ramdas Pophale) SiO2 
 PCOD9457851
Probable space group: P B C N
;
_chemical_formula_sum "Si O2"
_cell_formula_units_Z 48
_cell_length_a 24.082699
_cell_length_b 7.716690
_cell_length_c 9.095631
_cell_angle_alpha 90.000000
_cell_angle_beta 90.000000
_cell_angle_gamma 90.000000
_cell_volume 1690.320446
_symmetry_space_group_name_H-M "P B C N"
_symmetry_group_IT_number 60
_symmetry_cell_setting 'orthorhombic'
loop_
_space_group_symop_operation_xyz
x,y,z
1/2-x,1/2-y,1/2+z
1/2+x,1/2-y,-z
-x,y,1/2-z
-x,-y,-z
1/2+x,1/2+y,1/2-z
1/2-x,1/2+y,z
x,-y,1/2+z
loop_
_atom_site_type_symbol
_atom_site_label
_atom_site_fract_x
_atom_site_fract_y
_atom_site_fract_z
Si Si1 0.574179 0.934919 0.115763
Si Si2 0.738006 0.880036 0.308805
Si Si3 0.693627 0.409978 0.611688
Si Si4 0.529643 0.711232 0.471202
Si Si5 0.364857 0.122290 0.149965
Si Si6 0.081606 0.975047 0.278106
O O1 0.591475 0.986570 0.278054
O O2 0.629013 0.888336 0.024461
O O3 0.528319 0.788579 0.089255
O O4 0.553950 0.115557 0.046991
O O5 0.777572 0.914676 0.170375
O O6 0.694794 0.041434 0.314497
O O7 0.703118 0.715220 0.253787
O O8 0.774579 0.866855 0.458643
O O9 0.628924 0.453753 0.612267
O O10 0.565155 0.614600 0.345602
O O11 0.468527 0.414810 0.385789
O O12 0.388708 0.305875 0.205067
#
# Coordination Sequence:
#
# PCOD9457851 Si02
#       6
#     8   8   8   8   8   8
#     4  10  24  48  76 107 149 207 261 314 387 471
#     4  12  26  46  76 111 153 204 258 325 401 482
#     4  12  26  46  74 111 153 200 258 323 399 477
#     4  10  24  47  77 109 151 203 260 321 388 464
#     4  11  25  48  77 111 153 202 261 323 394 472
#     4  11  25  47  76 115 155 199 260 329 393 468
#
# _framework density 28.396984
#
# number of rings (size 3 to 8) (size 9 to 14) (size 15 to 20)
#    0.000    1.000    0.000    5.000    0.000   16.000 
#    0.000    6.667    0.000    3.000    0.000    0.000 
#    0.000    0.000    0.000    0.000    0.000    0.000 
#
# Total GULP energy -269003.055519 kJ/mol
# GULP energy per Si atom -5604.230323 kJ/mol
# Density = 2.833235 g / cm^3
# Si number density = 28.396984 Si / 1000 Ang^3
#
#
#
# Elastic Constant Matrix: (Units=GPa)
#
#
# Indices 1 2 3 4 5 6 
#
# 1 134.1148 47.2221 45.2839 0.0000 0.0000 0.0000
# 2 47.2221 175.4489 52.8482 0.0000 0.0000 0.0000
# 3 45.2839 52.8482 183.4294 0.0000 0.0000 0.0000
# 4 0.0000 0.0000 0.0000 61.4366 0.0000 0.0000
# 5 0.0000 0.0000 0.0000 0.0000 57.9382 0.0000
# 6 0.0000 0.0000 0.0000 0.0000 0.0000 44.2672
#
#
#
# Elastic Compliance Matrix: (Units=1/GPa)
#
#
# Indices 1 2 3 4 5 6 
#
# 1 0.008647 -0.001844 -0.001603 0.000000 0.000000 0.000000
# 2 -0.001844 0.006635 -0.001456 0.000000 0.000000 0.000000
# 3 -0.001603 -0.001456 0.006267 0.000000 0.000000 0.000000
# 4 0.000000 0.000000 0.000000 0.016277 0.000000 0.000000
# 5 0.000000 0.000000 0.000000 0.000000 0.017260 0.000000
# 6 0.000000 0.000000 0.000000 0.000000 0.000000 0.022590
#
#
# Mechanical properties :
#
#
# Convention : Reuss Voigt Hill
#
# Bulk Modulus (GPa) = 85.17195 87.07794 86.12495
# Shear Modulus (GPa) = 54.70625 55.90433 55.30529
#
# Velocity S-wave (km/s) = 4.39393 4.44178 4.41792
# Velocity P-wave (km/s) = 7.46998 7.55229 7.51125
#
# Compressibility (1/GPa) = 0.01174095
#
# Stress axis : x y z
#
# Youngs Moduli (GPa) = 115.64587 150.72219 159.56438
#
# Poissons Ratio (x) = 0.27799 0.25584
# Poissons Ratio (y) = 0.21330 0.23236
# Poissons Ratio (z) = 0.18542 0.21948
#
# Static dielectric constant tensor:
#      x y z
#    x 2.196910 0.000000 0.000000 
#    y 0.000000 2.311990 0.000000 
#    z 0.000000 0.000000 2.133880 
# 
# From -- ./inp_files/17867.got.cif
#   From: 2010.05.17/outbox.cif.g08.bks.cpg/sg60_9_cif.got.tgz:17867.got - 2010.06.03 14:59:27.
