data_PCOD9457950
_publ_section_title
;
Structure prediction by ZEFSAII (Michael W. Deem and Ramdas Pophale) SiO2 
 PCOD9457950
Probable space group: P B C N
;
_chemical_formula_sum "Si O2"
_cell_formula_units_Z 44
_cell_length_a 15.557770
_cell_length_b 5.053552
_cell_length_c 26.066852
_cell_angle_alpha 90.000000
_cell_angle_beta 90.000000
_cell_angle_gamma 90.000000
_cell_volume 2049.428030
_symmetry_space_group_name_H-M "P B C N"
_symmetry_group_IT_number 60
_symmetry_cell_setting 'orthorhombic'
loop_
_space_group_symop_operation_xyz
x,y,z
1/2-x,1/2-y,1/2+z
1/2+x,1/2-y,-z
-x,y,1/2-z
-x,-y,-z
1/2+x,1/2+y,1/2-z
1/2-x,1/2+y,z
x,-y,1/2+z
loop_
_atom_site_type_symbol
_atom_site_label
_atom_site_fract_x
_atom_site_fract_y
_atom_site_fract_z
Si Si1 0.640884 0.298970 0.367897
Si Si2 0.960680 0.753182 0.529607
Si Si3 0.694436 0.819056 0.756859
Si Si4 0.533902 0.195913 0.859879
Si Si5 0.000000 0.461008 0.250000
Si Si6 0.206777 0.629602 0.020874
O O1 0.694832 0.209569 0.318871
O O2 0.614929 0.605178 0.364787
O O3 0.679782 0.214346 0.421874
O O4 0.556567 0.114261 0.364369
O O5 0.860253 0.741266 0.519270
O O6 0.000000 0.500000 0.500000
O O7 0.979294 0.760721 0.589926
O O8 0.000000 0.000000 0.500000
O O9 0.741490 0.551588 0.738979
O O10 0.592245 0.879622 0.746481
O O11 0.502054 0.217280 0.801503
O O12 0.210225 0.315494 0.014622
#
# Coordination Sequence:
#
# PCOD9457950 Si02
#       6
#     8   8   8   8   4   8
#     4  11  21  38  64  95 131 165 215 283 351 387
#     4  12  22  42  64  90 128 176 217 264 333 413
#     4  11  23  41  64  97 135 174 224 284 344 400
#     4  11  22  41  66  95 127 178 222 280 326 407
#     4  10  26  44  70 100 136 182 242 278 344 416
#     4  12  23  36  59  95 131 166 211 272 337 402
#
# _framework density 21.469403
#
# number of rings (size 3 to 8) (size 9 to 14) (size 15 to 20)
#    0.000    0.727    3.636    5.455    0.000    6.545 
#    0.000    1.818    0.000    0.000    0.000    0.000 
#    0.000    0.000    0.000    0.000    0.000    0.000 
#
# Total GULP energy -245460.981733 kJ/mol
# GULP energy per Si atom -5578.658676 kJ/mol
# Density = 2.142054 g / cm^3
# Si number density = 21.469403 Si / 1000 Ang^3
#
#
#
# Elastic Constant Matrix: (Units=GPa)
#
#
# Indices 1 2 3 4 5 6 
#
# 1 73.9589 15.8318 26.3898 0.0000 0.0000 0.0000
# 2 15.8318 100.1986 22.3382 0.0000 0.0000 0.0000
# 3 26.3898 22.3382 111.8046 0.0000 0.0000 0.0000
# 4 0.0000 0.0000 0.0000 21.6586 0.0000 0.0000
# 5 0.0000 0.0000 0.0000 0.0000 38.9561 0.0000
# 6 0.0000 0.0000 0.0000 0.0000 0.0000 30.7012
#
#
#
# Elastic Compliance Matrix: (Units=1/GPa)
#
#
# Indices 1 2 3 4 5 6 
#
# 1 0.015023 -0.001657 -0.003215 0.000000 0.000000 0.000000
# 2 -0.001657 0.010628 -0.001732 0.000000 0.000000 0.000000
# 3 -0.003215 -0.001732 0.010049 0.000000 0.000000 0.000000
# 4 0.000000 0.000000 0.000000 0.046171 0.000000 0.000000
# 5 0.000000 0.000000 0.000000 0.000000 0.025670 0.000000
# 6 0.000000 0.000000 0.000000 0.000000 0.000000 0.032572
#
#
# Mechanical properties :
#
#
# Convention : Reuss Voigt Hill
#
# Bulk Modulus (GPa) = 44.46070 46.12018 45.29044
# Shear Modulus (GPa) = 31.09089 33.02333 32.05711
#
# Velocity S-wave (km/s) = 3.80958 3.92619 3.86833
# Velocity P-wave (km/s) = 6.33280 6.48704 6.41039
#
# Compressibility (1/GPa) = 0.02249177
#
# Stress axis : x y z
#
# Youngs Moduli (GPa) = 66.56532 94.08935 99.51126
#
# Poissons Ratio (x) = 0.15590 0.31991
# Poissons Ratio (y) = 0.11030 0.17239
# Poissons Ratio (z) = 0.21400 0.16300
#
# Static dielectric constant tensor:
#      x y z
#    x 1.897310 0.000000 0.000000 
#    y 0.000000 1.819820 0.000000 
#    z 0.000000 0.000000 1.751160 
# 
# From -- ./inp_files/25391.got.cif
#   From: 2010.05.17/outbox.cif.g08.bks.cpg/sg60_13_cif.got.tgz:25391.got - 2010.06.03 14:59:27.
