data_PCOD9457292
_publ_section_title
;
Structure prediction by ZEFSAII (Michael W. Deem and Ramdas Pophale) SiO2 
 PCOD9457292
Probable space group: P B C N
;
_chemical_formula_sum "Si O2"
_cell_formula_units_Z 56
_cell_length_a 29.627338
_cell_length_b 14.420678
_cell_length_c 5.263207
_cell_angle_alpha 90.000000
_cell_angle_beta 90.000000
_cell_angle_gamma 90.000000
_cell_volume 2248.685724
_symmetry_space_group_name_H-M "P B C N"
_symmetry_group_IT_number 60
_symmetry_cell_setting 'orthorhombic'
loop_
_space_group_symop_operation_xyz
x,y,z
1/2-x,1/2-y,1/2+z
1/2+x,1/2-y,-z
-x,y,1/2-z
-x,-y,-z
1/2+x,1/2+y,1/2-z
1/2-x,1/2+y,z
x,-y,1/2+z
loop_
_atom_site_type_symbol
_atom_site_label
_atom_site_fract_x
_atom_site_fract_y
_atom_site_fract_z
Si Si1 0.972611 0.242320 0.988908
Si Si2 0.839650 0.102910 0.959676
Si Si3 0.379344 0.224038 0.808063
Si Si4 0.310924 0.758034 0.926905
Si Si5 0.932426 0.050918 0.777339
Si Si6 0.674403 0.946265 0.019600
Si Si7 0.741067 0.394267 0.769447
O O1 0.929212 0.297370 0.097847
O O2 0.000000 0.222831 0.250000
O O3 0.953008 0.148892 0.858049
O O4 0.000000 0.286272 0.750000
O O5 0.814512 0.180501 0.789966
O O6 0.877446 0.053146 0.789798
O O7 0.870822 0.166922 0.141334
O O8 0.799981 0.055665 0.122943
O O9 0.361304 0.216128 0.520893
O O10 0.345635 0.156647 0.961196
O O11 0.282144 0.851274 0.894982
O O12 0.283795 0.699422 0.137674
O O13 0.946211 0.021275 0.496357
O O14 0.729063 0.939694 0.993665
O O15 0.659414 0.002101 0.773173
#
# Coordination Sequence:
#
# PCOD9457292 Si02
#       7
#     8   8   8   8   8   8   8
#     4  11  26  45  77 106 125 166 224 287 343 412
#     4  10  23  37  67  90 131 188 237 279 318 384
#     4  10  24  43  67  97 131 170 231 282 334 416
#     4  11  19  37  67  91 126 181 229 293 330 371
#     4  11  26  44  64  97 145 183 212 262 342 411
#     4  12  27  42  63  95 138 184 218 275 348 399
#     4  11  21  36  59  95 129 176 239 286 318 375
#
# _framework density 24.903435999999999
#
# number of rings (size 3 to 8) (size 9 to 14) (size 15 to 20)
#    0.000    1.143    2.857    2.571   12.000    2.857 
#    0.000    0.000    0.000    2.571    0.000    0.000 
#    0.000    0.000    0.000    0.000    0.000    0.000 
#
# Total GULP energy -313007.458818 kJ/mol
# GULP energy per Si atom -5589.418907 kJ/mol
# Density = 2.484675 g / cm^3
# Si number density = 24.903436 Si / 1000 Ang^3
#
#
#
# Elastic Constant Matrix: (Units=GPa)
#
#
# Indices 1 2 3 4 5 6 
#
# 1 122.4961 9.6395 19.7616 0.0000 0.0000 0.0000
# 2 9.6395 38.0800 6.7539 0.0000 0.0000 0.0000
# 3 19.7616 6.7539 102.9004 0.0000 0.0000 0.0000
# 4 0.0000 0.0000 0.0000 29.9812 0.0000 0.0000
# 5 0.0000 0.0000 0.0000 0.0000 35.1753 0.0000
# 6 0.0000 0.0000 0.0000 0.0000 0.0000 22.4831
#
#
#
# Elastic Compliance Matrix: (Units=1/GPa)
#
#
# Indices 1 2 3 4 5 6 
#
# 1 0.008558 -0.001897 -0.001519 0.000000 0.000000 0.000000
# 2 -0.001897 0.026990 -0.001407 0.000000 0.000000 0.000000
# 3 -0.001519 -0.001407 0.010102 0.000000 0.000000 0.000000
# 4 0.000000 0.000000 0.000000 0.033354 0.000000 0.000000
# 5 0.000000 0.000000 0.000000 0.000000 0.028429 0.000000
# 6 0.000000 0.000000 0.000000 0.000000 0.000000 0.044478
#
#
# Mechanical properties :
#
#
# Convention : Reuss Voigt Hill
#
# Bulk Modulus (GPa) = 27.77462 37.30962 32.54212
# Shear Modulus (GPa) = 28.80863 32.68269 30.74566
#
# Velocity S-wave (km/s) = 3.40489 3.62660 3.51749
# Velocity P-wave (km/s) = 5.16089 5.70531 5.43992
#
# Compressibility (1/GPa) = 0.03600409
#
# Stress axis : x y z
#
# Youngs Moduli (GPa) = 116.85181 37.05033 98.98820
#
# Poissons Ratio (x) = 0.07028 0.15036
# Poissons Ratio (y) = 0.22166 0.13930
# Poissons Ratio (z) = 0.17750 0.05214
#
# Static dielectric constant tensor:
#      x y z
#    x 2.031130 0.000000 0.000000 
#    y 0.000000 1.950180 0.000000 
#    z 0.000000 0.000000 2.130980 
# 
# From -- ./inp_files/2692.got.cif
#   From: 2010.05.17/outbox.cif.g08.bks.cpg/sg60_2_cif.got.tgz:2692.got - 2010.06.03 14:59:27.
