data_PCOD9457715
_publ_section_title
;
Structure prediction by ZEFSAII (Michael W. Deem and Ramdas Pophale) SiO2 
 PCOD9457715
Probable space group: P B C N
;
_chemical_formula_sum "Si O2"
_cell_formula_units_Z 32
_cell_length_a 7.582286
_cell_length_b 22.363004
_cell_length_c 8.022469
_cell_angle_alpha 90.000000
_cell_angle_beta 90.000000
_cell_angle_gamma 90.000000
_cell_volume 1360.311441
_symmetry_space_group_name_H-M "P B C N"
_symmetry_group_IT_number 60
_symmetry_cell_setting 'orthorhombic'
loop_
_space_group_symop_operation_xyz
x,y,z
1/2-x,1/2-y,1/2+z
1/2+x,1/2-y,-z
-x,y,1/2-z
-x,-y,-z
1/2+x,1/2+y,1/2-z
1/2-x,1/2+y,z
x,-y,1/2+z
loop_
_atom_site_type_symbol
_atom_site_label
_atom_site_fract_x
_atom_site_fract_y
_atom_site_fract_z
Si Si1 0.559467 0.065143 0.941774
Si Si2 0.932986 0.122271 0.937833
Si Si3 0.827343 0.767175 0.635588
Si Si4 0.717939 0.845870 0.922362
O O1 0.500000 0.073122 0.750000
O O2 0.766568 0.078861 0.963587
O O3 0.446896 0.112825 0.045142
O O4 0.500000 0.000000 0.000000
O O5 0.000000 0.115360 0.750000
O O6 0.101201 0.115985 0.061158
O O7 0.866700 0.189579 0.979086
O O8 0.766610 0.703892 0.568370
O O9 0.000000 0.757485 0.750000
O O10 0.708571 0.807768 0.754493
#
# Coordination Sequence:
#
# PCOD9457715 Si02
#       4
#     8   8   8   8
#     4  12  29  50  73 104 145 199 256 311 377 457
#     4  11  24  46  71 103 142 192 238 309 373 441
#     4  10  24  42  73 113 150 193 242 306 387 457
#     4  11  24  47  72 109 150 190 250 303 383 453
#
# _framework density 23.524021999999999
#
# number of rings (size 3 to 8) (size 9 to 14) (size 15 to 20)
#    0.000    1.000    2.500    2.250   10.500    1.000 
#    0.000    0.000    0.000    0.000    0.000    0.000 
#    0.000    0.000    0.000    0.000    0.000    0.000 
#
# Total GULP energy -179240.029626 kJ/mol
# GULP energy per Si atom -5601.250926 kJ/mol
# Density = 2.347048 g / cm^3
# Si number density = 23.524022 Si / 1000 Ang^3
#
#
#
# Elastic Constant Matrix: (Units=GPa)
#
#
# Indices 1 2 3 4 5 6 
#
# 1 172.6795 80.0170 52.0319 0.0000 0.0000 0.0000
# 2 80.0170 121.9488 57.7912 0.0000 0.0000 0.0000
# 3 52.0319 57.7912 85.0645 0.0000 0.0000 0.0000
# 4 0.0000 0.0000 0.0000 33.6557 0.0000 0.0000
# 5 0.0000 0.0000 0.0000 0.0000 35.8747 0.0000
# 6 0.0000 0.0000 0.0000 0.0000 0.0000 28.4442
#
#
#
# Elastic Compliance Matrix: (Units=1/GPa)
#
#
# Indices 1 2 3 4 5 6 
#
# 1 0.008567 -0.004628 -0.002096 0.000000 0.000000 0.000000
# 2 -0.004628 0.014594 -0.007084 0.000000 0.000000 0.000000
# 3 -0.002096 -0.007084 0.017851 0.000000 0.000000 0.000000
# 4 0.000000 0.000000 0.000000 0.029713 0.000000 0.000000
# 5 0.000000 0.000000 0.000000 0.000000 0.027875 0.000000
# 6 0.000000 0.000000 0.000000 0.000000 0.000000 0.035157
#
#
# Mechanical properties :
#
#
# Convention : Reuss Voigt Hill
#
# Bulk Modulus (GPa) = 74.65208 84.37478 79.51343
# Shear Modulus (GPa) = 30.15001 32.25179 31.20090
#
# Velocity S-wave (km/s) = 3.58392 3.70674 3.64585
# Velocity P-wave (km/s) = 6.99495 7.36649 7.18312
#
# Compressibility (1/GPa) = 0.01339547
#
# Stress axis : x y z
#
# Youngs Moduli (GPa) = 116.72341 68.52151 56.02024
#
# Poissons Ratio (x) = 0.31712 0.11743
# Poissons Ratio (y) = 0.54020 0.39685
# Poissons Ratio (z) = 0.24467 0.48541
#
# Static dielectric constant tensor:
#      x y z
#    x 1.956430 0.000000 0.000000 
#    y 0.000000 1.813130 0.000000 
#    z 0.000000 0.000000 1.940990 
# 
# From -- ./inp_files/3608.got.cif
#   From: 2010.05.17/outbox.cif.g08.bks.cpg/sg60_2_cif.got.tgz:3608.got - 2010.06.03 14:59:27.
