data_PCOD9457678
_publ_section_title
;
Structure prediction by ZEFSAII (Michael W. Deem and Ramdas Pophale) SiO2 
 PCOD9457678
Probable space group: P B C N
;
_chemical_formula_sum "Si O2"
_cell_formula_units_Z 36
_cell_length_a 7.918528
_cell_length_b 10.117305
_cell_length_c 19.968015
_cell_angle_alpha 90.000000
_cell_angle_beta 90.000000
_cell_angle_gamma 90.000000
_cell_volume 1599.720807
_symmetry_space_group_name_H-M "P B C N"
_symmetry_group_IT_number 60
_symmetry_cell_setting 'orthorhombic'
loop_
_space_group_symop_operation_xyz
x,y,z
1/2-x,1/2-y,1/2+z
1/2+x,1/2-y,-z
-x,y,1/2-z
-x,-y,-z
1/2+x,1/2+y,1/2-z
1/2-x,1/2+y,z
x,-y,1/2+z
loop_
_atom_site_type_symbol
_atom_site_label
_atom_site_fract_x
_atom_site_fract_y
_atom_site_fract_z
Si Si1 0.932127 0.599042 0.637317
Si Si2 0.921512 0.939968 0.090137
Si Si3 0.942432 0.797633 0.961612
Si Si4 0.765065 0.946165 0.850003
Si Si5 0.500000 0.310673 0.750000
O O1 0.076015 0.495043 0.656022
O O2 0.741435 0.551739 0.635970
O O3 0.986769 0.660335 0.565106
O O4 0.940998 0.719306 0.689187
O O5 0.101284 0.939319 0.127541
O O6 0.925608 0.081323 0.051257
O O7 0.900755 0.818849 0.038824
O O8 0.208124 0.158649 0.089095
O O9 0.846158 0.891599 0.782030
#
# Coordination Sequence:
#
# PCOD9457678 Si02
#       5
#     8   8   8   8   4
#     4  11  22  38  67  84 118 173 194 242 320 355
#     4   9  20  40  59  89 127 150 201 253 296 365
#     4   8  20  40  56  95 126 141 202 258 288 375
#     4   9  21  42  57  85 123 155 200 259 289 360
#     4  10  24  42  56  92 126 148 228 250 276 380
#
# _framework density 22.503924999999999
#
# number of rings (size 3 to 8) (size 9 to 14) (size 15 to 20)
#    1.333    1.333    0.000    0.000    6.222    0.889 
#    8.000    2.222    0.000    0.000    0.000    0.000 
#    0.000    0.000    0.000    0.000    0.000    0.000 
#
# Total GULP energy -200722.372971 kJ/mol
# GULP energy per Si atom -5575.621471 kJ/mol
# Density = 2.245270 g / cm^3
# Si number density = 22.503925 Si / 1000 Ang^3
#
#
#
# Elastic Constant Matrix: (Units=GPa)
#
#
# Indices 1 2 3 4 5 6 
#
# 1 65.1218 1.1268 27.7849 0.0000 0.0000 0.0000
# 2 1.1268 12.7158 -10.9573 0.0000 0.0000 0.0000
# 3 27.7849 -10.9573 50.4106 0.0000 0.0000 0.0000
# 4 0.0000 0.0000 0.0000 10.9175 0.0000 0.0000
# 5 0.0000 0.0000 0.0000 0.0000 12.2789 0.0000
# 6 0.0000 0.0000 0.0000 0.0000 0.0000 -5.9250
#
#
#
# Elastic Compliance Matrix: (Units=1/GPa)
#
#
# Indices 1 2 3 4 5 6 
#
# 1 0.022302 -0.015465 -0.015654 0.000000 0.000000 0.000000
# 2 -0.015465 0.107491 0.031888 0.000000 0.000000 0.000000
# 3 -0.015654 0.031888 0.035396 0.000000 0.000000 0.000000
# 4 0.000000 0.000000 0.000000 0.091596 0.000000 0.000000
# 5 0.000000 0.000000 0.000000 0.000000 0.081441 0.000000
# 6 0.000000 0.000000 0.000000 0.000000 0.000000 -0.168777
#
#
# Mechanical properties :
#
#
# Convention : Reuss Voigt Hill
#
# Bulk Modulus (GPa) = 5.99780 18.23967 12.11874
# Shear Modulus (GPa) = 22.37263 10.80721 16.58992
#
# Velocity S-wave (km/s) = 3.15646 2.19381 2.71809
# Velocity P-wave (km/s) = 3.99441 3.81310 3.90481
#
# Compressibility (1/GPa) = 0.16672775
#
# Stress axis : x y z
#
# Youngs Moduli (GPa) = 44.83823 9.30310 28.25146
#
# Poissons Ratio (x) = 0.14388 0.44225
# Poissons Ratio (y) = 0.69344 -0.90089
# Poissons Ratio (z) = 0.70190 -0.29666
#
# Static dielectric constant tensor:
#      x y z
#    x 1.822330 0.000000 0.000000 
#    y 0.000000 1.853720 0.000000 
#    z 0.000000 0.000000 1.898530 
# 
# From -- ./inp_files/21979.got.cif
#   From: 2010.05.17/outbox.cif.g08.bks.cpg/sg60_11_cif.got.tgz:21979.got - 2010.06.03 14:59:27.
