data_PCOD9457039
_publ_section_title
;
Structure prediction by ZEFSAII (Michael W. Deem and Ramdas Pophale) SiO2 
 PCOD9457039
Probable space group: P B C N
;
_chemical_formula_sum "Si O2"
_cell_formula_units_Z 48
_cell_length_a 23.230150
_cell_length_b 5.213628
_cell_length_c 14.963437
_cell_angle_alpha 90.000000
_cell_angle_beta 90.000000
_cell_angle_gamma 90.000000
_cell_volume 1812.272139
_symmetry_space_group_name_H-M "P B C N"
_symmetry_group_IT_number 60
_symmetry_cell_setting 'orthorhombic'
loop_
_space_group_symop_operation_xyz
x,y,z
1/2-x,1/2-y,1/2+z
1/2+x,1/2-y,-z
-x,y,1/2-z
-x,-y,-z
1/2+x,1/2+y,1/2-z
1/2-x,1/2+y,z
x,-y,1/2+z
loop_
_atom_site_type_symbol
_atom_site_label
_atom_site_fract_x
_atom_site_fract_y
_atom_site_fract_z
Si Si1 0.022178 0.388866 0.657549
Si Si2 0.442793 0.600589 0.952025
Si Si3 0.366528 0.928666 0.049332
Si Si4 0.404032 0.500547 0.761213
Si Si5 0.216914 0.644052 0.913410
Si Si6 0.668701 0.990494 0.270078
O O1 0.074387 0.468866 0.593484
O O2 0.047317 0.118739 0.696848
O O3 0.000000 0.520989 0.750000
O O4 0.966693 0.361005 0.595146
O O5 0.423237 0.459640 0.862748
O O6 0.500000 0.500000 0.000000
O O7 0.388948 0.651328 0.016325
O O8 0.317504 0.976657 0.124771
O O9 0.341820 0.065338 0.961923
O O10 0.379779 0.231750 0.730486
O O11 0.356240 0.730675 0.756516
O O12 0.236987 0.925967 0.938651
O O13 0.210814 0.606990 0.806465
#
# Coordination Sequence:
#
# PCOD9457039 Si02
#       6
#     8   8   8   8   8   8
#     4   9  21  40  65 108 153 196 246 286 371 457
#     4  11  22  35  65 111 151 197 243 294 359 453
#     4  11  25  44  76 108 151 202 249 315 374 462
#     4  10  22  42  67 100 149 197 235 294 354 438
#     4  12  29  50  78 107 140 188 257 328 388 444
#     4  11  24  47  73 100 143 189 241 303 385 430
#
# _framework density 26.486087999999999
#
# number of rings (size 3 to 8) (size 9 to 14) (size 15 to 20)
#    0.000    1.333    1.667    2.500    2.333    8.000 
#    0.000    4.167    0.000    0.000    0.000    0.000 
#    0.000    0.000    0.000    0.000    0.000    0.000 
#
# Total GULP energy -268196.420662 kJ/mol
# GULP energy per Si atom -5587.425430 kJ/mol
# Density = 2.642580 g / cm^3
# Si number density = 26.486088 Si / 1000 Ang^3
#
#
#
# Elastic Constant Matrix: (Units=GPa)
#
#
# Indices 1 2 3 4 5 6 
#
# 1 70.9990 20.5163 23.7790 0.0000 0.0000 0.0000
# 2 20.5163 61.6779 21.7145 0.0000 0.0000 0.0000
# 3 23.7790 21.7145 141.5677 0.0000 0.0000 0.0000
# 4 0.0000 0.0000 0.0000 31.7520 0.0000 0.0000
# 5 0.0000 0.0000 0.0000 0.0000 50.0377 0.0000
# 6 0.0000 0.0000 0.0000 0.0000 0.0000 42.8561
#
#
#
# Elastic Compliance Matrix: (Units=1/GPa)
#
#
# Indices 1 2 3 4 5 6 
#
# 1 0.016096 -0.004654 -0.001990 0.000000 0.000000 0.000000
# 2 -0.004654 0.018484 -0.002054 0.000000 0.000000 0.000000
# 3 -0.001990 -0.002054 0.007713 0.000000 0.000000 0.000000
# 4 0.000000 0.000000 0.000000 0.031494 0.000000 0.000000
# 5 0.000000 0.000000 0.000000 0.000000 0.019985 0.000000
# 6 0.000000 0.000000 0.000000 0.000000 0.000000 0.023334
#
#
# Mechanical properties :
#
#
# Convention : Reuss Voigt Hill
#
# Bulk Modulus (GPa) = 40.16197 45.14047 42.65122
# Shear Modulus (GPa) = 35.01414 38.81149 36.91281
#
# Velocity S-wave (km/s) = 3.63985 3.83215 3.73724
# Velocity P-wave (km/s) = 5.73245 6.05480 5.89583
#
# Compressibility (1/GPa) = 0.02489918
#
# Stress axis : x y z
#
# Youngs Moduli (GPa) = 62.12781 54.10034 129.65174
#
# Poissons Ratio (x) = 0.25176 0.25798
# Poissons Ratio (y) = 0.28911 0.26625
# Poissons Ratio (z) = 0.12362 0.11110
#
# Static dielectric constant tensor:
#      x y z
#    x 2.098150 0.000000 0.000000 
#    y 0.000000 2.074300 0.000000 
#    z 0.000000 0.000000 2.159600 
# 
# From -- ./inp_files/18039.got.cif
#   From: 2010.05.17/outbox.cif.g08.bks.cpg/sg60_10_cif.got.tgz:18039.got - 2010.06.03 14:59:27.
