data_PCOD9457469
_publ_section_title
;
Structure prediction by ZEFSAII (Michael W. Deem and Ramdas Pophale) SiO2 
 PCOD9457469
Probable space group: P B C N
;
_chemical_formula_sum "Si O2"
_cell_formula_units_Z 40
_cell_length_a 10.172413
_cell_length_b 16.377374
_cell_length_c 11.632289
_cell_angle_alpha 90.000000
_cell_angle_beta 90.000000
_cell_angle_gamma 90.000000
_cell_volume 1937.909245
_symmetry_space_group_name_H-M "P B C N"
_symmetry_group_IT_number 60
_symmetry_cell_setting 'orthorhombic'
loop_
_space_group_symop_operation_xyz
x,y,z
1/2-x,1/2-y,1/2+z
1/2+x,1/2-y,-z
-x,y,1/2-z
-x,-y,-z
1/2+x,1/2+y,1/2-z
1/2-x,1/2+y,z
x,-y,1/2+z
loop_
_atom_site_type_symbol
_atom_site_label
_atom_site_fract_x
_atom_site_fract_y
_atom_site_fract_z
Si Si1 0.658497 0.672624 0.931766
Si Si2 0.037609 0.716509 0.556198
Si Si3 0.500000 0.595429 0.750000
Si Si4 0.554154 0.962124 0.121182
Si Si5 0.343551 0.466935 0.879249
Si Si6 0.000000 0.847940 0.750000
O O1 0.807690 0.698986 0.960520
O O2 0.622223 0.645547 0.802373
O O3 0.554743 0.745436 0.957184
O O4 0.640606 0.591983 0.011498
O O5 0.030968 0.789419 0.646251
O O6 0.972437 0.634175 0.605082
O O7 0.445819 0.538959 0.852865
O O8 0.500000 0.984686 0.250000
O O9 0.703329 0.991588 0.122406
O O10 0.500000 0.000000 0.000000
O O11 0.374896 0.404703 0.775150
#
# Coordination Sequence:
#
# PCOD9457469 Si02
#       6
#     8   8   4   8   8   4
#     4  11  25  44  67 104 136 189 238 297 364 437
#     4  11  24  44  69  98 145 186 238 295 366 428
#     4  11  24  42  72  97 138 188 246 293 362 446
#     4  12  25  45  73 106 145 189 240 304 362 434
#     4  10  23  43  69 100 138 184 244 295 365 429
#     4   9  22  44  68  93 136 190 232 297 362 440
#
# _framework density 20.640799999999999
#
# number of rings (size 3 to 8) (size 9 to 14) (size 15 to 20)
#    0.000    1.200    3.000    1.800    2.800    3.200 
#    1.800    0.000    0.000    0.000    0.000    0.000 
#    0.000    0.000    0.000    0.000    0.000    0.000 
#
# Total GULP energy -222753.284928 kJ/mol
# GULP energy per Si atom -5568.832123 kJ/mol
# Density = 2.059382 g / cm^3
# Si number density = 20.640800 Si / 1000 Ang^3
#
#
#
# Elastic Constant Matrix: (Units=GPa)
#
#
# Indices 1 2 3 4 5 6 
#
# 1 160.3954 84.9614 44.9805 0.0000 0.0000 0.0000
# 2 84.9614 93.5155 41.1936 0.0000 0.0000 0.0000
# 3 44.9805 41.1936 67.3362 0.0000 0.0000 0.0000
# 4 0.0000 0.0000 0.0000 3.7470 0.0000 0.0000
# 5 0.0000 0.0000 0.0000 0.0000 22.3663 0.0000
# 6 0.0000 0.0000 0.0000 0.0000 0.0000 29.4902
#
#
#
# Elastic Compliance Matrix: (Units=1/GPa)
#
#
# Indices 1 2 3 4 5 6 
#
# 1 0.012188 -0.010249 -0.001872 0.000000 0.000000 0.000000
# 2 -0.010249 0.023256 -0.007381 0.000000 0.000000 0.000000
# 3 -0.001872 -0.007381 0.020617 0.000000 0.000000 0.000000
# 4 0.000000 0.000000 0.000000 0.266881 0.000000 0.000000
# 5 0.000000 0.000000 0.000000 0.000000 0.044710 0.000000
# 6 0.000000 0.000000 0.000000 0.000000 0.000000 0.033910
#
#
# Mechanical properties :
#
#
# Convention : Reuss Voigt Hill
#
# Bulk Modulus (GPa) = 58.62479 73.72423 66.17451
# Shear Modulus (GPa) = 11.20446 21.12814 16.16630
#
# Velocity S-wave (km/s) = 2.33240 3.20286 2.80164
# Velocity P-wave (km/s) = 5.97641 7.03371 6.52650
#
# Compressibility (1/GPa) = 0.01705763
#
# Stress axis : x y z
#
# Youngs Moduli (GPa) = 82.04537 42.99951 48.50441
#
# Poissons Ratio (x) = 0.44070 0.09080
# Poissons Ratio (y) = 0.84087 0.35801
# Poissons Ratio (z) = 0.15359 0.31738
#
# Static dielectric constant tensor:
#      x y z
#    x 1.714210 0.000000 0.000000 
#    y 0.000000 1.737510 0.000000 
#    z 0.000000 0.000000 1.789750 
# 
# From -- ./inp_files/9795.got.cif
#   From: 2010.05.17/outbox.cif.g08.bks.cpg/sg60_5_cif.got.tgz:9795.got - 2010.06.03 14:59:27.
