data_PCOD9457173
_publ_section_title
;
Structure prediction by ZEFSAII (Michael W. Deem and Ramdas Pophale) SiO2 
 PCOD9457173
Probable space group: P B C N
;
_chemical_formula_sum "Si O2"
_cell_formula_units_Z 56
_cell_length_a 13.460034
_cell_length_b 5.329436
_cell_length_c 28.219863
_cell_angle_alpha 90.000000
_cell_angle_beta 90.000000
_cell_angle_gamma 90.000000
_cell_volume 2024.334651
_symmetry_space_group_name_H-M "P B C N"
_symmetry_group_IT_number 60
_symmetry_cell_setting 'orthorhombic'
loop_
_space_group_symop_operation_xyz
x,y,z
1/2-x,1/2-y,1/2+z
1/2+x,1/2-y,-z
-x,y,1/2-z
-x,-y,-z
1/2+x,1/2+y,1/2-z
1/2-x,1/2+y,z
x,-y,1/2+z
loop_
_atom_site_type_symbol
_atom_site_label
_atom_site_fract_x
_atom_site_fract_y
_atom_site_fract_z
Si Si1 0.839558 0.562117 0.129971
Si Si2 0.000000 0.771019 0.250000
Si Si3 0.000237 0.254147 0.078293
Si Si4 0.000000 0.500000 0.500000
Si Si5 0.537127 0.350240 0.350330
Si Si6 0.296055 0.802805 0.969921
Si Si7 0.181991 0.440570 0.592757
Si Si8 0.297337 0.012223 0.766125
O O1 0.777009 0.672020 0.086508
O O2 0.783148 0.477386 0.176839
O O3 0.915288 0.345335 0.113105
O O4 0.923963 0.768328 0.141547
O O5 0.034007 0.928861 0.204277
O O6 0.091753 0.587212 0.260299
O O7 0.081587 0.478400 0.061231
O O8 0.057555 0.047766 0.107844
O O9 0.953495 0.238513 0.027261
O O10 0.912971 0.331408 0.526969
O O11 0.616849 0.125261 0.359392
O O12 0.254052 0.550318 0.991818
O O13 0.249642 0.691040 0.589539
O O14 0.228876 0.785662 0.746949
#
# Coordination Sequence:
#
# PCOD9457173 Si02
#       8
#     8   4   8   4   8   8   8   8
#     4   9  22  40  69 102 136 181 237 298 359 442
#     4  10  26  48  70 110 146 186 240 314 362 458
#     4  10  22  44  70 104 143 203 245 304 385 436
#     4  10  26  48  70 108 158 196 248 320 366 454
#     4  10  22  44  71  98 139 193 238 297 386 434
#     4  11  25  45  70 106 140 189 242 298 364 432
#     4  11  22  42  69 101 140 189 248 304 353 439
#     4  11  25  45  70 105 142 187 235 296 365 435
#
# _framework density 27.663409999999999
#
# number of rings (size 3 to 8) (size 9 to 14) (size 15 to 20)
#    0.000    1.714    1.429    0.857    8.000    3.429 
#   10.286    0.000    0.000    0.000    0.000    0.000 
#    0.000    0.000    0.000    0.000    0.000    0.000 
#
# Total GULP energy -312116.927282 kJ/mol
# GULP energy per Si atom -5573.516559 kJ/mol
# Density = 2.760045 g / cm^3
# Si number density = 27.663410 Si / 1000 Ang^3
#
#
#
# Elastic Constant Matrix: (Units=GPa)
#
#
# Indices 1 2 3 4 5 6 
#
# 1 161.2322 67.7273 -11.7313 0.0000 0.0000 0.0000
# 2 67.7273 138.8987 10.2390 0.0000 0.0000 0.0000
# 3 -11.7313 10.2390 71.3504 0.0000 0.0000 0.0000
# 4 0.0000 0.0000 0.0000 25.0016 0.0000 0.0000
# 5 0.0000 0.0000 0.0000 0.0000 37.9774 0.0000
# 6 0.0000 0.0000 0.0000 0.0000 0.0000 53.5354
#
#
#
# Elastic Compliance Matrix: (Units=1/GPa)
#
#
# Indices 1 2 3 4 5 6 
#
# 1 0.008049 -0.004065 0.001907 0.000000 0.000000 0.000000
# 2 -0.004065 0.009330 -0.002007 0.000000 0.000000 0.000000
# 3 0.001907 -0.002007 0.014617 0.000000 0.000000 0.000000
# 4 0.000000 0.000000 0.000000 0.039997 0.000000 0.000000
# 5 0.000000 0.000000 0.000000 0.000000 0.026331 0.000000
# 6 0.000000 0.000000 0.000000 0.000000 0.000000 0.018679
#
#
# Mechanical properties :
#
#
# Convention : Reuss Voigt Hill
#
# Bulk Modulus (GPa) = 42.25854 55.99459 49.12657
# Shear Modulus (GPa) = 37.53130 43.65264 40.59197
#
# Velocity S-wave (km/s) = 3.68735 3.97670 3.83476
# Velocity P-wave (km/s) = 5.78255 6.43202 6.11591
#
# Compressibility (1/GPa) = 0.02366386
#
# Stress axis : x y z
#
# Youngs Moduli (GPa) = 124.24642 107.18606 68.41415
#
# Poissons Ratio (x) = 0.43571 -0.13044
# Poissons Ratio (y) = 0.50507 0.13732
# Poissons Ratio (z) = -0.23690 0.21514
#
# Static dielectric constant tensor:
#      x y z
#    x 1.385520 0.000000 0.000000 
#    y 0.000000 2.358480 0.000000 
#    z 0.000000 0.000000 -19.537900 
# 
# From -- ./inp_files/26175.got.cif
#   From: 2010.05.17/outbox.cif.g08.bks.cpg/sg60_14_cif.got.tgz:26175.got - 2010.06.03 14:59:27.
