data_PCOD9457489
_publ_section_title
;
Structure prediction by ZEFSAII (Michael W. Deem and Ramdas Pophale) SiO2 
 PCOD9457489
Probable space group: P B C N
;
_chemical_formula_sum "Si O2"
_cell_formula_units_Z 36
_cell_length_a 5.075228
_cell_length_b 21.598500
_cell_length_c 12.423398
_cell_angle_alpha 90.000000
_cell_angle_beta 90.000000
_cell_angle_gamma 90.000000
_cell_volume 1361.819494
_symmetry_space_group_name_H-M "P B C N"
_symmetry_group_IT_number 60
_symmetry_cell_setting 'orthorhombic'
loop_
_space_group_symop_operation_xyz
x,y,z
1/2-x,1/2-y,1/2+z
1/2+x,1/2-y,-z
-x,y,1/2-z
-x,-y,-z
1/2+x,1/2+y,1/2-z
1/2-x,1/2+y,z
x,-y,1/2+z
loop_
_atom_site_type_symbol
_atom_site_label
_atom_site_fract_x
_atom_site_fract_y
_atom_site_fract_z
Si Si1 0.200657 0.054166 0.031269
Si Si2 0.500000 0.044337 0.250000
Si Si3 0.239906 0.126461 0.821211
Si Si4 0.147623 0.145702 0.343074
Si Si5 0.976799 0.249782 0.567272
O O1 0.381861 0.027436 0.129069
O O2 0.040455 0.116110 0.068641
O O3 0.319127 0.082161 0.920692
O O4 0.000000 0.000000 0.000000
O O5 0.259455 0.085356 0.287544
O O6 0.500000 0.135392 0.750000
O O7 0.121445 0.191462 0.864090
O O8 0.000000 0.097833 0.750000
O O9 0.392567 0.185853 0.380402
O O10 0.000000 0.183121 0.250000
O O11 0.782726 0.251396 0.462731
#
# Coordination Sequence:
#
# PCOD9457489 Si02
#       5
#     8   4   8   8   8
#     4  11  26  52  77 112 155 204 275 327 401 474
#     4  10  24  46  84 108 146 204 268 330 396 474
#     4  12  28  49  77 117 165 210 258 331 415 479
#     4  10  23  43  71 111 139 197 255 314 380 465
#     4  12  24  43  76 106 155 204 255 318 390 473
#
# _framework density 26.435220999999999
#
# number of rings (size 3 to 8) (size 9 to 14) (size 15 to 20)
#    0.000    0.889    2.222    3.333    7.778    3.556 
#    4.000    0.000    0.000    0.000    0.000    0.000 
#    0.000    0.000    0.000    0.000    0.000    0.000 
#
# Total GULP energy -201153.466976 kJ/mol
# GULP energy per Si atom -5587.596305 kJ/mol
# Density = 2.637505 g / cm^3
# Si number density = 26.435221 Si / 1000 Ang^3
#
#
#
# Elastic Constant Matrix: (Units=GPa)
#
#
# Indices 1 2 3 4 5 6 
#
# 1 66.1977 13.0655 44.4185 0.0000 0.0000 0.0000
# 2 13.0655 101.2086 53.8130 0.0000 0.0000 0.0000
# 3 44.4185 53.8130 163.4831 0.0000 0.0000 0.0000
# 4 0.0000 0.0000 0.0000 58.6564 0.0000 0.0000
# 5 0.0000 0.0000 0.0000 0.0000 72.4003 0.0000
# 6 0.0000 0.0000 0.0000 0.0000 0.0000 43.5892
#
#
#
# Elastic Compliance Matrix: (Units=1/GPa)
#
#
# Indices 1 2 3 4 5 6 
#
# 1 0.018484 0.000344 -0.005136 0.000000 0.000000 0.000000
# 2 0.000344 0.011983 -0.004038 0.000000 0.000000 0.000000
# 3 -0.005136 -0.004038 0.008841 0.000000 0.000000 0.000000
# 4 0.000000 0.000000 0.000000 0.017048 0.000000 0.000000
# 5 0.000000 0.000000 0.000000 0.000000 0.013812 0.000000
# 6 0.000000 0.000000 0.000000 0.000000 0.000000 0.022941
#
#
# Mechanical properties :
#
#
# Convention : Reuss Voigt Hill
#
# Bulk Modulus (GPa) = 46.18860 61.49818 53.84339
# Shear Modulus (GPa) = 42.37797 49.56868 45.97333
#
# Velocity S-wave (km/s) = 4.00820 4.33494 4.17477
# Velocity P-wave (km/s) = 6.23949 6.95484 6.60685
#
# Compressibility (1/GPa) = 0.02165037
#
# Stress axis : x y z
#
# Youngs Moduli (GPa) = 54.10018 83.45053 113.10504
#
# Poissons Ratio (x) = -0.02874 0.58085
# Poissons Ratio (y) = -0.01863 0.45672
# Poissons Ratio (z) = 0.27783 0.33697
#
# Static dielectric constant tensor:
#      x y z
#    x 2.018680 0.000000 0.000000 
#    y 0.000000 2.078590 0.000000 
#    z 0.000000 0.000000 2.641530 
# 
# From -- ./inp_files/9003.got.cif
#   From: 2010.05.17/outbox.cif.g08.bks.cpg/sg60_5_cif.got.tgz:9003.got - 2010.06.03 14:59:27.
