data_PCOD9457424
_publ_section_title
;
Structure prediction by ZEFSAII (Michael W. Deem and Ramdas Pophale) SiO2 
 PCOD9457424
Probable space group: P B C N
;
_chemical_formula_sum "Si O2"
_cell_formula_units_Z 36
_cell_length_a 8.664478
_cell_length_b 19.579106
_cell_length_c 8.374478
_cell_angle_alpha 90.000000
_cell_angle_beta 90.000000
_cell_angle_gamma 90.000000
_cell_volume 1420.669337
_symmetry_space_group_name_H-M "P B C N"
_symmetry_group_IT_number 60
_symmetry_cell_setting 'orthorhombic'
loop_
_space_group_symop_operation_xyz
x,y,z
1/2-x,1/2-y,1/2+z
1/2+x,1/2-y,-z
-x,y,1/2-z
-x,-y,-z
1/2+x,1/2+y,1/2-z
1/2-x,1/2+y,z
x,-y,1/2+z
loop_
_atom_site_type_symbol
_atom_site_label
_atom_site_fract_x
_atom_site_fract_y
_atom_site_fract_z
Si Si1 0.884362 0.093603 0.987272
Si Si2 0.307586 0.532819 0.843306
Si Si3 0.572622 0.875780 0.075209
Si Si4 0.500000 0.180702 0.250000
Si Si5 0.831499 0.768377 0.658271
O O1 0.795579 0.062330 0.834678
O O2 0.057635 0.075373 0.932771
O O3 0.852187 0.171532 0.027588
O O4 0.846985 0.046320 0.140071
O O5 0.156947 0.552709 0.938244
O O6 0.500000 0.875930 0.250000
O O7 0.679409 0.807890 0.089360
O O8 0.484507 0.862466 0.912227
O O9 0.332919 0.219072 0.253179
O O10 0.000000 0.771768 0.750000
#
# Coordination Sequence:
#
# PCOD9457424 Si02
#       5
#     8   8   8   4   8
#     4  10  23  42  73 105 144 204 244 310 376 448
#     4  10  23  43  71 106 149 192 257 304 378 445
#     4  11  27  48  71 112 148 195 250 315 376 454
#     4  12  28  44  78 108 148 196 244 302 392 422
#     4  11  27  46  76 111 150 190 256 307 376 451
#
# _framework density 25.340167000000001
#
# number of rings (size 3 to 8) (size 9 to 14) (size 15 to 20)
#    0.000    1.333    0.000    2.667   21.778    0.000 
#    2.000    2.222    0.000    0.000    0.000    0.000 
#    0.000    0.000    0.000    0.000    0.000    0.000 
#
# Total GULP energy -200955.924952 kJ/mol
# GULP energy per Si atom -5582.109026 kJ/mol
# Density = 2.528249 g / cm^3
# Si number density = 25.340167 Si / 1000 Ang^3
#
#
#
# Elastic Constant Matrix: (Units=GPa)
#
#
# Indices 1 2 3 4 5 6 
#
# 1 101.8790 15.2933 37.6273 0.0000 0.0000 0.0000
# 2 15.2933 98.1604 22.8882 0.0000 0.0000 0.0000
# 3 37.6273 22.8882 117.5809 0.0000 0.0000 0.0000
# 4 0.0000 0.0000 0.0000 17.4447 0.0000 0.0000
# 5 0.0000 0.0000 0.0000 0.0000 22.8760 0.0000
# 6 0.0000 0.0000 0.0000 0.0000 0.0000 30.3455
#
#
#
# Elastic Compliance Matrix: (Units=1/GPa)
#
#
# Indices 1 2 3 4 5 6 
#
# 1 0.011216 -0.000954 -0.003404 0.000000 0.000000 0.000000
# 2 -0.000954 0.010753 -0.001788 0.000000 0.000000 0.000000
# 3 -0.003404 -0.001788 0.009942 0.000000 0.000000 0.000000
# 4 0.000000 0.000000 0.000000 0.057324 0.000000 0.000000
# 5 0.000000 0.000000 0.000000 0.000000 0.043714 0.000000
# 6 0.000000 0.000000 0.000000 0.000000 0.000000 0.032954
#
#
# Mechanical properties :
#
#
# Convention : Reuss Voigt Hill
#
# Bulk Modulus (GPa) = 50.96793 52.13753 51.55273
# Shear Modulus (GPa) = 27.06611 30.25402 28.66007
#
# Velocity S-wave (km/s) = 3.27174 3.45906 3.36670
# Velocity P-wave (km/s) = 5.86767 6.04757 5.95830
#
# Compressibility (1/GPa) = 0.01962018
#
# Stress axis : x y z
#
# Youngs Moduli (GPa) = 89.16012 92.99819 100.58354
#
# Poissons Ratio (x) = 0.08870 0.34234
# Poissons Ratio (y) = 0.08504 0.17983
# Poissons Ratio (z) = 0.30346 0.16627
#
# Static dielectric constant tensor:
#      x y z
#    x 2.178520 0.000000 0.000000 
#    y 0.000000 1.915090 0.000000 
#    z 0.000000 0.000000 1.950560 
# 
# From -- ./inp_files/3684.got.cif
#   From: 2010.05.17/outbox.cif.g08.bks.cpg/sg60_2_cif.got.tgz:3684.got - 2010.06.03 14:59:27.
