data_PCOD9457621
_publ_section_title
;
Structure prediction by ZEFSAII (Michael W. Deem and Ramdas Pophale) SiO2 
 PCOD9457621
Probable space group: P B C N
;
_chemical_formula_sum "Si O2"
_cell_formula_units_Z 32
_cell_length_a 20.698833
_cell_length_b 7.689031
_cell_length_c 8.748829
_cell_angle_alpha 90.000000
_cell_angle_beta 90.000000
_cell_angle_gamma 90.000000
_cell_volume 1392.410856
_symmetry_space_group_name_H-M "P B C N"
_symmetry_group_IT_number 60
_symmetry_cell_setting 'orthorhombic'
loop_
_space_group_symop_operation_xyz
x,y,z
1/2-x,1/2-y,1/2+z
1/2+x,1/2-y,-z
-x,y,1/2-z
-x,-y,-z
1/2+x,1/2+y,1/2-z
1/2-x,1/2+y,z
x,-y,1/2+z
loop_
_atom_site_type_symbol
_atom_site_label
_atom_site_fract_x
_atom_site_fract_y
_atom_site_fract_z
Si Si1 0.709402 0.375463 0.396402
Si Si2 0.821131 0.419228 0.147062
Si Si3 0.839474 0.202651 0.578911
Si Si4 0.546348 0.092452 0.117256
O O1 0.776001 0.375126 0.292097
O O2 0.688156 0.221488 0.513482
O O3 0.807554 0.058027 0.475645
O O4 0.659651 0.359403 0.253310
O O5 0.699651 0.113117 0.089022
O O6 0.896769 0.460707 0.178483
O O7 0.911196 0.259160 0.536250
O O8 0.500000 0.158228 0.250000
O O9 0.500000 0.000000 0.000000
#
# Coordination Sequence:
#
# PCOD9457621 Si02
#       4
#     8   8   8   8
#     4  12  27  48  74 121 160 196 261 326 410 473
#     4  10  29  47  79 115 160 202 255 326 403 464
#     4  10  29  46  77 117 155 201 258 321 396 468
#     4  10  23  51  78 104 153 209 261 316 383 462
#
# _framework density 22.981724
#
# number of rings (size 3 to 8) (size 9 to 14) (size 15 to 20)
#    1.500    0.000    0.000    1.500    7.000    8.000 
#    0.000    6.250    0.000    0.000    0.000    1.750 
#    0.000    0.000    0.000    0.000    0.000    0.000 
#
# Total GULP energy -178520.863403 kJ/mol
# GULP energy per Si atom -5578.776981 kJ/mol
# Density = 2.292942 g / cm^3
# Si number density = 22.981724 Si / 1000 Ang^3
#
#
#
# Elastic Constant Matrix: (Units=GPa)
#
#
# Indices 1 2 3 4 5 6 
#
# 1 169.1428 48.9225 27.3471 0.0000 0.0000 0.0000
# 2 48.9225 167.7390 81.2066 0.0000 0.0000 0.0000
# 3 27.3471 81.2066 153.1624 0.0000 0.0000 0.0000
# 4 0.0000 0.0000 0.0000 55.2806 0.0000 0.0000
# 5 0.0000 0.0000 0.0000 0.0000 35.8130 0.0000
# 6 0.0000 0.0000 0.0000 0.0000 0.0000 33.0734
#
#
#
# Elastic Compliance Matrix: (Units=1/GPa)
#
#
# Indices 1 2 3 4 5 6 
#
# 1 0.006462 -0.001784 -0.000208 0.000000 0.000000 0.000000
# 2 -0.001784 0.008513 -0.004195 0.000000 0.000000 0.000000
# 3 -0.000208 -0.004195 0.008790 0.000000 0.000000 0.000000
# 4 0.000000 0.000000 0.000000 0.018090 0.000000 0.000000
# 5 0.000000 0.000000 0.000000 0.000000 0.027923 0.000000
# 6 0.000000 0.000000 0.000000 0.000000 0.000000 0.030236
#
#
# Mechanical properties :
#
#
# Convention : Reuss Voigt Hill
#
# Bulk Modulus (GPa) = 87.78675 89.44406 88.61540
# Shear Modulus (GPa) = 43.03524 47.00459 45.01992
#
# Velocity S-wave (km/s) = 4.33203 4.52741 4.43080
# Velocity P-wave (km/s) = 7.95635 8.14457 8.05101
#
# Compressibility (1/GPa) = 0.01139124
#
# Stress axis : x y z
#
# Youngs Moduli (GPa) = 154.75625 117.46947 113.76168
#
# Poissons Ratio (x) = 0.20956 0.02365
# Poissons Ratio (y) = 0.27608 0.47723
# Poissons Ratio (z) = 0.03217 0.49278
#
# Static dielectric constant tensor:
#      x y z
#    x 2.167100 0.000000 0.000000 
#    y 0.000000 1.904920 0.000000 
#    z 0.000000 0.000000 2.094570 
# 
# From -- ./inp_files/4682.got.cif
#   From: 2010.05.17/outbox.cif.g08.bks.cpg/sg60_3_cif.got.tgz:4682.got - 2010.06.03 14:59:27.
