data_PCOD9457053
_publ_section_title
;
Structure prediction by ZEFSAII (Michael W. Deem and Ramdas Pophale) SiO2 
 PCOD9457053
Probable space group: P B C N
;
_chemical_formula_sum "Si O2"
_cell_formula_units_Z 36
_cell_length_a 13.294282
_cell_length_b 15.081475
_cell_length_c 8.953100
_cell_angle_alpha 90.000000
_cell_angle_beta 90.000000
_cell_angle_gamma 90.000000
_cell_volume 1795.073107
_symmetry_space_group_name_H-M "P B C N"
_symmetry_group_IT_number 60
_symmetry_cell_setting 'orthorhombic'
loop_
_space_group_symop_operation_xyz
x,y,z
1/2-x,1/2-y,1/2+z
1/2+x,1/2-y,-z
-x,y,1/2-z
-x,-y,-z
1/2+x,1/2+y,1/2-z
1/2-x,1/2+y,z
x,-y,1/2+z
loop_
_atom_site_type_symbol
_atom_site_label
_atom_site_fract_x
_atom_site_fract_y
_atom_site_fract_z
Si Si1 0.698066 0.690439 0.092117
Si Si2 0.146982 0.451193 0.006104
Si Si3 0.500000 0.988867 0.250000
Si Si4 0.992347 0.095811 0.427813
Si Si5 0.266239 0.636923 0.061799
O O1 0.586299 0.660067 0.045142
O O2 0.725902 0.669399 0.265325
O O3 0.774002 0.626778 0.004201
O O4 0.714812 0.790682 0.043066
O O5 0.069757 0.434221 0.139519
O O6 0.207256 0.543521 0.039127
O O7 0.077520 0.458634 0.857646
O O8 0.883936 0.130105 0.478873
O O9 0.000000 0.082790 0.250000
O O10 0.000000 0.000000 0.500000
#
# Coordination Sequence:
#
# PCOD9457053 Si02
#       5
#     8   8   4   8   8
#     4  11  25  43  68  99 132 173 221 271 327 394
#     4  11  22  45  66  94 132 175 222 271 332 392
#     4  10  24  38  68  94 130 176 216 274 332 390
#     4  10  22  42  68  96 129 171 216 265 330 388
#     4  11  25  43  68  99 132 173 221 271 327 394
#
# _framework density 20.054894000000001
#
# number of rings (size 3 to 8) (size 9 to 14) (size 15 to 20)
#    0.000    1.333    4.444    0.000    3.111    5.333 
#    4.000    0.000    0.000    0.000    0.000    0.000 
#    0.000    0.000    0.000    0.000    0.000    0.000 
#
# Total GULP energy -200930.435717 kJ/mol
# GULP energy per Si atom -5581.400992 kJ/mol
# Density = 2.000925 g / cm^3
# Si number density = 20.054894 Si / 1000 Ang^3
#
#
#
# Elastic Constant Matrix: (Units=GPa)
#
#
# Indices 1 2 3 4 5 6 
#
# 1 134.2049 16.7265 24.9748 0.0000 0.0000 0.0000
# 2 16.7265 54.5657 -10.4970 0.0000 0.0000 0.0000
# 3 24.9748 -10.4970 26.4208 0.0000 0.0000 0.0000
# 4 0.0000 0.0000 0.0000 17.4998 0.0000 0.0000
# 5 0.0000 0.0000 0.0000 0.0000 32.0826 0.0000
# 6 0.0000 0.0000 0.0000 0.0000 0.0000 28.4747
#
#
#
# Elastic Compliance Matrix: (Units=1/GPa)
#
#
# Indices 1 2 3 4 5 6 
#
# 1 0.010362 -0.005479 -0.011972 0.000000 0.000000 0.000000
# 2 -0.005479 0.022741 0.014214 0.000000 0.000000 0.000000
# 3 -0.011972 0.014214 0.054813 0.000000 0.000000 0.000000
# 4 0.000000 0.000000 0.000000 0.057144 0.000000 0.000000
# 5 0.000000 0.000000 0.000000 0.000000 0.031170 0.000000
# 6 0.000000 0.000000 0.000000 0.000000 0.000000 0.035119
#
#
# Mechanical properties :
#
#
# Convention : Reuss Voigt Hill
#
# Bulk Modulus (GPa) = 12.27869 30.84445 21.56157
# Shear Modulus (GPa) = 20.41071 27.87723 24.14397
#
# Velocity S-wave (km/s) = 3.19367 3.73238 3.47348
# Velocity P-wave (km/s) = 4.44243 5.82989 5.18280
#
# Compressibility (1/GPa) = 0.08144191
#
# Stress axis : x y z
#
# Youngs Moduli (GPa) = 96.50506 43.97409 18.24377
#
# Poissons Ratio (x) = 0.24096 0.21842
# Poissons Ratio (y) = 0.52880 -0.25933
# Poissons Ratio (z) = 1.15536 -0.62507
#
# Static dielectric constant tensor:
#      x y z
#    x 1.704290 0.000000 0.000000 
#    y 0.000000 1.602590 0.000000 
#    z 0.000000 0.000000 1.711390 
# 
# From -- ./inp_files/5593.got.cif
#   From: 2010.05.17/outbox.cif.g08.bks.cpg/sg60_3_cif.got.tgz:5593.got - 2010.06.03 14:59:27.
