data_PCOD9457358
_publ_section_title
;
Structure prediction by ZEFSAII (Michael W. Deem and Ramdas Pophale) SiO2 
 PCOD9457358
Probable space group: P B C N
;
_chemical_formula_sum "Si O2"
_cell_formula_units_Z 40
_cell_length_a 8.048964
_cell_length_b 13.293487
_cell_length_c 16.857973
_cell_angle_alpha 90.000000
_cell_angle_beta 90.000000
_cell_angle_gamma 90.000000
_cell_volume 1803.782853
_symmetry_space_group_name_H-M "P B C N"
_symmetry_group_IT_number 60
_symmetry_cell_setting 'orthorhombic'
loop_
_space_group_symop_operation_xyz
x,y,z
1/2-x,1/2-y,1/2+z
1/2+x,1/2-y,-z
-x,y,1/2-z
-x,-y,-z
1/2+x,1/2+y,1/2-z
1/2-x,1/2+y,z
x,-y,1/2+z
loop_
_atom_site_type_symbol
_atom_site_label
_atom_site_fract_x
_atom_site_fract_y
_atom_site_fract_z
Si Si1 0.156668 0.651270 0.432853
Si Si2 0.820873 0.315116 0.747848
Si Si3 0.320603 0.954348 0.601385
Si Si4 0.019788 0.821202 0.537219
Si Si5 0.582712 0.157711 0.827820
O O1 0.204493 0.647268 0.340374
O O2 0.088880 0.759598 0.461825
O O3 0.335389 0.634489 0.474046
O O4 0.993970 0.580697 0.439864
O O5 0.822174 0.402649 0.812053
O O6 0.693938 0.234662 0.778744
O O7 0.000000 0.264185 0.750000
O O8 0.159245 0.903879 0.560242
O O9 0.330515 0.071989 0.620103
O O10 0.002821 0.733769 0.606171
O O11 0.500000 0.104997 0.750000
#
# Coordination Sequence:
#
# PCOD9457358 Si02
#       5
#     8   8   8   8   8
#     4  11  20  42  63  88 127 171 203 254 318 366
#     4   9  20  40  63  85 122 161 207 265 313 364
#     4  10  23  41  64  93 121 160 216 262 308 376
#     4  11  23  40  66  89 130 171 205 254 319 377
#     4  11  21  41  63  94 121 161 214 262 313 371
#
# _framework density 22.175616999999999
#
# number of rings (size 3 to 8) (size 9 to 14) (size 15 to 20)
#    0.000    1.600    4.000    1.800    0.000    0.800 
#    7.200    1.000    0.000    0.000    0.000    0.000 
#    0.000    0.000    0.000    0.000    0.000    0.000 
#
# Total GULP energy -222901.771332 kJ/mol
# GULP energy per Si atom -5572.544283 kJ/mol
# Density = 2.212514 g / cm^3
# Si number density = 22.175617 Si / 1000 Ang^3
#
#
#
# Elastic Constant Matrix: (Units=GPa)
#
#
# Indices 1 2 3 4 5 6 
#
# 1 121.7014 28.6811 30.4211 0.0000 0.0000 0.0000
# 2 28.6811 79.4195 39.0167 0.0000 0.0000 0.0000
# 3 30.4211 39.0167 99.0827 0.0000 0.0000 0.0000
# 4 0.0000 0.0000 0.0000 237.4491 0.0000 0.0000
# 5 0.0000 0.0000 0.0000 0.0000 32.7261 0.0000
# 6 0.0000 0.0000 0.0000 0.0000 0.0000 61.2598
#
#
#
# Elastic Compliance Matrix: (Units=1/GPa)
#
#
# Indices 1 2 3 4 5 6 
#
# 1 0.009259 -0.002414 -0.001892 0.000000 0.000000 0.000000
# 2 -0.002414 0.016241 -0.005654 0.000000 0.000000 0.000000
# 3 -0.001892 -0.005654 0.012900 0.000000 0.000000 0.000000
# 4 0.000000 0.000000 0.000000 0.004211 0.000000 0.000000
# 5 0.000000 0.000000 0.000000 0.000000 0.030557 0.000000
# 6 0.000000 0.000000 0.000000 0.000000 0.000000 0.016324
#
#
# Mechanical properties :
#
#
# Convention : Reuss Voigt Hill
#
# Bulk Modulus (GPa) = 54.11550 55.16015 54.63782
# Shear Modulus (GPa) = 43.26313 79.75931 61.51122
#
# Velocity S-wave (km/s) = 4.42173 6.00377 5.27242
# Velocity P-wave (km/s) = 7.10810 8.54333 7.85855
#
# Compressibility (1/GPa) = 0.01847899
#
# Stress axis : x y z
#
# Youngs Moduli (GPa) = 108.00645 61.57286 77.51959
#
# Poissons Ratio (x) = 0.14864 0.14667
# Poissons Ratio (y) = 0.26074 0.43831
# Poissons Ratio (z) = 0.20435 0.34814
#
# Static dielectric constant tensor:
#      x y z
#    x 1.966310 0.000000 0.000000 
#    y 0.000000 1.824810 0.000000 
#    z 0.000000 0.000000 1.921060 
# 
# From -- ./inp_files/18980.got.cif
#   From: 2010.05.17/outbox.cif.g08.bks.cpg/sg60_10_cif.got.tgz:18980.got - 2010.06.03 14:59:27.
