data_PCOD9457055
_publ_section_title
;
Structure prediction by ZEFSAII (Michael W. Deem and Ramdas Pophale) SiO2 
 PCOD9457055
Probable space group: P B C N
;
_chemical_formula_sum "Si O2"
_cell_formula_units_Z 56
_cell_length_a 9.409399
_cell_length_b 19.594925
_cell_length_c 14.155686
_cell_angle_alpha 90.000000
_cell_angle_beta 90.000000
_cell_angle_gamma 90.000000
_cell_volume 2609.975383
_symmetry_space_group_name_H-M "P B C N"
_symmetry_group_IT_number 60
_symmetry_cell_setting 'orthorhombic'
loop_
_space_group_symop_operation_xyz
x,y,z
1/2-x,1/2-y,1/2+z
1/2+x,1/2-y,-z
-x,y,1/2-z
-x,-y,-z
1/2+x,1/2+y,1/2-z
1/2-x,1/2+y,z
x,-y,1/2+z
loop_
_atom_site_type_symbol
_atom_site_label
_atom_site_fract_x
_atom_site_fract_y
_atom_site_fract_z
Si Si1 0.902590 0.256836 0.894585
Si Si2 0.389924 0.403361 0.834754
Si Si3 0.723569 0.876146 0.372238
Si Si4 0.710606 0.225291 0.186499
Si Si5 0.900581 0.662845 0.589100
Si Si6 0.808433 0.937227 0.168456
Si Si7 0.448981 0.426304 0.031378
O O1 0.826757 0.184282 0.910125
O O2 0.826690 0.277509 0.797011
O O3 0.069458 0.253653 0.870275
O O4 0.886423 0.305409 0.984636
O O5 0.500000 0.391936 0.750000
O O6 0.262266 0.350157 0.836259
O O7 0.331287 0.481190 0.825765
O O8 0.469438 0.387012 0.933546
O O9 0.562893 0.852986 0.383002
O O10 0.766508 0.903513 0.268829
O O11 0.782568 0.933545 0.442825
O O12 0.830853 0.280387 0.158845
O O13 0.812906 0.592736 0.600284
O O14 0.955116 0.909740 0.122643
O O15 0.500000 0.500000 0.000000
#
# Coordination Sequence:
#
# PCOD9457055 Si02
#       7
#     8   8   8   8   8   8   8
#     4  11  25  45  71 100 141 185 235 294 359 434
#     4  11  25  44  70 101 143 183 236 291 356 430
#     4  12  24  45  72 105 140 183 242 299 356 427
#     4  11  26  46  67 103 140 185 232 297 362 426
#     4  12  25  44  74 106 140 179 242 301 357 425
#     4  11  24  44  71 101 137 188 233 289 353 436
#     4  10  22  42  68  97 134 182 234 278 347 423
#
# _framework density 21.456140000000001
#
# number of rings (size 3 to 8) (size 9 to 14) (size 15 to 20)
#    0.000    0.857    1.429    6.000    6.000    0.000 
#    5.143    3.571    0.000    0.000    0.000    0.000 
#    0.000    0.000    0.000    0.000    0.000    0.000 
#
# Total GULP energy -312509.862588 kJ/mol
# GULP energy per Si atom -5580.533260 kJ/mol
# Density = 2.140731 g / cm^3
# Si number density = 21.456140 Si / 1000 Ang^3
#
#
#
# Elastic Constant Matrix: (Units=GPa)
#
#
# Indices 1 2 3 4 5 6 
#
# 1 157.6165 48.7447 32.6087 0.0000 0.0000 0.0000
# 2 48.7447 68.9580 -6.5717 0.0000 0.0000 0.0000
# 3 32.6087 -6.5717 61.9685 0.0000 0.0000 0.0000
# 4 0.0000 0.0000 0.0000 37.2701 0.0000 0.0000
# 5 0.0000 0.0000 0.0000 0.0000 25.9141 0.0000
# 6 0.0000 0.0000 0.0000 0.0000 0.0000 26.8355
#
#
#
# Elastic Compliance Matrix: (Units=1/GPa)
#
#
# Indices 1 2 3 4 5 6 
#
# 1 0.009947 -0.007607 -0.006041 0.000000 0.000000 0.000000
# 2 -0.007607 0.020467 0.006173 0.000000 0.000000 0.000000
# 3 -0.006041 0.006173 0.019971 0.000000 0.000000 0.000000
# 4 0.000000 0.000000 0.000000 0.026831 0.000000 0.000000
# 5 0.000000 0.000000 0.000000 0.000000 0.038589 0.000000
# 6 0.000000 0.000000 0.000000 0.000000 0.000000 0.037264
#
#
# Mechanical properties :
#
#
# Convention : Reuss Voigt Hill
#
# Bulk Modulus (GPa) = 28.22008 48.67849 38.44928
# Shear Modulus (GPa) = 27.80416 32.25470 30.02943
#
# Velocity S-wave (km/s) = 3.60371 3.88143 3.74514
# Velocity P-wave (km/s) = 5.52238 6.54401 6.05478
#
# Compressibility (1/GPa) = 0.03543576
#
# Stress axis : x y z
#
# Youngs Moduli (GPa) = 100.53517 48.85926 50.07341
#
# Poissons Ratio (x) = 0.37166 0.30248
# Poissons Ratio (y) = 0.76475 -0.30912
# Poissons Ratio (z) = 0.60732 -0.30162
#
# Static dielectric constant tensor:
#      x y z
#    x 1.843230 0.000000 0.000000 
#    y 0.000000 2.102530 0.000000 
#    z 0.000000 0.000000 1.791440 
# 
# From -- ./inp_files/15274.got.cif
#   From: 2010.05.17/outbox.cif.g08.bks.cpg/sg60_8_cif.got.tgz:15274.got - 2010.06.03 14:59:27.
