data_PCOD9457920
_publ_section_title
;
Structure prediction by ZEFSAII (Michael W. Deem and Ramdas Pophale) SiO2 
 PCOD9457920
Probable space group: P B C N
;
_chemical_formula_sum "Si O2"
_cell_formula_units_Z 24
_cell_length_a 5.200375
_cell_length_b 17.377500
_cell_length_c 10.985889
_cell_angle_alpha 90.000000
_cell_angle_beta 90.000000
_cell_angle_gamma 90.000000
_cell_volume 992.789478
_symmetry_space_group_name_H-M "P B C N"
_symmetry_group_IT_number 60
_symmetry_cell_setting 'orthorhombic'
loop_
_space_group_symop_operation_xyz
x,y,z
1/2-x,1/2-y,1/2+z
1/2+x,1/2-y,-z
-x,y,1/2-z
-x,-y,-z
1/2+x,1/2+y,1/2-z
1/2-x,1/2+y,z
x,-y,1/2+z
loop_
_atom_site_type_symbol
_atom_site_label
_atom_site_fract_x
_atom_site_fract_y
_atom_site_fract_z
Si Si1 0.641334 0.204696 0.377469
Si Si2 0.118271 0.646611 0.620299
Si Si3 0.500000 0.998470 0.750000
Si Si4 0.500000 0.602591 0.250000
O O1 0.500000 0.189787 0.250000
O O2 0.639046 0.297077 0.389816
O O3 0.528839 0.167602 0.498108
O O4 0.910449 0.160262 0.356429
O O5 0.107784 0.555589 0.644178
O O6 0.000000 0.674905 0.750000
O O7 0.753893 0.950105 0.715610
#
# Coordination Sequence:
#
# PCOD9457920 Si02
#       4
#     8   8   4   4
#     4  12  25  48  78 112 147 200 261 316 375 451
#     4  10  25  47  72 111 142 200 250 312 373 447
#     4  10  27  48  71 112 154 198 246 308 389 454
#     4  12  25  50  73 112 154 200 244 318 377 462
#
# _framework density 24.174306000000001
#
# number of rings (size 3 to 8) (size 9 to 14) (size 15 to 20)
#    1.000    0.000    3.333    2.000    2.333    2.667 
#    0.000    0.000    0.000    0.000    0.000    0.000 
#    0.000    0.000    0.000    0.000    0.000    0.000 
#
# Total GULP energy -133712.188734 kJ/mol
# GULP energy per Si atom -5571.341197 kJ/mol
# Density = 2.411928 g / cm^3
# Si number density = 24.174306 Si / 1000 Ang^3
#
#
#
# Elastic Constant Matrix: (Units=GPa)
#
#
# Indices 1 2 3 4 5 6 
#
# 1 98.4020 62.5855 47.2434 0.0000 0.0000 0.0000
# 2 62.5855 121.9397 24.6957 0.0000 0.0000 0.0000
# 3 47.2434 24.6957 175.3282 0.0000 0.0000 0.0000
# 4 0.0000 0.0000 0.0000 27.9285 0.0000 0.0000
# 5 0.0000 0.0000 0.0000 0.0000 48.4164 0.0000
# 6 0.0000 0.0000 0.0000 0.0000 0.0000 32.6109
#
#
#
# Elastic Compliance Matrix: (Units=1/GPa)
#
#
# Indices 1 2 3 4 5 6 
#
# 1 0.016874 -0.007967 -0.003425 0.000000 0.000000 0.000000
# 2 -0.007967 0.012203 0.000428 0.000000 0.000000 0.000000
# 3 -0.003425 0.000428 0.006566 0.000000 0.000000 0.000000
# 4 0.000000 0.000000 0.000000 0.035806 0.000000 0.000000
# 5 0.000000 0.000000 0.000000 0.000000 0.020654 0.000000
# 6 0.000000 0.000000 0.000000 0.000000 0.000000 0.030665
#
#
# Mechanical properties :
#
#
# Convention : Reuss Voigt Hill
#
# Bulk Modulus (GPa) = 72.90880 73.85767 73.38323
# Shear Modulus (GPa) = 33.49725 39.20087 36.34906
#
# Velocity S-wave (km/s) = 3.72648 4.03127 3.88187
# Velocity P-wave (km/s) = 6.98145 7.23095 7.10729
#
# Compressibility (1/GPa) = 0.01371577
#
# Stress axis : x y z
#
# Youngs Moduli (GPa) = 59.26433 81.94659 152.29769
#
# Poissons Ratio (x) = 0.65285 0.52155
# Poissons Ratio (y) = 0.47215 -0.06516
# Poissons Ratio (z) = 0.20295 -0.03506
#
# Static dielectric constant tensor:
#      x y z
#    x 2.102850 0.000000 0.000000 
#    y 0.000000 1.975620 0.000000 
#    z 0.000000 0.000000 1.917860 
# 
# From -- ./inp_files/8691.got.cif
#   From: 2010.05.17/outbox.cif.g08.bks.cpg/sg60_5_cif.got.tgz:8691.got - 2010.06.03 14:59:27.
