data_PCOD9457463
_publ_section_title
;
Structure prediction by ZEFSAII (Michael W. Deem and Ramdas Pophale) SiO2 
 PCOD9457463
Probable space group: P B C N
;
_chemical_formula_sum "Si O2"
_cell_formula_units_Z 48
_cell_length_a 8.490526
_cell_length_b 9.731749
_cell_length_c 27.515980
_cell_angle_alpha 90.000000
_cell_angle_beta 90.000000
_cell_angle_gamma 90.000000
_cell_volume 2273.581258
_symmetry_space_group_name_H-M "P B C N"
_symmetry_group_IT_number 60
_symmetry_cell_setting 'orthorhombic'
loop_
_space_group_symop_operation_xyz
x,y,z
1/2-x,1/2-y,1/2+z
1/2+x,1/2-y,-z
-x,y,1/2-z
-x,-y,-z
1/2+x,1/2+y,1/2-z
1/2-x,1/2+y,z
x,-y,1/2+z
loop_
_atom_site_type_symbol
_atom_site_label
_atom_site_fract_x
_atom_site_fract_y
_atom_site_fract_z
Si Si1 0.937985 0.520691 0.798595
Si Si2 0.558282 0.242006 0.632432
Si Si3 0.078123 0.742731 0.338093
Si Si4 0.929617 0.023488 0.301859
Si Si5 0.554939 0.170117 0.053823
Si Si6 0.331830 0.868113 0.465107
O O1 0.757686 0.477159 0.796478
O O2 0.000000 0.594077 0.750000
O O3 0.960267 0.619430 0.844074
O O4 0.050353 0.389660 0.805146
O O5 0.737941 0.230194 0.651992
O O6 0.486344 0.380349 0.654044
O O7 0.569401 0.218738 0.574969
O O8 0.008262 0.703186 0.390978
O O9 0.994426 0.872377 0.314330
O O10 0.000000 0.067788 0.250000
O O11 0.661228 0.298250 0.036390
O O12 0.656471 0.027833 0.051351
O O13 0.410878 0.146352 0.017544
#
# Coordination Sequence:
#
# PCOD9457463 Si02
#       6
#     8   8   8   8   8   8
#     4  12  24  42  65  92 131 168 217 272 324 390
#     4  11  23  43  66  94 129 173 215 270 326 384
#     4  11  23  43  66  94 129 173 215 270 326 384
#     4  12  26  42  65  98 129 172 221 268 328 388
#     4  10  23  43  67  98 133 172 215 266 325 385
#     4  10  23  43  67  98 133 172 215 266 325 385
#
# _framework density 21.112068000000001
#
# number of rings (size 3 to 8) (size 9 to 14) (size 15 to 20)
#    0.000    1.000    1.667    5.000    7.000    3.333 
#    0.000    0.000    0.000    0.000    0.000    0.000 
#    0.000    0.000    0.000    0.000    0.000    0.000 
#
# Total GULP energy -268449.746951 kJ/mol
# GULP energy per Si atom -5592.703061 kJ/mol
# Density = 2.106402 g / cm^3
# Si number density = 21.112068 Si / 1000 Ang^3
#
#
#
# Elastic Constant Matrix: (Units=GPa)
#
#
# Indices 1 2 3 4 5 6 
#
# 1 45.4867 -18.3527 14.6412 0.0000 0.0000 0.0000
# 2 -18.3527 77.5696 -5.9384 0.0000 0.0000 0.0000
# 3 14.6412 -5.9384 71.4739 0.0000 0.0000 0.0000
# 4 0.0000 0.0000 0.0000 30.9344 0.0000 0.0000
# 5 0.0000 0.0000 0.0000 0.0000 7.6593 0.0000
# 6 0.0000 0.0000 0.0000 0.0000 0.0000 18.4705
#
#
#
# Elastic Compliance Matrix: (Units=1/GPa)
#
#
# Indices 1 2 3 4 5 6 
#
# 1 0.025855 0.005748 -0.004819 0.000000 0.000000 0.000000
# 2 0.005748 0.014252 0.000007 0.000000 0.000000 0.000000
# 3 -0.004819 0.000007 0.014979 0.000000 0.000000 0.000000
# 4 0.000000 0.000000 0.000000 0.032326 0.000000 0.000000
# 5 0.000000 0.000000 0.000000 0.000000 0.130560 0.000000
# 6 0.000000 0.000000 0.000000 0.000000 0.000000 0.054140
#
#
# Mechanical properties :
#
#
# Convention : Reuss Voigt Hill
#
# Bulk Modulus (GPa) = 17.55676 19.47004 18.51340
# Shear Modulus (GPa) = 17.28749 25.02486 21.15617
#
# Velocity S-wave (km/s) = 2.86465 3.44660 3.16901
# Velocity P-wave (km/s) = 4.39041 5.00810 4.70939
#
# Compressibility (1/GPa) = 0.05695810
#
# Stress axis : x y z
#
# Youngs Moduli (GPa) = 38.67764 70.16476 66.76127
#
# Poissons Ratio (x) = -0.40332 0.32170
# Poissons Ratio (y) = -0.22233 -0.00044
# Poissons Ratio (z) = 0.18637 -0.00047
#
# Static dielectric constant tensor:
#      x y z
#    x 1.716620 0.000000 0.000000 
#    y 0.000000 1.751030 0.000000 
#    z 0.000000 0.000000 1.589900 
# 
# From -- ./inp_files/25928.got.cif
#   From: 2010.05.17/outbox.cif.g08.bks.cpg/sg60_13_cif.got.tgz:25928.got - 2010.06.03 14:59:27.
