data_PCOD9457961
_publ_section_title
;
Structure prediction by ZEFSAII (Michael W. Deem and Ramdas Pophale) SiO2 
 PCOD9457961
Probable space group: P B C N
;
_chemical_formula_sum "Si O2"
_cell_formula_units_Z 40
_cell_length_a 12.096243
_cell_length_b 17.368855
_cell_length_c 8.224819
_cell_angle_alpha 90.000000
_cell_angle_beta 90.000000
_cell_angle_gamma 90.000000
_cell_volume 1728.017123
_symmetry_space_group_name_H-M "P B C N"
_symmetry_group_IT_number 60
_symmetry_cell_setting 'orthorhombic'
loop_
_space_group_symop_operation_xyz
x,y,z
1/2-x,1/2-y,1/2+z
1/2+x,1/2-y,-z
-x,y,1/2-z
-x,-y,-z
1/2+x,1/2+y,1/2-z
1/2-x,1/2+y,z
x,-y,1/2+z
loop_
_atom_site_type_symbol
_atom_site_label
_atom_site_fract_x
_atom_site_fract_y
_atom_site_fract_z
Si Si1 0.732130 0.040877 0.561520
Si Si2 0.072842 0.225309 0.594005
Si Si3 0.980589 0.621156 0.560851
Si Si4 0.270800 0.885255 0.078034
Si Si5 0.456390 0.418738 0.568973
O O1 0.607301 0.057906 0.497667
O O2 0.733382 0.071862 0.745956
O O3 0.824678 0.083812 0.456285
O O4 0.766612 0.951839 0.546614
O O5 0.075730 0.296829 0.471682
O O6 0.196011 0.189732 0.605678
O O7 0.000000 0.250950 0.750000
O O8 0.005812 0.151830 0.530299
O O9 0.000000 0.605161 0.750000
O O10 0.107142 0.630620 0.507917
O O11 0.500000 0.411894 0.750000
O O12 0.500000 0.500000 0.500000
#
# Coordination Sequence:
#
# PCOD9457961 Si02
#       5
#     8   8   8   8   8
#     4  11  23  44  68  99 133 176 230 285 341 413
#     4  12  25  43  65 100 136 176 227 283 344 412
#     4  10  26  46  66  96 137 183 225 283 347 418
#     4  11  24  43  70  97 136 175 228 286 342 416
#     4  12  23  40  65  98 133 174 224 278 343 400
#
# _framework density 23.147919000000002
#
# number of rings (size 3 to 8) (size 9 to 14) (size 15 to 20)
#    0.000    0.800    4.000    3.000    2.800    1.600 
#    0.000    0.000    0.000    0.000    0.000    0.000 
#    0.000    0.000    0.000    0.000    0.000    0.000 
#
# Total GULP energy -223295.415879 kJ/mol
# GULP energy per Si atom -5582.385397 kJ/mol
# Density = 2.309523 g / cm^3
# Si number density = 23.147919 Si / 1000 Ang^3
#
#
#
# Elastic Constant Matrix: (Units=GPa)
#
#
# Indices 1 2 3 4 5 6 
#
# 1 150.7752 20.4161 34.9752 0.0000 0.0000 0.0000
# 2 20.4161 33.8180 -10.5438 0.0000 0.0000 0.0000
# 3 34.9752 -10.5438 56.1366 0.0000 0.0000 0.0000
# 4 0.0000 0.0000 0.0000 30.8472 0.0000 0.0000
# 5 0.0000 0.0000 0.0000 0.0000 27.8350 0.0000
# 6 0.0000 0.0000 0.0000 0.0000 0.0000 35.6759
#
#
#
# Elastic Compliance Matrix: (Units=1/GPa)
#
#
# Indices 1 2 3 4 5 6 
#
# 1 0.009424 -0.007988 -0.007372 0.000000 0.000000 0.000000
# 2 -0.007988 0.038180 0.012148 0.000000 0.000000 0.000000
# 3 -0.007372 0.012148 0.024688 0.000000 0.000000 0.000000
# 4 0.000000 0.000000 0.000000 0.032418 0.000000 0.000000
# 5 0.000000 0.000000 0.000000 0.000000 0.035926 0.000000
# 6 0.000000 0.000000 0.000000 0.000000 0.000000 0.028030
#
#
# Mechanical properties :
#
#
# Convention : Reuss Voigt Hill
#
# Bulk Modulus (GPa) = 15.18180 36.71388 25.94784
# Shear Modulus (GPa) = 25.37482 31.93043 28.65262
#
# Velocity S-wave (km/s) = 3.31449 3.71807 3.52206
# Velocity P-wave (km/s) = 4.60658 5.85893 5.27009
#
# Compressibility (1/GPa) = 0.06586834
#
# Stress axis : x y z
#
# Youngs Moduli (GPa) = 106.11181 26.19194 40.50512
#
# Poissons Ratio (x) = 0.20921 0.29860
# Poissons Ratio (y) = 0.84759 -0.49205
# Poissons Ratio (z) = 0.78224 -0.31817
#
# Static dielectric constant tensor:
#      x y z
#    x 2.115930 0.000000 0.000000 
#    y 0.000000 1.826520 0.000000 
#    z 0.000000 0.000000 1.867810 
# 
# From -- ./inp_files/4736.got.cif
#   From: 2010.05.17/outbox.cif.g08.bks.cpg/sg60_3_cif.got.tgz:4736.got - 2010.06.03 14:59:27.
