data_PCOD9457674
_publ_section_title
;
Structure prediction by ZEFSAII (Michael W. Deem and Ramdas Pophale) SiO2 
 PCOD9457674
Probable space group: P B C N
;
_chemical_formula_sum "Si O2"
_cell_formula_units_Z 64
_cell_length_a 29.460159
_cell_length_b 12.127922
_cell_length_c 8.683930
_cell_angle_alpha 90.000000
_cell_angle_beta 90.000000
_cell_angle_gamma 90.000000
_cell_volume 3102.685782
_symmetry_space_group_name_H-M "P B C N"
_symmetry_group_IT_number 60
_symmetry_cell_setting 'orthorhombic'
loop_
_space_group_symop_operation_xyz
x,y,z
1/2-x,1/2-y,1/2+z
1/2+x,1/2-y,-z
-x,y,1/2-z
-x,-y,-z
1/2+x,1/2+y,1/2-z
1/2-x,1/2+y,z
x,-y,1/2+z
loop_
_atom_site_type_symbol
_atom_site_label
_atom_site_fract_x
_atom_site_fract_y
_atom_site_fract_z
Si Si1 0.692343 0.120570 0.851335
Si Si2 0.596908 0.389154 0.699465
Si Si3 0.692939 0.381221 0.857057
Si Si4 0.749594 0.504148 0.606018
Si Si5 0.088945 0.548057 0.599470
Si Si6 0.024984 0.301450 0.906420
Si Si7 0.546930 0.434305 0.007005
Si Si8 0.064200 0.342360 0.410261
O O1 0.692883 0.250605 0.872992
O O2 0.716141 0.088003 0.690564
O O3 0.641200 0.076703 0.868229
O O4 0.722272 0.064176 0.982469
O O5 0.644361 0.410385 0.784198
O O6 0.560218 0.395127 0.836693
O O7 0.583893 0.482642 0.577243
O O8 0.593336 0.267682 0.624011
O O9 0.729746 0.422918 0.734135
O O10 0.708232 0.436308 0.017185
O O11 0.066022 0.622984 0.465977
O O12 0.083552 0.422626 0.543249
O O13 0.063643 0.584843 0.755375
O O14 0.000000 0.337241 0.750000
O O15 0.041795 0.175768 0.891511
O O16 0.985549 0.305584 0.035489
O O17 0.500000 0.500000 0.000000
#
# Coordination Sequence:
#
# PCOD9457674 Si02
#       8
#     8   8   8   8   8   8   8   8
#     4  11  22  43  69 101 136 178 226 280 350 416
#     4  12  25  44  70 100 138 184 230 299 341 424
#     4  11  22  44  67 100 137 176 227 277 354 415
#     4  10  24  41  70 100 137 177 221 284 352 421
#     4  12  25  44  70  99 139 184 234 292 342 425
#     4  12  25  44  66  99 138 191 236 291 348 405
#     4  12  24  42  68  96 138 182 240 285 350 401
#     4  12  25  45  68  99 140 184 236 291 353 402
#
# _framework density 20.627291
#
# number of rings (size 3 to 8) (size 9 to 14) (size 15 to 20)
#    0.000    0.500    3.750    4.875    0.000    0.000 
#    0.000    0.000    5.500    0.000    0.000    0.000 
#    0.000    0.000    0.000    0.000    0.000    0.000 
#
# Total GULP energy -357991.367733 kJ/mol
# GULP energy per Si atom -5593.615121 kJ/mol
# Density = 2.058034 g / cm^3
# Si number density = 20.627291 Si / 1000 Ang^3
#
#
#
# Elastic Constant Matrix: (Units=GPa)
#
#
# Indices 1 2 3 4 5 6 
#
# 1 87.1402 30.3191 16.2729 0.0000 0.0000 0.0000
# 2 30.3191 102.1073 27.2868 0.0000 0.0000 0.0000
# 3 16.2729 27.2868 85.4163 0.0000 0.0000 0.0000
# 4 0.0000 0.0000 0.0000 35.6837 0.0000 0.0000
# 5 0.0000 0.0000 0.0000 0.0000 42.8471 0.0000
# 6 0.0000 0.0000 0.0000 0.0000 0.0000 27.0497
#
#
#
# Elastic Compliance Matrix: (Units=1/GPa)
#
#
# Indices 1 2 3 4 5 6 
#
# 1 0.012939 -0.003481 -0.001353 0.000000 0.000000 0.000000
# 2 -0.003481 0.011644 -0.003057 0.000000 0.000000 0.000000
# 3 -0.001353 -0.003057 0.012942 0.000000 0.000000 0.000000
# 4 0.000000 0.000000 0.000000 0.028024 0.000000 0.000000
# 5 0.000000 0.000000 0.000000 0.000000 0.023339 0.000000
# 6 0.000000 0.000000 0.000000 0.000000 0.000000 0.036969
#
#
# Mechanical properties :
#
#
# Convention : Reuss Voigt Hill
#
# Bulk Modulus (GPa) = 45.98928 46.93570 46.46249
# Shear Modulus (GPa) = 33.58280 34.50178 34.04229
#
# Velocity S-wave (km/s) = 4.03932 4.09421 4.06686
# Velocity P-wave (km/s) = 6.64068 6.71965 6.68028
#
# Compressibility (1/GPa) = 0.02174420
#
# Stress axis : x y z
#
# Youngs Moduli (GPa) = 77.28293 85.88151 77.26997
#
# Poissons Ratio (x) = 0.29891 0.10457
# Poissons Ratio (y) = 0.26898 0.23619
# Poissons Ratio (z) = 0.10458 0.26251
#
# Static dielectric constant tensor:
#      x y z
#    x 1.730760 0.000000 0.000000 
#    y 0.000000 1.720380 0.000000 
#    z 0.000000 0.000000 1.754760 
# 
# From -- ./inp_files/8491.got.cif
#   From: 2010.05.17/outbox.cif.g08.bks.cpg/sg60_5_cif.got.tgz:8491.got - 2010.06.03 14:59:27.
