data_PCOD9457105
_publ_section_title
;
Structure prediction by ZEFSAII (Michael W. Deem and Ramdas Pophale) SiO2 
 PCOD9457105
Probable space group: P B C N
;
_chemical_formula_sum "Si O2"
_cell_formula_units_Z 32
_cell_length_a 7.163321
_cell_length_b 36.585586
_cell_length_c 5.472825
_cell_angle_alpha 90.000000
_cell_angle_beta 90.000000
_cell_angle_gamma 90.000000
_cell_volume 1434.286762
_symmetry_space_group_name_H-M "P B C N"
_symmetry_group_IT_number 60
_symmetry_cell_setting 'orthorhombic'
loop_
_space_group_symop_operation_xyz
x,y,z
1/2-x,1/2-y,1/2+z
1/2+x,1/2-y,-z
-x,y,1/2-z
-x,-y,-z
1/2+x,1/2+y,1/2-z
1/2-x,1/2+y,z
x,-y,1/2+z
loop_
_atom_site_type_symbol
_atom_site_label
_atom_site_fract_x
_atom_site_fract_y
_atom_site_fract_z
Si Si1 0.774313 0.130515 0.264957
Si Si2 0.000000 0.772228 0.250000
Si Si3 0.275409 0.410509 0.237862
Si Si4 0.290537 0.709027 0.346547
Si Si5 0.500000 0.023282 0.750000
O O1 0.719199 0.110164 0.512373
O O2 0.715717 0.172950 0.277199
O O3 0.000000 0.132143 0.250000
O O4 0.719791 0.110464 0.012744
O O5 0.855576 0.799471 0.380066
O O6 0.849284 0.742676 0.148401
O O7 0.500000 0.413564 0.250000
O O8 0.177820 0.449765 0.241235
O O9 0.500000 0.719429 0.250000
O O10 0.500000 0.000000 0.500000
#
# Coordination Sequence:
#
# PCOD9457105 Si02
#       5
#     8   4   8   8   4
#     4   9  21  39  67  90 125 171 215 269 315 373
#     4  12  24  40  59  90 126 174 218 282 340 406
#     4  10  22  43  65  95 128 165 212 256 309 377
#     4  11  24  39  61  88 128 169 223 274 341 388
#     4  12  26  42  69 100 134 166 200 254 316 382
#
# _framework density 22.310739999999999
#
# number of rings (size 3 to 8) (size 9 to 14) (size 15 to 20)
#    0.000    1.500    2.500    1.500    8.750    3.000 
#    0.000    0.000    0.000    0.000    0.000    0.000 
#    0.000    0.000    0.000    0.000    0.000    0.000 
#
# Total GULP energy -178366.168097 kJ/mol
# GULP energy per Si atom -5573.942753 kJ/mol
# Density = 2.225996 g / cm^3
# Si number density = 22.310740 Si / 1000 Ang^3
#
#
#
# Elastic Constant Matrix: (Units=GPa)
#
#
# Indices 1 2 3 4 5 6 
#
# 1 109.8656 22.5942 24.7271 0.0000 0.0000 0.0000
# 2 22.5942 112.4745 78.7606 0.0000 0.0000 0.0000
# 3 24.7271 78.7606 157.7008 0.0000 0.0000 0.0000
# 4 0.0000 0.0000 0.0000 39.9070 0.0000 0.0000
# 5 0.0000 0.0000 0.0000 0.0000 8.9473 0.0000
# 6 0.0000 0.0000 0.0000 0.0000 0.0000 44.0392
#
#
#
# Elastic Compliance Matrix: (Units=1/GPa)
#
#
# Indices 1 2 3 4 5 6 
#
# 1 0.009564 -0.001340 -0.000831 0.000000 0.000000 0.000000
# 2 -0.001340 0.013860 -0.006712 0.000000 0.000000 0.000000
# 3 -0.000831 -0.006712 0.009824 0.000000 0.000000 0.000000
# 4 0.000000 0.000000 0.000000 0.025058 0.000000 0.000000
# 5 0.000000 0.000000 0.000000 0.000000 0.111765 0.000000
# 6 0.000000 0.000000 0.000000 0.000000 0.000000 0.022707
#
#
# Mechanical properties :
#
#
# Convention : Reuss Voigt Hill
#
# Bulk Modulus (GPa) = 64.58532 70.24498 67.41515
# Shear Modulus (GPa) = 23.17981 35.50932 29.34456
#
# Velocity S-wave (km/s) = 3.22678 3.99379 3.63059
# Velocity P-wave (km/s) = 6.54933 7.26776 6.91788
#
# Compressibility (1/GPa) = 0.01548339
#
# Stress axis : x y z
#
# Youngs Moduli (GPa) = 104.55346 72.14878 101.79549
#
# Poissons Ratio (x) = 0.09666 0.08455
# Poissons Ratio (y) = 0.14007 0.68327
# Poissons Ratio (z) = 0.08684 0.48427
#
# Static dielectric constant tensor:
#      x y z
#    x 1.205190 0.000000 0.000000 
#    y 0.000000 1.760900 0.000000 
#    z 0.000000 0.000000 3.272510 
# 
# From -- ./inp_files/385.got.cif
#   From: 2010.05.17/outbox.cif.g08.bks.cpg/sg60_1_cif.got.tgz:385.got - 2010.06.03 14:59:27.
