data_PCOD9457707
_publ_section_title
;
Structure prediction by ZEFSAII (Michael W. Deem and Ramdas Pophale) SiO2 
 PCOD9457707
Probable space group: P B C N
;
_chemical_formula_sum "Si O2"
_cell_formula_units_Z 52
_cell_length_a 17.141751
_cell_length_b 16.428428
_cell_length_c 8.813511
_cell_angle_alpha 90.000000
_cell_angle_beta 90.000000
_cell_angle_gamma 90.000000
_cell_volume 2481.990654
_symmetry_space_group_name_H-M "P B C N"
_symmetry_group_IT_number 60
_symmetry_cell_setting 'orthorhombic'
loop_
_space_group_symop_operation_xyz
x,y,z
1/2-x,1/2-y,1/2+z
1/2+x,1/2-y,-z
-x,y,1/2-z
-x,-y,-z
1/2+x,1/2+y,1/2-z
1/2-x,1/2+y,z
x,-y,1/2+z
loop_
_atom_site_type_symbol
_atom_site_label
_atom_site_fract_x
_atom_site_fract_y
_atom_site_fract_z
Si Si1 0.648421 0.111412 0.423502
Si Si2 0.220142 0.514096 0.346649
Si Si3 0.179537 0.335942 0.032420
Si Si4 0.000000 0.000000 0.000000
Si Si5 0.618980 0.562348 0.754507
Si Si6 0.491417 0.909207 0.068140
Si Si7 0.296197 0.729588 0.743476
O O1 0.660124 0.048466 0.281348
O O2 0.561822 0.133598 0.478369
O O3 0.687474 0.193773 0.365683
O O4 0.686817 0.062970 0.562940
O O5 0.228052 0.587410 0.467316
O O6 0.302466 0.489933 0.275801
O O7 0.193465 0.264909 0.910955
O O8 0.091138 0.367203 0.035104
O O9 0.212434 0.305593 0.192544
O O10 0.940222 0.949797 0.115438
O O11 0.925178 0.028998 0.899957
O O12 0.644336 0.655523 0.775567
O O13 0.500000 0.910584 0.250000
O O14 0.500000 0.000000 0.000000
#
# Coordination Sequence:
#
# PCOD9457707 Si02
#       7
#     8   8   8   4   8   8   8
#     4  11  24  42  69 104 141 186 233 298 358 446
#     4  11  22  41  73 101 136 187 247 282 359 442
#     4  11  26  45  70 108 143 197 236 300 359 447
#     4  10  24  42  70  92 130 176 244 288 348 406
#     4  11  23  44  69 101 132 184 234 307 346 424
#     4  12  27  43  71 106 145 185 239 306 370 439
#     4  11  26  43  72 101 147 184 242 292 374 423
#
# _framework density 20.950925000000002
#
# number of rings (size 3 to 8) (size 9 to 14) (size 15 to 20)
#    0.000    0.923    1.538    4.615    6.462    3.692 
#    0.000    0.000    6.769    0.000    0.000    0.000 
#    0.000    0.000    0.000    0.000    0.000    0.000 
#
# Total GULP energy -289629.233506 kJ/mol
# GULP energy per Si atom -5569.792952 kJ/mol
# Density = 2.090324 g / cm^3
# Si number density = 20.950925 Si / 1000 Ang^3
#
#
#
# Elastic Constant Matrix: (Units=GPa)
#
#
# Indices 1 2 3 4 5 6 
#
# 1 114.0721 33.8829 58.0920 0.0000 0.0000 0.0000
# 2 33.8829 89.4688 61.9198 0.0000 0.0000 0.0000
# 3 58.0920 61.9198 108.6778 0.0000 0.0000 0.0000
# 4 0.0000 0.0000 0.0000 -14.5735 0.0000 0.0000
# 5 0.0000 0.0000 0.0000 0.0000 36.7036 0.0000
# 6 0.0000 0.0000 0.0000 0.0000 0.0000 23.4871
#
#
#
# Elastic Compliance Matrix: (Units=1/GPa)
#
#
# Indices 1 2 3 4 5 6 
#
# 1 0.012047 -0.000174 -0.006340 0.000000 0.000000 0.000000
# 2 -0.000174 0.018456 -0.010422 0.000000 0.000000 0.000000
# 3 -0.006340 -0.010422 0.018529 0.000000 0.000000 0.000000
# 4 0.000000 0.000000 0.000000 -0.068618 0.000000 0.000000
# 5 0.000000 0.000000 0.000000 0.000000 0.027245 0.000000
# 6 0.000000 0.000000 0.000000 0.000000 0.000000 0.042577
#
#
# Mechanical properties :
#
#
# Convention : Reuss Voigt Hill
#
# Bulk Modulus (GPa) = 65.97110 68.88980 67.43045
# Shear Modulus (GPa) = 56.07743 19.67837 37.87790
#
# Velocity S-wave (km/s) = 5.17921 3.06806 4.25659
# Velocity P-wave (km/s) = 8.20502 6.74563 7.51086
#
# Compressibility (1/GPa) = 0.01515815
#
# Stress axis : x y z
#
# Youngs Moduli (GPa) = 83.00857 54.18215 53.97027
#
# Poissons Ratio (x) = 0.00945 0.34218
# Poissons Ratio (y) = 0.01448 0.56250
# Poissons Ratio (z) = 0.52629 0.56470
#
# Static dielectric constant tensor:
#      x y z
#    x 1.780880 0.000000 0.000000 
#    y 0.000000 1.750200 0.000000 
#    z 0.000000 0.000000 1.793270 
# 
# From -- ./inp_files/6865.got.cif
#   From: 2010.05.17/outbox.cif.g08.bks.cpg/sg60_4_cif.got.tgz:6865.got - 2010.06.03 14:59:27.
