data_PCOD9457428
_publ_section_title
;
Structure prediction by ZEFSAII (Michael W. Deem and Ramdas Pophale) SiO2 
 PCOD9457428
Probable space group: P B C N
;
_chemical_formula_sum "Si O2"
_cell_formula_units_Z 32
_cell_length_a 7.131419
_cell_length_b 9.375762
_cell_length_c 21.752885
_cell_angle_alpha 90.000000
_cell_angle_beta 90.000000
_cell_angle_gamma 90.000000
_cell_volume 1454.451996
_symmetry_space_group_name_H-M "P B C N"
_symmetry_group_IT_number 60
_symmetry_cell_setting 'orthorhombic'
loop_
_space_group_symop_operation_xyz
x,y,z
1/2-x,1/2-y,1/2+z
1/2+x,1/2-y,-z
-x,y,1/2-z
-x,-y,-z
1/2+x,1/2+y,1/2-z
1/2-x,1/2+y,z
x,-y,1/2+z
loop_
_atom_site_type_symbol
_atom_site_label
_atom_site_fract_x
_atom_site_fract_y
_atom_site_fract_z
Si Si1 0.670651 0.386726 0.413628
Si Si2 0.398083 0.511766 0.315405
Si Si3 0.670301 0.111913 0.495906
Si Si4 0.906387 0.329971 0.132015
O O1 0.528253 0.416693 0.359498
O O2 0.627890 0.248921 0.454676
O O3 0.674740 0.523228 0.458947
O O4 0.877416 0.366421 0.383481
O O5 0.500000 0.512920 0.250000
O O6 0.193258 0.440303 0.321605
O O7 0.390776 0.671816 0.341394
O O8 0.698789 0.158873 0.565883
O O9 0.500000 0.000000 0.500000
#
# Coordination Sequence:
#
# PCOD9457428 Si02
#       4
#     8   8   8   8
#     4  11  24  47  72 109 150 191 238 308 373 428
#     4  12  30  47  73 104 149 200 246 295 363 450
#     4  10  23  42  74 110 146 185 241 303 371 433
#     4  11  27  47  73 110 140 193 248 305 369 434
#
# _framework density 22.001415000000001
#
# number of rings (size 3 to 8) (size 9 to 14) (size 15 to 20)
#    0.000    1.000    2.500    1.500   17.500    2.000 
#    0.000    0.000    0.000    0.000    0.000    0.000 
#    0.000    0.000    0.000    0.000    0.000    0.000 
#
# Total GULP energy -179073.397295 kJ/mol
# GULP energy per Si atom -5596.043665 kJ/mol
# Density = 2.195134 g / cm^3
# Si number density = 22.001415 Si / 1000 Ang^3
#
#
#
# Elastic Constant Matrix: (Units=GPa)
#
#
# Indices 1 2 3 4 5 6 
#
# 1 96.9572 29.6035 41.4508 0.0000 0.0000 0.0000
# 2 29.6035 131.3761 81.9677 0.0000 0.0000 0.0000
# 3 41.4508 81.9677 156.4198 0.0000 0.0000 0.0000
# 4 0.0000 0.0000 0.0000 0.8224 0.0000 0.0000
# 5 0.0000 0.0000 0.0000 0.0000 28.2696 0.0000
# 6 0.0000 0.0000 0.0000 0.0000 0.0000 -185.7005
#
#
#
# Elastic Compliance Matrix: (Units=1/GPa)
#
#
# Indices 1 2 3 4 5 6 
#
# 1 0.011727 -0.001045 -0.002560 0.000000 0.000000 0.000000
# 2 -0.001045 0.011402 -0.005698 0.000000 0.000000 0.000000
# 3 -0.002560 -0.005698 0.010057 0.000000 0.000000 0.000000
# 4 0.000000 0.000000 0.000000 1.215996 0.000000 0.000000
# 5 0.000000 0.000000 0.000000 0.000000 0.035374 0.000000
# 6 0.000000 0.000000 0.000000 0.000000 0.000000 -0.005385
#
#
# Mechanical properties :
#
#
# Convention : Reuss Voigt Hill
#
# Bulk Modulus (GPa) = 68.58546 76.75522 72.67034
# Shear Modulus (GPa) = 3.83836 -15.87297 -6.01731
#
# Velocity S-wave (km/s) = 1.32227 -2.68890 -1.65557
# Velocity P-wave (km/s) = 5.79414 5.03210 5.42651
#
# Compressibility (1/GPa) = 0.01458035
#
# Stress axis : x y z
#
# Youngs Moduli (GPa) = 85.27020 87.70036 99.42951
#
# Poissons Ratio (x) = 0.09168 0.25453
# Poissons Ratio (y) = 0.08914 0.56656
# Poissons Ratio (z) = 0.21828 0.49973
#
# Static dielectric constant tensor:
#      x y z
#    x 1.926090 0.000000 0.000000 
#    y 0.000000 1.763920 0.000000 
#    z 0.000000 0.000000 1.792530 
# 
# From -- ./inp_files/21878.got.cif
#   From: 2010.05.17/outbox.cif.g08.bks.cpg/sg60_11_cif.got.tgz:21878.got - 2010.06.03 14:59:27.
