data_PCOD9457379
_publ_section_title
;
Structure prediction by ZEFSAII (Michael W. Deem and Ramdas Pophale) SiO2 
 PCOD9457379
Probable space group: P B C N
;
_chemical_formula_sum "Si O2"
_cell_formula_units_Z 52
_cell_length_a 17.952843
_cell_length_b 8.198135
_cell_length_c 13.953763
_cell_angle_alpha 90.000000
_cell_angle_beta 90.000000
_cell_angle_gamma 90.000000
_cell_volume 2053.712474
_symmetry_space_group_name_H-M "P B C N"
_symmetry_group_IT_number 60
_symmetry_cell_setting 'orthorhombic'
loop_
_space_group_symop_operation_xyz
x,y,z
1/2-x,1/2-y,1/2+z
1/2+x,1/2-y,-z
-x,y,1/2-z
-x,-y,-z
1/2+x,1/2+y,1/2-z
1/2-x,1/2+y,z
x,-y,1/2+z
loop_
_atom_site_type_symbol
_atom_site_label
_atom_site_fract_x
_atom_site_fract_y
_atom_site_fract_z
Si Si1 0.575979 0.628645 0.076386
Si Si2 0.279314 0.780640 0.325280
Si Si3 0.859764 0.766033 0.394332
Si Si4 0.708603 0.630660 0.385316
Si Si5 0.000000 0.717006 0.750000
Si Si6 0.115185 0.553569 0.285800
Si Si7 0.375979 0.268512 0.441282
O O1 0.657181 0.684934 0.116069
O O2 0.576383 0.716600 0.973673
O O3 0.515393 0.679213 0.154830
O O4 0.578577 0.435342 0.065430
O O5 0.282626 0.704565 0.219496
O O6 0.199799 0.785921 0.376996
O O7 0.307009 0.966422 0.311448
O O8 0.792453 0.645772 0.426896
O O9 0.885716 0.695869 0.292716
O O10 0.823247 0.947153 0.384832
O O11 0.654452 0.739440 0.451277
O O12 0.931226 0.594986 0.757046
O O13 0.084622 0.620018 0.387125
#
# Coordination Sequence:
#
# PCOD9457379 Si02
#       7
#     8   8   8   8   4   8   8
#     4  10  23  42  63  89 131 168 220 256 318 369
#     4  11  21  37  62  98 132 163 197 260 322 390
#     4  11  22  37  62  96 128 171 201 258 313 391
#     4  11  23  36  62 100 141 158 197 250 330 393
#     4  10  26  46  62  86 122 180 220 276 300 364
#     4  11  24  40  66  92 128 168 217 257 319 373
#     4  11  22  38  64  98 129 168 203 264 320 390
#
# _framework density 25.319998999999999
#
# number of rings (size 3 to 8) (size 9 to 14) (size 15 to 20)
#    0.000    1.231    3.077    2.769    2.154    3.692 
#    0.000    1.538    0.000   10.154    0.000    0.000 
#    0.000    0.000    0.000    0.000    0.000    0.000 
#
# Total GULP energy -291145.311503 kJ/mol
# GULP energy per Si atom -5598.948298 kJ/mol
# Density = 2.526237 g / cm^3
# Si number density = 25.319999 Si / 1000 Ang^3
#
#
#
# Elastic Constant Matrix: (Units=GPa)
#
#
# Indices 1 2 3 4 5 6 
#
# 1 60.0197 1.9329 14.6613 0.0000 0.0000 0.0000
# 2 1.9329 77.8442 14.6607 0.0000 0.0000 0.0000
# 3 14.6613 14.6607 89.7467 0.0000 0.0000 0.0000
# 4 0.0000 0.0000 0.0000 33.9264 0.0000 0.0000
# 5 0.0000 0.0000 0.0000 0.0000 43.4228 0.0000
# 6 0.0000 0.0000 0.0000 0.0000 0.0000 32.2891
#
#
#
# Elastic Compliance Matrix: (Units=1/GPa)
#
#
# Indices 1 2 3 4 5 6 
#
# 1 0.017355 0.000106 -0.002852 0.000000 0.000000 0.000000
# 2 0.000106 0.013255 -0.002183 0.000000 0.000000 0.000000
# 3 -0.002852 -0.002183 0.011965 0.000000 0.000000 0.000000
# 4 0.000000 0.000000 0.000000 0.029476 0.000000 0.000000
# 5 0.000000 0.000000 0.000000 0.000000 0.023029 0.000000
# 6 0.000000 0.000000 0.000000 0.000000 0.000000 0.030970
#
#
# Mechanical properties :
#
#
# Convention : Reuss Voigt Hill
#
# Bulk Modulus (GPa) = 30.56547 32.23558 31.40052
# Shear Modulus (GPa) = 34.05707 35.01803 34.53755
#
# Velocity S-wave (km/s) = 3.67149 3.72293 3.69730
# Velocity P-wave (km/s) = 5.48371 5.58920 5.53671
#
# Compressibility (1/GPa) = 0.03271666
#
# Stress axis : x y z
#
# Youngs Moduli (GPa) = 57.62177 75.44556 83.57708
#
# Poissons Ratio (x) = -0.00802 0.23840
# Poissons Ratio (y) = -0.00613 0.18241
# Poissons Ratio (z) = 0.16436 0.16467
#
# Static dielectric constant tensor:
#      x y z
#    x 2.121130 0.000000 0.000000 
#    y 0.000000 2.000910 0.000000 
#    z 0.000000 0.000000 2.027450 
# 
# From -- ./inp_files/17680.got.cif
#   From: 2010.05.17/outbox.cif.g08.bks.cpg/sg60_9_cif.got.tgz:17680.got - 2010.06.03 14:59:27.
