data_PCOD9457713
_publ_section_title
;
Structure prediction by ZEFSAII (Michael W. Deem and Ramdas Pophale) SiO2 
 PCOD9457713
Probable space group: P B C N
;
_chemical_formula_sum "Si O2"
_cell_formula_units_Z 40
_cell_length_a 10.102727
_cell_length_b 9.097532
_cell_length_c 18.311103
_cell_angle_alpha 90.000000
_cell_angle_beta 90.000000
_cell_angle_gamma 90.000000
_cell_volume 1682.971319
_symmetry_space_group_name_H-M "P B C N"
_symmetry_group_IT_number 60
_symmetry_cell_setting 'orthorhombic'
loop_
_space_group_symop_operation_xyz
x,y,z
1/2-x,1/2-y,1/2+z
1/2+x,1/2-y,-z
-x,y,1/2-z
-x,-y,-z
1/2+x,1/2+y,1/2-z
1/2-x,1/2+y,z
x,-y,1/2+z
loop_
_atom_site_type_symbol
_atom_site_label
_atom_site_fract_x
_atom_site_fract_y
_atom_site_fract_z
Si Si1 0.388534 0.808910 0.511315
Si Si2 0.173852 0.384776 0.940480
Si Si3 0.000000 0.116958 0.750000
Si Si4 0.500000 0.886563 0.250000
Si Si5 0.169178 0.633895 0.173683
Si Si6 0.660877 0.632185 0.197125
O O1 0.545065 0.795475 0.530520
O O2 0.307931 0.671223 0.479710
O O3 0.323351 0.854485 0.588074
O O4 0.362895 0.947606 0.458479
O O5 0.211556 0.367967 0.854949
O O6 0.097861 0.222523 0.706011
O O7 0.076188 0.015474 0.809180
O O8 0.580413 0.782482 0.194290
O O9 0.590621 0.991198 0.299053
O O10 0.304452 0.626404 0.217039
#
# Coordination Sequence:
#
# PCOD9457713 Si02
#       6
#     8   8   4   4   8   8
#     4  11  29  47  72 104 145 191 238 297 365 427
#     4  11  28  49  72 105 146 190 238 296 365 430
#     4  10  24  42  72 104 136 186 238 288 356 420
#     4  10  24  42  76 102 140 188 238 292 356 420
#     4  11  24  43  71  99 139 181 242 292 349 425
#     4  11  25  44  74 103 142 185 242 294 357 426
#
# _framework density 23.767489000000001
#
# number of rings (size 3 to 8) (size 9 to 14) (size 15 to 20)
#    0.000    1.200    0.000    3.600   19.600    2.400 
#    0.000    0.000    0.000    0.000    0.000    0.000 
#    0.000    0.000    0.000    0.000    0.000    0.000 
#
# Total GULP energy -223811.113773 kJ/mol
# GULP energy per Si atom -5595.277844 kJ/mol
# Density = 2.371339 g / cm^3
# Si number density = 23.767489 Si / 1000 Ang^3
#
#
#
# Elastic Constant Matrix: (Units=GPa)
#
#
# Indices 1 2 3 4 5 6 
#
# 1 98.8804 31.4315 12.8165 0.0000 0.0000 0.0000
# 2 31.4315 112.3371 11.1943 0.0000 0.0000 0.0000
# 3 12.8165 11.1943 93.5148 0.0000 0.0000 0.0000
# 4 0.0000 0.0000 0.0000 10.2634 0.0000 0.0000
# 5 0.0000 0.0000 0.0000 0.0000 34.6730 0.0000
# 6 0.0000 0.0000 0.0000 0.0000 0.0000 17.0391
#
#
#
# Elastic Compliance Matrix: (Units=1/GPa)
#
#
# Indices 1 2 3 4 5 6 
#
# 1 0.011227 -0.003024 -0.001177 0.000000 0.000000 0.000000
# 2 -0.003024 0.009824 -0.000762 0.000000 0.000000 0.000000
# 3 -0.001177 -0.000762 0.010946 0.000000 0.000000 0.000000
# 4 0.000000 0.000000 0.000000 0.097433 0.000000 0.000000
# 5 0.000000 0.000000 0.000000 0.000000 0.028841 0.000000
# 6 0.000000 0.000000 0.000000 0.000000 0.000000 0.058688
#
#
# Mechanical properties :
#
#
# Convention : Reuss Voigt Hill
#
# Bulk Modulus (GPa) = 45.30579 46.17964 45.74271
# Shear Modulus (GPa) = 21.34552 29.01445 25.17998
#
# Velocity S-wave (km/s) = 3.00008 3.49773 3.25842
# Velocity P-wave (km/s) = 5.57710 5.98198 5.78309
#
# Compressibility (1/GPa) = 0.02207224
#
# Stress axis : x y z
#
# Youngs Moduli (GPa) = 89.07097 101.79391 91.35827
#
# Poissons Ratio (x) = 0.30783 0.10750
# Poissons Ratio (y) = 0.26935 0.06957
# Poissons Ratio (z) = 0.10481 0.07752
#
# Static dielectric constant tensor:
#      x y z
#    x 1.955130 0.000000 0.000000 
#    y 0.000000 1.907870 0.000000 
#    z 0.000000 0.000000 1.892180 
# 
# From -- ./inp_files/19898.got.cif
#   From: 2010.05.17/outbox.cif.g08.bks.cpg/sg60_10_cif.got.tgz:19898.got - 2010.06.03 14:59:27.
