data_PCOD9457937
_publ_section_title
;
Structure prediction by ZEFSAII (Michael W. Deem and Ramdas Pophale) SiO2 
 PCOD9457937
Probable space group: P B C N
;
_chemical_formula_sum "Si O2"
_cell_formula_units_Z 32
_cell_length_a 12.572786
_cell_length_b 8.249316
_cell_length_c 12.214240
_cell_angle_alpha 90.000000
_cell_angle_beta 90.000000
_cell_angle_gamma 90.000000
_cell_volume 1266.822922
_symmetry_space_group_name_H-M "P B C N"
_symmetry_group_IT_number 60
_symmetry_cell_setting 'orthorhombic'
loop_
_space_group_symop_operation_xyz
x,y,z
1/2-x,1/2-y,1/2+z
1/2+x,1/2-y,-z
-x,y,1/2-z
-x,-y,-z
1/2+x,1/2+y,1/2-z
1/2-x,1/2+y,z
x,-y,1/2+z
loop_
_atom_site_type_symbol
_atom_site_label
_atom_site_fract_x
_atom_site_fract_y
_atom_site_fract_z
Si Si1 0.430363 0.890727 0.415030
Si Si2 0.424226 0.400883 0.666335
Si Si3 0.179487 0.833688 0.069759
Si Si4 0.688872 0.949247 0.786273
O O1 0.511609 0.757583 0.367206
O O2 0.333658 0.784677 0.468144
O O3 0.500000 0.000000 0.500000
O O4 0.375812 0.990490 0.317148
O O5 0.500000 0.492628 0.750000
O O6 0.393472 0.508716 0.561886
O O7 0.311510 0.393069 0.730767
O O8 0.137850 0.711319 0.163367
O O9 0.287636 0.913621 0.118415
#
# Coordination Sequence:
#
# PCOD9457937 Si02
#       4
#     8   8   8   8
#     4  12  28  47  87 119 160 219 292 343 431 518
#     4  10  25  50  77 112 165 213 272 351 424 495
#     4  10  26  48  76 115 162 212 280 337 426 493
#     4  10  26  48  76 116 168 218 266 357 422 501
#
# _framework density 25.26004
#
# number of rings (size 3 to 8) (size 9 to 14) (size 15 to 20)
#    1.500    0.000    0.000    2.250   10.500    4.000 
#    0.000    0.000    0.000    0.000    0.000    0.000 
#    0.000    0.000    0.000    0.000    0.000    0.000 
#
# Total GULP energy -178197.964059 kJ/mol
# GULP energy per Si atom -5568.686377 kJ/mol
# Density = 2.520255 g / cm^3
# Si number density = 25.260040 Si / 1000 Ang^3
#
#
#
# Elastic Constant Matrix: (Units=GPa)
#
#
# Indices 1 2 3 4 5 6 
#
# 1 115.2829 50.4672 36.0769 0.0000 0.0000 0.0000
# 2 50.4672 124.4086 51.0660 0.0000 0.0000 0.0000
# 3 36.0769 51.0660 72.7912 0.0000 0.0000 0.0000
# 4 0.0000 0.0000 0.0000 35.9964 0.0000 0.0000
# 5 0.0000 0.0000 0.0000 0.0000 55.2785 0.0000
# 6 0.0000 0.0000 0.0000 0.0000 0.0000 52.5983
#
#
#
# Elastic Compliance Matrix: (Units=1/GPa)
#
#
# Indices 1 2 3 4 5 6 
#
# 1 0.011079 -0.003147 -0.003284 0.000000 0.000000 0.000000
# 2 -0.003147 0.012182 -0.006987 0.000000 0.000000 0.000000
# 3 -0.003284 -0.006987 0.020267 0.000000 0.000000 0.000000
# 4 0.000000 0.000000 0.000000 0.027781 0.000000 0.000000
# 5 0.000000 0.000000 0.000000 0.000000 0.018090 0.000000
# 6 0.000000 0.000000 0.000000 0.000000 0.000000 0.019012
#
#
# Mechanical properties :
#
#
# Convention : Reuss Voigt Hill
#
# Bulk Modulus (GPa) = 59.90055 65.30031 62.60043
# Shear Modulus (GPa) = 35.50860 40.43279 37.97070
#
# Velocity S-wave (km/s) = 3.75336 4.00517 3.88131
# Velocity P-wave (km/s) = 6.52294 6.87720 6.70241
#
# Compressibility (1/GPa) = 0.01669434
#
# Stress axis : x y z
#
# Youngs Moduli (GPa) = 90.25751 82.08583 49.34115
#
# Poissons Ratio (x) = 0.25829 0.16203
# Poissons Ratio (y) = 0.28400 0.34474
# Poissons Ratio (z) = 0.29639 0.57353
#
# Static dielectric constant tensor:
#      x y z
#    x 2.054170 0.000000 0.000000 
#    y 0.000000 2.025160 0.000000 
#    z 0.000000 0.000000 2.071250 
# 
# From -- ./inp_files/11502.got.cif
#   From: 2010.05.17/outbox.cif.g08.bks.cpg/sg60_6_cif.got.tgz:11502.got - 2010.06.03 14:59:27.
