data_PCOD9457054
_publ_section_title
;
Structure prediction by ZEFSAII (Michael W. Deem and Ramdas Pophale) SiO2 
 PCOD9457054
Probable space group: P B C N
;
_chemical_formula_sum "Si O2"
_cell_formula_units_Z 60
_cell_length_a 12.265913
_cell_length_b 24.659876
_cell_length_c 9.586449
_cell_angle_alpha 90.000000
_cell_angle_beta 90.000000
_cell_angle_gamma 90.000000
_cell_volume 2899.669728
_symmetry_space_group_name_H-M "P B C N"
_symmetry_group_IT_number 60
_symmetry_cell_setting 'orthorhombic'
loop_
_space_group_symop_operation_xyz
x,y,z
1/2-x,1/2-y,1/2+z
1/2+x,1/2-y,-z
-x,y,1/2-z
-x,-y,-z
1/2+x,1/2+y,1/2-z
1/2-x,1/2+y,z
x,-y,1/2+z
loop_
_atom_site_type_symbol
_atom_site_label
_atom_site_fract_x
_atom_site_fract_y
_atom_site_fract_z
Si Si1 0.640267 0.556148 0.439857
Si Si2 0.000000 0.872141 0.750000
Si Si3 0.791189 0.619475 0.954852
Si Si4 0.346640 0.866159 0.572921
Si Si5 0.379484 0.808787 0.278281
Si Si6 0.465634 0.950724 0.902221
Si Si7 0.376944 0.554631 0.732843
Si Si8 0.722390 0.694329 0.200385
O O1 0.535817 0.590863 0.383543
O O2 0.749716 0.589948 0.409830
O O3 0.651843 0.545493 0.604776
O O4 0.630934 0.501591 0.350950
O O5 0.892878 0.836199 0.726470
O O6 0.870455 0.645496 0.840566
O O7 0.695625 0.594957 0.858999
O O8 0.847483 0.572762 0.051125
O O9 0.756733 0.669825 0.051591
O O10 0.353278 0.837718 0.423992
O O11 0.458466 0.897949 0.587277
O O12 0.316277 0.823661 0.692176
O O13 0.500000 0.785924 0.250000
O O14 0.298438 0.757701 0.277902
O O15 0.500000 0.971720 0.750000
O O16 0.500000 0.000000 0.000000
O O17 0.500000 0.574934 0.750000
#
# Coordination Sequence:
#
# PCOD9457054 Si02
#       8
#     8   4   8   8   8   8   8   8
#     4  11  24  40  64  97 135 177 225 276 342 418
#     4  10  22  42  68  96 134 178 226 286 350 420
#     4  12  26  44  71 101 144 181 236 300 353 423
#     4  11  24  44  69  97 140 171 231 292 341 420
#     4  12  24  46  72  99 133 183 235 291 355 422
#     4  12  27  45  71 107 143 189 235 288 359 437
#     4  12  25  41  65  99 137 181 227 279 347 420
#     4  11  24  45  71  98 130 183 235 288 359 411
#
# _framework density 20.69201
#
# number of rings (size 3 to 8) (size 9 to 14) (size 15 to 20)
#    0.000    0.533    5.333    2.800    5.600    2.133 
#    0.000    0.000    0.000    0.000    0.000    0.000 
#    0.000    0.000    0.000    0.000    0.000    0.000 
#
# Total GULP energy -334809.015356 kJ/mol
# GULP energy per Si atom -5580.150256 kJ/mol
# Density = 2.064491 g / cm^3
# Si number density = 20.692010 Si / 1000 Ang^3
#
#
#
# Elastic Constant Matrix: (Units=GPa)
#
#
# Indices 1 2 3 4 5 6 
#
# 1 73.8111 13.2049 22.3957 0.0000 0.0000 0.0000
# 2 13.2049 29.9982 18.5160 0.0000 0.0000 0.0000
# 3 22.3957 18.5160 145.6132 0.0000 0.0000 0.0000
# 4 0.0000 0.0000 0.0000 57.9005 0.0000 0.0000
# 5 0.0000 0.0000 0.0000 0.0000 23.1777 0.0000
# 6 0.0000 0.0000 0.0000 0.0000 0.0000 31.8414
#
#
#
# Elastic Compliance Matrix: (Units=1/GPa)
#
#
# Indices 1 2 3 4 5 6 
#
# 1 0.015041 -0.005635 -0.001597 0.000000 0.000000 0.000000
# 2 -0.005635 0.038286 -0.004002 0.000000 0.000000 0.000000
# 3 -0.001597 -0.004002 0.007622 0.000000 0.000000 0.000000
# 4 0.000000 0.000000 0.000000 0.017271 0.000000 0.000000
# 5 0.000000 0.000000 0.000000 0.000000 0.043145 0.000000
# 6 0.000000 0.000000 0.000000 0.000000 0.000000 0.031406
#
#
# Mechanical properties :
#
#
# Convention : Reuss Voigt Hill
#
# Bulk Modulus (GPa) = 25.98664 39.73951 32.86307
# Shear Modulus (GPa) = 26.58661 35.60430 31.09546
#
# Velocity S-wave (km/s) = 3.58840 4.15261 3.88077
# Velocity P-wave (km/s) = 5.45480 6.49916 5.99975
#
# Compressibility (1/GPa) = 0.03848132
#
# Stress axis : x y z
#
# Youngs Moduli (GPa) = 66.48616 26.11930 131.20019
#
# Poissons Ratio (x) = 0.14719 0.20949
# Poissons Ratio (y) = 0.37466 0.52502
# Poissons Ratio (z) = 0.10616 0.10452
#
# Static dielectric constant tensor:
#      x y z
#    x 1.723290 0.000000 0.000000 
#    y 0.000000 1.708710 0.000000 
#    z 0.000000 0.000000 1.864320 
# 
# From -- ./inp_files/5234.got.cif
#   From: 2010.05.17/outbox.cif.g08.bks.cpg/sg60_3_cif.got.tgz:5234.got - 2010.06.03 14:59:27.
