data_PCOD9457677
_publ_section_title
;
Structure prediction by ZEFSAII (Michael W. Deem and Ramdas Pophale) SiO2 
 PCOD9457677
Probable space group: P B C N
;
_chemical_formula_sum "Si O2"
_cell_formula_units_Z 64
_cell_length_a 16.879542
_cell_length_b 14.678503
_cell_length_c 11.909224
_cell_angle_alpha 90.000000
_cell_angle_beta 90.000000
_cell_angle_gamma 90.000000
_cell_volume 2950.705651
_symmetry_space_group_name_H-M "P B C N"
_symmetry_group_IT_number 60
_symmetry_cell_setting 'orthorhombic'
loop_
_space_group_symop_operation_xyz
x,y,z
1/2-x,1/2-y,1/2+z
1/2+x,1/2-y,-z
-x,y,1/2-z
-x,-y,-z
1/2+x,1/2+y,1/2-z
1/2-x,1/2+y,z
x,-y,1/2+z
loop_
_atom_site_type_symbol
_atom_site_label
_atom_site_fract_x
_atom_site_fract_y
_atom_site_fract_z
Si Si1 0.720120 0.838082 0.181388
Si Si2 0.659535 0.354647 0.594271
Si Si3 0.558600 0.941105 0.147479
Si Si4 0.724251 0.072675 0.907616
Si Si5 0.032923 0.084783 0.571527
Si Si6 0.879782 0.177028 0.546138
Si Si7 0.852378 0.946495 0.829425
Si Si8 0.068268 0.384912 0.981760
O O1 0.687511 0.741193 0.141815
O O2 0.648402 0.907988 0.160569
O O3 0.736241 0.848624 0.314148
O O4 0.800347 0.850959 0.111300
O O5 0.728165 0.401316 0.520133
O O6 0.584330 0.352282 0.511891
O O7 0.639660 0.412928 0.703702
O O8 0.500000 0.919474 0.250000
O O9 0.516138 0.889650 0.043425
O O10 0.560782 0.049171 0.124608
O O11 0.632544 0.065334 0.937594
O O12 0.764209 0.982227 0.857354
O O13 0.956219 0.137943 0.610466
O O14 0.092500 0.035168 0.655119
O O15 0.000000 0.000000 0.500000
O O16 0.875175 0.129791 0.422442
O O17 0.895610 0.284940 0.536477
#
# Coordination Sequence:
#
# PCOD9457677 Si02
#       8
#     8   8   8   8   8   8   8   8
#     4  12  25  43  73 102 144 186 238 295 360 425
#     4  11  24  44  67 103 143 187 238 295 358 433
#     4  11  25  44  72  97 137 185 232 289 358 418
#     4  11  24  42  67 106 142 185 242 283 356 431
#     4   9  22  43  67 104 140 180 235 290 367 429
#     4  11  23  45  72 106 141 181 238 299 356 429
#     4  10  24  41  73  99 145 186 234 294 368 425
#     4  11  23  46  69 100 140 181 241 290 343 431
#
# _framework density 21.689726
#
# number of rings (size 3 to 8) (size 9 to 14) (size 15 to 20)
#    0.000    1.250    2.500    2.250    7.000    2.000 
#    2.250    3.750    0.000    0.000    0.000    0.000 
#    0.000    0.000    0.000    0.000    0.000    0.000 
#
# Total GULP energy -357731.460409 kJ/mol
# GULP energy per Si atom -5589.554069 kJ/mol
# Density = 2.164036 g / cm^3
# Si number density = 21.689726 Si / 1000 Ang^3
#
#
#
# Elastic Constant Matrix: (Units=GPa)
#
#
# Indices 1 2 3 4 5 6 
#
# 1 132.5555 30.2314 34.8050 0.0000 0.0000 0.0000
# 2 30.2314 64.8756 24.5947 0.0000 0.0000 0.0000
# 3 34.8050 24.5947 104.7216 0.0000 0.0000 0.0000
# 4 0.0000 0.0000 0.0000 24.0979 0.0000 0.0000
# 5 0.0000 0.0000 0.0000 0.0000 23.4196 0.0000
# 6 0.0000 0.0000 0.0000 0.0000 0.0000 36.1570
#
#
#
# Elastic Compliance Matrix: (Units=1/GPa)
#
#
# Indices 1 2 3 4 5 6 
#
# 1 0.008869 -0.003310 -0.002170 0.000000 0.000000 0.000000
# 2 -0.003310 0.018156 -0.003164 0.000000 0.000000 0.000000
# 3 -0.002170 -0.003164 0.011013 0.000000 0.000000 0.000000
# 4 0.000000 0.000000 0.000000 0.041497 0.000000 0.000000
# 5 0.000000 0.000000 0.000000 0.000000 0.042699 0.000000
# 6 0.000000 0.000000 0.000000 0.000000 0.000000 0.027657
#
#
# Mechanical properties :
#
#
# Convention : Reuss Voigt Hill
#
# Bulk Modulus (GPa) = 48.19304 53.49053 50.84178
# Shear Modulus (GPa) = 28.71960 30.90300 29.81130
#
# Velocity S-wave (km/s) = 3.64278 3.77872 3.71137
# Velocity P-wave (km/s) = 6.32144 6.61464 6.46970
#
# Compressibility (1/GPa) = 0.02074988
#
# Stress axis : x y z
#
# Youngs Moduli (GPa) = 112.75555 55.07811 90.79766
#
# Poissons Ratio (x) = 0.18231 0.19705
# Poissons Ratio (y) = 0.37322 0.28728
# Poissons Ratio (z) = 0.24470 0.17427
#
# Static dielectric constant tensor:
#      x y z
#    x 1.812830 0.000000 0.000000 
#    y 0.000000 1.792250 0.000000 
#    z 0.000000 0.000000 1.840170 
# 
# From -- ./inp_files/12542.got.cif
#   From: 2010.05.17/outbox.cif.g08.bks.cpg/sg60_7_cif.got.tgz:12542.got - 2010.06.03 14:59:27.
