data_PCOD9457443
_publ_section_title
;
Structure prediction by ZEFSAII (Michael W. Deem and Ramdas Pophale) SiO2 
 PCOD9457443
Probable space group: P B C N
;
_chemical_formula_sum "Si O2"
_cell_formula_units_Z 56
_cell_length_a 9.445111
_cell_length_b 14.358468
_cell_length_c 21.097198
_cell_angle_alpha 90.000000
_cell_angle_beta 90.000000
_cell_angle_gamma 90.000000
_cell_volume 2861.145538
_symmetry_space_group_name_H-M "P B C N"
_symmetry_group_IT_number 60
_symmetry_cell_setting 'orthorhombic'
loop_
_space_group_symop_operation_xyz
x,y,z
1/2-x,1/2-y,1/2+z
1/2+x,1/2-y,-z
-x,y,1/2-z
-x,-y,-z
1/2+x,1/2+y,1/2-z
1/2-x,1/2+y,z
x,-y,1/2+z
loop_
_atom_site_type_symbol
_atom_site_label
_atom_site_fract_x
_atom_site_fract_y
_atom_site_fract_z
Si Si1 0.336022 0.160264 0.232313
Si Si2 0.719829 0.987578 0.349953
Si Si3 0.731055 0.323298 0.102603
Si Si4 0.743716 0.109416 0.127507
Si Si5 0.987331 0.015981 0.575224
Si Si6 0.670742 0.159014 0.747655
Si Si7 0.541164 0.956357 0.066571
O O1 0.500000 0.180588 0.250000
O O2 0.269290 0.117832 0.296778
O O3 0.244622 0.252090 0.220300
O O4 0.325431 0.090083 0.173600
O O5 0.726776 0.929484 0.285363
O O6 0.597997 0.940399 0.392123
O O7 0.862800 0.986102 0.389790
O O8 0.715857 0.212150 0.098732
O O9 0.594172 0.386117 0.087606
O O10 0.778282 0.342409 0.175183
O O11 0.859077 0.366108 0.061183
O O12 0.892113 0.066504 0.105105
O O13 0.631329 0.034517 0.103199
O O14 0.000000 0.000000 0.500000
O O15 0.500000 0.162535 0.750000
O O16 0.500000 0.000000 0.000000
#
# Coordination Sequence:
#
# PCOD9457443 Si02
#       7
#     8   8   8   8   8   8   8
#     4  11  24  41  66 100 129 161 211 261 321 386
#     4  12  23  38  68  93 127 166 211 257 322 371
#     4  10  23  43  65  89 131 164 204 268 319 365
#     4  10  23  43  65  89 131 164 204 268 319 365
#     4  11  26  44  62  95 129 167 221 259 302 378
#     4  11  24  41  66 100 129 161 211 261 321 386
#     4  11  22  41  64  90 122 173 214 254 308 373
#
# _framework density 19.572579000000001
#
# number of rings (size 3 to 8) (size 9 to 14) (size 15 to 20)
#    0.000    1.143    2.857    3.857    8.000    2.286 
#    0.000    2.857    0.000    0.000    0.000    0.000 
#    0.000    0.000    0.000    0.000    0.000    0.000 
#
# Total GULP energy -312911.300182 kJ/mol
# GULP energy per Si atom -5587.701789 kJ/mol
# Density = 1.952803 g / cm^3
# Si number density = 19.572579 Si / 1000 Ang^3
#
#
#
# Elastic Constant Matrix: (Units=GPa)
#
#
# Indices 1 2 3 4 5 6 
#
# 1 129.5672 30.8599 16.9706 0.0000 0.0000 0.0000
# 2 30.8599 84.9146 -5.1274 0.0000 0.0000 0.0000
# 3 16.9706 -5.1274 18.2268 0.0000 0.0000 0.0000
# 4 0.0000 0.0000 0.0000 12.9140 0.0000 0.0000
# 5 0.0000 0.0000 0.0000 0.0000 23.0041 0.0000
# 6 0.0000 0.0000 0.0000 0.0000 0.0000 -0.6409
#
#
#
# Elastic Compliance Matrix: (Units=1/GPa)
#
#
# Indices 1 2 3 4 5 6 
#
# 1 0.010147 -0.004332 -0.010666 0.000000 0.000000 0.000000
# 2 -0.004332 0.013829 0.007923 0.000000 0.000000 0.000000
# 3 -0.010666 0.007923 0.067024 0.000000 0.000000 0.000000
# 4 0.000000 0.000000 0.000000 0.077435 0.000000 0.000000
# 5 0.000000 0.000000 0.000000 0.000000 0.043471 0.000000
# 6 0.000000 0.000000 0.000000 0.000000 0.000000 -1.560245
#
#
# Mechanical properties :
#
#
# Convention : Reuss Voigt Hill
#
# Bulk Modulus (GPa) = 13.01209 35.34610 24.17909
# Shear Modulus (GPa) = -3.82095 19.72247 7.95076
#
# Velocity S-wave (km/s) = -1.39873 3.17781 2.01767
# Velocity P-wave (km/s) = 2.01345 5.61808 4.22000
#
# Compressibility (1/GPa) = 0.07685162
#
# Stress axis : x y z
#
# Youngs Moduli (GPa) = 98.55419 72.31089 14.92002
#
# Poissons Ratio (x) = 0.31322 0.15914
# Poissons Ratio (y) = 0.42690 -0.11822
# Poissons Ratio (z) = 1.05117 -0.57295
#
# Static dielectric constant tensor:
#      x y z
#    x 1.694540 0.000000 0.000000 
#    y 0.000000 1.771300 0.000000 
#    z 0.000000 0.000000 1.677630 
# 
# From -- ./inp_files/22214.got.cif
#   From: 2010.05.17/outbox.cif.g08.bks.cpg/sg60_12_cif.got.tgz:22214.got - 2010.06.03 14:59:27.
