data_PCOD9457085
_publ_section_title
;
Structure prediction by ZEFSAII (Michael W. Deem and Ramdas Pophale) SiO2 
 PCOD9457085
Probable space group: P B C N
;
_chemical_formula_sum "Si O2"
_cell_formula_units_Z 40
_cell_length_a 11.075273
_cell_length_b 8.874762
_cell_length_c 17.131444
_cell_angle_alpha 90.000000
_cell_angle_beta 90.000000
_cell_angle_gamma 90.000000
_cell_volume 1683.856688
_symmetry_space_group_name_H-M "P B C N"
_symmetry_group_IT_number 60
_symmetry_cell_setting 'orthorhombic'
loop_
_space_group_symop_operation_xyz
x,y,z
1/2-x,1/2-y,1/2+z
1/2+x,1/2-y,-z
-x,y,1/2-z
-x,-y,-z
1/2+x,1/2+y,1/2-z
1/2-x,1/2+y,z
x,-y,1/2+z
loop_
_atom_site_type_symbol
_atom_site_label
_atom_site_fract_x
_atom_site_fract_y
_atom_site_fract_z
Si Si1 0.855997 0.815747 0.323880
Si Si2 0.775360 0.513055 0.073804
Si Si3 0.488283 0.548712 0.408289
Si Si4 0.188584 0.752181 0.537741
Si Si5 0.131458 0.511210 0.756937
O O1 0.803680 0.780940 0.409659
O O2 0.876073 0.657005 0.280824
O O3 0.970839 0.921552 0.345642
O O4 0.747740 0.906425 0.280885
O O5 0.650127 0.593418 0.101020
O O6 0.848990 0.495604 0.151105
O O7 0.847461 0.603222 0.007985
O O8 0.726478 0.365911 0.030537
O O9 0.500000 0.500000 0.500000
O O10 0.586580 0.680667 0.406467
O O11 0.000000 0.586544 0.750000
#
# Coordination Sequence:
#
# PCOD9457085 Si02
#       5
#     8   8   8   8   8
#     4  12  24  49  70 103 144 184 240 293 357 430
#     4  11  25  44  70 105 142 184 238 288 360 426
#     4  10  22  42  74  99 132 185 232 290 354 414
#     4  11  21  44  73 103 133 182 242 290 345 421
#     4  12  30  47  69 107 149 191 235 297 370 431
#
# _framework density 23.754992999999999
#
# number of rings (size 3 to 8) (size 9 to 14) (size 15 to 20)
#    0.000    0.800    6.000    1.200    8.400    3.200 
#    0.000    3.000    0.000    0.000    0.000    0.000 
#    0.000    0.000    0.000    0.000    0.000    0.000 
#
# Total GULP energy -223628.497241 kJ/mol
# GULP energy per Si atom -5590.712431 kJ/mol
# Density = 2.370093 g / cm^3
# Si number density = 23.754993 Si / 1000 Ang^3
#
#
#
# Elastic Constant Matrix: (Units=GPa)
#
#
# Indices 1 2 3 4 5 6 
#
# 1 161.8153 -31.1943 -50.4606 0.0000 0.0000 0.0000
# 2 -31.1943 38.9386 17.4062 0.0000 0.0000 0.0000
# 3 -50.4606 17.4062 114.0743 0.0000 0.0000 0.0000
# 4 0.0000 0.0000 0.0000 41.4957 0.0000 0.0000
# 5 0.0000 0.0000 0.0000 0.0000 43.0214 0.0000
# 6 0.0000 0.0000 0.0000 0.0000 0.0000 21.4467
#
#
#
# Elastic Compliance Matrix: (Units=1/GPa)
#
#
# Indices 1 2 3 4 5 6 
#
# 1 0.008046 0.005210 0.002764 0.000000 0.000000 0.000000
# 2 0.005210 0.030935 -0.002416 0.000000 0.000000 0.000000
# 3 0.002764 -0.002416 0.010358 0.000000 0.000000 0.000000
# 4 0.000000 0.000000 0.000000 0.024099 0.000000 0.000000
# 5 0.000000 0.000000 0.000000 0.000000 0.023244 0.000000
# 6 0.000000 0.000000 0.000000 0.000000 0.000000 0.046627
#
#
# Mechanical properties :
#
#
# Convention : Reuss Voigt Hill
#
# Bulk Modulus (GPa) = 16.54055 20.70341 18.62198
# Shear Modulus (GPa) = 32.82052 46.46458 39.64255
#
# Velocity S-wave (km/s) = 3.72106 4.42746 4.08954
# Velocity P-wave (km/s) = 5.04379 5.90515 5.49138
#
# Compressibility (1/GPa) = 0.06045747
#
# Stress axis : x y z
#
# Youngs Moduli (GPa) = 124.28016 32.32548 96.54788
#
# Poissons Ratio (x) = -0.16843 -0.26688
# Poissons Ratio (y) = -0.64755 0.23321
# Poissons Ratio (z) = -0.34354 0.07808
#
# Static dielectric constant tensor:
#      x y z
#    x 1.893500 0.000000 0.000000 
#    y 0.000000 1.976890 0.000000 
#    z 0.000000 0.000000 1.828220 
# 
# From -- ./inp_files/19841.got.cif
#   From: 2010.05.17/outbox.cif.g08.bks.cpg/sg60_10_cif.got.tgz:19841.got - 2010.06.03 14:59:27.
