data_PCOD9457967
_publ_section_title
;
Structure prediction by ZEFSAII (Michael W. Deem and Ramdas Pophale) SiO2 
 PCOD9457967
Probable space group: P B C N
;
_chemical_formula_sum "Si O2"
_cell_formula_units_Z 56
_cell_length_a 13.751366
_cell_length_b 20.350170
_cell_length_c 10.231398
_cell_angle_alpha 90.000000
_cell_angle_beta 90.000000
_cell_angle_gamma 90.000000
_cell_volume 2863.181385
_symmetry_space_group_name_H-M "P B C N"
_symmetry_group_IT_number 60
_symmetry_cell_setting 'orthorhombic'
loop_
_space_group_symop_operation_xyz
x,y,z
1/2-x,1/2-y,1/2+z
1/2+x,1/2-y,-z
-x,y,1/2-z
-x,-y,-z
1/2+x,1/2+y,1/2-z
1/2-x,1/2+y,z
x,-y,1/2+z
loop_
_atom_site_type_symbol
_atom_site_label
_atom_site_fract_x
_atom_site_fract_y
_atom_site_fract_z
Si Si1 0.500000 0.350701 0.750000
Si Si2 0.000000 0.657121 0.250000
Si Si3 0.170145 0.926600 0.619694
Si Si4 0.799702 0.295771 0.855267
Si Si5 0.257614 0.515207 0.855286
Si Si6 0.895459 0.610858 0.762339
Si Si7 0.573385 0.060716 0.032971
Si Si8 0.647755 0.753636 0.143657
O O1 0.567806 0.393064 0.845775
O O2 0.428887 0.305004 0.836511
O O3 0.904846 0.697675 0.288312
O O4 0.980706 0.608796 0.130070
O O5 0.251603 0.868312 0.624497
O O6 0.179065 0.961670 0.479108
O O7 0.190542 0.977545 0.737204
O O8 0.730346 0.258528 0.753003
O O9 0.811445 0.261994 0.997253
O O10 0.198017 0.576251 0.797114
O O11 0.170561 0.469308 0.906445
O O12 0.903941 0.678744 0.685999
O O13 0.000000 0.574297 0.750000
O O14 0.888085 0.607440 0.916849
O O15 0.500000 0.000000 0.000000
#
# Coordination Sequence:
#
# PCOD9457967 Si02
#       8
#     4   4   8   8   8   8   8   8
#     4  10  26  46  71  91 134 188 240 280 338 406
#     4  12  24  38  63  97 136 172 216 278 334 424
#     4  11  24  45  66  98 134 179 230 280 342 410
#     4  11  25  43  67  98 136 173 232 279 348 408
#     4  12  22  39  65  96 136 173 214 283 336 412
#     4  12  22  35  63  96 134 173 222 269 351 410
#     4  12  22  34  60  98 135 171 204 263 346 415
#     4  11  25  45  69  94 132 182 227 290 335 409
#
# _framework density 19.558662999999999
#
# number of rings (size 3 to 8) (size 9 to 14) (size 15 to 20)
#    0.000    0.571    6.429    2.571    2.000    1.714 
#    0.000    0.000    0.000    0.000    0.000    0.000 
#    0.000    0.000    0.000    0.000    0.000    0.000 
#
# Total GULP energy -312630.944422 kJ/mol
# GULP energy per Si atom -5582.695436 kJ/mol
# Density = 1.951415 g / cm^3
# Si number density = 19.558663 Si / 1000 Ang^3
#
#
#
# Elastic Constant Matrix: (Units=GPa)
#
#
# Indices 1 2 3 4 5 6 
#
# 1 114.5960 41.2939 69.4787 0.0000 0.0000 0.0000
# 2 41.2939 53.2290 46.1536 0.0000 0.0000 0.0000
# 3 69.4787 46.1536 147.5395 0.0000 0.0000 0.0000
# 4 0.0000 0.0000 0.0000 24.4900 0.0000 0.0000
# 5 0.0000 0.0000 0.0000 0.0000 25.3709 0.0000
# 6 0.0000 0.0000 0.0000 0.0000 0.0000 21.3717
#
#
#
# Elastic Compliance Matrix: (Units=1/GPa)
#
#
# Indices 1 2 3 4 5 6 
#
# 1 0.013886 -0.007002 -0.004349 0.000000 0.000000 0.000000
# 2 -0.007002 0.029310 -0.005871 0.000000 0.000000 0.000000
# 3 -0.004349 -0.005871 0.010663 0.000000 0.000000 0.000000
# 4 0.000000 0.000000 0.000000 0.040833 0.000000 0.000000
# 5 0.000000 0.000000 0.000000 0.000000 0.039415 0.000000
# 6 0.000000 0.000000 0.000000 0.000000 0.000000 0.046791
#
#
# Mechanical properties :
#
#
# Convention : Reuss Voigt Hill
#
# Bulk Modulus (GPa) = 51.50909 69.91298 60.71104
# Shear Modulus (GPa) = 22.54156 24.80907 23.67531
#
# Velocity S-wave (km/s) = 3.39855 3.56539 3.48297
# Velocity P-wave (km/s) = 6.46475 7.26445 6.87623
#
# Compressibility (1/GPa) = 0.01941405
#
# Stress axis : x y z
#
# Youngs Moduli (GPa) = 72.01510 34.11857 93.78643
#
# Poissons Ratio (x) = 0.23889 0.40786
# Poissons Ratio (y) = 0.50423 0.55067
# Poissons Ratio (z) = 0.31318 0.20033
#
# Static dielectric constant tensor:
#      x y z
#    x 1.662900 0.000000 0.000000 
#    y 0.000000 1.713990 0.000000 
#    z 0.000000 0.000000 1.626860 
# 
# From -- ./inp_files/6212.got.cif
#   From: 2010.05.17/outbox.cif.g08.bks.cpg/sg60_4_cif.got.tgz:6212.got - 2010.06.03 14:59:27.
