data_PCOD9457574
_publ_section_title
;
Structure prediction by ZEFSAII (Michael W. Deem and Ramdas Pophale) SiO2 
 PCOD9457574
Probable space group: P B C N
;
_chemical_formula_sum "Si O2"
_cell_formula_units_Z 44
_cell_length_a 24.332554
_cell_length_b 5.477069
_cell_length_c 13.689780
_cell_angle_alpha 90.000000
_cell_angle_beta 90.000000
_cell_angle_gamma 90.000000
_cell_volume 1824.451727
_symmetry_space_group_name_H-M "P B C N"
_symmetry_group_IT_number 60
_symmetry_cell_setting 'orthorhombic'
loop_
_space_group_symop_operation_xyz
x,y,z
1/2-x,1/2-y,1/2+z
1/2+x,1/2-y,-z
-x,y,1/2-z
-x,-y,-z
1/2+x,1/2+y,1/2-z
1/2-x,1/2+y,z
x,-y,1/2+z
loop_
_atom_site_type_symbol
_atom_site_label
_atom_site_fract_x
_atom_site_fract_y
_atom_site_fract_z
Si Si1 0.784135 0.262977 0.365379
Si Si2 0.631488 0.959888 0.519717
Si Si3 0.540492 0.905628 0.876843
Si Si4 0.428593 0.684845 0.819690
Si Si5 0.000000 0.197314 0.250000
Si Si6 0.783770 0.256220 0.137062
O O1 0.743098 0.495927 0.381547
O O2 0.834385 0.319536 0.436712
O O3 0.799785 0.268521 0.251077
O O4 0.577393 0.073012 0.470484
O O5 0.616297 0.768562 0.604780
O O6 0.666448 0.178183 0.566421
O O7 0.511963 0.156637 0.848426
O O8 0.488598 0.725058 0.871265
O O9 0.575314 0.845566 0.778867
O O10 0.440959 0.424902 0.773721
O O11 0.742987 0.490112 0.120793
#
# Coordination Sequence:
#
# PCOD9457574 Si02
#       6
#     8   8   8   8   4   8
#     4  10  23  46  65  90 131 169 207 265 322 380
#     4  12  21  37  64  99 115 164 220 262 318 378
#     4   9  20  40  59  86 127 166 201 261 313 382
#     4   9  20  40  59  86 127 166 201 261 313 382
#     4   8  18  42  56  78 132 166 202 250 328 366
#     4  10  23  46  65  90 131 169 207 265 322 380
#
# _framework density 24.116834999999998
#
# number of rings (size 3 to 8) (size 9 to 14) (size 15 to 20)
#    0.000    2.545    0.000    2.727    0.000    0.727 
#   36.000    0.000    0.000    0.000    0.000    0.000 
#    0.000    0.000    0.000    0.000    0.000    0.000 
#
# Total GULP energy -245746.599782 kJ/mol
# GULP energy per Si atom -5585.149995 kJ/mol
# Density = 2.406194 g / cm^3
# Si number density = 24.116835 Si / 1000 Ang^3
#
#
#
# Elastic Constant Matrix: (Units=GPa)
#
#
# Indices 1 2 3 4 5 6 
#
# 1 41.1379 13.1964 27.5745 0.0000 0.0000 0.0000
# 2 13.1964 71.5474 -1.0155 0.0000 0.0000 0.0000
# 3 27.5745 -1.0155 95.4893 0.0000 0.0000 0.0000
# 4 0.0000 0.0000 0.0000 17.2775 0.0000 0.0000
# 5 0.0000 0.0000 0.0000 0.0000 56.3567 0.0000
# 6 0.0000 0.0000 0.0000 0.0000 0.0000 33.6895
#
#
#
# Elastic Compliance Matrix: (Units=1/GPa)
#
#
# Indices 1 2 3 4 5 6 
#
# 1 0.032646 -0.006156 -0.009493 0.000000 0.000000 0.000000
# 2 -0.006156 0.015140 0.001939 0.000000 0.000000 0.000000
# 3 -0.009493 0.001939 0.013234 0.000000 0.000000 0.000000
# 4 0.000000 0.000000 0.000000 0.057879 0.000000 0.000000
# 5 0.000000 0.000000 0.000000 0.000000 0.017744 0.000000
# 6 0.000000 0.000000 0.000000 0.000000 0.000000 0.029683
#
#
# Mechanical properties :
#
#
# Convention : Reuss Voigt Hill
#
# Bulk Modulus (GPa) = 29.76200 31.96505 30.86352
# Shear Modulus (GPa) = 24.39666 32.69268 28.54467
#
# Velocity S-wave (km/s) = 3.18402 3.68584 3.44408
# Velocity P-wave (km/s) = 5.08772 5.60329 5.35172
#
# Compressibility (1/GPa) = 0.03359990
#
# Stress axis : x y z
#
# Youngs Moduli (GPa) = 30.63145 66.05150 75.56173
#
# Poissons Ratio (x) = 0.40662 0.71729
# Poissons Ratio (y) = 0.18857 -0.14649
# Poissons Ratio (z) = 0.29078 -0.12805
#
# Static dielectric constant tensor:
#      x y z
#    x 1.898830 0.000000 0.000000 
#    y 0.000000 2.073740 0.000000 
#    z 0.000000 0.000000 1.894850 
# 
# From -- ./inp_files/18007.got.cif
#   From: 2010.05.17/outbox.cif.g08.bks.cpg/sg60_10_cif.got.tgz:18007.got - 2010.06.03 14:59:27.
