data_PCOD9457964
_publ_section_title
;
Structure prediction by ZEFSAII (Michael W. Deem and Ramdas Pophale) SiO2 
 PCOD9457964
Probable space group: P B C N
;
_chemical_formula_sum "Si O2"
_cell_formula_units_Z 44
_cell_length_a 5.075583
_cell_length_b 16.251348
_cell_length_c 24.084429
_cell_angle_alpha 90.000000
_cell_angle_beta 90.000000
_cell_angle_gamma 90.000000
_cell_volume 1986.605707
_symmetry_space_group_name_H-M "P B C N"
_symmetry_group_IT_number 60
_symmetry_cell_setting 'orthorhombic'
loop_
_space_group_symop_operation_xyz
x,y,z
1/2-x,1/2-y,1/2+z
1/2+x,1/2-y,-z
-x,y,1/2-z
-x,-y,-z
1/2+x,1/2+y,1/2-z
1/2-x,1/2+y,z
x,-y,1/2+z
loop_
_atom_site_type_symbol
_atom_site_label
_atom_site_fract_x
_atom_site_fract_y
_atom_site_fract_z
Si Si1 0.265624 0.303000 0.484709
Si Si2 0.343759 0.593921 0.086399
Si Si3 0.852821 0.477809 0.642909
Si Si4 0.820150 0.837283 0.145745
Si Si5 0.319605 0.260220 0.672351
Si Si6 0.500000 0.873675 0.750000
O O1 0.480362 0.234872 0.502502
O O2 0.313784 0.383697 0.522160
O O3 0.298456 0.321845 0.420133
O O4 0.630096 0.563918 0.104734
O O5 0.294844 0.680233 0.118679
O O6 0.127495 0.530587 0.109812
O O7 0.764818 0.569770 0.656167
O O8 0.883460 0.428208 0.700256
O O9 0.610121 0.776303 0.174059
O O10 0.110548 0.813461 0.165641
O O11 0.221586 0.317261 0.722017
#
# Coordination Sequence:
#
# PCOD9457964 Si02
#       6
#     8   8   8   8   8   4
#     4  12  22  39  70 101 137 178 222 273 332 399
#     4  11  22  42  66  97 136 183 215 265 337 413
#     4  11  26  42  66  97 142 168 224 284 342 393
#     4  12  24  43  67 105 133 171 223 288 326 400
#     4  11  23  42  69  93 129 173 233 267 327 403
#     4  10  26  46  68  96 128 188 222 282 346 402
#
# _framework density 22.148330999999999
#
# number of rings (size 3 to 8) (size 9 to 14) (size 15 to 20)
#    0.000    0.727    3.636    4.364    0.000    9.455 
#    0.000    0.000    0.000    0.000    0.000    0.000 
#    0.000    0.000    0.000    0.000    0.000    0.000 
#
# Total GULP energy -246559.930526 kJ/mol
# GULP energy per Si atom -5603.634785 kJ/mol
# Density = 2.209792 g / cm^3
# Si number density = 22.148331 Si / 1000 Ang^3
#
#
#
# Elastic Constant Matrix: (Units=GPa)
#
#
# Indices 1 2 3 4 5 6 
#
# 1 67.8517 -14.0276 14.9209 0.0000 0.0000 0.0000
# 2 -14.0276 69.1900 23.7472 0.0000 0.0000 0.0000
# 3 14.9209 23.7472 107.0188 0.0000 0.0000 0.0000
# 4 0.0000 0.0000 0.0000 18.0679 0.0000 0.0000
# 5 0.0000 0.0000 0.0000 0.0000 30.9443 0.0000
# 6 0.0000 0.0000 0.0000 0.0000 0.0000 27.6842
#
#
#
# Elastic Compliance Matrix: (Units=1/GPa)
#
#
# Indices 1 2 3 4 5 6 
#
# 1 0.016375 0.004442 -0.003269 0.000000 0.000000 0.000000
# 2 0.004442 0.016849 -0.004358 0.000000 0.000000 0.000000
# 3 -0.003269 -0.004358 0.010767 0.000000 0.000000 0.000000
# 4 0.000000 0.000000 0.000000 0.055347 0.000000 0.000000
# 5 0.000000 0.000000 0.000000 0.000000 0.032316 0.000000
# 6 0.000000 0.000000 0.000000 0.000000 0.000000 0.036122
#
#
# Mechanical properties :
#
#
# Convention : Reuss Voigt Hill
#
# Bulk Modulus (GPa) = 26.58070 32.59351 29.58710
# Shear Modulus (GPa) = 26.78290 29.96729 28.37510
#
# Velocity S-wave (km/s) = 3.48120 3.68234 3.58318
# Velocity P-wave (km/s) = 5.30901 5.72953 5.52327
#
# Compressibility (1/GPa) = 0.03762129
#
# Stress axis : x y z
#
# Youngs Moduli (GPa) = 61.06823 59.34980 92.87692
#
# Poissons Ratio (x) = -0.26362 0.30359
# Poissons Ratio (y) = -0.27125 0.40477
# Poissons Ratio (z) = 0.19961 0.25865
#
# Static dielectric constant tensor:
#      x y z
#    x 1.788570 0.000000 0.000000 
#    y 0.000000 1.792860 0.000000 
#    z 0.000000 0.000000 1.807710 
# 
# From -- ./inp_files/24806.got.cif
#   From: 2010.05.17/outbox.cif.g08.bks.cpg/sg60_13_cif.got.tgz:24806.got - 2010.06.03 14:59:27.
