data_PCOD9457480
_publ_section_title
;
Structure prediction by ZEFSAII (Michael W. Deem and Ramdas Pophale) SiO2 
 PCOD9457480
Probable space group: P B C N
;
_chemical_formula_sum "Si O2"
_cell_formula_units_Z 32
_cell_length_a 17.322309
_cell_length_b 5.321001
_cell_length_c 14.198932
_cell_angle_alpha 90.000000
_cell_angle_beta 90.000000
_cell_angle_gamma 90.000000
_cell_volume 1308.744294
_symmetry_space_group_name_H-M "P B C N"
_symmetry_group_IT_number 60
_symmetry_cell_setting 'orthorhombic'
loop_
_space_group_symop_operation_xyz
x,y,z
1/2-x,1/2-y,1/2+z
1/2+x,1/2-y,-z
-x,y,1/2-z
-x,-y,-z
1/2+x,1/2+y,1/2-z
1/2-x,1/2+y,z
x,-y,1/2+z
loop_
_atom_site_type_symbol
_atom_site_label
_atom_site_fract_x
_atom_site_fract_y
_atom_site_fract_z
Si Si1 0.038316 0.924674 0.647306
Si Si2 0.288852 0.175020 0.893650
Si Si3 0.933055 0.302329 0.997595
Si Si4 0.299407 0.830369 0.168182
O O1 0.111141 0.731875 0.640995
O O2 0.000000 0.935504 0.750000
O O3 0.965239 0.887172 0.577924
O O4 0.074855 0.177429 0.604112
O O5 0.276829 0.469368 0.913911
O O6 0.357316 0.082284 0.958678
O O7 0.303860 0.155779 0.782409
O O8 0.000000 0.500000 0.000000
O O9 0.245583 0.588488 0.141307
#
# Coordination Sequence:
#
# PCOD9457480 Si02
#       4
#     8   8   8   8
#     4  11  25  46  70 101 143 186 239 299 357 432
#     4  10  23  44  72 102 145 185 234 298 358 428
#     4  11  27  44  70 107 141 190 244 295 368 431
#     4  10  23  43  70 103 138 188 239 289 358 428
#
# _framework density 24.450921000000001
#
# number of rings (size 3 to 8) (size 9 to 14) (size 15 to 20)
#    0.000    1.500    2.500    0.000   10.500    5.000 
#    0.000    0.000    0.000    0.000    0.000    0.000 
#    0.000    0.000    0.000    0.000    0.000    0.000 
#
# Total GULP energy -178692.862189 kJ/mol
# GULP energy per Si atom -5584.151943 kJ/mol
# Density = 2.439527 g / cm^3
# Si number density = 24.450921 Si / 1000 Ang^3
#
#
#
# Elastic Constant Matrix: (Units=GPa)
#
#
# Indices 1 2 3 4 5 6 
#
# 1 121.1016 11.0305 27.4506 0.0000 0.0000 0.0000
# 2 11.0305 98.0726 11.1072 0.0000 0.0000 0.0000
# 3 27.4506 11.1072 89.7263 0.0000 0.0000 0.0000
# 4 0.0000 0.0000 0.0000 23.9721 0.0000 0.0000
# 5 0.0000 0.0000 0.0000 0.0000 46.6997 0.0000
# 6 0.0000 0.0000 0.0000 0.0000 0.0000 43.6179
#
#
#
# Elastic Compliance Matrix: (Units=1/GPa)
#
#
# Indices 1 2 3 4 5 6 
#
# 1 0.008921 -0.000704 -0.002642 0.000000 0.000000 0.000000
# 2 -0.000704 0.010397 -0.001072 0.000000 0.000000 0.000000
# 3 -0.002642 -0.001072 0.012086 0.000000 0.000000 0.000000
# 4 0.000000 0.000000 0.000000 0.041715 0.000000 0.000000
# 5 0.000000 0.000000 0.000000 0.000000 0.021413 0.000000
# 6 0.000000 0.000000 0.000000 0.000000 0.000000 0.022926
#
#
# Mechanical properties :
#
#
# Convention : Reuss Voigt Hill
#
# Bulk Modulus (GPa) = 44.31026 45.34191 44.82608
# Shear Modulus (GPa) = 37.36456 40.14542 38.75499
#
# Velocity S-wave (km/s) = 3.91339 4.05640 3.98554
# Velocity P-wave (km/s) = 6.21136 6.36581 6.28906
#
# Compressibility (1/GPa) = 0.02256814
#
# Stress axis : x y z
#
# Youngs Moduli (GPa) = 112.10099 96.18077 82.74077
#
# Poissons Ratio (x) = 0.06772 0.21860
# Poissons Ratio (y) = 0.07893 0.08867
# Poissons Ratio (z) = 0.29617 0.10307
#
# Static dielectric constant tensor:
#      x y z
#    x 2.037770 0.000000 0.000000 
#    y 0.000000 2.257090 0.000000 
#    z 0.000000 0.000000 1.959690 
# 
# From -- ./inp_files/17122.got.cif
#   From: 2010.05.17/outbox.cif.g08.bks.cpg/sg60_9_cif.got.tgz:17122.got - 2010.06.03 14:59:27.
