data_PCOD9457027
_publ_section_title
;
Structure prediction by ZEFSAII (Michael W. Deem and Ramdas Pophale) SiO2 
 PCOD9457027
Probable space group: P B C N
;
_chemical_formula_sum "Si O2"
_cell_formula_units_Z 60
_cell_length_a 5.452618
_cell_length_b 17.446535
_cell_length_c 25.269818
_cell_angle_alpha 90.000000
_cell_angle_beta 90.000000
_cell_angle_gamma 90.000000
_cell_volume 2403.899864
_symmetry_space_group_name_H-M "P B C N"
_symmetry_group_IT_number 60
_symmetry_cell_setting 'orthorhombic'
loop_
_space_group_symop_operation_xyz
x,y,z
1/2-x,1/2-y,1/2+z
1/2+x,1/2-y,-z
-x,y,1/2-z
-x,-y,-z
1/2+x,1/2+y,1/2-z
1/2-x,1/2+y,z
x,-y,1/2+z
loop_
_atom_site_type_symbol
_atom_site_label
_atom_site_fract_x
_atom_site_fract_y
_atom_site_fract_z
Si Si1 0.526094 0.847246 0.555294
Si Si2 0.170394 0.060104 0.527773
Si Si3 0.861780 0.187060 0.306601
Si Si4 0.000000 0.581681 0.250000
Si Si5 0.746157 0.927125 0.650196
Si Si6 0.254531 0.856166 0.213757
Si Si7 0.496102 0.066093 0.616152
Si Si8 0.277456 0.680658 0.956319
O O1 0.657554 0.907654 0.517500
O O2 0.548189 0.881917 0.613438
O O3 0.290085 0.827709 0.518941
O O4 0.677652 0.768302 0.556166
O O5 0.321869 0.023416 0.574767
O O6 0.021950 0.131676 0.550701
O O7 0.000000 0.000000 0.500000
O O8 0.636031 0.135097 0.290966
O O9 0.764640 0.273199 0.316549
O O10 0.000000 0.195190 0.250000
O O11 0.035175 0.135400 0.344358
O O12 0.194947 0.545136 0.288846
O O13 0.733423 0.012024 0.624644
O O14 0.500000 0.858877 0.250000
O O15 0.329733 0.917105 0.167929
O O16 0.000000 0.862193 0.250000
O O17 0.584574 0.141810 0.584266
#
# Coordination Sequence:
#
# PCOD9457027 Si02
#       8
#     8   8   8   4   8   8   8   8
#     4  11  23  43  69 106 136 197 254 329 395 481
#     4  11  24  44  70 100 150 194 249 324 405 483
#     4   9  20  43  70 102 139 193 258 320 381 459
#     4  10  22  42  66 100 140 196 258 320 380 470
#     4  11  24  42  68 101 150 199 258 320 402 475
#     4  11  25  48  80 114 157 204 266 332 402 473
#     4  11  27  44  68 114 148 205 250 321 406 486
#     4  11  23  44  71 104 151 187 264 320 403 489
#
# _framework density 24.959443
#
# number of rings (size 3 to 8) (size 9 to 14) (size 15 to 20)
#    0.000    1.333    2.000    2.400    2.800    6.400 
#    0.000    0.000    0.000    0.000    0.000    0.000 
#    0.000    0.000    0.000    0.000    0.000    0.000 
#
# Total GULP energy -334528.962197 kJ/mol
# GULP energy per Si atom -5575.482703 kJ/mol
# Density = 2.490263 g / cm^3
# Si number density = 24.959443 Si / 1000 Ang^3
#
#
#
# Elastic Constant Matrix: (Units=GPa)
#
#
# Indices 1 2 3 4 5 6 
#
# 1 100.5967 30.6340 54.2981 0.0000 0.0000 0.0000
# 2 30.6340 108.6586 49.3306 0.0000 0.0000 0.0000
# 3 54.2981 49.3306 139.5449 0.0000 0.0000 0.0000
# 4 0.0000 0.0000 0.0000 20.8027 0.0000 0.0000
# 5 0.0000 0.0000 0.0000 0.0000 32.0822 0.0000
# 6 0.0000 0.0000 0.0000 0.0000 0.0000 83.1444
#
#
#
# Elastic Compliance Matrix: (Units=1/GPa)
#
#
# Indices 1 2 3 4 5 6 
#
# 1 0.012815 -0.001607 -0.004418 0.000000 0.000000 0.000000
# 2 -0.001607 0.011164 -0.003321 0.000000 0.000000 0.000000
# 3 -0.004418 -0.003321 0.010059 0.000000 0.000000 0.000000
# 4 0.000000 0.000000 0.000000 0.048071 0.000000 0.000000
# 5 0.000000 0.000000 0.000000 0.000000 0.031170 0.000000
# 6 0.000000 0.000000 0.000000 0.000000 0.000000 0.012027
#
#
# Mechanical properties :
#
#
# Convention : Reuss Voigt Hill
#
# Bulk Modulus (GPa) = 65.16698 68.59173 66.87935
# Shear Modulus (GPa) = 33.53126 41.50835 37.51981
#
# Velocity S-wave (km/s) = 3.66926 4.08245 3.88136
# Velocity P-wave (km/s) = 6.64207 7.05428 6.85128
#
# Compressibility (1/GPa) = 0.01534519
#
# Stress axis : x y z
#
# Youngs Moduli (GPa) = 78.03442 89.57313 99.40893
#
# Poissons Ratio (x) = 0.14394 0.43922
# Poissons Ratio (y) = 0.12540 0.33017
# Poissons Ratio (z) = 0.34478 0.29750
#
# Static dielectric constant tensor:
#      x y z
#    x 2.159270 0.000000 0.000000 
#    y 0.000000 2.028170 0.000000 
#    z 0.000000 0.000000 2.104600 
# 
# From -- ./inp_files/24983.got.cif
#   From: 2010.05.17/outbox.cif.g08.bks.cpg/sg60_13_cif.got.tgz:24983.got - 2010.06.03 14:59:27.
