data_PCOD9457162
_publ_section_title
;
Structure prediction by ZEFSAII (Michael W. Deem and Ramdas Pophale) SiO2 
 PCOD9457162
Probable space group: P B C N
;
_chemical_formula_sum "Si O2"
_cell_formula_units_Z 40
_cell_length_a 15.596318
_cell_length_b 11.059934
_cell_length_c 8.133778
_cell_angle_alpha 90.000000
_cell_angle_beta 90.000000
_cell_angle_gamma 90.000000
_cell_volume 1403.029917
_symmetry_space_group_name_H-M "P B C N"
_symmetry_group_IT_number 60
_symmetry_cell_setting 'orthorhombic'
loop_
_space_group_symop_operation_xyz
x,y,z
1/2-x,1/2-y,1/2+z
1/2+x,1/2-y,-z
-x,y,1/2-z
-x,-y,-z
1/2+x,1/2+y,1/2-z
1/2-x,1/2+y,z
x,-y,1/2+z
loop_
_atom_site_type_symbol
_atom_site_label
_atom_site_fract_x
_atom_site_fract_y
_atom_site_fract_z
Si Si1 0.000000 0.829008 0.750000
Si Si2 0.095850 0.867017 0.049469
Si Si3 0.603410 0.145621 0.931676
Si Si4 0.765993 0.687512 0.474764
Si Si5 0.301548 0.506345 0.786040
Si Si6 0.500000 0.934582 0.750000
O O1 0.014858 0.878533 0.932857
O O2 0.078304 0.742009 0.709233
O O3 0.139088 0.735860 0.063474
O O4 0.166648 0.934670 0.941376
O O5 0.109186 0.934819 0.219219
O O6 0.571077 0.021393 0.842032
O O7 0.695895 0.203060 0.979270
O O8 0.548404 0.139164 0.103453
O O9 0.757986 0.613778 0.646388
O O10 0.740150 0.589329 0.336615
#
# Coordination Sequence:
#
# PCOD9457162 Si02
#       6
#     4   8   8   8   8   4
#     4  11  24  44  67 100 148 181 224 290 357 412
#     4  11  24  45  67  99 141 180 232 296 348 422
#     4  10  22  44  67  99 139 178 229 283 343 413
#     4  11  23  46  69  98 140 176 242 289 344 423
#     4  10  24  44  67 105 127 190 234 284 358 408
#     4   9  22  44  67 106 136 187 226 282 357 410
#
# _framework density 28.509726000000001
#
# number of rings (size 3 to 8) (size 9 to 14) (size 15 to 20)
#    0.000    1.600    2.000    1.200    2.800    2.400 
#   18.000    0.000    0.000    0.000    0.000    0.000 
#    0.000    0.000    0.000    0.000    0.000    0.000 
#
# Total GULP energy -223406.545552 kJ/mol
# GULP energy per Si atom -5585.163639 kJ/mol
# Density = 2.844484 g / cm^3
# Si number density = 28.509726 Si / 1000 Ang^3
#
#
#
# Elastic Constant Matrix: (Units=GPa)
#
#
# Indices 1 2 3 4 5 6 
#
# 1 87.6334 44.3945 17.3777 0.0000 0.0000 0.0000
# 2 44.3945 116.5752 49.1371 0.0000 0.0000 0.0000
# 3 17.3777 49.1371 122.2684 0.0000 0.0000 0.0000
# 4 0.0000 0.0000 0.0000 66.9697 0.0000 0.0000
# 5 0.0000 0.0000 0.0000 0.0000 50.4702 0.0000
# 6 0.0000 0.0000 0.0000 0.0000 0.0000 18.6302
#
#
#
# Elastic Compliance Matrix: (Units=1/GPa)
#
#
# Indices 1 2 3 4 5 6 
#
# 1 0.014142 -0.005464 0.000186 0.000000 0.000000 0.000000
# 2 -0.005464 0.012439 -0.004222 0.000000 0.000000 0.000000
# 3 0.000186 -0.004222 0.009849 0.000000 0.000000 0.000000
# 4 0.000000 0.000000 0.000000 0.014932 0.000000 0.000000
# 5 0.000000 0.000000 0.000000 0.000000 0.019814 0.000000
# 6 0.000000 0.000000 0.000000 0.000000 0.000000 0.053676
#
#
# Mechanical properties :
#
#
# Convention : Reuss Voigt Hill
#
# Bulk Modulus (GPa) = 57.37466 60.92174 59.14820
# Shear Modulus (GPa) = 33.40836 41.58519 37.49678
#
# Velocity S-wave (km/s) = 3.42690 3.82335 3.63054
# Velocity P-wave (km/s) = 5.98553 6.39576 6.19404
#
# Compressibility (1/GPa) = 0.01742930
#
# Stress axis : x y z
#
# Youngs Moduli (GPa) = 70.70943 80.39416 101.53169
#
# Poissons Ratio (x) = 0.43928 -0.01887
# Poissons Ratio (y) = 0.38636 0.42869
# Poissons Ratio (z) = -0.01314 0.33944
#
# Static dielectric constant tensor:
#      x y z
#    x 2.275370 0.000000 0.000000 
#    y 0.000000 2.308950 0.000000 
#    z 0.000000 0.000000 2.202580 
# 
# From -- ./inp_files/6539.got.cif
#   From: 2010.05.17/outbox.cif.g08.bks.cpg/sg60_4_cif.got.tgz:6539.got - 2010.06.03 14:59:27.
