data_PCOD9457373
_publ_section_title
;
Structure prediction by ZEFSAII (Michael W. Deem and Ramdas Pophale) SiO2 
 PCOD9457373
Probable space group: P B C N
;
_chemical_formula_sum "Si O2"
_cell_formula_units_Z 40
_cell_length_a 7.807529
_cell_length_b 14.401250
_cell_length_c 14.568612
_cell_angle_alpha 90.000000
_cell_angle_beta 90.000000
_cell_angle_gamma 90.000000
_cell_volume 1638.068175
_symmetry_space_group_name_H-M "P B C N"
_symmetry_group_IT_number 60
_symmetry_cell_setting 'orthorhombic'
loop_
_space_group_symop_operation_xyz
x,y,z
1/2-x,1/2-y,1/2+z
1/2+x,1/2-y,-z
-x,y,1/2-z
-x,-y,-z
1/2+x,1/2+y,1/2-z
1/2-x,1/2+y,z
x,-y,1/2+z
loop_
_atom_site_type_symbol
_atom_site_label
_atom_site_fract_x
_atom_site_fract_y
_atom_site_fract_z
Si Si1 0.112687 0.378103 0.335381
Si Si2 0.674299 0.459885 0.698293
Si Si3 0.232239 0.802441 0.500486
Si Si4 0.845167 0.534858 0.379339
Si Si5 0.853796 0.887803 0.491127
O O1 0.287549 0.429853 0.306459
O O2 0.168709 0.299038 0.403892
O O3 0.000000 0.346339 0.250000
O O4 0.004418 0.463729 0.380790
O O5 0.500000 0.436673 0.750000
O O6 0.813243 0.432810 0.775297
O O7 0.681196 0.420092 0.595853
O O8 0.232588 0.698321 0.536930
O O9 0.046739 0.848528 0.487850
O O10 0.345461 0.872659 0.561049
O O11 0.690187 0.472374 0.422611
#
# Coordination Sequence:
#
# PCOD9457373 Si02
#       5
#     8   8   8   8   8
#     4  10  23  41  72  98 137 184 233 285 352 411
#     4  11  22  43  70 100 137 182 235 282 350 414
#     4  12  24  43  70 101 141 180 232 288 348 419
#     4  11  23  46  72  98 140 183 232 289 350 415
#     4  12  26  43  73 105 138 191 230 289 356 420
#
# _framework density 24.419007000000001
#
# number of rings (size 3 to 8) (size 9 to 14) (size 15 to 20)
#    0.000    0.800    4.000    3.600    2.800    0.800 
#    7.200    0.000    0.000    0.000    0.000    0.000 
#    0.000    0.000    0.000    0.000    0.000    0.000 
#
# Total GULP energy -223695.689018 kJ/mol
# GULP energy per Si atom -5592.392225 kJ/mol
# Density = 2.436343 g / cm^3
# Si number density = 24.419007 Si / 1000 Ang^3
#
#
#
# Elastic Constant Matrix: (Units=GPa)
#
#
# Indices 1 2 3 4 5 6 
#
# 1 99.4117 12.8551 25.0858 0.0000 0.0000 0.0000
# 2 12.8551 74.2814 27.6944 0.0000 0.0000 0.0000
# 3 25.0858 27.6944 128.1996 0.0000 0.0000 0.0000
# 4 0.0000 0.0000 0.0000 16.0294 0.0000 0.0000
# 5 0.0000 0.0000 0.0000 0.0000 35.4458 0.0000
# 6 0.0000 0.0000 0.0000 0.0000 0.0000 29.0073
#
#
#
# Elastic Compliance Matrix: (Units=1/GPa)
#
#
# Indices 1 2 3 4 5 6 
#
# 1 0.010673 -0.001162 -0.001837 0.000000 0.000000 0.000000
# 2 -0.001162 0.014768 -0.002963 0.000000 0.000000 0.000000
# 3 -0.001837 -0.002963 0.008800 0.000000 0.000000 0.000000
# 4 0.000000 0.000000 0.000000 0.062386 0.000000 0.000000
# 5 0.000000 0.000000 0.000000 0.000000 0.028212 0.000000
# 6 0.000000 0.000000 0.000000 0.000000 0.000000 0.034474
#
#
# Mechanical properties :
#
#
# Convention : Reuss Voigt Hill
#
# Bulk Modulus (GPa) = 44.81016 48.12925 46.46970
# Shear Modulus (GPa) = 27.98356 31.84699 29.91527
#
# Velocity S-wave (km/s) = 3.38890 3.61527 3.50391
# Velocity P-wave (km/s) = 5.80545 6.09750 5.95326
#
# Compressibility (1/GPa) = 0.02231637
#
# Stress axis : x y z
#
# Youngs Moduli (GPa) = 93.69337 67.71365 113.63700
#
# Poissons Ratio (x) = 0.07868 0.20880
# Poissons Ratio (y) = 0.10887 0.33669
# Poissons Ratio (z) = 0.17216 0.20063
#
# Static dielectric constant tensor:
#      x y z
#    x 2.060980 0.000000 0.000000 
#    y 0.000000 1.873380 0.000000 
#    z 0.000000 0.000000 1.996120 
# 
# From -- ./inp_files/14656.got.cif
#   From: 2010.05.17/outbox.cif.g08.bks.cpg/sg60_8_cif.got.tgz:14656.got - 2010.06.03 14:59:27.
