data_PCOD9457601
_publ_section_title
;
Structure prediction by ZEFSAII (Michael W. Deem and Ramdas Pophale) SiO2 
 PCOD9457601
Probable space group: P B C N
;
_chemical_formula_sum "Si O2"
_cell_formula_units_Z 48
_cell_length_a 11.536144
_cell_length_b 15.435704
_cell_length_c 11.410344
_cell_angle_alpha 90.000000
_cell_angle_beta 90.000000
_cell_angle_gamma 90.000000
_cell_volume 2031.822887
_symmetry_space_group_name_H-M "P B C N"
_symmetry_group_IT_number 60
_symmetry_cell_setting 'orthorhombic'
loop_
_space_group_symop_operation_xyz
x,y,z
1/2-x,1/2-y,1/2+z
1/2+x,1/2-y,-z
-x,y,1/2-z
-x,-y,-z
1/2+x,1/2+y,1/2-z
1/2-x,1/2+y,z
x,-y,1/2+z
loop_
_atom_site_type_symbol
_atom_site_label
_atom_site_fract_x
_atom_site_fract_y
_atom_site_fract_z
Si Si1 0.182196 0.670013 0.363020
Si Si2 0.320766 0.669791 0.726658
Si Si3 0.442330 0.516226 0.625643
Si Si4 0.189791 0.557936 0.146577
Si Si5 0.329926 0.827089 0.423895
Si Si6 0.914735 0.374342 0.392721
O O1 0.369015 0.759160 0.773969
O O2 0.201365 0.589284 0.279570
O O3 0.292186 0.726033 0.412256
O O4 0.104011 0.642153 0.469656
O O5 0.411092 0.616705 0.651268
O O6 0.195829 0.676774 0.662130
O O7 0.273005 0.625843 0.848364
O O8 0.500000 0.486100 0.750000
O O9 0.500000 0.500000 0.500000
O O10 0.316364 0.475293 0.614581
O O11 0.165236 0.633597 0.053063
O O12 0.104475 0.475945 0.134130
O O13 0.455115 0.844257 0.367309
#
# Coordination Sequence:
#
# PCOD9457601 Si02
#       6
#     8   8   8   8   8   8
#     4  10  25  45  70 107 152 192 246 319 383 468
#     4   9  23  45  69 100 150 180 260 303 374 461
#     4  11  25  47  75 104 146 205 245 313 391 458
#     4  11  25  46  69 109 151 184 258 317 371 471
#     4  10  23  47  71 100 147 197 245 312 388 452
#     4  11  23  45  75 104 146 198 252 313 387 459
#
# _framework density 23.624106999999999
#
# number of rings (size 3 to 8) (size 9 to 14) (size 15 to 20)
#    1.000    0.667    0.000    3.000    9.333    0.667 
#   21.000    0.000    0.000    0.000    0.000    0.000 
#    0.000    0.000    0.000    0.000    0.000    0.000 
#
# Total GULP energy -267738.017203 kJ/mol
# GULP energy per Si atom -5577.875358 kJ/mol
# Density = 2.357034 g / cm^3
# Si number density = 23.624107 Si / 1000 Ang^3
#
#
#
# Elastic Constant Matrix: (Units=GPa)
#
#
# Indices 1 2 3 4 5 6 
#
# 1 70.9930 39.5675 5.6452 0.0000 0.0000 0.0000
# 2 39.5675 97.4710 41.4906 0.0000 0.0000 0.0000
# 3 5.6452 41.4906 94.8667 0.0000 0.0000 0.0000
# 4 0.0000 0.0000 0.0000 34.0140 0.0000 0.0000
# 5 0.0000 0.0000 0.0000 0.0000 8.8166 0.0000
# 6 0.0000 0.0000 0.0000 0.0000 0.0000 9.0133
#
#
#
# Elastic Compliance Matrix: (Units=1/GPa)
#
#
# Indices 1 2 3 4 5 6 
#
# 1 0.018759 -0.008773 0.002721 0.000000 0.000000 0.000000
# 2 -0.008773 0.016709 -0.006786 0.000000 0.000000 0.000000
# 3 0.002721 -0.006786 0.013347 0.000000 0.000000 0.000000
# 4 0.000000 0.000000 0.000000 0.029400 0.000000 0.000000
# 5 0.000000 0.000000 0.000000 0.000000 0.113423 0.000000
# 6 0.000000 0.000000 0.000000 0.000000 0.000000 0.110947
#
#
# Mechanical properties :
#
#
# Convention : Reuss Voigt Hill
#
# Bulk Modulus (GPa) = 43.21732 48.52638 45.87185
# Shear Modulus (GPa) = 14.88205 22.14394 18.51299
#
# Velocity S-wave (km/s) = 2.51261 3.06493 2.80241
# Velocity P-wave (km/s) = 5.17214 5.75419 5.47091
#
# Compressibility (1/GPa) = 0.02313887
#
# Stress axis : x y z
#
# Youngs Moduli (GPa) = 53.30691 59.84622 74.92278
#
# Poissons Ratio (x) = 0.52505 -0.20385
# Poissons Ratio (y) = 0.46768 0.50842
# Poissons Ratio (z) = -0.14504 0.40611
#
# Static dielectric constant tensor:
#      x y z
#    x 1.899780 0.000000 0.000000 
#    y 0.000000 2.003870 0.000000 
#    z 0.000000 0.000000 1.999620 
# 
# From -- ./inp_files/7476.got.cif
#   From: 2010.05.17/outbox.cif.g08.bks.cpg/sg60_4_cif.got.tgz:7476.got - 2010.06.03 14:59:27.
