data_PCOD9457940
_publ_section_title
;
Structure prediction by ZEFSAII (Michael W. Deem and Ramdas Pophale) SiO2 
 PCOD9457940
Probable space group: P B C N
;
_chemical_formula_sum "Si O2"
_cell_formula_units_Z 32
_cell_length_a 8.376230
_cell_length_b 18.903456
_cell_length_c 7.803882
_cell_angle_alpha 90.000000
_cell_angle_beta 90.000000
_cell_angle_gamma 90.000000
_cell_volume 1235.664298
_symmetry_space_group_name_H-M "P B C N"
_symmetry_group_IT_number 60
_symmetry_cell_setting 'orthorhombic'
loop_
_space_group_symop_operation_xyz
x,y,z
1/2-x,1/2-y,1/2+z
1/2+x,1/2-y,-z
-x,y,1/2-z
-x,-y,-z
1/2+x,1/2+y,1/2-z
1/2-x,1/2+y,z
x,-y,1/2+z
loop_
_atom_site_type_symbol
_atom_site_label
_atom_site_fract_x
_atom_site_fract_y
_atom_site_fract_z
Si Si1 0.818446 0.089223 0.306738
Si Si2 0.232435 0.062451 0.566438
Si Si3 0.115876 0.290342 0.604390
Si Si4 0.500000 0.847851 0.250000
Si Si5 0.500000 0.650417 0.750000
O O1 0.775995 0.163541 0.394998
O O2 0.000000 0.084472 0.250000
O O3 0.766021 0.021661 0.414999
O O4 0.728028 0.083125 0.125556
O O5 0.355370 0.099986 0.696021
O O6 0.055050 0.091962 0.610313
O O7 0.043507 0.300017 0.415627
O O8 0.126245 0.210785 0.678036
O O9 0.000000 0.321960 0.750000
#
# Coordination Sequence:
#
# PCOD9457940 Si02
#       5
#     8   8   8   4   4
#     4  12  26  48  78 109 155 201 253 314 376 454
#     4  12  26  47  75 116 150 202 254 315 380 451
#     4  10  25  52  71 111 151 197 253 306 375 452
#     4  12  26  45  82 109 150 202 250 316 374 455
#     4  10  26  51  70 113 156 188 260 304 386 447
#
# _framework density 25.897000999999999
#
# number of rings (size 3 to 8) (size 9 to 14) (size 15 to 20)
#    0.750    0.000    3.750    2.250    5.250    6.000 
#    4.500    0.000    0.000    0.000    0.000    0.000 
#    0.000    0.000    0.000    0.000    0.000    0.000 
#
# Total GULP energy -178501.361501 kJ/mol
# GULP energy per Si atom -5578.167547 kJ/mol
# Density = 2.583806 g / cm^3
# Si number density = 25.897001 Si / 1000 Ang^3
#
#
#
# Elastic Constant Matrix: (Units=GPa)
#
#
# Indices 1 2 3 4 5 6 
#
# 1 51.9546 26.3163 27.8994 0.0000 0.0000 0.0000
# 2 26.3163 125.5963 38.3594 0.0000 0.0000 0.0000
# 3 27.8994 38.3594 150.2203 0.0000 0.0000 0.0000
# 4 0.0000 0.0000 0.0000 2.4728 0.0000 0.0000
# 5 0.0000 0.0000 0.0000 0.0000 35.7354 0.0000
# 6 0.0000 0.0000 0.0000 0.0000 0.0000 21.5176
#
#
#
# Elastic Compliance Matrix: (Units=1/GPa)
#
#
# Indices 1 2 3 4 5 6 
#
# 1 0.022940 -0.003802 -0.003290 0.000000 0.000000 0.000000
# 2 -0.003802 0.009266 -0.001660 0.000000 0.000000 0.000000
# 3 -0.003290 -0.001660 0.007692 0.000000 0.000000 0.000000
# 4 0.000000 0.000000 0.000000 0.404406 0.000000 0.000000
# 5 0.000000 0.000000 0.000000 0.000000 0.027983 0.000000
# 6 0.000000 0.000000 0.000000 0.000000 0.000000 0.046474
#
#
# Mechanical properties :
#
#
# Convention : Reuss Voigt Hill
#
# Bulk Modulus (GPa) = 44.65425 56.99127 50.82276
# Shear Modulus (GPa) = 9.19578 27.62490 18.41034
#
# Velocity S-wave (km/s) = 1.88643 3.26961 2.66917
# Velocity P-wave (km/s) = 4.69311 6.02565 5.40064
#
# Compressibility (1/GPa) = 0.02239428
#
# Stress axis : x y z
#
# Youngs Moduli (GPa) = 43.59229 107.92615 130.01004
#
# Poissons Ratio (x) = 0.41032 0.42769
# Poissons Ratio (y) = 0.16573 0.21580
# Poissons Ratio (z) = 0.14340 0.17915
#
# Static dielectric constant tensor:
#      x y z
#    x 2.134930 0.000000 0.000000 
#    y 0.000000 1.930640 0.000000 
#    z 0.000000 0.000000 2.054500 
# 
# From -- ./inp_files/3652.got.cif
#   From: 2010.05.17/outbox.cif.g08.bks.cpg/sg60_2_cif.got.tgz:3652.got - 2010.06.03 14:59:27.
