data_PCOD9457628
_publ_section_title
;
Structure prediction by ZEFSAII (Michael W. Deem and Ramdas Pophale) SiO2 
 PCOD9457628
Probable space group: P B C N
;
_chemical_formula_sum "Si O2"
_cell_formula_units_Z 56
_cell_length_a 14.320114
_cell_length_b 22.958339
_cell_length_c 8.869184
_cell_angle_alpha 90.000000
_cell_angle_beta 90.000000
_cell_angle_gamma 90.000000
_cell_volume 2915.886428
_symmetry_space_group_name_H-M "P B C N"
_symmetry_group_IT_number 60
_symmetry_cell_setting 'orthorhombic'
loop_
_space_group_symop_operation_xyz
x,y,z
1/2-x,1/2-y,1/2+z
1/2+x,1/2-y,-z
-x,y,1/2-z
-x,-y,-z
1/2+x,1/2+y,1/2-z
1/2-x,1/2+y,z
x,-y,1/2+z
loop_
_atom_site_type_symbol
_atom_site_label
_atom_site_fract_x
_atom_site_fract_y
_atom_site_fract_z
Si Si1 0.765105 0.583921 0.004960
Si Si2 0.476403 0.734722 0.075893
Si Si3 0.298089 0.996546 0.752063
Si Si4 0.216940 0.815660 0.611906
Si Si5 0.642021 0.083545 0.487579
Si Si6 0.185729 0.203193 0.467132
Si Si7 0.961975 0.644122 0.076993
O O1 0.735430 0.550187 0.157519
O O2 0.714489 0.642677 0.958268
O O3 0.872067 0.604168 0.041586
O O4 0.753190 0.536991 0.874089
O O5 0.500000 0.751279 0.250000
O O6 0.392792 0.688056 0.072674
O O7 0.575315 0.711985 0.018412
O O8 0.443543 0.790769 0.981619
O O9 0.371706 0.958252 0.657314
O O10 0.337918 0.040762 0.874903
O O11 0.273889 0.871988 0.554395
O O12 0.265631 0.759518 0.537035
O O13 0.218497 0.806615 0.793116
O O14 0.549868 0.120229 0.515958
O O15 0.000000 0.645942 0.250000
#
# Coordination Sequence:
#
# PCOD9457628 Si02
#       7
#     8   8   8   8   8   8   8
#     4  11  23  40  61  86 122 157 201 246 295 357
#     4  10  24  38  59  90 123 158 194 241 310 360
#     4  10  24  41  60  85 118 166 202 239 294 357
#     4  11  22  39  62  89 120 157 196 250 304 350
#     4  11  23  40  61  86 122 157 201 246 295 357
#     4  11  22  39  62  89 120 157 196 250 304 350
#     4  12  22  35  56  91 124 153 195 246 293 366
#
# _framework density 19.205137000000001
#
# number of rings (size 3 to 8) (size 9 to 14) (size 15 to 20)
#    0.000    1.143    5.714    0.000    4.000    3.429 
#    0.000    0.000    0.000    5.143    0.000    0.000 
#    0.000    0.000    0.000    0.000    0.000    0.000 
#
# Total GULP energy -312346.874917 kJ/mol
# GULP energy per Si atom -5577.622766 kJ/mol
# Density = 1.916143 g / cm^3
# Si number density = 19.205137 Si / 1000 Ang^3
#
#
#
# Elastic Constant Matrix: (Units=GPa)
#
#
# Indices 1 2 3 4 5 6 
#
# 1 84.5201 32.2034 10.1739 0.0000 0.0000 0.0000
# 2 32.2034 99.9306 28.2697 0.0000 0.0000 0.0000
# 3 10.1739 28.2697 49.8376 0.0000 0.0000 0.0000
# 4 0.0000 0.0000 0.0000 31.9994 0.0000 0.0000
# 5 0.0000 0.0000 0.0000 0.0000 12.7387 0.0000
# 6 0.0000 0.0000 0.0000 0.0000 0.0000 -38.8866
#
#
#
# Elastic Compliance Matrix: (Units=1/GPa)
#
#
# Indices 1 2 3 4 5 6 
#
# 1 0.013492 -0.004251 -0.000343 0.000000 0.000000 0.000000
# 2 -0.004251 0.013259 -0.006653 0.000000 0.000000 0.000000
# 3 -0.000343 -0.006653 0.023909 0.000000 0.000000 0.000000
# 4 0.000000 0.000000 0.000000 0.031251 0.000000 0.000000
# 5 0.000000 0.000000 0.000000 0.000000 0.078501 0.000000
# 6 0.000000 0.000000 0.000000 0.000000 0.000000 -0.025716
#
#
# Mechanical properties :
#
#
# Convention : Reuss Voigt Hill
#
# Bulk Modulus (GPa) = 35.50361 41.73138 38.61749
# Shear Modulus (GPa) = 30.01566 12.07970 21.04768
#
# Velocity S-wave (km/s) = 3.95764 2.51067 3.31409
# Velocity P-wave (km/s) = 6.27778 5.49373 5.89880
#
# Compressibility (1/GPa) = 0.02816615
#
# Stress axis : x y z
#
# Youngs Moduli (GPa) = 74.11528 75.42035 41.82500
#
# Poissons Ratio (x) = 0.32061 0.01435
# Poissons Ratio (y) = 0.31507 0.27827
# Poissons Ratio (z) = 0.02542 0.50179
#
# Static dielectric constant tensor:
#      x y z
#    x 1.665400 0.000000 0.000000 
#    y 0.000000 1.668650 0.000000 
#    z 0.000000 0.000000 1.721060 
# 
# From -- ./inp_files/6143.got.cif
#   From: 2010.05.17/outbox.cif.g08.bks.cpg/sg60_4_cif.got.tgz:6143.got - 2010.06.03 14:59:27.
