data_PCOD9457345
_publ_section_title
;
Structure prediction by ZEFSAII (Michael W. Deem and Ramdas Pophale) SiO2 
 PCOD9457345
Probable space group: P B C N
;
_chemical_formula_sum "Si O2"
_cell_formula_units_Z 40
_cell_length_a 24.229651
_cell_length_b 13.423256
_cell_length_c 5.371034
_cell_angle_alpha 90.000000
_cell_angle_beta 90.000000
_cell_angle_gamma 90.000000
_cell_volume 1746.879439
_symmetry_space_group_name_H-M "P B C N"
_symmetry_group_IT_number 60
_symmetry_cell_setting 'orthorhombic'
loop_
_space_group_symop_operation_xyz
x,y,z
1/2-x,1/2-y,1/2+z
1/2+x,1/2-y,-z
-x,y,1/2-z
-x,-y,-z
1/2+x,1/2+y,1/2-z
1/2-x,1/2+y,z
x,-y,1/2+z
loop_
_atom_site_type_symbol
_atom_site_label
_atom_site_fract_x
_atom_site_fract_y
_atom_site_fract_z
Si Si1 0.118739 0.766994 0.126833
Si Si2 0.938160 0.043686 0.001040
Si Si3 0.566358 0.937922 0.733613
Si Si4 0.303556 0.440873 0.271655
Si Si5 0.777597 0.291129 0.149291
O O1 0.096646 0.668598 0.257734
O O2 0.157181 0.842745 0.286219
O O3 0.069051 0.839051 0.037525
O O4 0.158943 0.733384 0.902441
O O5 0.913141 0.011840 0.262734
O O6 0.000000 0.000000 0.000000
O O7 0.500000 0.921201 0.750000
O O8 0.579772 0.998055 0.481601
O O9 0.311153 0.515833 0.497140
O O10 0.240329 0.402802 0.289811
O O11 0.752894 0.231347 0.384491
#
# Coordination Sequence:
#
# PCOD9457345 Si02
#       5
#     8   8   8   8   8
#     4  11  24  43  74  99 139 185 232 283 355 421
#     4  10  23  41  62 102 141 175 223 273 350 425
#     4  10  25  47  67  97 132 178 238 292 339 399
#     4  11  23  41  65 101 144 175 219 284 345 419
#     4  10  23  41  62  94 132 181 230 272 332 402
#
# _framework density 22.897973
#
# number of rings (size 3 to 8) (size 9 to 14) (size 15 to 20)
#    0.000    1.600    0.000    3.600    2.800   11.200 
#    7.200    0.000    0.000    0.000    0.000    0.000 
#    0.000    0.000    0.000    0.000    0.000    0.000 
#
# Total GULP energy -223351.897690 kJ/mol
# GULP energy per Si atom -5583.797442 kJ/mol
# Density = 2.284586 g / cm^3
# Si number density = 22.897973 Si / 1000 Ang^3
#
#
#
# Elastic Constant Matrix: (Units=GPa)
#
#
# Indices 1 2 3 4 5 6 
#
# 1 78.4280 55.9464 25.4893 0.0000 0.0000 0.0000
# 2 55.9464 162.5239 57.4464 0.0000 0.0000 0.0000
# 3 25.4893 57.4464 157.3164 0.0000 0.0000 0.0000
# 4 0.0000 0.0000 0.0000 24.6296 0.0000 0.0000
# 5 0.0000 0.0000 0.0000 0.0000 23.7564 0.0000
# 6 0.0000 0.0000 0.0000 0.0000 0.0000 60.4049
#
#
#
# Elastic Compliance Matrix: (Units=1/GPa)
#
#
# Indices 1 2 3 4 5 6 
#
# 1 0.016969 -0.005591 -0.000708 0.000000 0.000000 0.000000
# 2 -0.005591 0.008907 -0.002347 0.000000 0.000000 0.000000
# 3 -0.000708 -0.002347 0.007328 0.000000 0.000000 0.000000
# 4 0.000000 0.000000 0.000000 0.040601 0.000000 0.000000
# 5 0.000000 0.000000 0.000000 0.000000 0.042094 0.000000
# 6 0.000000 0.000000 0.000000 0.000000 0.000000 0.016555
#
#
# Mechanical properties :
#
#
# Convention : Reuss Voigt Hill
#
# Bulk Modulus (GPa) = 62.84082 75.11472 68.97777
# Shear Modulus (GPa) = 32.24765 39.05060 35.64913
#
# Velocity S-wave (km/s) = 3.75683 4.13415 3.95000
# Velocity P-wave (km/s) = 6.80601 7.46080 7.14092
#
# Compressibility (1/GPa) = 0.01591322
#
# Stress axis : x y z
#
# Youngs Moduli (GPa) = 58.93100 112.27048 136.45936
#
# Poissons Ratio (x) = 0.62772 0.09658
# Poissons Ratio (y) = 0.32949 0.32022
# Poissons Ratio (z) = 0.04171 0.26346
#
# Static dielectric constant tensor:
#      x y z
#    x 8.384840 0.000000 0.000000 
#    y 0.000000 1.858330 0.000000 
#    z 0.000000 0.000000 1.834980 
# 
# From -- ./inp_files/2676.got.cif
#   From: 2010.05.17/outbox.cif.g08.bks.cpg/sg60_2_cif.got.tgz:2676.got - 2010.06.03 14:59:27.
