data_PCOD9457301
_publ_section_title
;
Structure prediction by ZEFSAII (Michael W. Deem and Ramdas Pophale) SiO2 
 PCOD9457301
Probable space group: P B C N
;
_chemical_formula_sum "Si O2"
_cell_formula_units_Z 64
_cell_length_a 18.441865
_cell_length_b 26.123938
_cell_length_c 5.942650
_cell_angle_alpha 90.000000
_cell_angle_beta 90.000000
_cell_angle_gamma 90.000000
_cell_volume 2863.015080
_symmetry_space_group_name_H-M "P B C N"
_symmetry_group_IT_number 60
_symmetry_cell_setting 'orthorhombic'
loop_
_space_group_symop_operation_xyz
x,y,z
1/2-x,1/2-y,1/2+z
1/2+x,1/2-y,-z
-x,y,1/2-z
-x,-y,-z
1/2+x,1/2+y,1/2-z
1/2-x,1/2+y,z
x,-y,1/2+z
loop_
_atom_site_type_symbol
_atom_site_label
_atom_site_fract_x
_atom_site_fract_y
_atom_site_fract_z
Si Si1 0.871744 0.010990 0.789756
Si Si2 0.741917 0.687897 0.311722
Si Si3 0.206874 0.522404 0.164019
Si Si4 0.652607 0.723454 0.950542
Si Si5 0.435179 0.810165 0.425903
Si Si6 0.665406 0.859331 0.415555
Si Si7 0.075091 0.407280 0.746028
Si Si8 0.192830 0.120217 0.797557
O O1 0.855831 0.070972 0.739869
O O2 0.904637 0.992502 0.546295
O O3 0.795345 0.979268 0.822410
O O4 0.778757 0.738633 0.411447
O O5 0.722724 0.639248 0.463613
O O6 0.665906 0.703131 0.200797
O O7 0.800032 0.671079 0.123434
O O8 0.190533 0.501771 0.417656
O O9 0.148972 0.568569 0.155530
O O10 0.659060 0.673024 0.799081
O O11 0.582208 0.758615 0.937329
O O12 0.500000 0.804531 0.250000
O O13 0.363339 0.822604 0.278412
O O14 0.442062 0.857748 0.593134
O O15 0.597280 0.890709 0.502921
O O16 0.732675 0.892811 0.334093
O O17 0.000000 0.438558 0.750000
#
# Coordination Sequence:
#
# PCOD9457301 Si02
#       8
#     8   8   8   8   8   8   8   8
#     4  10  23  39  58  86 117 155 199 252 321 377
#     4  11  20  34  58  88 115 150 195 256 309 380
#     4  10  24  40  59  80 110 150 209 273 323 360
#     4  11  21  35  56  90 116 151 200 246 314 376
#     4  12  25  40  58  84 123 166 208 255 301 371
#     4  11  21  35  57  81 113 152 204 250 303 365
#     4  12  25  39  59  79 111 161 218 260 305 358
#     4  11  23  36  62  84 118 155 196 259 317 382
#
# _framework density 22.354056
#
# number of rings (size 3 to 8) (size 9 to 14) (size 15 to 20)
#    0.000    1.000    5.000    2.250   12.250    0.500 
#    0.000    0.000    0.000    0.000    0.000    0.000 
#    0.000    1.000    0.000    0.125    0.000    0.000 
#
# Total GULP energy -356554.919943 kJ/mol
# GULP energy per Si atom -5571.170624 kJ/mol
# Density = 2.230318 g / cm^3
# Si number density = 22.354056 Si / 1000 Ang^3
#
#
#
# Elastic Constant Matrix: (Units=GPa)
#
#
# Indices 1 2 3 4 5 6 
#
# 1 19.8840 -2.9552 1.6106 0.0000 0.0000 0.0000
# 2 -2.9552 45.6030 27.3916 0.0000 0.0000 0.0000
# 3 1.6106 27.3916 119.7890 0.0000 0.0000 0.0000
# 4 0.0000 0.0000 0.0000 26.3132 0.0000 0.0000
# 5 0.0000 0.0000 0.0000 0.0000 18.0223 0.0000
# 6 0.0000 0.0000 0.0000 0.0000 0.0000 10.6598
#
#
#
# Elastic Compliance Matrix: (Units=1/GPa)
#
#
# Indices 1 2 3 4 5 6 
#
# 1 0.051068 0.004314 -0.001673 0.000000 0.000000 0.000000
# 2 0.004314 0.025784 -0.005954 0.000000 0.000000 0.000000
# 3 -0.001673 -0.005954 0.009732 0.000000 0.000000 0.000000
# 4 0.000000 0.000000 0.000000 0.038004 0.000000 0.000000
# 5 0.000000 0.000000 0.000000 0.000000 0.055487 0.000000
# 6 0.000000 0.000000 0.000000 0.000000 0.000000 0.093810
#
#
# Mechanical properties :
#
#
# Convention : Reuss Voigt Hill
#
# Bulk Modulus (GPa) = 12.50639 26.37444 19.44041
# Shear Modulus (GPa) = 16.27796 21.61434 18.94615
#
# Velocity S-wave (km/s) = 2.70142 3.11289 2.91443
# Velocity P-wave (km/s) = 3.91626 4.97436 4.47668
#
# Compressibility (1/GPa) = 0.07995912
#
# Stress axis : x y z
#
# Youngs Moduli (GPa) = 19.58159 38.78339 102.75402
#
# Poissons Ratio (x) = -0.16733 0.17193
# Poissons Ratio (y) = -0.08448 0.61179
# Poissons Ratio (z) = 0.03276 0.23092
#
# Static dielectric constant tensor:
#      x y z
#    x 1.832330 0.000000 0.000000 
#    y 0.000000 1.915110 0.000000 
#    z 0.000000 0.000000 1.938030 
# 
# From -- ./inp_files/2228.got.cif
#   From: 2010.05.17/outbox.cif.g08.bks.cpg/sg60_2_cif.got.tgz:2228.got - 2010.06.03 14:59:27.
