data_PCOD9457118
_publ_section_title
;
Structure prediction by ZEFSAII (Michael W. Deem and Ramdas Pophale) SiO2 
 PCOD9457118
Probable space group: P B C N
;
_chemical_formula_sum "Si O2"
_cell_formula_units_Z 48
_cell_length_a 14.158902
_cell_length_b 18.320632
_cell_length_c 8.221355
_cell_angle_alpha 90.000000
_cell_angle_beta 90.000000
_cell_angle_gamma 90.000000
_cell_volume 2132.619759
_symmetry_space_group_name_H-M "P B C N"
_symmetry_group_IT_number 60
_symmetry_cell_setting 'orthorhombic'
loop_
_space_group_symop_operation_xyz
x,y,z
1/2-x,1/2-y,1/2+z
1/2+x,1/2-y,-z
-x,y,1/2-z
-x,-y,-z
1/2+x,1/2+y,1/2-z
1/2-x,1/2+y,z
x,-y,1/2+z
loop_
_atom_site_type_symbol
_atom_site_label
_atom_site_fract_x
_atom_site_fract_y
_atom_site_fract_z
Si Si1 0.500000 0.687931 0.250000
Si Si2 0.145615 0.580493 0.164017
Si Si3 0.363590 0.081547 0.555127
Si Si4 0.500000 0.699806 0.750000
Si Si5 0.515961 0.805941 0.022647
Si Si6 0.861461 0.073464 0.298085
Si Si7 0.854325 0.088066 0.907251
O O1 0.559008 0.744375 0.140616
O O2 0.434866 0.634305 0.144512
O O3 0.111537 0.500495 0.108535
O O4 0.135538 0.584632 0.358527
O O5 0.257447 0.585457 0.130822
O O6 0.089880 0.642485 0.068350
O O7 0.439232 0.141568 0.605579
O O8 0.258292 0.096332 0.622978
O O9 0.535606 0.755373 0.611316
O O10 0.417360 0.649657 0.676326
O O11 0.886960 0.990780 0.340527
O O12 0.861532 0.084071 0.103065
#
# Coordination Sequence:
#
# PCOD9457118 Si02
#       7
#     4   8   8   4   8   8   8
#     4  12  27  42  61 100 138 174 222 278 345 404
#     4  10  22  43  69  94 128 173 229 274 333 398
#     4  10  22  43  67  97 126 174 226 277 328 402
#     4  12  23  42  65  96 136 184 216 276 347 404
#     4  12  25  42  64  98 137 178 219 278 347 404
#     4  10  23  44  66  96 128 174 227 281 325 403
#     4  10  23  42  68  94 129 174 230 274 335 395
#
# _framework density 22.507529000000002
#
# number of rings (size 3 to 8) (size 9 to 14) (size 15 to 20)
#    0.000    1.333    3.333    1.000    4.667    2.667 
#    0.000    0.000    0.000    0.000    0.000    0.000 
#    0.000    0.000    0.000    0.000    0.000    0.000 
#
# Total GULP energy -268366.949744 kJ/mol
# GULP energy per Si atom -5590.978120 kJ/mol
# Density = 2.245630 g / cm^3
# Si number density = 22.507529 Si / 1000 Ang^3
#
#
#
# Elastic Constant Matrix: (Units=GPa)
#
#
# Indices 1 2 3 4 5 6 
#
# 1 97.6903 94.2973 29.6455 0.0000 0.0000 0.0000
# 2 94.2973 201.5633 46.1273 0.0000 0.0000 0.0000
# 3 29.6455 46.1273 32.6554 0.0000 0.0000 0.0000
# 4 0.0000 0.0000 0.0000 40.8381 0.0000 0.0000
# 5 0.0000 0.0000 0.0000 0.0000 28.5768 0.0000
# 6 0.0000 0.0000 0.0000 0.0000 0.0000 -67.1730
#
#
#
# Elastic Compliance Matrix: (Units=1/GPa)
#
#
# Indices 1 2 3 4 5 6 
#
# 1 0.019751 -0.007590 -0.007209 0.000000 0.000000 0.000000
# 2 -0.007590 0.010248 -0.007585 0.000000 0.000000 0.000000
# 3 -0.007209 -0.007585 0.047881 0.000000 0.000000 0.000000
# 4 0.000000 0.000000 0.000000 0.024487 0.000000 0.000000
# 5 0.000000 0.000000 0.000000 0.000000 0.034993 0.000000
# 6 0.000000 0.000000 0.000000 0.000000 0.000000 -0.014887
#
#
# Mechanical properties :
#
#
# Convention : Reuss Voigt Hill
#
# Bulk Modulus (GPa) = 30.20053 74.67213 52.43633
# Shear Modulus (GPa) = 28.04600 11.23764 19.64182
#
# Velocity S-wave (km/s) = 3.53380 2.23689 2.95732
# Velocity P-wave (km/s) = 5.48612 6.31824 5.91682
#
# Compressibility (1/GPa) = 0.03311200
#
# Stress axis : x y z
#
# Youngs Moduli (GPa) = 50.63139 97.57993 20.88499
#
# Poissons Ratio (x) = 0.74066 0.15055
# Poissons Ratio (y) = 0.38431 0.15842
# Poissons Ratio (z) = 0.36498 0.74016
#
# Static dielectric constant tensor:
#      x y z
#    x 1.850260 0.000000 0.000000 
#    y 0.000000 1.788850 0.000000 
#    z 0.000000 0.000000 1.931020 
# 
# From -- ./inp_files/5967.got.cif
#   From: 2010.05.17/outbox.cif.g08.bks.cpg/sg60_3_cif.got.tgz:5967.got - 2010.06.03 14:59:27.
