data_PCOD9457014
_publ_section_title
;
Structure prediction by ZEFSAII (Michael W. Deem and Ramdas Pophale) SiO2 
 PCOD9457014
Probable space group: P B C N
;
_chemical_formula_sum "Si O2"
_cell_formula_units_Z 44
_cell_length_a 9.323915
_cell_length_b 28.046003
_cell_length_c 7.625689
_cell_angle_alpha 90.000000
_cell_angle_beta 90.000000
_cell_angle_gamma 90.000000
_cell_volume 1994.106601
_symmetry_space_group_name_H-M "P B C N"
_symmetry_group_IT_number 60
_symmetry_cell_setting 'orthorhombic'
loop_
_space_group_symop_operation_xyz
x,y,z
1/2-x,1/2-y,1/2+z
1/2+x,1/2-y,-z
-x,y,1/2-z
-x,-y,-z
1/2+x,1/2+y,1/2-z
1/2-x,1/2+y,z
x,-y,1/2+z
loop_
_atom_site_type_symbol
_atom_site_label
_atom_site_fract_x
_atom_site_fract_y
_atom_site_fract_z
Si Si1 0.500000 0.856750 0.750000
Si Si2 0.978006 0.945123 0.543984
Si Si3 0.500000 0.380406 0.250000
Si Si4 0.846448 0.439908 0.584461
Si Si5 0.112796 0.212080 0.600059
Si Si6 0.050038 0.712383 0.574494
Si Si7 0.500000 0.025966 0.750000
O O1 0.373750 0.894659 0.790445
O O2 0.502573 0.822268 0.582788
O O3 0.810828 0.936776 0.508858
O O4 0.000000 0.935279 0.750000
O O5 0.064483 0.913285 0.403587
O O6 0.000000 0.000000 0.500000
O O7 0.398680 0.343906 0.141914
O O8 0.873988 0.488666 0.694052
O O9 0.955144 0.444051 0.420085
O O10 0.280665 0.223140 0.587114
O O11 0.000000 0.230422 0.750000
O O12 0.038793 0.238169 0.437960
O O13 0.000000 0.686899 0.750000
#
# Coordination Sequence:
#
# PCOD9457014 Si02
#       7
#     4   8   4   8   8   8   4
#     4  11  25  44  68 110 140 180 252 297 363 450
#     4  12  24  42  68 101 143 195 234 299 359 427
#     4  10  25  46  67 104 146 181 250 289 356 438
#     4  10  22  42  63  99 140 179 249 287 360 428
#     4  10  24  50  71 106 145 184 242 298 361 445
#     4  12  25  45  77 103 146 189 231 302 374 439
#     4   9  20  40  67  88 128 197 220 302 341 414
#
# _framework density 22.065018999999999
#
# number of rings (size 3 to 8) (size 9 to 14) (size 15 to 20)
#    0.545    0.727    1.818    3.273    1.273    2.182 
#    0.000    0.000    0.000    0.000    0.000    0.000 
#    0.000    0.000    0.000    0.000    0.000    0.000 
#
# Total GULP energy -245040.573585 kJ/mol
# GULP energy per Si atom -5569.103945 kJ/mol
# Density = 2.201480 g / cm^3
# Si number density = 22.065019 Si / 1000 Ang^3
#
#
#
# Elastic Constant Matrix: (Units=GPa)
#
#
# Indices 1 2 3 4 5 6 
#
# 1 106.9743 48.8834 29.6926 0.0000 0.0000 0.0000
# 2 48.8834 118.7282 55.8921 0.0000 0.0000 0.0000
# 3 29.6926 55.8921 161.8123 0.0000 0.0000 0.0000
# 4 0.0000 0.0000 0.0000 4.6519 0.0000 0.0000
# 5 0.0000 0.0000 0.0000 0.0000 26.2588 0.0000
# 6 0.0000 0.0000 0.0000 0.0000 0.0000 1.8632
#
#
#
# Elastic Compliance Matrix: (Units=1/GPa)
#
#
# Indices 1 2 3 4 5 6 
#
# 1 0.011558 -0.004491 -0.000570 0.000000 0.000000 0.000000
# 2 -0.004491 0.011803 -0.003253 0.000000 0.000000 0.000000
# 3 -0.000570 -0.003253 0.007408 0.000000 0.000000 0.000000
# 4 0.000000 0.000000 0.000000 0.214966 0.000000 0.000000
# 5 0.000000 0.000000 0.000000 0.000000 0.038082 0.000000
# 6 0.000000 0.000000 0.000000 0.000000 0.000000 0.536718
#
#
# Mechanical properties :
#
#
# Convention : Reuss Voigt Hill
#
# Bulk Modulus (GPa) = 70.70787 72.93902 71.82345
# Shear Modulus (GPa) = 5.93912 23.42455 14.68183
#
# Velocity S-wave (km/s) = 1.64240 3.26178 2.58231
# Velocity P-wave (km/s) = 5.97591 6.87850 6.44303
#
# Compressibility (1/GPa) = 0.01414270
#
# Stress axis : x y z
#
# Youngs Moduli (GPa) = 86.51841 84.72593 134.98685
#
# Poissons Ratio (x) = 0.38047 0.07692
# Poissons Ratio (y) = 0.38852 0.43909
# Poissons Ratio (z) = 0.04930 0.27560
#
# Static dielectric constant tensor:
#      x y z
#    x 1.581240 0.000000 0.000000 
#    y 0.000000 1.878300 0.000000 
#    z 0.000000 0.000000 1.501410 
# 
# From -- ./inp_files/4138.got.cif
#   From: 2010.05.17/outbox.cif.g08.bks.cpg/sg60_3_cif.got.tgz:4138.got - 2010.06.03 14:59:27.
