data_PCOD9457041
_publ_section_title
;
Structure prediction by ZEFSAII (Michael W. Deem and Ramdas Pophale) SiO2 
 PCOD9457041
Probable space group: P B C N
;
_chemical_formula_sum "Si O2"
_cell_formula_units_Z 24
_cell_length_a 5.102618
_cell_length_b 12.768261
_cell_length_c 17.179986
_cell_angle_alpha 90.000000
_cell_angle_beta 90.000000
_cell_angle_gamma 90.000000
_cell_volume 1119.302861
_symmetry_space_group_name_H-M "P B C N"
_symmetry_group_IT_number 60
_symmetry_cell_setting 'orthorhombic'
loop_
_space_group_symop_operation_xyz
x,y,z
1/2-x,1/2-y,1/2+z
1/2+x,1/2-y,-z
-x,y,1/2-z
-x,-y,-z
1/2+x,1/2+y,1/2-z
1/2-x,1/2+y,z
x,-y,1/2+z
loop_
_atom_site_type_symbol
_atom_site_label
_atom_site_fract_x
_atom_site_fract_y
_atom_site_fract_z
Si Si1 0.088011 0.184032 0.924448
Si Si2 0.629177 0.910991 0.946452
Si Si3 0.091742 0.592193 0.661373
O O1 0.361082 0.151902 0.885209
O O2 0.039419 0.305818 0.939613
O O3 0.858949 0.146469 0.867106
O O4 0.107358 0.124871 0.008243
O O5 0.639023 0.971505 0.864858
O O6 0.500000 0.000000 0.000000
O O7 0.000000 0.597383 0.750000
#
# Coordination Sequence:
#
# PCOD9457041 Si02
#       3
#     8   8   8
#     4  11  23  42  66  94 128 167 219 272 317 377
#     4  10  22  42  67  95 125 169 220 270 316 379
#     4  11  25  42  63  95 133 172 212 262 330 392
#
# _framework density 21.441915999999999
#
# number of rings (size 3 to 8) (size 9 to 14) (size 15 to 20)
#    0.000    1.333    0.000    6.000    0.000   10.667 
#    0.000    0.000    0.000    0.000    0.000    0.000 
#    0.000    0.000    0.000    0.000    0.000    0.000 
#
# Total GULP energy -133973.535324 kJ/mol
# GULP energy per Si atom -5582.230638 kJ/mol
# Density = 2.139311 g / cm^3
# Si number density = 21.441916 Si / 1000 Ang^3
#
#
#
# Elastic Constant Matrix: (Units=GPa)
#
#
# Indices 1 2 3 4 5 6 
#
# 1 731.0573 212.9249 231.9533 0.0000 0.0000 0.0000
# 2 212.9249 238.4063 113.2283 0.0000 0.0000 0.0000
# 3 231.9533 113.2283 192.3364 0.0000 0.0000 0.0000
# 4 0.0000 0.0000 0.0000 35.4783 0.0000 0.0000
# 5 0.0000 0.0000 0.0000 0.0000 37.1673 0.0000
# 6 0.0000 0.0000 0.0000 0.0000 0.0000 33.8330
#
#
#
# Elastic Compliance Matrix: (Units=1/GPa)
#
#
# Indices 1 2 3 4 5 6 
#
# 1 0.002396 -0.001065 -0.002262 0.000000 0.000000 0.000000
# 2 -0.001065 0.006296 -0.002422 0.000000 0.000000 0.000000
# 3 -0.002262 -0.002422 0.009353 0.000000 0.000000 0.000000
# 4 0.000000 0.000000 0.000000 0.028186 0.000000 0.000000
# 5 0.000000 0.000000 0.000000 0.000000 0.026905 0.000000
# 6 0.000000 0.000000 0.000000 0.000000 0.000000 0.029557
#
#
# Mechanical properties :
#
#
# Convention : Reuss Voigt Hill
#
# Bulk Modulus (GPa) = 152.75266 253.11256 202.93261
# Shear Modulus (GPa) = 42.96458 61.54194 52.25326
#
# Velocity S-wave (km/s) = 4.48120 5.36321 4.94192
# Velocity P-wave (km/s) = 9.90806 12.51615 11.28769
#
# Compressibility (1/GPa) = 0.00654653
#
# Stress axis : x y z
#
# Youngs Moduli (GPa) = 417.36445 158.82475 106.91629
#
# Poissons Ratio (x) = 0.16922 0.24187
# Poissons Ratio (y) = 0.44468 0.25892
# Poissons Ratio (z) = 0.94419 0.38462
#
# Static dielectric constant tensor:
#      x y z
#    x 1.794440 0.000000 0.000000 
#    y 0.000000 1.771710 0.000000 
#    z 0.000000 0.000000 1.889280 
# 
# From -- ./inp_files/18298.got.cif
#   From: 2010.05.17/outbox.cif.g08.bks.cpg/sg60_10_cif.got.tgz:18298.got - 2010.06.03 14:59:27.
