data_PCOD9457970
_publ_section_title
;
Structure prediction by ZEFSAII (Michael W. Deem and Ramdas Pophale) SiO2 
 PCOD9457970
Probable space group: P B C N
;
_chemical_formula_sum "Si O2"
_cell_formula_units_Z 20
_cell_length_a 7.166482
_cell_length_b 8.447929
_cell_length_c 11.942458
_cell_angle_alpha 90.000000
_cell_angle_beta 90.000000
_cell_angle_gamma 90.000000
_cell_volume 723.019470
_symmetry_space_group_name_H-M "P B C N"
_symmetry_group_IT_number 60
_symmetry_cell_setting 'orthorhombic'
loop_
_space_group_symop_operation_xyz
x,y,z
1/2-x,1/2-y,1/2+z
1/2+x,1/2-y,-z
-x,y,1/2-z
-x,-y,-z
1/2+x,1/2+y,1/2-z
1/2-x,1/2+y,z
x,-y,1/2+z
loop_
_atom_site_type_symbol
_atom_site_label
_atom_site_fract_x
_atom_site_fract_y
_atom_site_fract_z
Si Si1 0.147901 0.131446 0.541090
Si Si2 0.547734 0.880497 0.134232
Si Si3 0.500000 0.174238 0.250000
O O1 0.158361 0.269021 0.448106
O O2 0.082680 0.215102 0.655413
O O3 0.355426 0.074372 0.571234
O O4 0.000000 0.000000 0.500000
O O5 0.500000 0.788636 0.250000
O O6 0.629476 0.043298 0.185368
#
# Coordination Sequence:
#
# PCOD9457970 Si02
#       3
#     8   8   4
#     4  12  26  47  82 115 153 207 268 317 392 473
#     4  10  27  50  76 112 163 206 257 326 397 464
#     4  10  26  46  74 108 164 194 252 320 398 450
#
# _framework density 27.661770000000001
#
# number of rings (size 3 to 8) (size 9 to 14) (size 15 to 20)
#    1.200    0.000    0.000    3.600    8.400    3.200 
#    0.000    0.000    0.000    0.000    0.000    0.000 
#    0.000    0.000    0.000    0.000    0.000    0.000 
#
# Total GULP energy -112045.789749 kJ/mol
# GULP energy per Si atom -5602.289487 kJ/mol
# Density = 2.759881 g / cm^3
# Si number density = 27.661770 Si / 1000 Ang^3
#
#
#
# Elastic Constant Matrix: (Units=GPa)
#
#
# Indices 1 2 3 4 5 6 
#
# 1 118.6451 69.2037 61.6101 0.0000 0.0000 0.0000
# 2 69.2037 163.4689 97.6984 0.0000 0.0000 0.0000
# 3 61.6101 97.6984 217.6222 0.0000 0.0000 0.0000
# 4 0.0000 0.0000 0.0000 87.5433 0.0000 0.0000
# 5 0.0000 0.0000 0.0000 0.0000 40.9154 0.0000
# 6 0.0000 0.0000 0.0000 0.0000 0.0000 49.0896
#
#
#
# Elastic Compliance Matrix: (Units=1/GPa)
#
#
# Indices 1 2 3 4 5 6 
#
# 1 0.011524 -0.004003 -0.001466 0.000000 0.000000 0.000000
# 2 -0.004003 0.009751 -0.003244 0.000000 0.000000 0.000000
# 3 -0.001466 -0.003244 0.006467 0.000000 0.000000 0.000000
# 4 0.000000 0.000000 0.000000 0.011423 0.000000 0.000000
# 5 0.000000 0.000000 0.000000 0.000000 0.024441 0.000000
# 6 0.000000 0.000000 0.000000 0.000000 0.000000 0.020371
#
#
# Mechanical properties :
#
#
# Convention : Reuss Voigt Hill
#
# Bulk Modulus (GPa) = 96.93391 106.30673 101.62032
# Shear Modulus (GPa) = 47.69144 53.59127 50.64135
#
# Velocity S-wave (km/s) = 4.15672 4.40634 4.28335
# Velocity P-wave (km/s) = 7.62604 8.02509 7.82811
#
# Compressibility (1/GPa) = 0.01031631
#
# Stress axis : x y z
#
# Youngs Moduli (GPa) = 86.77277 102.55410 154.64250
#
# Poissons Ratio (x) = 0.41051 0.22664
# Poissons Ratio (y) = 0.34734 0.50171
# Poissons Ratio (z) = 0.12717 0.33272
#
# Static dielectric constant tensor:
#      x y z
#    x 2.283850 0.000000 0.000000 
#    y 0.000000 2.118980 0.000000 
#    z 0.000000 0.000000 2.233470 
# 
# From -- ./inp_files/9240.got.cif
#   From: 2010.05.17/outbox.cif.g08.bks.cpg/sg60_5_cif.got.tgz:9240.got - 2010.06.03 14:59:27.
