data_PCOD9457691
_publ_section_title
;
Structure prediction by ZEFSAII (Michael W. Deem and Ramdas Pophale) SiO2 
 PCOD9457691
Probable space group: P B C N
;
_chemical_formula_sum "Si O2"
_cell_formula_units_Z 28
_cell_length_a 5.443080
_cell_length_b 7.646937
_cell_length_c 24.430262
_cell_angle_alpha 90.000000
_cell_angle_beta 90.000000
_cell_angle_gamma 90.000000
_cell_volume 1016.858104
_symmetry_space_group_name_H-M "P B C N"
_symmetry_group_IT_number 60
_symmetry_cell_setting 'orthorhombic'
loop_
_space_group_symop_operation_xyz
x,y,z
1/2-x,1/2-y,1/2+z
1/2+x,1/2-y,-z
-x,y,1/2-z
-x,-y,-z
1/2+x,1/2+y,1/2-z
1/2-x,1/2+y,z
x,-y,1/2+z
loop_
_atom_site_type_symbol
_atom_site_label
_atom_site_fract_x
_atom_site_fract_y
_atom_site_fract_z
Si Si1 0.004154 0.520473 0.087795
Si Si2 0.995367 0.872812 0.051552
Si Si3 0.081820 0.745582 0.194461
Si Si4 0.500000 0.594175 0.250000
O O1 0.004711 0.667058 0.039484
O O2 0.257327 0.415412 0.085295
O O3 0.005806 0.636974 0.142412
O O4 0.760449 0.409169 0.081846
O O5 0.000000 0.000000 0.000000
O O6 0.369449 0.732881 0.208126
O O7 0.000000 0.641633 0.250000
O O8 0.968438 0.937402 0.203265
#
# Coordination Sequence:
#
# PCOD9457691 Si02
#       4
#     8   8   8   4
#     4  12  26  44  76 106 143 189 239 294 370 426
#     4  12  26  49  74 107 144 187 243 304 360 427
#     4  10  26  41  68  97 142 181 234 286 347 428
#     4  10  24  42  66  94 144 178 236 284 354 402
#
# _framework density 27.535799999999998
#
# number of rings (size 3 to 8) (size 9 to 14) (size 15 to 20)
#    0.857    0.000    0.000    6.000   10.000    0.000 
#    0.000    0.000    0.000    0.000    0.000    0.000 
#    0.000    0.000    0.000    0.000    0.000    0.000 
#
# Total GULP energy -156269.867245 kJ/mol
# GULP energy per Si atom -5581.066687 kJ/mol
# Density = 2.747313 g / cm^3
# Si number density = 27.535800 Si / 1000 Ang^3
#
#
#
# Elastic Constant Matrix: (Units=GPa)
#
#
# Indices 1 2 3 4 5 6 
#
# 1 165.5531 77.2657 32.0023 0.0000 0.0000 0.0000
# 2 77.2657 141.8873 10.1024 0.0000 0.0000 0.0000
# 3 32.0023 10.1024 78.9731 0.0000 0.0000 0.0000
# 4 0.0000 0.0000 0.0000 44.1987 0.0000 0.0000
# 5 0.0000 0.0000 0.0000 0.0000 34.7845 0.0000
# 6 0.0000 0.0000 0.0000 0.0000 0.0000 57.4755
#
#
#
# Elastic Compliance Matrix: (Units=1/GPa)
#
#
# Indices 1 2 3 4 5 6 
#
# 1 0.008733 -0.004545 -0.002958 0.000000 0.000000 0.000000
# 2 -0.004545 0.009478 0.000629 0.000000 0.000000 0.000000
# 3 -0.002958 0.000629 0.013781 0.000000 0.000000 0.000000
# 4 0.000000 0.000000 0.000000 0.022625 0.000000 0.000000
# 5 0.000000 0.000000 0.000000 0.000000 0.028748 0.000000
# 6 0.000000 0.000000 0.000000 0.000000 0.000000 0.017399
#
#
# Mechanical properties :
#
#
# Convention : Reuss Voigt Hill
#
# Bulk Modulus (GPa) = 54.80889 69.46160 62.13525
# Shear Modulus (GPa) = 41.46176 45.09460 43.27818
#
# Velocity S-wave (km/s) = 3.88460 4.05121 3.96878
# Velocity P-wave (km/s) = 6.32992 6.86758 6.60423
#
# Compressibility (1/GPa) = 0.01824521
#
# Stress axis : x y z
#
# Youngs Moduli (GPa) = 114.50288 105.50547 72.56618
#
# Poissons Ratio (x) = 0.47955 0.21462
# Poissons Ratio (y) = 0.52044 -0.04567
# Poissons Ratio (z) = 0.33865 -0.06641
#
# Static dielectric constant tensor:
#      x y z
#    x 1.402410 0.000000 0.000000 
#    y 0.000000 2.021890 0.000000 
#    z 0.000000 0.000000 2.302530 
# 
# From -- ./inp_files/24687.got.cif
#   From: 2010.05.17/outbox.cif.g08.bks.cpg/sg60_13_cif.got.tgz:24687.got - 2010.06.03 14:59:27.
