data_PCOD9457417
_publ_section_title
;
Structure prediction by ZEFSAII (Michael W. Deem and Ramdas Pophale) SiO2 
 PCOD9457417
Probable space group: P B C N
;
_chemical_formula_sum "Si O2"
_cell_formula_units_Z 60
_cell_length_a 9.458587
_cell_length_b 11.937612
_cell_length_c 24.785008
_cell_angle_alpha 90.000000
_cell_angle_beta 90.000000
_cell_angle_gamma 90.000000
_cell_volume 2798.548163
_symmetry_space_group_name_H-M "P B C N"
_symmetry_group_IT_number 60
_symmetry_cell_setting 'orthorhombic'
loop_
_space_group_symop_operation_xyz
x,y,z
1/2-x,1/2-y,1/2+z
1/2+x,1/2-y,-z
-x,y,1/2-z
-x,-y,-z
1/2+x,1/2+y,1/2-z
1/2-x,1/2+y,z
x,-y,1/2+z
loop_
_atom_site_type_symbol
_atom_site_label
_atom_site_fract_x
_atom_site_fract_y
_atom_site_fract_z
Si Si1 0.019692 0.350086 0.310937
Si Si2 0.475405 0.343069 0.450156
Si Si3 0.989187 0.394617 0.835954
Si Si4 0.343251 0.537710 0.052029
Si Si5 0.654989 0.350456 0.839856
Si Si6 0.521909 0.092351 0.455260
Si Si7 0.150990 0.175470 0.829536
Si Si8 0.500000 0.500449 0.250000
O O1 0.904497 0.275778 0.341947
O O2 0.000000 0.311474 0.250000
O O3 0.991486 0.482261 0.311619
O O4 0.179401 0.325343 0.329295
O O5 0.625910 0.405757 0.445869
O O6 0.393169 0.414884 0.494653
O O7 0.489682 0.218288 0.472535
O O8 0.405997 0.342789 0.390826
O O9 0.049164 0.417603 0.896735
O O10 0.086766 0.296387 0.812141
O O11 0.826250 0.351853 0.836559
O O12 0.408022 0.590595 0.106209
O O13 0.184530 0.574991 0.057480
O O14 0.595010 0.421969 0.789308
O O15 0.500000 0.000000 0.500000
O O16 0.093515 0.080270 0.788823
#
# Coordination Sequence:
#
# PCOD9457417 Si02
#       8
#     8   8   8   8   8   8   8   4
#     4  12  28  45  71 107 138 183 238 287 350 423
#     4  10  23  44  65 103 132 180 227 286 348 417
#     4  10  27  46  69 101 140 181 234 283 346 421
#     4  10  23  42  70  94 137 178 230 279 347 415
#     4  11  25  45  70 102 137 187 232 287 349 413
#     4  10  24  41  66 100 132 177 224 284 344 411
#     4  11  27  45  71 100 141 182 231 291 350 412
#     4  12  24  44  74  94 140 186 232 286 348 412
#
# _framework density 21.439688
#
# number of rings (size 3 to 8) (size 9 to 14) (size 15 to 20)
#    0.000    1.333    2.000    0.800   12.133    2.133 
#    4.800    0.000    0.000    0.000    0.000    0.000 
#    0.000    0.000    0.000    0.000    0.000    0.000 
#
# Total GULP energy -334836.261520 kJ/mol
# GULP energy per Si atom -5580.604359 kJ/mol
# Density = 2.139089 g / cm^3
# Si number density = 21.439688 Si / 1000 Ang^3
#
#
#
# Elastic Constant Matrix: (Units=GPa)
#
#
# Indices 1 2 3 4 5 6 
#
# 1 93.3249 43.6431 4.1373 0.0000 0.0000 0.0000
# 2 43.6431 138.9735 36.2060 0.0000 0.0000 0.0000
# 3 4.1373 36.2060 88.3056 0.0000 0.0000 0.0000
# 4 0.0000 0.0000 0.0000 11.9467 0.0000 0.0000
# 5 0.0000 0.0000 0.0000 0.0000 29.8420 0.0000
# 6 0.0000 0.0000 0.0000 0.0000 0.0000 210.1876
#
#
#
# Elastic Compliance Matrix: (Units=1/GPa)
#
#
# Indices 1 2 3 4 5 6 
#
# 1 0.012665 -0.004280 0.001161 0.000000 0.000000 0.000000
# 2 -0.004280 0.009502 -0.003696 0.000000 0.000000 0.000000
# 3 0.001161 -0.003696 0.012785 0.000000 0.000000 0.000000
# 4 0.000000 0.000000 0.000000 0.083705 0.000000 0.000000
# 5 0.000000 0.000000 0.000000 0.000000 0.033510 0.000000
# 6 0.000000 0.000000 0.000000 0.000000 0.000000 0.004758
#
#
# Mechanical properties :
#
#
# Convention : Reuss Voigt Hill
#
# Bulk Modulus (GPa) = 46.89410 54.28631 50.59021
# Shear Modulus (GPa) = 28.14337 66.16979 47.15658
#
# Velocity S-wave (km/s) = 3.62702 5.56149 4.69497
# Velocity P-wave (km/s) = 6.28175 8.16185 7.28272
#
# Compressibility (1/GPa) = 0.02132464
#
# Stress axis : x y z
#
# Youngs Moduli (GPa) = 78.95602 105.23574 78.21605
#
# Poissons Ratio (x) = 0.45041 -0.09084
# Poissons Ratio (y) = 0.33793 0.28905
# Poissons Ratio (z) = -0.09170 0.38891
#
# Static dielectric constant tensor:
#      x y z
#    x 1.751030 0.000000 0.000000 
#    y 0.000000 1.789820 0.000000 
#    z 0.000000 0.000000 1.887490 
# 
# From -- ./inp_files/25220.got.cif
#   From: 2010.05.17/outbox.cif.g08.bks.cpg/sg60_13_cif.got.tgz:25220.got - 2010.06.03 14:59:27.
