data_PCOD9457531
_publ_section_title
;
Structure prediction by ZEFSAII (Michael W. Deem and Ramdas Pophale) SiO2 
 PCOD9457531
Probable space group: P B C N
;
_chemical_formula_sum "Si O2"
_cell_formula_units_Z 36
_cell_length_a 14.631692
_cell_length_b 11.936624
_cell_length_c 10.067027
_cell_angle_alpha 90.000000
_cell_angle_beta 90.000000
_cell_angle_gamma 90.000000
_cell_volume 1758.236526
_symmetry_space_group_name_H-M "P B C N"
_symmetry_group_IT_number 60
_symmetry_cell_setting 'orthorhombic'
loop_
_space_group_symop_operation_xyz
x,y,z
1/2-x,1/2-y,1/2+z
1/2+x,1/2-y,-z
-x,y,1/2-z
-x,-y,-z
1/2+x,1/2+y,1/2-z
1/2-x,1/2+y,z
x,-y,1/2+z
loop_
_atom_site_type_symbol
_atom_site_label
_atom_site_fract_x
_atom_site_fract_y
_atom_site_fract_z
Si Si1 0.833865 0.047641 0.146010
Si Si2 0.214963 0.454554 0.589581
Si Si3 0.913528 0.244292 0.979183
Si Si4 0.958666 0.411733 0.395203
Si Si5 0.000000 0.905016 0.250000
O O1 0.927356 0.982549 0.175154
O O2 0.777496 0.059950 0.281627
O O3 0.774911 0.977736 0.040035
O O4 0.858343 0.166055 0.079999
O O5 0.150163 0.347040 0.567616
O O6 0.148481 0.562352 0.608867
O O7 0.945806 0.171746 0.854304
O O8 0.003421 0.293939 0.052283
O O9 0.000000 0.432556 0.250000
O O10 0.000000 0.500000 0.500000
#
# Coordination Sequence:
#
# PCOD9457531 Si02
#       5
#     8   8   8   8   4
#     4  12  27  50  67 108 146 184 241 293 358 423
#     4  11  26  45  76 107 142 181 248 299 336 429
#     4  11  27  43  78 100 146 195 228 290 368 418
#     4  10  23  44  71 109 143 181 232 294 355 421
#     4  12  28  50  68 104 146 198 228 298 360 434
#
# _framework density 20.475061
#
# number of rings (size 3 to 8) (size 9 to 14) (size 15 to 20)
#    0.000    0.889    2.222    3.333   14.000    1.778 
#    0.000    0.000    0.000    0.000    0.000    0.000 
#    0.000    0.000    0.000    0.000    0.000    0.000 
#
# Total GULP energy -201416.939449 kJ/mol
# GULP energy per Si atom -5594.914985 kJ/mol
# Density = 2.042846 g / cm^3
# Si number density = 20.475061 Si / 1000 Ang^3
#
#
#
# Elastic Constant Matrix: (Units=GPa)
#
#
# Indices 1 2 3 4 5 6 
#
# 1 105.6001 36.9085 29.5162 0.0000 0.0000 0.0000
# 2 36.9085 76.7100 31.0816 0.0000 0.0000 0.0000
# 3 29.5162 31.0816 111.6978 0.0000 0.0000 0.0000
# 4 0.0000 0.0000 0.0000 152.3692 0.0000 0.0000
# 5 0.0000 0.0000 0.0000 0.0000 22.5137 0.0000
# 6 0.0000 0.0000 0.0000 0.0000 0.0000 49.4185
#
#
#
# Elastic Compliance Matrix: (Units=1/GPa)
#
#
# Indices 1 2 3 4 5 6 
#
# 1 0.011668 -0.004919 -0.001714 0.000000 0.000000 0.000000
# 2 -0.004919 0.016767 -0.003366 0.000000 0.000000 0.000000
# 3 -0.001714 -0.003366 0.010342 0.000000 0.000000 0.000000
# 4 0.000000 0.000000 0.000000 0.006563 0.000000 0.000000
# 5 0.000000 0.000000 0.000000 0.000000 0.044417 0.000000
# 6 0.000000 0.000000 0.000000 0.000000 0.000000 0.020235
#
#
# Mechanical properties :
#
#
# Convention : Reuss Voigt Hill
#
# Bulk Modulus (GPa) = 53.25294 54.33560 53.79427
# Shear Modulus (GPa) = 36.69679 57.96037 47.32858
#
# Velocity S-wave (km/s) = 4.23811 5.32628 4.81305
# Velocity P-wave (km/s) = 7.07205 8.02625 7.56421
#
# Compressibility (1/GPa) = 0.01877831
#
# Stress axis : x y z
#
# Youngs Moduli (GPa) = 85.70227 59.64176 96.69015
#
# Poissons Ratio (x) = 0.29341 0.16577
# Poissons Ratio (y) = 0.42161 0.32542
# Poissons Ratio (z) = 0.14693 0.20073
#
# Static dielectric constant tensor:
#      x y z
#    x 1.729020 0.000000 0.000000 
#    y 0.000000 1.737230 0.000000 
#    z 0.000000 0.000000 1.683240 
# 
# From -- ./inp_files/11638.got.cif
#   From: 2010.05.17/outbox.cif.g08.bks.cpg/sg60_6_cif.got.tgz:11638.got - 2010.06.03 14:59:27.
