data_PCOD9457268
_publ_section_title
;
Structure prediction by ZEFSAII (Michael W. Deem and Ramdas Pophale) SiO2 
 PCOD9457268
Probable space group: P B C N
;
_chemical_formula_sum "Si O2"
_cell_formula_units_Z 40
_cell_length_a 13.845275
_cell_length_b 9.542930
_cell_length_c 13.717138
_cell_angle_alpha 90.000000
_cell_angle_beta 90.000000
_cell_angle_gamma 90.000000
_cell_volume 1812.369865
_symmetry_space_group_name_H-M "P B C N"
_symmetry_group_IT_number 60
_symmetry_cell_setting 'orthorhombic'
loop_
_space_group_symop_operation_xyz
x,y,z
1/2-x,1/2-y,1/2+z
1/2+x,1/2-y,-z
-x,y,1/2-z
-x,-y,-z
1/2+x,1/2+y,1/2-z
1/2-x,1/2+y,z
x,-y,1/2+z
loop_
_atom_site_type_symbol
_atom_site_label
_atom_site_fract_x
_atom_site_fract_y
_atom_site_fract_z
Si Si1 0.212937 0.446363 0.320181
Si Si2 0.992138 0.833621 0.980400
Si Si3 0.152144 0.368057 0.106783
Si Si4 0.288926 0.316110 0.926702
Si Si5 0.486933 0.094919 0.362273
O O1 0.200727 0.386625 0.212209
O O2 0.253955 0.330884 0.392987
O O3 0.278248 0.581282 0.334767
O O4 0.108530 0.499307 0.358041
O O5 0.099070 0.795702 0.945434
O O6 0.910428 0.774772 0.906325
O O7 0.975298 0.732987 0.073551
O O8 0.000000 0.000000 0.000000
O O9 0.075441 0.497242 0.101195
O O10 0.231948 0.370680 0.021467
O O11 0.500000 0.136532 0.250000
#
# Coordination Sequence:
#
# PCOD9457268 Si02
#       5
#     8   8   8   8   8
#     4  11  25  45  73 105 144 197 246 303 378 451
#     4  12  25  44  71 107 148 190 245 319 376 436
#     4  11  24  48  74 101 146 198 245 308 377 454
#     4  12  25  43  71 105 145 187 252 306 371 455
#     4  10  22  47  75  97 140 206 244 289 384 460
#
# _framework density 22.070550000000001
#
# number of rings (size 3 to 8) (size 9 to 14) (size 15 to 20)
#    0.000    0.800    4.000    3.000    0.000    6.400 
#    3.600    0.000    0.000    0.000    0.000    0.000 
#    0.000    0.000    0.000    0.000    0.000    0.000 
#
# Total GULP energy -223564.408970 kJ/mol
# GULP energy per Si atom -5589.110224 kJ/mol
# Density = 2.202032 g / cm^3
# Si number density = 22.070550 Si / 1000 Ang^3
#
#
#
# Elastic Constant Matrix: (Units=GPa)
#
#
# Indices 1 2 3 4 5 6 
#
# 1 52.4659 6.9384 63.7481 0.0000 0.0000 0.0000
# 2 6.9384 138.9269 62.7948 0.0000 0.0000 0.0000
# 3 63.7481 62.7948 131.6129 0.0000 0.0000 0.0000
# 4 0.0000 0.0000 0.0000 -8.4620 0.0000 0.0000
# 5 0.0000 0.0000 0.0000 0.0000 33.1106 0.0000
# 6 0.0000 0.0000 0.0000 0.0000 0.0000 31.3745
#
#
#
# Elastic Compliance Matrix: (Units=1/GPa)
#
#
# Indices 1 2 3 4 5 6 
#
# 1 0.060493 0.013033 -0.035519 0.000000 0.000000 0.000000
# 2 0.013033 0.011985 -0.012031 0.000000 0.000000 0.000000
# 3 -0.035519 -0.012031 0.030542 0.000000 0.000000 0.000000
# 4 0.000000 0.000000 0.000000 -0.118176 0.000000 0.000000
# 5 0.000000 0.000000 0.000000 0.000000 0.030202 0.000000
# 6 0.000000 0.000000 0.000000 0.000000 0.000000 0.031873
#
#
# Mechanical properties :
#
#
# Convention : Reuss Voigt Hill
#
# Bulk Modulus (GPa) = 29.42285 65.55202 47.48744
# Shear Modulus (GPa) = 39.28254 23.83959 31.56107
#
# Velocity S-wave (km/s) = 4.22342 3.29014 3.78565
# Velocity P-wave (km/s) = 6.09452 6.64823 6.37739
#
# Compressibility (1/GPa) = 0.03398719
#
# Stress axis : x y z
#
# Youngs Moduli (GPa) = 16.53073 83.43630 32.74142
#
# Poissons Ratio (x) = -1.08746 1.16294
# Poissons Ratio (y) = -0.21545 0.39392
# Poissons Ratio (z) = 0.58716 1.00384
#
# Static dielectric constant tensor:
#      x y z
#    x 1.830650 0.000000 0.000000 
#    y 0.000000 1.812270 0.000000 
#    z 0.000000 0.000000 1.817000 
# 
# From -- ./inp_files/16608.got.cif
#   From: 2010.05.17/outbox.cif.g08.bks.cpg/sg60_9_cif.got.tgz:16608.got - 2010.06.03 14:59:27.
