data_PCOD9457342
_publ_section_title
;
Structure prediction by ZEFSAII (Michael W. Deem and Ramdas Pophale) SiO2 
 PCOD9457342
Probable space group: P B C N
;
_chemical_formula_sum "Si O2"
_cell_formula_units_Z 24
_cell_length_a 11.543702
_cell_length_b 14.445011
_cell_length_c 5.307525
_cell_angle_alpha 90.000000
_cell_angle_beta 90.000000
_cell_angle_gamma 90.000000
_cell_volume 885.023968
_symmetry_space_group_name_H-M "P B C N"
_symmetry_group_IT_number 60
_symmetry_cell_setting 'orthorhombic'
loop_
_space_group_symop_operation_xyz
x,y,z
1/2-x,1/2-y,1/2+z
1/2+x,1/2-y,-z
-x,y,1/2-z
-x,-y,-z
1/2+x,1/2+y,1/2-z
1/2-x,1/2+y,z
x,-y,1/2+z
loop_
_atom_site_type_symbol
_atom_site_label
_atom_site_fract_x
_atom_site_fract_y
_atom_site_fract_z
Si Si1 0.676723 0.253195 0.280793
Si Si2 0.076825 0.908637 0.541299
Si Si3 0.154697 0.554310 0.137523
O O1 0.759826 0.274636 0.517244
O O2 0.613275 0.160301 0.369511
O O3 0.610291 0.344767 0.195524
O O4 0.203820 0.937545 0.640982
O O5 0.000000 0.854129 0.750000
O O6 0.000000 0.000000 0.500000
O O7 0.121624 0.501029 0.388894
#
# Coordination Sequence:
#
# PCOD9457342 Si02
#       3
#     8   8   8
#     4  10  23  41  58  90 138 180 216 267 338 408
#     4  11  22  37  65 102 136 169 222 292 339 375
#     4  11  21  38  63  90 129 178 216 260 330 407
#
# _framework density 27.117909999999998
#
# number of rings (size 3 to 8) (size 9 to 14) (size 15 to 20)
#    0.000    1.333    3.333    4.000    0.000    0.000 
#    0.000    0.000    0.000    2.000    0.000    0.000 
#    0.000    0.000    0.000    0.000    0.000    0.000 
#
# Total GULP energy -134499.025815 kJ/mol
# GULP energy per Si atom -5604.126076 kJ/mol
# Density = 2.705619 g / cm^3
# Si number density = 27.117910 Si / 1000 Ang^3
#
#
#
# Elastic Constant Matrix: (Units=GPa)
#
#
# Indices 1 2 3 4 5 6 
#
# 1 113.1200 -0.7690 -3.2975 0.0000 0.0000 0.0000
# 2 -0.7690 214.7636 46.2709 0.0000 0.0000 0.0000
# 3 -3.2975 46.2709 171.7499 0.0000 0.0000 0.0000
# 4 0.0000 0.0000 0.0000 119.4694 0.0000 0.0000
# 5 0.0000 0.0000 0.0000 0.0000 49.7194 0.0000
# 6 0.0000 0.0000 0.0000 0.0000 0.0000 25.7460
#
#
#
# Elastic Compliance Matrix: (Units=1/GPa)
#
#
# Indices 1 2 3 4 5 6 
#
# 1 0.008845 -0.000005 0.000171 0.000000 0.000000 0.000000
# 2 -0.000005 0.004943 -0.001332 0.000000 0.000000 0.000000
# 3 0.000171 -0.001332 0.006185 0.000000 0.000000 0.000000
# 4 0.000000 0.000000 0.000000 0.008370 0.000000 0.000000
# 5 0.000000 0.000000 0.000000 0.000000 0.020113 0.000000
# 6 0.000000 0.000000 0.000000 0.000000 0.000000 0.038841
#
#
# Mechanical properties :
#
#
# Convention : Reuss Voigt Hill
#
# Bulk Modulus (GPa) = 56.68555 64.89360 60.78957
# Shear Modulus (GPa) = 52.35102 69.48224 60.91663
#
# Velocity S-wave (km/s) = 4.39851 5.06734 4.74472
# Velocity P-wave (km/s) = 6.83700 7.63016 7.24444
#
# Compressibility (1/GPa) = 0.01764118
#
# Stress axis : x y z
#
# Youngs Moduli (GPa) = 113.05660 202.29769 161.69405
#
# Poissons Ratio (x) = 0.00106 -0.02769
# Poissons Ratio (y) = 0.00059 0.21535
# Poissons Ratio (z) = -0.01936 0.26943
#
# Static dielectric constant tensor:
#      x y z
#    x 2.236030 0.000000 0.000000 
#    y 0.000000 2.088980 0.000000 
#    z 0.000000 0.000000 2.261590 
# 
# From -- ./inp_files/996.got.cif
#   From: 2010.05.17/outbox.cif.g08.bks.cpg/sg60_1_cif.got.tgz:996.got - 2010.06.03 14:59:27.
