data_PCOD9457009
_publ_section_title
;
Structure prediction by ZEFSAII (Michael W. Deem and Ramdas Pophale) SiO2 
 PCOD9457009
Probable space group: P B C N
;
_chemical_formula_sum "Si O2"
_cell_formula_units_Z 48
_cell_length_a 27.966450
_cell_length_b 5.302440
_cell_length_c 14.567446
_cell_angle_alpha 90.000000
_cell_angle_beta 90.000000
_cell_angle_gamma 90.000000
_cell_volume 2160.212731
_symmetry_space_group_name_H-M "P B C N"
_symmetry_group_IT_number 60
_symmetry_cell_setting 'orthorhombic'
loop_
_space_group_symop_operation_xyz
x,y,z
1/2-x,1/2-y,1/2+z
1/2+x,1/2-y,-z
-x,y,1/2-z
-x,-y,-z
1/2+x,1/2+y,1/2-z
1/2-x,1/2+y,z
x,-y,1/2+z
loop_
_atom_site_type_symbol
_atom_site_label
_atom_site_fract_x
_atom_site_fract_y
_atom_site_fract_z
Si Si1 0.933663 0.532939 0.666286
Si Si2 0.458552 0.042562 0.617381
Si Si3 0.676853 0.531780 0.290261
Si Si4 0.094976 0.050325 0.575746
Si Si5 0.875893 0.031070 0.618066
Si Si6 0.261954 0.158554 0.597016
O O1 0.943387 0.523381 0.775393
O O2 0.898229 0.306293 0.638248
O O3 0.984654 0.504418 0.616361
O O4 0.912840 0.808653 0.644868
O O5 0.432045 0.814428 0.566487
O O6 0.441555 0.316298 0.582916
O O7 0.627323 0.440302 0.333612
O O8 0.669361 0.526550 0.182379
O O9 0.721384 0.365481 0.323379
O O10 0.689546 0.788324 0.347025
O O11 0.130076 0.998223 0.490537
O O12 0.244821 0.403343 0.542811
#
# Coordination Sequence:
#
# PCOD9457009 Si02
#       6
#     8   8   8   8   8   8
#     4  11  23  42  63  89 125 169 208 251 302 356
#     4  11  23  42  63  89 125 169 208 251 302 356
#     4  10  22  42  63  88 126 152 209 244 308 374
#     4  12  25  39  65  93 125 163 203 257 303 359
#     4  12  25  39  65  93 125 163 203 257 303 359
#     4   8  20  36  66  82 114 162 188 244 314 356
#
# _framework density 22.220034999999999
#
# number of rings (size 3 to 8) (size 9 to 14) (size 15 to 20)
#    1.000    0.333    3.333    2.000    4.667    6.667 
#    0.000    1.667    0.000    0.000    0.000    0.000 
#    0.000    0.000    0.000    0.000    0.000    0.000 
#
# Total GULP energy -267807.944033 kJ/mol
# GULP energy per Si atom -5579.332167 kJ/mol
# Density = 2.216946 g / cm^3
# Si number density = 22.220035 Si / 1000 Ang^3
#
#
#
# Elastic Constant Matrix: (Units=GPa)
#
#
# Indices 1 2 3 4 5 6 
#
# 1 36.6431 1.9594 -11.1303 0.0000 0.0000 0.0000
# 2 1.9594 90.9742 0.5816 0.0000 0.0000 0.0000
# 3 -11.1303 0.5816 67.7566 0.0000 0.0000 0.0000
# 4 0.0000 0.0000 0.0000 14.6399 0.0000 0.0000
# 5 0.0000 0.0000 0.0000 0.0000 0.2338 0.0000
# 6 0.0000 0.0000 0.0000 0.0000 0.0000 29.2505
#
#
#
# Elastic Compliance Matrix: (Units=1/GPa)
#
#
# Indices 1 2 3 4 5 6 
#
# 1 0.028762 -0.000650 0.004730 0.000000 0.000000 0.000000
# 2 -0.000650 0.011007 -0.000201 0.000000 0.000000 0.000000
# 3 0.004730 -0.000201 0.015537 0.000000 0.000000 0.000000
# 4 0.000000 0.000000 0.000000 0.068306 0.000000 0.000000
# 5 0.000000 0.000000 0.000000 0.000000 4.277001 0.000000
# 6 0.000000 0.000000 0.000000 0.000000 0.000000 0.034187
#
#
# Mechanical properties :
#
#
# Convention : Reuss Voigt Hill
#
# Bulk Modulus (GPa) = 15.85656 19.79946 17.82801
# Shear Modulus (GPa) = 1.12408 22.42239 11.77324
#
# Velocity S-wave (km/s) = 0.71203 3.18009 2.30434
# Velocity P-wave (km/s) = 2.79779 4.73434 3.88855
#
# Compressibility (1/GPa) = 0.06306538
#
# Stress axis : x y z
#
# Youngs Moduli (GPa) = 34.76830 90.84788 64.36056
#
# Poissons Ratio (x) = 0.05903 -0.30444
# Poissons Ratio (y) = 0.02259 0.01295
# Poissons Ratio (z) = -0.16446 0.01828
#
# Static dielectric constant tensor:
#      x y z
#    x 1.939500 0.000000 0.000000 
#    y 0.000000 1.888370 0.000000 
#    z 0.000000 0.000000 1.814950 
# 
# From -- ./inp_files/18134.got.cif
#   From: 2010.05.17/outbox.cif.g08.bks.cpg/sg60_10_cif.got.tgz:18134.got - 2010.06.03 14:59:27.
