data_PCOD9457802
_publ_section_title
;
Structure prediction by ZEFSAII (Michael W. Deem and Ramdas Pophale) SiO2 
 PCOD9457802
Probable space group: P B C N
;
_chemical_formula_sum "Si O2"
_cell_formula_units_Z 56
_cell_length_a 21.319217
_cell_length_b 14.289473
_cell_length_c 8.373085
_cell_angle_alpha 90.000000
_cell_angle_beta 90.000000
_cell_angle_gamma 90.000000
_cell_volume 2550.779760
_symmetry_space_group_name_H-M "P B C N"
_symmetry_group_IT_number 60
_symmetry_cell_setting 'orthorhombic'
loop_
_space_group_symop_operation_xyz
x,y,z
1/2-x,1/2-y,1/2+z
1/2+x,1/2-y,-z
-x,y,1/2-z
-x,-y,-z
1/2+x,1/2+y,1/2-z
1/2-x,1/2+y,z
x,-y,1/2+z
loop_
_atom_site_type_symbol
_atom_site_label
_atom_site_fract_x
_atom_site_fract_y
_atom_site_fract_z
Si Si1 0.000000 0.464232 0.250000
Si Si2 0.701397 0.079163 0.396230
Si Si3 0.292399 0.458188 0.908412
Si Si4 0.500000 0.544250 0.750000
Si Si5 0.210950 0.215221 0.647697
Si Si6 0.592689 0.065225 0.000691
Si Si7 0.587909 0.570555 0.492563
Si Si8 0.337578 0.745217 0.997741
O O1 0.956266 0.405598 0.365171
O O2 0.048843 0.523226 0.359545
O O3 0.748941 0.073971 0.241655
O O4 0.682124 0.186855 0.415264
O O5 0.748315 0.040902 0.528339
O O6 0.641533 0.010070 0.421716
O O7 0.361746 0.503924 0.915258
O O8 0.300057 0.374087 0.035770
O O9 0.540721 0.604214 0.629477
O O10 0.453168 0.482618 0.639943
O O11 0.190211 0.207111 0.830243
O O12 0.285065 0.229650 0.626436
O O13 0.629464 0.157694 0.049262
O O14 0.621765 0.662153 0.428204
#
# Coordination Sequence:
#
# PCOD9457802 Si02
#       8
#     4   8   8   4   8   8   8   8
#     4  10  24  46  70  94 136 188 240 278 336 402
#     4  12  23  41  67 100 138 176 216 282 350 412
#     4  12  24  41  69  99 137 175 219 280 351 409
#     4  10  24  46  66  88 130 182 232 272 334 384
#     4  12  24  41  62 106 138 177 212 277 355 421
#     4  11  24  46  70 101 137 185 231 286 341 410
#     4  11  24  44  67  96 131 178 225 281 328 405
#     4  12  25  41  67 100 140 176 226 277 346 413
#
# _framework density 21.954073000000001
#
# number of rings (size 3 to 8) (size 9 to 14) (size 15 to 20)
#    0.000    0.571    4.286    4.286    0.000    2.286 
#    0.000    5.714    0.000    0.000    0.000    0.000 
#    0.000    0.000    0.000    0.000    0.000    0.000 
#
# Total GULP energy -312354.190797 kJ/mol
# GULP energy per Si atom -5577.753407 kJ/mol
# Density = 2.190410 g / cm^3
# Si number density = 21.954073 Si / 1000 Ang^3
#
#
#
# Elastic Constant Matrix: (Units=GPa)
#
#
# Indices 1 2 3 4 5 6 
#
# 1 115.7738 27.2377 27.7541 0.0000 0.0000 0.0000
# 2 27.2377 105.3035 6.7081 0.0000 0.0000 0.0000
# 3 27.7541 6.7081 51.9385 0.0000 0.0000 0.0000
# 4 0.0000 0.0000 0.0000 20.3799 0.0000 0.0000
# 5 0.0000 0.0000 0.0000 0.0000 44.9196 0.0000
# 6 0.0000 0.0000 0.0000 0.0000 0.0000 9.2494
#
#
#
# Elastic Compliance Matrix: (Units=1/GPa)
#
#
# Indices 1 2 3 4 5 6 
#
# 1 0.010462 -0.002369 -0.005284 0.000000 0.000000 0.000000
# 2 -0.002369 0.010112 -0.000040 0.000000 0.000000 0.000000
# 3 -0.005284 -0.000040 0.022082 0.000000 0.000000 0.000000
# 4 0.000000 0.000000 0.000000 0.049068 0.000000 0.000000
# 5 0.000000 0.000000 0.000000 0.000000 0.022262 0.000000
# 6 0.000000 0.000000 0.000000 0.000000 0.000000 0.108115
#
#
# Mechanical properties :
#
#
# Convention : Reuss Voigt Hill
#
# Bulk Modulus (GPa) = 36.67203 44.04617 40.35910
# Shear Modulus (GPa) = 20.27756 28.99749 24.63752
#
# Velocity S-wave (km/s) = 3.04243 3.63826 3.35360
# Velocity P-wave (km/s) = 5.39278 6.14456 5.78091
#
# Compressibility (1/GPa) = 0.02726874
#
# Stress axis : x y z
#
# Youngs Moduli (GPa) = 95.58592 98.89461 45.28478
#
# Poissons Ratio (x) = 0.23432 0.23930
# Poissons Ratio (y) = 0.22648 0.00180
# Poissons Ratio (z) = 0.50511 0.00394
#
# Static dielectric constant tensor:
#      x y z
#    x 1.887180 0.000000 0.000000 
#    y 0.000000 1.786110 0.000000 
#    z 0.000000 0.000000 1.885040 
# 
# From -- ./inp_files/7454.got.cif
#   From: 2010.05.17/outbox.cif.g08.bks.cpg/sg60_4_cif.got.tgz:7454.got - 2010.06.03 14:59:27.
