data_PCOD9457827
_publ_section_title
;
Structure prediction by ZEFSAII (Michael W. Deem and Ramdas Pophale) SiO2 
 PCOD9457827
Probable space group: P B C N
;
_chemical_formula_sum "Si O2"
_cell_formula_units_Z 28
_cell_length_a 5.453016
_cell_length_b 24.822933
_cell_length_c 8.924177
_cell_angle_alpha 90.000000
_cell_angle_beta 90.000000
_cell_angle_gamma 90.000000
_cell_volume 1207.975267
_symmetry_space_group_name_H-M "P B C N"
_symmetry_group_IT_number 60
_symmetry_cell_setting 'orthorhombic'
loop_
_space_group_symop_operation_xyz
x,y,z
1/2-x,1/2-y,1/2+z
1/2+x,1/2-y,-z
-x,y,1/2-z
-x,-y,-z
1/2+x,1/2+y,1/2-z
1/2-x,1/2+y,z
x,-y,1/2+z
loop_
_atom_site_type_symbol
_atom_site_label
_atom_site_fract_x
_atom_site_fract_y
_atom_site_fract_z
Si Si1 0.251843 0.226886 0.348028
Si Si2 0.500000 0.997693 0.250000
Si Si3 0.474928 0.663129 0.925278
Si Si4 0.191787 0.048756 0.994074
O O1 0.500000 0.217196 0.250000
O O2 0.287760 0.286450 0.418243
O O3 0.000000 0.223979 0.250000
O O4 0.209968 0.186580 0.486920
O O5 0.617127 0.035143 0.375861
O O6 0.688384 0.958840 0.167735
O O7 0.500000 0.649578 0.750000
O O8 0.402984 0.608843 0.009563
O O9 0.000000 0.000000 0.000000
#
# Coordination Sequence:
#
# PCOD9457827 Si02
#       4
#     8   4   8   8
#     4  11  26  50  74 115 157 202 259 323 390 459
#     4  10  24  46  72 110 144 192 254 308 390 444
#     4  11  24  47  77 107 152 199 258 315 387 459
#     4  11  24  48  74 108 148 196 250 313 381 457
#
# _framework density 23.179281
#
# number of rings (size 3 to 8) (size 9 to 14) (size 15 to 20)
#    0.000    1.143    0.000    6.000    2.000    2.286 
#   38.571    0.000    0.000    0.000    0.000    0.000 
#    0.000    0.000    0.000    0.000    0.000    0.000 
#
# Total GULP energy -156596.560696 kJ/mol
# GULP energy per Si atom -5592.734311 kJ/mol
# Density = 2.312652 g / cm^3
# Si number density = 23.179281 Si / 1000 Ang^3
#
#
#
# Elastic Constant Matrix: (Units=GPa)
#
#
# Indices 1 2 3 4 5 6 
#
# 1 124.2632 50.5468 50.0836 0.0000 0.0000 0.0000
# 2 50.5468 159.2385 36.7553 0.0000 0.0000 0.0000
# 3 50.0836 36.7553 97.6316 0.0000 0.0000 0.0000
# 4 0.0000 0.0000 0.0000 11.8201 0.0000 0.0000
# 5 0.0000 0.0000 0.0000 0.0000 49.0332 0.0000
# 6 0.0000 0.0000 0.0000 0.0000 0.0000 32.1899
#
#
#
# Elastic Compliance Matrix: (Units=1/GPa)
#
#
# Indices 1 2 3 4 5 6 
#
# 1 0.010909 -0.002378 -0.004701 0.000000 0.000000 0.000000
# 2 -0.002378 0.007396 -0.001564 0.000000 0.000000 0.000000
# 3 -0.004701 -0.001564 0.013243 0.000000 0.000000 0.000000
# 4 0.000000 0.000000 0.000000 0.084602 0.000000 0.000000
# 5 0.000000 0.000000 0.000000 0.000000 0.020394 0.000000
# 6 0.000000 0.000000 0.000000 0.000000 0.000000 0.031066
#
#
# Mechanical properties :
#
#
# Convention : Reuss Voigt Hill
#
# Bulk Modulus (GPa) = 70.11938 72.87830 71.49884
# Shear Modulus (GPa) = 26.36417 34.85847 30.61132
#
# Velocity S-wave (km/s) = 3.37620 3.88217 3.63799
# Velocity P-wave (km/s) = 6.74647 7.18362 6.96848
#
# Compressibility (1/GPa) = 0.01426139
#
# Stress axis : x y z
#
# Youngs Moduli (GPa) = 91.66346 135.21196 75.51025
#
# Poissons Ratio (x) = 0.32151 0.35499
# Poissons Ratio (y) = 0.21796 0.11814
# Poissons Ratio (z) = 0.43093 0.21154
#
# Static dielectric constant tensor:
#      x y z
#    x 1.935960 0.000000 0.000000 
#    y 0.000000 1.870670 0.000000 
#    z 0.000000 0.000000 1.908280 
# 
# From -- ./inp_files/2984.got.cif
#   From: 2010.05.17/outbox.cif.g08.bks.cpg/sg60_2_cif.got.tgz:2984.got - 2010.06.03 14:59:27.
