data_PCOD9457673
_publ_section_title
;
Structure prediction by ZEFSAII (Michael W. Deem and Ramdas Pophale) SiO2 
 PCOD9457673
Probable space group: P B C N
;
_chemical_formula_sum "Si O2"
_cell_formula_units_Z 40
_cell_length_a 4.902032
_cell_length_b 25.814590
_cell_length_c 12.572962
_cell_angle_alpha 90.000000
_cell_angle_beta 90.000000
_cell_angle_gamma 90.000000
_cell_volume 1591.032227
_symmetry_space_group_name_H-M "P B C N"
_symmetry_group_IT_number 60
_symmetry_cell_setting 'orthorhombic'
loop_
_space_group_symop_operation_xyz
x,y,z
1/2-x,1/2-y,1/2+z
1/2+x,1/2-y,-z
-x,y,1/2-z
-x,-y,-z
1/2+x,1/2+y,1/2-z
1/2-x,1/2+y,z
x,-y,1/2+z
loop_
_atom_site_type_symbol
_atom_site_label
_atom_site_fract_x
_atom_site_fract_y
_atom_site_fract_z
Si Si1 0.748440 0.566674 0.975239
Si Si2 0.611491 0.282664 0.011755
Si Si3 0.745493 0.653619 0.819626
Si Si4 0.346822 0.976683 0.651414
Si Si5 0.613753 0.629863 0.356907
O O1 0.869160 0.609195 0.895364
O O2 0.645621 0.518909 0.901420
O O3 0.556709 0.599987 0.051538
O O4 0.961222 0.542363 0.056457
O O5 0.432267 0.306890 0.107862
O O6 0.871837 0.249507 0.047430
O O7 0.737907 0.324841 0.929510
O O8 0.500000 0.629282 0.750000
O O9 0.000000 0.673511 0.750000
O O10 0.500000 0.002650 0.750000
O O11 0.249506 0.921244 0.693533
O O12 0.500000 0.656115 0.250000
#
# Coordination Sequence:
#
# PCOD9457673 Si02
#       5
#     8   8   8   8   8
#     4  10  24  41  66 101 146 185 231 284 341 419
#     4  11  27  47  73 102 138 180 236 303 362 422
#     4  11  25  45  73 103 141 185 233 290 353 420
#     4  11  22  41  68 103 142 187 235 278 348 422
#     4  11  24  42  69  98 136 183 235 293 354 420
#
# _framework density 25.140910000000002
#
# number of rings (size 3 to 8) (size 9 to 14) (size 15 to 20)
#    0.000    1.200    2.000    2.400   11.200    3.200 
#    0.000    0.000    0.000    0.000    0.000    0.000 
#    0.000    0.000    0.000    0.000    0.000    0.000 
#
# Total GULP energy -222863.074127 kJ/mol
# GULP energy per Si atom -5571.576853 kJ/mol
# Density = 2.508369 g / cm^3
# Si number density = 25.140910 Si / 1000 Ang^3
#
#
#
# Elastic Constant Matrix: (Units=GPa)
#
#
# Indices 1 2 3 4 5 6 
#
# 1 68.5399 8.6126 28.0460 0.0000 0.0000 0.0000
# 2 8.6126 64.9709 31.4671 0.0000 0.0000 0.0000
# 3 28.0460 31.4671 120.1462 0.0000 0.0000 0.0000
# 4 0.0000 0.0000 0.0000 257.6232 0.0000 0.0000
# 5 0.0000 0.0000 0.0000 0.0000 38.8246 0.0000
# 6 0.0000 0.0000 0.0000 0.0000 0.0000 474.0056
#
#
#
# Elastic Compliance Matrix: (Units=1/GPa)
#
#
# Indices 1 2 3 4 5 6 
#
# 1 0.016138 -0.000360 -0.003673 0.000000 0.000000 0.000000
# 2 -0.000360 0.017636 -0.004535 0.000000 0.000000 0.000000
# 3 -0.003673 -0.004535 0.010368 0.000000 0.000000 0.000000
# 4 0.000000 0.000000 0.000000 0.003882 0.000000 0.000000
# 5 0.000000 0.000000 0.000000 0.000000 0.025757 0.000000
# 6 0.000000 0.000000 0.000000 0.000000 0.000000 0.002110
#
#
# Mechanical properties :
#
#
# Convention : Reuss Voigt Hill
#
# Bulk Modulus (GPa) = 37.02872 43.32314 40.17593
# Shear Modulus (GPa) = 49.00609 166.45943 107.73276
#
# Velocity S-wave (km/s) = 4.41983 8.14582 6.55321
# Velocity P-wave (km/s) = 6.38803 10.28309 8.56005
#
# Compressibility (1/GPa) = 0.02700607
#
# Stress axis : x y z
#
# Youngs Moduli (GPa) = 61.96475 56.70352 96.44869
#
# Poissons Ratio (x) = 0.02044 0.35423
# Poissons Ratio (y) = 0.02234 0.43737
# Poissons Ratio (z) = 0.22758 0.25714
#
# Static dielectric constant tensor:
#      x y z
#    x 2.213090 0.000000 0.000000 
#    y 0.000000 2.063420 0.000000 
#    z 0.000000 0.000000 2.022000 
# 
# From -- ./inp_files/9062.got.cif
#   From: 2010.05.17/outbox.cif.g08.bks.cpg/sg60_5_cif.got.tgz:9062.got - 2010.06.03 14:59:27.
