data_PCOD9457885
_publ_section_title
;
Structure prediction by ZEFSAII (Michael W. Deem and Ramdas Pophale) SiO2 
 PCOD9457885
Probable space group: P B C N
;
_chemical_formula_sum "Si O2"
_cell_formula_units_Z 56
_cell_length_a 13.453535
_cell_length_b 8.591859
_cell_length_c 22.095109
_cell_angle_alpha 90.000000
_cell_angle_beta 90.000000
_cell_angle_gamma 90.000000
_cell_volume 2553.993000
_symmetry_space_group_name_H-M "P B C N"
_symmetry_group_IT_number 60
_symmetry_cell_setting 'orthorhombic'
loop_
_space_group_symop_operation_xyz
x,y,z
1/2-x,1/2-y,1/2+z
1/2+x,1/2-y,-z
-x,y,1/2-z
-x,-y,-z
1/2+x,1/2+y,1/2-z
1/2-x,1/2+y,z
x,-y,1/2+z
loop_
_atom_site_type_symbol
_atom_site_label
_atom_site_fract_x
_atom_site_fract_y
_atom_site_fract_z
Si Si1 0.241199 0.076525 0.730565
Si Si2 0.589000 0.687519 0.576020
Si Si3 0.788198 0.948468 0.966973
Si Si4 0.633390 0.690917 0.341745
Si Si5 0.583039 0.340084 0.625599
Si Si6 0.698033 0.160722 0.183046
Si Si7 0.390818 0.775112 0.508444
O O1 0.304931 0.158060 0.678403
O O2 0.180843 0.205443 0.767440
O O3 0.170602 0.944873 0.703315
O O4 0.312635 0.998722 0.780762
O O5 0.670215 0.640535 0.526058
O O6 0.564299 0.521292 0.607210
O O7 0.631835 0.805712 0.625114
O O8 0.494542 0.755973 0.542092
O O9 0.834506 0.867503 0.908123
O O10 0.670207 0.925789 0.970993
O O11 0.825467 0.124730 0.971517
O O12 0.515443 0.713571 0.339841
O O13 0.687030 0.334046 0.660847
O O14 0.594096 0.243293 0.563321
#
# Coordination Sequence:
#
# PCOD9457885 Si02
#       7
#     8   8   8   8   8   8   8
#     4  10  25  41  66  93 134 180 225 273 322 392
#     4  11  21  41  71 102 132 174 221 270 343 407
#     4  11  21  39  69  99 141 167 212 278 340 400
#     4  11  22  44  68  96 133 177 226 271 337 394
#     4  11  21  40  74  95 128 180 222 273 334 410
#     4  11  22  45  68  95 135 174 228 276 326 389
#     4  11  22  40  67 109 131 174 214 269 350 408
#
# _framework density 21.926449999999999
#
# number of rings (size 3 to 8) (size 9 to 14) (size 15 to 20)
#    0.000    1.143    5.714    1.714    0.000    2.286 
#    0.000    5.000    0.000    0.000    0.000    0.000 
#    0.000    0.000    0.000    0.000    0.000    0.000 
#
# Total GULP energy -313384.408899 kJ/mol
# GULP energy per Si atom -5596.150159 kJ/mol
# Density = 2.187654 g / cm^3
# Si number density = 21.926450 Si / 1000 Ang^3
#
#
#
# Elastic Constant Matrix: (Units=GPa)
#
#
# Indices 1 2 3 4 5 6 
#
# 1 91.2270 5.9144 7.1161 0.0000 0.0000 0.0000
# 2 5.9144 35.4308 17.8426 0.0000 0.0000 0.0000
# 3 7.1161 17.8426 77.5645 0.0000 0.0000 0.0000
# 4 0.0000 0.0000 0.0000 33.0916 0.0000 0.0000
# 5 0.0000 0.0000 0.0000 0.0000 11.7431 0.0000
# 6 0.0000 0.0000 0.0000 0.0000 0.0000 22.5381
#
#
#
# Elastic Compliance Matrix: (Units=1/GPa)
#
#
# Indices 1 2 3 4 5 6 
#
# 1 0.011112 -0.001517 -0.000670 0.000000 0.000000 0.000000
# 2 -0.001517 0.032129 -0.007252 0.000000 0.000000 0.000000
# 3 -0.000670 -0.007252 0.014622 0.000000 0.000000 0.000000
# 4 0.000000 0.000000 0.000000 0.030219 0.000000 0.000000
# 5 0.000000 0.000000 0.000000 0.000000 0.085156 0.000000
# 6 0.000000 0.000000 0.000000 0.000000 0.000000 0.044369
#
#
# Mechanical properties :
#
#
# Convention : Reuss Voigt Hill
#
# Bulk Modulus (GPa) = 25.65105 29.55207 27.60156
# Shear Modulus (GPa) = 20.04152 25.03118 22.53635
#
# Velocity S-wave (km/s) = 3.02658 3.38242 3.20943
# Velocity P-wave (km/s) = 4.89261 5.36297 5.13318
#
# Compressibility (1/GPa) = 0.03898476
#
# Stress axis : x y z
#
# Youngs Moduli (GPa) = 89.99009 31.12436 68.38938
#
# Poissons Ratio (x) = 0.04723 0.04585
# Poissons Ratio (y) = 0.13654 0.49594
# Poissons Ratio (z) = 0.06033 0.22570
#
# Static dielectric constant tensor:
#      x y z
#    x 1.784550 0.000000 0.000000 
#    y 0.000000 1.814060 0.000000 
#    z 0.000000 0.000000 1.795330 
# 
# From -- ./inp_files/22930.got.cif
#   From: 2010.05.17/outbox.cif.g08.bks.cpg/sg60_12_cif.got.tgz:22930.got - 2010.06.03 14:59:27.
