data_PCOD9457483
_publ_section_title
;
Structure prediction by ZEFSAII (Michael W. Deem and Ramdas Pophale) SiO2 
 PCOD9457483
Probable space group: P B C N
;
_chemical_formula_sum "Si O2"
_cell_formula_units_Z 56
_cell_length_a 14.589128
_cell_length_b 12.430136
_cell_length_c 14.703929
_cell_angle_alpha 90.000000
_cell_angle_beta 90.000000
_cell_angle_gamma 90.000000
_cell_volume 2666.481728
_symmetry_space_group_name_H-M "P B C N"
_symmetry_group_IT_number 60
_symmetry_cell_setting 'orthorhombic'
loop_
_space_group_symop_operation_xyz
x,y,z
1/2-x,1/2-y,1/2+z
1/2+x,1/2-y,-z
-x,y,1/2-z
-x,-y,-z
1/2+x,1/2+y,1/2-z
1/2-x,1/2+y,z
x,-y,1/2+z
loop_
_atom_site_type_symbol
_atom_site_label
_atom_site_fract_x
_atom_site_fract_y
_atom_site_fract_z
Si Si1 0.856401 0.434262 0.835903
Si Si2 0.768771 0.495998 0.029408
Si Si3 0.927899 0.900600 0.503348
Si Si4 0.091303 0.201949 0.690983
Si Si5 0.240185 0.616173 0.786252
Si Si6 0.926251 0.260431 0.171676
Si Si7 0.045833 0.501753 0.402522
O O1 0.849919 0.311236 0.808618
O O2 0.816154 0.522213 0.766718
O O3 0.966327 0.448320 0.842710
O O4 0.809693 0.451582 0.934795
O O5 0.677246 0.559450 0.007329
O O6 0.743735 0.409724 0.107289
O O7 0.855050 0.555337 0.079322
O O8 0.935785 0.831192 0.411246
O O9 0.938306 0.827153 0.592965
O O10 0.000000 0.000000 0.500000
O O11 0.162747 0.119870 0.736242
O O12 0.000000 0.209727 0.750000
O O13 0.175270 0.722283 0.786039
O O14 0.941992 0.378877 0.128820
O O15 0.000000 0.241108 0.250000
O O16 0.000000 0.500000 0.500000
#
# Coordination Sequence:
#
# PCOD9457483 Si02
#       7
#     8   8   8   8   8   8   8
#     4  11  23  46  72 105 144 183 238 312 368 436
#     4  10  23  43  70  97 143 182 238 298 361 432
#     4  12  27  48  69  99 153 202 243 303 375 454
#     4  12  28  46  72 108 145 192 251 304 380 449
#     4  11  24  45  72 108 141 189 245 308 370 445
#     4  11  24  43  70 108 138 186 250 295 371 453
#     4   9  19  40  69 102 134 172 231 305 357 420
#
# _framework density 21.001456000000001
#
# number of rings (size 3 to 8) (size 9 to 14) (size 15 to 20)
#    0.000    1.143    2.857    3.429    6.000    2.857 
#    0.000    5.714    0.000    0.000    0.000    0.000 
#    0.000    0.000    0.000    0.000    0.000    0.000 
#
# Total GULP energy -312440.238897 kJ/mol
# GULP energy per Si atom -5579.289980 kJ/mol
# Density = 2.095366 g / cm^3
# Si number density = 21.001456 Si / 1000 Ang^3
#
#
#
# Elastic Constant Matrix: (Units=GPa)
#
#
# Indices 1 2 3 4 5 6 
#
# 1 103.9673 45.4654 74.0076 0.0000 0.0000 0.0000
# 2 45.4654 66.3902 44.9783 0.0000 0.0000 0.0000
# 3 74.0076 44.9783 167.4220 0.0000 0.0000 0.0000
# 4 0.0000 0.0000 0.0000 37.1569 0.0000 0.0000
# 5 0.0000 0.0000 0.0000 0.0000 43.4451 0.0000
# 6 0.0000 0.0000 0.0000 0.0000 0.0000 12.1179
#
#
#
# Elastic Compliance Matrix: (Units=1/GPa)
#
#
# Indices 1 2 3 4 5 6 
#
# 1 0.016892 -0.007957 -0.005329 0.000000 0.000000 0.000000
# 2 -0.007957 0.022163 -0.002437 0.000000 0.000000 0.000000
# 3 -0.005329 -0.002437 0.008983 0.000000 0.000000 0.000000
# 4 0.000000 0.000000 0.000000 0.026913 0.000000 0.000000
# 5 0.000000 0.000000 0.000000 0.000000 0.023018 0.000000
# 6 0.000000 0.000000 0.000000 0.000000 0.000000 0.082522
#
#
# Mechanical properties :
#
#
# Convention : Reuss Voigt Hill
#
# Bulk Modulus (GPa) = 60.27201 74.07577 67.17389
# Shear Modulus (GPa) = 22.99206 30.09920 26.54563
#
# Velocity S-wave (km/s) = 3.31234 3.78986 3.55912
# Velocity P-wave (km/s) = 6.58711 7.38235 6.99604
#
# Compressibility (1/GPa) = 0.01659145
#
# Stress axis : x y z
#
# Youngs Moduli (GPa) = 59.20101 45.12115 111.31932
#
# Poissons Ratio (x) = 0.35905 0.59322
# Poissons Ratio (y) = 0.47108 0.27123
# Poissons Ratio (z) = 0.31548 0.10994
#
# Static dielectric constant tensor:
#      x y z
#    x 1.802800 0.000000 0.000000 
#    y 0.000000 1.758920 0.000000 
#    z 0.000000 0.000000 1.745390 
# 
# From -- ./inp_files/16879.got.cif
#   From: 2010.05.17/outbox.cif.g08.bks.cpg/sg60_9_cif.got.tgz:16879.got - 2010.06.03 14:59:27.
