data_PCOD9457626
_publ_section_title
;
Structure prediction by ZEFSAII (Michael W. Deem and Ramdas Pophale) SiO2 
 PCOD9457626
Probable space group: P B C N
;
_chemical_formula_sum "Si O2"
_cell_formula_units_Z 32
_cell_length_a 10.865710
_cell_length_b 9.835795
_cell_length_c 13.929298
_cell_angle_alpha 90.000000
_cell_angle_beta 90.000000
_cell_angle_gamma 90.000000
_cell_volume 1488.664418
_symmetry_space_group_name_H-M "P B C N"
_symmetry_group_IT_number 60
_symmetry_cell_setting 'orthorhombic'
loop_
_space_group_symop_operation_xyz
x,y,z
1/2-x,1/2-y,1/2+z
1/2+x,1/2-y,-z
-x,y,1/2-z
-x,-y,-z
1/2+x,1/2+y,1/2-z
1/2-x,1/2+y,z
x,-y,1/2+z
loop_
_atom_site_type_symbol
_atom_site_label
_atom_site_fract_x
_atom_site_fract_y
_atom_site_fract_z
Si Si1 0.305266 0.253029 0.077345
Si Si2 0.542056 0.916384 0.647593
Si Si3 0.642515 0.348725 0.226825
Si Si4 0.738680 0.486925 0.043285
O O1 0.428531 0.169505 0.104752
O O2 0.276696 0.331971 0.177155
O O3 0.218825 0.137219 0.031458
O O4 0.312940 0.374562 0.001065
O O5 0.500000 0.981519 0.750000
O O6 0.638935 0.800623 0.679960
O O7 0.615622 0.002353 0.569614
O O8 0.500000 0.380397 0.250000
O O9 0.683611 0.451277 0.146098
#
# Coordination Sequence:
#
# PCOD9457626 Si02
#       4
#     8   8   8   8
#     4  10  24  37  66  92 125 165 213 256 313 373
#     4   9  21  42  59  91 131 160 205 268 307 370
#     4   9  22  42  60  93 129 158 207 269 305 369
#     4  12  21  42  65  93 124 172 207 255 322 372
#
# _framework density 21.49578
#
# number of rings (size 3 to 8) (size 9 to 14) (size 15 to 20)
#    0.000    2.500    2.500    0.750    7.000    4.000 
#    0.000    1.250    0.000    0.000    0.000    0.000 
#    0.000    0.000    0.000    0.000    0.000    0.000 
#
# Total GULP energy -178192.218106 kJ/mol
# GULP energy per Si atom -5568.506816 kJ/mol
# Density = 2.144685 g / cm^3
# Si number density = 21.495780 Si / 1000 Ang^3
#
#
#
# Elastic Constant Matrix: (Units=GPa)
#
#
# Indices 1 2 3 4 5 6 
#
# 1 37.0951 11.9421 37.6250 0.0000 0.0000 0.0000
# 2 11.9421 69.5005 43.5431 0.0000 0.0000 0.0000
# 3 37.6250 43.5431 137.8064 0.0000 0.0000 0.0000
# 4 0.0000 0.0000 0.0000 18.0113 0.0000 0.0000
# 5 0.0000 0.0000 0.0000 0.0000 34.6928 0.0000
# 6 0.0000 0.0000 0.0000 0.0000 0.0000 16.6512
#
#
#
# Elastic Compliance Matrix: (Units=1/GPa)
#
#
# Indices 1 2 3 4 5 6 
#
# 1 0.037282 -0.000036 -0.010168 0.000000 0.000000 0.000000
# 2 -0.000036 0.017940 -0.005659 0.000000 0.000000 0.000000
# 3 -0.010168 -0.005659 0.011821 0.000000 0.000000 0.000000
# 4 0.000000 0.000000 0.000000 0.055521 0.000000 0.000000
# 5 0.000000 0.000000 0.000000 0.000000 0.028824 0.000000
# 6 0.000000 0.000000 0.000000 0.000000 0.000000 0.060056
#
#
# Mechanical properties :
#
#
# Convention : Reuss Voigt Hill
#
# Bulk Modulus (GPa) = 28.31412 47.84694 38.08053
# Shear Modulus (GPa) = 19.61237 23.95718 21.78477
#
# Velocity S-wave (km/s) = 3.02384 3.34204 3.18692
# Velocity P-wave (km/s) = 5.03905 6.09913 5.59426
#
# Compressibility (1/GPa) = 0.03531807
#
# Stress axis : x y z
#
# Youngs Moduli (GPa) = 26.82235 55.74196 84.59783
#
# Poissons Ratio (x) = 0.00200 0.86017
# Poissons Ratio (y) = 0.00096 0.47871
# Poissons Ratio (z) = 0.27272 0.31543
#
# Static dielectric constant tensor:
#      x y z
#    x 1.827260 0.000000 0.000000 
#    y 0.000000 1.775260 0.000000 
#    z 0.000000 0.000000 1.886360 
# 
# From -- ./inp_files/15589.got.cif
#   From: 2010.05.17/outbox.cif.g08.bks.cpg/sg60_8_cif.got.tgz:15589.got - 2010.06.03 14:59:27.
