data_PCOD9457719
_publ_section_title
;
Structure prediction by ZEFSAII (Michael W. Deem and Ramdas Pophale) SiO2 
 PCOD9457719
Probable space group: P B C N
;
_chemical_formula_sum "Si O2"
_cell_formula_units_Z 40
_cell_length_a 9.469509
_cell_length_b 7.450877
_cell_length_c 24.280044
_cell_angle_alpha 90.000000
_cell_angle_beta 90.000000
_cell_angle_gamma 90.000000
_cell_volume 1713.106349
_symmetry_space_group_name_H-M "P B C N"
_symmetry_group_IT_number 60
_symmetry_cell_setting 'orthorhombic'
loop_
_space_group_symop_operation_xyz
x,y,z
1/2-x,1/2-y,1/2+z
1/2+x,1/2-y,-z
-x,y,1/2-z
-x,-y,-z
1/2+x,1/2+y,1/2-z
1/2-x,1/2+y,z
x,-y,1/2+z
loop_
_atom_site_type_symbol
_atom_site_label
_atom_site_fract_x
_atom_site_fract_y
_atom_site_fract_z
Si Si1 0.332470 0.586017 0.465966
Si Si2 0.052280 0.555017 0.916701
Si Si3 0.091364 0.846384 0.197848
Si Si4 0.922181 0.580743 0.802508
Si Si5 0.566319 0.675916 0.928595
O O1 0.200191 0.552418 0.425908
O O2 0.306509 0.612227 0.531488
O O3 0.429422 0.412980 0.456449
O O4 0.419310 0.766509 0.451646
O O5 0.002523 0.632266 0.858078
O O6 0.944573 0.391623 0.928597
O O7 0.064189 0.634031 0.197954
O O8 0.063499 0.898379 0.133999
O O9 0.000000 0.918604 0.250000
O O10 0.258009 0.876359 0.203381
O O11 0.000000 0.659160 0.750000
#
# Coordination Sequence:
#
# PCOD9457719 Si02
#       5
#     8   8   8   8   8
#     4  11  23  40  68  96 137 180 219 284 339 403
#     4  11  23  43  67 100 136 182 230 281 343 410
#     4  10  24  45  66  95 134 173 223 283 333 406
#     4  10  25  43  68 100 131 177 231 278 339 409
#     4  10  24  43  63  98 132 178 230 269 341 412
#
# _framework density 23.349398000000001
#
# number of rings (size 3 to 8) (size 9 to 14) (size 15 to 20)
#    0.000    1.600    2.000    0.600    5.600    7.200 
#    0.000    0.000    0.000    0.000    0.000    0.000 
#    0.000    0.000    0.000    0.000    0.000    0.000 
#
# Total GULP energy -223025.723352 kJ/mol
# GULP energy per Si atom -5575.643084 kJ/mol
# Density = 2.329625 g / cm^3
# Si number density = 23.349398 Si / 1000 Ang^3
#
#
#
# Elastic Constant Matrix: (Units=GPa)
#
#
# Indices 1 2 3 4 5 6 
#
# 1 104.3325 2.8631 89.8031 0.0000 0.0000 0.0000
# 2 2.8631 92.7529 38.4702 0.0000 0.0000 0.0000
# 3 89.8031 38.4702 204.6735 0.0000 0.0000 0.0000
# 4 0.0000 0.0000 0.0000 7.8464 0.0000 0.0000
# 5 0.0000 0.0000 0.0000 0.0000 29.4055 0.0000
# 6 0.0000 0.0000 0.0000 0.0000 0.0000 7.9580
#
#
#
# Elastic Compliance Matrix: (Units=1/GPa)
#
#
# Indices 1 2 3 4 5 6 
#
# 1 0.015966 0.002617 -0.007497 0.000000 0.000000 0.000000
# 2 0.002617 0.012122 -0.003426 0.000000 0.000000 0.000000
# 3 -0.007497 -0.003426 0.008819 0.000000 0.000000 0.000000
# 4 0.000000 0.000000 0.000000 0.127447 0.000000 0.000000
# 5 0.000000 0.000000 0.000000 0.000000 0.034007 0.000000
# 6 0.000000 0.000000 0.000000 0.000000 0.000000 0.125660
#
#
# Mechanical properties :
#
#
# Convention : Reuss Voigt Hill
#
# Bulk Modulus (GPa) = 49.27762 73.78131 61.52946
# Shear Modulus (GPa) = 14.39263 27.08348 20.73805
#
# Velocity S-wave (km/s) = 2.48544 3.40946 2.98344
# Velocity P-wave (km/s) = 5.42096 6.86779 6.18682
#
# Compressibility (1/GPa) = 0.02029319
#
# Stress axis : x y z
#
# Youngs Moduli (GPa) = 62.63315 82.49648 113.38741
#
# Poissons Ratio (x) = -0.21587 0.85008
# Poissons Ratio (y) = -0.16389 0.38852
# Poissons Ratio (z) = 0.46957 0.28267
#
# Static dielectric constant tensor:
#      x y z
#    x 1.922590 0.000000 0.000000 
#    y 0.000000 1.854390 0.000000 
#    z 0.000000 0.000000 2.033590 
# 
# From -- ./inp_files/23847.got.cif
#   From: 2010.05.17/outbox.cif.g08.bks.cpg/sg60_12_cif.got.tgz:23847.got - 2010.06.03 14:59:27.
