data_PCOD9457728
_publ_section_title
;
Structure prediction by ZEFSAII (Michael W. Deem and Ramdas Pophale) SiO2 
 PCOD9457728
Probable space group: P B C N
;
_chemical_formula_sum "Si O2"
_cell_formula_units_Z 60
_cell_length_a 19.140305
_cell_length_b 7.988975
_cell_length_c 15.730377
_cell_angle_alpha 90.000000
_cell_angle_beta 90.000000
_cell_angle_gamma 90.000000
_cell_volume 2405.354255
_symmetry_space_group_name_H-M "P B C N"
_symmetry_group_IT_number 60
_symmetry_cell_setting 'orthorhombic'
loop_
_space_group_symop_operation_xyz
x,y,z
1/2-x,1/2-y,1/2+z
1/2+x,1/2-y,-z
-x,y,1/2-z
-x,-y,-z
1/2+x,1/2+y,1/2-z
1/2-x,1/2+y,z
x,-y,1/2+z
loop_
_atom_site_type_symbol
_atom_site_label
_atom_site_fract_x
_atom_site_fract_y
_atom_site_fract_z
Si Si1 0.812072 0.543095 0.551106
Si Si2 0.385898 0.157904 0.655094
Si Si3 0.547400 0.600343 0.621202
Si Si4 0.835180 0.840503 0.999944
Si Si5 0.230861 0.503225 0.260892
Si Si6 0.355744 0.325246 0.231300
Si Si7 0.500000 0.328561 0.750000
Si Si8 0.077793 0.683043 0.067526
O O1 0.742086 0.584195 0.497575
O O2 0.828770 0.347202 0.538792
O O3 0.791420 0.570392 0.648265
O O4 0.876877 0.651606 0.516693
O O5 0.370431 0.306006 0.589891
O O6 0.311978 0.087071 0.686312
O O7 0.432985 0.216304 0.732639
O O8 0.425797 0.003271 0.608760
O O9 0.612472 0.558100 0.560593
O O10 0.580014 0.692491 0.704242
O O11 0.510903 0.443224 0.666397
O O12 0.495692 0.720555 0.568084
O O13 0.313562 0.494717 0.247196
O O14 0.201600 0.689560 0.257271
O O15 0.378110 0.290749 0.135853
#
# Coordination Sequence:
#
# PCOD9457728 Si02
#       8
#     8   8   8   8   8   8   4   8
#     4  11  22  42  67 102 130 179 219 281 326 403
#     4  10  27  44  66 100 133 177 227 279 337 405
#     4  12  24  43  69  96 135 179 223 276 342 403
#     4  11  25  46  68 100 137 174 227 274 344 400
#     4  11  22  39  69  97 129 174 222 279 331 398
#     4  11  22  41  64  95 130 173 220 273 334 394
#     4  12  28  42  68  96 132 178 224 292 334 400
#     4  10  24  43  69  93 138 180 222 274 342 406
#
# _framework density 24.94435
#
# number of rings (size 3 to 8) (size 9 to 14) (size 15 to 20)
#    0.000    1.067    4.000    0.800    5.600    5.867 
#    0.000    0.000    0.000    0.000    0.000    0.000 
#    0.000    0.000    0.000    0.000    0.000    0.000 
#
# Total GULP energy -336151.160550 kJ/mol
# GULP energy per Si atom -5602.519343 kJ/mol
# Density = 2.488758 g / cm^3
# Si number density = 24.944350 Si / 1000 Ang^3
#
#
#
# Elastic Constant Matrix: (Units=GPa)
#
#
# Indices 1 2 3 4 5 6 
#
# 1 85.3969 25.2354 -1.8103 0.0000 0.0000 0.0000
# 2 25.2354 58.1215 7.4289 0.0000 0.0000 0.0000
# 3 -1.8103 7.4289 64.1948 0.0000 0.0000 0.0000
# 4 0.0000 0.0000 0.0000 20.4210 0.0000 0.0000
# 5 0.0000 0.0000 0.0000 0.0000 39.7731 0.0000
# 6 0.0000 0.0000 0.0000 0.0000 0.0000 35.8357
#
#
#
# Elastic Compliance Matrix: (Units=1/GPa)
#
#
# Indices 1 2 3 4 5 6 
#
# 1 0.013506 -0.006002 0.001075 0.000000 0.000000 0.000000
# 2 -0.006002 0.020131 -0.002499 0.000000 0.000000 0.000000
# 3 0.001075 -0.002499 0.015897 0.000000 0.000000 0.000000
# 4 0.000000 0.000000 0.000000 0.048969 0.000000 0.000000
# 5 0.000000 0.000000 0.000000 0.000000 0.025143 0.000000
# 6 0.000000 0.000000 0.000000 0.000000 0.000000 0.027905
#
#
# Mechanical properties :
#
#
# Convention : Reuss Voigt Hill
#
# Bulk Modulus (GPa) = 28.83191 29.93568 29.38379
# Shear Modulus (GPa) = 28.09584 30.99660 29.54622
#
# Velocity S-wave (km/s) = 3.35974 3.52892 3.44537
# Velocity P-wave (km/s) = 5.16082 5.35083 5.25668
#
# Compressibility (1/GPa) = 0.03468380
#
# Stress axis : x y z
#
# Youngs Moduli (GPa) = 74.03912 49.67573 62.90465
#
# Poissons Ratio (x) = 0.29814 -0.06765
# Poissons Ratio (y) = 0.44436 0.15719
# Poissons Ratio (z) = -0.07962 0.12413
#
# Static dielectric constant tensor:
#      x y z
#    x 1.953050 0.000000 0.000000 
#    y 0.000000 2.020810 0.000000 
#    z 0.000000 0.000000 1.958770 
# 
# From -- ./inp_files/20899.got.cif
#   From: 2010.05.17/outbox.cif.g08.bks.cpg/sg60_11_cif.got.tgz:20899.got - 2010.06.03 14:59:27.
