data_PCOD9457874
_publ_section_title
;
Structure prediction by ZEFSAII (Michael W. Deem and Ramdas Pophale) SiO2 
 PCOD9457874
Probable space group: P B C N
;
_chemical_formula_sum "Si O2"
_cell_formula_units_Z 36
_cell_length_a 8.978179
_cell_length_b 9.705642
_cell_length_c 15.791367
_cell_angle_alpha 90.000000
_cell_angle_beta 90.000000
_cell_angle_gamma 90.000000
_cell_volume 1376.043790
_symmetry_space_group_name_H-M "P B C N"
_symmetry_group_IT_number 60
_symmetry_cell_setting 'orthorhombic'
loop_
_space_group_symop_operation_xyz
x,y,z
1/2-x,1/2-y,1/2+z
1/2+x,1/2-y,-z
-x,y,1/2-z
-x,-y,-z
1/2+x,1/2+y,1/2-z
1/2-x,1/2+y,z
x,-y,1/2+z
loop_
_atom_site_type_symbol
_atom_site_label
_atom_site_fract_x
_atom_site_fract_y
_atom_site_fract_z
Si Si1 0.109463 0.264088 0.970322
Si Si2 0.414298 0.291251 0.882494
Si Si3 0.500000 0.068460 0.750000
Si Si4 0.317107 0.463119 0.728948
Si Si5 0.684976 0.727129 0.881641
O O1 0.214133 0.338257 0.041846
O O2 0.010753 0.168642 0.034658
O O3 0.247171 0.235784 0.907185
O O4 0.964534 0.306329 0.915122
O O5 0.485869 0.164493 0.832149
O O6 0.400330 0.413749 0.814129
O O7 0.857709 0.106041 0.816999
O O8 0.289054 0.338657 0.664066
O O9 0.147233 0.483080 0.756285
#
# Coordination Sequence:
#
# PCOD9457874 Si02
#       5
#     8   8   4   8   8
#     4  10  24  50  73 120 155 210 258 347 391 482
#     4  11  23  50  79 111 158 208 268 321 407 474
#     4  12  24  50  76 112 156 212 248 330 392 490
#     4  12  24  48  78 112 152 213 260 327 391 496
#     4  11  25  48  77 112 158 204 269 321 409 469
#
# _framework density 26.161960000000001
#
# number of rings (size 3 to 8) (size 9 to 14) (size 15 to 20)
#    0.000    0.889    4.444    1.333    0.000    1.778 
#   28.000    0.000    0.000    0.000    0.000    0.000 
#    0.000    0.000    0.000    0.000    0.000    0.000 
#
# Total GULP energy -200407.237857 kJ/mol
# GULP energy per Si atom -5566.867718 kJ/mol
# Density = 2.610241 g / cm^3
# Si number density = 26.161960 Si / 1000 Ang^3
#
#
#
# Elastic Constant Matrix: (Units=GPa)
#
#
# Indices 1 2 3 4 5 6 
#
# 1 106.4911 -8.6676 15.8813 0.0000 0.0000 0.0000
# 2 -8.6676 49.7167 -0.1182 0.0000 0.0000 0.0000
# 3 15.8813 -0.1182 63.2145 0.0000 0.0000 0.0000
# 4 0.0000 0.0000 0.0000 -21.5786 0.0000 0.0000
# 5 0.0000 0.0000 0.0000 0.0000 99.4645 0.0000
# 6 0.0000 0.0000 0.0000 0.0000 0.0000 53.6839
#
#
#
# Elastic Compliance Matrix: (Units=1/GPa)
#
#
# Indices 1 2 3 4 5 6 
#
# 1 0.009901 0.001720 -0.002484 0.000000 0.000000 0.000000
# 2 0.001720 0.020413 -0.000394 0.000000 0.000000 0.000000
# 3 -0.002484 -0.000394 0.016443 0.000000 0.000000 0.000000
# 4 0.000000 0.000000 0.000000 -0.046342 0.000000 0.000000
# 5 0.000000 0.000000 0.000000 0.000000 0.010054 0.000000
# 6 0.000000 0.000000 0.000000 0.000000 0.000000 0.018628
#
#
# Mechanical properties :
#
#
# Convention : Reuss Voigt Hill
#
# Bulk Modulus (GPa) = 22.50202 25.95703 24.22953
# Shear Modulus (GPa) = 108.16678 40.46910 74.31794
#
# Velocity S-wave (km/s) = 6.43699 3.93729 5.33559
# Velocity P-wave (km/s) = 7.99163 5.53289 6.87310
#
# Compressibility (1/GPa) = 0.04444046
#
# Stress axis : x y z
#
# Youngs Moduli (GPa) = 101.00048 48.98857 60.81788
#
# Poissons Ratio (x) = -0.08427 0.15108
# Poissons Ratio (y) = -0.17374 0.02396
# Poissons Ratio (z) = 0.25090 0.01930
#
# Static dielectric constant tensor:
#      x y z
#    x 2.829070 0.000000 0.000000 
#    y 0.000000 2.073650 0.000000 
#    z 0.000000 0.000000 2.340460 
# 
# From -- ./inp_files/14547.got.cif
#   From: 2010.05.17/outbox.cif.g08.bks.cpg/sg60_8_cif.got.tgz:14547.got - 2010.06.03 14:59:27.
