data_PCOD9457312
_publ_section_title
;
Structure prediction by ZEFSAII (Michael W. Deem and Ramdas Pophale) SiO2 
 PCOD9457312
Probable space group: P B C N
;
_chemical_formula_sum "Si O2"
_cell_formula_units_Z 32
_cell_length_a 7.201114
_cell_length_b 9.406034
_cell_length_c 20.744787
_cell_angle_alpha 90.000000
_cell_angle_beta 90.000000
_cell_angle_gamma 90.000000
_cell_volume 1405.125808
_symmetry_space_group_name_H-M "P B C N"
_symmetry_group_IT_number 60
_symmetry_cell_setting 'orthorhombic'
loop_
_space_group_symop_operation_xyz
x,y,z
1/2-x,1/2-y,1/2+z
1/2+x,1/2-y,-z
-x,y,1/2-z
-x,-y,-z
1/2+x,1/2+y,1/2-z
1/2-x,1/2+y,z
x,-y,1/2+z
loop_
_atom_site_type_symbol
_atom_site_label
_atom_site_fract_x
_atom_site_fract_y
_atom_site_fract_z
Si Si1 0.370800 0.525942 0.136112
Si Si2 0.064058 0.361299 0.539739
Si Si3 0.670517 0.688681 0.081950
Si Si4 0.588048 0.808093 0.314609
O O1 0.240034 0.593678 0.081130
O O2 0.574852 0.540379 0.104791
O O3 0.365566 0.641438 0.193628
O O4 0.271141 0.385960 0.160148
O O5 0.116544 0.235807 0.490314
O O6 0.000000 0.500000 0.500000
O O7 0.890656 0.318133 0.583993
O O8 0.568134 0.800187 0.129404
O O9 0.500000 0.869389 0.250000
#
# Coordination Sequence:
#
# PCOD9457312 Si02
#       4
#     8   8   8   8
#     4  10  23  43  68  97 131 172 223 272 330 398
#     4  12  21  40  67 101 134 172 215 280 342 395
#     4  10  23  39  65  99 133 169 221 271 337 391
#     4  10  23  47  65  93 133 175 225 269 326 393
#
# _framework density 22.773762000000001
#
# number of rings (size 3 to 8) (size 9 to 14) (size 15 to 20)
#    1.500    0.000    5.000    0.000    0.000    5.000 
#    0.000    1.250    0.000    0.000    0.000    0.000 
#    0.000    0.000    0.000    0.000    0.000    0.000 
#
# Total GULP energy -178556.200570 kJ/mol
# GULP energy per Si atom -5579.881268 kJ/mol
# Density = 2.272193 g / cm^3
# Si number density = 22.773762 Si / 1000 Ang^3
#
#
#
# Elastic Constant Matrix: (Units=GPa)
#
#
# Indices 1 2 3 4 5 6 
#
# 1 67.3473 -11.7678 12.9939 0.0000 0.0000 0.0000
# 2 -11.7678 55.9974 -2.1879 0.0000 0.0000 0.0000
# 3 12.9939 -2.1879 64.4905 0.0000 0.0000 0.0000
# 4 0.0000 0.0000 0.0000 23.1478 0.0000 0.0000
# 5 0.0000 0.0000 0.0000 0.0000 15.4248 0.0000
# 6 0.0000 0.0000 0.0000 0.0000 0.0000 31.7256
#
#
#
# Elastic Compliance Matrix: (Units=1/GPa)
#
#
# Indices 1 2 3 4 5 6 
#
# 1 0.016017 0.003244 -0.003117 0.000000 0.000000 0.000000
# 2 0.003244 0.018539 -0.000025 0.000000 0.000000 0.000000
# 3 -0.003117 -0.000025 0.016133 0.000000 0.000000 0.000000
# 4 0.000000 0.000000 0.000000 0.043201 0.000000 0.000000
# 5 0.000000 0.000000 0.000000 0.000000 0.064831 0.000000
# 6 0.000000 0.000000 0.000000 0.000000 0.000000 0.031520
#
#
# Mechanical properties :
#
#
# Convention : Reuss Voigt Hill
#
# Bulk Modulus (GPa) = 19.64891 20.65686 20.15288
# Shear Modulus (GPa) = 24.15453 26.64608 25.40030
#
# Velocity S-wave (km/s) = 3.26026 3.42429 3.34328
# Velocity P-wave (km/s) = 4.77693 4.97237 4.87563
#
# Compressibility (1/GPa) = 0.05089341
#
# Stress axis : x y z
#
# Youngs Moduli (GPa) = 62.43504 53.94106 61.98331
#
# Poissons Ratio (x) = -0.17499 0.19321
# Poissons Ratio (y) = -0.20254 0.00153
# Poissons Ratio (z) = 0.19461 0.00133
#
# Static dielectric constant tensor:
#      x y z
#    x 1.838680 0.000000 0.000000 
#    y 0.000000 1.930520 0.000000 
#    z 0.000000 0.000000 1.853220 
# 
# From -- ./inp_files/23428.got.cif
#   From: 2010.05.17/outbox.cif.g08.bks.cpg/sg60_12_cif.got.tgz:23428.got - 2010.06.03 14:59:27.
