data_PCOD9457840
_publ_section_title
;
Structure prediction by ZEFSAII (Michael W. Deem and Ramdas Pophale) SiO2 
 PCOD9457840
Probable space group: P B C N
;
_chemical_formula_sum "Si O2"
_cell_formula_units_Z 44
_cell_length_a 26.096679
_cell_length_b 8.035781
_cell_length_c 9.224718
_cell_angle_alpha 90.000000
_cell_angle_beta 90.000000
_cell_angle_gamma 90.000000
_cell_volume 1934.489757
_symmetry_space_group_name_H-M "P B C N"
_symmetry_group_IT_number 60
_symmetry_cell_setting 'orthorhombic'
loop_
_space_group_symop_operation_xyz
x,y,z
1/2-x,1/2-y,1/2+z
1/2+x,1/2-y,-z
-x,y,1/2-z
-x,-y,-z
1/2+x,1/2+y,1/2-z
1/2-x,1/2+y,z
x,-y,1/2+z
loop_
_atom_site_type_symbol
_atom_site_label
_atom_site_fract_x
_atom_site_fract_y
_atom_site_fract_z
Si Si1 0.000000 0.453815 0.250000
Si Si2 0.349779 0.655200 0.651414
Si Si3 0.654193 0.021357 0.148232
Si Si4 0.246720 0.337936 0.963300
Si Si5 0.681423 0.694408 0.303448
Si Si6 0.566628 0.137763 0.488933
O O1 0.029254 0.346901 0.372802
O O2 0.963002 0.571583 0.347207
O O3 0.397455 0.705916 0.549984
O O4 0.346989 0.805784 0.765994
O O5 0.295783 0.649306 0.566223
O O6 0.352923 0.469055 0.713017
O O7 0.653739 0.863909 0.255803
O O8 0.606634 0.002782 0.042153
O O9 0.707300 0.007980 0.058384
O O10 0.270566 0.317953 0.805312
O O11 0.206401 0.212234 0.037994
#
# Coordination Sequence:
#
# PCOD9457840 Si02
#       6
#     4   8   8   8   8   8
#     4  10  24  46  84 112 140 190 270 334 394 454
#     4  12  26  42  70 111 150 197 252 299 373 453
#     4  12  25  43  71 107 150 195 249 299 368 449
#     4  12  25  44  68 107 157 209 242 288 363 455
#     4  12  27  42  66 103 158 201 248 294 348 451
#     4  11  23  47  77 114 141 196 260 322 389 455
#
# _framework density 22.745014999999999
#
# number of rings (size 3 to 8) (size 9 to 14) (size 15 to 20)
#    0.000    0.364    5.455    3.273    2.545    0.000 
#    0.000    0.000    0.000    3.273    0.000    0.000 
#    0.000    0.000    0.000    0.000    0.000    0.000 
#
# Total GULP energy -245908.981769 kJ/mol
# GULP energy per Si atom -5588.840495 kJ/mol
# Density = 2.269325 g / cm^3
# Si number density = 22.745015 Si / 1000 Ang^3
#
#
#
# Elastic Constant Matrix: (Units=GPa)
#
#
# Indices 1 2 3 4 5 6 
#
# 1 116.9351 45.2747 61.3936 0.0000 0.0000 0.0000
# 2 45.2747 163.4066 61.6046 0.0000 0.0000 0.0000
# 3 61.3936 61.6046 135.4626 0.0000 0.0000 0.0000
# 4 0.0000 0.0000 0.0000 31.5071 0.0000 0.0000
# 5 0.0000 0.0000 0.0000 0.0000 65.0116 0.0000
# 6 0.0000 0.0000 0.0000 0.0000 0.0000 18.3298
#
#
#
# Elastic Compliance Matrix: (Units=1/GPa)
#
#
# Indices 1 2 3 4 5 6 
#
# 1 0.011509 -0.001475 -0.004545 0.000000 0.000000 0.000000
# 2 -0.001475 0.007575 -0.002776 0.000000 0.000000 0.000000
# 3 -0.004545 -0.002776 0.010705 0.000000 0.000000 0.000000
# 4 0.000000 0.000000 0.000000 0.031739 0.000000 0.000000
# 5 0.000000 0.000000 0.000000 0.000000 0.015382 0.000000
# 6 0.000000 0.000000 0.000000 0.000000 0.000000 0.054556
#
#
# Mechanical properties :
#
#
# Convention : Reuss Voigt Hill
#
# Bulk Modulus (GPa) = 81.99840 83.59446 82.79643
# Shear Modulus (GPa) = 32.65308 39.47178 36.06243
#
# Velocity S-wave (km/s) = 3.79306 4.17034 3.98617
# Velocity P-wave (km/s) = 7.43724 7.74736 7.59388
#
# Compressibility (1/GPa) = 0.01219536
#
# Stress axis : x y z
#
# Youngs Moduli (GPa) = 86.88605 132.01065 93.41691
#
# Poissons Ratio (x) = 0.19475 0.42461
# Poissons Ratio (y) = 0.12818 0.25936
# Poissons Ratio (z) = 0.39492 0.36651
#
# Static dielectric constant tensor:
#      x y z
#    x 1.871040 0.000000 0.000000 
#    y 0.000000 1.932010 0.000000 
#    z 0.000000 0.000000 1.919190 
# 
# From -- ./inp_files/8201.got.cif
#   From: 2010.05.17/outbox.cif.g08.bks.cpg/sg60_5_cif.got.tgz:8201.got - 2010.06.03 14:59:27.
