data_PCOD9457261
_publ_section_title
;
Structure prediction by ZEFSAII (Michael W. Deem and Ramdas Pophale) SiO2 
 PCOD9457261
Probable space group: P B C N
;
_chemical_formula_sum "Si O2"
_cell_formula_units_Z 40
_cell_length_a 8.281228
_cell_length_b 14.067209
_cell_length_c 13.897935
_cell_angle_alpha 90.000000
_cell_angle_beta 90.000000
_cell_angle_gamma 90.000000
_cell_volume 1619.022775
_symmetry_space_group_name_H-M "P B C N"
_symmetry_group_IT_number 60
_symmetry_cell_setting 'orthorhombic'
loop_
_space_group_symop_operation_xyz
x,y,z
1/2-x,1/2-y,1/2+z
1/2+x,1/2-y,-z
-x,y,1/2-z
-x,-y,-z
1/2+x,1/2+y,1/2-z
1/2-x,1/2+y,z
x,-y,1/2+z
loop_
_atom_site_type_symbol
_atom_site_label
_atom_site_fract_x
_atom_site_fract_y
_atom_site_fract_z
Si Si1 0.740955 0.374379 0.312705
Si Si2 0.723418 0.702027 0.432102
Si Si3 0.142681 0.511493 0.325109
Si Si4 0.542539 0.121352 0.990924
Si Si5 0.500703 0.530616 0.113094
O O1 0.706983 0.267022 0.344640
O O2 0.810666 0.404465 0.209996
O O3 0.593513 0.442518 0.339294
O O4 0.884555 0.403886 0.387031
O O5 0.858733 0.647533 0.490983
O O6 0.636107 0.777219 0.502661
O O7 0.601338 0.627001 0.387469
O O8 0.328943 0.550443 0.334402
O O9 0.000000 0.545270 0.250000
O O10 0.089763 0.544502 0.430207
O O11 0.500000 0.500000 0.000000
#
# Coordination Sequence:
#
# PCOD9457261 Si02
#       5
#     8   8   8   8   8
#     4  10  25  46  74 113 151 213 265 343 427 499
#     4  10  23  46  81 115 154 211 279 344 425 506
#     4  12  26  45  73 117 157 210 268 344 416 508
#     4  10  22  46  77 112 152 207 272 345 424 506
#     4  12  23  46  80 113 155 212 268 339 420 498
#
# _framework density 24.706261000000001
#
# number of rings (size 3 to 8) (size 9 to 14) (size 15 to 20)
#    1.200    0.000    2.000    4.200    2.800    1.600 
#    0.000   14.000    0.000    0.000    0.000    0.000 
#    0.000    0.000    0.000    0.000    0.000    0.000 
#
# Total GULP energy -223030.135588 kJ/mol
# GULP energy per Si atom -5575.753390 kJ/mol
# Density = 2.465003 g / cm^3
# Si number density = 24.706261 Si / 1000 Ang^3
#
#
#
# Elastic Constant Matrix: (Units=GPa)
#
#
# Indices 1 2 3 4 5 6 
#
# 1 156.5635 29.8106 50.6112 0.0000 0.0000 0.0000
# 2 29.8106 106.1224 45.4121 0.0000 0.0000 0.0000
# 3 50.6112 45.4121 142.0446 0.0000 0.0000 0.0000
# 4 0.0000 0.0000 0.0000 12.6045 0.0000 0.0000
# 5 0.0000 0.0000 0.0000 0.0000 51.0388 0.0000
# 6 0.0000 0.0000 0.0000 0.0000 0.0000 46.3207
#
#
#
# Elastic Compliance Matrix: (Units=1/GPa)
#
#
# Indices 1 2 3 4 5 6 
#
# 1 0.007326 -0.001090 -0.002262 0.000000 0.000000 0.000000
# 2 -0.001090 0.011079 -0.003154 0.000000 0.000000 0.000000
# 3 -0.002262 -0.003154 0.008854 0.000000 0.000000 0.000000
# 4 0.000000 0.000000 0.000000 0.079337 0.000000 0.000000
# 5 0.000000 0.000000 0.000000 0.000000 0.019593 0.000000
# 6 0.000000 0.000000 0.000000 0.000000 0.000000 0.021589
#
#
# Mechanical properties :
#
#
# Convention : Reuss Voigt Hill
#
# Bulk Modulus (GPa) = 70.18485 72.93316 71.55900
# Shear Modulus (GPa) = 30.20469 40.58589 35.39529
#
# Velocity S-wave (km/s) = 3.50029 4.05747 3.78914
# Velocity P-wave (km/s) = 6.69369 7.17878 6.94047
#
# Compressibility (1/GPa) = 0.01424809
#
# Stress axis : x y z
#
# Youngs Moduli (GPa) = 136.50244 90.26290 112.94195
#
# Poissons Ratio (x) = 0.09839 0.25545
# Poissons Ratio (y) = 0.14879 0.35617
# Poissons Ratio (z) = 0.30874 0.28465
#
# Static dielectric constant tensor:
#      x y z
#    x 2.086200 0.000000 0.000000 
#    y 0.000000 1.984820 0.000000 
#    z 0.000000 0.000000 2.037680 
# 
# From -- ./inp_files/14648.got.cif
#   From: 2010.05.17/outbox.cif.g08.bks.cpg/sg60_8_cif.got.tgz:14648.got - 2010.06.03 14:59:27.
