data_PCOD9457305
_publ_section_title
;
Structure prediction by ZEFSAII (Michael W. Deem and Ramdas Pophale) SiO2 
 PCOD9457305
Probable space group: P B C N
;
_chemical_formula_sum "Si O2"
_cell_formula_units_Z 40
_cell_length_a 7.735914
_cell_length_b 18.688772
_cell_length_c 13.032037
_cell_angle_alpha 90.000000
_cell_angle_beta 90.000000
_cell_angle_gamma 90.000000
_cell_volume 1884.103269
_symmetry_space_group_name_H-M "P B C N"
_symmetry_group_IT_number 60
_symmetry_cell_setting 'orthorhombic'
loop_
_space_group_symop_operation_xyz
x,y,z
1/2-x,1/2-y,1/2+z
1/2+x,1/2-y,-z
-x,y,1/2-z
-x,-y,-z
1/2+x,1/2+y,1/2-z
1/2-x,1/2+y,z
x,-y,1/2+z
loop_
_atom_site_type_symbol
_atom_site_label
_atom_site_fract_x
_atom_site_fract_y
_atom_site_fract_z
Si Si1 0.341136 0.074780 0.316468
Si Si2 0.192841 0.953175 0.405479
Si Si3 0.438246 0.699472 0.860136
Si Si4 0.094173 0.079242 0.123127
Si Si5 0.172503 0.188078 0.446257
O O1 0.500000 0.100271 0.250000
O O2 0.190463 0.077064 0.230221
O O3 0.303736 0.123644 0.415852
O O4 0.354051 0.993315 0.355245
O O5 0.127166 0.882061 0.351038
O O6 0.216676 0.932524 0.524334
O O7 0.042516 0.013922 0.393153
O O8 0.500000 0.726371 0.750000
O O9 0.275848 0.744266 0.903804
O O10 0.600209 0.699742 0.939456
O O11 0.999292 0.155764 0.108565
#
# Coordination Sequence:
#
# PCOD9457305 Si02
#       5
#     8   8   8   8   8
#     4  11  22  38  63  92 123 163 205 250 310 381
#     4   9  19  37  61  87 116 157 202 252 304 357
#     4  11  23  41  64  91 124 161 207 261 312 364
#     4   9  19  39  62  84 118 161 203 247 308 371
#     4  10  23  39  61  88 120 163 206 248 306 378
#
# _framework density 21.230257999999999
#
# number of rings (size 3 to 8) (size 9 to 14) (size 15 to 20)
#    0.000    2.000    0.000    5.400    0.000    8.800 
#    0.000   10.000    0.000    0.000    0.000    0.000 
#    0.000    0.000    0.000    0.000    0.000    0.000 
#
# Total GULP energy -222748.550632 kJ/mol
# GULP energy per Si atom -5568.713766 kJ/mol
# Density = 2.118194 g / cm^3
# Si number density = 21.230258 Si / 1000 Ang^3
#
#
#
# Elastic Constant Matrix: (Units=GPa)
#
#
# Indices 1 2 3 4 5 6 
#
# 1 39.0477 36.5977 46.5635 0.0000 0.0000 0.0000
# 2 36.5977 111.8907 41.8404 0.0000 0.0000 0.0000
# 3 46.5635 41.8404 154.3206 0.0000 0.0000 0.0000
# 4 0.0000 0.0000 0.0000 11.9322 0.0000 0.0000
# 5 0.0000 0.0000 0.0000 0.0000 27.7626 0.0000
# 6 0.0000 0.0000 0.0000 0.0000 0.0000 10.3573
#
#
#
# Elastic Compliance Matrix: (Units=1/GPa)
#
#
# Indices 1 2 3 4 5 6 
#
# 1 0.051861 -0.012365 -0.012296 0.000000 0.000000 0.000000
# 2 -0.012365 0.012894 0.000235 0.000000 0.000000 0.000000
# 3 -0.012296 0.000235 0.010126 0.000000 0.000000 0.000000
# 4 0.000000 0.000000 0.000000 0.083807 0.000000 0.000000
# 5 0.000000 0.000000 0.000000 0.000000 0.036020 0.000000
# 6 0.000000 0.000000 0.000000 0.000000 0.000000 0.096550
#
#
# Mechanical properties :
#
#
# Convention : Reuss Voigt Hill
#
# Bulk Modulus (GPa) = 38.41735 61.69579 50.05657
# Shear Modulus (GPa) = 14.33541 22.02758 18.18149
#
# Velocity S-wave (km/s) = 2.60135 3.22461 2.92960
# Velocity P-wave (km/s) = 5.21129 6.55649 5.92221
#
# Compressibility (1/GPa) = 0.02602990
#
# Stress axis : x y z
#
# Youngs Moduli (GPa) = 19.28219 77.55646 98.75300
#
# Poissons Ratio (x) = 0.95900 1.21424
# Poissons Ratio (y) = 0.23843 -0.02322
# Poissons Ratio (z) = 0.23709 -0.01823
#
# Static dielectric constant tensor:
#      x y z
#    x 1.909370 0.000000 0.000000 
#    y 0.000000 1.789970 0.000000 
#    z 0.000000 0.000000 1.809830 
# 
# From -- ./inp_files/14843.got.cif
#   From: 2010.05.17/outbox.cif.g08.bks.cpg/sg60_8_cif.got.tgz:14843.got - 2010.06.03 14:59:27.
