data_PCOD9457759
_publ_section_title
;
Structure prediction by ZEFSAII (Michael W. Deem and Ramdas Pophale) SiO2 
 PCOD9457759
Probable space group: P B C N
;
_chemical_formula_sum "Si O2"
_cell_formula_units_Z 64
_cell_length_a 30.686110
_cell_length_b 8.767116
_cell_length_c 11.824718
_cell_angle_alpha 90.000000
_cell_angle_beta 90.000000
_cell_angle_gamma 90.000000
_cell_volume 3181.188345
_symmetry_space_group_name_H-M "P B C N"
_symmetry_group_IT_number 60
_symmetry_cell_setting 'orthorhombic'
loop_
_space_group_symop_operation_xyz
x,y,z
1/2-x,1/2-y,1/2+z
1/2+x,1/2-y,-z
-x,y,1/2-z
-x,-y,-z
1/2+x,1/2+y,1/2-z
1/2-x,1/2+y,z
x,-y,1/2+z
loop_
_atom_site_type_symbol
_atom_site_label
_atom_site_fract_x
_atom_site_fract_y
_atom_site_fract_z
Si Si1 0.076374 0.812648 0.895068
Si Si2 0.600075 0.724932 0.350011
Si Si3 0.254259 0.982539 0.643436
Si Si4 0.959702 0.126561 0.680134
Si Si5 0.305501 0.284251 0.261426
Si Si6 0.394808 0.360003 0.138735
Si Si7 0.691086 0.760162 0.472817
Si Si8 0.513146 0.170765 0.968949
O O1 0.101283 0.751805 0.785243
O O2 0.028198 0.742646 0.905085
O O3 0.068643 0.993018 0.875313
O O4 0.100302 0.791503 0.014163
O O5 0.595202 0.541636 0.368144
O O6 0.644251 0.772154 0.412414
O O7 0.557570 0.809348 0.398399
O O8 0.287184 0.869198 0.705508
O O9 0.217714 0.882758 0.579396
O O10 0.230724 0.087600 0.736503
O O11 0.279975 0.092350 0.557701
O O12 0.929919 0.208268 0.773614
O O13 0.978235 0.234387 0.583653
O O14 0.000000 0.056772 0.750000
O O15 0.348220 0.335365 0.193927
O O16 0.314223 0.263209 0.393653
O O17 0.500000 0.000000 0.000000
#
# Coordination Sequence:
#
# PCOD9457759 Si02
#       8
#     8   8   8   8   8   8   8   8
#     4  11  23  43  66  94 131 172 230 277 320 394
#     4  11  24  42  67 100 133 177 225 278 332 395
#     4  10  24  44  69 104 135 180 221 277 351 410
#     4  11  21  39  68  92 124 170 226 272 324 388
#     4  11  23  43  71 101 137 177 224 277 344 402
#     4  11  22  40  70 101 125 173 228 278 324 398
#     4  11  23  46  70 104 141 175 228 283 340 416
#     4  12  25  43  65  93 136 178 219 277 338 401
#
# _framework density 20.118269000000002
#
# number of rings (size 3 to 8) (size 9 to 14) (size 15 to 20)
#    0.000    1.000    3.750    3.750    1.750    2.000 
#   15.750    0.000    0.000    0.000    0.000    0.000 
#    0.000    0.000    0.000    0.000    0.000    0.000 
#
# Total GULP energy -357828.769277 kJ/mol
# GULP energy per Si atom -5591.074520 kJ/mol
# Density = 2.007248 g / cm^3
# Si number density = 20.118269 Si / 1000 Ang^3
#
#
#
# Elastic Constant Matrix: (Units=GPa)
#
#
# Indices 1 2 3 4 5 6 
#
# 1 101.8714 32.3636 58.8404 0.0000 0.0000 0.0000
# 2 32.3636 77.9264 35.9614 0.0000 0.0000 0.0000
# 3 58.8404 35.9614 153.2801 0.0000 0.0000 0.0000
# 4 0.0000 0.0000 0.0000 10.6254 0.0000 0.0000
# 5 0.0000 0.0000 0.0000 0.0000 38.0664 0.0000
# 6 0.0000 0.0000 0.0000 0.0000 0.0000 -9.3581
#
#
#
# Elastic Compliance Matrix: (Units=1/GPa)
#
#
# Indices 1 2 3 4 5 6 
#
# 1 0.013454 -0.003593 -0.004322 0.000000 0.000000 0.000000
# 2 -0.003593 0.015350 -0.002222 0.000000 0.000000 0.000000
# 3 -0.004322 -0.002222 0.008704 0.000000 0.000000 0.000000
# 4 0.000000 0.000000 0.000000 0.094114 0.000000 0.000000
# 5 0.000000 0.000000 0.000000 0.000000 0.026270 0.000000
# 6 0.000000 0.000000 0.000000 0.000000 0.000000 -0.106860
#
#
# Mechanical properties :
#
#
# Convention : Reuss Voigt Hill
#
# Bulk Modulus (GPa) = 58.02202 65.26762 61.64482
# Shear Modulus (GPa) = 64.89142 21.59424 43.24283
#
# Velocity S-wave (km/s) = 5.68551 3.27978 4.64123
# Velocity P-wave (km/s) = 8.48546 6.84507 7.70902
#
# Compressibility (1/GPa) = 0.01723484
#
# Stress axis : x y z
#
# Youngs Moduli (GPa) = 74.32739 65.14509 114.88595
#
# Poissons Ratio (x) = 0.23408 0.49649
# Poissons Ratio (y) = 0.26708 0.25528
# Poissons Ratio (z) = 0.32122 0.14475
#
# Static dielectric constant tensor:
#      x y z
#    x 1.712080 0.000000 0.000000 
#    y 0.000000 1.711880 0.000000 
#    z 0.000000 0.000000 1.709390 
# 
# From -- ./inp_files/13388.got.cif
#   From: 2010.05.17/outbox.cif.g08.bks.cpg/sg60_7_cif.got.tgz:13388.got - 2010.06.03 14:59:27.
