data_PCOD9457972
_publ_section_title
;
Structure prediction by ZEFSAII (Michael W. Deem and Ramdas Pophale) SiO2 
 PCOD9457972
Probable space group: P B C N
;
_chemical_formula_sum "Si O2"
_cell_formula_units_Z 60
_cell_length_a 9.213575
_cell_length_b 11.886122
_cell_length_c 25.917397
_cell_angle_alpha 90.000000
_cell_angle_beta 90.000000
_cell_angle_gamma 90.000000
_cell_volume 2838.309431
_symmetry_space_group_name_H-M "P B C N"
_symmetry_group_IT_number 60
_symmetry_cell_setting 'orthorhombic'
loop_
_space_group_symop_operation_xyz
x,y,z
1/2-x,1/2-y,1/2+z
1/2+x,1/2-y,-z
-x,y,1/2-z
-x,-y,-z
1/2+x,1/2+y,1/2-z
1/2-x,1/2+y,z
x,-y,1/2+z
loop_
_atom_site_type_symbol
_atom_site_label
_atom_site_fract_x
_atom_site_fract_y
_atom_site_fract_z
Si Si1 0.111897 0.594568 0.440149
Si Si2 0.500000 0.103972 0.750000
Si Si3 0.707527 0.914657 0.791143
Si Si4 0.447761 0.870371 0.059423
Si Si5 0.564046 0.626448 0.089617
Si Si6 0.836635 0.789848 0.696041
Si Si7 0.018856 0.746313 0.345058
Si Si8 0.157443 0.043434 0.614400
O O1 0.061302 0.624372 0.497503
O O2 0.284660 0.605100 0.438506
O O3 0.043063 0.678196 0.398232
O O4 0.059815 0.469243 0.425535
O O5 0.444512 0.186169 0.794875
O O6 0.630390 0.023814 0.767013
O O7 0.811348 0.856923 0.749229
O O8 0.582599 0.827409 0.807772
O O9 0.784696 0.956373 0.842793
O O10 0.500641 0.748363 0.076357
O O11 0.293333 0.902060 0.084822
O O12 0.605913 0.631068 0.150431
O O13 0.448075 0.529789 0.078527
O O14 0.678583 0.743364 0.679320
O O15 0.937406 0.861141 0.357847
#
# Coordination Sequence:
#
# PCOD9457972 Si02
#       8
#     8   4   8   8   8   8   8   8
#     4  10  26  46  75 101 143 185 237 291 366 425
#     4  12  24  40  70  92 134 186 228 288 344 416
#     4  12  23  44  66  98 138 184 233 288 354 410
#     4  11  25  48  72 106 144 185 236 302 353 425
#     4  11  27  45  73 104 139 187 236 291 357 431
#     4  11  25  43  66 100 137 182 238 284 352 422
#     4  11  24  45  66 102 141 187 227 297 352 421
#     4  12  26  42  74 102 145 181 241 294 355 427
#
# _framework density 21.139344000000001
#
# number of rings (size 3 to 8) (size 9 to 14) (size 15 to 20)
#    0.000    0.800    2.667    3.200    7.467    1.600 
#    0.000    0.000    0.000    0.000    0.000    0.000 
#    0.000    0.000    0.000    0.000    0.000    0.000 
#
# Total GULP energy -335908.162892 kJ/mol
# GULP energy per Si atom -5598.469382 kJ/mol
# Density = 2.109123 g / cm^3
# Si number density = 21.139344 Si / 1000 Ang^3
#
#
#
# Elastic Constant Matrix: (Units=GPa)
#
#
# Indices 1 2 3 4 5 6 
#
# 1 98.9930 49.9734 3.1166 0.0000 0.0000 0.0000
# 2 49.9734 93.5436 6.7995 0.0000 0.0000 0.0000
# 3 3.1166 6.7995 53.5280 0.0000 0.0000 0.0000
# 4 0.0000 0.0000 0.0000 25.6988 0.0000 0.0000
# 5 0.0000 0.0000 0.0000 0.0000 14.0194 0.0000
# 6 0.0000 0.0000 0.0000 0.0000 0.0000 31.5728
#
#
#
# Elastic Compliance Matrix: (Units=1/GPa)
#
#
# Indices 1 2 3 4 5 6 
#
# 1 0.013833 -0.007400 0.000135 0.000000 0.000000 0.000000
# 2 -0.007400 0.014748 -0.001443 0.000000 0.000000 0.000000
# 3 0.000135 -0.001443 0.018857 0.000000 0.000000 0.000000
# 4 0.000000 0.000000 0.000000 0.038912 0.000000 0.000000
# 5 0.000000 0.000000 0.000000 0.000000 0.071330 0.000000
# 6 0.000000 0.000000 0.000000 0.000000 0.000000 0.031673
#
#
# Mechanical properties :
#
#
# Convention : Reuss Voigt Hill
#
# Bulk Modulus (GPa) = 33.30792 40.64932 36.97862
# Shear Modulus (GPa) = 23.06526 26.66988 24.86757
#
# Velocity S-wave (km/s) = 3.30677 3.55579 3.43354
# Velocity P-wave (km/s) = 5.51092 6.01075 5.76625
#
# Compressibility (1/GPa) = 0.03002289
#
# Stress axis : x y z
#
# Youngs Moduli (GPa) = 72.29092 67.80498 53.03008
#
# Poissons Ratio (x) = 0.50174 -0.00714
# Poissons Ratio (y) = 0.53493 0.07650
# Poissons Ratio (z) = -0.00973 0.09781
#
# Static dielectric constant tensor:
#      x y z
#    x 1.762710 0.000000 0.000000 
#    y 0.000000 1.720620 0.000000 
#    z 0.000000 0.000000 1.773700 
# 
# From -- ./inp_files/25213.got.cif
#   From: 2010.05.17/outbox.cif.g08.bks.cpg/sg60_13_cif.got.tgz:25213.got - 2010.06.03 14:59:27.
