data_PCOD9457723
_publ_section_title
;
Structure prediction by ZEFSAII (Michael W. Deem and Ramdas Pophale) SiO2 
 PCOD9457723
Probable space group: P B C N
;
_chemical_formula_sum "Si O2"
_cell_formula_units_Z 64
_cell_length_a 28.232380
_cell_length_b 12.147368
_cell_length_c 7.978458
_cell_angle_alpha 90.000000
_cell_angle_beta 90.000000
_cell_angle_gamma 90.000000
_cell_volume 2736.205065
_symmetry_space_group_name_H-M "P B C N"
_symmetry_group_IT_number 60
_symmetry_cell_setting 'orthorhombic'
loop_
_space_group_symop_operation_xyz
x,y,z
1/2-x,1/2-y,1/2+z
1/2+x,1/2-y,-z
-x,y,1/2-z
-x,-y,-z
1/2+x,1/2+y,1/2-z
1/2-x,1/2+y,z
x,-y,1/2+z
loop_
_atom_site_type_symbol
_atom_site_label
_atom_site_fract_x
_atom_site_fract_y
_atom_site_fract_z
Si Si1 0.440972 0.854409 0.904138
Si Si2 0.413397 0.386478 0.480875
Si Si3 0.394755 0.022185 0.712706
Si Si4 0.265538 0.498877 0.024342
Si Si5 0.551200 0.608219 0.163061
Si Si6 0.799832 0.604800 0.215759
Si Si7 0.680516 0.361382 0.235272
Si Si8 0.966722 0.657307 0.580362
O O1 0.439450 0.723682 0.918688
O O2 0.422494 0.905557 0.731468
O O3 0.405839 0.904341 0.049195
O O4 0.494502 0.885763 0.949228
O O5 0.439128 0.499936 0.441200
O O6 0.411552 0.377074 0.683086
O O7 0.366231 0.387868 0.370072
O O8 0.420893 0.089675 0.861407
O O9 0.341375 0.984008 0.747559
O O10 0.243549 0.578435 0.162471
O O11 0.309864 0.425751 0.090294
O O12 0.223739 0.416892 0.964708
O O13 0.278826 0.582928 0.877289
O O14 0.500000 0.598424 0.250000
O O15 0.549600 0.717771 0.051517
O O16 0.816222 0.729630 0.243962
O O17 0.000000 0.660665 0.750000
#
# Coordination Sequence:
#
# PCOD9457723 Si02
#       8
#     8   8   8   8   8   8   8   8
#     4  11  22  41  63  92 136 173 221 270 335 379
#     4  12  23  42  67  96 128 179 220 281 322 400
#     4  11  21  40  65  95 129 172 218 273 321 403
#     4  10  24  43  66  96 127 169 207 276 337 397
#     4  11  22  41  66  91 135 176 229 270 336 382
#     4  11  22  40  69  96 127 167 217 262 336 400
#     4  11  23  44  65  93 133 164 218 268 333 397
#     4   9  19  39  63  88 130 179 211 274 331 374
#
# _framework density 23.390060999999999
#
# number of rings (size 3 to 8) (size 9 to 14) (size 15 to 20)
#    0.000    1.250    5.000    3.000    0.000    0.000 
#    2.250    5.625    0.000    0.000    0.000    0.000 
#    0.000    0.000    0.000    0.000    0.000    0.000 
#
# Total GULP energy -357485.367361 kJ/mol
# GULP energy per Si atom -5585.708865 kJ/mol
# Density = 2.333682 g / cm^3
# Si number density = 23.390061 Si / 1000 Ang^3
#
#
#
# Elastic Constant Matrix: (Units=GPa)
#
#
# Indices 1 2 3 4 5 6 
#
# 1 62.9170 21.7891 -3.8258 0.0000 0.0000 0.0000
# 2 21.7891 144.1289 -0.5812 0.0000 0.0000 0.0000
# 3 -3.8258 -0.5812 38.5541 0.0000 0.0000 0.0000
# 4 0.0000 0.0000 0.0000 29.7683 0.0000 0.0000
# 5 0.0000 0.0000 0.0000 0.0000 36.3824 0.0000
# 6 0.0000 0.0000 0.0000 0.0000 0.0000 37.7922
#
#
#
# Elastic Compliance Matrix: (Units=1/GPa)
#
#
# Indices 1 2 3 4 5 6 
#
# 1 0.016875 -0.002544 0.001636 0.000000 0.000000 0.000000
# 2 -0.002544 0.007322 -0.000142 0.000000 0.000000 0.000000
# 3 0.001636 -0.000142 0.026098 0.000000 0.000000 0.000000
# 4 0.000000 0.000000 0.000000 0.033593 0.000000 0.000000
# 5 0.000000 0.000000 0.000000 0.000000 0.027486 0.000000
# 6 0.000000 0.000000 0.000000 0.000000 0.000000 0.026461
#
#
# Mechanical properties :
#
#
# Convention : Reuss Voigt Hill
#
# Bulk Modulus (GPa) = 20.74950 31.15157 25.95053
# Shear Modulus (GPa) = 32.05142 36.00310 34.02726
#
# Velocity S-wave (km/s) = 3.70577 3.92758 3.81829
# Velocity P-wave (km/s) = 5.21543 5.82366 5.52792
#
# Compressibility (1/GPa) = 0.04819393
#
# Stress axis : x y z
#
# Youngs Moduli (GPa) = 59.26050 136.56857 38.31741
#
# Poissons Ratio (x) = 0.34750 -0.06269
# Poissons Ratio (y) = 0.15079 0.00545
# Poissons Ratio (z) = -0.09696 0.01941
#
# Static dielectric constant tensor:
#      x y z
#    x 1.918450 0.000000 0.000000 
#    y 0.000000 1.885620 0.000000 
#    z 0.000000 0.000000 2.046620 
# 
# From -- ./inp_files/8505.got.cif
#   From: 2010.05.17/outbox.cif.g08.bks.cpg/sg60_5_cif.got.tgz:8505.got - 2010.06.03 14:59:27.
