data_PCOD9457973
_publ_section_title
;
Structure prediction by ZEFSAII (Michael W. Deem and Ramdas Pophale) SiO2 
 PCOD9457973
Probable space group: P B C N
;
_chemical_formula_sum "Si O2"
_cell_formula_units_Z 32
_cell_length_a 5.233563
_cell_length_b 9.089422
_cell_length_c 26.824134
_cell_angle_alpha 90.000000
_cell_angle_beta 90.000000
_cell_angle_gamma 90.000000
_cell_volume 1276.025735
_symmetry_space_group_name_H-M "P B C N"
_symmetry_group_IT_number 60
_symmetry_cell_setting 'orthorhombic'
loop_
_space_group_symop_operation_xyz
x,y,z
1/2-x,1/2-y,1/2+z
1/2+x,1/2-y,-z
-x,y,1/2-z
-x,-y,-z
1/2+x,1/2+y,1/2-z
1/2-x,1/2+y,z
x,-y,1/2+z
loop_
_atom_site_type_symbol
_atom_site_label
_atom_site_fract_x
_atom_site_fract_y
_atom_site_fract_z
Si Si1 0.897937 0.833358 0.609687
Si Si2 0.566934 0.164114 0.017468
Si Si3 0.252595 0.079721 0.632020
Si Si4 0.539496 0.830386 0.691480
O O1 0.647210 0.838818 0.575816
O O2 0.823500 0.838461 0.668237
O O3 0.074111 0.973903 0.599085
O O4 0.050092 0.682482 0.602450
O O5 0.325125 0.267763 0.006477
O O6 0.500000 0.000000 0.000000
O O7 0.403635 0.974138 0.669474
O O8 0.082013 0.188572 0.665018
O O9 0.500000 0.822450 0.750000
#
# Coordination Sequence:
#
# PCOD9457973 Si02
#       4
#     8   8   8   8
#     4  11  27  50  79 114 162 211 272 338 413 494
#     4  12  32  56  90 125 169 220 284 348 424 499
#     4  10  26  46  76 110 161 209 264 329 414 484
#     4  11  26  43  78 111 157 205 268 333 413 493
#
# _framework density 25.077866
#
# number of rings (size 3 to 8) (size 9 to 14) (size 15 to 20)
#    0.000    1.000    0.000    2.250   21.000    2.000 
#    0.000    0.000    0.000    0.000    0.000    0.000 
#    0.000    0.000    0.000    0.000    0.000    0.000 
#
# Total GULP energy -179617.936558 kJ/mol
# GULP energy per Si atom -5613.060517 kJ/mol
# Density = 2.502079 g / cm^3
# Si number density = 25.077866 Si / 1000 Ang^3
#
#
#
# Elastic Constant Matrix: (Units=GPa)
#
#
# Indices 1 2 3 4 5 6 
#
# 1 153.0815 80.3865 51.3850 0.0000 0.0000 0.0000
# 2 80.3865 208.5621 50.7554 0.0000 0.0000 0.0000
# 3 51.3850 50.7554 149.3315 0.0000 0.0000 0.0000
# 4 0.0000 0.0000 0.0000 15.4922 0.0000 0.0000
# 5 0.0000 0.0000 0.0000 0.0000 31.7951 0.0000
# 6 0.0000 0.0000 0.0000 0.0000 0.0000 54.4539
#
#
#
# Elastic Compliance Matrix: (Units=1/GPa)
#
#
# Indices 1 2 3 4 5 6 
#
# 1 0.008718 -0.002867 -0.002025 0.000000 0.000000 0.000000
# 2 -0.002867 0.006170 -0.001110 0.000000 0.000000 0.000000
# 3 -0.002025 -0.001110 0.007771 0.000000 0.000000 0.000000
# 4 0.000000 0.000000 0.000000 0.064549 0.000000 0.000000
# 5 0.000000 0.000000 0.000000 0.000000 0.031451 0.000000
# 6 0.000000 0.000000 0.000000 0.000000 0.000000 0.018364
#
#
# Mechanical properties :
#
#
# Convention : Reuss Voigt Hill
#
# Bulk Modulus (GPa) = 93.87235 97.33654 95.60444
# Shear Modulus (GPa) = 32.76959 42.24478 37.50719
#
# Velocity S-wave (km/s) = 3.61877 4.10877 3.87153
# Velocity P-wave (km/s) = 7.41446 7.83628 7.62829
#
# Compressibility (1/GPa) = 0.01065276
#
# Stress axis : x y z
#
# Youngs Moduli (GPa) = 114.70522 162.07092 128.68592
#
# Poissons Ratio (x) = 0.46471 0.26063
# Poissons Ratio (y) = 0.32890 0.14290
# Poissons Ratio (z) = 0.23231 0.17998
#
# Static dielectric constant tensor:
#      x y z
#    x 2.014580 0.000000 0.000000 
#    y 0.000000 1.929840 0.000000 
#    z 0.000000 0.000000 2.000200 
# 
# From -- ./inp_files/25571.got.cif
#   From: 2010.05.17/outbox.cif.g08.bks.cpg/sg60_13_cif.got.tgz:25571.got - 2010.06.03 14:59:27.
