data_PCOD9457185
_publ_section_title
;
Structure prediction by ZEFSAII (Michael W. Deem and Ramdas Pophale) SiO2 
 PCOD9457185
Probable space group: P B C N
;
_chemical_formula_sum "Si O2"
_cell_formula_units_Z 40
_cell_length_a 8.179964
_cell_length_b 25.990246
_cell_length_c 8.514357
_cell_angle_alpha 90.000000
_cell_angle_beta 90.000000
_cell_angle_gamma 90.000000
_cell_volume 1810.146139
_symmetry_space_group_name_H-M "P B C N"
_symmetry_group_IT_number 60
_symmetry_cell_setting 'orthorhombic'
loop_
_space_group_symop_operation_xyz
x,y,z
1/2-x,1/2-y,1/2+z
1/2+x,1/2-y,-z
-x,y,1/2-z
-x,-y,-z
1/2+x,1/2+y,1/2-z
1/2-x,1/2+y,z
x,-y,1/2+z
loop_
_atom_site_type_symbol
_atom_site_label
_atom_site_fract_x
_atom_site_fract_y
_atom_site_fract_z
Si Si1 0.057374 0.123658 0.572831
Si Si2 0.294994 0.301696 0.550123
Si Si3 0.500000 0.979631 0.250000
Si Si4 0.000000 0.346975 0.750000
Si Si5 0.671394 0.935597 0.552830
Si Si6 0.168179 0.697497 0.705003
O O1 0.141334 0.076528 0.484657
O O2 0.201050 0.165552 0.605408
O O3 0.000000 0.110217 0.750000
O O4 0.917834 0.150271 0.468068
O O5 0.374325 0.250366 0.618501
O O6 0.249632 0.290107 0.370998
O O7 0.135520 0.315062 0.653680
O O8 0.582405 0.947585 0.388406
O O9 0.367115 0.016996 0.332283
O O10 0.907367 0.385277 0.631695
O O11 0.000000 0.669131 0.750000
#
# Coordination Sequence:
#
# PCOD9457185 Si02
#       6
#     8   8   4   4   8   8
#     4  10  24  41  65 100 136 176 225 279 330 405
#     4  11  26  41  63  99 137 184 233 274 331 383
#     4   9  22  44  78  96 126 172 216 284 354 427
#     4  11  26  40  70  96 130 182 224 276 328 407
#     4  10  22  44  71  99 128 168 223 273 345 416
#     4  11  24  40  64  92 136 189 226 276 322 391
#
# _framework density 22.097662
#
# number of rings (size 3 to 8) (size 9 to 14) (size 15 to 20)
#    0.000    1.600    0.000    2.400   19.600    0.000 
#    0.000    1.000    0.000    0.000    0.000    0.000 
#    0.000    0.000    0.000    0.000    0.000    0.000 
#
# Total GULP energy -223750.600963 kJ/mol
# GULP energy per Si atom -5593.765024 kJ/mol
# Density = 2.204737 g / cm^3
# Si number density = 22.097662 Si / 1000 Ang^3
#
#
#
# Elastic Constant Matrix: (Units=GPa)
#
#
# Indices 1 2 3 4 5 6 
#
# 1 84.1016 11.4476 25.9534 0.0000 0.0000 0.0000
# 2 11.4476 41.5230 34.4059 0.0000 0.0000 0.0000
# 3 25.9534 34.4059 113.1352 0.0000 0.0000 0.0000
# 4 0.0000 0.0000 0.0000 11.3627 0.0000 0.0000
# 5 0.0000 0.0000 0.0000 0.0000 39.7711 0.0000
# 6 0.0000 0.0000 0.0000 0.0000 0.0000 7.7903
#
#
#
# Elastic Compliance Matrix: (Units=1/GPa)
#
#
# Indices 1 2 3 4 5 6 
#
# 1 0.012863 -0.001472 -0.002503 0.000000 0.000000 0.000000
# 2 -0.001472 0.032365 -0.009505 0.000000 0.000000 0.000000
# 3 -0.002503 -0.009505 0.012304 0.000000 0.000000 0.000000
# 4 0.000000 0.000000 0.000000 0.088007 0.000000 0.000000
# 5 0.000000 0.000000 0.000000 0.000000 0.025144 0.000000
# 6 0.000000 0.000000 0.000000 0.000000 0.000000 0.128365
#
#
# Mechanical properties :
#
#
# Convention : Reuss Voigt Hill
#
# Bulk Modulus (GPa) = 32.71042 42.48596 37.59819
# Shear Modulus (GPa) = 14.87220 22.91501 18.89361
#
# Velocity S-wave (km/s) = 2.59708 3.22372 2.92722
# Velocity P-wave (km/s) = 4.88138 5.75541 5.33632
#
# Compressibility (1/GPa) = 0.03057130
#
# Stress axis : x y z
#
# Youngs Moduli (GPa) = 77.74101 30.89803 81.27629
#
# Poissons Ratio (x) = 0.04549 0.20344
# Poissons Ratio (y) = 0.11445 0.77251
# Poissons Ratio (z) = 0.19460 0.29368
#
# Static dielectric constant tensor:
#      x y z
#    x 1.836420 0.000000 0.000000 
#    y 0.000000 1.796580 0.000000 
#    z 0.000000 0.000000 1.822820 
# 
# From -- ./inp_files/3894.got.cif
#   From: 2010.05.17/outbox.cif.g08.bks.cpg/sg60_2_cif.got.tgz:3894.got - 2010.06.03 14:59:27.
