data_PCOD9457886
_publ_section_title
;
Structure prediction by ZEFSAII (Michael W. Deem and Ramdas Pophale) SiO2 
 PCOD9457886
Probable space group: P B C N
;
_chemical_formula_sum "Si O2"
_cell_formula_units_Z 48
_cell_length_a 4.675493
_cell_length_b 24.686986
_cell_length_c 15.239240
_cell_angle_alpha 90.000000
_cell_angle_beta 90.000000
_cell_angle_gamma 90.000000
_cell_volume 1758.971451
_symmetry_space_group_name_H-M "P B C N"
_symmetry_group_IT_number 60
_symmetry_cell_setting 'orthorhombic'
loop_
_space_group_symop_operation_xyz
x,y,z
1/2-x,1/2-y,1/2+z
1/2+x,1/2-y,-z
-x,y,1/2-z
-x,-y,-z
1/2+x,1/2+y,1/2-z
1/2-x,1/2+y,z
x,-y,1/2+z
loop_
_atom_site_type_symbol
_atom_site_label
_atom_site_fract_x
_atom_site_fract_y
_atom_site_fract_z
Si Si1 0.766961 0.011402 0.671008
Si Si2 0.394331 0.129693 0.845556
Si Si3 0.749746 0.187267 0.191095
Si Si4 0.471921 0.578694 0.535921
Si Si5 0.522629 0.088479 0.410644
Si Si6 0.558769 0.234660 0.943728
O O1 0.562589 0.064716 0.666661
O O2 0.951595 0.022787 0.583541
O O3 0.000000 0.009053 0.750000
O O4 0.568557 0.959711 0.654495
O O5 0.500000 0.150681 0.750000
O O6 0.519860 0.173407 0.912956
O O7 0.069173 0.121451 0.886631
O O8 0.500000 0.213728 0.250000
O O9 0.584477 0.142906 0.134327
O O10 0.000000 0.160264 0.250000
O O11 0.923083 0.228814 0.131884
O O12 0.156378 0.578942 0.499527
O O13 0.659772 0.591403 0.449067
O O14 0.376689 0.248544 0.030943
#
# Coordination Sequence:
#
# PCOD9457886 Si02
#       6
#     8   8   8   8   8   8
#     4  10  25  41  70 103 143 182 234 285 348 408
#     4  10  25  43  71 104 139 178 229 288 355 403
#     4  12  26  44  71 101 138 180 230 283 343 413
#     4  10  25  42  70  99 138 183 232 281 342 408
#     4  12  23  47  68 102 141 187 233 279 346 410
#     4  12  26  49  74 101 137 181 233 287 349 417
#
# _framework density 27.288672999999999
#
# number of rings (size 3 to 8) (size 9 to 14) (size 15 to 20)
#    1.000    0.000    0.000    6.000    2.333    4.000 
#    0.000    0.000    0.000    0.000    0.000    0.000 
#    0.000    0.000    0.000    0.000    0.000    0.000 
#
# Total GULP energy -268417.008286 kJ/mol
# GULP energy per Si atom -5592.021006 kJ/mol
# Density = 2.722656 g / cm^3
# Si number density = 27.288673 Si / 1000 Ang^3
#
#
#
# Elastic Constant Matrix: (Units=GPa)
#
#
# Indices 1 2 3 4 5 6 
#
# 1 79.4210 -1.3591 19.4879 0.0000 0.0000 0.0000
# 2 -1.3591 113.2037 26.0346 0.0000 0.0000 0.0000
# 3 19.4879 26.0346 148.7732 0.0000 0.0000 0.0000
# 4 0.0000 0.0000 0.0000 26.5375 0.0000 0.0000
# 5 0.0000 0.0000 0.0000 0.0000 58.0695 0.0000
# 6 0.0000 0.0000 0.0000 0.0000 0.0000 33.8534
#
#
#
# Elastic Compliance Matrix: (Units=1/GPa)
#
#
# Indices 1 2 3 4 5 6 
#
# 1 0.013045 0.000573 -0.001809 0.000000 0.000000 0.000000
# 2 0.000573 0.009229 -0.001690 0.000000 0.000000 0.000000
# 3 -0.001809 -0.001690 0.007254 0.000000 0.000000 0.000000
# 4 0.000000 0.000000 0.000000 0.037683 0.000000 0.000000
# 5 0.000000 0.000000 0.000000 0.000000 0.017221 0.000000
# 6 0.000000 0.000000 0.000000 0.000000 0.000000 0.029539
#
#
# Mechanical properties :
#
#
# Convention : Reuss Voigt Hill
#
# Bulk Modulus (GPa) = 42.23766 47.74719 44.99242
# Shear Modulus (GPa) = 39.14956 43.50772 41.32864
#
# Velocity S-wave (km/s) = 3.79178 3.99726 3.89588
# Velocity P-wave (km/s) = 5.88913 6.23211 6.06305
#
# Compressibility (1/GPa) = 0.02367556
#
# Stress axis : x y z
#
# Youngs Moduli (GPa) = 76.65895 108.35188 137.84833
#
# Poissons Ratio (x) = -0.06205 0.24936
# Poissons Ratio (y) = -0.04390 0.23297
# Poissons Ratio (z) = 0.13867 0.18312
#
# Static dielectric constant tensor:
#      x y z
#    x 2.139880 0.000000 0.000000 
#    y 0.000000 2.092660 0.000000 
#    z 0.000000 0.000000 2.279560 
# 
# From -- ./inp_files/13938.got.cif
#   From: 2010.05.17/outbox.cif.g08.bks.cpg/sg60_7_cif.got.tgz:13938.got - 2010.06.03 14:59:27.
