data_PCOD9457073
_publ_section_title
;
Structure prediction by ZEFSAII (Michael W. Deem and Ramdas Pophale) SiO2 
 PCOD9457073
Probable space group: P B C N
;
_chemical_formula_sum "Si O2"
_cell_formula_units_Z 40
_cell_length_a 22.858156
_cell_length_b 8.794457
_cell_length_c 9.147554
_cell_angle_alpha 90.000000
_cell_angle_beta 90.000000
_cell_angle_gamma 90.000000
_cell_volume 1838.887684
_symmetry_space_group_name_H-M "P B C N"
_symmetry_group_IT_number 60
_symmetry_cell_setting 'orthorhombic'
loop_
_space_group_symop_operation_xyz
x,y,z
1/2-x,1/2-y,1/2+z
1/2+x,1/2-y,-z
-x,y,1/2-z
-x,-y,-z
1/2+x,1/2+y,1/2-z
1/2-x,1/2+y,z
x,-y,1/2+z
loop_
_atom_site_type_symbol
_atom_site_label
_atom_site_fract_x
_atom_site_fract_y
_atom_site_fract_z
Si Si1 0.126633 0.351792 0.190088
Si Si2 0.500000 0.759639 0.250000
Si Si3 0.500000 0.500000 0.000000
Si Si4 0.314851 0.828316 0.698807
Si Si5 0.707329 0.337399 0.589248
Si Si6 0.374245 0.626101 0.917674
O O1 0.152912 0.516756 0.159277
O O2 0.164755 0.266894 0.312940
O O3 0.059565 0.356674 0.244558
O O4 0.130174 0.249311 0.045588
O O5 0.497809 0.650542 0.108569
O O6 0.562437 0.449379 0.076312
O O7 0.283683 0.749204 0.562442
O O8 0.266820 0.860493 0.822674
O O9 0.361333 0.709030 0.764736
O O10 0.674561 0.496162 0.562689
#
# Coordination Sequence:
#
# PCOD9457073 Si02
#       6
#     8   4   4   8   8   8
#     4  11  24  45  68 107 142 179 231 288 349 407
#     4  10  22  44  70 102 144 180 228 286 340 420
#     4  10  22  42  72 100 138 180 234 278 334 424
#     4  12  27  45  71 103 141 180 232 293 351 404
#     4  12  25  46  72 100 139 188 233 281 345 422
#     4  11  24  45  70 102 137 186 232 278 342 418
#
# _framework density 21.752279000000001
#
# number of rings (size 3 to 8) (size 9 to 14) (size 15 to 20)
#    0.000    0.800    2.000    4.800    2.800    4.800 
#    3.600    5.000    0.000    0.000    0.000    0.000 
#    0.000    0.000    0.000    0.000    0.000    0.000 
#
# Total GULP energy -223106.303774 kJ/mol
# GULP energy per Si atom -5577.657594 kJ/mol
# Density = 2.170277 g / cm^3
# Si number density = 21.752279 Si / 1000 Ang^3
#
#
#
# Elastic Constant Matrix: (Units=GPa)
#
#
# Indices 1 2 3 4 5 6 
#
# 1 111.2408 46.7793 4.1657 0.0000 0.0000 0.0000
# 2 46.7793 130.6982 23.1930 0.0000 0.0000 0.0000
# 3 4.1657 23.1930 61.9341 0.0000 0.0000 0.0000
# 4 0.0000 0.0000 0.0000 29.8464 0.0000 0.0000
# 5 0.0000 0.0000 0.0000 0.0000 16.4470 0.0000
# 6 0.0000 0.0000 0.0000 0.0000 0.0000 26.5293
#
#
#
# Elastic Compliance Matrix: (Units=1/GPa)
#
#
# Indices 1 2 3 4 5 6 
#
# 1 0.010615 -0.003934 0.000759 0.000000 0.000000 0.000000
# 2 -0.003934 0.009654 -0.003351 0.000000 0.000000 0.000000
# 3 0.000759 -0.003351 0.017350 0.000000 0.000000 0.000000
# 4 0.000000 0.000000 0.000000 0.033505 0.000000 0.000000
# 5 0.000000 0.000000 0.000000 0.000000 0.060801 0.000000
# 6 0.000000 0.000000 0.000000 0.000000 0.000000 0.037694
#
#
# Mechanical properties :
#
#
# Convention : Reuss Voigt Hill
#
# Bulk Modulus (GPa) = 40.70297 50.23881 45.47089
# Shear Modulus (GPa) = 26.19719 29.88022 28.03871
#
# Velocity S-wave (km/s) = 3.47413 3.71031 3.59416
# Velocity P-wave (km/s) = 5.90300 6.44215 6.17846
#
# Compressibility (1/GPa) = 0.02456823
#
# Stress axis : x y z
#
# Youngs Moduli (GPa) = 94.20189 103.58489 57.63739
#
# Poissons Ratio (x) = 0.40753 -0.04376
# Poissons Ratio (y) = 0.37061 0.19312
# Poissons Ratio (z) = -0.07153 0.34707
#
# Static dielectric constant tensor:
#      x y z
#    x 1.780290 0.000000 0.000000 
#    y 0.000000 1.749450 0.000000 
#    z 0.000000 0.000000 1.807540 
# 
# From -- ./inp_files/7780.got.cif
#   From: 2010.05.17/outbox.cif.g08.bks.cpg/sg60_4_cif.got.tgz:7780.got - 2010.06.03 14:59:27.
