data_PCOD9457222
_publ_section_title
;
Structure prediction by ZEFSAII (Michael W. Deem and Ramdas Pophale) SiO2 
 PCOD9457222
Probable space group: P B C N
;
_chemical_formula_sum "Si O2"
_cell_formula_units_Z 32
_cell_length_a 11.492773
_cell_length_b 8.143446
_cell_length_c 13.305972
_cell_angle_alpha 90.000000
_cell_angle_beta 90.000000
_cell_angle_gamma 90.000000
_cell_volume 1245.316249
_symmetry_space_group_name_H-M "P B C N"
_symmetry_group_IT_number 60
_symmetry_cell_setting 'orthorhombic'
loop_
_space_group_symop_operation_xyz
x,y,z
1/2-x,1/2-y,1/2+z
1/2+x,1/2-y,-z
-x,y,1/2-z
-x,-y,-z
1/2+x,1/2+y,1/2-z
1/2-x,1/2+y,z
x,-y,1/2+z
loop_
_atom_site_type_symbol
_atom_site_label
_atom_site_fract_x
_atom_site_fract_y
_atom_site_fract_z
Si Si1 0.625722 0.033407 0.263597
Si Si2 0.265825 0.820992 0.079003
Si Si3 0.444852 0.479391 0.609754
Si Si4 0.171432 0.198371 0.350555
O O1 0.500000 0.107521 0.250000
O O2 0.655267 0.970455 0.375993
O O3 0.628946 0.875096 0.187908
O O4 0.725997 0.146436 0.222019
O O5 0.354029 0.671591 0.100060
O O6 0.139527 0.865073 0.129743
O O7 0.226825 0.809099 0.962231
O O8 0.500000 0.500000 0.500000
O O9 0.563879 0.426610 0.665058
#
# Coordination Sequence:
#
# PCOD9457222 Si02
#       4
#     8   8   8   8
#     4  12  26  47  73 105 144 190 243 301 359 447
#     4  11  23  45  74 103 141 192 235 302 370 421
#     4  10  22  45  72  99 142 187 233 301 359 435
#     4  11  25  48  68 107 143 187 244 301 367 433
#
# _framework density 25.696282
#
# number of rings (size 3 to 8) (size 9 to 14) (size 15 to 20)
#    0.000    1.000    2.500    4.500    0.000    1.000 
#   27.000    0.000    0.000    0.000    0.000    0.000 
#    0.000    0.000    0.000    0.000    0.000    0.000 
#
# Total GULP energy -178751.150944 kJ/mol
# GULP energy per Si atom -5585.973467 kJ/mol
# Density = 2.563780 g / cm^3
# Si number density = 25.696282 Si / 1000 Ang^3
#
#
#
# Elastic Constant Matrix: (Units=GPa)
#
#
# Indices 1 2 3 4 5 6 
#
# 1 252.4650 72.5643 64.1749 0.0000 0.0000 0.0000
# 2 72.5643 60.1258 9.8531 0.0000 0.0000 0.0000
# 3 64.1749 9.8531 110.9645 0.0000 0.0000 0.0000
# 4 0.0000 0.0000 0.0000 30.8721 0.0000 0.0000
# 5 0.0000 0.0000 0.0000 0.0000 60.8501 0.0000
# 6 0.0000 0.0000 0.0000 0.0000 0.0000 30.4670
#
#
#
# Elastic Compliance Matrix: (Units=1/GPa)
#
#
# Indices 1 2 3 4 5 6 
#
# 1 0.007148 -0.008067 -0.003418 0.000000 0.000000 0.000000
# 2 -0.008067 0.025981 0.002359 0.000000 0.000000 0.000000
# 3 -0.003418 0.002359 0.010779 0.000000 0.000000 0.000000
# 4 0.000000 0.000000 0.000000 0.032392 0.000000 0.000000
# 5 0.000000 0.000000 0.000000 0.000000 0.016434 0.000000
# 6 0.000000 0.000000 0.000000 0.000000 0.000000 0.032822
#
#
# Mechanical properties :
#
#
# Convention : Reuss Voigt Hill
#
# Bulk Modulus (GPa) = 38.97741 79.63778 59.30759
# Shear Modulus (GPa) = 32.81661 42.90205 37.85933
#
# Velocity S-wave (km/s) = 3.57752 4.09048 3.84257
# Velocity P-wave (km/s) = 5.68035 7.30538 6.54351
#
# Compressibility (1/GPa) = 0.02565589
#
# Stress axis : x y z
#
# Youngs Moduli (GPa) = 139.89073 38.48915 92.77168
#
# Poissons Ratio (x) = 0.31050 0.31708
# Poissons Ratio (y) = 1.12852 -0.21880
# Poissons Ratio (z) = 0.47813 -0.09078
#
# Static dielectric constant tensor:
#      x y z
#    x 1.864530 0.000000 0.000000 
#    y 0.000000 2.186300 0.000000 
#    z 0.000000 0.000000 2.221760 
# 
# From -- ./inp_files/15582.got.cif
#   From: 2010.05.17/outbox.cif.g08.bks.cpg/sg60_8_cif.got.tgz:15582.got - 2010.06.03 14:59:27.
