data_PCOD9457462
_publ_section_title
;
Structure prediction by ZEFSAII (Michael W. Deem and Ramdas Pophale) SiO2 
 PCOD9457462
Probable space group: P B C N
;
_chemical_formula_sum "Si O2"
_cell_formula_units_Z 44
_cell_length_a 4.755289
_cell_length_b 16.752475
_cell_length_c 24.508215
_cell_angle_alpha 90.000000
_cell_angle_beta 90.000000
_cell_angle_gamma 90.000000
_cell_volume 1952.394503
_symmetry_space_group_name_H-M "P B C N"
_symmetry_group_IT_number 60
_symmetry_cell_setting 'orthorhombic'
loop_
_space_group_symop_operation_xyz
x,y,z
1/2-x,1/2-y,1/2+z
1/2+x,1/2-y,-z
-x,y,1/2-z
-x,-y,-z
1/2+x,1/2+y,1/2-z
1/2-x,1/2+y,z
x,-y,1/2+z
loop_
_atom_site_type_symbol
_atom_site_label
_atom_site_fract_x
_atom_site_fract_y
_atom_site_fract_z
Si Si1 0.378166 0.452485 0.140925
Si Si2 0.500000 0.369395 0.250000
Si Si3 0.863687 0.193642 0.936632
Si Si4 0.500000 0.853014 0.750000
Si Si5 0.379451 0.939147 0.859295
Si Si6 0.500000 0.758471 0.250000
Si Si7 0.362327 0.697428 0.435734
O O1 0.358416 0.420828 0.202658
O O2 0.299335 0.380809 0.101101
O O3 0.695468 0.481570 0.133867
O O4 0.193196 0.530762 0.130415
O O5 0.760216 0.317152 0.224161
O O6 0.675448 0.271844 0.924803
O O7 0.179583 0.222743 0.927315
O O8 0.829607 0.174415 0.000662
O O9 0.238095 0.801090 0.724607
O O10 0.369818 0.905110 0.798089
O O11 0.257454 0.871501 0.898241
#
# Coordination Sequence:
#
# PCOD9457462 Si02
#       7
#     8   4   8   4   8   4   8
#     4  12  25  41  65  96 135 175 211 270 330 396
#     4  11  24  41  64  95 135 170 220 268 329 381
#     4  10  23  43  67  95 129 170 222 278 325 382
#     4  11  24  41  64  95 135 170 220 268 329 381
#     4  12  25  41  65  96 135 175 211 270 330 396
#     4  10  24  40  64  96 120 178 218 278 300 386
#     4  10  23  43  67  95 129 170 222 278 325 382
#
# _framework density 22.536427
#
# number of rings (size 3 to 8) (size 9 to 14) (size 15 to 20)
#    0.000    1.091    0.000    5.455    7.636    1.455 
#    0.000    0.000    0.000    0.000    0.000    0.000 
#    0.000    0.000    0.000    0.000    0.000    0.000 
#
# Total GULP energy -245638.097445 kJ/mol
# GULP energy per Si atom -5582.684033 kJ/mol
# Density = 2.248513 g / cm^3
# Si number density = 22.536427 Si / 1000 Ang^3
#
#
#
# Elastic Constant Matrix: (Units=GPa)
#
#
# Indices 1 2 3 4 5 6 
#
# 1 99.5830 10.2151 11.2897 0.0000 0.0000 0.0000
# 2 10.2151 90.6853 62.7389 0.0000 0.0000 0.0000
# 3 11.2897 62.7389 98.4823 0.0000 0.0000 0.0000
# 4 0.0000 0.0000 0.0000 13.7665 0.0000 0.0000
# 5 0.0000 0.0000 0.0000 0.0000 -99.8205 0.0000
# 6 0.0000 0.0000 0.0000 0.0000 0.0000 12.8668
#
#
#
# Elastic Compliance Matrix: (Units=1/GPa)
#
#
# Indices 1 2 3 4 5 6 
#
# 1 0.010193 -0.000608 -0.000781 0.000000 0.000000 0.000000
# 2 -0.000608 0.019753 -0.012514 0.000000 0.000000 0.000000
# 3 -0.000781 -0.012514 0.018216 0.000000 0.000000 0.000000
# 4 0.000000 0.000000 0.000000 0.072640 0.000000 0.000000
# 5 0.000000 0.000000 0.000000 0.000000 -0.010018 0.000000
# 6 0.000000 0.000000 0.000000 0.000000 0.000000 0.077719
#
#
# Mechanical properties :
#
#
# Convention : Reuss Voigt Hill
#
# Bulk Modulus (GPa) = 49.12669 50.80422 49.96545
# Shear Modulus (GPa) = 22.41191 -1.00363 10.70414
#
# Velocity S-wave (km/s) = 3.15695 -0.66806 2.18175
# Velocity P-wave (km/s) = 5.92744 4.69010 5.34470
#
# Compressibility (1/GPa) = 0.02035553
#
# Stress axis : x y z
#
# Youngs Moduli (GPa) = 98.10865 50.62408 54.89647
#
# Poissons Ratio (x) = 0.03076 0.04290
# Poissons Ratio (y) = 0.05960 0.68700
# Poissons Ratio (z) = 0.07666 0.63353
#
# Static dielectric constant tensor:
#      x y z
#    x 1.813570 0.000000 0.000000 
#    y 0.000000 1.834230 0.000000 
#    z 0.000000 0.000000 1.812080 
# 
# From -- ./inp_files/24837.got.cif
#   From: 2010.05.17/outbox.cif.g08.bks.cpg/sg60_13_cif.got.tgz:24837.got - 2010.06.03 14:59:27.
