data_PCOD9457848
_publ_section_title
;
Structure prediction by ZEFSAII (Michael W. Deem and Ramdas Pophale) SiO2 
 PCOD9457848
Probable space group: P B C N
;
_chemical_formula_sum "Si O2"
_cell_formula_units_Z 56
_cell_length_a 14.765128
_cell_length_b 13.785165
_cell_length_c 12.603827
_cell_angle_alpha 90.000000
_cell_angle_beta 90.000000
_cell_angle_gamma 90.000000
_cell_volume 2565.379491
_symmetry_space_group_name_H-M "P B C N"
_symmetry_group_IT_number 60
_symmetry_cell_setting 'orthorhombic'
loop_
_space_group_symop_operation_xyz
x,y,z
1/2-x,1/2-y,1/2+z
1/2+x,1/2-y,-z
-x,y,1/2-z
-x,-y,-z
1/2+x,1/2+y,1/2-z
1/2-x,1/2+y,z
x,-y,1/2+z
loop_
_atom_site_type_symbol
_atom_site_label
_atom_site_fract_x
_atom_site_fract_y
_atom_site_fract_z
Si Si1 0.694376 0.299103 0.999571
Si Si2 0.351578 0.047308 0.034738
Si Si3 0.101544 0.874359 0.284112
Si Si4 0.226140 0.895097 0.081146
Si Si5 0.518937 0.036179 0.626806
Si Si6 0.984755 0.237613 0.374908
Si Si7 0.420889 0.452022 0.931018
O O1 0.780830 0.366067 0.971520
O O2 0.734789 0.192334 0.987060
O O3 0.612631 0.301105 0.914015
O O4 0.647676 0.322826 0.113370
O O5 0.309205 0.964071 0.108569
O O6 0.453742 0.047770 0.079821
O O7 0.378490 0.018272 0.913783
O O8 0.166619 0.866502 0.182335
O O9 0.000000 0.841082 0.250000
O O10 0.090025 0.986406 0.323824
O O11 0.167397 0.960779 0.002128
O O12 0.500000 0.032288 0.750000
O O13 0.497606 0.149547 0.596840
O O14 0.000000 0.230600 0.250000
O O15 0.056750 0.161453 0.421815
O O16 0.500000 0.500000 0.000000
#
# Coordination Sequence:
#
# PCOD9457848 Si02
#       7
#     8   8   8   8   8   8   8
#     4  12  26  47  70 109 148 189 254 304 363 443
#     4  11  24  45  70 100 140 187 234 303 355 432
#     4  12  26  46  74 106 150 190 242 310 375 439
#     4  12  26  46  69 107 148 184 243 306 362 438
#     4  10  24  47  71  96 142 190 240 289 361 441
#     4  11  23  42  71 102 141 191 236 288 371 433
#     4  12  22  42  73 103 143 186 234 303 366 436
#
# _framework density 21.829128999999998
#
# number of rings (size 3 to 8) (size 9 to 14) (size 15 to 20)
#    0.000    0.571    5.714    1.286    4.000    1.143 
#    2.571    0.000    0.000    0.000    0.000    0.000 
#    0.000    0.000    0.000    0.000    0.000    0.000 
#
# Total GULP energy -312261.048374 kJ/mol
# GULP energy per Si atom -5576.090150 kJ/mol
# Density = 2.177945 g / cm^3
# Si number density = 21.829129 Si / 1000 Ang^3
#
#
#
# Elastic Constant Matrix: (Units=GPa)
#
#
# Indices 1 2 3 4 5 6 
#
# 1 92.4398 14.0146 37.9631 0.0000 0.0000 0.0000
# 2 14.0146 39.2941 41.6033 0.0000 0.0000 0.0000
# 3 37.9631 41.6033 97.8784 0.0000 0.0000 0.0000
# 4 0.0000 0.0000 0.0000 37.6694 0.0000 0.0000
# 5 0.0000 0.0000 0.0000 0.0000 40.0369 0.0000
# 6 0.0000 0.0000 0.0000 0.0000 0.0000 33.2134
#
#
#
# Elastic Compliance Matrix: (Units=1/GPa)
#
#
# Indices 1 2 3 4 5 6 
#
# 1 0.012902 0.001267 -0.005543 0.000000 0.000000 0.000000
# 2 0.001267 0.046398 -0.020213 0.000000 0.000000 0.000000
# 3 -0.005543 -0.020213 0.020958 0.000000 0.000000 0.000000
# 4 0.000000 0.000000 0.000000 0.026547 0.000000 0.000000
# 5 0.000000 0.000000 0.000000 0.000000 0.024977 0.000000
# 6 0.000000 0.000000 0.000000 0.000000 0.000000 0.030108
#
#
# Mechanical properties :
#
#
# Convention : Reuss Voigt Hill
#
# Bulk Modulus (GPa) = 31.96874 46.30828 39.13851
# Shear Modulus (GPa) = 22.59433 31.25268 26.92350
#
# Velocity S-wave (km/s) = 3.22072 3.78788 3.51575
# Velocity P-wave (km/s) = 5.33924 6.35537 5.86934
#
# Compressibility (1/GPa) = 0.03128056
#
# Stress axis : x y z
#
# Youngs Moduli (GPa) = 77.50711 21.55265 47.71449
#
# Poissons Ratio (x) = -0.02730 0.26446
# Poissons Ratio (y) = -0.09818 0.96444
# Poissons Ratio (z) = 0.42959 0.43564
#
# Static dielectric constant tensor:
#      x y z
#    x 1.039990 0.000000 0.000000 
#    y 0.000000 1.837900 0.000000 
#    z 0.000000 0.000000 1.863600 
# 
# From -- ./inp_files/11953.got.cif
#   From: 2010.05.17/outbox.cif.g08.bks.cpg/sg60_6_cif.got.tgz:11953.got - 2010.06.03 14:59:27.
