data_PCOD9457968
_publ_section_title
;
Structure prediction by ZEFSAII (Michael W. Deem and Ramdas Pophale) SiO2 
 PCOD9457968
Probable space group: P B C N
;
_chemical_formula_sum "Si O2"
_cell_formula_units_Z 28
_cell_length_a 16.795152
_cell_length_b 7.400437
_cell_length_c 9.583848
_cell_angle_alpha 90.000000
_cell_angle_beta 90.000000
_cell_angle_gamma 90.000000
_cell_volume 1191.190501
_symmetry_space_group_name_H-M "P B C N"
_symmetry_group_IT_number 60
_symmetry_cell_setting 'orthorhombic'
loop_
_space_group_symop_operation_xyz
x,y,z
1/2-x,1/2-y,1/2+z
1/2+x,1/2-y,-z
-x,y,1/2-z
-x,-y,-z
1/2+x,1/2+y,1/2-z
1/2-x,1/2+y,z
x,-y,1/2+z
loop_
_atom_site_type_symbol
_atom_site_label
_atom_site_fract_x
_atom_site_fract_y
_atom_site_fract_z
Si Si1 0.339093 0.564511 0.160232
Si Si2 0.099953 0.789244 0.948205
Si Si3 0.500000 0.085127 0.750000
Si Si4 0.659924 0.029222 0.889918
O O1 0.366274 0.603289 0.316675
O O2 0.247872 0.501551 0.168566
O O3 0.342991 0.757264 0.081134
O O4 0.393284 0.418970 0.080515
O O5 0.018864 0.706969 0.886346
O O6 0.151124 0.611535 0.984746
O O7 0.582230 0.987629 0.792162
#
# Coordination Sequence:
#
# PCOD9457968 Si02
#       4
#     8   8   4   8
#     4  11  26  43  79 103 143 188 246 291 356 425
#     4  11  26  47  72 109 142 190 238 296 359 431
#     4  10  26  46  72 104 150 186 238 298 370 412
#     4  11  24  45  70 106 142 190 238 297 354 427
#
# _framework density 23.505894999999999
#
# number of rings (size 3 to 8) (size 9 to 14) (size 15 to 20)
#    0.000    1.143    2.857    0.857    8.000    9.143 
#    0.000    7.143    0.000    0.000    0.000    0.000 
#    0.000    0.000    0.000    0.000    0.000    0.000 
#
# Total GULP energy -156324.389831 kJ/mol
# GULP energy per Si atom -5583.013923 kJ/mol
# Density = 2.345239 g / cm^3
# Si number density = 23.505895 Si / 1000 Ang^3
#
#
#
# Elastic Constant Matrix: (Units=GPa)
#
#
# Indices 1 2 3 4 5 6 
#
# 1 34.1351 -17.3561 30.1782 0.0000 0.0000 0.0000
# 2 -17.3561 104.0665 30.9081 0.0000 0.0000 0.0000
# 3 30.1782 30.9081 96.3275 0.0000 0.0000 0.0000
# 4 0.0000 0.0000 0.0000 -67.7525 0.0000 0.0000
# 5 0.0000 0.0000 0.0000 0.0000 39.0810 0.0000
# 6 0.0000 0.0000 0.0000 0.0000 0.0000 106.3391
#
#
#
# Elastic Compliance Matrix: (Units=1/GPa)
#
#
# Indices 1 2 3 4 5 6 
#
# 1 0.059118 0.016979 -0.023969 0.000000 0.000000 0.000000
# 2 0.016979 0.015498 -0.010292 0.000000 0.000000 0.000000
# 3 -0.023969 -0.010292 0.021193 0.000000 0.000000 0.000000
# 4 0.000000 0.000000 0.000000 -0.014760 0.000000 0.000000
# 5 0.000000 0.000000 0.000000 0.000000 0.025588 0.000000
# 6 0.000000 0.000000 0.000000 0.000000 0.000000 0.009404
#
#
# Mechanical properties :
#
#
# Convention : Reuss Voigt Hill
#
# Bulk Modulus (GPa) = 16.32801 35.77662 26.05231
# Shear Modulus (GPa) = 29.23634 28.25344 28.74489
#
# Velocity S-wave (km/s) = 3.53056 3.47071 3.50076
# Velocity P-wave (km/s) = 4.85605 5.59593 5.23907
#
# Compressibility (1/GPa) = 0.06124446
#
# Stress axis : x y z
#
# Youngs Moduli (GPa) = 16.91518 64.52618 47.18611
#
# Poissons Ratio (x) = -1.09556 1.13100
# Poissons Ratio (y) = -0.28719 0.48563
# Poissons Ratio (z) = 0.40544 0.66409
#
# Static dielectric constant tensor:
#      x y z
#    x 1.867190 0.000000 0.000000 
#    y 0.000000 1.904580 0.000000 
#    z 0.000000 0.000000 1.908010 
# 
# From -- ./inp_files/6435.got.cif
#   From: 2010.05.17/outbox.cif.g08.bks.cpg/sg60_4_cif.got.tgz:6435.got - 2010.06.03 14:59:27.
