data_PCOD9457518
_publ_section_title
;
Structure prediction by ZEFSAII (Michael W. Deem and Ramdas Pophale) SiO2 
 PCOD9457518
Probable space group: P B C N
;
_chemical_formula_sum "Si O2"
_cell_formula_units_Z 40
_cell_length_a 14.097252
_cell_length_b 12.048731
_cell_length_c 9.156612
_cell_angle_alpha 90.000000
_cell_angle_beta 90.000000
_cell_angle_gamma 90.000000
_cell_volume 1555.287149
_symmetry_space_group_name_H-M "P B C N"
_symmetry_group_IT_number 60
_symmetry_cell_setting 'orthorhombic'
loop_
_space_group_symop_operation_xyz
x,y,z
1/2-x,1/2-y,1/2+z
1/2+x,1/2-y,-z
-x,y,1/2-z
-x,-y,-z
1/2+x,1/2+y,1/2-z
1/2-x,1/2+y,z
x,-y,1/2+z
loop_
_atom_site_type_symbol
_atom_site_label
_atom_site_fract_x
_atom_site_fract_y
_atom_site_fract_z
Si Si1 0.733956 0.144220 0.342108
Si Si2 0.360331 0.654212 0.750687
Si Si3 0.500000 0.086427 0.750000
Si Si4 0.940393 0.215990 0.449275
Si Si5 0.000000 0.959957 0.750000
Si Si6 0.807666 0.484226 0.116699
O O1 0.663432 0.248153 0.360599
O O2 0.701294 0.043171 0.446305
O O3 0.838737 0.181538 0.382676
O O4 0.731478 0.100797 0.175662
O O5 0.413782 0.541342 0.710596
O O6 0.259297 0.612365 0.814685
O O7 0.424910 0.705992 0.879464
O O8 0.533800 0.167026 0.881030
O O9 0.586891 0.021310 0.679781
O O10 0.012538 0.122991 0.386429
#
# Coordination Sequence:
#
# PCOD9457518 Si02
#       6
#     8   8   4   8   4   8
#     4  11  25  46  71 102 140 189 226 290 352 414
#     4  11  24  43  69 105 135 183 230 294 344 422
#     4  11  24  45  68 102 136 189 226 291 336 432
#     4  10  23  44  69 100 137 182 235 284 349 410
#     4  11  22  43  72 104 134 179 238 299 338 408
#     4  11  26  45  70  99 144 183 232 289 350 415
#
# _framework density 25.718722
#
# number of rings (size 3 to 8) (size 9 to 14) (size 15 to 20)
#    0.000    1.200    4.000    0.600    5.600    1.600 
#    0.000    0.000    0.000    0.000    0.000    0.000 
#    0.000    0.000    0.000    0.000    0.000    0.000 
#
# Total GULP energy -224078.339437 kJ/mol
# GULP energy per Si atom -5601.958486 kJ/mol
# Density = 2.566019 g / cm^3
# Si number density = 25.718722 Si / 1000 Ang^3
#
#
#
# Elastic Constant Matrix: (Units=GPa)
#
#
# Indices 1 2 3 4 5 6 
#
# 1 94.0076 13.5081 19.9096 0.0000 0.0000 0.0000
# 2 13.5081 64.7049 18.0282 0.0000 0.0000 0.0000
# 3 19.9096 18.0282 67.0993 0.0000 0.0000 0.0000
# 4 0.0000 0.0000 0.0000 34.0244 0.0000 0.0000
# 5 0.0000 0.0000 0.0000 0.0000 36.9863 0.0000
# 6 0.0000 0.0000 0.0000 0.0000 0.0000 47.8173
#
#
#
# Elastic Compliance Matrix: (Units=1/GPa)
#
#
# Indices 1 2 3 4 5 6 
#
# 1 0.011496 -0.001567 -0.002990 0.000000 0.000000 0.000000
# 2 -0.001567 0.016919 -0.004081 0.000000 0.000000 0.000000
# 3 -0.002990 -0.004081 0.016887 0.000000 0.000000 0.000000
# 4 0.000000 0.000000 0.000000 0.029391 0.000000 0.000000
# 5 0.000000 0.000000 0.000000 0.000000 0.027037 0.000000
# 6 0.000000 0.000000 0.000000 0.000000 0.000000 0.020913
#
#
# Mechanical properties :
#
#
# Convention : Reuss Voigt Hill
#
# Bulk Modulus (GPa) = 35.68091 36.52262 36.10177
# Shear Modulus (GPa) = 33.49864 35.39001 34.44433
#
# Velocity S-wave (km/s) = 3.61293 3.71353 3.66357
# Velocity P-wave (km/s) = 5.59536 5.71128 5.65361
#
# Compressibility (1/GPa) = 0.02802619
#
# Stress axis : x y z
#
# Youngs Moduli (GPa) = 86.98800 59.10553 59.21739
#
# Poissons Ratio (x) = 0.09261 0.17706
# Poissons Ratio (y) = 0.13629 0.24166
# Poissons Ratio (z) = 0.26010 0.24120
#
# Static dielectric constant tensor:
#      x y z
#    x 2.045360 0.000000 0.000000 
#    y 0.000000 1.980220 0.000000 
#    z 0.000000 0.000000 2.063270 
# 
# From -- ./inp_files/11734.got.cif
#   From: 2010.05.17/outbox.cif.g08.bks.cpg/sg60_6_cif.got.tgz:11734.got - 2010.06.03 14:59:27.
