data_PCOD9457141
_publ_section_title
;
Structure prediction by ZEFSAII (Michael W. Deem and Ramdas Pophale) SiO2 
 PCOD9457141
Probable space group: P B C N
;
_chemical_formula_sum "Si O2"
_cell_formula_units_Z 36
_cell_length_a 10.231278
_cell_length_b 13.870417
_cell_length_c 9.851141
_cell_angle_alpha 90.000000
_cell_angle_beta 90.000000
_cell_angle_gamma 90.000000
_cell_volume 1397.996031
_symmetry_space_group_name_H-M "P B C N"
_symmetry_group_IT_number 60
_symmetry_cell_setting 'orthorhombic'
loop_
_space_group_symop_operation_xyz
x,y,z
1/2-x,1/2-y,1/2+z
1/2+x,1/2-y,-z
-x,y,1/2-z
-x,-y,-z
1/2+x,1/2+y,1/2-z
1/2-x,1/2+y,z
x,-y,1/2+z
loop_
_atom_site_type_symbol
_atom_site_label
_atom_site_fract_x
_atom_site_fract_y
_atom_site_fract_z
Si Si1 0.500000 0.616014 0.250000
Si Si2 0.190211 0.994100 0.936409
Si Si3 0.679053 0.707075 0.451016
Si Si4 0.963841 0.686827 0.399382
Si Si5 0.126845 0.478517 0.181946
O O1 0.440271 0.553937 0.374059
O O2 0.620362 0.678911 0.304886
O O3 0.292347 0.987643 0.812972
O O4 0.170256 0.108123 0.963128
O O5 0.259691 0.951301 0.072336
O O6 0.829723 0.734304 0.447167
O O7 0.583323 0.786551 0.507744
O O8 0.934989 0.573231 0.389645
O O9 0.000000 0.721180 0.250000
O O10 0.000000 0.424316 0.250000
#
# Coordination Sequence:
#
# PCOD9457141 Si02
#       5
#     4   8   8   8   8
#     4  12  24  44  70 110 142 192 254 322 362 458
#     4  11  22  43  69 109 141 194 245 312 375 446
#     4  11  26  43  74 102 148 199 244 308 386 444
#     4  10  24  46  68 106 148 194 246 307 377 454
#     4  10  22  43  73 105 150 187 249 315 376 443
#
# _framework density 25.751145000000001
#
# number of rings (size 3 to 8) (size 9 to 14) (size 15 to 20)
#    0.000    1.333    4.444    1.333    4.667    0.000 
#    0.000    4.444    0.000    0.000    0.000    0.000 
#    0.000    0.000    0.000    0.000    0.000    0.000 
#
# Total GULP energy -201432.663137 kJ/mol
# GULP energy per Si atom -5595.351754 kJ/mol
# Density = 2.569253 g / cm^3
# Si number density = 25.751145 Si / 1000 Ang^3
#
#
#
# Elastic Constant Matrix: (Units=GPa)
#
#
# Indices 1 2 3 4 5 6 
#
# 1 169.4878 19.2379 35.6851 0.0000 0.0000 0.0000
# 2 19.2379 65.2914 7.7099 0.0000 0.0000 0.0000
# 3 35.6851 7.7099 122.1958 0.0000 0.0000 0.0000
# 4 0.0000 0.0000 0.0000 4.1755 0.0000 0.0000
# 5 0.0000 0.0000 0.0000 0.0000 69.8433 0.0000
# 6 0.0000 0.0000 0.0000 0.0000 0.0000 37.7428
#
#
#
# Elastic Compliance Matrix: (Units=1/GPa)
#
#
# Indices 1 2 3 4 5 6 
#
# 1 0.006468 -0.001695 -0.001782 0.000000 0.000000 0.000000
# 2 -0.001695 0.015875 -0.000507 0.000000 0.000000 0.000000
# 3 -0.001782 -0.000507 0.008736 0.000000 0.000000 0.000000
# 4 0.000000 0.000000 0.000000 0.239491 0.000000 0.000000
# 5 0.000000 0.000000 0.000000 0.000000 0.014318 0.000000
# 6 0.000000 0.000000 0.000000 0.000000 0.000000 0.026495
#
#
# Mechanical properties :
#
#
# Convention : Reuss Voigt Hill
#
# Bulk Modulus (GPa) = 43.26837 53.58228 48.42533
# Shear Modulus (GPa) = 15.28800 41.97513 28.63156
#
# Velocity S-wave (km/s) = 2.43920 4.04174 3.33807
# Velocity P-wave (km/s) = 4.97714 6.52946 5.80542
#
# Compressibility (1/GPa) = 0.02311157
#
# Stress axis : x y z
#
# Youngs Moduli (GPa) = 154.61425 62.99098 114.47021
#
# Poissons Ratio (x) = 0.10679 0.20396
# Poissons Ratio (y) = 0.26211 0.05799
# Poissons Ratio (z) = 0.27549 0.03191
#
# Static dielectric constant tensor:
#      x y z
#    x 2.021820 0.000000 0.000000 
#    y 0.000000 2.081710 0.000000 
#    z 0.000000 0.000000 3.514910 
# 
# From -- ./inp_files/10789.got.cif
#   From: 2010.05.17/outbox.cif.g08.bks.cpg/sg60_6_cif.got.tgz:10789.got - 2010.06.03 14:59:27.
