data_PCOD9457609
_publ_section_title
;
Structure prediction by ZEFSAII (Michael W. Deem and Ramdas Pophale) SiO2 
 PCOD9457609
Probable space group: P B C N
;
_chemical_formula_sum "Si O2"
_cell_formula_units_Z 32
_cell_length_a 5.107247
_cell_length_b 18.156669
_cell_length_c 13.711079
_cell_angle_alpha 90.000000
_cell_angle_beta 90.000000
_cell_angle_gamma 90.000000
_cell_volume 1271.436490
_symmetry_space_group_name_H-M "P B C N"
_symmetry_group_IT_number 60
_symmetry_cell_setting 'orthorhombic'
loop_
_space_group_symop_operation_xyz
x,y,z
1/2-x,1/2-y,1/2+z
1/2+x,1/2-y,-z
-x,y,1/2-z
-x,-y,-z
1/2+x,1/2+y,1/2-z
1/2-x,1/2+y,z
x,-y,1/2+z
loop_
_atom_site_type_symbol
_atom_site_label
_atom_site_fract_x
_atom_site_fract_y
_atom_site_fract_z
Si Si1 0.401057 0.437883 0.361243
Si Si2 0.487855 0.210141 0.132597
Si Si3 0.185645 0.565940 0.467169
Si Si4 0.980913 0.306505 0.134563
O O1 0.500000 0.424758 0.250000
O O2 0.348727 0.524536 0.380817
O O3 0.614377 0.416095 0.444173
O O4 0.141380 0.388496 0.378804
O O5 0.500000 0.197404 0.250000
O O6 0.521256 0.133763 0.075371
O O7 0.743793 0.255042 0.104435
O O8 0.243289 0.262195 0.106812
O O9 0.000000 0.500000 0.500000
O O10 0.000000 0.303970 0.250000
#
# Coordination Sequence:
#
# PCOD9457609 Si02
#       4
#     8   8   8   8
#     4  11  27  50  83 116 169 213 276 343 414 499
#     4  10  24  47  79 110 162 206 270 334 403 480
#     4  11  29  48  77 125 155 217 276 331 421 491
#     4  10  23  47  80 116 149 216 269 324 407 483
#
# _framework density 25.168384
#
# number of rings (size 3 to 8) (size 9 to 14) (size 15 to 20)
#    0.000    1.500    0.000    2.250   17.500    1.000 
#    4.500    0.000    0.000    0.000    0.000    0.000 
#    0.000    0.000    0.000    0.000    0.000    0.000 
#
# Total GULP energy -178889.428764 kJ/mol
# GULP energy per Si atom -5590.294649 kJ/mol
# Density = 2.511110 g / cm^3
# Si number density = 25.168384 Si / 1000 Ang^3
#
#
#
# Elastic Constant Matrix: (Units=GPa)
#
#
# Indices 1 2 3 4 5 6 
#
# 1 210.6236 93.1661 57.6528 0.0000 0.0000 0.0000
# 2 93.1661 210.3233 77.8720 0.0000 0.0000 0.0000
# 3 57.6528 77.8720 194.4118 0.0000 0.0000 0.0000
# 4 0.0000 0.0000 0.0000 44.8671 0.0000 0.0000
# 5 0.0000 0.0000 0.0000 0.0000 -56.2049 0.0000
# 6 0.0000 0.0000 0.0000 0.0000 0.0000 80.4197
#
#
#
# Elastic Compliance Matrix: (Units=1/GPa)
#
#
# Indices 1 2 3 4 5 6 
#
# 1 0.006020 -0.002355 -0.000842 0.000000 0.000000 0.000000
# 2 -0.002355 0.006504 -0.001907 0.000000 0.000000 0.000000
# 3 -0.000842 -0.001907 0.006157 0.000000 0.000000 0.000000
# 4 0.000000 0.000000 0.000000 0.022288 0.000000 0.000000
# 5 0.000000 0.000000 0.000000 0.000000 -0.017792 0.000000
# 6 0.000000 0.000000 0.000000 0.000000 0.000000 0.012435
#
#
# Mechanical properties :
#
#
# Convention : Reuss Voigt Hill
#
# Bulk Modulus (GPa) = 118.01329 119.19340 118.60334
# Shear Modulus (GPa) = 102.78926 39.59420 71.19173
#
# Velocity S-wave (km/s) = 6.39760 3.97063 5.32424
# Velocity P-wave (km/s) = 10.07788 8.27541 9.22079
#
# Compressibility (1/GPa) = 0.00847362
#
# Stress axis : x y z
#
# Youngs Moduli (GPa) = 166.11518 153.75897 162.41302
#
# Poissons Ratio (x) = 0.36209 0.13674
# Poissons Ratio (y) = 0.39118 0.30968
# Poissons Ratio (z) = 0.13986 0.29318
#
# Static dielectric constant tensor:
#      x y z
#    x 1.928510 0.000000 0.000000 
#    y 0.000000 2.172680 0.000000 
#    z 0.000000 0.000000 2.118040 
# 
# From -- ./inp_files/13580.got.cif
#   From: 2010.05.17/outbox.cif.g08.bks.cpg/sg60_7_cif.got.tgz:13580.got - 2010.06.03 14:59:27.
