data_PCOD9457233
_publ_section_title
;
Structure prediction by ZEFSAII (Michael W. Deem and Ramdas Pophale) SiO2 
 PCOD9457233
Probable space group: P B C N
;
_chemical_formula_sum "Si O2"
_cell_formula_units_Z 48
_cell_length_a 22.582615
_cell_length_b 8.382384
_cell_length_c 11.773213
_cell_angle_alpha 90.000000
_cell_angle_beta 90.000000
_cell_angle_gamma 90.000000
_cell_volume 2228.623902
_symmetry_space_group_name_H-M "P B C N"
_symmetry_group_IT_number 60
_symmetry_cell_setting 'orthorhombic'
loop_
_space_group_symop_operation_xyz
x,y,z
1/2-x,1/2-y,1/2+z
1/2+x,1/2-y,-z
-x,y,1/2-z
-x,-y,-z
1/2+x,1/2+y,1/2-z
1/2-x,1/2+y,z
x,-y,1/2+z
loop_
_atom_site_type_symbol
_atom_site_label
_atom_site_fract_x
_atom_site_fract_y
_atom_site_fract_z
Si Si1 0.861182 0.376133 0.100301
Si Si2 0.868656 0.281698 0.722186
Si Si3 0.664633 0.247143 0.836468
Si Si4 0.081550 0.861660 0.482513
Si Si5 0.221407 0.593486 0.107854
Si Si6 0.051533 0.216005 0.566070
O O1 0.869476 0.550186 0.155423
O O2 0.851864 0.256150 0.204885
O O3 0.804573 0.369256 0.016497
O O4 0.917723 0.332921 0.024255
O O5 0.874307 0.149958 0.624572
O O6 0.810554 0.290303 0.800730
O O7 0.922096 0.260247 0.811416
O O8 0.607197 0.258409 0.914509
O O9 0.709141 0.385451 0.875823
O O10 0.698312 0.082649 0.864047
O O11 0.018989 0.791038 0.441227
O O12 0.072703 0.039063 0.529393
#
# Coordination Sequence:
#
# PCOD9457233 Si02
#       6
#     8   8   8   8   8   8
#     4  10  23  45  66  98 135 174 227 278 338 406
#     4  10  22  46  66  96 136 175 227 280 334 409
#     4  11  25  41  66  97 131 181 220 280 336 398
#     4  11  24  44  68  99 137 174 230 280 338 411
#     4  10  24  42  64  99 133 175 228 274 339 398
#     4  10  25  44  69 100 134 180 224 278 347 406
#
# _framework density 21.537953999999999
#
# number of rings (size 3 to 8) (size 9 to 14) (size 15 to 20)
#    0.000    1.667    1.667    0.500    9.333    1.333 
#    6.000    0.000    0.000    0.000    0.000    0.000 
#    0.000    0.000    0.000    0.000    0.000    0.000 
#
# Total GULP energy -268360.998030 kJ/mol
# GULP energy per Si atom -5590.854126 kJ/mol
# Density = 2.148893 g / cm^3
# Si number density = 21.537954 Si / 1000 Ang^3
#
#
#
# Elastic Constant Matrix: (Units=GPa)
#
#
# Indices 1 2 3 4 5 6 
#
# 1 38.5888 18.9769 17.6302 0.0000 0.0000 0.0000
# 2 18.9769 42.0443 29.5728 0.0000 0.0000 0.0000
# 3 17.6302 29.5728 158.1927 0.0000 0.0000 0.0000
# 4 0.0000 0.0000 0.0000 2.0675 0.0000 0.0000
# 5 0.0000 0.0000 0.0000 0.0000 15.1339 0.0000
# 6 0.0000 0.0000 0.0000 0.0000 0.0000 33.0700
#
#
#
# Elastic Compliance Matrix: (Units=1/GPa)
#
#
# Indices 1 2 3 4 5 6 
#
# 1 0.033456 -0.014367 -0.001043 0.000000 0.000000 0.000000
# 2 -0.014367 0.033555 -0.004672 0.000000 0.000000 0.000000
# 3 -0.001043 -0.004672 0.007311 0.000000 0.000000 0.000000
# 4 0.000000 0.000000 0.000000 0.483675 0.000000 0.000000
# 5 0.000000 0.000000 0.000000 0.000000 0.066077 0.000000
# 6 0.000000 0.000000 0.000000 0.000000 0.000000 0.030239
#
#
# Mechanical properties :
#
#
# Convention : Reuss Voigt Hill
#
# Bulk Modulus (GPa) = 29.27491 41.24285 35.25888
# Shear Modulus (GPa) = 7.08353 21.56401 14.32377
#
# Velocity S-wave (km/s) = 1.81549 3.16762 2.58165
# Velocity P-wave (km/s) = 4.24457 5.70692 5.02918
#
# Compressibility (1/GPa) = 0.03415894
#
# Stress axis : x y z
#
# Youngs Moduli (GPa) = 29.88995 29.80177 136.78117
#
# Poissons Ratio (x) = 0.42817 0.14263
# Poissons Ratio (y) = 0.42943 0.63900
# Poissons Ratio (z) = 0.03117 0.13922
#
# Static dielectric constant tensor:
#      x y z
#    x 1.755590 0.000000 0.000000 
#    y 0.000000 1.814880 0.000000 
#    z 0.000000 0.000000 1.765180 
# 
# From -- ./inp_files/13038.got.cif
#   From: 2010.05.17/outbox.cif.g08.bks.cpg/sg60_7_cif.got.tgz:13038.got - 2010.06.03 14:59:27.
