data_PCOD9457560
_publ_section_title
;
Structure prediction by ZEFSAII (Michael W. Deem and Ramdas Pophale) SiO2 
 PCOD9457560
Probable space group: P B C N
;
_chemical_formula_sum "Si O2"
_cell_formula_units_Z 64
_cell_length_a 12.763855
_cell_length_b 9.593363
_cell_length_c 24.698647
_cell_angle_alpha 90.000000
_cell_angle_beta 90.000000
_cell_angle_gamma 90.000000
_cell_volume 3024.307197
_symmetry_space_group_name_H-M "P B C N"
_symmetry_group_IT_number 60
_symmetry_cell_setting 'orthorhombic'
loop_
_space_group_symop_operation_xyz
x,y,z
1/2-x,1/2-y,1/2+z
1/2+x,1/2-y,-z
-x,y,1/2-z
-x,-y,-z
1/2+x,1/2+y,1/2-z
1/2-x,1/2+y,z
x,-y,1/2+z
loop_
_atom_site_type_symbol
_atom_site_label
_atom_site_fract_x
_atom_site_fract_y
_atom_site_fract_z
Si Si1 0.340596 0.641288 0.569988
Si Si2 0.973413 0.255162 0.116521
Si Si3 0.424079 0.500322 0.173231
Si Si4 0.964218 0.210040 0.506495
Si Si5 0.764570 0.597545 0.488569
Si Si6 0.085797 0.529628 0.426210
Si Si7 0.242781 0.339422 0.844145
Si Si8 0.352061 0.412655 0.290903
O O1 0.354718 0.580387 0.629303
O O2 0.453360 0.622975 0.541437
O O3 0.306949 0.798524 0.557459
O O4 0.256066 0.550715 0.538183
O O5 0.981826 0.424146 0.111315
O O6 0.853842 0.220182 0.134052
O O7 0.000700 0.206227 0.055803
O O8 0.048586 0.159823 0.155064
O O9 0.372988 0.476224 0.231765
O O10 0.537544 0.426049 0.177755
O O11 0.846415 0.155029 0.509309
O O12 0.968893 0.366028 0.531602
O O13 0.840126 0.573118 0.538991
O O14 0.158122 0.631846 0.390570
O O15 0.193070 0.241107 0.798238
O O16 0.269786 0.489130 0.820391
#
# Coordination Sequence:
#
# PCOD9457560 Si02
#       8
#     8   8   8   8   8   8   8   8
#     4  12  25  42  65  95 136 191 221 281 346 419
#     4  11  22  39  65 101 134 182 223 273 345 413
#     4  10  24  44  69  91 133 175 230 280 355 405
#     4  12  24  40  64  97 150 183 221 277 339 416
#     4  12  25  40  62 100 143 183 232 265 341 428
#     4  12  23  38  65 107 141 181 230 280 333 426
#     4  11  22  42  72  98 129 172 231 287 339 401
#     4  10  23  45  71  96 123 169 232 295 343 396
#
# _framework density 21.161871000000001
#
# number of rings (size 3 to 8) (size 9 to 14) (size 15 to 20)
#    0.000    0.750    5.000    3.000    3.500    1.000 
#    0.000    0.000    8.250    0.000    0.000    0.000 
#    0.000    0.000    0.000    0.000    0.000    0.000 
#
# Total GULP energy -357566.470570 kJ/mol
# GULP energy per Si atom -5586.976103 kJ/mol
# Density = 2.111371 g / cm^3
# Si number density = 21.161871 Si / 1000 Ang^3
#
#
#
# Elastic Constant Matrix: (Units=GPa)
#
#
# Indices 1 2 3 4 5 6 
#
# 1 50.4896 8.4669 18.0271 0.0000 0.0000 0.0000
# 2 8.4669 70.8634 11.9312 0.0000 0.0000 0.0000
# 3 18.0271 11.9312 71.2597 0.0000 0.0000 0.0000
# 4 0.0000 0.0000 0.0000 26.6201 0.0000 0.0000
# 5 0.0000 0.0000 0.0000 0.0000 27.4911 0.0000
# 6 0.0000 0.0000 0.0000 0.0000 0.0000 23.6923
#
#
#
# Elastic Compliance Matrix: (Units=1/GPa)
#
#
# Indices 1 2 3 4 5 6 
#
# 1 0.021979 -0.001739 -0.005269 0.000000 0.000000 0.000000
# 2 -0.001739 0.014659 -0.002014 0.000000 0.000000 0.000000
# 3 -0.005269 -0.002014 0.015703 0.000000 0.000000 0.000000
# 4 0.000000 0.000000 0.000000 0.037566 0.000000 0.000000
# 5 0.000000 0.000000 0.000000 0.000000 0.036375 0.000000
# 6 0.000000 0.000000 0.000000 0.000000 0.000000 0.042208
#
#
# Mechanical properties :
#
#
# Convention : Reuss Voigt Hill
#
# Bulk Modulus (GPa) = 29.15776 29.94034 29.54905
# Shear Modulus (GPa) = 25.25681 25.83989 25.54835
#
# Velocity S-wave (km/s) = 3.45846 3.49816 3.47837
# Velocity P-wave (km/s) = 5.45493 5.52224 5.48869
#
# Compressibility (1/GPa) = 0.03429618
#
# Stress axis : x y z
#
# Youngs Moduli (GPa) = 45.49809 68.21941 63.68051
#
# Poissons Ratio (x) = 0.11863 0.33553
# Poissons Ratio (y) = 0.07912 0.12828
# Poissons Ratio (z) = 0.23973 0.13742
#
# Static dielectric constant tensor:
#      x y z
#    x 1.780740 0.000000 0.000000 
#    y 0.000000 1.784830 0.000000 
#    z 0.000000 0.000000 1.724980 
# 
# From -- ./inp_files/24466.got.cif
#   From: 2010.05.17/outbox.cif.g08.bks.cpg/sg60_13_cif.got.tgz:24466.got - 2010.06.03 14:59:27.
