data_PCOD9457427
_publ_section_title
;
Structure prediction by ZEFSAII (Michael W. Deem and Ramdas Pophale) SiO2 
 PCOD9457427
Probable space group: P B C N
;
_chemical_formula_sum "Si O2"
_cell_formula_units_Z 56
_cell_length_a 11.295926
_cell_length_b 15.015168
_cell_length_c 14.584599
_cell_angle_alpha 90.000000
_cell_angle_beta 90.000000
_cell_angle_gamma 90.000000
_cell_volume 2473.697141
_symmetry_space_group_name_H-M "P B C N"
_symmetry_group_IT_number 60
_symmetry_cell_setting 'orthorhombic'
loop_
_space_group_symop_operation_xyz
x,y,z
1/2-x,1/2-y,1/2+z
1/2+x,1/2-y,-z
-x,y,1/2-z
-x,-y,-z
1/2+x,1/2+y,1/2-z
1/2-x,1/2+y,z
x,-y,1/2+z
loop_
_atom_site_type_symbol
_atom_site_label
_atom_site_fract_x
_atom_site_fract_y
_atom_site_fract_z
Si Si1 0.436747 0.171253 0.101803
Si Si2 0.352100 0.055952 0.324916
Si Si3 0.797999 0.112228 0.341532
Si Si4 0.466137 0.451466 0.123285
Si Si5 0.504162 0.246113 0.905617
Si Si6 0.500000 0.307082 0.250000
Si Si7 0.150243 0.903642 0.947074
Si Si8 0.500000 0.900984 0.250000
O O1 0.525697 0.101279 0.146887
O O2 0.310705 0.123437 0.086733
O O3 0.424466 0.245637 0.182350
O O4 0.497230 0.210717 0.010273
O O5 0.271221 0.112587 0.254904
O O6 0.276147 0.059364 0.417910
O O7 0.388643 0.964600 0.274906
O O8 0.889577 0.188363 0.373619
O O9 0.873337 0.021122 0.332808
O O10 0.546635 0.380610 0.178175
O O11 0.559941 0.519221 0.081903
O O12 0.382432 0.396848 0.053714
O O13 0.388655 0.310665 0.900641
O O14 0.511283 0.163255 0.837484
#
# Coordination Sequence:
#
# PCOD9457427 Si02
#       8
#     8   8   8   8   8   4   8   4
#     4  12  26  47  71 108 152 188 242 307 372 433
#     4  12  25  48  69 100 153 193 232 311 374 444
#     4  11  24  48  70 102 151 187 237 307 369 435
#     4  10  23  42  74 107 138 190 251 292 362 448
#     4  11  27  48  75 110 142 190 252 305 361 447
#     4  12  21  45  74 104 144 194 252 291 361 442
#     4  10  23  46  69 106 146 185 238 311 365 422
#     4  12  27  49  72 112 138 198 256 289 393 450
#
# _framework density 22.638179999999998
#
# number of rings (size 3 to 8) (size 9 to 14) (size 15 to 20)
#    0.000    0.857    4.286    1.714    4.000    6.286 
#    5.143    0.000    0.000    0.000    0.000    0.000 
#    0.000    0.000    0.000    0.000    0.000    0.000 
#
# Total GULP energy -311794.634954 kJ/mol
# GULP energy per Si atom -5567.761338 kJ/mol
# Density = 2.258665 g / cm^3
# Si number density = 22.638180 Si / 1000 Ang^3
#
#
#
# Elastic Constant Matrix: (Units=GPa)
#
#
# Indices 1 2 3 4 5 6 
#
# 1 78.7250 38.4155 20.9264 0.0000 0.0000 0.0000
# 2 38.4155 119.5486 56.7098 0.0000 0.0000 0.0000
# 3 20.9264 56.7098 98.0156 0.0000 0.0000 0.0000
# 4 0.0000 0.0000 0.0000 17.1007 0.0000 0.0000
# 5 0.0000 0.0000 0.0000 0.0000 25.9568 0.0000
# 6 0.0000 0.0000 0.0000 0.0000 0.0000 4.8909
#
#
#
# Elastic Compliance Matrix: (Units=1/GPa)
#
#
# Indices 1 2 3 4 5 6 
#
# 1 0.015088 -0.004576 -0.000574 0.000000 0.000000 0.000000
# 2 -0.004576 0.012917 -0.006496 0.000000 0.000000 0.000000
# 3 -0.000574 -0.006496 0.014084 0.000000 0.000000 0.000000
# 4 0.000000 0.000000 0.000000 0.058477 0.000000 0.000000
# 5 0.000000 0.000000 0.000000 0.000000 0.038526 0.000000
# 6 0.000000 0.000000 0.000000 0.000000 0.000000 0.204462
#
#
# Mechanical properties :
#
#
# Convention : Reuss Voigt Hill
#
# Bulk Modulus (GPa) = 53.20273 58.71031 55.95652
# Shear Modulus (GPa) = 13.40083 21.60550 17.50317
#
# Velocity S-wave (km/s) = 2.43566 3.09266 2.78361
# Velocity P-wave (km/s) = 5.60912 6.22441 5.92476
#
# Compressibility (1/GPa) = 0.01879603
#
# Stress axis : x y z
#
# Youngs Moduli (GPa) = 66.27781 77.41708 71.00430
#
# Poissons Ratio (x) = 0.35428 0.04073
# Poissons Ratio (y) = 0.30331 0.46128
# Poissons Ratio (z) = 0.03801 0.50294
#
# Static dielectric constant tensor:
#      x y z
#    x 1.834730 0.000000 0.000000 
#    y 0.000000 1.862870 0.000000 
#    z 0.000000 0.000000 1.981090 
# 
# From -- ./inp_files/16222.got.cif
#   From: 2010.05.17/outbox.cif.g08.bks.cpg/sg60_9_cif.got.tgz:16222.got - 2010.06.03 14:59:27.
