data_PCOD9457545
_publ_section_title
;
Structure prediction by ZEFSAII (Michael W. Deem and Ramdas Pophale) SiO2 
 PCOD9457545
Probable space group: P B C N
;
_chemical_formula_sum "Si O2"
_cell_formula_units_Z 48
_cell_length_a 9.153411
_cell_length_b 14.532475
_cell_length_c 14.959772
_cell_angle_alpha 90.000000
_cell_angle_beta 90.000000
_cell_angle_gamma 90.000000
_cell_volume 1989.974550
_symmetry_space_group_name_H-M "P B C N"
_symmetry_group_IT_number 60
_symmetry_cell_setting 'orthorhombic'
loop_
_space_group_symop_operation_xyz
x,y,z
1/2-x,1/2-y,1/2+z
1/2+x,1/2-y,-z
-x,y,1/2-z
-x,-y,-z
1/2+x,1/2+y,1/2-z
1/2-x,1/2+y,z
x,-y,1/2+z
loop_
_atom_site_type_symbol
_atom_site_label
_atom_site_fract_x
_atom_site_fract_y
_atom_site_fract_z
Si Si1 0.396703 0.855850 0.020517
Si Si2 0.382579 0.708489 0.315879
Si Si3 0.992344 0.501972 0.118890
Si Si4 0.883646 0.848648 0.184719
Si Si5 0.939029 0.820700 0.480188
Si Si6 0.745972 0.970795 0.767819
O O1 0.488661 0.779383 0.969715
O O2 0.488994 0.893077 0.103686
O O3 0.404700 0.946057 0.959212
O O4 0.232564 0.827083 0.042762
O O5 0.500000 0.753059 0.250000
O O6 0.248760 0.778340 0.332841
O O7 0.441854 0.669471 0.411451
O O8 0.329900 0.620946 0.257678
O O9 0.159802 0.533302 0.138001
O O10 0.886262 0.522037 0.199072
O O11 0.000000 0.798915 0.250000
O O12 0.834920 0.936980 0.243563
O O13 0.962627 0.877248 0.090922
#
# Coordination Sequence:
#
# PCOD9457545 Si02
#       6
#     8   8   8   8   8   8
#     4  11  24  44  71 108 140 199 238 305 363 437
#     4  12  29  47  73 110 147 193 247 305 372 436
#     4  10  23  44  75 100 149 189 246 294 371 437
#     4  12  28  46  76 108 147 195 246 304 369 438
#     4  12  25  47  70 109 149 190 252 295 372 431
#     4  11  24  48  70 109 143 195 244 301 367 436
#
# _framework density 24.120913000000002
#
# number of rings (size 3 to 8) (size 9 to 14) (size 15 to 20)
#    0.000    0.667    3.333    2.500   11.667    0.667 
#    3.000    0.000    0.000    0.000    0.000    0.000 
#    0.000    0.000    0.000    0.000    0.000    0.000 
#
# Total GULP energy -267865.324973 kJ/mol
# GULP energy per Si atom -5580.527604 kJ/mol
# Density = 2.406601 g / cm^3
# Si number density = 24.120913 Si / 1000 Ang^3
#
#
#
# Elastic Constant Matrix: (Units=GPa)
#
#
# Indices 1 2 3 4 5 6 
#
# 1 144.9383 46.7913 53.3942 0.0000 0.0000 0.0000
# 2 46.7913 58.4667 14.2976 0.0000 0.0000 0.0000
# 3 53.3942 14.2976 107.5050 0.0000 0.0000 0.0000
# 4 0.0000 0.0000 0.0000 21.1800 0.0000 0.0000
# 5 0.0000 0.0000 0.0000 0.0000 39.1084 0.0000
# 6 0.0000 0.0000 0.0000 0.0000 0.0000 25.9190
#
#
#
# Elastic Compliance Matrix: (Units=1/GPa)
#
#
# Indices 1 2 3 4 5 6 
#
# 1 0.011041 -0.007747 -0.004453 0.000000 0.000000 0.000000
# 2 -0.007747 0.023115 0.000774 0.000000 0.000000 0.000000
# 3 -0.004453 0.000774 0.011411 0.000000 0.000000 0.000000
# 4 0.000000 0.000000 0.000000 0.047214 0.000000 0.000000
# 5 0.000000 0.000000 0.000000 0.000000 0.025570 0.000000
# 6 0.000000 0.000000 0.000000 0.000000 0.000000 0.038582
#
#
# Mechanical properties :
#
#
# Convention : Reuss Voigt Hill
#
# Bulk Modulus (GPa) = 44.02819 59.98625 52.00722
# Shear Modulus (GPa) = 26.68690 30.33662 28.51176
#
# Velocity S-wave (km/s) = 3.32984 3.55024 3.44180
# Velocity P-wave (km/s) = 5.75122 6.45977 6.11576
#
# Compressibility (1/GPa) = 0.02271272
#
# Stress axis : x y z
#
# Youngs Moduli (GPa) = 90.56979 43.26242 87.63569
#
# Poissons Ratio (x) = 0.33517 0.39028
# Poissons Ratio (y) = 0.70167 -0.06780
# Poissons Ratio (z) = 0.40335 -0.03347
#
# Static dielectric constant tensor:
#      x y z
#    x 1.891260 0.000000 0.000000 
#    y 0.000000 1.896230 0.000000 
#    z 0.000000 0.000000 2.138240 
# 
# From -- ./inp_files/19291.got.cif
#   From: 2010.05.17/outbox.cif.g08.bks.cpg/sg60_10_cif.got.tgz:19291.got - 2010.06.03 14:59:27.
