data_PCOD9457578
_publ_section_title
;
Structure prediction by ZEFSAII (Michael W. Deem and Ramdas Pophale) SiO2 
 PCOD9457578
Probable space group: P B C N
;
_chemical_formula_sum "Si O2"
_cell_formula_units_Z 48
_cell_length_a 16.674026
_cell_length_b 10.197818
_cell_length_c 13.054245
_cell_angle_alpha 90.000000
_cell_angle_beta 90.000000
_cell_angle_gamma 90.000000
_cell_volume 2219.726621
_symmetry_space_group_name_H-M "P B C N"
_symmetry_group_IT_number 60
_symmetry_cell_setting 'orthorhombic'
loop_
_space_group_symop_operation_xyz
x,y,z
1/2-x,1/2-y,1/2+z
1/2+x,1/2-y,-z
-x,y,1/2-z
-x,-y,-z
1/2+x,1/2+y,1/2-z
1/2-x,1/2+y,z
x,-y,1/2+z
loop_
_atom_site_type_symbol
_atom_site_label
_atom_site_fract_x
_atom_site_fract_y
_atom_site_fract_z
Si Si1 0.779959 0.563367 0.460723
Si Si2 0.500000 0.454611 0.250000
Si Si3 0.575151 0.124470 0.926471
Si Si4 0.500000 0.989233 0.750000
Si Si5 0.273634 0.681087 0.408460
Si Si6 0.145727 0.866050 0.695185
Si Si7 0.590890 0.222197 0.145455
O O1 0.864660 0.496364 0.439586
O O2 0.794582 0.705927 0.510041
O O3 0.736873 0.461241 0.539044
O O4 0.722711 0.571987 0.361594
O O5 0.433091 0.542923 0.194767
O O6 0.550753 0.357810 0.177287
O O7 0.506889 0.079560 0.849199
O O8 0.624488 0.237895 0.869868
O O9 0.552279 0.175023 0.038260
O O10 0.427591 0.888793 0.770152
O O11 0.331921 0.670027 0.311615
O O12 0.185606 0.726022 0.369916
#
# Coordination Sequence:
#
# PCOD9457578 Si02
#       7
#     8   4   8   4   8   8   8
#     4  11  24  46  69 105 138 186 241 298 349 423
#     4  11  27  46  74 106 149 191 226 306 360 438
#     4  11  25  43  68 102 138 185 240 288 354 425
#     4  11  23  42  68  98 139 187 228 290 354 434
#     4  11  25  44  75 103 140 186 237 299 348 425
#     4  12  26  45  71 105 141 187 243 286 369 425
#     4  10  23  46  68 103 140 186 235 289 366 418
#
# _framework density 21.624283999999999
#
# number of rings (size 3 to 8) (size 9 to 14) (size 15 to 20)
#    0.000    1.000    3.333    3.000    9.333    3.333 
#    6.000    0.000    0.000    0.000    0.000    0.000 
#    0.000    0.000    0.000    0.000    0.000    0.000 
#
# Total GULP energy -268439.304789 kJ/mol
# GULP energy per Si atom -5592.485516 kJ/mol
# Density = 2.157507 g / cm^3
# Si number density = 21.624284 Si / 1000 Ang^3
#
#
#
# Elastic Constant Matrix: (Units=GPa)
#
#
# Indices 1 2 3 4 5 6 
#
# 1 36.0473 3.5766 -9.8015 0.0000 0.0000 0.0000
# 2 3.5766 62.8612 11.6534 0.0000 0.0000 0.0000
# 3 -9.8015 11.6534 62.2347 0.0000 0.0000 0.0000
# 4 0.0000 0.0000 0.0000 -8.3735 0.0000 0.0000
# 5 0.0000 0.0000 0.0000 0.0000 35.7270 0.0000
# 6 0.0000 0.0000 0.0000 0.0000 0.0000 -1.4638
#
#
#
# Elastic Compliance Matrix: (Units=1/GPa)
#
#
# Indices 1 2 3 4 5 6 
#
# 1 0.029394 -0.002622 0.005120 0.000000 0.000000 0.000000
# 2 -0.002622 0.016714 -0.003543 0.000000 0.000000 0.000000
# 3 0.005120 -0.003543 0.017538 0.000000 0.000000 0.000000
# 4 0.000000 0.000000 0.000000 -0.119425 0.000000 0.000000
# 5 0.000000 0.000000 0.000000 0.000000 0.027990 0.000000
# 6 0.000000 0.000000 0.000000 0.000000 0.000000 -0.683163
#
#
# Mechanical properties :
#
#
# Convention : Reuss Voigt Hill
#
# Bulk Modulus (GPa) = 16.24495 19.11113 17.67804
# Shear Modulus (GPa) = -7.26380 15.55893 4.14756
#
# Velocity S-wave (km/s) = -1.83477 2.68528 1.38643
# Velocity P-wave (km/s) = 1.74360 4.29783 3.27959
#
# Compressibility (1/GPa) = 0.06155761
#
# Stress axis : x y z
#
# Youngs Moduli (GPa) = 34.02094 59.83023 57.01920
#
# Poissons Ratio (x) = 0.15685 -0.29195
# Poissons Ratio (y) = 0.08919 0.20199
# Poissons Ratio (z) = -0.17419 0.21195
#
# Static dielectric constant tensor:
#      x y z
#    x 1.789460 0.000000 0.000000 
#    y 0.000000 1.766600 0.000000 
#    z 0.000000 0.000000 1.815860 
# 
# From -- ./inp_files/17386.got.cif
#   From: 2010.05.17/outbox.cif.g08.bks.cpg/sg60_9_cif.got.tgz:17386.got - 2010.06.03 14:59:27.
