data_PCOD9457006
_publ_section_title
;
Structure prediction by ZEFSAII (Michael W. Deem and Ramdas Pophale) SiO2 
 PCOD9457006
Probable space group: P B C N
;
_chemical_formula_sum "Si O2"
_cell_formula_units_Z 60
_cell_length_a 25.018854
_cell_length_b 9.541712
_cell_length_c 10.939464
_cell_angle_alpha 90.000000
_cell_angle_beta 90.000000
_cell_angle_gamma 90.000000
_cell_volume 2611.498376
_symmetry_space_group_name_H-M "P B C N"
_symmetry_group_IT_number 60
_symmetry_cell_setting 'orthorhombic'
loop_
_space_group_symop_operation_xyz
x,y,z
1/2-x,1/2-y,1/2+z
1/2+x,1/2-y,-z
-x,y,1/2-z
-x,-y,-z
1/2+x,1/2+y,1/2-z
1/2-x,1/2+y,z
x,-y,1/2+z
loop_
_atom_site_type_symbol
_atom_site_label
_atom_site_fract_x
_atom_site_fract_y
_atom_site_fract_z
Si Si1 0.592519 0.847708 0.372884
Si Si2 0.161957 0.113929 0.149921
Si Si3 0.241661 0.509476 0.315076
Si Si4 0.031247 0.213205 0.909231
Si Si5 0.918891 0.865466 0.339456
Si Si6 0.000000 0.476000 0.750000
Si Si7 0.246135 0.237052 0.968429
Si Si8 0.157833 0.393008 0.622421
O O1 0.629469 0.744258 0.294065
O O2 0.564668 0.745537 0.470895
O O3 0.547868 0.927312 0.295918
O O4 0.629048 0.969703 0.432543
O O5 0.207405 0.054815 0.237339
O O6 0.120958 0.988693 0.124772
O O7 0.193192 0.179441 0.034159
O O8 0.247554 0.345678 0.341133
O O9 0.243780 0.598635 0.440823
O O10 0.188623 0.551627 0.242614
O O11 0.062494 0.129388 0.802725
O O12 0.972988 0.142035 0.919439
O O13 0.018992 0.368677 0.854801
O O14 0.887691 0.719343 0.350151
O O15 0.297457 0.187669 0.044422
#
# Coordination Sequence:
#
# PCOD9457006 Si02
#       8
#     8   8   8   8   8   4   8   8
#     4  12  24  41  68  99 128 167 225 273 323 393
#     4  11  26  41  64 100 130 171 222 262 327 404
#     4  11  24  43  63  94 135 168 212 272 318 391
#     4  10  23  43  70  92 130 174 218 266 340 380
#     4  10  22  45  64  92 133 173 211 272 327 388
#     4  10  22  42  62 100 130 160 216 284 306 388
#     4  11  24  42  65  97 130 173 216 266 327 389
#     4  11  23  40  68  97 126 170 226 263 324 391
#
# _framework density 22.975314999999998
#
# number of rings (size 3 to 8) (size 9 to 14) (size 15 to 20)
#    0.000    1.333    2.667    3.600    5.600    6.933 
#    2.400    0.000    0.000    0.000    0.000    0.000 
#    0.000    0.000    0.000    0.000    0.000    0.000 
#
# Total GULP energy -335752.710134 kJ/mol
# GULP energy per Si atom -5595.878502 kJ/mol
# Density = 2.292302 g / cm^3
# Si number density = 22.975315 Si / 1000 Ang^3
#
#
#
# Elastic Constant Matrix: (Units=GPa)
#
#
# Indices 1 2 3 4 5 6 
#
# 1 133.0461 39.8657 25.8048 0.0000 0.0000 0.0000
# 2 39.8657 83.7573 0.1510 0.0000 0.0000 0.0000
# 3 25.8048 0.1510 20.7208 0.0000 0.0000 0.0000
# 4 0.0000 0.0000 0.0000 15.7313 0.0000 0.0000
# 5 0.0000 0.0000 0.0000 0.0000 18.1306 0.0000
# 6 0.0000 0.0000 0.0000 0.0000 0.0000 50.1198
#
#
#
# Elastic Compliance Matrix: (Units=1/GPa)
#
#
# Indices 1 2 3 4 5 6 
#
# 1 0.012178 -0.005769 -0.015124 0.000000 0.000000 0.000000
# 2 -0.005769 0.014672 0.007078 0.000000 0.000000 0.000000
# 3 -0.015124 0.007078 0.067044 0.000000 0.000000 0.000000
# 4 0.000000 0.000000 0.000000 0.063568 0.000000 0.000000
# 5 0.000000 0.000000 0.000000 0.000000 0.055155 0.000000
# 6 0.000000 0.000000 0.000000 0.000000 0.000000 0.019952
#
#
# Mechanical properties :
#
#
# Convention : Reuss Voigt Hill
#
# Bulk Modulus (GPa) = 15.09128 41.01859 28.05493
# Shear Modulus (GPa) = 17.71234 28.24318 22.97776
#
# Velocity S-wave (km/s) = 2.77957 3.50992 3.16588
# Velocity P-wave (km/s) = 4.10903 5.85817 5.05975
#
# Compressibility (1/GPa) = 0.06626345
#
# Stress axis : x y z
#
# Youngs Moduli (GPa) = 82.11353 68.15506 14.91556
#
# Poissons Ratio (x) = 0.39320 0.22559
# Poissons Ratio (y) = 0.47373 -0.10557
# Poissons Ratio (z) = 1.24190 -0.48238
#
# Static dielectric constant tensor:
#      x y z
#    x 1.867750 0.000000 0.000000 
#    y 0.000000 1.812360 0.000000 
#    z 0.000000 0.000000 1.894310 
# 
# From -- ./inp_files/13279.got.cif
#   From: 2010.05.17/outbox.cif.g08.bks.cpg/sg60_7_cif.got.tgz:13279.got - 2010.06.03 14:59:27.
