data_PCOD9457821
_publ_section_title
;
Structure prediction by ZEFSAII (Michael W. Deem and Ramdas Pophale) SiO2 
 PCOD9457821
Probable space group: P B C N
;
_chemical_formula_sum "Si O2"
_cell_formula_units_Z 56
_cell_length_a 21.556648
_cell_length_b 10.017525
_cell_length_c 11.480203
_cell_angle_alpha 90.000000
_cell_angle_beta 90.000000
_cell_angle_gamma 90.000000
_cell_volume 2479.083944
_symmetry_space_group_name_H-M "P B C N"
_symmetry_group_IT_number 60
_symmetry_cell_setting 'orthorhombic'
loop_
_space_group_symop_operation_xyz
x,y,z
1/2-x,1/2-y,1/2+z
1/2+x,1/2-y,-z
-x,y,1/2-z
-x,-y,-z
1/2+x,1/2+y,1/2-z
1/2-x,1/2+y,z
x,-y,1/2+z
loop_
_atom_site_type_symbol
_atom_site_label
_atom_site_fract_x
_atom_site_fract_y
_atom_site_fract_z
Si Si1 0.928446 0.700320 0.597104
Si Si2 0.644767 0.660961 0.302402
Si Si3 0.657959 0.983955 0.685987
Si Si4 0.838945 0.278511 0.890266
Si Si5 0.786965 0.926733 0.207130
Si Si6 0.978857 0.922959 0.882159
Si Si7 0.207323 0.744710 0.487451
O O1 0.892611 0.786213 0.693432
O O2 0.904953 0.551612 0.635505
O O3 0.898737 0.729690 0.471803
O O4 0.996462 0.768108 0.603938
O O5 0.700652 0.574871 0.251154
O O6 0.594926 0.573722 0.373316
O O7 0.668889 0.765453 0.395160
O O8 0.652437 0.909317 0.809431
O O9 0.688026 0.878525 0.593985
O O10 0.713214 0.091516 0.700889
O O11 0.823552 0.164539 0.797369
O O12 0.778615 0.266531 0.974177
O O13 0.810386 0.880398 0.081443
O O14 0.000000 0.969417 0.750000
O O15 0.000000 0.000000 0.000000
#
# Coordination Sequence:
#
# PCOD9457821 Si02
#       7
#     8   8   8   8   8   8   8
#     4  11  24  42  67  94 131 178 226 284 351 405
#     4  11  24  40  69  94 128 169 230 284 345 409
#     4  11  24  40  60  94 138 181 219 275 348 435
#     4  11  23  38  61  94 135 176 219 272 347 430
#     4  11  23  37  60  96 133 174 220 275 347 417
#     4  10  24  46  72 100 131 177 236 298 348 408
#     4  11  24  37  60  98 134 178 219 276 353 428
#
# _framework density 22.588986999999999
#
# number of rings (size 3 to 8) (size 9 to 14) (size 15 to 20)
#    0.000    1.143    2.857    2.571   12.000    0.000 
#    0.000    0.714    3.143    0.000    0.000    0.000 
#    0.000    0.000    0.000    0.000    0.000    0.000 
#
# Total GULP energy -312197.187547 kJ/mol
# GULP energy per Si atom -5574.949778 kJ/mol
# Density = 2.253757 g / cm^3
# Si number density = 22.588987 Si / 1000 Ang^3
#
#
#
# Elastic Constant Matrix: (Units=GPa)
#
#
# Indices 1 2 3 4 5 6 
#
# 1 53.3208 7.7816 12.7724 0.0000 0.0000 0.0000
# 2 7.7816 63.2034 25.4043 0.0000 0.0000 0.0000
# 3 12.7724 25.4043 112.3994 0.0000 0.0000 0.0000
# 4 0.0000 0.0000 0.0000 32.2848 0.0000 0.0000
# 5 0.0000 0.0000 0.0000 0.0000 30.6800 0.0000
# 6 0.0000 0.0000 0.0000 0.0000 0.0000 28.3354
#
#
#
# Elastic Compliance Matrix: (Units=1/GPa)
#
#
# Indices 1 2 3 4 5 6 
#
# 1 0.019435 -0.001656 -0.001834 0.000000 0.000000 0.000000
# 2 -0.001656 0.017544 -0.003777 0.000000 0.000000 0.000000
# 3 -0.001834 -0.003777 0.009959 0.000000 0.000000 0.000000
# 4 0.000000 0.000000 0.000000 0.030974 0.000000 0.000000
# 5 0.000000 0.000000 0.000000 0.000000 0.032595 0.000000
# 6 0.000000 0.000000 0.000000 0.000000 0.000000 0.035291
#
#
# Mechanical properties :
#
#
# Convention : Reuss Voigt Hill
#
# Bulk Modulus (GPa) = 30.86014 35.64893 33.25453
# Shear Modulus (GPa) = 29.21682 30.45773 29.83727
#
# Velocity S-wave (km/s) = 3.60030 3.67596 3.63833
# Velocity P-wave (km/s) = 5.56544 5.81659 5.69240
#
# Compressibility (1/GPa) = 0.03240426
#
# Stress axis : x y z
#
# Youngs Moduli (GPa) = 51.45248 56.99961 100.41177
#
# Poissons Ratio (x) = 0.09437 0.18419
# Poissons Ratio (y) = 0.08518 0.37927
# Poissons Ratio (z) = 0.09438 0.21530
#
# Static dielectric constant tensor:
#      x y z
#    x 1.835030 0.000000 0.000000 
#    y 0.000000 1.926550 0.000000 
#    z 0.000000 0.000000 1.871430 
# 
# From -- ./inp_files/12827.got.cif
#   From: 2010.05.17/outbox.cif.g08.bks.cpg/sg60_7_cif.got.tgz:12827.got - 2010.06.03 14:59:27.
