data_PCOD9457092
_publ_section_title
;
Structure prediction by ZEFSAII (Michael W. Deem and Ramdas Pophale) SiO2 
 PCOD9457092
Probable space group: P B C N
;
_chemical_formula_sum "Si O2"
_cell_formula_units_Z 28
_cell_length_a 5.391486
_cell_length_b 13.647270
_cell_length_c 15.331750
_cell_angle_alpha 90.000000
_cell_angle_beta 90.000000
_cell_angle_gamma 90.000000
_cell_volume 1128.095832
_symmetry_space_group_name_H-M "P B C N"
_symmetry_group_IT_number 60
_symmetry_cell_setting 'orthorhombic'
loop_
_space_group_symop_operation_xyz
x,y,z
1/2-x,1/2-y,1/2+z
1/2+x,1/2-y,-z
-x,y,1/2-z
-x,-y,-z
1/2+x,1/2+y,1/2-z
1/2-x,1/2+y,z
x,-y,1/2+z
loop_
_atom_site_type_symbol
_atom_site_label
_atom_site_fract_x
_atom_site_fract_y
_atom_site_fract_z
Si Si1 0.162589 0.877090 0.472379
Si Si2 0.251963 0.889578 0.275884
Si Si3 0.842465 0.355829 0.568730
Si Si4 0.500000 0.927783 0.750000
O O1 0.222376 0.918008 0.376341
O O2 0.159655 0.759737 0.453254
O O3 0.402038 0.897445 0.530337
O O4 0.903064 0.898196 0.521100
O O5 0.500000 0.831237 0.250000
O O6 0.000000 0.839037 0.250000
O O7 0.293798 0.990280 0.221118
O O8 0.873338 0.370022 0.672023
#
# Coordination Sequence:
#
# PCOD9457092 Si02
#       4
#     8   8   8   4
#     4  10  22  43  62  91 122 171 207 257 315 371
#     4  10  23  40  60  94 125 163 207 250 318 372
#     4  10  23  40  65  90 125 161 216 258 308 370
#     4  10  26  40  62  98 124 162 208 262 310 370
#
# _framework density 24.820585999999999
#
# number of rings (size 3 to 8) (size 9 to 14) (size 15 to 20)
#    0.857    1.143    0.000    1.714    6.000    2.286 
#    0.000    0.000    0.000    0.000    0.000    0.000 
#    0.000    0.000    0.000    0.000    0.000    0.000 
#
# Total GULP energy -156290.105534 kJ/mol
# GULP energy per Si atom -5581.789483 kJ/mol
# Density = 2.476409 g / cm^3
# Si number density = 24.820586 Si / 1000 Ang^3
#
#
#
# Elastic Constant Matrix: (Units=GPa)
#
#
# Indices 1 2 3 4 5 6 
#
# 1 246.5234 33.4468 88.3009 0.0000 0.0000 0.0000
# 2 33.4468 50.7191 22.2377 0.0000 0.0000 0.0000
# 3 88.3009 22.2377 130.7547 0.0000 0.0000 0.0000
# 4 0.0000 0.0000 0.0000 32.1501 0.0000 0.0000
# 5 0.0000 0.0000 0.0000 0.0000 46.1015 0.0000
# 6 0.0000 0.0000 0.0000 0.0000 0.0000 13.6556
#
#
#
# Elastic Compliance Matrix: (Units=1/GPa)
#
#
# Indices 1 2 3 4 5 6 
#
# 1 0.005566 -0.002185 -0.003387 0.000000 0.000000 0.000000
# 2 -0.002185 0.022163 -0.002293 0.000000 0.000000 0.000000
# 3 -0.003387 -0.002293 0.010325 0.000000 0.000000 0.000000
# 4 0.000000 0.000000 0.000000 0.031104 0.000000 0.000000
# 5 0.000000 0.000000 0.000000 0.000000 0.021691 0.000000
# 6 0.000000 0.000000 0.000000 0.000000 0.000000 0.073230
#
#
# Mechanical properties :
#
#
# Convention : Reuss Voigt Hill
#
# Bulk Modulus (GPa) = 44.79794 79.55202 62.17498
# Shear Modulus (GPa) = 26.70176 37.31555 32.00866
#
# Velocity S-wave (km/s) = 3.28348 3.88159 3.59500
# Velocity P-wave (km/s) = 5.69762 7.22561 6.50662
#
# Compressibility (1/GPa) = 0.02232245
#
# Stress axis : x y z
#
# Youngs Moduli (GPa) = 179.65625 45.11979 96.84826
#
# Poissons Ratio (x) = 0.09861 0.32805
# Poissons Ratio (y) = 0.39264 0.22212
# Poissons Ratio (z) = 0.60854 0.10348
#
# Static dielectric constant tensor:
#      x y z
#    x 2.069690 0.000000 0.000000 
#    y 0.000000 2.015970 0.000000 
#    z 0.000000 0.000000 1.976610 
# 
# From -- ./inp_files/8781.got.cif
#   From: 2010.05.17/outbox.cif.g08.bks.cpg/sg60_5_cif.got.tgz:8781.got - 2010.06.03 14:59:27.
