data_PCOD9457476
_publ_section_title
;
Structure prediction by ZEFSAII (Michael W. Deem and Ramdas Pophale) SiO2 
 PCOD9457476
Probable space group: P B C N
;
_chemical_formula_sum "Si O2"
_cell_formula_units_Z 24
_cell_length_a 7.361103
_cell_length_b 27.628238
_cell_length_c 5.273813
_cell_angle_alpha 90.000000
_cell_angle_beta 90.000000
_cell_angle_gamma 90.000000
_cell_volume 1072.558057
_symmetry_space_group_name_H-M "P B C N"
_symmetry_group_IT_number 60
_symmetry_cell_setting 'orthorhombic'
loop_
_space_group_symop_operation_xyz
x,y,z
1/2-x,1/2-y,1/2+z
1/2+x,1/2-y,-z
-x,y,1/2-z
-x,-y,-z
1/2+x,1/2+y,1/2-z
1/2-x,1/2+y,z
x,-y,1/2+z
loop_
_atom_site_type_symbol
_atom_site_label
_atom_site_fract_x
_atom_site_fract_y
_atom_site_fract_z
Si Si1 0.796888 0.778342 0.652978
Si Si2 0.121051 0.620030 0.495456
Si Si3 0.204976 0.978510 0.010291
O O1 0.799256 0.743760 0.404494
O O2 0.704534 0.827524 0.559108
O O3 0.000000 0.787502 0.750000
O O4 0.275918 0.579010 0.520220
O O5 0.000000 0.620674 0.750000
O O6 0.000000 0.607659 0.250000
O O7 0.292562 0.999059 0.757925
O O8 0.000000 0.000000 0.000000
#
# Coordination Sequence:
#
# PCOD9457476 Si02
#       3
#     8   8   8
#     4  12  26  47  75 104 145 188 239 299 357 429
#     4  12  26  45  73 106 144 185 238 292 361 419
#     4  10  23  43  69  97 144 180 240 280 349 419
#
# _framework density 22.376408999999999
#
# number of rings (size 3 to 8) (size 9 to 14) (size 15 to 20)
#    0.000    0.667    0.000    8.000    4.667    4.000 
#    6.000    0.000    0.000    0.000    0.000    0.000 
#    0.000    0.000    0.000    0.000    0.000    0.000 
#
# Total GULP energy -134245.049854 kJ/mol
# GULP energy per Si atom -5593.543744 kJ/mol
# Density = 2.232548 g / cm^3
# Si number density = 22.376409 Si / 1000 Ang^3
#
#
#
# Elastic Constant Matrix: (Units=GPa)
#
#
# Indices 1 2 3 4 5 6 
#
# 1 130.3901 64.1547 48.3589 0.0000 0.0000 0.0000
# 2 64.1547 188.5632 70.6351 0.0000 0.0000 0.0000
# 3 48.3589 70.6351 233.4792 0.0000 0.0000 0.0000
# 4 0.0000 0.0000 0.0000 21.2360 0.0000 0.0000
# 5 0.0000 0.0000 0.0000 0.0000 8.2130 0.0000
# 6 0.0000 0.0000 0.0000 0.0000 0.0000 37.3462
#
#
#
# Elastic Compliance Matrix: (Units=1/GPa)
#
#
# Indices 1 2 3 4 5 6 
#
# 1 0.009460 -0.002802 -0.001112 0.000000 0.000000 0.000000
# 2 -0.002802 0.006811 -0.001480 0.000000 0.000000 0.000000
# 3 -0.001112 -0.001480 0.004961 0.000000 0.000000 0.000000
# 4 0.000000 0.000000 0.000000 0.047090 0.000000 0.000000
# 5 0.000000 0.000000 0.000000 0.000000 0.121759 0.000000
# 6 0.000000 0.000000 0.000000 0.000000 0.000000 0.026776
#
#
# Mechanical properties :
#
#
# Convention : Reuss Voigt Hill
#
# Bulk Modulus (GPa) = 95.74550 102.08110 98.91330
# Shear Modulus (GPa) = 21.63311 37.97796 29.80553
#
# Velocity S-wave (km/s) = 3.11268 4.12422 3.65363
# Velocity P-wave (km/s) = 7.46993 8.27030 7.88028
#
# Compressibility (1/GPa) = 0.01044436
#
# Stress axis : x y z
#
# Youngs Moduli (GPa) = 105.70419 146.81822 201.56841
#
# Poissons Ratio (x) = 0.41142 0.22408
# Poissons Ratio (y) = 0.29621 0.29836
# Poissons Ratio (z) = 0.11751 0.21732
#
# Static dielectric constant tensor:
#      x y z
#    x 1.815500 0.000000 0.000000 
#    y 0.000000 1.810030 0.000000 
#    z 0.000000 0.000000 1.841380 
# 
# From -- ./inp_files/279.got.cif
#   From: 2010.05.17/outbox.cif.g08.bks.cpg/sg60_1_cif.got.tgz:279.got - 2010.06.03 14:59:27.
