data_PCOD9457577
_publ_section_title
;
Structure prediction by ZEFSAII (Michael W. Deem and Ramdas Pophale) SiO2 
 PCOD9457577
Probable space group: P B C N
;
_chemical_formula_sum "Si O2"
_cell_formula_units_Z 40
_cell_length_a 13.239238
_cell_length_b 18.086634
_cell_length_c 7.733548
_cell_angle_alpha 90.000000
_cell_angle_beta 90.000000
_cell_angle_gamma 90.000000
_cell_volume 1851.823219
_symmetry_space_group_name_H-M "P B C N"
_symmetry_group_IT_number 60
_symmetry_cell_setting 'orthorhombic'
loop_
_space_group_symop_operation_xyz
x,y,z
1/2-x,1/2-y,1/2+z
1/2+x,1/2-y,-z
-x,y,1/2-z
-x,-y,-z
1/2+x,1/2+y,1/2-z
1/2-x,1/2+y,z
x,-y,1/2+z
loop_
_atom_site_type_symbol
_atom_site_label
_atom_site_fract_x
_atom_site_fract_y
_atom_site_fract_z
Si Si1 0.066190 0.242603 0.076538
Si Si2 0.379382 0.599875 0.216771
Si Si3 0.000000 0.849279 0.250000
Si Si4 0.610025 0.906703 0.502985
Si Si5 0.500000 0.999205 0.750000
Si Si6 0.322207 0.443358 0.096887
O O1 0.145349 0.179494 0.137023
O O2 0.000000 0.257895 0.250000
O O3 0.107604 0.318650 0.001191
O O4 0.008386 0.200949 0.920774
O O5 0.500000 0.598110 0.250000
O O6 0.350017 0.529562 0.103068
O O7 0.333919 0.588016 0.404138
O O8 0.098775 0.900688 0.220100
O O9 0.515571 0.942026 0.403676
O O10 0.703605 0.931553 0.382434
O O11 0.592135 0.944570 0.690670
#
# Coordination Sequence:
#
# PCOD9457577 Si02
#       6
#     8   8   4   8   4   8
#     4  11  23  43  67  95 136 182 213 287 340 390
#     4  11  21  40  64  95 140 172 212 278 341 399
#     4  12  23  42  67  98 146 172 222 284 353 398
#     4  11  24  44  70  96 133 178 237 275 342 403
#     4  10  23  46  67  92 136 184 224 294 325 400
#     4  12  23  39  68 103 128 185 228 272 341 426
#
# _framework density 21.600334
#
# number of rings (size 3 to 8) (size 9 to 14) (size 15 to 20)
#    0.000    0.800    6.000    3.600    0.000    1.600 
#    0.000    4.000    0.000    0.000    0.000    0.000 
#    0.000    0.000    0.000    0.000    0.000    0.000 
#
# Total GULP energy -222916.666528 kJ/mol
# GULP energy per Si atom -5572.916663 kJ/mol
# Density = 2.155117 g / cm^3
# Si number density = 21.600334 Si / 1000 Ang^3
#
#
#
# Elastic Constant Matrix: (Units=GPa)
#
#
# Indices 1 2 3 4 5 6 
#
# 1 31.7756 30.0633 -8.4974 0.0000 0.0000 0.0000
# 2 30.0633 193.3237 26.8984 0.0000 0.0000 0.0000
# 3 -8.4974 26.8984 83.7210 0.0000 0.0000 0.0000
# 4 0.0000 0.0000 0.0000 34.9753 0.0000 0.0000
# 5 0.0000 0.0000 0.0000 0.0000 33.3431 0.0000
# 6 0.0000 0.0000 0.0000 0.0000 0.0000 54.2518
#
#
#
# Elastic Compliance Matrix: (Units=1/GPa)
#
#
# Indices 1 2 3 4 5 6 
#
# 1 0.039856 -0.007077 0.006319 0.000000 0.000000 0.000000
# 2 -0.007077 0.006671 -0.002862 0.000000 0.000000 0.000000
# 3 0.006319 -0.002862 0.013505 0.000000 0.000000 0.000000
# 4 0.000000 0.000000 0.000000 0.028592 0.000000 0.000000
# 5 0.000000 0.000000 0.000000 0.000000 0.029991 0.000000
# 6 0.000000 0.000000 0.000000 0.000000 0.000000 0.018433
#
#
# Mechanical properties :
#
#
# Convention : Reuss Voigt Hill
#
# Bulk Modulus (GPa) = 18.94179 45.08321 32.01250
# Shear Modulus (GPa) = 30.88597 41.87111 36.37854
#
# Velocity S-wave (km/s) = 3.78548 4.40756 4.10831
# Velocity P-wave (km/s) = 5.28155 6.84244 6.11202
#
# Compressibility (1/GPa) = 0.05279332
#
# Stress axis : x y z
#
# Youngs Moduli (GPa) = 25.09010 149.89364 74.04537
#
# Poissons Ratio (x) = 1.06082 -0.46790
# Poissons Ratio (y) = 0.17757 0.21190
# Poissons Ratio (z) = -0.15855 0.42896
#
# Static dielectric constant tensor:
#      x y z
#    x 2.108220 0.000000 0.000000 
#    y 0.000000 1.767850 0.000000 
#    z 0.000000 0.000000 1.952280 
# 
# From -- ./inp_files/5701.got.cif
#   From: 2010.05.17/outbox.cif.g08.bks.cpg/sg60_3_cif.got.tgz:5701.got - 2010.06.03 14:59:27.
