data_PCOD9457150
_publ_section_title
;
Structure prediction by ZEFSAII (Michael W. Deem and Ramdas Pophale) SiO2 
 PCOD9457150
Probable space group: P B C N
;
_chemical_formula_sum "Si O2"
_cell_formula_units_Z 40
_cell_length_a 7.314860
_cell_length_b 14.455354
_cell_length_c 13.792596
_cell_angle_alpha 90.000000
_cell_angle_beta 90.000000
_cell_angle_gamma 90.000000
_cell_volume 1458.413802
_symmetry_space_group_name_H-M "P B C N"
_symmetry_group_IT_number 60
_symmetry_cell_setting 'orthorhombic'
loop_
_space_group_symop_operation_xyz
x,y,z
1/2-x,1/2-y,1/2+z
1/2+x,1/2-y,-z
-x,y,1/2-z
-x,-y,-z
1/2+x,1/2+y,1/2-z
1/2-x,1/2+y,z
x,-y,1/2+z
loop_
_atom_site_type_symbol
_atom_site_label
_atom_site_fract_x
_atom_site_fract_y
_atom_site_fract_z
Si Si1 0.038792 0.035036 0.356575
Si Si2 0.126557 0.492746 0.595287
Si Si3 0.500000 0.360728 0.250000
Si Si4 0.339866 0.790896 0.609520
Si Si5 0.906786 0.777594 0.602588
Si Si6 0.500000 0.143237 0.750000
O O1 0.850291 0.012333 0.414481
O O2 0.160303 0.115947 0.403485
O O3 0.000000 0.079117 0.250000
O O4 0.111934 0.936814 0.317260
O O5 0.088767 0.391336 0.640123
O O6 0.000000 0.500000 0.500000
O O7 0.082924 0.576476 0.667730
O O8 0.577511 0.292867 0.331227
O O9 0.122885 0.789939 0.614149
O O10 0.376624 0.775265 0.496331
O O11 0.860800 0.712262 0.692811
#
# Coordination Sequence:
#
# PCOD9457150 Si02
#       6
#     8   8   4   8   8   4
#     4   9  22  45  66 101 143 180 233 291 364 421
#     4  11  23  43  71 105 138 186 243 296 355 434
#     4  10  22  44  64  96 144 188 224 298 356 430
#     4  11  25  44  69 106 141 181 243 291 362 428
#     4  11  24  45  71 103 138 187 235 298 356 437
#     4  12  22  44  72  98 144 188 236 296 358 434
#
# _framework density 27.427057000000001
#
# number of rings (size 3 to 8) (size 9 to 14) (size 15 to 20)
#    0.600    0.800    3.000    1.800    0.000    4.000 
#    3.600    0.000    0.000    0.000    0.000    0.000 
#    0.000    0.000    0.000    0.000    0.000    0.000 
#
# Total GULP energy -223654.470163 kJ/mol
# GULP energy per Si atom -5591.361754 kJ/mol
# Density = 2.736463 g / cm^3
# Si number density = 27.427057 Si / 1000 Ang^3
#
#
#
# Elastic Constant Matrix: (Units=GPa)
#
#
# Indices 1 2 3 4 5 6 
#
# 1 95.9767 22.6116 31.0415 0.0000 0.0000 0.0000
# 2 22.6116 240.6802 64.9473 0.0000 0.0000 0.0000
# 3 31.0415 64.9473 155.5831 0.0000 0.0000 0.0000
# 4 0.0000 0.0000 0.0000 24.2363 0.0000 0.0000
# 5 0.0000 0.0000 0.0000 0.0000 37.7878 0.0000
# 6 0.0000 0.0000 0.0000 0.0000 0.0000 32.8263
#
#
#
# Elastic Compliance Matrix: (Units=1/GPa)
#
#
# Indices 1 2 3 4 5 6 
#
# 1 0.011192 -0.000506 -0.002022 0.000000 0.000000 0.000000
# 2 -0.000506 0.004705 -0.001863 0.000000 0.000000 0.000000
# 3 -0.002022 -0.001863 0.007609 0.000000 0.000000 0.000000
# 4 0.000000 0.000000 0.000000 0.041260 0.000000 0.000000
# 5 0.000000 0.000000 0.000000 0.000000 0.026464 0.000000
# 6 0.000000 0.000000 0.000000 0.000000 0.000000 0.030463
#
#
# Mechanical properties :
#
#
# Convention : Reuss Voigt Hill
#
# Bulk Modulus (GPa) = 67.91565 81.04897 74.48231
# Shear Modulus (GPa) = 36.93212 43.87939 40.40575
#
# Velocity S-wave (km/s) = 3.67353 4.00416 3.84240
# Velocity P-wave (km/s) = 6.54287 7.14091 6.84842
#
# Compressibility (1/GPa) = 0.01472415
#
# Stress axis : x y z
#
# Youngs Moduli (GPa) = 89.34704 212.53037 131.42975
#
# Poissons Ratio (x) = 0.10752 0.26573
# Poissons Ratio (y) = 0.04520 0.24488
# Poissons Ratio (z) = 0.18065 0.39599
#
# Static dielectric constant tensor:
#      x y z
#    x 2.451300 0.000000 0.000000 
#    y 0.000000 2.162500 0.000000 
#    z 0.000000 0.000000 2.083870 
# 
# From -- ./inp_files/14699.got.cif
#   From: 2010.05.17/outbox.cif.g08.bks.cpg/sg60_8_cif.got.tgz:14699.got - 2010.06.03 14:59:27.
