data_PCOD9457762
_publ_section_title
;
Structure prediction by ZEFSAII (Michael W. Deem and Ramdas Pophale) SiO2 
 PCOD9457762
Probable space group: P B C N
;
_chemical_formula_sum "Si O2"
_cell_formula_units_Z 56
_cell_length_a 16.442933
_cell_length_b 15.394683
_cell_length_c 10.186298
_cell_angle_alpha 90.000000
_cell_angle_beta 90.000000
_cell_angle_gamma 90.000000
_cell_volume 2578.495721
_symmetry_space_group_name_H-M "P B C N"
_symmetry_group_IT_number 60
_symmetry_cell_setting 'orthorhombic'
loop_
_space_group_symop_operation_xyz
x,y,z
1/2-x,1/2-y,1/2+z
1/2+x,1/2-y,-z
-x,y,1/2-z
-x,-y,-z
1/2+x,1/2+y,1/2-z
1/2-x,1/2+y,z
x,-y,1/2+z
loop_
_atom_site_type_symbol
_atom_site_label
_atom_site_fract_x
_atom_site_fract_y
_atom_site_fract_z
Si Si1 0.770216 0.573992 0.098655
Si Si2 0.584961 0.215422 0.678911
Si Si3 0.816493 0.779869 0.447641
Si Si4 0.583295 0.601230 0.788671
Si Si5 0.306763 0.661787 0.157369
Si Si6 0.624140 0.528505 0.512763
Si Si7 0.556379 0.011473 0.627584
O O1 0.723501 0.593099 0.234642
O O2 0.718036 0.501716 0.022716
O O3 0.862461 0.546069 0.115529
O O4 0.751726 0.661352 0.017862
O O5 0.500000 0.237377 0.750000
O O6 0.606562 0.264945 0.543286
O O7 0.655659 0.253125 0.772968
O O8 0.582947 0.112163 0.651918
O O9 0.846721 0.829673 0.318296
O O10 0.773517 0.690146 0.418646
O O11 0.500000 0.647835 0.750000
O O12 0.403102 0.540738 0.838070
O O13 0.580500 0.542956 0.921423
O O14 0.373830 0.618678 0.064568
O O15 0.500000 0.985677 0.750000
O O16 0.500000 0.000000 0.500000
#
# Coordination Sequence:
#
# PCOD9457762 Si02
#       7
#     8   8   8   8   8   8   8
#     4  10  24  44  69  98 132 177 235 277 336 418
#     4  10  25  46  68  99 142 182 229 289 360 408
#     4  10  25  43  67 101 135 182 231 281 349 414
#     4  11  25  43  67 102 136 173 228 281 342 413
#     4  11  24  42  70  99 136 181 227 292 338 416
#     4  11  23  43  72  97 131 183 226 281 340 411
#     4  11  27  45  72 102 136 185 228 288 345 414
#
# _framework density 21.718088000000002
#
# number of rings (size 3 to 8) (size 9 to 14) (size 15 to 20)
#    0.000    1.429    1.429    1.286   16.000    0.571 
#    2.571    0.000    0.000    0.000    0.000    0.000 
#    0.000    0.000    0.000    0.000    0.000    0.000 
#
# Total GULP energy -312571.241775 kJ/mol
# GULP energy per Si atom -5581.629317 kJ/mol
# Density = 2.166866 g / cm^3
# Si number density = 21.718088 Si / 1000 Ang^3
#
#
#
# Elastic Constant Matrix: (Units=GPa)
#
#
# Indices 1 2 3 4 5 6 
#
# 1 125.2350 32.0069 37.6862 0.0000 0.0000 0.0000
# 2 32.0069 73.4384 20.7061 0.0000 0.0000 0.0000
# 3 37.6862 20.7061 98.7091 0.0000 0.0000 0.0000
# 4 0.0000 0.0000 0.0000 21.5071 0.0000 0.0000
# 5 0.0000 0.0000 0.0000 0.0000 33.0358 0.0000
# 6 0.0000 0.0000 0.0000 0.0000 0.0000 27.8345
#
#
#
# Elastic Compliance Matrix: (Units=1/GPa)
#
#
# Indices 1 2 3 4 5 6 
#
# 1 0.009762 -0.003405 -0.003013 0.000000 0.000000 0.000000
# 2 -0.003405 0.015661 -0.001985 0.000000 0.000000 0.000000
# 3 -0.003013 -0.001985 0.011697 0.000000 0.000000 0.000000
# 4 0.000000 0.000000 0.000000 0.046496 0.000000 0.000000
# 5 0.000000 0.000000 0.000000 0.000000 0.030270 0.000000
# 6 0.000000 0.000000 0.000000 0.000000 0.000000 0.035927
#
#
# Mechanical properties :
#
#
# Convention : Reuss Voigt Hill
#
# Bulk Modulus (GPa) = 49.22682 53.13118 51.17900
# Shear Modulus (GPa) = 28.83674 30.27438 29.55556
#
# Velocity S-wave (km/s) = 3.64782 3.73764 3.69300
# Velocity P-wave (km/s) = 6.36063 6.56839 6.46534
#
# Compressibility (1/GPa) = 0.02031413
#
# Stress axis : x y z
#
# Youngs Moduli (GPa) = 102.43979 63.85449 85.48905
#
# Poissons Ratio (x) = 0.21743 0.25755
# Poissons Ratio (y) = 0.34882 0.16970
# Poissons Ratio (z) = 0.30862 0.12676
#
# Static dielectric constant tensor:
#      x y z
#    x 1.806870 0.000000 0.000000 
#    y 0.000000 1.800650 0.000000 
#    z 0.000000 0.000000 1.828730 
# 
# From -- ./inp_files/11962.got.cif
#   From: 2010.05.17/outbox.cif.g08.bks.cpg/sg60_6_cif.got.tgz:11962.got - 2010.06.03 14:59:27.
