data_PCOD9457059
_publ_section_title
;
Structure prediction by ZEFSAII (Michael W. Deem and Ramdas Pophale) SiO2 
 PCOD9457059
Probable space group: P B C N
;
_chemical_formula_sum "Si O2"
_cell_formula_units_Z 56
_cell_length_a 11.096766
_cell_length_b 12.831016
_cell_length_c 16.726640
_cell_angle_alpha 90.000000
_cell_angle_beta 90.000000
_cell_angle_gamma 90.000000
_cell_volume 2381.585538
_symmetry_space_group_name_H-M "P B C N"
_symmetry_group_IT_number 60
_symmetry_cell_setting 'orthorhombic'
loop_
_space_group_symop_operation_xyz
x,y,z
1/2-x,1/2-y,1/2+z
1/2+x,1/2-y,-z
-x,y,1/2-z
-x,-y,-z
1/2+x,1/2+y,1/2-z
1/2-x,1/2+y,z
x,-y,1/2+z
loop_
_atom_site_type_symbol
_atom_site_label
_atom_site_fract_x
_atom_site_fract_y
_atom_site_fract_z
Si Si1 0.720625 0.238184 0.477435
Si Si2 0.872195 0.127841 0.125162
Si Si3 0.905394 0.073551 0.453430
Si Si4 0.717182 0.076872 0.865785
Si Si5 0.871346 0.075684 0.710515
Si Si6 0.658845 0.812844 0.708745
Si Si7 0.949185 0.601314 0.374894
O O1 0.682351 0.314872 0.548073
O O2 0.828190 0.159640 0.499812
O O3 0.766588 0.310668 0.404727
O O4 0.607462 0.168776 0.446725
O O5 0.846609 0.005306 0.140152
O O6 0.801801 0.179338 0.198725
O O7 0.014435 0.133079 0.112766
O O8 0.810931 0.998028 0.411719
O O9 0.000000 0.000000 0.500000
O O10 0.764028 0.073495 0.775117
O O11 0.590544 0.018920 0.878412
O O12 0.000000 0.044393 0.750000
O O13 0.884172 0.196471 0.689970
O O14 0.615767 0.851190 0.795249
O O15 0.589486 0.883101 0.642959
#
# Coordination Sequence:
#
# PCOD9457059 Si02
#       7
#     8   8   8   8   8   8   8
#     4  11  25  43  68 102 141 185 231 296 357 419
#     4  12  27  40  69 109 136 174 244 295 345 432
#     4  11  25  45  71 101 142 186 236 294 352 425
#     4  11  21  43  68  97 136 182 233 278 357 419
#     4  12  22  39  71  98 136 182 234 291 355 421
#     4  11  23  43  68 100 138 183 235 288 350 426
#     4  10  22  42  69  95 137 189 229 281 360 427
#
# _framework density 23.513748
#
# number of rings (size 3 to 8) (size 9 to 14) (size 15 to 20)
#    0.000    0.857    7.143    0.000    4.000    0.000 
#    2.571    0.714    0.000    0.000    0.000    0.000 
#    0.000    0.000    0.000    0.000    0.000    0.000 
#
# Total GULP energy -312990.649744 kJ/mol
# GULP energy per Si atom -5589.118745 kJ/mol
# Density = 2.346023 g / cm^3
# Si number density = 23.513748 Si / 1000 Ang^3
#
#
#
# Elastic Constant Matrix: (Units=GPa)
#
#
# Indices 1 2 3 4 5 6 
#
# 1 67.5766 26.3391 -0.3597 0.0000 0.0000 0.0000
# 2 26.3391 69.3294 0.8575 0.0000 0.0000 0.0000
# 3 -0.3597 0.8575 35.9948 0.0000 0.0000 0.0000
# 4 0.0000 0.0000 0.0000 23.6995 0.0000 0.0000
# 5 0.0000 0.0000 0.0000 0.0000 31.4588 0.0000
# 6 0.0000 0.0000 0.0000 0.0000 0.0000 33.9676
#
#
#
# Elastic Compliance Matrix: (Units=1/GPa)
#
#
# Indices 1 2 3 4 5 6 
#
# 1 0.017374 -0.006605 0.000331 0.000000 0.000000 0.000000
# 2 -0.006605 0.016939 -0.000470 0.000000 0.000000 0.000000
# 3 0.000331 -0.000470 0.027796 0.000000 0.000000 0.000000
# 4 0.000000 0.000000 0.000000 0.042195 0.000000 0.000000
# 5 0.000000 0.000000 0.000000 0.000000 0.031788 0.000000
# 6 0.000000 0.000000 0.000000 0.000000 0.000000 0.029440
#
#
# Mechanical properties :
#
#
# Convention : Reuss Voigt Hill
#
# Bulk Modulus (GPa) = 20.56653 25.17495 22.87074
# Shear Modulus (GPa) = 25.61136 27.56276 26.58706
#
# Velocity S-wave (km/s) = 3.30390 3.42745 3.36624
# Velocity P-wave (km/s) = 4.82907 5.13741 4.98562
#
# Compressibility (1/GPa) = 0.04862269
#
# Stress axis : x y z
#
# Youngs Moduli (GPa) = 57.55696 59.03561 35.97604
#
# Poissons Ratio (x) = 0.38991 -0.01191
# Poissons Ratio (y) = 0.38015 0.01689
# Poissons Ratio (z) = -0.01905 0.02772
#
# Static dielectric constant tensor:
#      x y z
#    x 1.911760 0.000000 0.000000 
#    y 0.000000 1.875310 0.000000 
#    z 0.000000 0.000000 1.933290 
# 
# From -- ./inp_files/22620.got.cif
#   From: 2010.05.17/outbox.cif.g08.bks.cpg/sg60_12_cif.got.tgz:22620.got - 2010.06.03 14:59:27.
