data_PCOD9457559
_publ_section_title
;
Structure prediction by ZEFSAII (Michael W. Deem and Ramdas Pophale) SiO2 
 PCOD9457559
Probable space group: P B C N
;
_chemical_formula_sum "Si O2"
_cell_formula_units_Z 40
_cell_length_a 10.339336
_cell_length_b 15.317831
_cell_length_c 9.840754
_cell_angle_alpha 90.000000
_cell_angle_beta 90.000000
_cell_angle_gamma 90.000000
_cell_volume 1558.541238
_symmetry_space_group_name_H-M "P B C N"
_symmetry_group_IT_number 60
_symmetry_cell_setting 'orthorhombic'
loop_
_space_group_symop_operation_xyz
x,y,z
1/2-x,1/2-y,1/2+z
1/2+x,1/2-y,-z
-x,y,1/2-z
-x,-y,-z
1/2+x,1/2+y,1/2-z
1/2-x,1/2+y,z
x,-y,1/2+z
loop_
_atom_site_type_symbol
_atom_site_label
_atom_site_fract_x
_atom_site_fract_y
_atom_site_fract_z
Si Si1 0.793852 0.020798 0.518053
Si Si2 0.528256 0.313099 0.958365
Si Si3 0.617817 0.626783 0.820147
Si Si4 0.851845 0.560950 0.265669
Si Si5 0.709538 0.734726 0.238950
O O1 0.824863 0.930169 0.440915
O O2 0.745324 0.997188 0.670043
O O3 0.909215 0.089196 0.478115
O O4 0.677107 0.055299 0.425746
O O5 0.409740 0.293465 0.855738
O O6 0.647807 0.262048 0.891408
O O7 0.462319 0.296234 0.102728
O O8 0.500000 0.574991 0.750000
O O9 0.721146 0.672700 0.722289
O O10 0.813616 0.658590 0.224399
O O11 0.000000 0.536659 0.250000
#
# Coordination Sequence:
#
# PCOD9457559 Si02
#       5
#     8   8   8   8   8
#     4  11  24  44  74 103 143 195 258 303 371 457
#     4  10  23  45  69  93 142 191 239 299 367 444
#     4  12  25  38  70 106 136 182 252 306 370 448
#     4  11  23  44  68 101 145 192 236 307 379 441
#     4  10  24  42  66  96 138 189 233 301 376 434
#
# _framework density 25.665025
#
# number of rings (size 3 to 8) (size 9 to 14) (size 15 to 20)
#    0.000    1.200    2.000    3.000    8.400    1.600 
#    3.600    0.000    0.000    0.000    0.000    0.000 
#    0.000    0.000    0.000    0.000    0.000    0.000 
#
# Total GULP energy -223123.771317 kJ/mol
# GULP energy per Si atom -5578.094283 kJ/mol
# Density = 2.560661 g / cm^3
# Si number density = 25.665025 Si / 1000 Ang^3
#
#
#
# Elastic Constant Matrix: (Units=GPa)
#
#
# Indices 1 2 3 4 5 6 
#
# 1 116.3390 41.2131 7.5905 0.0000 0.0000 0.0000
# 2 41.2131 119.0078 -0.6786 0.0000 0.0000 0.0000
# 3 7.5905 -0.6786 91.7744 0.0000 0.0000 0.0000
# 4 0.0000 0.0000 0.0000 29.5045 0.0000 0.0000
# 5 0.0000 0.0000 0.0000 0.0000 53.5338 0.0000
# 6 0.0000 0.0000 0.0000 0.0000 0.0000 28.7420
#
#
#
# Elastic Compliance Matrix: (Units=1/GPa)
#
#
# Indices 1 2 3 4 5 6 
#
# 1 0.009862 -0.003420 -0.000841 0.000000 0.000000 0.000000
# 2 -0.003420 0.009589 0.000354 0.000000 0.000000 0.000000
# 3 -0.000841 0.000354 0.010968 0.000000 0.000000 0.000000
# 4 0.000000 0.000000 0.000000 0.033893 0.000000 0.000000
# 5 0.000000 0.000000 0.000000 0.000000 0.018680 0.000000
# 6 0.000000 0.000000 0.000000 0.000000 0.000000 0.034792
#
#
# Mechanical properties :
#
#
# Convention : Reuss Voigt Hill
#
# Bulk Modulus (GPa) = 44.23768 47.04126 45.63947
# Shear Modulus (GPa) = 37.55602 40.95580 39.25591
#
# Velocity S-wave (km/s) = 3.82948 3.99906 3.91519
# Velocity P-wave (km/s) = 6.06854 6.30016 6.18544
#
# Compressibility (1/GPa) = 0.02260516
#
# Stress axis : x y z
#
# Youngs Moduli (GPa) = 101.39937 104.28384 91.17055
#
# Poissons Ratio (x) = 0.35666 0.07667
# Poissons Ratio (y) = 0.34679 -0.03225
# Poissons Ratio (z) = 0.08527 -0.03689
#
# Static dielectric constant tensor:
#      x y z
#    x 2.075150 0.000000 0.000000 
#    y 0.000000 2.007730 0.000000 
#    z 0.000000 0.000000 2.207900 
# 
# From -- ./inp_files/9775.got.cif
#   From: 2010.05.17/outbox.cif.g08.bks.cpg/sg60_5_cif.got.tgz:9775.got - 2010.06.03 14:59:27.
