data_PCOD9457029
_publ_section_title
;
Structure prediction by ZEFSAII (Michael W. Deem and Ramdas Pophale) SiO2 
 PCOD9457029
Probable space group: P B C N
;
_chemical_formula_sum "Si O2"
_cell_formula_units_Z 60
_cell_length_a 12.194248
_cell_length_b 8.266681
_cell_length_c 24.062259
_cell_angle_alpha 90.000000
_cell_angle_beta 90.000000
_cell_angle_gamma 90.000000
_cell_volume 2425.619076
_symmetry_space_group_name_H-M "P B C N"
_symmetry_group_IT_number 60
_symmetry_cell_setting 'orthorhombic'
loop_
_space_group_symop_operation_xyz
x,y,z
1/2-x,1/2-y,1/2+z
1/2+x,1/2-y,-z
-x,y,1/2-z
-x,-y,-z
1/2+x,1/2+y,1/2-z
1/2-x,1/2+y,z
x,-y,1/2+z
loop_
_atom_site_type_symbol
_atom_site_label
_atom_site_fract_x
_atom_site_fract_y
_atom_site_fract_z
Si Si1 0.124509 0.904628 0.735651
Si Si2 0.100138 0.064550 0.963784
Si Si3 0.677889 0.737229 0.807666
Si Si4 0.373022 0.945488 0.583363
Si Si5 0.500000 0.052287 0.250000
Si Si6 0.251507 0.691232 0.517879
Si Si7 0.911267 0.569872 0.633721
Si Si8 0.325737 0.436106 0.860558
O O1 0.140189 0.051952 0.692554
O O2 0.000000 0.867628 0.750000
O O3 0.196873 0.757247 0.712667
O O4 0.168396 0.967583 0.794807
O O5 0.097361 0.056540 0.897192
O O6 0.146864 0.227519 0.989456
O O7 0.194309 0.934270 0.976863
O O8 0.000000 0.000000 0.000000
O O9 0.657298 0.839487 0.863087
O O10 0.602017 0.831271 0.763679
O O11 0.344044 0.822317 0.533637
O O12 0.291370 0.095012 0.571939
O O13 0.494499 0.014840 0.590885
O O14 0.535100 0.956766 0.194617
O O15 0.802209 0.463670 0.627086
O O16 0.871577 0.755449 0.628940
#
# Coordination Sequence:
#
# PCOD9457029 Si02
#       8
#     8   8   8   8   4   8   8   8
#     4  12  27  42  67  98 137 179 228 278 346 424
#     4  11  25  45  70  99 144 181 243 304 357 426
#     4  11  23  43  64  98 136 177 225 277 343 421
#     4  10  23  44  74 100 141 183 235 297 363 427
#     4  10  22  42  66  92 142 176 218 286 334 418
#     4  10  23  45  69 105 133 184 241 297 363 425
#     4  11  25  43  71  99 145 183 236 284 357 421
#     4  12  26  44  68 103 138 191 236 288 357 426
#
# _framework density 24.735952999999999
#
# number of rings (size 3 to 8) (size 9 to 14) (size 15 to 20)
#    0.000    1.067    2.000    3.200    0.933    7.467 
#    0.000    3.333    0.000    0.000    0.000    0.000 
#    0.000    0.000    0.000    0.000    0.000    0.000 
#
# Total GULP energy -335999.728482 kJ/mol
# GULP energy per Si atom -5599.995475 kJ/mol
# Density = 2.467965 g / cm^3
# Si number density = 24.735953 Si / 1000 Ang^3
#
#
#
# Elastic Constant Matrix: (Units=GPa)
#
#
# Indices 1 2 3 4 5 6 
#
# 1 127.4603 26.8944 15.9912 0.0000 0.0000 0.0000
# 2 26.8944 83.3616 4.1003 0.0000 0.0000 0.0000
# 3 15.9912 4.1003 56.5892 0.0000 0.0000 0.0000
# 4 0.0000 0.0000 0.0000 30.7431 0.0000 0.0000
# 5 0.0000 0.0000 0.0000 0.0000 31.1650 0.0000
# 6 0.0000 0.0000 0.0000 0.0000 0.0000 28.8516
#
#
#
# Elastic Compliance Matrix: (Units=1/GPa)
#
#
# Indices 1 2 3 4 5 6 
#
# 1 0.008698 -0.002695 -0.002263 0.000000 0.000000 0.000000
# 2 -0.002695 0.012874 -0.000171 0.000000 0.000000 0.000000
# 3 -0.002263 -0.000171 0.018323 0.000000 0.000000 0.000000
# 4 0.000000 0.000000 0.000000 0.032528 0.000000 0.000000
# 5 0.000000 0.000000 0.000000 0.000000 0.032087 0.000000
# 6 0.000000 0.000000 0.000000 0.000000 0.000000 0.034660
#
#
# Mechanical properties :
#
#
# Convention : Reuss Voigt Hill
#
# Bulk Modulus (GPa) = 33.74137 40.15364 36.94751
# Shear Modulus (GPa) = 31.38600 32.84696 32.11648
#
# Velocity S-wave (km/s) = 3.56594 3.64799 3.60720
# Velocity P-wave (km/s) = 5.53397 5.83198 5.68493
#
# Compressibility (1/GPa) = 0.02963721
#
# Stress axis : x y z
#
# Youngs Moduli (GPa) = 114.96784 77.67714 54.57617
#
# Poissons Ratio (x) = 0.20933 0.12349
# Poissons Ratio (y) = 0.30983 0.00935
# Poissons Ratio (z) = 0.26013 0.01330
#
# Static dielectric constant tensor:
#      x y z
#    x 1.945950 0.000000 0.000000 
#    y 0.000000 1.958270 0.000000 
#    z 0.000000 0.000000 2.060880 
# 
# From -- ./inp_files/25346.got.cif
#   From: 2010.05.17/outbox.cif.g08.bks.cpg/sg60_13_cif.got.tgz:25346.got - 2010.06.03 14:59:27.
