data_PCOD9457116
_publ_section_title
;
Structure prediction by ZEFSAII (Michael W. Deem and Ramdas Pophale) SiO2 
 PCOD9457116
Probable space group: P B C N
;
_chemical_formula_sum "Si O2"
_cell_formula_units_Z 56
_cell_length_a 9.220477
_cell_length_b 13.416177
_cell_length_c 21.197980
_cell_angle_alpha 90.000000
_cell_angle_beta 90.000000
_cell_angle_gamma 90.000000
_cell_volume 2622.265410
_symmetry_space_group_name_H-M "P B C N"
_symmetry_group_IT_number 60
_symmetry_cell_setting 'orthorhombic'
loop_
_space_group_symop_operation_xyz
x,y,z
1/2-x,1/2-y,1/2+z
1/2+x,1/2-y,-z
-x,y,1/2-z
-x,-y,-z
1/2+x,1/2+y,1/2-z
1/2-x,1/2+y,z
x,-y,1/2+z
loop_
_atom_site_type_symbol
_atom_site_label
_atom_site_fract_x
_atom_site_fract_y
_atom_site_fract_z
Si Si1 0.862114 0.355369 0.639689
Si Si2 0.087785 0.128539 0.443414
Si Si3 0.192869 0.335424 0.129822
Si Si4 0.206700 0.982201 0.551542
Si Si5 0.577571 0.076933 0.681464
Si Si6 0.342737 0.683615 0.763126
Si Si7 0.892824 0.296440 0.957202
O O1 0.699381 0.357878 0.613123
O O2 0.914784 0.467368 0.652289
O O3 0.867022 0.288422 0.702129
O O4 0.968060 0.305320 0.588069
O O5 0.069651 0.230573 0.482404
O O6 0.934121 0.079914 0.427017
O O7 0.161465 0.051025 0.492768
O O8 0.242865 0.445227 0.107305
O O9 0.262729 0.306016 0.196524
O O10 0.263655 0.261499 0.079397
O O11 0.021509 0.347742 0.140791
O O12 0.331366 0.906112 0.530240
O O13 0.500000 0.070046 0.750000
O O14 0.738481 0.118480 0.692564
O O15 0.500000 0.637284 0.750000
#
# Coordination Sequence:
#
# PCOD9457116 Si02
#       7
#     8   8   8   8   8   8   8
#     4  12  24  42  69  99 130 178 221 281 336 406
#     4  10  25  40  63 101 130 177 226 274 337 399
#     4  10  22  43  67  96 131 179 218 277 338 405
#     4  10  22  44  65  92 139 175 224 280 334 406
#     4  10  24  43  65  96 131 172 221 270 339 411
#     4  11  24  42  67  98 134 168 220 282 336 399
#     4  11  22  41  69  92 136 179 222 276 337 396
#
# _framework density 21.35558
#
# number of rings (size 3 to 8) (size 9 to 14) (size 15 to 20)
#    0.000    1.429    2.857    1.286    4.000    2.857 
#    0.000    2.143    0.000    0.000    0.000    0.000 
#    0.000    0.000    0.000    0.000    0.000    0.000 
#
# Total GULP energy -313225.642388 kJ/mol
# GULP energy per Si atom -5593.315043 kJ/mol
# Density = 2.130697 g / cm^3
# Si number density = 21.355580 Si / 1000 Ang^3
#
#
#
# Elastic Constant Matrix: (Units=GPa)
#
#
# Indices 1 2 3 4 5 6 
#
# 1 115.7673 29.1152 27.5320 0.0000 0.0000 0.0000
# 2 29.1152 63.7316 13.9623 0.0000 0.0000 0.0000
# 3 27.5320 13.9623 51.7695 0.0000 0.0000 0.0000
# 4 0.0000 0.0000 0.0000 22.0608 0.0000 0.0000
# 5 0.0000 0.0000 0.0000 0.0000 24.3222 0.0000
# 6 0.0000 0.0000 0.0000 0.0000 0.0000 26.7893
#
#
#
# Elastic Compliance Matrix: (Units=1/GPa)
#
#
# Indices 1 2 3 4 5 6 
#
# 1 0.010720 -0.003878 -0.004656 0.000000 0.000000 0.000000
# 2 -0.003878 0.018079 -0.002814 0.000000 0.000000 0.000000
# 3 -0.004656 -0.002814 0.022551 0.000000 0.000000 0.000000
# 4 0.000000 0.000000 0.000000 0.045329 0.000000 0.000000
# 5 0.000000 0.000000 0.000000 0.000000 0.041115 0.000000
# 6 0.000000 0.000000 0.000000 0.000000 0.000000 0.037328
#
#
# Mechanical properties :
#
#
# Convention : Reuss Voigt Hill
#
# Bulk Modulus (GPa) = 34.89591 41.38748 38.14170
# Shear Modulus (GPa) = 24.11170 25.34506 24.72838
#
# Velocity S-wave (km/s) = 3.36379 3.44875 3.40654
# Velocity P-wave (km/s) = 5.60916 5.93976 5.77683
#
# Compressibility (1/GPa) = 0.02865665
#
# Stress axis : x y z
#
# Youngs Moduli (GPa) = 93.28014 55.31381 44.34369
#
# Poissons Ratio (x) = 0.21448 0.20644
# Poissons Ratio (y) = 0.36170 0.12477
# Poissons Ratio (z) = 0.43427 0.15564
#
# Static dielectric constant tensor:
#      x y z
#    x 1.777310 0.000000 0.000000 
#    y 0.000000 1.753470 0.000000 
#    z 0.000000 0.000000 1.738850 
# 
# From -- ./inp_files/22208.got.cif
#   From: 2010.05.17/outbox.cif.g08.bks.cpg/sg60_12_cif.got.tgz:22208.got - 2010.06.03 14:59:27.
