data_PCOD9457679
_publ_section_title
;
Structure prediction by ZEFSAII (Michael W. Deem and Ramdas Pophale) SiO2 
 PCOD9457679
Probable space group: P B C N
;
_chemical_formula_sum "Si O2"
_cell_formula_units_Z 44
_cell_length_a 24.105735
_cell_length_b 10.229807
_cell_length_c 8.516503
_cell_angle_alpha 90.000000
_cell_angle_beta 90.000000
_cell_angle_gamma 90.000000
_cell_volume 2100.144232
_symmetry_space_group_name_H-M "P B C N"
_symmetry_group_IT_number 60
_symmetry_cell_setting 'orthorhombic'
loop_
_space_group_symop_operation_xyz
x,y,z
1/2-x,1/2-y,1/2+z
1/2+x,1/2-y,-z
-x,y,1/2-z
-x,-y,-z
1/2+x,1/2+y,1/2-z
1/2-x,1/2+y,z
x,-y,1/2+z
loop_
_atom_site_type_symbol
_atom_site_label
_atom_site_fract_x
_atom_site_fract_y
_atom_site_fract_z
Si Si1 0.500000 0.039827 0.750000
Si Si2 0.909369 0.915297 0.165553
Si Si3 0.789022 0.903988 0.005014
Si Si4 0.022279 0.682512 0.478899
Si Si5 0.590123 0.678610 0.020751
Si Si6 0.212073 0.181301 0.360135
O O1 0.459947 0.132139 0.649036
O O2 0.469039 0.939305 0.864146
O O3 0.902011 0.884958 0.348324
O O4 0.950379 0.810169 0.090454
O O5 0.850997 0.900951 0.076171
O O6 0.930438 0.061723 0.134095
O O7 0.787980 0.863966 0.821842
O O8 0.752196 0.801082 0.101583
O O9 0.770854 0.053653 0.037106
O O10 0.956880 0.713051 0.498894
O O11 0.649722 0.719711 0.086827
#
# Coordination Sequence:
#
# PCOD9457679 Si02
#       6
#     4   8   8   8   8   8
#     4  10  24  42  58  84 132 166 198 252 288 378
#     4  11  22  39  64  92 122 158 207 257 302 361
#     4  11  23  43  65  94 125 163 208 259 310 369
#     4  11  23  42  61  88 126 162 206 243 311 357
#     4  11  22  39  64  92 122 158 207 257 302 361
#     4  11  23  43  65  94 125 163 208 259 310 369
#
# _framework density 20.950942000000001
#
# number of rings (size 3 to 8) (size 9 to 14) (size 15 to 20)
#    0.000    1.091    1.818    7.091    5.091    0.000 
#    6.545    0.000    0.000    0.000    0.000    0.000 
#    0.000    0.000    0.000    0.000    0.000    0.000 
#
# Total GULP energy -245922.066985 kJ/mol
# GULP energy per Si atom -5589.137886 kJ/mol
# Density = 2.090326 g / cm^3
# Si number density = 20.950942 Si / 1000 Ang^3
#
#
#
# Elastic Constant Matrix: (Units=GPa)
#
#
# Indices 1 2 3 4 5 6 
#
# 1 50.2811 42.2089 10.9330 0.0000 0.0000 0.0000
# 2 42.2089 82.5369 1.1232 0.0000 0.0000 0.0000
# 3 10.9330 1.1232 97.9903 0.0000 0.0000 0.0000
# 4 0.0000 0.0000 0.0000 40.4361 0.0000 0.0000
# 5 0.0000 0.0000 0.0000 0.0000 22.7256 0.0000
# 6 0.0000 0.0000 0.0000 0.0000 0.0000 28.9703
#
#
#
# Elastic Compliance Matrix: (Units=1/GPa)
#
#
# Indices 1 2 3 4 5 6 
#
# 1 0.036231 -0.018476 -0.003831 0.000000 0.000000 0.000000
# 2 -0.018476 0.021540 0.001815 0.000000 0.000000 0.000000
# 3 -0.003831 0.001815 0.010612 0.000000 0.000000 0.000000
# 4 0.000000 0.000000 0.000000 0.024730 0.000000 0.000000
# 5 0.000000 0.000000 0.000000 0.000000 0.044003 0.000000
# 6 0.000000 0.000000 0.000000 0.000000 0.000000 0.034518
#
#
# Mechanical properties :
#
#
# Convention : Reuss Voigt Hill
#
# Bulk Modulus (GPa) = 36.49913 37.70427 37.10170
# Shear Modulus (GPa) = 22.54771 30.19592 26.37182
#
# Velocity S-wave (km/s) = 3.28413 3.80052 3.55172
# Velocity P-wave (km/s) = 5.64267 6.10689 5.87937
#
# Compressibility (1/GPa) = 0.02739792
#
# Stress axis : x y z
#
# Youngs Moduli (GPa) = 27.60050 46.42571 94.23575
#
# Poissons Ratio (x) = 0.85778 0.36098
# Poissons Ratio (y) = 0.50996 -0.17100
# Poissons Ratio (z) = 0.10573 -0.08424
#
# Static dielectric constant tensor:
#      x y z
#    x 1.726060 0.000000 0.000000 
#    y 0.000000 1.750360 0.000000 
#    z 0.000000 0.000000 1.807680 
# 
# From -- ./inp_files/8356.got.cif
#   From: 2010.05.17/outbox.cif.g08.bks.cpg/sg60_5_cif.got.tgz:8356.got - 2010.06.03 14:59:27.
