data_PCOD9457957
_publ_section_title
;
Structure prediction by ZEFSAII (Michael W. Deem and Ramdas Pophale) SiO2 
 PCOD9457957
Probable space group: P B C N
;
_chemical_formula_sum "Si O2"
_cell_formula_units_Z 40
_cell_length_a 13.273211
_cell_length_b 23.899044
_cell_length_c 5.406792
_cell_angle_alpha 90.000000
_cell_angle_beta 90.000000
_cell_angle_gamma 90.000000
_cell_volume 1715.126628
_symmetry_space_group_name_H-M "P B C N"
_symmetry_group_IT_number 60
_symmetry_cell_setting 'orthorhombic'
loop_
_space_group_symop_operation_xyz
x,y,z
1/2-x,1/2-y,1/2+z
1/2+x,1/2-y,-z
-x,y,1/2-z
-x,-y,-z
1/2+x,1/2+y,1/2-z
1/2-x,1/2+y,z
x,-y,1/2+z
loop_
_atom_site_type_symbol
_atom_site_label
_atom_site_fract_x
_atom_site_fract_y
_atom_site_fract_z
Si Si1 0.301005 0.385607 0.469138
Si Si2 0.862446 0.208147 0.128989
Si Si3 0.159628 0.683963 0.617601
Si Si4 0.000000 0.140527 0.750000
Si Si5 0.863385 0.464946 0.922851
Si Si6 0.000000 0.370479 0.750000
O O1 0.331198 0.335879 0.657250
O O2 0.217595 0.364052 0.271553
O O3 0.407238 0.396666 0.340841
O O4 0.248134 0.438157 0.593260
O O5 0.892433 0.269724 0.213573
O O6 0.756490 0.216068 0.990767
O O7 0.947806 0.180236 0.957047
O O8 0.083134 0.662698 0.408744
O O9 0.878104 0.499655 0.671063
O O10 0.939181 0.412624 0.925865
#
# Coordination Sequence:
#
# PCOD9457957 Si02
#       6
#     8   8   8   4   8   4
#     4  11  24  49  73 107 150 201 257 326 384 461
#     4  11  22  48  70 110 154 207 250 313 384 473
#     4  11  24  45  73 110 162 207 256 305 390 478
#     4  10  26  45  76 102 154 198 254 315 394 454
#     4  12  28  52  81 114 153 206 268 339 403 462
#     4  12  26  51  76 118 154 208 256 325 392 478
#
# _framework density 23.321892999999999
#
# number of rings (size 3 to 8) (size 9 to 14) (size 15 to 20)
#    0.000    0.800    4.000    2.400    2.800    3.200 
#   10.800    3.000    0.000    0.000    0.000    0.000 
#    0.000    0.000    0.000    0.000    0.000    0.000 
#
# Total GULP energy -223857.460306 kJ/mol
# GULP energy per Si atom -5596.436508 kJ/mol
# Density = 2.326881 g / cm^3
# Si number density = 23.321893 Si / 1000 Ang^3
#
#
#
# Elastic Constant Matrix: (Units=GPa)
#
#
# Indices 1 2 3 4 5 6 
#
# 1 184.0369 43.3767 53.9886 0.0000 0.0000 0.0000
# 2 43.3767 55.1343 30.2684 0.0000 0.0000 0.0000
# 3 53.9886 30.2684 106.6087 0.0000 0.0000 0.0000
# 4 0.0000 0.0000 0.0000 -44.1580 0.0000 0.0000
# 5 0.0000 0.0000 0.0000 0.0000 52.3403 0.0000
# 6 0.0000 0.0000 0.0000 0.0000 0.0000 4.6307
#
#
#
# Elastic Compliance Matrix: (Units=1/GPa)
#
#
# Indices 1 2 3 4 5 6 
#
# 1 0.007153 -0.004311 -0.002399 0.000000 0.000000 0.000000
# 2 -0.004311 0.024085 -0.004655 0.000000 0.000000 0.000000
# 3 -0.002399 -0.004655 0.011916 0.000000 0.000000 0.000000
# 4 0.000000 0.000000 0.000000 -0.022646 0.000000 0.000000
# 5 0.000000 0.000000 0.000000 0.000000 0.019106 0.000000
# 6 0.000000 0.000000 0.000000 0.000000 0.000000 0.215950
#
#
# Mechanical properties :
#
#
# Convention : Reuss Voigt Hill
#
# Bulk Modulus (GPa) = 48.95885 66.78304 57.87094
# Shear Modulus (GPa) = 17.53756 17.10568 17.32162
#
# Velocity S-wave (km/s) = 2.74520 2.71119 2.72824
# Velocity P-wave (km/s) = 5.57552 6.20469 5.89850
#
# Compressibility (1/GPa) = 0.02042532
#
# Stress axis : x y z
#
# Youngs Moduli (GPa) = 139.79250 41.51994 83.91765
#
# Poissons Ratio (x) = 0.17900 0.20129
# Poissons Ratio (y) = 0.60266 0.39063
# Poissons Ratio (z) = 0.33531 0.19327
#
# Static dielectric constant tensor:
#      x y z
#    x 1.908820 0.000000 0.000000 
#    y 0.000000 1.856440 0.000000 
#    z 0.000000 0.000000 2.027160 
# 
# From -- ./inp_files/1220.got.cif
#   From: 2010.05.17/outbox.cif.g08.bks.cpg/sg60_1_cif.got.tgz:1220.got - 2010.06.03 14:59:27.
