data_PCOD9457197
_publ_section_title
;
Structure prediction by ZEFSAII (Michael W. Deem and Ramdas Pophale) SiO2 
 PCOD9457197
Probable space group: P B C N
;
_chemical_formula_sum "Si O2"
_cell_formula_units_Z 36
_cell_length_a 10.686634
_cell_length_b 8.650580
_cell_length_c 14.944447
_cell_angle_alpha 90.000000
_cell_angle_beta 90.000000
_cell_angle_gamma 90.000000
_cell_volume 1381.548106
_symmetry_space_group_name_H-M "P B C N"
_symmetry_group_IT_number 60
_symmetry_cell_setting 'orthorhombic'
loop_
_space_group_symop_operation_xyz
x,y,z
1/2-x,1/2-y,1/2+z
1/2+x,1/2-y,-z
-x,y,1/2-z
-x,-y,-z
1/2+x,1/2+y,1/2-z
1/2-x,1/2+y,z
x,-y,1/2+z
loop_
_atom_site_type_symbol
_atom_site_label
_atom_site_fract_x
_atom_site_fract_y
_atom_site_fract_z
Si Si1 0.803219 0.186265 0.547905
Si Si2 0.144807 0.891118 0.849665
Si Si3 0.595865 0.810306 0.376927
Si Si4 0.000000 0.874416 0.250000
Si Si5 0.855740 0.335782 0.879319
O O1 0.765528 0.286029 0.634199
O O2 0.893711 0.282412 0.483891
O O3 0.678100 0.171943 0.485176
O O4 0.849850 0.013569 0.567071
O O5 0.029470 0.773407 0.847797
O O6 0.115824 0.013639 0.772634
O O7 0.720576 0.722538 0.342094
O O8 0.608075 0.989792 0.355764
O O9 0.041882 0.775726 0.164307
#
# Coordination Sequence:
#
# PCOD9457197 Si02
#       5
#     8   8   8   4   8
#     4  10  23  45  76 107 140 195 264 296 360 467
#     4  12  26  46  74 112 151 198 248 317 381 449
#     4  10  22  44  79 104 146 197 253 311 364 450
#     4  12  30  44  74 112 160 196 244 324 398 434
#     4  10  23  45  72 112 146 199 249 310 374 464
#
# _framework density 26.057725000000001
#
# number of rings (size 3 to 8) (size 9 to 14) (size 15 to 20)
#    1.333    0.000    2.222    2.000    6.222    7.111 
#    0.000    0.000    0.000    0.000    0.000    0.000 
#    0.000    0.000    0.000    0.000    0.000    0.000 
#
# Total GULP energy -201215.348799 kJ/mol
# GULP energy per Si atom -5589.315244 kJ/mol
# Density = 2.599842 g / cm^3
# Si number density = 26.057725 Si / 1000 Ang^3
#
#
#
# Elastic Constant Matrix: (Units=GPa)
#
#
# Indices 1 2 3 4 5 6 
#
# 1 96.4419 40.9035 7.3137 0.0000 0.0000 0.0000
# 2 40.9035 199.3108 30.8765 0.0000 0.0000 0.0000
# 3 7.3137 30.8765 83.5304 0.0000 0.0000 0.0000
# 4 0.0000 0.0000 0.0000 47.2676 0.0000 0.0000
# 5 0.0000 0.0000 0.0000 0.0000 30.4462 0.0000
# 6 0.0000 0.0000 0.0000 0.0000 0.0000 56.2977
#
#
#
# Elastic Compliance Matrix: (Units=1/GPa)
#
#
# Indices 1 2 3 4 5 6 
#
# 1 0.011359 -0.002309 -0.000141 0.000000 0.000000 0.000000
# 2 -0.002309 0.005792 -0.001939 0.000000 0.000000 0.000000
# 3 -0.000141 -0.001939 0.012701 0.000000 0.000000 0.000000
# 4 0.000000 0.000000 0.000000 0.021156 0.000000 0.000000
# 5 0.000000 0.000000 0.000000 0.000000 0.032845 0.000000
# 6 0.000000 0.000000 0.000000 0.000000 0.000000 0.017763
#
#
# Mechanical properties :
#
#
# Convention : Reuss Voigt Hill
#
# Bulk Modulus (GPa) = 47.45300 59.71895 53.58598
# Shear Modulus (GPa) = 42.58322 46.81492 44.69907
#
# Velocity S-wave (km/s) = 4.04689 4.24321 4.14622
# Velocity P-wave (km/s) = 6.33141 6.85377 6.59776
#
# Compressibility (1/GPa) = 0.02107348
#
# Stress axis : x y z
#
# Youngs Moduli (GPa) = 88.03540 172.66551 78.73629
#
# Poissons Ratio (x) = 0.39874 0.01110
# Poissons Ratio (y) = 0.20330 0.15264
# Poissons Ratio (z) = 0.01241 0.33473
#
# Static dielectric constant tensor:
#      x y z
#    x 2.051400 0.000000 0.000000 
#    y 0.000000 1.925380 0.000000 
#    z 0.000000 0.000000 2.187160 
# 
# From -- ./inp_files/21931.got.cif
#   From: 2010.05.17/outbox.cif.g08.bks.cpg/sg60_11_cif.got.tgz:21931.got - 2010.06.03 14:59:27.
