data_PCOD9457098
_publ_section_title
;
Structure prediction by ZEFSAII (Michael W. Deem and Ramdas Pophale) SiO2 
 PCOD9457098
Probable space group: P B C N
;
_chemical_formula_sum "Si O2"
_cell_formula_units_Z 24
_cell_length_a 11.355457
_cell_length_b 18.610928
_cell_length_c 4.825865
_cell_angle_alpha 90.000000
_cell_angle_beta 90.000000
_cell_angle_gamma 90.000000
_cell_volume 1019.877040
_symmetry_space_group_name_H-M "P B C N"
_symmetry_group_IT_number 60
_symmetry_cell_setting 'orthorhombic'
loop_
_space_group_symop_operation_xyz
x,y,z
1/2-x,1/2-y,1/2+z
1/2+x,1/2-y,-z
-x,y,1/2-z
-x,-y,-z
1/2+x,1/2+y,1/2-z
1/2-x,1/2+y,z
x,-y,1/2+z
loop_
_atom_site_type_symbol
_atom_site_label
_atom_site_fract_x
_atom_site_fract_y
_atom_site_fract_z
Si Si1 0.500000 0.271160 0.750000
Si Si2 0.841954 0.544770 0.535302
Si Si3 0.578208 0.407205 0.976058
Si Si4 0.000000 0.336654 0.750000
O O1 0.600723 0.332449 0.802732
O O2 0.474381 0.218086 0.498606
O O3 0.873216 0.524947 0.849035
O O4 0.702158 0.557633 0.535628
O O5 0.902570 0.611745 0.387987
O O6 0.500000 0.391163 0.250000
O O7 0.500000 0.450219 0.750000
#
# Coordination Sequence:
#
# PCOD9457098 Si02
#       4
#     4   8   8   4
#     4  10  22  43  66  97 124 172 220 282 334 390
#     4  12  26  42  66  96 134 178 217 270 331 402
#     4  10  22  43  65 100 127 166 223 277 339 390
#     4  12  24  43  68  93 136 172 224 270 330 406
#
# _framework density 23.532247000000002
#
# number of rings (size 3 to 8) (size 9 to 14) (size 15 to 20)
#    1.000    0.000    1.667    5.000    0.000    6.667 
#    0.000    0.000    0.000    0.000    0.000    0.000 
#    0.000    0.000    0.000    0.000    0.000    0.000 
#
# Total GULP energy -133767.218014 kJ/mol
# GULP energy per Si atom -5573.634084 kJ/mol
# Density = 2.347869 g / cm^3
# Si number density = 23.532247 Si / 1000 Ang^3
#
#
#
# Elastic Constant Matrix: (Units=GPa)
#
#
# Indices 1 2 3 4 5 6 
#
# 1 85.8561 8.1699 3.9535 0.0000 0.0000 0.0000
# 2 8.1699 102.6067 14.0380 0.0000 0.0000 0.0000
# 3 3.9535 14.0380 114.5099 0.0000 0.0000 0.0000
# 4 0.0000 0.0000 0.0000 56.7173 0.0000 0.0000
# 5 0.0000 0.0000 0.0000 0.0000 29.3363 0.0000
# 6 0.0000 0.0000 0.0000 0.0000 0.0000 33.4795
#
#
#
# Elastic Compliance Matrix: (Units=1/GPa)
#
#
# Indices 1 2 3 4 5 6 
#
# 1 0.011746 -0.000895 -0.000296 0.000000 0.000000 0.000000
# 2 -0.000895 0.009980 -0.001193 0.000000 0.000000 0.000000
# 3 -0.000296 -0.001193 0.008889 0.000000 0.000000 0.000000
# 4 0.000000 0.000000 0.000000 0.017631 0.000000 0.000000
# 5 0.000000 0.000000 0.000000 0.000000 0.034087 0.000000
# 6 0.000000 0.000000 0.000000 0.000000 0.000000 0.029869
#
#
# Mechanical properties :
#
#
# Convention : Reuss Voigt Hill
#
# Bulk Modulus (GPa) = 38.68578 39.47729 39.08153
# Shear Modulus (GPa) = 39.81316 42.36070 41.08693
#
# Velocity S-wave (km/s) = 4.11768 4.24738 4.18303
# Velocity P-wave (km/s) = 6.25158 6.39264 6.32250
#
# Compressibility (1/GPa) = 0.02584929
#
# Stress axis : x y z
#
# Youngs Moduli (GPa) = 85.13419 100.19676 112.49489
#
# Poissons Ratio (x) = 0.08966 0.03328
# Poissons Ratio (y) = 0.07618 0.13416
# Poissons Ratio (z) = 0.02519 0.11950
#
# Static dielectric constant tensor:
#      x y z
#    x 1.904540 0.000000 0.000000 
#    y 0.000000 1.937170 0.000000 
#    z 0.000000 0.000000 1.933470 
# 
# From -- ./inp_files/258.got.cif
#   From: 2010.05.17/outbox.cif.g08.bks.cpg/sg60_1_cif.got.tgz:258.got - 2010.06.03 14:59:27.
