data_PCOD9457103
_publ_section_title
;
Structure prediction by ZEFSAII (Michael W. Deem and Ramdas Pophale) SiO2 
 PCOD9457103
Probable space group: P B C N
;
_chemical_formula_sum "Si O2"
_cell_formula_units_Z 32
_cell_length_a 8.192453
_cell_length_b 15.693194
_cell_length_c 9.760329
_cell_angle_alpha 90.000000
_cell_angle_beta 90.000000
_cell_angle_gamma 90.000000
_cell_volume 1254.844060
_symmetry_space_group_name_H-M "P B C N"
_symmetry_group_IT_number 60
_symmetry_cell_setting 'orthorhombic'
loop_
_space_group_symop_operation_xyz
x,y,z
1/2-x,1/2-y,1/2+z
1/2+x,1/2-y,-z
-x,y,1/2-z
-x,-y,-z
1/2+x,1/2+y,1/2-z
1/2-x,1/2+y,z
x,-y,1/2+z
loop_
_atom_site_type_symbol
_atom_site_label
_atom_site_fract_x
_atom_site_fract_y
_atom_site_fract_z
Si Si1 0.603481 0.181204 0.925269
Si Si2 0.856847 0.051494 0.574287
Si Si3 0.238109 0.229328 0.836304
Si Si4 0.160277 0.511478 0.177692
O O1 0.420859 0.212319 0.894707
O O2 0.726601 0.234231 0.825219
O O3 0.620842 0.084526 0.874250
O O4 0.660886 0.193876 0.079897
O O5 0.875492 0.147738 0.627215
O O6 0.796397 0.998830 0.705512
O O7 0.719718 0.058421 0.456693
O O8 0.000000 0.000000 0.500000
O O9 0.000000 0.545568 0.250000
#
# Coordination Sequence:
#
# PCOD9457103 Si02
#       4
#     8   8   8   8
#     4  10  22  43  65  94 129 172 221 263 326 390
#     4  11  24  42  66 100 131 170 221 276 330 391
#     4  10  23  43  63  96 132 170 217 271 326 391
#     4  11  22  44  67  90 133 175 214 271 329 393
#
# _framework density 25.501177999999999
#
# number of rings (size 3 to 8) (size 9 to 14) (size 15 to 20)
#    0.000    1.500    5.000    1.500    3.500    3.000 
#    4.500    0.000    0.000    0.000    0.000    0.000 
#    0.000    0.000    0.000    0.000    0.000    0.000 
#
# Total GULP energy -179317.067545 kJ/mol
# GULP energy per Si atom -5603.658361 kJ/mol
# Density = 2.544314 g / cm^3
# Si number density = 25.501178 Si / 1000 Ang^3
#
#
#
# Elastic Constant Matrix: (Units=GPa)
#
#
# Indices 1 2 3 4 5 6 
#
# 1 83.1315 23.3085 32.1254 0.0000 0.0000 0.0000
# 2 23.3085 47.3620 42.9039 0.0000 0.0000 0.0000
# 3 32.1254 42.9039 125.5279 0.0000 0.0000 0.0000
# 4 0.0000 0.0000 0.0000 36.2722 0.0000 0.0000
# 5 0.0000 0.0000 0.0000 0.0000 64.6622 0.0000
# 6 0.0000 0.0000 0.0000 0.0000 0.0000 23.0562
#
#
#
# Elastic Compliance Matrix: (Units=1/GPa)
#
#
# Indices 1 2 3 4 5 6 
#
# 1 0.014233 -0.005366 -0.001808 0.000000 0.000000 0.000000
# 2 -0.005366 0.032606 -0.009771 0.000000 0.000000 0.000000
# 3 -0.001808 -0.009771 0.011769 0.000000 0.000000 0.000000
# 4 0.000000 0.000000 0.000000 0.027569 0.000000 0.000000
# 5 0.000000 0.000000 0.000000 0.000000 0.015465 0.000000
# 6 0.000000 0.000000 0.000000 0.000000 0.000000 0.043372
#
#
# Mechanical properties :
#
#
# Convention : Reuss Voigt Hill
#
# Bulk Modulus (GPa) = 40.45913 50.29967 45.37940
# Shear Modulus (GPa) = 26.71737 35.31036 31.01387
#
# Velocity S-wave (km/s) = 3.24032 3.72513 3.49115
# Velocity P-wave (km/s) = 5.46805 6.18623 5.83819
#
# Compressibility (1/GPa) = 0.02471630
#
# Stress axis : x y z
#
# Youngs Moduli (GPa) = 70.26156 30.66899 84.97058
#
# Poissons Ratio (x) = 0.16458 0.15365
# Poissons Ratio (y) = 0.37704 0.83025
# Poissons Ratio (z) = 0.12705 0.29967
#
# Static dielectric constant tensor:
#      x y z
#    x 1.934300 0.000000 0.000000 
#    y 0.000000 1.990240 0.000000 
#    z 0.000000 0.000000 2.005720 
# 
# From -- ./inp_files/9679.got.cif
#   From: 2010.05.17/outbox.cif.g08.bks.cpg/sg60_5_cif.got.tgz:9679.got - 2010.06.03 14:59:27.
