data_PCOD9457611
_publ_section_title
;
Structure prediction by ZEFSAII (Michael W. Deem and Ramdas Pophale) SiO2 
 PCOD9457611
Probable space group: P B C N
;
_chemical_formula_sum "Si O2"
_cell_formula_units_Z 28
_cell_length_a 8.815031
_cell_length_b 9.453501
_cell_length_c 14.139886
_cell_angle_alpha 90.000000
_cell_angle_beta 90.000000
_cell_angle_gamma 90.000000
_cell_volume 1178.317768
_symmetry_space_group_name_H-M "P B C N"
_symmetry_group_IT_number 60
_symmetry_cell_setting 'orthorhombic'
loop_
_space_group_symop_operation_xyz
x,y,z
1/2-x,1/2-y,1/2+z
1/2+x,1/2-y,-z
-x,y,1/2-z
-x,-y,-z
1/2+x,1/2+y,1/2-z
1/2-x,1/2+y,z
x,-y,1/2+z
loop_
_atom_site_type_symbol
_atom_site_label
_atom_site_fract_x
_atom_site_fract_y
_atom_site_fract_z
Si Si1 0.783846 0.774762 0.634043
Si Si2 0.500000 0.288327 0.250000
Si Si3 0.438269 0.535745 0.105329
Si Si4 0.823955 0.487721 0.012497
O O1 0.649718 0.791638 0.710841
O O2 0.793913 0.611996 0.603382
O O3 0.949425 0.845677 0.648752
O O4 0.728491 0.856093 0.540353
O O5 0.447628 0.394995 0.167169
O O6 0.500000 0.500000 0.000000
O O7 0.264559 0.569569 0.079340
O O8 0.000000 0.500000 0.000000
#
# Coordination Sequence:
#
# PCOD9457611 Si02
#       4
#     8   4   8   8
#     4  11  23  47  71 108 148 197 254 318 381 464
#     4  12  24  46  74 114 158 190 264 320 388 470
#     4  10  23  48  70 104 155 199 250 323 381 467
#     4  11  24  45  76 105 147 205 261 312 395 464
#
# _framework density 23.762691
#
# number of rings (size 3 to 8) (size 9 to 14) (size 15 to 20)
#    0.000    1.143    5.714    1.714    4.000    2.286 
#    5.143    0.000    0.000    0.000    0.000    0.000 
#    0.000    0.000    0.000    0.000    0.000    0.000 
#
# Total GULP energy -156306.920687 kJ/mol
# GULP energy per Si atom -5582.390025 kJ/mol
# Density = 2.370861 g / cm^3
# Si number density = 23.762691 Si / 1000 Ang^3
#
#
#
# Elastic Constant Matrix: (Units=GPa)
#
#
# Indices 1 2 3 4 5 6 
#
# 1 210.4695 21.5920 53.6042 0.0000 0.0000 0.0000
# 2 21.5920 70.5227 21.1476 0.0000 0.0000 0.0000
# 3 53.6042 21.1476 109.7634 0.0000 0.0000 0.0000
# 4 0.0000 0.0000 0.0000 37.9794 0.0000 0.0000
# 5 0.0000 0.0000 0.0000 0.0000 53.1306 0.0000
# 6 0.0000 0.0000 0.0000 0.0000 0.0000 37.7431
#
#
#
# Elastic Compliance Matrix: (Units=1/GPa)
#
#
# Indices 1 2 3 4 5 6 
#
# 1 0.005483 -0.000929 -0.002499 0.000000 0.000000 0.000000
# 2 -0.000929 0.015207 -0.002476 0.000000 0.000000 0.000000
# 3 -0.002499 -0.002476 0.010808 0.000000 0.000000 0.000000
# 4 0.000000 0.000000 0.000000 0.026330 0.000000 0.000000
# 5 0.000000 0.000000 0.000000 0.000000 0.018822 0.000000
# 6 0.000000 0.000000 0.000000 0.000000 0.000000 0.026495
#
#
# Mechanical properties :
#
#
# Convention : Reuss Voigt Hill
#
# Bulk Modulus (GPa) = 50.78819 64.82702 57.80760
# Shear Modulus (GPa) = 41.14707 45.39808 43.27258
#
# Velocity S-wave (km/s) = 4.16574 4.37564 4.27198
# Velocity P-wave (km/s) = 6.67513 7.27108 6.97947
#
# Compressibility (1/GPa) = 0.01968962
#
# Stress axis : x y z
#
# Youngs Moduli (GPa) = 182.38173 65.75978 92.52621
#
# Poissons Ratio (x) = 0.06112 0.23119
# Poissons Ratio (y) = 0.16952 0.22909
# Poissons Ratio (z) = 0.45570 0.16282
#
# Static dielectric constant tensor:
#      x y z
#    x 2.099450 0.000000 0.000000 
#    y 0.000000 1.838050 0.000000 
#    z 0.000000 0.000000 1.905640 
# 
# From -- ./inp_files/18894.got.cif
#   From: 2010.05.17/outbox.cif.g08.bks.cpg/sg60_10_cif.got.tgz:18894.got - 2010.06.03 14:59:27.
