data_PCOD9457129
_publ_section_title
;
Structure prediction by ZEFSAII (Michael W. Deem and Ramdas Pophale) SiO2 
 PCOD9457129
Probable space group: P B C N
;
_chemical_formula_sum "Si O2"
_cell_formula_units_Z 32
_cell_length_a 12.242323
_cell_length_b 8.940675
_cell_length_c 12.785231
_cell_angle_alpha 90.000000
_cell_angle_beta 90.000000
_cell_angle_gamma 90.000000
_cell_volume 1399.402744
_symmetry_space_group_name_H-M "P B C N"
_symmetry_group_IT_number 60
_symmetry_cell_setting 'orthorhombic'
loop_
_space_group_symop_operation_xyz
x,y,z
1/2-x,1/2-y,1/2+z
1/2+x,1/2-y,-z
-x,y,1/2-z
-x,-y,-z
1/2+x,1/2+y,1/2-z
1/2-x,1/2+y,z
x,-y,1/2+z
loop_
_atom_site_type_symbol
_atom_site_label
_atom_site_fract_x
_atom_site_fract_y
_atom_site_fract_z
Si Si1 0.835650 0.770117 0.757263
Si Si2 0.878179 0.568204 0.234622
Si Si3 0.889493 0.946053 0.945195
Si Si4 0.239486 0.668984 0.455889
O O1 0.867103 0.599607 0.777805
O O2 0.904265 0.883484 0.828188
O O3 0.831174 0.791406 0.632023
O O4 0.710668 0.819594 0.783359
O O5 0.843017 0.566763 0.112593
O O6 0.000000 0.622903 0.250000
O O7 0.831041 0.809001 0.006683
O O8 0.801838 0.078968 0.955399
O O9 0.000000 0.000000 0.000000
#
# Coordination Sequence:
#
# PCOD9457129 Si02
#       4
#     8   8   8   8
#     4  10  23  44  66  99 140 176 242 290 355 435
#     4  10  22  43  69  90 133 187 224 293 356 420
#     4  12  26  43  75 107 144 193 238 308 371 436
#     4  10  23  47  63 105 146 175 248 294 349 457
#
# _framework density 22.866897999999999
#
# number of rings (size 3 to 8) (size 9 to 14) (size 15 to 20)
#    1.500    0.000    2.500    1.500    3.500    4.000 
#    0.000    3.750    0.000    0.000    0.000    0.000 
#    0.000    0.000    0.000    0.000    0.000    0.000 
#
# Total GULP energy -178493.259446 kJ/mol
# GULP energy per Si atom -5577.914358 kJ/mol
# Density = 2.281485 g / cm^3
# Si number density = 22.866898 Si / 1000 Ang^3
#
#
#
# Elastic Constant Matrix: (Units=GPa)
#
#
# Indices 1 2 3 4 5 6 
#
# 1 118.9792 46.7014 23.2901 0.0000 0.0000 0.0000
# 2 46.7014 117.7209 42.3359 0.0000 0.0000 0.0000
# 3 23.2901 42.3359 104.0889 0.0000 0.0000 0.0000
# 4 0.0000 0.0000 0.0000 33.3015 0.0000 0.0000
# 5 0.0000 0.0000 0.0000 0.0000 34.0915 0.0000
# 6 0.0000 0.0000 0.0000 0.0000 0.0000 11.5548
#
#
#
# Elastic Compliance Matrix: (Units=1/GPa)
#
#
# Indices 1 2 3 4 5 6 
#
# 1 0.010002 -0.003705 -0.000731 0.000000 0.000000 0.000000
# 2 -0.003705 0.011323 -0.003776 0.000000 0.000000 0.000000
# 3 -0.000731 -0.003776 0.011307 0.000000 0.000000 0.000000
# 4 0.000000 0.000000 0.000000 0.030029 0.000000 0.000000
# 5 0.000000 0.000000 0.000000 0.000000 0.029333 0.000000
# 6 0.000000 0.000000 0.000000 0.000000 0.000000 0.086544
#
#
# Mechanical properties :
#
#
# Convention : Reuss Voigt Hill
#
# Bulk Modulus (GPa) = 61.70268 62.82709 62.26489
# Shear Modulus (GPa) = 24.95462 31.02036 27.98749
#
# Velocity S-wave (km/s) = 3.30707 3.68715 3.50227
# Velocity P-wave (km/s) = 6.45168 6.75733 6.60628
#
# Compressibility (1/GPa) = 0.01620675
#
# Stress axis : x y z
#
# Youngs Moduli (GPa) = 99.97750 88.31926 88.44375
#
# Poissons Ratio (x) = 0.32723 0.06466
# Poissons Ratio (y) = 0.37043 0.33398
# Poissons Ratio (z) = 0.07309 0.33351
#
# Static dielectric constant tensor:
#      x y z
#    x 1.838430 0.000000 0.000000 
#    y 0.000000 1.814290 0.000000 
#    z 0.000000 0.000000 1.955790 
# 
# From -- ./inp_files/15568.got.cif
#   From: 2010.05.17/outbox.cif.g08.bks.cpg/sg60_8_cif.got.tgz:15568.got - 2010.06.03 14:59:27.
