data_PCOD9457557
_publ_section_title
;
Structure prediction by ZEFSAII (Michael W. Deem and Ramdas Pophale) SiO2 
 PCOD9457557
Probable space group: P B C N
;
_chemical_formula_sum "Si O2"
_cell_formula_units_Z 48
_cell_length_a 14.152059
_cell_length_b 15.023720
_cell_length_c 11.357662
_cell_angle_alpha 90.000000
_cell_angle_beta 90.000000
_cell_angle_gamma 90.000000
_cell_volume 2414.827159
_symmetry_space_group_name_H-M "P B C N"
_symmetry_group_IT_number 60
_symmetry_cell_setting 'orthorhombic'
loop_
_space_group_symop_operation_xyz
x,y,z
1/2-x,1/2-y,1/2+z
1/2+x,1/2-y,-z
-x,y,1/2-z
-x,-y,-z
1/2+x,1/2+y,1/2-z
1/2-x,1/2+y,z
x,-y,1/2+z
loop_
_atom_site_type_symbol
_atom_site_label
_atom_site_fract_x
_atom_site_fract_y
_atom_site_fract_z
Si Si1 0.849901 0.174771 0.514726
Si Si2 0.704560 0.675618 0.993953
Si Si3 0.888120 0.892093 0.256088
Si Si4 0.535249 0.050450 0.618793
Si Si5 0.245928 0.011138 0.901274
Si Si6 0.523355 0.258886 0.617329
O O1 0.784243 0.252235 0.465113
O O2 0.862834 0.181592 0.656171
O O3 0.800952 0.078400 0.503008
O O4 0.952766 0.183510 0.461227
O O5 0.747897 0.588741 0.054213
O O6 0.630010 0.721048 0.081425
O O7 0.647450 0.642676 0.880145
O O8 0.824236 0.974398 0.209746
O O9 0.000000 0.910529 0.250000
O O10 0.500000 0.020412 0.750000
O O11 0.648789 0.044021 0.623742
O O12 0.505532 0.153466 0.603490
O O13 0.500000 0.000000 0.500000
O O14 0.500000 0.282704 0.750000
#
# Coordination Sequence:
#
# PCOD9457557 Si02
#       6
#     8   8   8   8   8   8
#     4  10  24  43  64 102 132 173 226 273 337 403
#     4  12  23  45  70  94 139 180 218 285 345 393
#     4  10  23  45  68  97 137 167 231 286 325 417
#     4  11  25  48  70 102 141 180 235 284 340 415
#     4  10  25  43  67 102 133 178 224 281 339 409
#     4  11  24  43  70  98 135 181 223 276 344 410
#
# _framework density 19.877198
#
# number of rings (size 3 to 8) (size 9 to 14) (size 15 to 20)
#    1.000    0.333    3.333    1.000    9.333    4.667 
#    6.000    0.000    0.000    0.000    0.000    0.000 
#    0.000    0.000    0.000    0.000    0.000    0.000 
#
# Total GULP energy -267687.418919 kJ/mol
# GULP energy per Si atom -5576.821227 kJ/mol
# Density = 1.983196 g / cm^3
# Si number density = 19.877198 Si / 1000 Ang^3
#
#
#
# Elastic Constant Matrix: (Units=GPa)
#
#
# Indices 1 2 3 4 5 6 
#
# 1 79.5299 -14.2556 -12.1210 0.0000 0.0000 0.0000
# 2 -14.2556 49.8061 -1.0986 0.0000 0.0000 0.0000
# 3 -12.1210 -1.0986 69.7611 0.0000 0.0000 0.0000
# 4 0.0000 0.0000 0.0000 14.6203 0.0000 0.0000
# 5 0.0000 0.0000 0.0000 0.0000 25.4421 0.0000
# 6 0.0000 0.0000 0.0000 0.0000 0.0000 18.4128
#
#
#
# Elastic Compliance Matrix: (Units=1/GPa)
#
#
# Indices 1 2 3 4 5 6 
#
# 1 0.013655 0.003962 0.002435 0.000000 0.000000 0.000000
# 2 0.003962 0.021234 0.001023 0.000000 0.000000 0.000000
# 3 0.002435 0.001023 0.014774 0.000000 0.000000 0.000000
# 4 0.000000 0.000000 0.000000 0.068398 0.000000 0.000000
# 5 0.000000 0.000000 0.000000 0.000000 0.039305 0.000000
# 6 0.000000 0.000000 0.000000 0.000000 0.000000 0.054310
#
#
# Mechanical properties :
#
#
# Convention : Reuss Voigt Hill
#
# Bulk Modulus (GPa) = 15.50307 16.01630 15.75969
# Shear Modulus (GPa) = 22.90032 26.79988 24.85010
#
# Velocity S-wave (km/s) = 3.39793 3.67587 3.53963
# Velocity P-wave (km/s) = 4.81777 5.10795 4.96498
#
# Compressibility (1/GPa) = 0.06450337
#
# Stress axis : x y z
#
# Youngs Moduli (GPa) = 73.23218 47.09323 67.68730
#
# Poissons Ratio (x) = -0.18659 -0.16482
# Poissons Ratio (y) = -0.29016 -0.06923
# Poissons Ratio (z) = -0.17832 -0.04817
#
# Static dielectric constant tensor:
#      x y z
#    x 1.670880 0.000000 0.000000 
#    y 0.000000 1.684190 0.000000 
#    z 0.000000 0.000000 1.717580 
# 
# From -- ./inp_files/11895.got.cif
#   From: 2010.05.17/outbox.cif.g08.bks.cpg/sg60_6_cif.got.tgz:11895.got - 2010.06.03 14:59:27.
