data_PCOD9457842
_publ_section_title
;
Structure prediction by ZEFSAII (Michael W. Deem and Ramdas Pophale) SiO2 
 PCOD9457842
Probable space group: P B C N
;
_chemical_formula_sum "Si O2"
_cell_formula_units_Z 60
_cell_length_a 23.819146
_cell_length_b 9.180015
_cell_length_c 12.825122
_cell_angle_alpha 90.000000
_cell_angle_beta 90.000000
_cell_angle_gamma 90.000000
_cell_volume 2804.342684
_symmetry_space_group_name_H-M "P B C N"
_symmetry_group_IT_number 60
_symmetry_cell_setting 'orthorhombic'
loop_
_space_group_symop_operation_xyz
x,y,z
1/2-x,1/2-y,1/2+z
1/2+x,1/2-y,-z
-x,y,1/2-z
-x,-y,-z
1/2+x,1/2+y,1/2-z
1/2-x,1/2+y,z
x,-y,1/2+z
loop_
_atom_site_type_symbol
_atom_site_label
_atom_site_fract_x
_atom_site_fract_y
_atom_site_fract_z
Si Si1 0.951194 0.983706 0.585392
Si Si2 0.713165 0.532757 0.270691
Si Si3 0.188700 0.605891 0.066306
Si Si4 0.000000 0.251329 0.250000
Si Si5 0.873259 0.097447 0.906446
Si Si6 0.787720 0.679068 0.665216
Si Si7 0.061933 0.744104 0.266444
Si Si8 0.608463 0.948373 0.291209
O O1 0.896311 0.944428 0.518488
O O2 0.971611 0.857002 0.664600
O O3 0.938986 0.135594 0.643685
O O4 0.000000 0.000000 0.500000
O O5 0.760687 0.569662 0.356023
O O6 0.655438 0.524683 0.334685
O O7 0.714079 0.648216 0.177436
O O8 0.731644 0.381406 0.219694
O O9 0.170891 0.772788 0.082853
O O10 0.135939 0.503206 0.099294
O O11 0.206221 0.604366 0.946461
O O12 0.948875 0.353622 0.293451
O O13 0.922537 0.166233 0.837226
O O14 0.842412 0.636178 0.732157
O O15 0.099732 0.600741 0.271701
O O16 0.000000 0.684529 0.250000
#
# Coordination Sequence:
#
# PCOD9457842 Si02
#       8
#     8   8   8   4   8   8   8   8
#     4  12  25  41  68 103 137 183 238 278 345 416
#     4  11  25  46  70  99 138 176 231 294 356 424
#     4  10  24  47  67 102 137 177 237 289 354 421
#     4  12  24  44  74 104 144 192 230 290 344 422
#     4  11  24  43  68 100 135 183 230 289 342 423
#     4  11  25  44  71 100 135 180 229 291 352 420
#     4  11  22  46  64  91 144 180 224 289 345 401
#     4  10  25  45  69 100 140 184 232 285 344 420
#
# _framework density 21.395388000000001
#
# number of rings (size 3 to 8) (size 9 to 14) (size 15 to 20)
#    0.000    1.067    4.000    0.800    7.467    1.067 
#    2.400    2.667    0.000    0.000    0.000    0.000 
#    0.000    0.000    0.000    0.000    0.000    0.000 
#
# Total GULP energy -335021.327836 kJ/mol
# GULP energy per Si atom -5583.688797 kJ/mol
# Density = 2.134669 g / cm^3
# Si number density = 21.395388 Si / 1000 Ang^3
#
#
#
# Elastic Constant Matrix: (Units=GPa)
#
#
# Indices 1 2 3 4 5 6 
#
# 1 60.4746 19.7474 22.9266 0.0000 0.0000 0.0000
# 2 19.7474 86.5821 23.9683 0.0000 0.0000 0.0000
# 3 22.9266 23.9683 96.3207 0.0000 0.0000 0.0000
# 4 0.0000 0.0000 0.0000 20.4051 0.0000 0.0000
# 5 0.0000 0.0000 0.0000 0.0000 40.3363 0.0000
# 6 0.0000 0.0000 0.0000 0.0000 0.0000 27.3801
#
#
#
# Elastic Compliance Matrix: (Units=1/GPa)
#
#
# Indices 1 2 3 4 5 6 
#
# 1 0.019022 -0.003313 -0.003703 0.000000 0.000000 0.000000
# 2 -0.003313 0.012981 -0.002442 0.000000 0.000000 0.000000
# 3 -0.003703 -0.002442 0.011871 0.000000 0.000000 0.000000
# 4 0.000000 0.000000 0.000000 0.049007 0.000000 0.000000
# 5 0.000000 0.000000 0.000000 0.000000 0.024792 0.000000
# 6 0.000000 0.000000 0.000000 0.000000 0.000000 0.036523
#
#
# Mechanical properties :
#
#
# Convention : Reuss Voigt Hill
#
# Bulk Modulus (GPa) = 40.06744 41.85134 40.95939
# Shear Modulus (GPa) = 27.55866 29.40664 28.48265
#
# Velocity S-wave (km/s) = 3.59286 3.71136 3.65259
# Velocity P-wave (km/s) = 5.99827 6.16190 6.08064
#
# Compressibility (1/GPa) = 0.02495792
#
# Stress axis : x y z
#
# Youngs Moduli (GPa) = 52.57158 77.03377 84.23899
#
# Poissons Ratio (x) = 0.25523 0.31195
# Poissons Ratio (y) = 0.17418 0.20568
# Poissons Ratio (z) = 0.19468 0.18809
#
# Static dielectric constant tensor:
#      x y z
#    x 1.817300 0.000000 0.000000 
#    y 0.000000 1.764320 0.000000 
#    z 0.000000 0.000000 1.770220 
# 
# From -- ./inp_files/13274.got.cif
#   From: 2010.05.17/outbox.cif.g08.bks.cpg/sg60_7_cif.got.tgz:13274.got - 2010.06.03 14:59:27.
