data_PCOD9457366
_publ_section_title
;
Structure prediction by ZEFSAII (Michael W. Deem and Ramdas Pophale) SiO2 
 PCOD9457366
Probable space group: P B C N
;
_chemical_formula_sum "Si O2"
_cell_formula_units_Z 32
_cell_length_a 7.465235
_cell_length_b 17.942500
_cell_length_c 9.345261
_cell_angle_alpha 90.000000
_cell_angle_beta 90.000000
_cell_angle_gamma 90.000000
_cell_volume 1251.750788
_symmetry_space_group_name_H-M "P B C N"
_symmetry_group_IT_number 60
_symmetry_cell_setting 'orthorhombic'
loop_
_space_group_symop_operation_xyz
x,y,z
1/2-x,1/2-y,1/2+z
1/2+x,1/2-y,-z
-x,y,1/2-z
-x,-y,-z
1/2+x,1/2+y,1/2-z
1/2-x,1/2+y,z
x,-y,1/2+z
loop_
_atom_site_type_symbol
_atom_site_label
_atom_site_fract_x
_atom_site_fract_y
_atom_site_fract_z
Si Si1 0.697365 0.126898 0.255845
Si Si2 0.000000 0.230890 0.750000
Si Si3 0.587049 0.919257 0.043213
Si Si4 0.500000 0.524047 0.250000
Si Si5 0.222033 0.104330 0.647903
O O1 0.500000 0.089573 0.250000
O O2 0.659692 0.211548 0.212027
O O3 0.717729 0.118153 0.427144
O O4 0.851245 0.079283 0.184643
O O5 0.088987 0.173731 0.640652
O O6 0.690511 0.912658 0.193609
O O7 0.397498 0.876770 0.057078
O O8 0.500000 0.000000 0.000000
O O9 0.397455 0.470411 0.138302
#
# Coordination Sequence:
#
# PCOD9457366 Si02
#       5
#     8   4   8   4   8
#     4  10  23  43  65  95 133 173 224 266 332 404
#     4   9  24  46  58  99 138 166 226 271 338 410
#     4  11  21  40  70  98 134 169 226 284 326 402
#     4  11  20  40  66  95 128 172 220 273 324 396
#     4  10  23  41  66  99 132 171 221 279 342 388
#
# _framework density 25.564194000000001
#
# number of rings (size 3 to 8) (size 9 to 14) (size 15 to 20)
#    0.750    1.000    2.500    1.500    0.000    5.000 
#    9.000    0.000    0.000    0.000    0.000    0.000 
#    0.000    0.000    0.000    0.000    0.000    0.000 
#
# Total GULP energy -178265.293424 kJ/mol
# GULP energy per Si atom -5570.790420 kJ/mol
# Density = 2.550601 g / cm^3
# Si number density = 25.564194 Si / 1000 Ang^3
#
#
#
# Elastic Constant Matrix: (Units=GPa)
#
#
# Indices 1 2 3 4 5 6 
#
# 1 139.8321 58.6595 5.4564 0.0000 0.0000 0.0000
# 2 58.6595 167.5761 15.0378 0.0000 0.0000 0.0000
# 3 5.4564 15.0378 50.2794 0.0000 0.0000 0.0000
# 4 0.0000 0.0000 0.0000 9.6109 0.0000 0.0000
# 5 0.0000 0.0000 0.0000 0.0000 40.0640 0.0000
# 6 0.0000 0.0000 0.0000 0.0000 0.0000 62.2771
#
#
#
# Elastic Compliance Matrix: (Units=1/GPa)
#
#
# Indices 1 2 3 4 5 6 
#
# 1 0.008382 -0.002931 -0.000033 0.000000 0.000000 0.000000
# 2 -0.002931 0.007157 -0.001822 0.000000 0.000000 0.000000
# 3 -0.000033 -0.001822 0.020438 0.000000 0.000000 0.000000
# 4 0.000000 0.000000 0.000000 0.104048 0.000000 0.000000
# 5 0.000000 0.000000 0.000000 0.000000 0.024960 0.000000
# 6 0.000000 0.000000 0.000000 0.000000 0.000000 0.016057
#
#
# Mechanical properties :
#
#
# Convention : Reuss Voigt Hill
#
# Bulk Modulus (GPa) = 37.87369 57.33277 47.60323
# Shear Modulus (GPa) = 25.07310 40.95935 33.01623
#
# Velocity S-wave (km/s) = 3.13515 4.00711 3.59765
# Velocity P-wave (km/s) = 5.28705 6.62457 5.99324
#
# Compressibility (1/GPa) = 0.02640356
#
# Stress axis : x y z
#
# Youngs Moduli (GPa) = 119.29775 139.72213 48.92964
#
# Poissons Ratio (x) = 0.40956 0.00161
# Poissons Ratio (y) = 0.34969 0.08917
# Poissons Ratio (z) = 0.00393 0.25464
#
# Static dielectric constant tensor:
#      x y z
#    x 2.080980 0.000000 0.000000 
#    y 0.000000 2.004890 0.000000 
#    z 0.000000 0.000000 2.385800 
# 
# From -- ./inp_files/9715.got.cif
#   From: 2010.05.17/outbox.cif.g08.bks.cpg/sg60_5_cif.got.tgz:9715.got - 2010.06.03 14:59:27.
