data_PCOD9457372
_publ_section_title
;
Structure prediction by ZEFSAII (Michael W. Deem and Ramdas Pophale) SiO2 
 PCOD9457372
Probable space group: P B C N
;
_chemical_formula_sum "Si O2"
_cell_formula_units_Z 32
_cell_length_a 19.087149
_cell_length_b 14.976031
_cell_length_c 4.964024
_cell_angle_alpha 90.000000
_cell_angle_beta 90.000000
_cell_angle_gamma 90.000000
_cell_volume 1418.964946
_symmetry_space_group_name_H-M "P B C N"
_symmetry_group_IT_number 60
_symmetry_cell_setting 'orthorhombic'
loop_
_space_group_symop_operation_xyz
x,y,z
1/2-x,1/2-y,1/2+z
1/2+x,1/2-y,-z
-x,y,1/2-z
-x,-y,-z
1/2+x,1/2+y,1/2-z
1/2-x,1/2+y,z
x,-y,1/2+z
loop_
_atom_site_type_symbol
_atom_site_label
_atom_site_fract_x
_atom_site_fract_y
_atom_site_fract_z
Si Si1 0.291431 0.273457 0.003738
Si Si2 0.500000 0.933668 0.750000
Si Si3 0.000000 0.879008 0.250000
Si Si4 0.652516 0.552754 0.682554
Si Si5 0.440005 0.211937 0.951214
O O1 0.259356 0.214572 0.248271
O O2 0.314924 0.361190 0.171776
O O3 0.360662 0.229003 0.870855
O O4 0.438681 0.860977 0.691792
O O5 0.500000 0.000000 0.500000
O O6 0.068027 0.934578 0.329886
O O7 0.970109 0.808554 0.466010
O O8 0.672042 0.529320 0.378453
O O9 0.500000 0.177645 0.750000
#
# Coordination Sequence:
#
# PCOD9457372 Si02
#       5
#     8   4   4   8   8
#     4  11  26  45  68  93 134 184 226 267 332 408
#     4  11  22  40  64  99 130 160 222 297 338 374
#     4   9  22  34  66  99 134 166 206 263 330 402
#     4  11  23  40  65  97 134 164 211 268 327 390
#     4  10  23  41  71  96 131 175 233 271 334 411
#
# _framework density 22.551648
#
# number of rings (size 3 to 8) (size 9 to 14) (size 15 to 20)
#    0.000    1.500    1.250    2.250   17.500    0.000 
#    0.000    7.500    0.000    0.000    0.000    0.000 
#    0.000    0.000    0.000    0.000    0.000    0.000 
#
# Total GULP energy -178298.019503 kJ/mol
# GULP energy per Si atom -5571.813109 kJ/mol
# Density = 2.250032 g / cm^3
# Si number density = 22.551648 Si / 1000 Ang^3
#
#
#
# Elastic Constant Matrix: (Units=GPa)
#
#
# Indices 1 2 3 4 5 6 
#
# 1 100.0977 20.5886 32.3325 0.0000 0.0000 0.0000
# 2 20.5886 75.7303 12.4550 0.0000 0.0000 0.0000
# 3 32.3325 12.4550 104.6040 0.0000 0.0000 0.0000
# 4 0.0000 0.0000 0.0000 36.8116 0.0000 0.0000
# 5 0.0000 0.0000 0.0000 0.0000 32.6222 0.0000
# 6 0.0000 0.0000 0.0000 0.0000 0.0000 5.0613
#
#
#
# Elastic Compliance Matrix: (Units=1/GPa)
#
#
# Indices 1 2 3 4 5 6 
#
# 1 0.011583 -0.002611 -0.003269 0.000000 0.000000 0.000000
# 2 -0.002611 0.014057 -0.000867 0.000000 0.000000 0.000000
# 3 -0.003269 -0.000867 0.010674 0.000000 0.000000 0.000000
# 4 0.000000 0.000000 0.000000 0.027165 0.000000 0.000000
# 5 0.000000 0.000000 0.000000 0.000000 0.030654 0.000000
# 6 0.000000 0.000000 0.000000 0.000000 0.000000 0.197579
#
#
# Mechanical properties :
#
#
# Convention : Reuss Voigt Hill
#
# Bulk Modulus (GPa) = 43.82242 45.68710 44.75476
# Shear Modulus (GPa) = 15.98395 29.23608 22.61001
#
# Velocity S-wave (km/s) = 2.66516 3.60447 3.16980
# Velocity P-wave (km/s) = 5.38006 6.13399 5.76935
#
# Compressibility (1/GPa) = 0.02281937
#
# Stress axis : x y z
#
# Youngs Moduli (GPa) = 86.33023 71.13771 93.68904
#
# Poissons Ratio (x) = 0.18577 0.30631
# Poissons Ratio (y) = 0.22545 0.08119
# Poissons Ratio (z) = 0.28225 0.06165
#
# Static dielectric constant tensor:
#      x y z
#    x 1.841100 0.000000 0.000000 
#    y 0.000000 1.856120 0.000000 
#    z 0.000000 0.000000 1.939840 
# 
# From -- ./inp_files/1566.got.cif
#   From: 2010.05.17/outbox.cif.g08.bks.cpg/sg60_1_cif.got.tgz:1566.got - 2010.06.03 14:59:27.
