data_PCOD9457033
_publ_section_title
;
Structure prediction by ZEFSAII (Michael W. Deem and Ramdas Pophale) SiO2 
 PCOD9457033
Probable space group: P B C N
;
_chemical_formula_sum "Si O2"
_cell_formula_units_Z 48
_cell_length_a 7.896307
_cell_length_b 15.791052
_cell_length_c 16.313247
_cell_angle_alpha 90.000000
_cell_angle_beta 90.000000
_cell_angle_gamma 90.000000
_cell_volume 2034.114991
_symmetry_space_group_name_H-M "P B C N"
_symmetry_group_IT_number 60
_symmetry_cell_setting 'orthorhombic'
loop_
_space_group_symop_operation_xyz
x,y,z
1/2-x,1/2-y,1/2+z
1/2+x,1/2-y,-z
-x,y,1/2-z
-x,-y,-z
1/2+x,1/2+y,1/2-z
1/2-x,1/2+y,z
x,-y,1/2+z
loop_
_atom_site_type_symbol
_atom_site_label
_atom_site_fract_x
_atom_site_fract_y
_atom_site_fract_z
Si Si1 0.696442 0.706686 0.731965
Si Si2 0.304112 0.466540 0.219422
Si Si3 0.168298 0.300817 0.934056
Si Si4 0.330486 0.642809 0.199259
Si Si5 0.789725 0.362859 0.970542
Si Si6 0.684262 0.536393 0.977115
O O1 0.500000 0.694252 0.750000
O O2 0.771791 0.612697 0.730392
O O3 0.715078 0.773541 0.658391
O O4 0.764378 0.761990 0.805777
O O5 0.500000 0.475593 0.250000
O O6 0.228438 0.560534 0.232942
O O7 0.300377 0.445702 0.121607
O O8 0.973050 0.329535 0.941933
O O9 0.205494 0.211104 0.977365
O O10 0.272971 0.377437 0.974359
O O11 0.500000 0.648177 0.250000
O O12 0.338590 0.620439 0.104445
O O13 0.805135 0.458009 0.005646
O O14 0.500000 0.500000 0.000000
#
# Coordination Sequence:
#
# PCOD9457033 Si02
#       6
#     8   8   8   8   8   8
#     4  11  23  41  67  94 135 177 227 286 353 424
#     4   9  22  41  66  93 134 174 225 287 346 426
#     4  12  26  42  70 101 141 184 236 294 364 431
#     4  10  22  42  66  95 131 178 234 283 353 424
#     4  11  25  44  65 100 141 181 235 297 355 427
#     4  11  25  43  72 102 137 186 237 293 363 432
#
# _framework density 23.597484000000001
#
# number of rings (size 3 to 8) (size 9 to 14) (size 15 to 20)
#    0.000    1.333    1.667    2.500   16.333    0.000 
#    0.000    0.833    0.000    0.000    0.000    0.000 
#    0.000    0.000    0.000    0.000    0.000    0.000 
#
# Total GULP energy -267478.947107 kJ/mol
# GULP energy per Si atom -5572.478065 kJ/mol
# Density = 2.354378 g / cm^3
# Si number density = 23.597484 Si / 1000 Ang^3
#
#
#
# Elastic Constant Matrix: (Units=GPa)
#
#
# Indices 1 2 3 4 5 6 
#
# 1 59.9286 14.1148 12.8890 0.0000 0.0000 0.0000
# 2 14.1148 182.6321 15.6877 0.0000 0.0000 0.0000
# 3 12.8890 15.6877 36.6857 0.0000 0.0000 0.0000
# 4 0.0000 0.0000 0.0000 12.6543 0.0000 0.0000
# 5 0.0000 0.0000 0.0000 0.0000 23.8473 0.0000
# 6 0.0000 0.0000 0.0000 0.0000 0.0000 37.4600
#
#
#
# Elastic Compliance Matrix: (Units=1/GPa)
#
#
# Indices 1 2 3 4 5 6 
#
# 1 0.018189 -0.000889 -0.006010 0.000000 0.000000 0.000000
# 2 -0.000889 0.005728 -0.002137 0.000000 0.000000 0.000000
# 3 -0.006010 -0.002137 0.030284 0.000000 0.000000 0.000000
# 4 0.000000 0.000000 0.000000 0.079025 0.000000 0.000000
# 5 0.000000 0.000000 0.000000 0.000000 0.041934 0.000000
# 6 0.000000 0.000000 0.000000 0.000000 0.000000 0.026695
#
#
# Mechanical properties :
#
#
# Convention : Reuss Voigt Hill
#
# Bulk Modulus (GPa) = 27.67956 40.51437 34.09696
# Shear Modulus (GPa) = 21.55465 30.56264 26.05864
#
# Velocity S-wave (km/s) = 3.02558 3.60274 3.32670
# Velocity P-wave (km/s) = 4.89498 5.87474 5.40710
#
# Compressibility (1/GPa) = 0.03612774
#
# Stress axis : x y z
#
# Youngs Moduli (GPa) = 54.97953 174.58767 33.02087
#
# Poissons Ratio (x) = 0.15529 0.19845
# Poissons Ratio (y) = 0.04890 0.07056
# Poissons Ratio (z) = 0.33042 0.37306
#
# Static dielectric constant tensor:
#      x y z
#    x 1.888780 0.000000 0.000000 
#    y 0.000000 2.264790 0.000000 
#    z 0.000000 0.000000 2.034490 
# 
# From -- ./inp_files/19261.got.cif
#   From: 2010.05.17/outbox.cif.g08.bks.cpg/sg60_10_cif.got.tgz:19261.got - 2010.06.03 14:59:27.
