data_PCOD9457936
_publ_section_title
;
Structure prediction by ZEFSAII (Michael W. Deem and Ramdas Pophale) SiO2 
 PCOD9457936
Probable space group: P B C N
;
_chemical_formula_sum "Si O2"
_cell_formula_units_Z 32
_cell_length_a 9.056708
_cell_length_b 9.789413
_cell_length_c 13.483074
_cell_angle_alpha 90.000000
_cell_angle_beta 90.000000
_cell_angle_gamma 90.000000
_cell_volume 1195.407386
_symmetry_space_group_name_H-M "P B C N"
_symmetry_group_IT_number 60
_symmetry_cell_setting 'orthorhombic'
loop_
_space_group_symop_operation_xyz
x,y,z
1/2-x,1/2-y,1/2+z
1/2+x,1/2-y,-z
-x,y,1/2-z
-x,-y,-z
1/2+x,1/2+y,1/2-z
1/2-x,1/2+y,z
x,-y,1/2+z
loop_
_atom_site_type_symbol
_atom_site_label
_atom_site_fract_x
_atom_site_fract_y
_atom_site_fract_z
Si Si1 0.500000 0.777698 0.750000
Si Si2 0.723243 0.352865 0.647293
Si Si3 0.354076 0.941930 0.054130
Si Si4 0.550634 0.526747 0.887848
Si Si5 0.000000 0.333511 0.250000
O O1 0.372727 0.874130 0.792149
O O2 0.549863 0.678272 0.840464
O O3 0.771908 0.354673 0.532319
O O4 0.589134 0.456796 0.666720
O O5 0.649929 0.217864 0.689859
O O6 0.415577 0.868151 0.149000
O O7 0.218064 0.029320 0.102190
O O8 0.500000 0.000000 0.000000
O O9 0.500000 0.500000 0.000000
#
# Coordination Sequence:
#
# PCOD9457936 Si02
#       5
#     4   8   8   8   4
#     4  12  25  51  80 116 160 218 279 341 428 500
#     4  11  28  46  81 114 161 215 279 341 417 508
#     4  11  28  49  81 115 166 214 281 341 433 506
#     4  10  25  50  75 114 162 210 270 351 414 500
#     4  12  27  47  80 120 156 220 273 345 422 496
#
# _framework density 26.769119
#
# number of rings (size 3 to 8) (size 9 to 14) (size 15 to 20)
#    0.000    1.000    2.500    0.750   14.000    7.000 
#    0.000    0.000    0.000    0.000    0.000    0.000 
#    0.000    0.000    0.000    0.000    0.000    0.000 
#
# Total GULP energy -178243.443249 kJ/mol
# GULP energy per Si atom -5570.107602 kJ/mol
# Density = 2.670819 g / cm^3
# Si number density = 26.769119 Si / 1000 Ang^3
#
#
#
# Elastic Constant Matrix: (Units=GPa)
#
#
# Indices 1 2 3 4 5 6 
#
# 1 1197.4507 1292.0964 -369.0000 0.0000 0.0000 0.0000
# 2 1292.0964 1719.6015 -575.5075 0.0000 0.0000 0.0000
# 3 -369.0000 -575.5075 473.8498 0.0000 0.0000 0.0000
# 4 0.0000 0.0000 0.0000 164.4383 0.0000 0.0000
# 5 0.0000 0.0000 0.0000 0.0000 87.6376 0.0000
# 6 0.0000 0.0000 0.0000 0.0000 0.0000 47.7643
#
#
#
# Elastic Compliance Matrix: (Units=1/GPa)
#
#
# Indices 1 2 3 4 5 6 
#
# 1 0.004711 -0.003895 -0.001063 0.000000 0.000000 0.000000
# 2 -0.003895 0.004201 0.002069 0.000000 0.000000 0.000000
# 3 -0.001063 0.002069 0.003795 0.000000 0.000000 0.000000
# 4 0.000000 0.000000 0.000000 0.006081 0.000000 0.000000
# 5 0.000000 0.000000 0.000000 0.000000 0.011411 0.000000
# 6 0.000000 0.000000 0.000000 0.000000 0.000000 0.020936
#
#
# Mechanical properties :
#
#
# Convention : Reuss Voigt Hill
#
# Bulk Modulus (GPa) = 144.33403 454.00887 299.17145
# Shear Modulus (GPa) = 84.42636 262.85559 173.64097
#
# Velocity S-wave (km/s) = 5.62203 9.92002 8.06269
# Velocity P-wave (km/s) = 9.80704 17.35451 14.09534
#
# Compressibility (1/GPa) = 0.00692837
#
# Stress axis : x y z
#
# Youngs Moduli (GPa) = 212.27187 238.05118 263.48354
#
# Poissons Ratio (x) = 0.92730 0.27996
# Poissons Ratio (y) = 0.82688 -0.54503
# Poissons Ratio (z) = 0.22554 -0.49242
#
# Static dielectric constant tensor:
#      x y z
#    x 2.271180 0.000000 0.000000 
#    y 0.000000 2.338810 0.000000 
#    z 0.000000 0.000000 2.139360 
# 
# From -- ./inp_files/14388.got.cif
#   From: 2010.05.17/outbox.cif.g08.bks.cpg/sg60_8_cif.got.tgz:14388.got - 2010.06.03 14:59:27.
