data_PCOD9457294
_publ_section_title
;
Structure prediction by ZEFSAII (Michael W. Deem and Ramdas Pophale) SiO2 
 PCOD9457294
Probable space group: P B C N
;
_chemical_formula_sum "Si O2"
_cell_formula_units_Z 44
_cell_length_a 10.349095
_cell_length_b 8.831180
_cell_length_c 21.397776
_cell_angle_alpha 90.000000
_cell_angle_beta 90.000000
_cell_angle_gamma 90.000000
_cell_volume 1955.643763
_symmetry_space_group_name_H-M "P B C N"
_symmetry_group_IT_number 60
_symmetry_cell_setting 'orthorhombic'
loop_
_space_group_symop_operation_xyz
x,y,z
1/2-x,1/2-y,1/2+z
1/2+x,1/2-y,-z
-x,y,1/2-z
-x,-y,-z
1/2+x,1/2+y,1/2-z
1/2-x,1/2+y,z
x,-y,1/2+z
loop_
_atom_site_type_symbol
_atom_site_label
_atom_site_fract_x
_atom_site_fract_y
_atom_site_fract_z
Si Si1 0.427696 0.285343 0.017000
Si Si2 0.000000 0.388296 0.750000
Si Si3 0.339261 0.085428 0.826287
Si Si4 0.247248 0.522867 0.073959
Si Si5 0.564786 0.243596 0.884477
Si Si6 0.095972 0.272476 0.867450
O O1 0.337604 0.430344 0.026354
O O2 0.339755 0.142496 0.036634
O O3 0.539915 0.290338 0.069009
O O4 0.487967 0.266814 0.949458
O O5 0.987965 0.292469 0.813224
O O6 0.875204 0.493308 0.736447
O O7 0.206552 0.169184 0.837624
O O8 0.354457 0.945930 0.875731
O O9 0.154816 0.403404 0.107613
O O10 0.340955 0.613636 0.120958
O O11 0.454237 0.205983 0.835155
#
# Coordination Sequence:
#
# PCOD9457294 Si02
#       6
#     8   4   8   8   8   8
#     4  11  23  39  62  94 132 166 216 252 319 376
#     4   8  22  48  56  96 118 154 226 260 308 360
#     4  10  23  43  67  92 125 166 211 264 313 375
#     4  10  23  38  56  93 126 177 195 261 314 364
#     4  11  23  39  62  94 132 166 216 252 319 376
#     4  10  23  43  67  92 125 166 211 264 313 375
#
# _framework density 22.498987
#
# number of rings (size 3 to 8) (size 9 to 14) (size 15 to 20)
#    1.091    0.727    1.818    1.091    7.636    0.000 
#   13.091    0.909    0.000    0.000    0.000    0.000 
#    0.000    0.000    0.000    0.000    0.000    0.000 
#
# Total GULP energy -245748.513438 kJ/mol
# GULP energy per Si atom -5585.193487 kJ/mol
# Density = 2.244778 g / cm^3
# Si number density = 22.498987 Si / 1000 Ang^3
#
#
#
# Elastic Constant Matrix: (Units=GPa)
#
#
# Indices 1 2 3 4 5 6 
#
# 1 94.5534 31.7827 8.4527 0.0000 0.0000 0.0000
# 2 31.7827 71.9162 -8.7490 0.0000 0.0000 0.0000
# 3 8.4527 -8.7490 41.9136 0.0000 0.0000 0.0000
# 4 0.0000 0.0000 0.0000 14.2597 0.0000 0.0000
# 5 0.0000 0.0000 0.0000 0.0000 17.6914 0.0000
# 6 0.0000 0.0000 0.0000 0.0000 0.0000 41.9589
#
#
#
# Elastic Compliance Matrix: (Units=1/GPa)
#
#
# Indices 1 2 3 4 5 6 
#
# 1 0.013022 -0.006233 -0.003927 0.000000 0.000000 0.000000
# 2 -0.006233 0.017251 0.004858 0.000000 0.000000 0.000000
# 3 -0.003927 0.004858 0.025665 0.000000 0.000000 0.000000
# 4 0.000000 0.000000 0.000000 0.070128 0.000000 0.000000
# 5 0.000000 0.000000 0.000000 0.000000 0.056524 0.000000
# 6 0.000000 0.000000 0.000000 0.000000 0.000000 0.023833
#
#
# Mechanical properties :
#
#
# Convention : Reuss Voigt Hill
#
# Bulk Modulus (GPa) = 22.05897 30.15068 26.10483
# Shear Modulus (GPa) = 21.53892 26.57513 24.05702
#
# Velocity S-wave (km/s) = 3.09743 3.44054 3.27349
# Velocity P-wave (km/s) = 4.75582 5.40492 5.09072
#
# Compressibility (1/GPa) = 0.04533303
#
# Stress axis : x y z
#
# Youngs Moduli (GPa) = 76.79210 57.96901 38.96418
#
# Poissons Ratio (x) = 0.36131 0.15302
# Poissons Ratio (y) = 0.47863 -0.18928
# Poissons Ratio (z) = 0.30158 -0.28160
#
# Static dielectric constant tensor:
#      x y z
#    x 1.841820 0.000000 0.000000 
#    y 0.000000 1.864240 0.000000 
#    z 0.000000 0.000000 1.857810 
# 
# From -- ./inp_files/25889.got.cif
#   From: 2010.05.17/outbox.cif.g08.bks.cpg/sg60_13_cif.got.tgz:25889.got - 2010.06.03 14:59:27.
