data_PCOD9457769
_publ_section_title
;
Structure prediction by ZEFSAII (Michael W. Deem and Ramdas Pophale) SiO2 
 PCOD9457769
Probable space group: P B C N
;
_chemical_formula_sum "Si O2"
_cell_formula_units_Z 28
_cell_length_a 9.608284
_cell_length_b 10.731703
_cell_length_c 10.738971
_cell_angle_alpha 90.000000
_cell_angle_beta 90.000000
_cell_angle_gamma 90.000000
_cell_volume 1107.330204
_symmetry_space_group_name_H-M "P B C N"
_symmetry_group_IT_number 60
_symmetry_cell_setting 'orthorhombic'
loop_
_space_group_symop_operation_xyz
x,y,z
1/2-x,1/2-y,1/2+z
1/2+x,1/2-y,-z
-x,y,1/2-z
-x,-y,-z
1/2+x,1/2+y,1/2-z
1/2-x,1/2+y,z
x,-y,1/2+z
loop_
_atom_site_type_symbol
_atom_site_label
_atom_site_fract_x
_atom_site_fract_y
_atom_site_fract_z
Si Si1 0.044952 0.195961 0.067059
Si Si2 0.825162 0.401749 0.027128
Si Si3 0.301424 0.090430 0.698115
Si Si4 0.500000 0.484015 0.250000
O O1 0.131473 0.276370 0.169503
O O2 0.973912 0.079145 0.134747
O O3 0.931565 0.287857 0.010465
O O4 0.167777 0.150821 0.977273
O O5 0.851368 0.453938 0.165852
O O6 0.837391 0.500715 0.916847
O O7 0.134771 0.091363 0.708994
#
# Coordination Sequence:
#
# PCOD9457769 Si02
#       4
#     8   8   8   4
#     4  11  24  46  71 110 149 189 246 302 362 446
#     4  11  26  45  75 106 147 193 246 299 371 434
#     4  11  25  45  76 102 149 188 248 304 368 434
#     4  10  24  44  72 108 144 190 240 302 374 432
#
# _framework density 25.286045999999999
#
# number of rings (size 3 to 8) (size 9 to 14) (size 15 to 20)
#    0.000    1.143    2.857    0.857    8.000    2.286 
#    0.000    2.857    0.000    0.000    0.000    0.000 
#    0.000    0.000    0.000    0.000    0.000    0.000 
#
# Total GULP energy -156971.205730 kJ/mol
# GULP energy per Si atom -5606.114490 kJ/mol
# Density = 2.522849 g / cm^3
# Si number density = 25.286046 Si / 1000 Ang^3
#
#
#
# Elastic Constant Matrix: (Units=GPa)
#
#
# Indices 1 2 3 4 5 6 
#
# 1 106.5447 64.3510 26.0104 0.0000 0.0000 0.0000
# 2 64.3510 78.0499 56.7391 0.0000 0.0000 0.0000
# 3 26.0104 56.7391 195.0862 0.0000 0.0000 0.0000
# 4 0.0000 0.0000 0.0000 38.1546 0.0000 0.0000
# 5 0.0000 0.0000 0.0000 0.0000 36.0724 0.0000
# 6 0.0000 0.0000 0.0000 0.0000 0.0000 52.6128
#
#
#
# Elastic Compliance Matrix: (Units=1/GPa)
#
#
# Indices 1 2 3 4 5 6 
#
# 1 0.019730 -0.018204 0.002664 0.000000 0.000000 0.000000
# 2 -0.018204 0.033043 -0.007183 0.000000 0.000000 0.000000
# 3 0.002664 -0.007183 0.006860 0.000000 0.000000 0.000000
# 4 0.000000 0.000000 0.000000 0.026209 0.000000 0.000000
# 5 0.000000 0.000000 0.000000 0.000000 0.027722 0.000000
# 6 0.000000 0.000000 0.000000 0.000000 0.000000 0.019007
#
#
# Mechanical properties :
#
#
# Convention : Reuss Voigt Hill
#
# Bulk Modulus (GPa) = 70.48788 74.87575 72.68181
# Shear Modulus (GPa) = 27.36043 40.87331 34.11687
#
# Velocity S-wave (km/s) = 3.29300 4.02486 3.67718
# Velocity P-wave (km/s) = 6.51116 7.16066 6.84362
#
# Compressibility (1/GPa) = 0.01418684
#
# Stress axis : x y z
#
# Youngs Moduli (GPa) = 50.68407 30.26381 145.77392
#
# Poissons Ratio (x) = 0.55091 -0.38831
# Poissons Ratio (y) = 0.92263 1.04712
# Poissons Ratio (z) = -0.13501 0.21739
#
# Static dielectric constant tensor:
#      x y z
#    x 2.019440 0.000000 0.000000 
#    y 0.000000 1.907380 0.000000 
#    z 0.000000 0.000000 2.072390 
# 
# From -- ./inp_files/14473.got.cif
#   From: 2010.05.17/outbox.cif.g08.bks.cpg/sg60_8_cif.got.tgz:14473.got - 2010.06.03 14:59:27.
