data_PCOD9457475
_publ_section_title
;
Structure prediction by ZEFSAII (Michael W. Deem and Ramdas Pophale) SiO2 
 PCOD9457475
Probable space group: P B C N
;
_chemical_formula_sum "Si O2"
_cell_formula_units_Z 32
_cell_length_a 7.501192
_cell_length_b 37.155468
_cell_length_c 5.427596
_cell_angle_alpha 90.000000
_cell_angle_beta 90.000000
_cell_angle_gamma 90.000000
_cell_volume 1512.726906
_symmetry_space_group_name_H-M "P B C N"
_symmetry_group_IT_number 60
_symmetry_cell_setting 'orthorhombic'
loop_
_space_group_symop_operation_xyz
x,y,z
1/2-x,1/2-y,1/2+z
1/2+x,1/2-y,-z
-x,y,1/2-z
-x,-y,-z
1/2+x,1/2+y,1/2-z
1/2-x,1/2+y,z
x,-y,1/2+z
loop_
_atom_site_type_symbol
_atom_site_label
_atom_site_fract_x
_atom_site_fract_y
_atom_site_fract_z
Si Si1 0.714035 0.871903 0.759039
Si Si2 0.188181 0.792309 0.851756
Si Si3 0.500000 0.264161 0.250000
Si Si4 0.784269 0.414306 0.257109
Si Si5 0.000000 0.023294 0.750000
O O1 0.500000 0.869514 0.750000
O O2 0.783045 0.831162 0.758915
O O3 0.764351 0.892757 0.507683
O O4 0.764477 0.892448 0.008863
O O5 0.350452 0.765313 0.827439
O O6 0.000000 0.776131 0.750000
O O7 0.138538 0.792996 0.135352
O O8 0.673689 0.451050 0.253971
O O9 0.000000 0.419569 0.250000
O O10 0.000000 0.000000 0.500000
#
# Coordination Sequence:
#
# PCOD9457475 Si02
#       5
#     8   8   4   8   4
#     4  10  23  43  69  97 131 177 231 281 333 401
#     4  12  26  42  65  92 131 180 228 290 356 405
#     4  12  26  45  60  96 134 178 236 292 356 434
#     4  10  24  45  68 100 137 173 219 275 327 394
#     4  12  26  43  70 106 138 174 216 262 322 410
#
# _framework density 21.153849999999998
#
# number of rings (size 3 to 8) (size 9 to 14) (size 15 to 20)
#    0.000    1.000    3.750    1.500    7.000    1.000 
#    4.500    0.000    0.000    0.000    0.000    0.000 
#    0.000    0.000    0.000    0.000    0.000    0.000 
#
# Total GULP energy -178287.985963 kJ/mol
# GULP energy per Si atom -5571.499561 kJ/mol
# Density = 2.110570 g / cm^3
# Si number density = 21.153850 Si / 1000 Ang^3
#
#
#
# Elastic Constant Matrix: (Units=GPa)
#
#
# Indices 1 2 3 4 5 6 
#
# 1 87.9206 36.3233 49.2503 0.0000 0.0000 0.0000
# 2 36.3233 119.4929 94.1153 0.0000 0.0000 0.0000
# 3 49.2503 94.1153 148.8129 0.0000 0.0000 0.0000
# 4 0.0000 0.0000 0.0000 32.6560 0.0000 0.0000
# 5 0.0000 0.0000 0.0000 0.0000 10.7565 0.0000
# 6 0.0000 0.0000 0.0000 0.0000 0.0000 38.2311
#
#
#
# Elastic Compliance Matrix: (Units=1/GPa)
#
#
# Indices 1 2 3 4 5 6 
#
# 1 0.014050 -0.001212 -0.003883 0.000000 0.000000 0.000000
# 2 -0.001212 0.016779 -0.010211 0.000000 0.000000 0.000000
# 3 -0.003883 -0.010211 0.014463 0.000000 0.000000 0.000000
# 4 0.000000 0.000000 0.000000 0.030622 0.000000 0.000000
# 5 0.000000 0.000000 0.000000 0.000000 0.092967 0.000000
# 6 0.000000 0.000000 0.000000 0.000000 0.000000 0.026157
#
#
# Mechanical properties :
#
#
# Convention : Reuss Voigt Hill
#
# Bulk Modulus (GPa) = 68.12221 79.51158 73.81689
# Shear Modulus (GPa) = 21.68788 28.09790 24.89289
#
# Velocity S-wave (km/s) = 3.20542 3.64849 3.43411
# Velocity P-wave (km/s) = 6.78032 7.44429 7.12005
#
# Compressibility (1/GPa) = 0.01467950
#
# Stress axis : x y z
#
# Youngs Moduli (GPa) = 71.17433 59.59661 69.14360
#
# Poissons Ratio (x) = 0.07226 0.26849
# Poissons Ratio (y) = 0.08630 0.70601
# Poissons Ratio (z) = 0.27638 0.60853
#
# Static dielectric constant tensor:
#      x y z
#    x 1.803850 0.000000 0.000000 
#    y 0.000000 1.694070 0.000000 
#    z 0.000000 0.000000 3.880910 
# 
# From -- ./inp_files/395.got.cif
#   From: 2010.05.17/outbox.cif.g08.bks.cpg/sg60_1_cif.got.tgz:395.got - 2010.06.03 14:59:27.
