data_PCOD9457514
_publ_section_title
;
Structure prediction by ZEFSAII (Michael W. Deem and Ramdas Pophale) SiO2 
 PCOD9457514
Probable space group: P B C N
;
_chemical_formula_sum "Si O2"
_cell_formula_units_Z 48
_cell_length_a 10.060612
_cell_length_b 10.027766
_cell_length_c 25.434505
_cell_angle_alpha 90.000000
_cell_angle_beta 90.000000
_cell_angle_gamma 90.000000
_cell_volume 2565.971812
_symmetry_space_group_name_H-M "P B C N"
_symmetry_group_IT_number 60
_symmetry_cell_setting 'orthorhombic'
loop_
_space_group_symop_operation_xyz
x,y,z
1/2-x,1/2-y,1/2+z
1/2+x,1/2-y,-z
-x,y,1/2-z
-x,-y,-z
1/2+x,1/2+y,1/2-z
1/2-x,1/2+y,z
x,-y,1/2+z
loop_
_atom_site_type_symbol
_atom_site_label
_atom_site_fract_x
_atom_site_fract_y
_atom_site_fract_z
Si Si1 0.732836 0.865084 0.983732
Si Si2 0.532523 0.463347 0.907627
Si Si3 0.127779 0.273009 0.713910
Si Si4 0.516566 0.218849 0.402428
Si Si5 0.625199 0.540161 0.287480
Si Si6 0.744794 0.886785 0.556340
O O1 0.858669 0.910798 0.948911
O O2 0.605408 0.853092 0.946331
O O3 0.757027 0.722098 0.009907
O O4 0.713197 0.971546 0.029950
O O5 0.514084 0.622804 0.914384
O O6 0.582837 0.439277 0.848309
O O7 0.390787 0.395732 0.918665
O O8 0.084860 0.297785 0.653814
O O9 0.252234 0.365605 0.726489
O O10 0.000000 0.299804 0.750000
O O11 0.161391 0.116048 0.718989
O O12 0.369225 0.159006 0.403772
O O13 0.500000 0.566737 0.250000
#
# Coordination Sequence:
#
# PCOD9457514 Si02
#       6
#     8   8   8   8   8   8
#     4  12  22  41  64  88 126 168 210 253 307 357
#     4  11  23  43  62  92 130 162 204 261 310 360
#     4  10  23  44  68  93 125 159 203 260 312 370
#     4  11  23  42  63  93 125 164 209 256 308 368
#     4  10  23  44  69  93 124 161 203 258 314 367
#     4  12  24  39  62  92 126 170 206 253 303 366
#
# _framework density 18.706364000000001
#
# number of rings (size 3 to 8) (size 9 to 14) (size 15 to 20)
#    0.000    1.000    5.000    2.000    2.333    0.667 
#    3.000    0.000    0.000    0.000    0.000    0.000 
#    0.000    0.000    0.000    0.000    0.000    0.000 
#
# Total GULP energy -268373.075400 kJ/mol
# GULP energy per Si atom -5591.105738 kJ/mol
# Density = 1.866379 g / cm^3
# Si number density = 18.706364 Si / 1000 Ang^3
#
#
#
# Elastic Constant Matrix: (Units=GPa)
#
#
# Indices 1 2 3 4 5 6 
#
# 1 145.4812 68.3220 31.7372 0.0000 0.0000 0.0000
# 2 68.3220 61.3632 27.9817 0.0000 0.0000 0.0000
# 3 31.7372 27.9817 43.7383 0.0000 0.0000 0.0000
# 4 0.0000 0.0000 0.0000 17.9483 0.0000 0.0000
# 5 0.0000 0.0000 0.0000 0.0000 24.4636 0.0000
# 6 0.0000 0.0000 0.0000 0.0000 0.0000 34.9797
#
#
#
# Elastic Compliance Matrix: (Units=1/GPa)
#
#
# Indices 1 2 3 4 5 6 
#
# 1 0.014409 -0.015920 -0.000271 0.000000 0.000000 0.000000
# 2 -0.015920 0.040597 -0.014421 0.000000 0.000000 0.000000
# 3 -0.000271 -0.014421 0.032285 0.000000 0.000000 0.000000
# 4 0.000000 0.000000 0.000000 0.055716 0.000000 0.000000
# 5 0.000000 0.000000 0.000000 0.000000 0.040877 0.000000
# 6 0.000000 0.000000 0.000000 0.000000 0.000000 0.028588
#
#
# Mechanical properties :
#
#
# Convention : Reuss Voigt Hill
#
# Bulk Modulus (GPa) = 38.35899 56.29605 47.32752
# Shear Modulus (GPa) = 17.70637 23.64780 20.67709
#
# Velocity S-wave (km/s) = 3.07993 3.55936 3.32829
# Velocity P-wave (km/s) = 5.76180 6.85944 6.33444
#
# Compressibility (1/GPa) = 0.02606951
#
# Stress axis : x y z
#
# Youngs Moduli (GPa) = 69.40032 24.63223 30.97380
#
# Poissons Ratio (x) = 0.39214 0.00839
# Poissons Ratio (y) = 1.10483 0.44666
# Poissons Ratio (z) = 0.01880 0.35521
#
# Static dielectric constant tensor:
#      x y z
#    x 1.625340 0.000000 0.000000 
#    y 0.000000 1.624030 0.000000 
#    z 0.000000 0.000000 1.633180 
# 
# From -- ./inp_files/23943.got.cif
#   From: 2010.05.17/outbox.cif.g08.bks.cpg/sg60_12_cif.got.tgz:23943.got - 2010.06.03 14:59:27.
