data_PCOD9457983
_publ_section_title
;
Structure prediction by ZEFSAII (Michael W. Deem and Ramdas Pophale) SiO2 
 PCOD9457983
Probable space group: P B C N
;
_chemical_formula_sum "Si O2"
_cell_formula_units_Z 40
_cell_length_a 5.150351
_cell_length_b 30.034248
_cell_length_c 10.695775
_cell_angle_alpha 90.000000
_cell_angle_beta 90.000000
_cell_angle_gamma 90.000000
_cell_volume 1654.496483
_symmetry_space_group_name_H-M "P B C N"
_symmetry_group_IT_number 60
_symmetry_cell_setting 'orthorhombic'
loop_
_space_group_symop_operation_xyz
x,y,z
1/2-x,1/2-y,1/2+z
1/2+x,1/2-y,-z
-x,y,1/2-z
-x,-y,-z
1/2+x,1/2+y,1/2-z
1/2-x,1/2+y,z
x,-y,1/2+z
loop_
_atom_site_type_symbol
_atom_site_label
_atom_site_fract_x
_atom_site_fract_y
_atom_site_fract_z
Si Si1 0.500000 0.976989 0.750000
Si Si2 0.000000 0.816636 0.250000
Si Si3 0.000000 0.627946 0.750000
Si Si4 0.730593 0.745695 0.075659
Si Si5 0.354964 0.584141 0.125455
Si Si6 0.186038 0.942509 0.365291
Si Si7 0.000000 0.828510 0.750000
O O1 0.684297 0.011095 0.673150
O O2 0.409530 0.942579 0.642931
O O3 0.248667 0.844762 0.207064
O O4 0.125457 0.785371 0.353493
O O5 0.096416 0.595928 0.860941
O O6 0.682223 0.703871 0.167888
O O7 0.446044 0.762336 0.031735
O O8 0.500000 0.567247 0.250000
O O9 0.359541 0.637205 0.152333
O O10 0.459556 0.565680 0.995275
O O11 0.000000 0.932946 0.250000
#
# Coordination Sequence:
#
# PCOD9457983 Si02
#       7
#     4   4   4   8   8   8   4
#     4  11  24  45  75 116 158 220 275 333 412 489
#     4  12  26  49  71 117 152 203 277 325 414 466
#     4  11  25  46  76 113 156 207 268 340 393 485
#     4  12  27  49  81 110 157 216 266 342 406 506
#     4  10  26  48  75 111 163 214 260 346 401 489
#     4  11  25  47  79 116 163 212 279 335 407 498
#     4  10  27  54  72 120 160 214 274 338 425 490
#
# _framework density 24.176539999999999
#
# number of rings (size 3 to 8) (size 9 to 14) (size 15 to 20)
#    0.600    0.400    1.000    4.200    2.800   10.400 
#    7.200    0.000    0.000    0.000    0.000    0.000 
#    0.000    0.000    0.000    0.000    0.000    0.000 
#
# Total GULP energy -223154.883075 kJ/mol
# GULP energy per Si atom -5578.872077 kJ/mol
# Density = 2.412151 g / cm^3
# Si number density = 24.176540 Si / 1000 Ang^3
#
#
#
# Elastic Constant Matrix: (Units=GPa)
#
#
# Indices 1 2 3 4 5 6 
#
# 1 122.9940 80.4885 43.4624 0.0000 0.0000 0.0000
# 2 80.4885 160.7382 38.1571 0.0000 0.0000 0.0000
# 3 43.4624 38.1571 136.4869 0.0000 0.0000 0.0000
# 4 0.0000 0.0000 0.0000 -14.1238 0.0000 0.0000
# 5 0.0000 0.0000 0.0000 0.0000 43.6994 0.0000
# 6 0.0000 0.0000 0.0000 0.0000 0.0000 -104.6487
#
#
#
# Elastic Compliance Matrix: (Units=1/GPa)
#
#
# Indices 1 2 3 4 5 6 
#
# 1 0.012815 -0.005835 -0.002449 0.000000 0.000000 0.000000
# 2 -0.005835 0.009321 -0.000748 0.000000 0.000000 0.000000
# 3 -0.002449 -0.000748 0.008316 0.000000 0.000000 0.000000
# 4 0.000000 0.000000 0.000000 -0.070803 0.000000 0.000000
# 5 0.000000 0.000000 0.000000 0.000000 0.022884 0.000000
# 6 0.000000 0.000000 0.000000 0.000000 0.000000 -0.009556
#
#
# Mechanical properties :
#
#
# Convention : Reuss Voigt Hill
#
# Bulk Modulus (GPa) = 80.73241 82.71501 81.72371
# Shear Modulus (GPa) = -1035.19732 2.19278 -516.50227
#
# Velocity S-wave (km/s) = -20.71502 0.95339 -14.63221
# Velocity P-wave (km/s) = 23.20957 5.95812 15.86167
#
# Compressibility (1/GPa) = 0.01238660
#
# Stress axis : x y z
#
# Youngs Moduli (GPa) = 78.03486 107.28649 120.25520
#
# Poissons Ratio (x) = 0.62607 0.29454
# Poissons Ratio (y) = 0.45537 0.08990
# Poissons Ratio (z) = 0.19113 0.08020
#
# Static dielectric constant tensor:
#      x y z
#    x 3.852410 0.000000 0.000000 
#    y 0.000000 1.931120 0.000000 
#    z 0.000000 0.000000 2.537380 
# 
# From -- ./inp_files/9213.got.cif
#   From: 2010.05.17/outbox.cif.g08.bks.cpg/sg60_5_cif.got.tgz:9213.got - 2010.06.03 14:59:27.
