data_PCOD9457441
_publ_section_title
;
Structure prediction by ZEFSAII (Michael W. Deem and Ramdas Pophale) SiO2 
 PCOD9457441
Probable space group: P B C N
;
_chemical_formula_sum "Si O2"
_cell_formula_units_Z 48
_cell_length_a 8.278183
_cell_length_b 29.426522
_cell_length_c 8.641219
_cell_angle_alpha 90.000000
_cell_angle_beta 90.000000
_cell_angle_gamma 90.000000
_cell_volume 2104.984825
_symmetry_space_group_name_H-M "P B C N"
_symmetry_group_IT_number 60
_symmetry_cell_setting 'orthorhombic'
loop_
_space_group_symop_operation_xyz
x,y,z
1/2-x,1/2-y,1/2+z
1/2+x,1/2-y,-z
-x,y,1/2-z
-x,-y,-z
1/2+x,1/2+y,1/2-z
1/2-x,1/2+y,z
x,-y,1/2+z
loop_
_atom_site_type_symbol
_atom_site_label
_atom_site_fract_x
_atom_site_fract_y
_atom_site_fract_z
Si Si1 0.600622 0.764422 0.409804
Si Si2 0.312414 0.936591 0.075691
Si Si3 0.685264 0.342862 0.301030
Si Si4 0.316868 0.181156 0.024400
Si Si5 0.616127 0.915136 0.892013
Si Si6 0.687545 0.515654 0.237688
O O1 0.500000 0.761333 0.250000
O O2 0.751453 0.798811 0.392904
O O3 0.669068 0.715192 0.449152
O O4 0.477991 0.788418 0.527902
O O5 0.222951 0.889148 0.109298
O O6 0.288516 0.971153 0.216862
O O7 0.497698 0.924328 0.035403
O O8 0.233683 0.962068 0.926751
O O9 0.500000 0.340265 0.250000
O O10 0.792508 0.340608 0.145285
O O11 0.332702 0.137009 0.128915
O O12 0.500000 0.927749 0.750000
O O13 0.768714 0.947347 0.870871
O O14 0.500000 0.504238 0.250000
#
# Coordination Sequence:
#
# PCOD9457441 Si02
#       6
#     8   8   8   8   8   8
#     4  10  23  43  65 102 131 180 231 282 356 417
#     4  11  24  46  68  99 143 180 235 281 355 416
#     4  11  24  42  69 100 134 180 226 288 345 415
#     4  11  23  43  69  96 139 176 227 288 342 420
#     4  10  24  43  65  99 135 182 225 285 348 417
#     4  11  25  43  69 104 134 182 235 292 348 416
#
# _framework density 22.803014000000001
#
# number of rings (size 3 to 8) (size 9 to 14) (size 15 to 20)
#    0.000    1.333    1.667    2.500    4.667    4.000 
#    3.000    0.000    0.000    0.000    0.000    0.000 
#    0.000    0.000    0.000    0.000    0.000    0.000 
#
# Total GULP energy -268443.451694 kJ/mol
# GULP energy per Si atom -5592.571910 kJ/mol
# Density = 2.275111 g / cm^3
# Si number density = 22.803014 Si / 1000 Ang^3
#
#
#
# Elastic Constant Matrix: (Units=GPa)
#
#
# Indices 1 2 3 4 5 6 
#
# 1 104.5365 59.9196 32.0350 0.0000 0.0000 0.0000
# 2 59.9196 157.7374 43.1324 0.0000 0.0000 0.0000
# 3 32.0350 43.1324 45.3389 0.0000 0.0000 0.0000
# 4 0.0000 0.0000 0.0000 31.8839 0.0000 0.0000
# 5 0.0000 0.0000 0.0000 0.0000 26.6551 0.0000
# 6 0.0000 0.0000 0.0000 0.0000 0.0000 42.8454
#
#
#
# Elastic Compliance Matrix: (Units=1/GPa)
#
#
# Indices 1 2 3 4 5 6 
#
# 1 0.013428 -0.003388 -0.006265 0.000000 0.000000 0.000000
# 2 -0.003388 0.009423 -0.006571 0.000000 0.000000 0.000000
# 3 -0.006265 -0.006571 0.032734 0.000000 0.000000 0.000000
# 4 0.000000 0.000000 0.000000 0.031364 0.000000 0.000000
# 5 0.000000 0.000000 0.000000 0.000000 0.037516 0.000000
# 6 0.000000 0.000000 0.000000 0.000000 0.000000 0.023340
#
#
# Mechanical properties :
#
#
# Convention : Reuss Voigt Hill
#
# Bulk Modulus (GPa) = 43.21928 64.19852 53.70890
# Shear Modulus (GPa) = 26.60080 31.77860 29.18970
#
# Velocity S-wave (km/s) = 3.41918 3.73716 3.58170
# Velocity P-wave (km/s) = 5.88066 6.84372 6.38039
#
# Compressibility (1/GPa) = 0.02313782
#
# Stress axis : x y z
#
# Youngs Moduli (GPa) = 74.47329 106.11909 30.54943
#
# Poissons Ratio (x) = 0.35950 0.19138
# Poissons Ratio (y) = 0.25229 0.20074
# Poissons Ratio (z) = 0.46655 0.69732
#
# Static dielectric constant tensor:
#      x y z
#    x 1.817140 0.000000 0.000000 
#    y 0.000000 1.820290 0.000000 
#    z 0.000000 0.000000 1.928150 
# 
# From -- ./inp_files/4207.got.cif
#   From: 2010.05.17/outbox.cif.g08.bks.cpg/sg60_3_cif.got.tgz:4207.got - 2010.06.03 14:59:27.
