data_PCOD9457529
_publ_section_title
;
Structure prediction by ZEFSAII (Michael W. Deem and Ramdas Pophale) SiO2 
 PCOD9457529
Probable space group: P B C N
;
_chemical_formula_sum "Si O2"
_cell_formula_units_Z 60
_cell_length_a 20.875283
_cell_length_b 10.184686
_cell_length_c 11.650912
_cell_angle_alpha 90.000000
_cell_angle_beta 90.000000
_cell_angle_gamma 90.000000
_cell_volume 2477.079458
_symmetry_space_group_name_H-M "P B C N"
_symmetry_group_IT_number 60
_symmetry_cell_setting 'orthorhombic'
loop_
_space_group_symop_operation_xyz
x,y,z
1/2-x,1/2-y,1/2+z
1/2+x,1/2-y,-z
-x,y,1/2-z
-x,-y,-z
1/2+x,1/2+y,1/2-z
1/2-x,1/2+y,z
x,-y,1/2+z
loop_
_atom_site_type_symbol
_atom_site_label
_atom_site_fract_x
_atom_site_fract_y
_atom_site_fract_z
Si Si1 0.387041 0.357966 0.504066
Si Si2 0.500000 0.173398 0.750000
Si Si3 0.832240 0.118409 0.915188
Si Si4 0.944434 0.535354 0.412105
Si Si5 0.306982 0.437000 0.338622
Si Si6 0.616424 0.699075 0.230300
Si Si7 0.321941 0.119274 0.945201
Si Si8 0.981226 0.168852 0.874190
O O1 0.336944 0.481056 0.516751
O O2 0.348003 0.311596 0.391185
O O3 0.386122 0.302013 0.631673
O O4 0.460390 0.364592 0.460551
O O5 0.454770 0.272951 0.819358
O O6 0.547360 0.075717 0.816371
O O7 0.795811 0.105497 0.795574
O O8 0.909775 0.123517 0.901277
O O9 0.807983 0.248694 0.979434
O O10 0.877092 0.546115 0.480486
O O11 0.000000 0.500000 0.500000
O O12 0.967485 0.675813 0.366438
O O13 0.352610 0.563975 0.311854
O O14 0.238510 0.460442 0.399560
O O15 0.653188 0.817566 0.172487
O O16 0.000000 0.114330 0.750000
#
# Coordination Sequence:
#
# PCOD9457529 Si02
#       8
#     8   4   8   8   8   8   8   8
#     4  11  23  42  70 110 152 199 249 311 384 455
#     4  12  24  48  76 112 148 194 258 324 402 452
#     4  10  23  44  71 104 150 200 253 308 374 461
#     4  11  23  45  71 106 144 192 257 319 382 451
#     4  11  25  47  69 108 151 204 251 304 386 463
#     4  11  26  47  74 110 150 196 256 321 380 464
#     4  11  25  48  73 104 150 205 257 319 374 469
#     4  11  21  39  69 109 149 188 246 314 378 443
#
# _framework density 24.222073000000002
#
# number of rings (size 3 to 8) (size 9 to 14) (size 15 to 20)
#    0.000    1.067    4.667    1.200    3.733    2.133 
#    9.600    0.000    0.000    0.000    0.000    0.000 
#    0.000    0.000    0.000    0.000    0.000    0.000 
#
# Total GULP energy -334187.658026 kJ/mol
# GULP energy per Si atom -5569.794300 kJ/mol
# Density = 2.416694 g / cm^3
# Si number density = 24.222073 Si / 1000 Ang^3
#
#
#
# Elastic Constant Matrix: (Units=GPa)
#
#
# Indices 1 2 3 4 5 6 
#
# 1 121.0084 59.9179 67.1579 0.0000 0.0000 0.0000
# 2 59.9179 69.7510 31.3252 0.0000 0.0000 0.0000
# 3 67.1579 31.3252 111.0854 0.0000 0.0000 0.0000
# 4 0.0000 0.0000 0.0000 26.2628 0.0000 0.0000
# 5 0.0000 0.0000 0.0000 0.0000 52.3584 0.0000
# 6 0.0000 0.0000 0.0000 0.0000 0.0000 14.8451
#
#
#
# Elastic Compliance Matrix: (Units=1/GPa)
#
#
# Indices 1 2 3 4 5 6 
#
# 1 0.018925 -0.012731 -0.007851 0.000000 0.000000 0.000000
# 2 -0.012731 0.024980 0.000653 0.000000 0.000000 0.000000
# 3 -0.007851 0.000653 0.013565 0.000000 0.000000 0.000000
# 4 0.000000 0.000000 0.000000 0.038077 0.000000 0.000000
# 5 0.000000 0.000000 0.000000 0.000000 0.019099 0.000000
# 6 0.000000 0.000000 0.000000 0.000000 0.000000 0.067362
#
#
# Mechanical properties :
#
#
# Convention : Reuss Voigt Hill
#
# Bulk Modulus (GPa) = 56.78573 68.73854 62.76213
# Shear Modulus (GPa) = 21.95509 28.25619 25.10564
#
# Velocity S-wave (km/s) = 3.01393 3.41918 3.22293
# Velocity P-wave (km/s) = 5.96711 6.63534 6.31008
#
# Compressibility (1/GPa) = 0.01761006
#
# Stress axis : x y z
#
# Youngs Moduli (GPa) = 52.83968 40.03197 73.72098
#
# Poissons Ratio (x) = 0.50965 0.57881
# Poissons Ratio (y) = 0.67271 -0.04811
# Poissons Ratio (z) = 0.41486 -0.02612
#
# Static dielectric constant tensor:
#      x y z
#    x 1.908660 0.000000 0.000000 
#    y 0.000000 1.658240 0.000000 
#    z 0.000000 0.000000 2.122220 
# 
# From -- ./inp_files/12882.got.cif
#   From: 2010.05.17/outbox.cif.g08.bks.cpg/sg60_7_cif.got.tgz:12882.got - 2010.06.03 14:59:27.
