data_PCOD9457194
_publ_section_title
;
Structure prediction by ZEFSAII (Michael W. Deem and Ramdas Pophale) SiO2 
 PCOD9457194
Probable space group: P B C N
;
_chemical_formula_sum "Si O2"
_cell_formula_units_Z 48
_cell_length_a 9.520312
_cell_length_b 28.194939
_cell_length_c 7.844960
_cell_angle_alpha 90.000000
_cell_angle_beta 90.000000
_cell_angle_gamma 90.000000
_cell_volume 2105.780376
_symmetry_space_group_name_H-M "P B C N"
_symmetry_group_IT_number 60
_symmetry_cell_setting 'orthorhombic'
loop_
_space_group_symop_operation_xyz
x,y,z
1/2-x,1/2-y,1/2+z
1/2+x,1/2-y,-z
-x,y,1/2-z
-x,-y,-z
1/2+x,1/2+y,1/2-z
1/2-x,1/2+y,z
x,-y,1/2+z
loop_
_atom_site_type_symbol
_atom_site_label
_atom_site_fract_x
_atom_site_fract_y
_atom_site_fract_z
Si Si1 0.023588 0.664198 0.936401
Si Si2 0.648853 0.938141 0.051037
Si Si3 0.278350 0.701109 0.146523
Si Si4 0.074005 0.102616 0.072240
Si Si5 0.000000 0.511133 0.250000
Si Si6 0.500000 0.351888 0.250000
Si Si7 0.237205 0.803953 0.036348
O O1 0.101425 0.614686 0.900635
O O2 0.000000 0.687371 0.750000
O O3 0.862753 0.658370 0.992365
O O4 0.118009 0.690833 0.078088
O O5 0.627046 0.975752 0.200964
O O6 0.802311 0.933501 0.971705
O O7 0.543053 0.956145 0.905838
O O8 0.360946 0.655950 0.076601
O O9 0.306487 0.752870 0.073271
O O10 0.320100 0.701106 0.345350
O O11 0.000000 0.092572 0.250000
O O12 0.982173 0.110514 0.905674
O O13 0.630134 0.317483 0.310490
#
# Coordination Sequence:
#
# PCOD9457194 Si02
#       7
#     8   8   8   8   4   4   8
#     4  11  23  41  66  97 137 179 233 287 342 415
#     4  10  23  43  71 105 131 173 224 286 361 414
#     4  11  25  42  64  95 136 184 244 290 335 403
#     4  11  24  47  67 101 141 187 227 284 348 425
#     4  10  22  44  75 100 132 162 228 299 348 438
#     4  12  26  42  67  96 140 190 230 283 346 406
#     4  12  25  41  64  98 136 188 237 289 341 404
#
# _framework density 22.794402000000002
#
# number of rings (size 3 to 8) (size 9 to 14) (size 15 to 20)
#    0.000    1.000    2.500    4.500    9.333    0.667 
#    3.000    0.833    0.000    0.000    0.000    0.000 
#    0.000    0.000    0.000    0.000    0.000    0.000 
#
# Total GULP energy -267498.780431 kJ/mol
# GULP energy per Si atom -5572.891259 kJ/mol
# Density = 2.274252 g / cm^3
# Si number density = 22.794402 Si / 1000 Ang^3
#
#
#
# Elastic Constant Matrix: (Units=GPa)
#
#
# Indices 1 2 3 4 5 6 
#
# 1 63.4271 12.4104 -5.1581 0.0000 0.0000 0.0000
# 2 12.4104 42.1140 11.4944 0.0000 0.0000 0.0000
# 3 -5.1581 11.4944 87.7671 0.0000 0.0000 0.0000
# 4 0.0000 0.0000 0.0000 -1.7059 0.0000 0.0000
# 5 0.0000 0.0000 0.0000 0.0000 43.3842 0.0000
# 6 0.0000 0.0000 0.0000 0.0000 0.0000 20.4875
#
#
#
# Elastic Compliance Matrix: (Units=1/GPa)
#
#
# Indices 1 2 3 4 5 6 
#
# 1 0.016976 -0.005470 0.001714 0.000000 0.000000 0.000000
# 2 -0.005470 0.026388 -0.003777 0.000000 0.000000 0.000000
# 3 0.001714 -0.003777 0.011989 0.000000 0.000000 0.000000
# 4 0.000000 0.000000 0.000000 -0.586196 0.000000 0.000000
# 5 0.000000 0.000000 0.000000 0.000000 0.023050 0.000000
# 6 0.000000 0.000000 0.000000 0.000000 0.000000 0.048810
#
#
# Mechanical properties :
#
#
# Convention : Reuss Voigt Hill
#
# Bulk Modulus (GPa) = 24.82263 25.64464 25.23364
# Shear Modulus (GPa) = -11.61475 24.07058 6.22791
#
# Velocity S-wave (km/s) = -2.25976 3.25312 1.65473
# Velocity P-wave (km/s) = 2.02602 5.03837 3.83992
#
# Compressibility (1/GPa) = 0.04028581
#
# Stress axis : x y z
#
# Youngs Moduli (GPa) = 58.90709 37.89591 83.40817
#
# Poissons Ratio (x) = 0.20731 -0.14297
# Poissons Ratio (y) = 0.32224 0.31507
# Poissons Ratio (z) = -0.10097 0.14315
#
# Static dielectric constant tensor:
#      x y z
#    x 2.117840 0.000000 0.000000 
#    y 0.000000 1.839060 0.000000 
#    z 0.000000 0.000000 2.035990 
# 
# From -- ./inp_files/4271.got.cif
#   From: 2010.05.17/outbox.cif.g08.bks.cpg/sg60_3_cif.got.tgz:4271.got - 2010.06.03 14:59:27.
