data_PCOD9457938
_publ_section_title
;
Structure prediction by ZEFSAII (Michael W. Deem and Ramdas Pophale) SiO2 
 PCOD9457938
Probable space group: P B C N
;
_chemical_formula_sum "Si O2"
_cell_formula_units_Z 60
_cell_length_a 9.237279
_cell_length_b 11.709261
_cell_length_c 24.951451
_cell_angle_alpha 90.000000
_cell_angle_beta 90.000000
_cell_angle_gamma 90.000000
_cell_volume 2698.791626
_symmetry_space_group_name_H-M "P B C N"
_symmetry_group_IT_number 60
_symmetry_cell_setting 'orthorhombic'
loop_
_space_group_symop_operation_xyz
x,y,z
1/2-x,1/2-y,1/2+z
1/2+x,1/2-y,-z
-x,y,1/2-z
-x,-y,-z
1/2+x,1/2+y,1/2-z
1/2-x,1/2+y,z
x,-y,1/2+z
loop_
_atom_site_type_symbol
_atom_site_label
_atom_site_fract_x
_atom_site_fract_y
_atom_site_fract_z
Si Si1 0.222834 0.145993 0.058407
Si Si2 0.968561 0.049548 0.686884
Si Si3 0.765772 0.811280 0.541905
Si Si4 0.912821 0.197614 0.333704
Si Si5 0.336739 0.850091 0.356985
Si Si6 0.095220 0.723968 0.195957
Si Si7 0.515236 0.073924 0.100177
Si Si8 0.500000 0.500000 0.500000
O O1 0.157823 0.218310 0.107693
O O2 0.356548 0.071082 0.077181
O O3 0.259684 0.224888 0.007900
O O4 0.108246 0.054871 0.041080
O O5 0.809272 0.101139 0.671972
O O6 0.000000 0.035601 0.750000
O O7 0.079531 0.149671 0.670277
O O8 0.008376 0.925687 0.664339
O O9 0.805049 0.742630 0.596501
O O10 0.607938 0.857465 0.556856
O O11 0.868594 0.914969 0.526013
O O12 0.765894 0.195399 0.297455
O O13 0.037181 0.290503 0.321285
O O14 0.406691 0.957536 0.386501
O O15 0.000000 0.723264 0.250000
O O16 0.011266 0.640650 0.155787
#
# Coordination Sequence:
#
# PCOD9457938 Si02
#       8
#     8   8   8   8   8   8   8   4
#     4  11  27  43  71 110 152 203 257 311 382 453
#     4  11  27  49  80 112 153 198 262 329 396 476
#     4  12  25  47  70 110 150 213 251 327 374 469
#     4  11  27  48  76 116 156 202 262 324 391 472
#     4  12  26  48  76 112 156 208 262 320 402 467
#     4  10  25  50  78 112 154 198 259 331 403 472
#     4  11  26  46  74 107 158 200 262 321 392 473
#     4  12  26  42  72 104 154 196 258 306 372 452
#
# _framework density 22.232171999999998
#
# number of rings (size 3 to 8) (size 9 to 14) (size 15 to 20)
#    0.000    0.800    2.667    2.400    9.333    3.200 
#    0.000    0.667    0.000    0.000    0.000    0.000 
#    0.000    0.000    0.000    0.000    0.000    0.000 
#
# Total GULP energy -334028.770270 kJ/mol
# GULP energy per Si atom -5567.146171 kJ/mol
# Density = 2.218157 g / cm^3
# Si number density = 22.232172 Si / 1000 Ang^3
#
#
#
# Elastic Constant Matrix: (Units=GPa)
#
#
# Indices 1 2 3 4 5 6 
#
# 1 179.2726 107.4322 87.6385 0.0000 0.0000 0.0000
# 2 107.4322 251.2981 111.1004 0.0000 0.0000 0.0000
# 3 87.6385 111.1004 143.5232 0.0000 0.0000 0.0000
# 4 0.0000 0.0000 0.0000 51.8406 0.0000 0.0000
# 5 0.0000 0.0000 0.0000 0.0000 28.0700 0.0000
# 6 0.0000 0.0000 0.0000 0.0000 0.0000 33.0605
#
#
#
# Elastic Compliance Matrix: (Units=1/GPa)
#
#
# Indices 1 2 3 4 5 6 
#
# 1 0.008600 -0.002060 -0.003657 0.000000 0.000000 0.000000
# 2 -0.002060 0.006543 -0.003807 0.000000 0.000000 0.000000
# 3 -0.003657 -0.003807 0.012148 0.000000 0.000000 0.000000
# 4 0.000000 0.000000 0.000000 0.019290 0.000000 0.000000
# 5 0.000000 0.000000 0.000000 0.000000 0.035625 0.000000
# 6 0.000000 0.000000 0.000000 0.000000 0.000000 0.030248
#
#
# Mechanical properties :
#
#
# Convention : Reuss Voigt Hill
#
# Bulk Modulus (GPa) = 121.31555 131.82624 126.57090
# Shear Modulus (GPa) = 37.24406 40.45571 38.84989
#
# Velocity S-wave (km/s) = 4.09740 4.27041 4.18480
# Velocity P-wave (km/s) = 8.77901 9.15091 8.96689
#
# Compressibility (1/GPa) = 0.00824297
#
# Stress axis : x y z
#
# Youngs Moduli (GPa) = 116.27547 152.83151 82.32056
#
# Poissons Ratio (x) = 0.31482 0.30104
# Poissons Ratio (y) = 0.23952 0.31341
# Poissons Ratio (z) = 0.42521 0.58186
#
# Static dielectric constant tensor:
#      x y z
#    x 1.818980 0.000000 0.000000 
#    y 0.000000 1.841800 0.000000 
#    z 0.000000 0.000000 1.878030 
# 
# From -- ./inp_files/25194.got.cif
#   From: 2010.05.17/outbox.cif.g08.bks.cpg/sg60_13_cif.got.tgz:25194.got - 2010.06.03 14:59:27.
