data_PCOD9457338
_publ_section_title
;
Structure prediction by ZEFSAII (Michael W. Deem and Ramdas Pophale) SiO2 
 PCOD9457338
Probable space group: P B C N
;
_chemical_formula_sum "Si O2"
_cell_formula_units_Z 48
_cell_length_a 7.783908
_cell_length_b 23.387194
_cell_length_c 11.830562
_cell_angle_alpha 90.000000
_cell_angle_beta 90.000000
_cell_angle_gamma 90.000000
_cell_volume 2153.680066
_symmetry_space_group_name_H-M "P B C N"
_symmetry_group_IT_number 60
_symmetry_cell_setting 'orthorhombic'
loop_
_space_group_symop_operation_xyz
x,y,z
1/2-x,1/2-y,1/2+z
1/2+x,1/2-y,-z
-x,y,1/2-z
-x,-y,-z
1/2+x,1/2+y,1/2-z
1/2-x,1/2+y,z
x,-y,1/2+z
loop_
_atom_site_type_symbol
_atom_site_label
_atom_site_fract_x
_atom_site_fract_y
_atom_site_fract_z
Si Si1 0.204281 0.416730 0.681083
Si Si2 0.179601 0.091339 0.935957
Si Si3 0.319524 0.317609 0.811220
Si Si4 0.844261 0.528032 0.106732
Si Si5 0.206636 0.810817 0.268524
Si Si6 0.201703 0.119055 0.551707
O O1 0.315853 0.408085 0.570973
O O2 0.183846 0.354811 0.738835
O O3 0.274276 0.451316 0.788466
O O4 0.035006 0.451104 0.640040
O O5 0.244814 0.147977 0.874254
O O6 0.296472 0.037650 0.903460
O O7 0.977971 0.091358 0.906540
O O8 0.500000 0.329642 0.750000
O O9 0.280638 0.251089 0.795495
O O10 0.319213 0.339662 0.941246
O O11 0.805208 0.564728 0.995061
O O12 0.000000 0.804886 0.250000
O O13 0.271992 0.843046 0.155085
#
# Coordination Sequence:
#
# PCOD9457338 Si02
#       6
#     8   8   8   8   8   8
#     4  10  23  42  64  99 128 175 228 276 342 404
#     4  11  22  44  65  96 139 173 227 277 339 412
#     4  11  23  43  68  96 131 178 231 278 341 415
#     4  10  23  40  69  97 132 177 218 284 340 408
#     4  10  26  41  65  99 136 177 222 284 341 404
#     4  10  23  43  65  99 131 175 224 274 343 397
#
# _framework density 22.287434999999999
#
# number of rings (size 3 to 8) (size 9 to 14) (size 15 to 20)
#    0.000    1.667    1.667    1.000    9.333    1.333 
#    6.000    0.000    0.000    0.000    0.000    0.000 
#    0.000    0.000    0.000    0.000    0.000    0.000 
#
# Total GULP energy -267783.785428 kJ/mol
# GULP energy per Si atom -5578.828863 kJ/mol
# Density = 2.223671 g / cm^3
# Si number density = 22.287435 Si / 1000 Ang^3
#
#
#
# Elastic Constant Matrix: (Units=GPa)
#
#
# Indices 1 2 3 4 5 6 
#
# 1 59.2629 36.3747 -3.1906 0.0000 0.0000 0.0000
# 2 36.3747 158.5115 21.9409 0.0000 0.0000 0.0000
# 3 -3.1906 21.9409 57.4168 0.0000 0.0000 0.0000
# 4 0.0000 0.0000 0.0000 29.7063 0.0000 0.0000
# 5 0.0000 0.0000 0.0000 0.0000 27.3197 0.0000
# 6 0.0000 0.0000 0.0000 0.0000 0.0000 6.1949
#
#
#
# Elastic Compliance Matrix: (Units=1/GPa)
#
#
# Indices 1 2 3 4 5 6 
#
# 1 0.020132 -0.005041 0.003045 0.000000 0.000000 0.000000
# 2 -0.005041 0.007923 -0.003308 0.000000 0.000000 0.000000
# 3 0.003045 -0.003308 0.018850 0.000000 0.000000 0.000000
# 4 0.000000 0.000000 0.000000 0.033663 0.000000 0.000000
# 5 0.000000 0.000000 0.000000 0.000000 0.036604 0.000000
# 6 0.000000 0.000000 0.000000 0.000000 0.000000 0.161423
#
#
# Mechanical properties :
#
#
# Convention : Reuss Voigt Hill
#
# Bulk Modulus (GPa) = 27.55031 42.82678 35.18855
# Shear Modulus (GPa) = 16.59460 27.31526 21.95493
#
# Velocity S-wave (km/s) = 2.73164 3.50464 3.14200
# Velocity P-wave (km/s) = 4.72624 5.96943 5.38384
#
# Compressibility (1/GPa) = 0.03629723
#
# Stress axis : x y z
#
# Youngs Moduli (GPa) = 49.67156 126.20762 53.05095
#
# Poissons Ratio (x) = 0.63626 -0.16155
# Poissons Ratio (y) = 0.25041 0.17549
# Poissons Ratio (z) = -0.15126 0.41749
#
# Static dielectric constant tensor:
#      x y z
#    x 1.897600 0.000000 0.000000 
#    y 0.000000 1.800870 0.000000 
#    z 0.000000 0.000000 1.861440 
# 
# From -- ./inp_files/10100.got.cif
#   From: 2010.05.17/outbox.cif.g08.bks.cpg/sg60_6_cif.got.tgz:10100.got - 2010.06.03 14:59:27.
