data_PCOD9457418
_publ_section_title
;
Structure prediction by ZEFSAII (Michael W. Deem and Ramdas Pophale) SiO2 
 PCOD9457418
Probable space group: P B C N
;
_chemical_formula_sum "Si O2"
_cell_formula_units_Z 60
_cell_length_a 8.775682
_cell_length_b 25.842003
_cell_length_c 12.265907
_cell_angle_alpha 90.000000
_cell_angle_beta 90.000000
_cell_angle_gamma 90.000000
_cell_volume 2781.677116
_symmetry_space_group_name_H-M "P B C N"
_symmetry_group_IT_number 60
_symmetry_cell_setting 'orthorhombic'
loop_
_space_group_symop_operation_xyz
x,y,z
1/2-x,1/2-y,1/2+z
1/2+x,1/2-y,-z
-x,y,1/2-z
-x,-y,-z
1/2+x,1/2+y,1/2-z
1/2-x,1/2+y,z
x,-y,1/2+z
loop_
_atom_site_type_symbol
_atom_site_label
_atom_site_fract_x
_atom_site_fract_y
_atom_site_fract_z
Si Si1 0.728951 0.010650 0.622771
Si Si2 0.855916 0.799305 0.493866
Si Si3 0.918469 0.912365 0.556314
Si Si4 0.500000 0.950606 0.750000
Si Si5 0.213347 0.805417 0.441955
Si Si6 0.829135 0.670044 0.788587
Si Si7 0.640911 0.579380 0.810446
Si Si8 0.734530 0.907032 0.923262
O O1 0.819429 0.958064 0.601920
O O2 0.567069 0.989433 0.659927
O O3 0.811254 0.034915 0.728466
O O4 0.717238 0.050511 0.521527
O O5 0.843376 0.855002 0.554421
O O6 0.804622 0.748238 0.555457
O O7 0.747395 0.798633 0.386783
O O8 0.035133 0.797181 0.466305
O O9 0.928523 0.929401 0.429007
O O10 0.086317 0.910148 0.607331
O O11 0.624170 0.917769 0.820401
O O12 0.232283 0.825222 0.320365
O O13 0.280938 0.849757 0.522322
O O14 0.796053 0.611559 0.826647
O O15 0.000000 0.680472 0.750000
O O16 0.500000 0.607162 0.750000
#
# Coordination Sequence:
#
# PCOD9457418 Si02
#       8
#     8   8   8   4   8   8   8   8
#     4  12  24  42  66  96 135 179 218 278 331 407
#     4  10  23  43  69 101 127 173 221 277 333 399
#     4  10  23  42  70  96 129 174 229 272 331 404
#     4  12  30  40  58  98 142 176 226 266 348 400
#     4  11  22  45  71  95 133 168 224 278 338 395
#     4  11  22  39  67  98 130 169 218 274 333 400
#     4  11  21  39  67  99 125 168 226 276 331 396
#     4  11  24  45  66  96 133 177 221 279 336 403
#
# _framework density 21.569721000000001
#
# number of rings (size 3 to 8) (size 9 to 14) (size 15 to 20)
#    0.000    1.067    2.667    4.400    2.800    3.200 
#    4.800    0.000    0.000    0.000    0.000    0.000 
#    0.000    0.000    0.000    0.000    0.000    0.000 
#
# Total GULP energy -334721.452820 kJ/mol
# GULP energy per Si atom -5578.690880 kJ/mol
# Density = 2.152063 g / cm^3
# Si number density = 21.569721 Si / 1000 Ang^3
#
#
#
# Elastic Constant Matrix: (Units=GPa)
#
#
# Indices 1 2 3 4 5 6 
#
# 1 89.6449 45.6453 33.8731 0.0000 0.0000 0.0000
# 2 45.6453 95.9261 25.4343 0.0000 0.0000 0.0000
# 3 33.8731 25.4343 52.3686 0.0000 0.0000 0.0000
# 4 0.0000 0.0000 0.0000 22.9894 0.0000 0.0000
# 5 0.0000 0.0000 0.0000 0.0000 41.4126 0.0000
# 6 0.0000 0.0000 0.0000 0.0000 0.0000 33.9061
#
#
#
# Elastic Compliance Matrix: (Units=1/GPa)
#
#
# Indices 1 2 3 4 5 6 
#
# 1 0.017380 -0.006071 -0.008293 0.000000 0.000000 0.000000
# 2 -0.006071 0.014086 -0.002914 0.000000 0.000000 0.000000
# 3 -0.008293 -0.002914 0.025875 0.000000 0.000000 0.000000
# 4 0.000000 0.000000 0.000000 0.043498 0.000000 0.000000
# 5 0.000000 0.000000 0.000000 0.000000 0.024147 0.000000
# 6 0.000000 0.000000 0.000000 0.000000 0.000000 0.029493
#
#
# Mechanical properties :
#
#
# Convention : Reuss Voigt Hill
#
# Bulk Modulus (GPa) = 43.89065 49.76054 46.82559
# Shear Modulus (GPa) = 25.42812 28.52741 26.97776
#
# Velocity S-wave (km/s) = 3.43721 3.64066 3.54039
# Velocity P-wave (km/s) = 6.01207 6.38688 6.20231
#
# Compressibility (1/GPa) = 0.02278390
#
# Stress axis : x y z
#
# Youngs Moduli (GPa) = 57.53703 70.99062 38.64724
#
# Poissons Ratio (x) = 0.43100 0.32051
# Poissons Ratio (y) = 0.34932 0.11263
# Poissons Ratio (z) = 0.47716 0.20690
#
# Static dielectric constant tensor:
#      x y z
#    x 1.920070 0.000000 0.000000 
#    y 0.000000 1.903440 0.000000 
#    z 0.000000 0.000000 1.413660 
# 
# From -- ./inp_files/10274.got.cif
#   From: 2010.05.17/outbox.cif.g08.bks.cpg/sg60_6_cif.got.tgz:10274.got - 2010.06.03 14:59:27.
