data_PCOD9457572
_publ_section_title
;
Structure prediction by ZEFSAII (Michael W. Deem and Ramdas Pophale) SiO2 
 PCOD9457572
Probable space group: P B C N
;
_chemical_formula_sum "Si O2"
_cell_formula_units_Z 56
_cell_length_a 27.640471
_cell_length_b 5.110714
_cell_length_c 15.636825
_cell_angle_alpha 90.000000
_cell_angle_beta 90.000000
_cell_angle_gamma 90.000000
_cell_volume 2208.897650
_symmetry_space_group_name_H-M "P B C N"
_symmetry_group_IT_number 60
_symmetry_cell_setting 'orthorhombic'
loop_
_space_group_symop_operation_xyz
x,y,z
1/2-x,1/2-y,1/2+z
1/2+x,1/2-y,-z
-x,y,1/2-z
-x,-y,-z
1/2+x,1/2+y,1/2-z
1/2-x,1/2+y,z
x,-y,1/2+z
loop_
_atom_site_type_symbol
_atom_site_label
_atom_site_fract_x
_atom_site_fract_y
_atom_site_fract_z
Si Si1 0.217593 0.437934 0.145548
Si Si2 0.446864 0.110321 0.776164
Si Si3 0.140482 0.827156 0.421712
Si Si4 0.642380 0.276696 0.435707
Si Si5 0.717083 0.962691 0.152558
Si Si6 0.944652 0.528658 0.528798
Si Si7 0.110331 0.088557 0.739602
O O1 0.242222 0.161745 0.129948
O O2 0.173695 0.520570 0.085122
O O3 0.204142 0.463898 0.246166
O O4 0.500000 0.026284 0.750000
O O5 0.445318 0.157651 0.877547
O O6 0.431696 0.376583 0.730833
O O7 0.410869 0.878537 0.750661
O O8 0.171668 0.567047 0.401521
O O9 0.087203 0.733748 0.453378
O O10 0.137412 0.965068 0.328675
O O11 0.160050 0.029413 0.490813
O O12 0.588259 0.188529 0.462254
O O13 0.641713 0.423903 0.344935
O O14 0.757623 0.186468 0.136380
O O15 0.000000 0.500000 0.500000
#
# Coordination Sequence:
#
# PCOD9457572 Si02
#       7
#     8   8   8   8   8   8   8
#     4  10  24  45  73 110 147 192 243 295 371 446
#     4  11  24  46  70  99 139 190 247 301 368 433
#     4  11  26  47  71 111 144 196 245 305 368 447
#     4  12  26  45  77 106 150 194 244 310 368 437
#     4  10  23  45  76 106 147 193 240 302 368 442
#     4  11  27  47  71 109 149 196 255 314 367 440
#     4  11  25  45  69 102 144 189 236 298 369 434
#
# _framework density 25.352014
#
# number of rings (size 3 to 8) (size 9 to 14) (size 15 to 20)
#    0.000    1.143    2.857    1.286    8.000    2.857 
#    0.000    0.000    0.000    0.000    0.000    0.000 
#    0.000    0.000    0.000    0.000    0.000    0.000 
#
# Total GULP energy -314100.922870 kJ/mol
# GULP energy per Si atom -5608.945051 kJ/mol
# Density = 2.529431 g / cm^3
# Si number density = 25.352014 Si / 1000 Ang^3
#
#
#
# Elastic Constant Matrix: (Units=GPa)
#
#
# Indices 1 2 3 4 5 6 
#
# 1 143.4645 34.9635 40.2721 0.0000 0.0000 0.0000
# 2 34.9635 73.9658 32.5294 0.0000 0.0000 0.0000
# 3 40.2721 32.5294 143.9996 0.0000 0.0000 0.0000
# 4 0.0000 0.0000 0.0000 32.1798 0.0000 0.0000
# 5 0.0000 0.0000 0.0000 0.0000 38.8308 0.0000
# 6 0.0000 0.0000 0.0000 0.0000 0.0000 33.4065
#
#
#
# Elastic Compliance Matrix: (Units=1/GPa)
#
#
# Indices 1 2 3 4 5 6 
#
# 1 0.008186 -0.003178 -0.001571 0.000000 0.000000 0.000000
# 2 -0.003178 0.016245 -0.002781 0.000000 0.000000 0.000000
# 3 -0.001571 -0.002781 0.008012 0.000000 0.000000 0.000000
# 4 0.000000 0.000000 0.000000 0.031075 0.000000 0.000000
# 5 0.000000 0.000000 0.000000 0.000000 0.025753 0.000000
# 6 0.000000 0.000000 0.000000 0.000000 0.000000 0.029934
#
#
# Mechanical properties :
#
#
# Convention : Reuss Voigt Hill
#
# Bulk Modulus (GPa) = 57.53078 64.10665 60.81871
# Shear Modulus (GPa) = 35.69867 37.79442 36.74655
#
# Velocity S-wave (km/s) = 3.75656 3.86526 3.81130
# Velocity P-wave (km/s) = 6.44653 6.72769 6.58861
#
# Compressibility (1/GPa) = 0.01738200
#
# Stress axis : x y z
#
# Youngs Moduli (GPa) = 122.15852 61.55665 124.81093
#
# Poissons Ratio (x) = 0.19566 0.19612
# Poissons Ratio (y) = 0.38828 0.34708
# Poissons Ratio (z) = 0.19196 0.17118
#
# Static dielectric constant tensor:
#      x y z
#    x 1.972410 0.000000 0.000000 
#    y 0.000000 2.007190 0.000000 
#    z 0.000000 0.000000 2.010470 
# 
# From -- ./inp_files/18187.got.cif
#   From: 2010.05.17/outbox.cif.g08.bks.cpg/sg60_10_cif.got.tgz:18187.got - 2010.06.03 14:59:27.
