data_PCOD9457152
_publ_section_title
;
Structure prediction by ZEFSAII (Michael W. Deem and Ramdas Pophale) SiO2 
 PCOD9457152
Probable space group: P B C N
;
_chemical_formula_sum "Si O2"
_cell_formula_units_Z 48
_cell_length_a 6.432268
_cell_length_b 13.609615
_cell_length_c 26.195632
_cell_angle_alpha 90.000000
_cell_angle_beta 90.000000
_cell_angle_gamma 90.000000
_cell_volume 2293.183728
_symmetry_space_group_name_H-M "P B C N"
_symmetry_group_IT_number 60
_symmetry_cell_setting 'orthorhombic'
loop_
_space_group_symop_operation_xyz
x,y,z
1/2-x,1/2-y,1/2+z
1/2+x,1/2-y,-z
-x,y,1/2-z
-x,-y,-z
1/2+x,1/2+y,1/2-z
1/2-x,1/2+y,z
x,-y,1/2+z
loop_
_atom_site_type_symbol
_atom_site_label
_atom_site_fract_x
_atom_site_fract_y
_atom_site_fract_z
Si Si1 0.152235 0.250885 0.556983
Si Si2 0.722285 0.471301 0.626229
Si Si3 0.651269 0.226283 0.150557
Si Si4 0.962977 0.636896 0.868196
Si Si5 0.509882 0.395468 0.971742
Si Si6 0.077601 0.899275 0.194830
O O1 0.317439 0.186329 0.589329
O O2 0.262621 0.353061 0.542150
O O3 0.959176 0.265959 0.595025
O O4 0.086998 0.188327 0.507890
O O5 0.815493 0.387294 0.662452
O O6 0.617896 0.413818 0.579685
O O7 0.546529 0.535873 0.653504
O O8 0.903401 0.546180 0.610454
O O9 0.501603 0.287550 0.187310
O O10 0.870265 0.282698 0.149896
O O11 0.817574 0.600843 0.821575
O O12 0.500000 0.500000 0.000000
O O13 0.000000 0.932583 0.250000
#
# Coordination Sequence:
#
# PCOD9457152 Si02
#       6
#     8   8   8   8   8   8
#     4  11  25  42  63  97 141 182 242 284 332 410
#     4  11  24  41  66  99 133 176 227 273 346 409
#     4  10  22  44  65  96 130 181 222 274 349 394
#     4  10  22  44  69  90 138 177 216 291 331 408
#     4  12  25  40  65  98 137 188 236 283 344 409
#     4  10  24  46  68 100 132 168 221 282 347 415
#
# _framework density 20.931598000000001
#
# number of rings (size 3 to 8) (size 9 to 14) (size 15 to 20)
#    0.000    1.333    1.667    4.000    7.000    3.333 
#    6.000    0.000    0.000    0.000    0.000    0.000 
#    0.000    0.000    0.000    0.000    0.000    0.000 
#
# Total GULP energy -268248.213243 kJ/mol
# GULP energy per Si atom -5588.504443 kJ/mol
# Density = 2.088396 g / cm^3
# Si number density = 20.931598 Si / 1000 Ang^3
#
#
#
# Elastic Constant Matrix: (Units=GPa)
#
#
# Indices 1 2 3 4 5 6 
#
# 1 111.4794 33.9291 34.0475 0.0000 0.0000 0.0000
# 2 33.9291 100.3410 0.4666 0.0000 0.0000 0.0000
# 3 34.0475 0.4666 71.3052 0.0000 0.0000 0.0000
# 4 0.0000 0.0000 0.0000 12.1035 0.0000 0.0000
# 5 0.0000 0.0000 0.0000 0.0000 16.2392 0.0000
# 6 0.0000 0.0000 0.0000 0.0000 0.0000 38.2224
#
#
#
# Elastic Compliance Matrix: (Units=1/GPa)
#
#
# Indices 1 2 3 4 5 6 
#
# 1 0.011919 -0.004004 -0.005665 0.000000 0.000000 0.000000
# 2 -0.004004 0.011311 0.001838 0.000000 0.000000 0.000000
# 3 -0.005665 0.001838 0.016717 0.000000 0.000000 0.000000
# 4 0.000000 0.000000 0.000000 0.082621 0.000000 0.000000
# 5 0.000000 0.000000 0.000000 0.000000 0.061579 0.000000
# 6 0.000000 0.000000 0.000000 0.000000 0.000000 0.026163
#
#
# Mechanical properties :
#
#
# Convention : Reuss Voigt Hill
#
# Bulk Modulus (GPa) = 41.17714 46.66800 43.92257
# Shear Modulus (GPa) = 21.36132 27.62519 24.49326
#
# Velocity S-wave (km/s) = 3.19804 3.63682 3.42447
# Velocity P-wave (km/s) = 5.77508 6.32291 6.05519
#
# Compressibility (1/GPa) = 0.02428532
#
# Stress axis : x y z
#
# Youngs Moduli (GPa) = 83.89922 88.40674 59.81864
#
# Poissons Ratio (x) = 0.35398 0.33887
# Poissons Ratio (y) = 0.33593 -0.10994
# Poissons Ratio (z) = 0.47529 -0.16248
#
# Static dielectric constant tensor:
#      x y z
#    x 1.774500 0.000000 0.000000 
#    y 0.000000 1.766440 0.000000 
#    z 0.000000 0.000000 1.766940 
# 
# From -- ./inp_files/24856.got.cif
#   From: 2010.05.17/outbox.cif.g08.bks.cpg/sg60_13_cif.got.tgz:24856.got - 2010.06.03 14:59:27.
