data_PCOD9457163
_publ_section_title
;
Structure prediction by ZEFSAII (Michael W. Deem and Ramdas Pophale) SiO2 
 PCOD9457163
Probable space group: P B C N
;
_chemical_formula_sum "Si O2"
_cell_formula_units_Z 60
_cell_length_a 11.997520
_cell_length_b 8.523525
_cell_length_c 23.690910
_cell_angle_alpha 90.000000
_cell_angle_beta 90.000000
_cell_angle_gamma 90.000000
_cell_volume 2422.659977
_symmetry_space_group_name_H-M "P B C N"
_symmetry_group_IT_number 60
_symmetry_cell_setting 'orthorhombic'
loop_
_space_group_symop_operation_xyz
x,y,z
1/2-x,1/2-y,1/2+z
1/2+x,1/2-y,-z
-x,y,1/2-z
-x,-y,-z
1/2+x,1/2+y,1/2-z
1/2-x,1/2+y,z
x,-y,1/2+z
loop_
_atom_site_type_symbol
_atom_site_label
_atom_site_fract_x
_atom_site_fract_y
_atom_site_fract_z
Si Si1 0.654141 0.291586 0.628475
Si Si2 0.503258 0.846107 0.459260
Si Si3 0.105136 0.156519 0.865774
Si Si4 0.667846 0.669623 0.255828
Si Si5 0.000000 0.082174 0.750000
Si Si6 0.617847 0.994844 0.784759
Si Si7 0.799253 0.486579 0.910134
Si Si8 0.096100 0.817783 0.054906
O O1 0.584463 0.168444 0.591804
O O2 0.784074 0.253543 0.622450
O O3 0.629000 0.474747 0.618077
O O4 0.625859 0.275196 0.694550
O O5 0.622968 0.869617 0.430960
O O6 0.470041 0.691933 0.495490
O O7 0.500000 0.000000 0.500000
O O8 0.002521 0.213722 0.901720
O O9 0.065439 0.163359 0.800545
O O10 0.591235 0.530581 0.278566
O O11 0.789174 0.596584 0.248708
O O12 0.654859 0.824439 0.291308
O O13 0.500000 0.984375 0.750000
O O14 0.651758 0.938104 0.848252
O O15 0.672923 0.542382 0.921373
O O16 0.824036 0.333993 0.947630
#
# Coordination Sequence:
#
# PCOD9457163 Si02
#       8
#     8   8   8   8   4   8   8   8
#     4  11  26  46  76 110 155 195 262 315 388 464
#     4  10  26  48  78 105 149 197 263 322 385 453
#     4  11  27  45  78 111 156 202 257 319 393 475
#     4  11  23  44  70 107 148 197 246 310 379 466
#     4  10  22  44  68 106 158 188 254 312 386 470
#     4  12  25  43  73 107 150 200 248 312 391 467
#     4  11  26  46  73 105 152 195 259 316 391 466
#     4  11  27  48  73 108 146 203 257 322 392 461
#
# _framework density 24.766166999999999
#
# number of rings (size 3 to 8) (size 9 to 14) (size 15 to 20)
#    0.000    1.067    0.667    4.000   11.200    2.667 
#    1.200    0.000    0.000    0.000    0.000    0.000 
#    0.000    0.000    0.000    0.000    0.000    0.000 
#
# Total GULP energy -335074.136986 kJ/mol
# GULP energy per Si atom -5584.568950 kJ/mol
# Density = 2.470980 g / cm^3
# Si number density = 24.766167 Si / 1000 Ang^3
#
#
#
# Elastic Constant Matrix: (Units=GPa)
#
#
# Indices 1 2 3 4 5 6 
#
# 1 144.7896 33.4934 8.4941 0.0000 0.0000 0.0000
# 2 33.4934 54.0797 10.4798 0.0000 0.0000 0.0000
# 3 8.4941 10.4798 63.2672 0.0000 0.0000 0.0000
# 4 0.0000 0.0000 0.0000 21.5573 0.0000 0.0000
# 5 0.0000 0.0000 0.0000 0.0000 31.5523 0.0000
# 6 0.0000 0.0000 0.0000 0.0000 0.0000 45.1443
#
#
#
# Elastic Compliance Matrix: (Units=1/GPa)
#
#
# Indices 1 2 3 4 5 6 
#
# 1 0.008066 -0.004944 -0.000264 0.000000 0.000000 0.000000
# 2 -0.004944 0.022135 -0.003003 0.000000 0.000000 0.000000
# 3 -0.000264 -0.003003 0.016339 0.000000 0.000000 0.000000
# 4 0.000000 0.000000 0.000000 0.046388 0.000000 0.000000
# 5 0.000000 0.000000 0.000000 0.000000 0.031693 0.000000
# 6 0.000000 0.000000 0.000000 0.000000 0.000000 0.022151
#
#
# Mechanical properties :
#
#
# Convention : Reuss Voigt Hill
#
# Bulk Modulus (GPa) = 33.20273 40.78565 36.99419
# Shear Modulus (GPa) = 28.86274 33.62872 31.24573
#
# Velocity S-wave (km/s) = 3.41751 3.68890 3.55580
# Velocity P-wave (km/s) = 5.38592 5.88626 5.64164
#
# Compressibility (1/GPa) = 0.03011800
#
# Stress axis : x y z
#
# Youngs Moduli (GPa) = 123.98047 45.17677 61.20402
#
# Poissons Ratio (x) = 0.22337 0.01615
# Poissons Ratio (y) = 0.61299 0.18378
# Poissons Ratio (z) = 0.03272 0.13565
#
# Static dielectric constant tensor:
#      x y z
#    x 1.940050 0.000000 0.000000 
#    y 0.000000 1.993660 0.000000 
#    z 0.000000 0.000000 2.111560 
# 
# From -- ./inp_files/25358.got.cif
#   From: 2010.05.17/outbox.cif.g08.bks.cpg/sg60_13_cif.got.tgz:25358.got - 2010.06.03 14:59:27.
