data_PCOD9457513
_publ_section_title
;
Structure prediction by ZEFSAII (Michael W. Deem and Ramdas Pophale) SiO2 
 PCOD9457513
Probable space group: P B C N
;
_chemical_formula_sum "Si O2"
_cell_formula_units_Z 56
_cell_length_a 9.446282
_cell_length_b 14.488481
_cell_length_c 21.766600
_cell_angle_alpha 90.000000
_cell_angle_beta 90.000000
_cell_angle_gamma 90.000000
_cell_volume 2979.026445
_symmetry_space_group_name_H-M "P B C N"
_symmetry_group_IT_number 60
_symmetry_cell_setting 'orthorhombic'
loop_
_space_group_symop_operation_xyz
x,y,z
1/2-x,1/2-y,1/2+z
1/2+x,1/2-y,-z
-x,y,1/2-z
-x,-y,-z
1/2+x,1/2+y,1/2-z
1/2-x,1/2+y,z
x,-y,1/2+z
loop_
_atom_site_type_symbol
_atom_site_label
_atom_site_fract_x
_atom_site_fract_y
_atom_site_fract_z
Si Si1 0.041346 0.224001 0.179581
Si Si2 0.324631 0.398505 0.995988
Si Si3 0.399364 0.930151 0.189861
Si Si4 0.540914 0.935188 0.443342
Si Si5 0.094639 0.020222 0.188137
Si Si6 0.915018 0.071853 0.580312
Si Si7 0.676575 0.219866 0.581054
O O1 0.123661 0.320971 0.174467
O O2 0.110735 0.125994 0.163798
O O3 0.000000 0.217512 0.250000
O O4 0.899436 0.237050 0.140203
O O5 0.332678 0.483865 0.948410
O O6 0.284635 0.304118 0.962594
O O7 0.206985 0.417657 0.047006
O O8 0.477887 0.393227 0.027537
O O9 0.500000 0.936850 0.250000
O O10 0.474102 0.968388 0.127475
O O11 0.249399 0.978565 0.200050
O O12 0.444542 0.844398 0.449046
O O13 0.500000 0.000000 0.500000
O O14 0.000000 0.019566 0.250000
O O15 0.008304 0.963190 0.137102
O O16 0.805676 0.152444 0.596324
#
# Coordination Sequence:
#
# PCOD9457513 Si02
#       7
#     8   8   8   8   8   8   8
#     4   9  21  41  64  88 128 168 214 264 326 390
#     4  11  22  41  60  94 129 166 211 275 327 387
#     4  10  23  44  68  92 129 177 217 269 333 401
#     4  11  22  40  62  94 128 165 215 270 325 390
#     4  11  23  41  68  96 125 172 219 270 333 390
#     4  11  23  39  64  94 128 168 220 267 324 400
#     4  11  22  39  66  89 127 177 215 259 342 386
#
# _framework density 18.798086999999999
#
# number of rings (size 3 to 8) (size 9 to 14) (size 15 to 20)
#    0.000    1.429    4.286    0.857    6.000    0.000 
#    5.143    0.714    0.000    0.000    0.000    0.000 
#    0.000    0.000    0.000    0.000    0.000    0.000 
#
# Total GULP energy -312355.231432 kJ/mol
# GULP energy per Si atom -5577.771990 kJ/mol
# Density = 1.875530 g / cm^3
# Si number density = 18.798087 Si / 1000 Ang^3
#
#
#
# Elastic Constant Matrix: (Units=GPa)
#
#
# Indices 1 2 3 4 5 6 
#
# 1 95.4908 58.1538 27.8042 0.0000 0.0000 0.0000
# 2 58.1538 105.3367 43.6279 0.0000 0.0000 0.0000
# 3 27.8042 43.6279 109.5418 0.0000 0.0000 0.0000
# 4 0.0000 0.0000 0.0000 73.6301 0.0000 0.0000
# 5 0.0000 0.0000 0.0000 0.0000 35.1059 0.0000
# 6 0.0000 0.0000 0.0000 0.0000 0.0000 23.6159
#
#
#
# Elastic Compliance Matrix: (Units=1/GPa)
#
#
# Indices 1 2 3 4 5 6 
#
# 1 0.015814 -0.008464 -0.000643 0.000000 0.000000 0.000000
# 2 -0.008464 0.015899 -0.004184 0.000000 0.000000 0.000000
# 3 -0.000643 -0.004184 0.010958 0.000000 0.000000 0.000000
# 4 0.000000 0.000000 0.000000 0.013581 0.000000 0.000000
# 5 0.000000 0.000000 0.000000 0.000000 0.028485 0.000000
# 6 0.000000 0.000000 0.000000 0.000000 0.000000 0.042344
#
#
# Mechanical properties :
#
#
# Convention : Reuss Voigt Hill
#
# Bulk Modulus (GPa) = 62.15148 63.28235 62.71692
# Shear Modulus (GPa) = 31.44096 38.52258 34.98177
#
# Velocity S-wave (km/s) = 4.09413 4.53181 4.31852
# Velocity P-wave (km/s) = 7.44874 7.81795 7.63558
#
# Compressibility (1/GPa) = 0.01608972
#
# Stress axis : x y z
#
# Youngs Moduli (GPa) = 63.23429 62.89632 91.25408
#
# Poissons Ratio (x) = 0.53238 0.05866
# Poissons Ratio (y) = 0.53524 0.38179
# Poissons Ratio (z) = 0.04065 0.26315
#
# Static dielectric constant tensor:
#      x y z
#    x 1.683130 0.000000 0.000000 
#    y 0.000000 1.675960 0.000000 
#    z 0.000000 0.000000 1.648070 
# 
# From -- ./inp_files/22221.got.cif
#   From: 2010.05.17/outbox.cif.g08.bks.cpg/sg60_12_cif.got.tgz:22221.got - 2010.06.03 14:59:27.
