data_PCOD9457225
_publ_section_title
;
Structure prediction by ZEFSAII (Michael W. Deem and Ramdas Pophale) SiO2 
 PCOD9457225
Probable space group: P B C N
;
_chemical_formula_sum "Si O2"
_cell_formula_units_Z 48
_cell_length_a 8.611694
_cell_length_b 14.070413
_cell_length_c 17.129967
_cell_angle_alpha 90.000000
_cell_angle_beta 90.000000
_cell_angle_gamma 90.000000
_cell_volume 2075.639664
_symmetry_space_group_name_H-M "P B C N"
_symmetry_group_IT_number 60
_symmetry_cell_setting 'orthorhombic'
loop_
_space_group_symop_operation_xyz
x,y,z
1/2-x,1/2-y,1/2+z
1/2+x,1/2-y,-z
-x,y,1/2-z
-x,-y,-z
1/2+x,1/2+y,1/2-z
1/2-x,1/2+y,z
x,-y,1/2+z
loop_
_atom_site_type_symbol
_atom_site_label
_atom_site_fract_x
_atom_site_fract_y
_atom_site_fract_z
Si Si1 0.470780 0.984950 0.092699
Si Si2 0.253948 0.855061 0.651434
Si Si3 0.320596 0.645113 0.610851
Si Si4 0.291887 0.151680 0.852153
Si Si5 0.000000 0.792595 0.750000
Si Si6 0.500000 0.610182 0.750000
Si Si7 0.432886 0.391144 0.496757
O O1 0.343107 0.901732 0.095881
O O2 0.617226 0.948178 0.141332
O O3 0.394219 0.074325 0.135360
O O4 0.500000 0.000000 0.000000
O O5 0.312304 0.747404 0.649219
O O6 0.137592 0.868835 0.579326
O O7 0.142792 0.859511 0.725587
O O8 0.415808 0.574957 0.669656
O O9 0.413121 0.661734 0.531112
O O10 0.422121 0.225868 0.818448
O O11 0.150498 0.155915 0.791648
O O12 0.200476 0.145789 0.935696
O O13 0.500000 0.500000 0.500000
#
# Coordination Sequence:
#
# PCOD9457225 Si02
#       7
#     8   8   8   8   4   4   8
#     4  12  24  46  75 114 147 197 258 317 380 457
#     4  12  26  45  76 110 152 197 262 306 391 473
#     4  11  24  44  73 102 151 193 251 314 384 440
#     4  11  22  47  76 100 158 194 251 310 389 442
#     4  12  26  49  75 118 152 206 242 315 401 456
#     4  10  22  45  75  98 144 212 230 305 399 440
#     4  11  24  46  73 105 143 201 254 318 373 452
#
# _framework density 23.125401
#
# number of rings (size 3 to 8) (size 9 to 14) (size 15 to 20)
#    0.000    0.667    6.667    0.000    4.667    0.667 
#    3.000    2.500    0.000    0.000    0.000    0.000 
#    0.000    0.000    0.000    0.000    0.000    0.000 
#
# Total GULP energy -267207.434674 kJ/mol
# GULP energy per Si atom -5566.821556 kJ/mol
# Density = 2.307277 g / cm^3
# Si number density = 23.125401 Si / 1000 Ang^3
#
#
#
# Elastic Constant Matrix: (Units=GPa)
#
#
# Indices 1 2 3 4 5 6 
#
# 1 100.2388 43.6866 13.8380 0.0000 0.0000 0.0000
# 2 43.6866 95.9101 33.5270 0.0000 0.0000 0.0000
# 3 13.8380 33.5270 76.7621 0.0000 0.0000 0.0000
# 4 0.0000 0.0000 0.0000 27.3417 0.0000 0.0000
# 5 0.0000 0.0000 0.0000 0.0000 40.6324 0.0000
# 6 0.0000 0.0000 0.0000 0.0000 0.0000 21.0172
#
#
#
# Elastic Compliance Matrix: (Units=1/GPa)
#
#
# Indices 1 2 3 4 5 6 
#
# 1 0.012452 -0.005768 0.000274 0.000000 0.000000 0.000000
# 2 -0.005768 0.014977 -0.005502 0.000000 0.000000 0.000000
# 3 0.000274 -0.005502 0.015381 0.000000 0.000000 0.000000
# 4 0.000000 0.000000 0.000000 0.036574 0.000000 0.000000
# 5 0.000000 0.000000 0.000000 0.000000 0.024611 0.000000
# 6 0.000000 0.000000 0.000000 0.000000 0.000000 0.047580
#
#
# Mechanical properties :
#
#
# Convention : Reuss Voigt Hill
#
# Bulk Modulus (GPa) = 48.03151 50.55711 49.29431
# Shear Modulus (GPa) = 27.70017 29.92224 28.81121
#
# Velocity S-wave (km/s) = 3.46471 3.60100 3.53352
# Velocity P-wave (km/s) = 6.06801 6.26093 6.16523
#
# Compressibility (1/GPa) = 0.02081967
#
# Stress axis : x y z
#
# Youngs Moduli (GPa) = 80.30813 66.76995 65.01663
#
# Poissons Ratio (x) = 0.38511 -0.01784
# Poissons Ratio (y) = 0.46320 0.35769
# Poissons Ratio (z) = -0.02204 0.36734
#
# Static dielectric constant tensor:
#      x y z
#    x 1.914060 0.000000 0.000000 
#    y 0.000000 1.940710 0.000000 
#    z 0.000000 0.000000 1.931280 
# 
# From -- ./inp_files/19366.got.cif
#   From: 2010.05.17/outbox.cif.g08.bks.cpg/sg60_10_cif.got.tgz:19366.got - 2010.06.03 14:59:27.
