data_PCOD9457214
_publ_section_title
;
Structure prediction by ZEFSAII (Michael W. Deem and Ramdas Pophale) SiO2 
 PCOD9457214
Probable space group: P B C N
;
_chemical_formula_sum "Si O2"
_cell_formula_units_Z 32
_cell_length_a 6.606719
_cell_length_b 18.591952
_cell_length_c 12.004134
_cell_angle_alpha 90.000000
_cell_angle_beta 90.000000
_cell_angle_gamma 90.000000
_cell_volume 1474.489417
_symmetry_space_group_name_H-M "P B C N"
_symmetry_group_IT_number 60
_symmetry_cell_setting 'orthorhombic'
loop_
_space_group_symop_operation_xyz
x,y,z
1/2-x,1/2-y,1/2+z
1/2+x,1/2-y,-z
-x,y,1/2-z
-x,-y,-z
1/2+x,1/2+y,1/2-z
1/2-x,1/2+y,z
x,-y,1/2+z
loop_
_atom_site_type_symbol
_atom_site_label
_atom_site_fract_x
_atom_site_fract_y
_atom_site_fract_z
Si Si1 0.679935 0.062479 0.825738
Si Si2 0.000000 0.171861 0.750000
Si Si3 0.373941 0.250684 0.862977
Si Si4 0.611068 0.141505 0.026007
Si Si5 0.000000 0.573438 0.250000
O O1 0.500000 0.096281 0.750000
O O2 0.865705 0.116165 0.819697
O O3 0.684888 0.983282 0.772065
O O4 0.624644 0.068164 0.954751
O O5 0.158110 0.217801 0.822305
O O6 0.500000 0.265401 0.750000
O O7 0.318844 0.321116 0.934624
O O8 0.491921 0.196825 0.945923
O O9 0.507325 0.121565 0.141584
#
# Coordination Sequence:
#
# PCOD9457214 Si02
#       5
#     8   4   8   8   4
#     4  10  22  45  70  97 136 184 232 285 350 412
#     4  12  19  46  72 100 141 178 234 286 354 428
#     4  12  26  44  72 106 139 186 233 296 364 419
#     4  12  23  46  70 100 143 180 230 294 349 418
#     4  10  25  44  70  98 141 182 240 286 346 424
#
# _framework density 21.702428999999999
#
# number of rings (size 3 to 8) (size 9 to 14) (size 15 to 20)
#    0.750    0.000    5.000    3.000    3.500    0.000 
#    2.250    2.500    0.000    0.000    0.000    0.000 
#    0.000    0.000    0.000    0.000    0.000    0.000 
#
# Total GULP energy -178306.418355 kJ/mol
# GULP energy per Si atom -5572.075574 kJ/mol
# Density = 2.165303 g / cm^3
# Si number density = 21.702429 Si / 1000 Ang^3
#
#
#
# Elastic Constant Matrix: (Units=GPa)
#
#
# Indices 1 2 3 4 5 6 
#
# 1 78.8825 21.1626 41.1538 0.0000 0.0000 0.0000
# 2 21.1626 71.7345 39.2446 0.0000 0.0000 0.0000
# 3 41.1538 39.2446 176.3521 0.0000 0.0000 0.0000
# 4 0.0000 0.0000 0.0000 38.5681 0.0000 0.0000
# 5 0.0000 0.0000 0.0000 0.0000 36.4324 0.0000
# 6 0.0000 0.0000 0.0000 0.0000 0.0000 -1.5774
#
#
#
# Elastic Compliance Matrix: (Units=1/GPa)
#
#
# Indices 1 2 3 4 5 6 
#
# 1 0.014927 -0.002844 -0.002851 0.000000 0.000000 0.000000
# 2 -0.002844 0.016415 -0.002989 0.000000 0.000000 0.000000
# 3 -0.002851 -0.002989 0.007001 0.000000 0.000000 0.000000
# 4 0.000000 0.000000 0.000000 0.025928 0.000000 0.000000
# 5 0.000000 0.000000 0.000000 0.000000 0.027448 0.000000
# 6 0.000000 0.000000 0.000000 0.000000 0.000000 -0.633964
#
#
# Mechanical properties :
#
#
# Convention : Reuss Voigt Hill
#
# Bulk Modulus (GPa) = 47.67572 58.89902 53.28737
# Shear Modulus (GPa) = -9.65465 29.71184 10.02859
#
# Velocity S-wave (km/s) = -2.11147 3.70409 2.15197
# Velocity P-wave (km/s) = 4.00889 6.74477 5.54812
#
# Compressibility (1/GPa) = 0.02097504
#
# Stress axis : x y z
#
# Youngs Moduli (GPa) = 66.99146 60.92115 142.83968
#
# Poissons Ratio (x) = 0.17328 0.40716
# Poissons Ratio (y) = 0.19054 0.42696
# Poissons Ratio (z) = 0.19096 0.18210
#
# Static dielectric constant tensor:
#      x y z
#    x 1.940680 0.000000 0.000000 
#    y 0.000000 1.861880 0.000000 
#    z 0.000000 0.000000 1.880860 
# 
# From -- ./inp_files/8940.got.cif
#   From: 2010.05.17/outbox.cif.g08.bks.cpg/sg60_5_cif.got.tgz:8940.got - 2010.06.03 14:59:27.
