data_PCOD9457432
_publ_section_title
;
Structure prediction by ZEFSAII (Michael W. Deem and Ramdas Pophale) SiO2 
 PCOD9457432
Probable space group: P B C N
;
_chemical_formula_sum "Si O2"
_cell_formula_units_Z 48
_cell_length_a 11.641534
_cell_length_b 17.628766
_cell_length_c 9.980231
_cell_angle_alpha 90.000000
_cell_angle_beta 90.000000
_cell_angle_gamma 90.000000
_cell_volume 2048.201677
_symmetry_space_group_name_H-M "P B C N"
_symmetry_group_IT_number 60
_symmetry_cell_setting 'orthorhombic'
loop_
_space_group_symop_operation_xyz
x,y,z
1/2-x,1/2-y,1/2+z
1/2+x,1/2-y,-z
-x,y,1/2-z
-x,-y,-z
1/2+x,1/2+y,1/2-z
1/2-x,1/2+y,z
x,-y,1/2+z
loop_
_atom_site_type_symbol
_atom_site_label
_atom_site_fract_x
_atom_site_fract_y
_atom_site_fract_z
Si Si1 0.080656 0.277413 0.121874
Si Si2 0.903523 0.334844 0.934485
Si Si3 0.627671 0.022898 0.246819
Si Si4 0.159641 0.171010 0.656816
Si Si5 0.155542 0.867629 0.456854
Si Si6 0.716602 0.530733 0.982964
O O1 0.205408 0.307521 0.159511
O O2 0.000000 0.268819 0.250000
O O3 0.098291 0.196056 0.049858
O O4 0.018998 0.336119 0.020602
O O5 0.890824 0.395558 0.817190
O O6 0.898045 0.250380 0.878031
O O7 0.792657 0.350593 0.027185
O O8 0.500000 0.987471 0.250000
O O9 0.692800 0.031110 0.105913
O O10 0.711751 0.978686 0.346058
O O11 0.123430 0.142630 0.802616
O O12 0.146631 0.107857 0.540839
O O13 0.141793 0.954687 0.500464
#
# Coordination Sequence:
#
# PCOD9457432 Si02
#       6
#     8   8   8   8   8   8
#     4  11  23  43  71  96 133 176 226 279 331 394
#     4  10  24  39  65  97 126 170 226 270 328 388
#     4  11  23  38  61  95 130 170 217 273 334 400
#     4  11  23  41  69  94 137 170 219 276 336 388
#     4  10  23  43  63  97 131 176 218 269 331 400
#     4  11  23  42  63  91 136 177 215 268 340 401
#
# _framework density 23.435193000000002
#
# number of rings (size 3 to 8) (size 9 to 14) (size 15 to 20)
#    0.000    1.333    3.333    1.500    7.000    3.333 
#    0.000    0.833    0.000    0.000    0.000    0.000 
#    0.000    0.000    0.000    0.000    0.000    0.000 
#
# Total GULP energy -268802.264929 kJ/mol
# GULP energy per Si atom -5600.047186 kJ/mol
# Density = 2.338185 g / cm^3
# Si number density = 23.435193 Si / 1000 Ang^3
#
#
#
# Elastic Constant Matrix: (Units=GPa)
#
#
# Indices 1 2 3 4 5 6 
#
# 1 45.5997 22.7849 14.3559 0.0000 0.0000 0.0000
# 2 22.7849 125.4429 30.3598 0.0000 0.0000 0.0000
# 3 14.3559 30.3598 116.3594 0.0000 0.0000 0.0000
# 4 0.0000 0.0000 0.0000 17.1552 0.0000 0.0000
# 5 0.0000 0.0000 0.0000 0.0000 23.0319 0.0000
# 6 0.0000 0.0000 0.0000 0.0000 0.0000 18.8670
#
#
#
# Elastic Compliance Matrix: (Units=1/GPa)
#
#
# Indices 1 2 3 4 5 6 
#
# 1 0.024543 -0.003976 -0.001991 0.000000 0.000000 0.000000
# 2 -0.003976 0.009153 -0.001898 0.000000 0.000000 0.000000
# 3 -0.001991 -0.001898 0.009335 0.000000 0.000000 0.000000
# 4 0.000000 0.000000 0.000000 0.058292 0.000000 0.000000
# 5 0.000000 0.000000 0.000000 0.000000 0.043418 0.000000
# 6 0.000000 0.000000 0.000000 0.000000 0.000000 0.053002
#
#
# Mechanical properties :
#
#
# Convention : Reuss Voigt Hill
#
# Bulk Modulus (GPa) = 36.62659 46.93370 41.78014
# Shear Modulus (GPa) = 22.46451 26.47091 24.46771
#
# Velocity S-wave (km/s) = 3.09945 3.36450 3.23469
# Velocity P-wave (km/s) = 5.33588 5.92990 5.64071
#
# Compressibility (1/GPa) = 0.02730257
#
# Stress axis : x y z
#
# Youngs Moduli (GPa) = 40.74402 109.25080 107.12630
#
# Poissons Ratio (x) = 0.43440 0.21325
# Poissons Ratio (y) = 0.16201 0.20329
# Poissons Ratio (z) = 0.08111 0.20732
#
# Static dielectric constant tensor:
#      x y z
#    x 1.931560 0.000000 0.000000 
#    y 0.000000 1.879120 0.000000 
#    z 0.000000 0.000000 1.843040 
# 
# From -- ./inp_files/5935.got.cif
#   From: 2010.05.17/outbox.cif.g08.bks.cpg/sg60_3_cif.got.tgz:5935.got - 2010.06.03 14:59:27.
