data_PCOD9457623
_publ_section_title
;
Structure prediction by ZEFSAII (Michael W. Deem and Ramdas Pophale) SiO2 
 PCOD9457623
Probable space group: P B C N
;
_chemical_formula_sum "Si O2"
_cell_formula_units_Z 44
_cell_length_a 10.598932
_cell_length_b 24.420029
_cell_length_c 9.113846
_cell_angle_alpha 90.000000
_cell_angle_beta 90.000000
_cell_angle_gamma 90.000000
_cell_volume 2358.902372
_symmetry_space_group_name_H-M "P B C N"
_symmetry_group_IT_number 60
_symmetry_cell_setting 'orthorhombic'
loop_
_space_group_symop_operation_xyz
x,y,z
1/2-x,1/2-y,1/2+z
1/2+x,1/2-y,-z
-x,y,1/2-z
-x,-y,-z
1/2+x,1/2+y,1/2-z
1/2-x,1/2+y,z
x,-y,1/2+z
loop_
_atom_site_type_symbol
_atom_site_label
_atom_site_fract_x
_atom_site_fract_y
_atom_site_fract_z
Si Si1 0.675492 0.982741 0.507917
Si Si2 0.891046 0.216469 0.952408
Si Si3 0.000000 0.505280 0.250000
Si Si4 0.176137 0.784385 0.391087
Si Si5 0.600851 0.587870 0.945745
Si Si6 0.821566 0.086339 0.602166
O O1 0.578401 0.962518 0.630036
O O2 0.802915 0.950054 0.529256
O O3 0.604157 0.975367 0.352633
O O4 0.713693 0.045970 0.541925
O O5 0.848555 0.223161 0.782569
O O6 0.883191 0.151577 0.982503
O O7 0.040253 0.230675 0.963920
O O8 0.793760 0.249768 0.051435
O O9 0.202377 0.848993 0.419235
O O10 0.455931 0.572783 0.972462
O O11 0.642986 0.580567 0.774944
#
# Coordination Sequence:
#
# PCOD9457623 Si02
#       6
#     8   8   4   8   8   8
#     4  11  19  40  52  82 109 149 176 218 272 319
#     4   9  19  38  57  81 108 142 184 227 270 323
#     4  10  24  34  54  74 124 142 180 216 256 336
#     4   9  19  38  57  81 108 142 184 227 270 323
#     4   9  18  35  60  79 104 140 183 225 268 320
#     4   9  18  35  60  79 104 140 183 225 268 320
#
# _framework density 18.652743999999998
#
# number of rings (size 3 to 8) (size 9 to 14) (size 15 to 20)
#    0.000    2.545    1.818    2.727    0.000    0.727 
#    9.818    0.000    0.000    0.000    0.000    0.000 
#    0.000    0.000    0.000    0.000    0.000    0.000 
#
# Total GULP energy -244944.293130 kJ/mol
# GULP energy per Si atom -5566.915753 kJ/mol
# Density = 1.861029 g / cm^3
# Si number density = 18.652744 Si / 1000 Ang^3
#
#
#
# Elastic Constant Matrix: (Units=GPa)
#
#
# Indices 1 2 3 4 5 6 
#
# 1 82.7769 43.3518 21.2891 0.0000 0.0000 0.0000
# 2 43.3518 39.6663 11.4590 0.0000 0.0000 0.0000
# 3 21.2891 11.4590 35.3974 0.0000 0.0000 0.0000
# 4 0.0000 0.0000 0.0000 -38.4828 0.0000 0.0000
# 5 0.0000 0.0000 0.0000 0.0000 33.9670 0.0000
# 6 0.0000 0.0000 0.0000 0.0000 0.0000 19.2994
#
#
#
# Elastic Compliance Matrix: (Units=1/GPa)
#
#
# Indices 1 2 3 4 5 6 
#
# 1 0.030301 -0.030725 -0.008277 0.000000 0.000000 0.000000
# 2 -0.030725 0.058966 -0.000610 0.000000 0.000000 0.000000
# 3 -0.008277 -0.000610 0.033426 0.000000 0.000000 0.000000
# 4 0.000000 0.000000 0.000000 -0.025986 0.000000 0.000000
# 5 0.000000 0.000000 0.000000 0.000000 0.029440 0.000000
# 6 0.000000 0.000000 0.000000 0.000000 0.000000 0.051815
#
#
# Mechanical properties :
#
#
# Convention : Reuss Voigt Hill
#
# Bulk Modulus (GPa) = 23.00494 34.44892 28.72693
# Shear Modulus (GPa) = 18.40428 8.40610 13.40519
#
# Velocity S-wave (km/s) = 3.14455 2.12519 2.68371
# Velocity P-wave (km/s) = 5.05414 4.95283 5.00374
#
# Compressibility (1/GPa) = 0.04346893
#
# Stress axis : x y z
#
# Youngs Moduli (GPa) = 33.00272 16.95896 29.91655
#
# Poissons Ratio (x) = 0.52106 0.24763
# Poissons Ratio (y) = 1.01400 0.01825
# Poissons Ratio (z) = 0.27318 0.01034
#
# Static dielectric constant tensor:
#      x y z
#    x 1.671510 0.000000 0.000000 
#    y 0.000000 1.627080 0.000000 
#    z 0.000000 0.000000 1.687890 
# 
# From -- ./inp_files/4994.got.cif
#   From: 2010.05.17/outbox.cif.g08.bks.cpg/sg60_3_cif.got.tgz:4994.got - 2010.06.03 14:59:27.
