data_PCOD9457276
_publ_section_title
;
Structure prediction by ZEFSAII (Michael W. Deem and Ramdas Pophale) SiO2 
 PCOD9457276
Probable space group: P B C N
;
_chemical_formula_sum "Si O2"
_cell_formula_units_Z 56
_cell_length_a 7.168069
_cell_length_b 14.176220
_cell_length_c 21.883357
_cell_angle_alpha 90.000000
_cell_angle_beta 90.000000
_cell_angle_gamma 90.000000
_cell_volume 2223.701899
_symmetry_space_group_name_H-M "P B C N"
_symmetry_group_IT_number 60
_symmetry_cell_setting 'orthorhombic'
loop_
_space_group_symop_operation_xyz
x,y,z
1/2-x,1/2-y,1/2+z
1/2+x,1/2-y,-z
-x,y,1/2-z
-x,-y,-z
1/2+x,1/2+y,1/2-z
1/2-x,1/2+y,z
x,-y,1/2+z
loop_
_atom_site_type_symbol
_atom_site_label
_atom_site_fract_x
_atom_site_fract_y
_atom_site_fract_z
Si Si1 0.786237 0.955191 0.852695
Si Si2 0.094549 0.833048 0.803870
Si Si3 0.891185 0.271648 0.909639
Si Si4 0.879599 0.642194 0.979313
Si Si5 0.627385 0.424669 0.583037
Si Si6 0.427500 0.940044 0.363895
Si Si7 0.626674 0.305499 0.194807
O O1 0.938368 0.918753 0.804146
O O2 0.671214 0.863488 0.872788
O O3 0.928650 0.976899 0.909093
O O4 0.628591 0.030468 0.836031
O O5 0.305926 0.801629 0.789978
O O6 0.000000 0.772222 0.750000
O O7 0.098499 0.826877 0.878646
O O8 0.008274 0.306778 0.967181
O O9 0.002303 0.202514 0.865458
O O10 0.716774 0.217245 0.936040
O O11 0.717073 0.588760 0.017475
O O12 0.514804 0.914707 0.065986
O O13 0.779137 0.475921 0.626342
O O14 0.309471 0.864661 0.325181
O O15 0.500000 0.342884 0.250000
#
# Coordination Sequence:
#
# PCOD9457276 Si02
#       7
#     8   8   8   8   8   8   8
#     4  10  23  45  74 104 151 191 256 306 388 469
#     4  10  22  48  74 104 138 198 261 313 368 452
#     4  12  23  46  72 109 139 201 254 311 375 446
#     4  12  24  42  75 107 157 195 257 320 375 477
#     4  10  24  45  69 112 145 198 251 303 391 464
#     4  12  26  46  70 112 156 198 242 314 409 462
#     4  12  27  48  77 108 153 199 264 328 384 456
#
# _framework density 25.183232
#
# number of rings (size 3 to 8) (size 9 to 14) (size 15 to 20)
#    0.857    0.000    2.857    3.857    2.000    1.143 
#    0.000    1.429    0.000    0.000    0.000    0.000 
#    0.000    0.000    0.000    0.000    0.000    0.000 
#
# Total GULP energy -311816.899050 kJ/mol
# GULP energy per Si atom -5568.158912 kJ/mol
# Density = 2.512591 g / cm^3
# Si number density = 25.183232 Si / 1000 Ang^3
#
#
#
# Elastic Constant Matrix: (Units=GPa)
#
#
# Indices 1 2 3 4 5 6 
#
# 1 182.7330 62.7760 78.4314 0.0000 0.0000 0.0000
# 2 62.7760 67.8246 54.2729 0.0000 0.0000 0.0000
# 3 78.4314 54.2729 98.4922 0.0000 0.0000 0.0000
# 4 0.0000 0.0000 0.0000 6.5745 0.0000 0.0000
# 5 0.0000 0.0000 0.0000 0.0000 37.9295 0.0000
# 6 0.0000 0.0000 0.0000 0.0000 0.0000 51.9668
#
#
#
# Elastic Compliance Matrix: (Units=1/GPa)
#
#
# Indices 1 2 3 4 5 6 
#
# 1 0.009075 -0.004681 -0.004648 0.000000 0.000000 0.000000
# 2 -0.004681 0.028787 -0.012135 0.000000 0.000000 0.000000
# 3 -0.004648 -0.012135 0.020541 0.000000 0.000000 0.000000
# 4 0.000000 0.000000 0.000000 0.152103 0.000000 0.000000
# 5 0.000000 0.000000 0.000000 0.000000 0.026365 0.000000
# 6 0.000000 0.000000 0.000000 0.000000 0.000000 0.019243
#
#
# Mechanical properties :
#
#
# Convention : Reuss Voigt Hill
#
# Bulk Modulus (GPa) = 64.61620 82.22340 73.41980
# Shear Modulus (GPa) = 16.43659 29.53212 22.98435
#
# Velocity S-wave (km/s) = 2.55753 3.42817 3.02434
# Velocity P-wave (km/s) = 5.86817 6.95635 6.43530
#
# Compressibility (1/GPa) = 0.01547600
#
# Stress axis : x y z
#
# Youngs Moduli (GPa) = 110.18914 34.73808 48.68324
#
# Poissons Ratio (x) = 0.16260 0.22626
# Poissons Ratio (y) = 0.51578 0.59078
# Poissons Ratio (z) = 0.51211 0.42155
#
# Static dielectric constant tensor:
#      x y z
#    x 2.005010 0.000000 0.000000 
#    y 0.000000 2.235090 0.000000 
#    z 0.000000 0.000000 1.276820 
# 
# From -- ./inp_files/22197.got.cif
#   From: 2010.05.17/outbox.cif.g08.bks.cpg/sg60_12_cif.got.tgz:22197.got - 2010.06.03 14:59:27.
