data_PCOD9457028
_publ_section_title
;
Structure prediction by ZEFSAII (Michael W. Deem and Ramdas Pophale) SiO2 
 PCOD9457028
Probable space group: P B C N
;
_chemical_formula_sum "Si O2"
_cell_formula_units_Z 60
_cell_length_a 8.164048
_cell_length_b 13.952765
_cell_length_c 24.454726
_cell_angle_alpha 90.000000
_cell_angle_beta 90.000000
_cell_angle_gamma 90.000000
_cell_volume 2785.663350
_symmetry_space_group_name_H-M "P B C N"
_symmetry_group_IT_number 60
_symmetry_cell_setting 'orthorhombic'
loop_
_space_group_symop_operation_xyz
x,y,z
1/2-x,1/2-y,1/2+z
1/2+x,1/2-y,-z
-x,y,1/2-z
-x,-y,-z
1/2+x,1/2+y,1/2-z
1/2-x,1/2+y,z
x,-y,1/2+z
loop_
_atom_site_type_symbol
_atom_site_label
_atom_site_fract_x
_atom_site_fract_y
_atom_site_fract_z
Si Si1 0.991106 0.378275 0.311618
Si Si2 0.986118 0.674595 0.189020
Si Si3 0.135539 0.126934 0.684341
Si Si4 0.184189 0.091892 0.450065
Si Si5 0.875581 0.818918 0.659254
Si Si6 0.123938 0.954724 0.063435
Si Si7 0.000000 0.960458 0.750000
Si Si8 0.044044 0.455333 0.598351
O O1 0.813963 0.327320 0.312900
O O2 0.994850 0.456799 0.359489
O O3 0.000000 0.416841 0.250000
O O4 0.111625 0.290870 0.322970
O O5 0.806445 0.646944 0.171206
O O6 0.000000 0.636624 0.250000
O O7 0.008209 0.788330 0.192124
O O8 0.092457 0.630050 0.140429
O O9 0.114400 0.087867 0.623649
O O10 0.130105 0.038717 0.727053
O O11 0.111146 0.166101 0.405664
O O12 0.161166 0.118086 0.513667
O O13 0.375467 0.067361 0.435391
O O14 0.054180 0.003939 0.444563
O O15 0.976200 0.890267 0.698362
O O16 0.290771 0.019991 0.064550
#
# Coordination Sequence:
#
# PCOD9457028 Si02
#       8
#     8   8   8   8   8   8   4   8
#     4  11  24  38  63  95 132 167 207 263 321 397
#     4  11  24  38  63  95 132 167 207 263 321 397
#     4  11  25  39  64  93 129 166 214 258 332 379
#     4  10  22  42  66  90 124 170 217 264 315 376
#     4  11  25  39  64  93 129 166 214 258 332 379
#     4  10  22  42  66  90 124 170 217 264 315 376
#     4  12  24  40  64  90 132 168 206 274 312 400
#     4  10  24  40  66  92 132 167 217 262 326 382
#
# _framework density 21.538855000000002
#
# number of rings (size 3 to 8) (size 9 to 14) (size 15 to 20)
#    0.000    1.333    2.667    1.600   11.200    0.000 
#    0.000    6.667    0.000    0.000    0.000    0.000 
#    0.000    0.000    0.000    0.000    0.000    0.000 
#
# Total GULP energy -334092.990414 kJ/mol
# GULP energy per Si atom -5568.216507 kJ/mol
# Density = 2.148983 g / cm^3
# Si number density = 21.538855 Si / 1000 Ang^3
#
#
#
# Elastic Constant Matrix: (Units=GPa)
#
#
# Indices 1 2 3 4 5 6 
#
# 1 58.8000 -7.1191 -0.9292 0.0000 0.0000 0.0000
# 2 -7.1191 58.5178 -11.8263 0.0000 0.0000 0.0000
# 3 -0.9292 -11.8263 52.7014 0.0000 0.0000 0.0000
# 4 0.0000 0.0000 0.0000 3.6300 0.0000 0.0000
# 5 0.0000 0.0000 0.0000 0.0000 -14.5913 0.0000
# 6 0.0000 0.0000 0.0000 0.0000 0.0000 12.5403
#
#
#
# Elastic Compliance Matrix: (Units=1/GPa)
#
#
# Indices 1 2 3 4 5 6 
#
# 1 0.017294 0.002268 0.000814 0.000000 0.000000 0.000000
# 2 0.002268 0.018198 0.004124 0.000000 0.000000 0.000000
# 3 0.000814 0.004124 0.019915 0.000000 0.000000 0.000000
# 4 0.000000 0.000000 0.000000 0.275484 0.000000 0.000000
# 5 0.000000 0.000000 0.000000 0.000000 -0.068534 0.000000
# 6 0.000000 0.000000 0.000000 0.000000 0.000000 0.079743
#
#
# Mechanical properties :
#
#
# Convention : Reuss Voigt Hill
#
# Bulk Modulus (GPa) = 14.32266 14.47443 14.39854
# Shear Modulus (GPa) = 14.24661 12.97539 13.61100
#
# Velocity S-wave (km/s) = 2.57463 2.45708 2.51654
# Velocity P-wave (km/s) = 3.93731 3.84505 3.89146
#
# Compressibility (1/GPa) = 0.06981944
#
# Stress axis : x y z
#
# Youngs Moduli (GPa) = 57.82249 54.95047 50.21454
#
# Poissons Ratio (x) = -0.12465 -0.04087
# Poissons Ratio (y) = -0.13117 -0.20707
# Poissons Ratio (z) = -0.04707 -0.22660
#
# Static dielectric constant tensor:
#      x y z
#    x 1.822790 0.000000 0.000000 
#    y 0.000000 1.747520 0.000000 
#    z 0.000000 0.000000 1.950140 
# 
# From -- ./inp_files/24048.got.cif
#   From: 2010.05.17/outbox.cif.g08.bks.cpg/sg60_13_cif.got.tgz:24048.got - 2010.06.03 14:59:27.
