data_PCOD9457431
_publ_section_title
;
Structure prediction by ZEFSAII (Michael W. Deem and Ramdas Pophale) SiO2 
 PCOD9457431
Probable space group: P B C N
;
_chemical_formula_sum "Si O2"
_cell_formula_units_Z 60
_cell_length_a 17.422246
_cell_length_b 19.405877
_cell_length_c 9.196623
_cell_angle_alpha 90.000000
_cell_angle_beta 90.000000
_cell_angle_gamma 90.000000
_cell_volume 3109.322716
_symmetry_space_group_name_H-M "P B C N"
_symmetry_group_IT_number 60
_symmetry_cell_setting 'orthorhombic'
loop_
_space_group_symop_operation_xyz
x,y,z
1/2-x,1/2-y,1/2+z
1/2+x,1/2-y,-z
-x,y,1/2-z
-x,-y,-z
1/2+x,1/2+y,1/2-z
1/2-x,1/2+y,z
x,-y,1/2+z
loop_
_atom_site_type_symbol
_atom_site_label
_atom_site_fract_x
_atom_site_fract_y
_atom_site_fract_z
Si Si1 0.865292 0.494325 0.998519
Si Si2 0.500286 0.417870 0.975377
Si Si3 0.841712 0.740026 0.191362
Si Si4 0.295030 0.089341 0.260456
Si Si5 0.879143 0.133706 0.262384
Si Si6 0.815494 0.275933 0.346837
Si Si7 0.417739 0.903524 0.233158
Si Si8 0.000000 0.821413 0.250000
O O1 0.817427 0.546734 0.097457
O O2 0.900117 0.441892 0.115710
O O3 0.814503 0.453218 0.883171
O O4 0.921001 0.539352 0.895373
O O5 0.582099 0.394634 0.909224
O O6 0.435452 0.393931 0.861643
O O7 0.500000 0.500000 0.000000
O O8 0.485613 0.372737 0.116743
O O9 0.842930 0.660116 0.238903
O O10 0.770887 0.772158 0.283401
O O11 0.923471 0.776267 0.218863
O O12 0.819316 0.739127 0.019865
O O13 0.205762 0.106024 0.261470
O O14 0.866967 0.215869 0.272528
O O15 0.852999 0.349003 0.309384
O O16 0.500000 0.868155 0.250000
#
# Coordination Sequence:
#
# PCOD9457431 Si02
#       8
#     8   8   8   8   8   8   8   4
#     4  10  23  43  63 100 132 172 221 266 334 398
#     4  11  25  45  63 103 133 175 219 275 335 401
#     4  11  26  46  68 102 133 176 227 285 333 402
#     4  10  23  44  67  97 132 176 221 275 328 401
#     4  10  24  44  68  91 138 168 221 278 330 395
#     4  11  25  46  69  98 135 174 230 277 339 398
#     4  11  24  41  70  96 134 176 218 272 333 395
#     4  12  26  44  76  96 134 176 230 278 340 402
#
# _framework density 19.296806
#
# number of rings (size 3 to 8) (size 9 to 14) (size 15 to 20)
#    0.000    1.333    2.667    1.200   11.200    1.067 
#    9.600    0.000    0.000    0.000    0.000    0.000 
#    0.000    0.000    0.000    0.000    0.000    0.000 
#
# Total GULP energy -335023.615077 kJ/mol
# GULP energy per Si atom -5583.726918 kJ/mol
# Density = 1.925289 g / cm^3
# Si number density = 19.296806 Si / 1000 Ang^3
#
#
#
# Elastic Constant Matrix: (Units=GPa)
#
#
# Indices 1 2 3 4 5 6 
#
# 1 -100.8514 -192.4793 -157.3949 0.0000 0.0000 0.0000
# 2 -192.4793 -214.7953 -219.4104 0.0000 0.0000 0.0000
# 3 -157.3949 -219.4104 -80.7681 0.0000 0.0000 0.0000
# 4 0.0000 0.0000 0.0000 28.8512 0.0000 0.0000
# 5 0.0000 0.0000 0.0000 0.0000 -136.8008 0.0000
# 6 0.0000 0.0000 0.0000 0.0000 0.0000 5.1428
#
#
#
# Elastic Compliance Matrix: (Units=1/GPa)
#
#
# Indices 1 2 3 4 5 6 
#
# 1 0.016420 -0.010125 -0.004492 0.000000 0.000000 0.000000
# 2 -0.010125 0.008867 -0.004355 0.000000 0.000000 0.000000
# 3 -0.004492 -0.004355 0.008205 0.000000 0.000000 0.000000
# 4 0.000000 0.000000 0.000000 0.034661 0.000000 0.000000
# 5 0.000000 0.000000 0.000000 0.000000 -0.007310 0.000000
# 6 0.000000 0.000000 0.000000 0.000000 0.000000 0.194448
#
#
# Mechanical properties :
#
#
# Convention : Reuss Voigt Hill
#
# Bulk Modulus (GPa) = -224.49148 -170.55381 -197.52264
# Shear Modulus (GPa) = 17.13783 -9.03672 4.05056
#
# Velocity S-wave (km/s) = 2.98336 -2.16637 1.45039
# Velocity P-wave (km/s) = 10.23335 9.73827 9.98888
#
# Compressibility (1/GPa) = -0.00445451
#
# Stress axis : x y z
#
# Youngs Moduli (GPa) = 60.90044 112.78046 121.88233
#
# Poissons Ratio (x) = 1.14195 0.54753
# Poissons Ratio (y) = 0.61664 0.53084
# Poissons Ratio (z) = 0.27358 0.49120
#
# Static dielectric constant tensor:
#      x y z
#    x 1.622870 0.000000 0.000000 
#    y 0.000000 1.663510 0.000000 
#    z 0.000000 0.000000 1.626300 
# 
# From -- ./inp_files/6922.got.cif
#   From: 2010.05.17/outbox.cif.g08.bks.cpg/sg60_4_cif.got.tgz:6922.got - 2010.06.03 14:59:27.
