data_PCOD9457298
_publ_section_title
;
Structure prediction by ZEFSAII (Michael W. Deem and Ramdas Pophale) SiO2 
 PCOD9457298
Probable space group: P B C N
;
_chemical_formula_sum "Si O2"
_cell_formula_units_Z 40
_cell_length_a 8.497853
_cell_length_b 10.911710
_cell_length_c 18.379787
_cell_angle_alpha 90.000000
_cell_angle_beta 90.000000
_cell_angle_gamma 90.000000
_cell_volume 1704.286106
_symmetry_space_group_name_H-M "P B C N"
_symmetry_group_IT_number 60
_symmetry_cell_setting 'orthorhombic'
loop_
_space_group_symop_operation_xyz
x,y,z
1/2-x,1/2-y,1/2+z
1/2+x,1/2-y,-z
-x,y,1/2-z
-x,-y,-z
1/2+x,1/2+y,1/2-z
1/2-x,1/2+y,z
x,-y,1/2+z
loop_
_atom_site_type_symbol
_atom_site_label
_atom_site_fract_x
_atom_site_fract_y
_atom_site_fract_z
Si Si1 0.942549 0.766489 0.910462
Si Si2 0.576443 0.770121 0.927067
Si Si3 0.549463 0.522616 0.583005
Si Si4 0.665452 0.889700 0.165890
Si Si5 0.636302 0.845628 0.695743
O O1 0.759657 0.798563 0.919605
O O2 0.993087 0.653115 0.859809
O O3 0.024866 0.890923 0.881443
O O4 0.017860 0.737317 0.989701
O O5 0.559416 0.633910 0.892437
O O6 0.450252 0.850314 0.883153
O O7 0.500000 0.500000 0.500000
O O8 0.723642 0.574230 0.596606
O O9 0.741530 0.765852 0.197822
O O10 0.680264 0.013432 0.212496
O O11 0.500000 0.809184 0.750000
#
# Coordination Sequence:
#
# PCOD9457298 Si02
#       5
#     8   8   8   8   8
#     4  11  21  39  67 102 135 173 219 277 350 388
#     4  10  23  38  65 101 136 176 217 281 330 411
#     4   9  19  36  60  96 135 166 214 265 337 396
#     4  11  23  45  70  94 134 178 220 285 329 398
#     4  11  26  48  68  96 135 178 233 269 331 399
#
# _framework density 23.470237000000001
#
# number of rings (size 3 to 8) (size 9 to 14) (size 15 to 20)
#    0.000    1.600    2.000    3.600    5.600    2.400 
#    3.600    1.000    0.000    0.000    0.000    0.000 
#    0.000    0.000    0.000    0.000    0.000    0.000 
#
# Total GULP energy -223100.438230 kJ/mol
# GULP energy per Si atom -5577.510956 kJ/mol
# Density = 2.341682 g / cm^3
# Si number density = 23.470237 Si / 1000 Ang^3
#
#
#
# Elastic Constant Matrix: (Units=GPa)
#
#
# Indices 1 2 3 4 5 6 
#
# 1 64.8153 19.3080 -3.9288 0.0000 0.0000 0.0000
# 2 19.3080 146.9553 15.2549 0.0000 0.0000 0.0000
# 3 -3.9288 15.2549 13.6167 0.0000 0.0000 0.0000
# 4 0.0000 0.0000 0.0000 15.9176 0.0000 0.0000
# 5 0.0000 0.0000 0.0000 0.0000 27.8392 0.0000
# 6 0.0000 0.0000 0.0000 0.0000 0.0000 20.2761
#
#
#
# Elastic Compliance Matrix: (Units=1/GPa)
#
#
# Indices 1 2 3 4 5 6 
#
# 1 0.016848 -0.003076 0.008307 0.000000 0.000000 0.000000
# 2 -0.003076 0.008262 -0.010143 0.000000 0.000000 0.000000
# 3 0.008307 -0.010143 0.087200 0.000000 0.000000 0.000000
# 4 0.000000 0.000000 0.000000 0.062823 0.000000 0.000000
# 5 0.000000 0.000000 0.000000 0.000000 0.035921 0.000000
# 6 0.000000 0.000000 0.000000 0.000000 0.000000 0.049319
#
#
# Mechanical properties :
#
#
# Convention : Reuss Voigt Hill
#
# Bulk Modulus (GPa) = 9.75748 31.85063 20.80406
# Shear Modulus (GPa) = 16.42796 25.79013 21.10904
#
# Velocity S-wave (km/s) = 2.64852 3.31848 3.00225
# Velocity P-wave (km/s) = 3.67686 5.31819 4.57179
#
# Compressibility (1/GPa) = 0.10248550
#
# Stress axis : x y z
#
# Youngs Moduli (GPa) = 59.35310 121.03780 11.46795
#
# Poissons Ratio (x) = 0.37231 -0.09527
# Poissons Ratio (y) = 0.18257 0.11632
# Poissons Ratio (z) = -0.49306 1.22773
#
# Static dielectric constant tensor:
#      x y z
#    x 1.912490 0.000000 0.000000 
#    y 0.000000 1.964530 0.000000 
#    z 0.000000 0.000000 2.236650 
# 
# From -- ./inp_files/19047.got.cif
#   From: 2010.05.17/outbox.cif.g08.bks.cpg/sg60_10_cif.got.tgz:19047.got - 2010.06.03 14:59:27.
