data_PCOD9457539
_publ_section_title
;
Structure prediction by ZEFSAII (Michael W. Deem and Ramdas Pophale) SiO2 
 PCOD9457539
Probable space group: P B C N
;
_chemical_formula_sum "Si O2"
_cell_formula_units_Z 56
_cell_length_a 12.381296
_cell_length_b 20.202680
_cell_length_c 9.646469
_cell_angle_alpha 90.000000
_cell_angle_beta 90.000000
_cell_angle_gamma 90.000000
_cell_volume 2412.923006
_symmetry_space_group_name_H-M "P B C N"
_symmetry_group_IT_number 60
_symmetry_cell_setting 'orthorhombic'
loop_
_space_group_symop_operation_xyz
x,y,z
1/2-x,1/2-y,1/2+z
1/2+x,1/2-y,-z
-x,y,1/2-z
-x,-y,-z
1/2+x,1/2+y,1/2-z
1/2-x,1/2+y,z
x,-y,1/2+z
loop_
_atom_site_type_symbol
_atom_site_label
_atom_site_fract_x
_atom_site_fract_y
_atom_site_fract_z
Si Si1 0.078885 0.013688 0.871989
Si Si2 0.191184 0.907507 0.017528
Si Si3 0.939194 0.338834 0.106849
Si Si4 0.496838 0.685774 0.411697
Si Si5 0.205502 0.130520 0.977270
Si Si6 0.090403 0.426933 0.943192
Si Si7 0.309761 0.981541 0.663340
O O1 0.126416 0.085677 0.886383
O O2 0.000000 0.001470 0.750000
O O3 0.171885 0.960199 0.892455
O O4 0.219208 0.042140 0.646820
O O5 0.307472 0.877586 0.981031
O O6 0.089979 0.858074 0.001485
O O7 0.000000 0.000000 0.000000
O O8 0.960206 0.261470 0.085146
O O9 0.000000 0.359014 0.250000
O O10 0.810260 0.348128 0.108022
O O11 0.988014 0.382460 0.981170
O O12 0.500000 0.662697 0.250000
O O13 0.621087 0.682571 0.461808
O O14 0.250242 0.081712 0.097175
O O15 0.119839 0.459464 0.795626
O O16 0.105511 0.485704 0.055113
#
# Coordination Sequence:
#
# PCOD9457539 Si02
#       7
#     8   8   8   8   8   8   8
#     4  11  23  38  67 110 147 180 237 313 389 443
#     4   9  21  35  75 102 150 185 250 307 391 446
#     4  11  29  49  71 106 158 212 262 310 386 481
#     4  11  23  46  76 109 149 206 262 330 384 468
#     4  11  25  44  73 105 150 190 260 310 396 457
#     4  10  23  44  73 108 153 195 256 311 398 460
#     4   9  23  40  74 114 143 196 243 324 395 463
#
# _framework density 23.208366999999999
#
# number of rings (size 3 to 8) (size 9 to 14) (size 15 to 20)
#    0.857    0.857    1.429    1.286    8.000    2.286 
#    0.000    0.000    0.000    0.000    0.000    0.000 
#    0.000    0.000    0.000    0.000    0.000    0.000 
#
# Total GULP energy -312259.487820 kJ/mol
# GULP energy per Si atom -5576.062282 kJ/mol
# Density = 2.315554 g / cm^3
# Si number density = 23.208367 Si / 1000 Ang^3
#
#
#
# Elastic Constant Matrix: (Units=GPa)
#
#
# Indices 1 2 3 4 5 6 
#
# 1 157.4975 37.6693 21.0583 0.0000 0.0000 0.0000
# 2 37.6693 98.3014 30.5629 0.0000 0.0000 0.0000
# 3 21.0583 30.5629 118.6547 0.0000 0.0000 0.0000
# 4 0.0000 0.0000 0.0000 21.8657 0.0000 0.0000
# 5 0.0000 0.0000 0.0000 0.0000 22.8916 0.0000
# 6 0.0000 0.0000 0.0000 0.0000 0.0000 42.6281
#
#
#
# Elastic Compliance Matrix: (Units=1/GPa)
#
#
# Indices 1 2 3 4 5 6 
#
# 1 0.007029 -0.002506 -0.000602 0.000000 0.000000 0.000000
# 2 -0.002506 0.011952 -0.002634 0.000000 0.000000 0.000000
# 3 -0.000602 -0.002634 0.009213 0.000000 0.000000 0.000000
# 4 0.000000 0.000000 0.000000 0.045734 0.000000 0.000000
# 5 0.000000 0.000000 0.000000 0.000000 0.043684 0.000000
# 6 0.000000 0.000000 0.000000 0.000000 0.000000 0.023459
#
#
# Mechanical properties :
#
#
# Convention : Reuss Voigt Hill
#
# Bulk Modulus (GPa) = 59.84396 61.44828 60.64612
# Shear Modulus (GPa) = 31.62050 36.48798 34.05424
#
# Velocity S-wave (km/s) = 3.69516 3.96939 3.83472
# Velocity P-wave (km/s) = 6.63680 6.89509 6.76718
#
# Compressibility (1/GPa) = 0.01671013
#
# Stress axis : x y z
#
# Youngs Moduli (GPa) = 142.26222 83.66690 108.54174
#
# Poissons Ratio (x) = 0.20971 0.06533
# Poissons Ratio (y) = 0.35658 0.28587
# Poissons Ratio (z) = 0.08563 0.22036
#
# Static dielectric constant tensor:
#      x y z
#    x 2.149170 0.000000 0.000000 
#    y 0.000000 1.828090 0.000000 
#    z 0.000000 0.000000 2.174210 
# 
# From -- ./inp_files/11183.got.cif
#   From: 2010.05.17/outbox.cif.g08.bks.cpg/sg60_6_cif.got.tgz:11183.got - 2010.06.03 14:59:27.
