data_PCOD9457386
_publ_section_title
;
Structure prediction by ZEFSAII (Michael W. Deem and Ramdas Pophale) SiO2 
 PCOD9457386
Probable space group: P B C N
;
_chemical_formula_sum "Si O2"
_cell_formula_units_Z 24
_cell_length_a 5.774300
_cell_length_b 8.930307
_cell_length_c 14.635310
_cell_angle_alpha 90.000000
_cell_angle_beta 90.000000
_cell_angle_gamma 90.000000
_cell_volume 754.688372
_symmetry_space_group_name_H-M "P B C N"
_symmetry_group_IT_number 60
_symmetry_cell_setting 'orthorhombic'
loop_
_space_group_symop_operation_xyz
x,y,z
1/2-x,1/2-y,1/2+z
1/2+x,1/2-y,-z
-x,y,1/2-z
-x,-y,-z
1/2+x,1/2+y,1/2-z
1/2-x,1/2+y,z
x,-y,1/2+z
loop_
_atom_site_type_symbol
_atom_site_label
_atom_site_fract_x
_atom_site_fract_y
_atom_site_fract_z
Si Si1 0.804851 0.890318 0.960010
Si Si2 0.235056 0.601882 0.235067
Si Si3 0.981279 0.600126 0.604836
O O1 0.706483 0.979224 0.865569
O O2 0.846842 0.744714 0.895605
O O3 0.726519 0.805287 0.052176
O O4 0.000000 0.000000 0.000000
O O5 0.500000 0.643232 0.250000
O O6 0.000000 0.698929 0.250000
O O7 0.823401 0.474630 0.187086
O O8 0.000000 0.500000 0.500000
#
# Coordination Sequence:
#
# PCOD9457386 Si02
#       3
#     8   8   8
#     4   9  21  41  62  97 129 174 223 279 327 396
#     4  10  23  42  65  96 136 176 219 274 340 408
#     4   9  21  41  62  97 129 174 223 279 327 396
#
# _framework density 31.801207000000002
#
# number of rings (size 3 to 8) (size 9 to 14) (size 15 to 20)
#    2.000    0.667    0.000    0.000    0.000    9.333 
#    0.000    0.000    0.000    0.000    0.000    0.000 
#    0.000    0.000    0.000    0.000    0.000    0.000 
#
# Total GULP energy -133618.863736 kJ/mol
# GULP energy per Si atom -5567.452656 kJ/mol
# Density = 3.172883 g / cm^3
# Si number density = 31.801207 Si / 1000 Ang^3
#
#
#
# Elastic Constant Matrix: (Units=GPa)
#
#
# Indices 1 2 3 4 5 6 
#
# 1 198.4548 6.5813 61.6669 0.0000 0.0000 0.0000
# 2 6.5813 176.4988 -0.9777 0.0000 0.0000 0.0000
# 3 61.6669 -0.9777 223.6361 0.0000 0.0000 0.0000
# 4 0.0000 0.0000 0.0000 9.5733 0.0000 0.0000
# 5 0.0000 0.0000 0.0000 0.0000 101.4972 0.0000
# 6 0.0000 0.0000 0.0000 0.0000 0.0000 -1.5798
#
#
#
# Elastic Compliance Matrix: (Units=1/GPa)
#
#
# Indices 1 2 3 4 5 6 
#
# 1 0.005519 -0.000214 -0.001523 0.000000 0.000000 0.000000
# 2 -0.000214 0.005674 0.000084 0.000000 0.000000 0.000000
# 3 -0.001523 0.000084 0.004892 0.000000 0.000000 0.000000
# 4 0.000000 0.000000 0.000000 0.104457 0.000000 0.000000
# 5 0.000000 0.000000 0.000000 0.000000 0.009852 0.000000
# 6 0.000000 0.000000 0.000000 0.000000 0.000000 -0.632981
#
#
# Mechanical properties :
#
#
# Convention : Reuss Voigt Hill
#
# Bulk Modulus (GPa) = 78.25411 81.45897 79.85654
# Shear Modulus (GPa) = -10.10060 57.31941 23.60940
#
# Velocity S-wave (km/s) = -1.78411 4.25011 2.72767
# Velocity P-wave (km/s) = 4.51847 7.05374 5.92334
#
# Compressibility (1/GPa) = 0.01277888
#
# Stress axis : x y z
#
# Youngs Moduli (GPa) = 181.18437 176.23586 204.42220
#
# Poissons Ratio (x) = 0.03776 0.31130
# Poissons Ratio (y) = 0.03882 -0.01715
# Poissons Ratio (z) = 0.27592 -0.01478
#
# Static dielectric constant tensor:
#      x y z
#    x 1.445150 0.000000 0.000000 
#    y 0.000000 1.969530 0.000000 
#    z 0.000000 0.000000 1.622710 
# 
# From -- ./inp_files/18312.got.cif
#   From: 2010.05.17/outbox.cif.g08.bks.cpg/sg60_10_cif.got.tgz:18312.got - 2010.06.03 14:59:27.
