data_PCOD9457193
_publ_section_title
;
Structure prediction by ZEFSAII (Michael W. Deem and Ramdas Pophale) SiO2 
 PCOD9457193
Probable space group: P B C N
;
_chemical_formula_sum "Si O2"
_cell_formula_units_Z 24
_cell_length_a 10.810786
_cell_length_b 12.309516
_cell_length_c 7.102233
_cell_angle_alpha 90.000000
_cell_angle_beta 90.000000
_cell_angle_gamma 90.000000
_cell_volume 945.133515
_symmetry_space_group_name_H-M "P B C N"
_symmetry_group_IT_number 60
_symmetry_cell_setting 'orthorhombic'
loop_
_space_group_symop_operation_xyz
x,y,z
1/2-x,1/2-y,1/2+z
1/2+x,1/2-y,-z
-x,y,1/2-z
-x,-y,-z
1/2+x,1/2+y,1/2-z
1/2-x,1/2+y,z
x,-y,1/2+z
loop_
_atom_site_type_symbol
_atom_site_label
_atom_site_fract_x
_atom_site_fract_y
_atom_site_fract_z
Si Si1 0.568849 0.111648 0.948446
Si Si2 0.409905 0.649315 0.986717
Si Si3 0.327456 0.566655 0.370073
O O1 0.500000 0.140086 0.750000
O O2 0.569071 0.225720 0.060191
O O3 0.710689 0.080940 0.995251
O O4 0.500000 0.000000 0.000000
O O5 0.323519 0.632809 0.173477
O O6 0.545634 0.608206 0.040361
O O7 0.351192 0.562603 0.844894
#
# Coordination Sequence:
#
# PCOD9457193 Si02
#       3
#     8   8   8
#     4  12  26  45  69 111 153 192 247 309 379 440
#     4  10  23  46  72 105 137 197 249 298 374 435
#     4  10  22  44  74  97 145 189 249 303 363 442
#
# _framework density 25.393236999999999
#
# number of rings (size 3 to 8) (size 9 to 14) (size 15 to 20)
#    0.000    1.333    3.333    2.000    4.667    2.667 
#   12.000    0.000    0.000    0.000    0.000    0.000 
#    0.000    0.000    0.000    0.000    0.000    0.000 
#
# Total GULP energy -133782.544758 kJ/mol
# GULP energy per Si atom -5574.272698 kJ/mol
# Density = 2.533544 g / cm^3
# Si number density = 25.393237 Si / 1000 Ang^3
#
#
#
# Elastic Constant Matrix: (Units=GPa)
#
#
# Indices 1 2 3 4 5 6 
#
# 1 154.1998 45.7137 57.6097 0.0000 0.0000 0.0000
# 2 45.7137 247.2265 20.3244 0.0000 0.0000 0.0000
# 3 57.6097 20.3244 94.7227 0.0000 0.0000 0.0000
# 4 0.0000 0.0000 0.0000 19.7084 0.0000 0.0000
# 5 0.0000 0.0000 0.0000 0.0000 33.4806 0.0000
# 6 0.0000 0.0000 0.0000 0.0000 0.0000 21.7409
#
#
#
# Elastic Compliance Matrix: (Units=1/GPa)
#
#
# Indices 1 2 3 4 5 6 
#
# 1 0.008727 -0.001199 -0.005051 0.000000 0.000000 0.000000
# 2 -0.001199 0.004282 -0.000190 0.000000 0.000000 0.000000
# 3 -0.005051 -0.000190 0.013670 0.000000 0.000000 0.000000
# 4 0.000000 0.000000 0.000000 0.050740 0.000000 0.000000
# 5 0.000000 0.000000 0.000000 0.000000 0.029868 0.000000
# 6 0.000000 0.000000 0.000000 0.000000 0.000000 0.045996
#
#
# Mechanical properties :
#
#
# Convention : Reuss Voigt Hill
#
# Bulk Modulus (GPa) = 72.45916 82.60497 77.53206
# Shear Modulus (GPa) = 29.28052 39.81938 34.54995
#
# Velocity S-wave (km/s) = 3.39939 3.96423 3.69263
# Velocity P-wave (km/s) = 6.63360 7.31809 6.98423
#
# Compressibility (1/GPa) = 0.01380088
#
# Stress axis : x y z
#
# Youngs Moduli (GPa) = 114.58161 233.53037 73.15433
#
# Poissons Ratio (x) = 0.27989 0.36949
# Poissons Ratio (y) = 0.13733 0.01389
# Poissons Ratio (z) = 0.57873 0.04434
#
# Static dielectric constant tensor:
#      x y z
#    x 1.862740 0.000000 0.000000 
#    y 0.000000 2.040370 0.000000 
#    z 0.000000 0.000000 2.156060 
# 
# From -- ./inp_files/4386.got.cif
#   From: 2010.05.17/outbox.cif.g08.bks.cpg/sg60_3_cif.got.tgz:4386.got - 2010.06.03 14:59:27.
