data_PCOD9457433
_publ_section_title
;
Structure prediction by ZEFSAII (Michael W. Deem and Ramdas Pophale) SiO2 
 PCOD9457433
Probable space group: P B C N
;
_chemical_formula_sum "Si O2"
_cell_formula_units_Z 40
_cell_length_a 23.647564
_cell_length_b 5.129687
_cell_length_c 12.367057
_cell_angle_alpha 90.000000
_cell_angle_beta 90.000000
_cell_angle_gamma 90.000000
_cell_volume 1500.180923
_symmetry_space_group_name_H-M "P B C N"
_symmetry_group_IT_number 60
_symmetry_cell_setting 'orthorhombic'
loop_
_space_group_symop_operation_xyz
x,y,z
1/2-x,1/2-y,1/2+z
1/2+x,1/2-y,-z
-x,y,1/2-z
-x,-y,-z
1/2+x,1/2+y,1/2-z
1/2-x,1/2+y,z
x,-y,1/2+z
loop_
_atom_site_type_symbol
_atom_site_label
_atom_site_fract_x
_atom_site_fract_y
_atom_site_fract_z
Si Si1 0.286559 0.826643 0.550962
Si Si2 0.378132 0.463087 0.188669
Si Si3 0.045877 0.361505 0.844921
Si Si4 0.994705 0.128641 0.385197
Si Si5 0.286665 0.182054 0.796215
O O1 0.235744 0.618746 0.572130
O O2 0.341059 0.719388 0.611566
O O3 0.298181 0.810758 0.423751
O O4 0.401400 0.270847 0.284554
O O5 0.426704 0.607645 0.119068
O O6 0.340735 0.691719 0.240200
O O7 0.000000 0.401121 0.750000
O O8 0.039843 0.637926 0.903451
O O9 0.020709 0.146315 0.926577
O O10 0.000000 0.095086 0.250000
O O11 0.264183 0.890312 0.774897
#
# Coordination Sequence:
#
# PCOD9457433 Si02
#       5
#     8   8   8   8   8
#     4  10  23  43  66 104 140 172 236 291 351 436
#     4  11  24  43  76  97 139 197 230 290 376 423
#     4  10  23  43  63  97 134 176 230 291 340 422
#     4  11  25  44  65  98 140 179 241 300 345 423
#     4  10  23  43  67 104 140 178 234 299 351 435
#
# _framework density 26.663450000000001
#
# number of rings (size 3 to 8) (size 9 to 14) (size 15 to 20)
#    0.000    1.600    0.000    3.600    2.800    9.600 
#    7.200    0.000    0.000    0.000    0.000    0.000 
#    0.000    0.000    0.000    0.000    0.000    0.000 
#
# Total GULP energy -223540.206189 kJ/mol
# GULP energy per Si atom -5588.505155 kJ/mol
# Density = 2.660276 g / cm^3
# Si number density = 26.663450 Si / 1000 Ang^3
#
#
#
# Elastic Constant Matrix: (Units=GPa)
#
#
# Indices 1 2 3 4 5 6 
#
# 1 143.8652 47.4043 45.2129 0.0000 0.0000 0.0000
# 2 47.4043 201.7061 19.4018 0.0000 0.0000 0.0000
# 3 45.2129 19.4018 40.3221 0.0000 0.0000 0.0000
# 4 0.0000 0.0000 0.0000 73.0119 0.0000 0.0000
# 5 0.0000 0.0000 0.0000 0.0000 55.4782 0.0000
# 6 0.0000 0.0000 0.0000 0.0000 0.0000 662.6924
#
#
#
# Elastic Compliance Matrix: (Units=1/GPa)
#
#
# Indices 1 2 3 4 5 6 
#
# 1 0.011142 -0.001486 -0.011779 0.000000 0.000000 0.000000
# 2 -0.001486 0.005396 -0.000931 0.000000 0.000000 0.000000
# 3 -0.011779 -0.000931 0.038456 0.000000 0.000000 0.000000
# 4 0.000000 0.000000 0.000000 0.013696 0.000000 0.000000
# 5 0.000000 0.000000 0.000000 0.000000 0.018025 0.000000
# 6 0.000000 0.000000 0.000000 0.000000 0.000000 0.001509
#
#
# Mechanical properties :
#
#
# Convention : Reuss Voigt Hill
#
# Bulk Modulus (GPa) = 37.58855 67.77015 52.67935
# Shear Modulus (GPa) = 39.84591 176.49479 108.17035
#
# Velocity S-wave (km/s) = 3.86994 8.14477 6.37627
# Velocity P-wave (km/s) = 5.83923 10.67341 8.60286
#
# Compressibility (1/GPa) = 0.02660385
#
# Stress axis : x y z
#
# Youngs Moduli (GPa) = 89.74851 185.30926 26.00390
#
# Poissons Ratio (x) = 0.27530 0.30630
# Poissons Ratio (y) = 0.13333 0.02420
# Poissons Ratio (z) = 1.05714 0.17248
#
# Static dielectric constant tensor:
#      x y z
#    x 2.070510 0.000000 0.000000 
#    y 0.000000 2.175890 0.000000 
#    z 0.000000 0.000000 0.234520 
# 
# From -- ./inp_files/17832.got.cif
#   From: 2010.05.17/outbox.cif.g08.bks.cpg/sg60_9_cif.got.tgz:17832.got - 2010.06.03 14:59:27.
