data_PCOD9457275
_publ_section_title
;
Structure prediction by ZEFSAII (Michael W. Deem and Ramdas Pophale) SiO2 
 PCOD9457275
Probable space group: P B C N
;
_chemical_formula_sum "Si O2"
_cell_formula_units_Z 32
_cell_length_a 10.954228
_cell_length_b 9.065574
_cell_length_c 13.584491
_cell_angle_alpha 90.000000
_cell_angle_beta 90.000000
_cell_angle_gamma 90.000000
_cell_volume 1349.026415
_symmetry_space_group_name_H-M "P B C N"
_symmetry_group_IT_number 60
_symmetry_cell_setting 'orthorhombic'
loop_
_space_group_symop_operation_xyz
x,y,z
1/2-x,1/2-y,1/2+z
1/2+x,1/2-y,-z
-x,y,1/2-z
-x,-y,-z
1/2+x,1/2+y,1/2-z
1/2-x,1/2+y,z
x,-y,1/2+z
loop_
_atom_site_type_symbol
_atom_site_label
_atom_site_fract_x
_atom_site_fract_y
_atom_site_fract_z
Si Si1 0.119707 0.204293 0.313936
Si Si2 0.796214 0.920543 0.502941
Si Si3 0.689894 0.159172 0.360050
Si Si4 0.938290 0.527838 0.105012
O O1 0.109032 0.096226 0.408483
O O2 0.230822 0.175375 0.238242
O O3 0.115090 0.374879 0.351646
O O4 0.000000 0.183689 0.250000
O O5 0.829531 0.812804 0.414521
O O6 0.675913 0.873932 0.568202
O O7 0.761670 0.067247 0.444461
O O8 0.557986 0.087987 0.339184
O O9 0.000000 0.500000 0.000000
#
# Coordination Sequence:
#
# PCOD9457275 Si02
#       4
#     8   8   8   8
#     4  12  26  45  76 107 149 203 258 310 386 463
#     4  11  24  46  72 111 148 196 257 316 380 455
#     4  11  26  45  79 109 150 205 252 315 388 453
#     4  10  22  48  74 102 149 201 242 319 384 443
#
# _framework density 23.720811999999999
#
# number of rings (size 3 to 8) (size 9 to 14) (size 15 to 20)
#    0.000    1.000    5.000    3.000    7.000    1.000 
#    0.000    0.000    0.000    0.000    0.000    0.000 
#    0.000    0.000    0.000    0.000    0.000    0.000 
#
# Total GULP energy -178527.115044 kJ/mol
# GULP energy per Si atom -5578.972345 kJ/mol
# Density = 2.366682 g / cm^3
# Si number density = 23.720812 Si / 1000 Ang^3
#
#
#
# Elastic Constant Matrix: (Units=GPa)
#
#
# Indices 1 2 3 4 5 6 
#
# 1 49.2082 11.3768 40.6107 0.0000 0.0000 0.0000
# 2 11.3768 45.5933 13.2766 0.0000 0.0000 0.0000
# 3 40.6107 13.2766 159.9171 0.0000 0.0000 0.0000
# 4 0.0000 0.0000 0.0000 41.2671 0.0000 0.0000
# 5 0.0000 0.0000 0.0000 0.0000 65.9952 0.0000
# 6 0.0000 0.0000 0.0000 0.0000 0.0000 22.3808
#
#
#
# Elastic Compliance Matrix: (Units=1/GPa)
#
#
# Indices 1 2 3 4 5 6 
#
# 1 0.026699 -0.004804 -0.006381 0.000000 0.000000 0.000000
# 2 -0.004804 0.023341 -0.000718 0.000000 0.000000 0.000000
# 3 -0.006381 -0.000718 0.007933 0.000000 0.000000 0.000000
# 4 0.000000 0.000000 0.000000 0.024232 0.000000 0.000000
# 5 0.000000 0.000000 0.000000 0.000000 0.015153 0.000000
# 6 0.000000 0.000000 0.000000 0.000000 0.000000 0.044681
#
#
# Mechanical properties :
#
#
# Convention : Reuss Voigt Hill
#
# Bulk Modulus (GPa) = 29.26809 42.80518 36.03663
# Shear Modulus (GPa) = 28.21126 38.55892 33.38509
#
# Velocity S-wave (km/s) = 3.45237 4.03616 3.75563
# Velocity P-wave (km/s) = 5.31575 6.30915 5.83363
#
# Compressibility (1/GPa) = 0.03416691
#
# Stress axis : x y z
#
# Youngs Moduli (GPa) = 37.45479 42.84342 126.04999
#
# Poissons Ratio (x) = 0.20582 0.80436
# Poissons Ratio (y) = 0.17993 0.09048
# Poissons Ratio (z) = 0.23901 0.03075
#
# Static dielectric constant tensor:
#      x y z
#    x 2.025320 0.000000 0.000000 
#    y 0.000000 2.042880 0.000000 
#    z 0.000000 0.000000 2.181660 
# 
# From -- ./inp_files/15596.got.cif
#   From: 2010.05.17/outbox.cif.g08.bks.cpg/sg60_8_cif.got.tgz:15596.got - 2010.06.03 14:59:27.
