data_PCOD9457434
_publ_section_title
;
Structure prediction by ZEFSAII (Michael W. Deem and Ramdas Pophale) SiO2 
 PCOD9457434
Probable space group: P B C N
;
_chemical_formula_sum "Si O2"
_cell_formula_units_Z 60
_cell_length_a 22.451431
_cell_length_b 5.249440
_cell_length_c 22.755305
_cell_angle_alpha 90.000000
_cell_angle_beta 90.000000
_cell_angle_gamma 90.000000
_cell_volume 2681.881993
_symmetry_space_group_name_H-M "P B C N"
_symmetry_group_IT_number 60
_symmetry_cell_setting 'orthorhombic'
loop_
_space_group_symop_operation_xyz
x,y,z
1/2-x,1/2-y,1/2+z
1/2+x,1/2-y,-z
-x,y,1/2-z
-x,-y,-z
1/2+x,1/2+y,1/2-z
1/2-x,1/2+y,z
x,-y,1/2+z
loop_
_atom_site_type_symbol
_atom_site_label
_atom_site_fract_x
_atom_site_fract_y
_atom_site_fract_z
Si Si1 0.500000 0.874979 0.250000
Si Si2 0.090903 0.651271 0.955223
Si Si3 0.048974 0.802558 0.112160
Si Si4 0.548502 0.786396 0.461390
Si Si5 0.285056 0.245797 0.163839
Si Si6 0.392805 0.743222 0.735572
Si Si7 0.938661 0.059237 0.157652
Si Si8 0.209342 0.725971 0.027883
O O1 0.490155 0.711242 0.307738
O O2 0.559236 0.039574 0.252138
O O3 0.092632 0.753019 0.888511
O O4 0.022775 0.738189 0.972200
O O5 0.084113 0.360882 0.979785
O O6 0.150820 0.739228 0.987562
O O7 0.068037 0.029060 0.069099
O O8 0.978353 0.840858 0.126416
O O9 0.057124 0.524173 0.083675
O O10 0.084015 0.851376 0.172312
O O11 0.268475 0.542944 0.167852
O O12 0.327563 0.171915 0.217708
O O13 0.308717 0.211547 0.097061
O O14 0.397755 0.554720 0.790752
O O15 0.248430 0.470735 0.017994
#
# Coordination Sequence:
#
# PCOD9457434 Si02
#       8
#     4   8   8   8   8   8   8   8
#     4  12  22  44  62 106 134 184 218 272 344 416
#     4  10  23  43  63  98 135 173 220 272 339 410
#     4  11  21  40  63  97 132 173 213 266 336 400
#     4  10  24  38  65  98 135 168 213 277 340 405
#     4  10  25  45  69  97 125 172 232 287 333 384
#     4  12  23  39  69  95 138 179 224 283 336 409
#     4  11  24  38  62  98 140 176 217 267 335 418
#     4  10  23  45  69  94 127 171 226 280 331 388
#
# _framework density 22.372349
#
# number of rings (size 3 to 8) (size 9 to 14) (size 15 to 20)
#    0.000    1.333    2.667    2.400    1.867   12.267 
#    0.000    1.333    0.000    0.000    0.000    0.000 
#    0.000    0.000    0.000    0.000    0.000    0.000 
#
# Total GULP energy -334988.845271 kJ/mol
# GULP energy per Si atom -5583.147421 kJ/mol
# Density = 2.232143 g / cm^3
# Si number density = 22.372349 Si / 1000 Ang^3
#
#
#
# Elastic Constant Matrix: (Units=GPa)
#
#
# Indices 1 2 3 4 5 6 
#
# 1 80.7424 31.5473 52.8558 0.0000 0.0000 0.0000
# 2 31.5473 114.1955 53.1900 0.0000 0.0000 0.0000
# 3 52.8558 53.1900 135.4176 0.0000 0.0000 0.0000
# 4 0.0000 0.0000 0.0000 47.4229 0.0000 0.0000
# 5 0.0000 0.0000 0.0000 0.0000 50.1233 0.0000
# 6 0.0000 0.0000 0.0000 0.0000 0.0000 58.7844
#
#
#
# Elastic Compliance Matrix: (Units=1/GPa)
#
#
# Indices 1 2 3 4 5 6 
#
# 1 0.016988 -0.001964 -0.005859 0.000000 0.000000 0.000000
# 2 -0.001964 0.010945 -0.003532 0.000000 0.000000 0.000000
# 3 -0.005859 -0.003532 0.011059 0.000000 0.000000 0.000000
# 4 0.000000 0.000000 0.000000 0.021087 0.000000 0.000000
# 5 0.000000 0.000000 0.000000 0.000000 0.019951 0.000000
# 6 0.000000 0.000000 0.000000 0.000000 0.000000 0.017011
#
#
# Mechanical properties :
#
#
# Convention : Reuss Voigt Hill
#
# Bulk Modulus (GPa) = 61.42286 67.28241 64.35263
# Shear Modulus (GPa) = 39.94280 44.11693 42.02987
#
# Velocity S-wave (km/s) = 4.22994 4.44547 4.33904
# Velocity P-wave (km/s) = 7.16735 7.51590 7.34370
#
# Compressibility (1/GPa) = 0.01628058
#
# Stress axis : x y z
#
# Youngs Moduli (GPa) = 58.86490 91.36777 90.42376
#
# Poissons Ratio (x) = 0.17944 0.52982
# Poissons Ratio (y) = 0.11561 0.31941
# Poissons Ratio (z) = 0.34491 0.32275
#
# Static dielectric constant tensor:
#      x y z
#    x 1.729820 0.000000 0.000000 
#    y 0.000000 1.891930 0.000000 
#    z 0.000000 0.000000 1.891900 
# 
# From -- ./inp_files/24602.got.cif
#   From: 2010.05.17/outbox.cif.g08.bks.cpg/sg60_13_cif.got.tgz:24602.got - 2010.06.03 14:59:27.
