data_PCOD9457857
_publ_section_title
;
Structure prediction by ZEFSAII (Michael W. Deem and Ramdas Pophale) SiO2 
 PCOD9457857
Probable space group: P B C N
;
_chemical_formula_sum "Si O2"
_cell_formula_units_Z 48
_cell_length_a 5.032240
_cell_length_b 26.008705
_cell_length_c 15.012593
_cell_angle_alpha 90.000000
_cell_angle_beta 90.000000
_cell_angle_gamma 90.000000
_cell_volume 1964.878882
_symmetry_space_group_name_H-M "P B C N"
_symmetry_group_IT_number 60
_symmetry_cell_setting 'orthorhombic'
loop_
_space_group_symop_operation_xyz
x,y,z
1/2-x,1/2-y,1/2+z
1/2+x,1/2-y,-z
-x,y,1/2-z
-x,-y,-z
1/2+x,1/2+y,1/2-z
1/2-x,1/2+y,z
x,-y,1/2+z
loop_
_atom_site_type_symbol
_atom_site_label
_atom_site_fract_x
_atom_site_fract_y
_atom_site_fract_z
Si Si1 0.000000 0.012502 0.250000
Si Si2 0.000000 0.160550 0.750000
Si Si3 0.731053 0.766168 0.379571
Si Si4 0.357962 0.098827 0.337540
Si Si5 0.881220 0.925827 0.384543
Si Si6 0.737472 0.799328 0.580025
Si Si7 0.888280 0.557553 0.505972
O O1 0.190571 0.049468 0.306707
O O2 0.850259 0.973815 0.316965
O O3 0.787957 0.198928 0.794280
O O4 0.973436 0.120286 0.668506
O O5 0.759369 0.797360 0.472882
O O6 0.442923 0.741617 0.381445
O O7 0.947645 0.720508 0.390187
O O8 0.500000 0.119483 0.250000
O O9 0.197179 0.144824 0.382310
O O10 0.574281 0.082445 0.410082
O O11 0.089021 0.941229 0.460637
O O12 0.593159 0.914644 0.425714
O O13 0.000000 0.500000 0.500000
#
# Coordination Sequence:
#
# PCOD9457857 Si02
#       7
#     4   4   8   8   8   8   8
#     4  11  26  44  68 110 154 182 248 293 354 428
#     4  11  26  46  80 108 144 188 254 299 374 424
#     4  10  24  48  73 103 139 186 234 309 353 434
#     4  12  28  43  74 107 143 195 243 299 358 446
#     4  11  27  47  73 110 146 195 240 304 352 442
#     4  10  25  47  72 102 145 183 240 291 374 425
#     4  12  25  48  74 102 153 198 239 290 371 423
#
# _framework density 24.428988
#
# number of rings (size 3 to 8) (size 9 to 14) (size 15 to 20)
#    0.000    1.000    1.667    2.500    5.833    9.333 
#    0.000    0.000    0.000    0.000    0.000    0.000 
#    0.000    0.000    0.000    0.000    0.000    0.000 
#
# Total GULP energy -268853.157813 kJ/mol
# GULP energy per Si atom -5601.107454 kJ/mol
# Density = 2.437339 g / cm^3
# Si number density = 24.428988 Si / 1000 Ang^3
#
#
#
# Elastic Constant Matrix: (Units=GPa)
#
#
# Indices 1 2 3 4 5 6 
#
# 1 63.9436 -0.0438 24.9795 0.0000 0.0000 0.0000
# 2 -0.0438 104.7441 56.8724 0.0000 0.0000 0.0000
# 3 24.9795 56.8724 116.1090 0.0000 0.0000 0.0000
# 4 0.0000 0.0000 0.0000 13.5561 0.0000 0.0000
# 5 0.0000 0.0000 0.0000 0.0000 31.3461 0.0000
# 6 0.0000 0.0000 0.0000 0.0000 0.0000 3.1068
#
#
#
# Elastic Compliance Matrix: (Units=1/GPa)
#
#
# Indices 1 2 3 4 5 6 
#
# 1 0.017665 0.002821 -0.005182 0.000000 0.000000 0.000000
# 2 0.002821 0.013457 -0.007198 0.000000 0.000000 0.000000
# 3 -0.005182 -0.007198 0.013253 0.000000 0.000000 0.000000
# 4 0.000000 0.000000 0.000000 0.073767 0.000000 0.000000
# 5 0.000000 0.000000 0.000000 0.000000 0.031902 0.000000
# 6 0.000000 0.000000 0.000000 0.000000 0.000000 0.321879
#
#
# Mechanical properties :
#
#
# Convention : Reuss Voigt Hill
#
# Bulk Modulus (GPa) = 39.59391 49.82367 44.70879
# Shear Modulus (GPa) = 10.01079 23.13437 16.57258
#
# Velocity S-wave (km/s) = 2.02653 3.08068 2.60743
# Velocity P-wave (km/s) = 4.66033 5.75271 5.23509
#
# Compressibility (1/GPa) = 0.02525641
#
# Stress axis : x y z
#
# Youngs Moduli (GPa) = 56.60847 74.31256 75.45247
#
# Poissons Ratio (x) = -0.20965 0.39102
# Poissons Ratio (y) = -0.15970 0.54313
# Poissons Ratio (z) = 0.29336 0.53492
#
# Static dielectric constant tensor:
#      x y z
#    x 1.915680 0.000000 0.000000 
#    y 0.000000 1.960620 0.000000 
#    z 0.000000 0.000000 1.944950 
# 
# From -- ./inp_files/13986.got.cif
#   From: 2010.05.17/outbox.cif.g08.bks.cpg/sg60_7_cif.got.tgz:13986.got - 2010.06.03 14:59:27.
