data_PCOD9457084
_publ_section_title
;
Structure prediction by ZEFSAII (Michael W. Deem and Ramdas Pophale) SiO2 
 PCOD9457084
Probable space group: P B C N
;
_chemical_formula_sum "Si O2"
_cell_formula_units_Z 40
_cell_length_a 8.764045
_cell_length_b 19.028353
_cell_length_c 11.532503
_cell_angle_alpha 90.000000
_cell_angle_beta 90.000000
_cell_angle_gamma 90.000000
_cell_volume 1923.221807
_symmetry_space_group_name_H-M "P B C N"
_symmetry_group_IT_number 60
_symmetry_cell_setting 'orthorhombic'
loop_
_space_group_symop_operation_xyz
x,y,z
1/2-x,1/2-y,1/2+z
1/2+x,1/2-y,-z
-x,y,1/2-z
-x,-y,-z
1/2+x,1/2+y,1/2-z
1/2-x,1/2+y,z
x,-y,1/2+z
loop_
_atom_site_type_symbol
_atom_site_label
_atom_site_fract_x
_atom_site_fract_y
_atom_site_fract_z
Si Si1 0.737744 0.197825 0.897738
Si Si2 0.314703 0.362679 0.624669
Si Si3 0.500000 0.891559 0.250000
Si Si4 0.744886 0.546508 0.591637
Si Si5 0.678568 0.387797 0.612902
Si Si6 0.500000 0.374468 0.250000
O O1 0.717459 0.280901 0.895291
O O2 0.600110 0.158837 0.832085
O O3 0.888445 0.172768 0.828291
O O4 0.750107 0.169691 0.028296
O O5 0.238791 0.410078 0.526441
O O6 0.496351 0.376309 0.614480
O O7 0.267036 0.382139 0.754826
O O8 0.610239 0.938962 0.172268
O O9 0.716326 0.465159 0.566668
O O10 0.601627 0.577458 0.664787
#
# Coordination Sequence:
#
# PCOD9457084 Si02
#       6
#     8   8   4   8   8   4
#     4  11  25  44  69 102 140 183 227 285 341 404
#     4  11  25  42  72 102 136 175 234 282 337 414
#     4  10  26  44  68  96 148 174 232 288 342 390
#     4  11  24  45  70 100 137 185 229 284 338 411
#     4  11  25  44  72  99 135 180 234 277 347 411
#     4  10  22  42  74  96 138 188 234 270 342 410
#
# _framework density 20.798431999999998
#
# number of rings (size 3 to 8) (size 9 to 14) (size 15 to 20)
#    0.000    1.200    2.000    3.000   14.000    0.800 
#    0.000    0.000    0.000    0.000    0.000    0.000 
#    0.000    0.000    0.000    0.000    0.000    0.000 
#
# Total GULP energy -223988.103662 kJ/mol
# GULP energy per Si atom -5599.702592 kJ/mol
# Density = 2.075109 g / cm^3
# Si number density = 20.798432 Si / 1000 Ang^3
#
#
#
# Elastic Constant Matrix: (Units=GPa)
#
#
# Indices 1 2 3 4 5 6 
#
# 1 73.2917 12.5252 19.3694 0.0000 0.0000 0.0000
# 2 12.5252 96.7356 -14.9992 0.0000 0.0000 0.0000
# 3 19.3694 -14.9992 94.5781 0.0000 0.0000 0.0000
# 4 0.0000 0.0000 0.0000 31.4903 0.0000 0.0000
# 5 0.0000 0.0000 0.0000 0.0000 -76.2228 0.0000
# 6 0.0000 0.0000 0.0000 0.0000 0.0000 16.3152
#
#
#
# Elastic Compliance Matrix: (Units=1/GPa)
#
#
# Indices 1 2 3 4 5 6 
#
# 1 0.014982 -0.002476 -0.003461 0.000000 0.000000 0.000000
# 2 -0.002476 0.011007 0.002253 0.000000 0.000000 0.000000
# 3 -0.003461 0.002253 0.011639 0.000000 0.000000 0.000000
# 4 0.000000 0.000000 0.000000 0.031756 0.000000 0.000000
# 5 0.000000 0.000000 0.000000 0.000000 -0.013119 0.000000
# 6 0.000000 0.000000 0.000000 0.000000 0.000000 0.061293
#
#
# Mechanical properties :
#
#
# Convention : Reuss Voigt Hill
#
# Bulk Modulus (GPa) = 33.04752 33.15512 33.10132
# Shear Modulus (GPa) = 37.03329 10.83052 23.93191
#
# Velocity S-wave (km/s) = 4.22427 2.28444 3.39582
# Velocity P-wave (km/s) = 6.30211 4.78895 5.59690
#
# Compressibility (1/GPa) = 0.03025946
#
# Stress axis : x y z
#
# Youngs Moduli (GPa) = 66.74678 90.84778 85.91533
#
# Poissons Ratio (x) = 0.22498 0.29736
# Poissons Ratio (y) = 0.16530 -0.19355
# Poissons Ratio (z) = 0.23101 -0.20467
#
# Static dielectric constant tensor:
#      x y z
#    x 1.743570 0.000000 0.000000 
#    y 0.000000 1.676600 0.000000 
#    z 0.000000 0.000000 1.767980 
# 
# From -- ./inp_files/9796.got.cif
#   From: 2010.05.17/outbox.cif.g08.bks.cpg/sg60_5_cif.got.tgz:9796.got - 2010.06.03 14:59:27.
