data_PCOD9457120
_publ_section_title
;
Structure prediction by ZEFSAII (Michael W. Deem and Ramdas Pophale) SiO2 
 PCOD9457120
Probable space group: P B C N
;
_chemical_formula_sum "Si O2"
_cell_formula_units_Z 40
_cell_length_a 13.271349
_cell_length_b 14.171704
_cell_length_c 8.749185
_cell_angle_alpha 90.000000
_cell_angle_beta 90.000000
_cell_angle_gamma 90.000000
_cell_volume 1645.525977
_symmetry_space_group_name_H-M "P B C N"
_symmetry_group_IT_number 60
_symmetry_cell_setting 'orthorhombic'
loop_
_space_group_symop_operation_xyz
x,y,z
1/2-x,1/2-y,1/2+z
1/2+x,1/2-y,-z
-x,y,1/2-z
-x,-y,-z
1/2+x,1/2+y,1/2-z
1/2-x,1/2+y,z
x,-y,1/2+z
loop_
_atom_site_type_symbol
_atom_site_label
_atom_site_fract_x
_atom_site_fract_y
_atom_site_fract_z
Si Si1 0.533817 0.710372 0.578398
Si Si2 0.269442 0.687856 0.758220
Si Si3 0.867887 0.670057 0.487230
Si Si4 0.781442 0.978724 0.884487
Si Si5 0.082354 0.064366 0.364288
O O1 0.500000 0.683987 0.750000
O O2 0.652999 0.702615 0.598036
O O3 0.485821 0.813103 0.544775
O O4 0.476236 0.644893 0.456512
O O5 0.311874 0.757437 0.629354
O O6 0.270104 0.582710 0.687672
O O7 0.162073 0.697700 0.840171
O O8 0.818976 0.568602 0.450685
O O9 0.826839 0.912166 0.751373
O O10 0.864906 0.995303 0.015768
O O11 0.000000 0.020355 0.250000
#
# Coordination Sequence:
#
# PCOD9457120 Si02
#       5
#     8   8   8   8   8
#     4  10  22  43  67  99 141 176 230 291 355 416
#     4  11  24  43  69  99 142 179 239 296 355 421
#     4  11  23  41  68  98 141 187 228 289 361 426
#     4  12  24  40  63 103 141 186 223 292 362 421
#     4  12  24  36  62 101 142 177 223 287 357 415
#
# _framework density 24.308337000000002
#
# number of rings (size 3 to 8) (size 9 to 14) (size 15 to 20)
#    0.000    0.800    6.000    3.000    2.800    0.000 
#    0.000    0.000    0.000   19.200    0.000    0.000 
#    0.000    0.000    0.000    0.000    0.000    0.000 
#
# Total GULP energy -223406.600593 kJ/mol
# GULP energy per Si atom -5585.165015 kJ/mol
# Density = 2.425301 g / cm^3
# Si number density = 24.308337 Si / 1000 Ang^3
#
#
#
# Elastic Constant Matrix: (Units=GPa)
#
#
# Indices 1 2 3 4 5 6 
#
# 1 60.9390 41.4075 9.4917 0.0000 0.0000 0.0000
# 2 41.4075 86.1367 16.6556 0.0000 0.0000 0.0000
# 3 9.4917 16.6556 105.9249 0.0000 0.0000 0.0000
# 4 0.0000 0.0000 0.0000 20.1497 0.0000 0.0000
# 5 0.0000 0.0000 0.0000 0.0000 40.8927 0.0000
# 6 0.0000 0.0000 0.0000 0.0000 0.0000 27.0135
#
#
#
# Elastic Compliance Matrix: (Units=1/GPa)
#
#
# Indices 1 2 3 4 5 6 
#
# 1 0.024383 -0.011653 -0.000353 0.000000 0.000000 0.000000
# 2 -0.011653 0.017543 -0.001714 0.000000 0.000000 0.000000
# 3 -0.000353 -0.001714 0.009742 0.000000 0.000000 0.000000
# 4 0.000000 0.000000 0.000000 0.049629 0.000000 0.000000
# 5 0.000000 0.000000 0.000000 0.000000 0.024454 0.000000
# 6 0.000000 0.000000 0.000000 0.000000 0.000000 0.037018
#
#
# Mechanical properties :
#
#
# Convention : Reuss Voigt Hill
#
# Bulk Modulus (GPa) = 41.27511 43.12336 42.19923
# Shear Modulus (GPa) = 25.21627 29.97425 27.59526
#
# Velocity S-wave (km/s) = 3.22429 3.51534 3.37295
# Velocity P-wave (km/s) = 5.55680 5.85282 5.70673
#
# Compressibility (1/GPa) = 0.02422768
#
# Stress axis : x y z
#
# Youngs Moduli (GPa) = 41.01220 57.00341 102.65064
#
# Poissons Ratio (x) = 0.66427 0.03619
# Poissons Ratio (y) = 0.47792 0.17596
# Poissons Ratio (z) = 0.01446 0.09772
#
# Static dielectric constant tensor:
#      x y z
#    x 2.017660 0.000000 0.000000 
#    y 0.000000 2.018010 0.000000 
#    z 0.000000 0.000000 1.965810 
# 
# From -- ./inp_files/5643.got.cif
#   From: 2010.05.17/outbox.cif.g08.bks.cpg/sg60_3_cif.got.tgz:5643.got - 2010.06.03 14:59:27.
