data_PCOD9457356
_publ_section_title
;
Structure prediction by ZEFSAII (Michael W. Deem and Ramdas Pophale) SiO2 
 PCOD9457356
Probable space group: P B C N
;
_chemical_formula_sum "Si O2"
_cell_formula_units_Z 40
_cell_length_a 8.522506
_cell_length_b 19.664069
_cell_length_c 11.730613
_cell_angle_alpha 90.000000
_cell_angle_beta 90.000000
_cell_angle_gamma 90.000000
_cell_volume 1965.899954
_symmetry_space_group_name_H-M "P B C N"
_symmetry_group_IT_number 60
_symmetry_cell_setting 'orthorhombic'
loop_
_space_group_symop_operation_xyz
x,y,z
1/2-x,1/2-y,1/2+z
1/2+x,1/2-y,-z
-x,y,1/2-z
-x,-y,-z
1/2+x,1/2+y,1/2-z
1/2-x,1/2+y,z
x,-y,1/2+z
loop_
_atom_site_type_symbol
_atom_site_label
_atom_site_fract_x
_atom_site_fract_y
_atom_site_fract_z
Si Si1 0.734035 0.689004 0.798171
Si Si2 0.151249 0.166141 0.170326
Si Si3 0.078852 0.141808 0.922652
Si Si4 0.732556 0.045419 0.456584
Si Si5 0.946672 0.578243 0.875883
O O1 0.746522 0.769843 0.792169
O O2 0.708561 0.661421 0.670752
O O3 0.585047 0.661312 0.867711
O O4 0.884584 0.654330 0.855975
O O5 0.243595 0.095402 0.151853
O O6 0.000000 0.158307 0.250000
O O7 0.098073 0.181916 0.040616
O O8 0.118548 0.064749 0.963340
O O9 0.582285 0.069521 0.530756
O O10 0.696621 0.969611 0.417770
O O11 0.000000 0.553678 0.750000
#
# Coordination Sequence:
#
# PCOD9457356 Si02
#       5
#     8   8   8   8   8
#     4  11  22  39  71  85 130 173 210 272 321 403
#     4  10  23  41  63  97 129 166 211 277 325 386
#     4   9  23  42  57  99 120 166 217 257 337 378
#     4   9  23  41  61  94 127 161 222 263 322 392
#     4  11  20  42  66  91 125 175 213 267 326 393
#
# _framework density 20.346917000000001
#
# number of rings (size 3 to 8) (size 9 to 14) (size 15 to 20)
#    1.200    0.800    2.000    0.600    5.600    0.800 
#   14.400    0.000    0.000    0.000    0.000    0.000 
#    0.000    0.000    0.000    0.000    0.000    0.000 
#
# Total GULP energy -222680.679836 kJ/mol
# GULP energy per Si atom -5567.016996 kJ/mol
# Density = 2.030061 g / cm^3
# Si number density = 20.346917 Si / 1000 Ang^3
#
#
#
# Elastic Constant Matrix: (Units=GPa)
#
#
# Indices 1 2 3 4 5 6 
#
# 1 54.5422 13.7388 -2.4728 0.0000 0.0000 0.0000
# 2 13.7388 62.9494 -0.0879 0.0000 0.0000 0.0000
# 3 -2.4728 -0.0879 52.4176 0.0000 0.0000 0.0000
# 4 0.0000 0.0000 0.0000 15.3983 0.0000 0.0000
# 5 0.0000 0.0000 0.0000 0.0000 36.1689 0.0000
# 6 0.0000 0.0000 0.0000 0.0000 0.0000 15.4837
#
#
#
# Elastic Compliance Matrix: (Units=1/GPa)
#
#
# Indices 1 2 3 4 5 6 
#
# 1 0.019444 -0.004242 0.000910 0.000000 0.000000 0.000000
# 2 -0.004242 0.016811 -0.000172 0.000000 0.000000 0.000000
# 3 0.000910 -0.000172 0.019120 0.000000 0.000000 0.000000
# 4 0.000000 0.000000 0.000000 0.064942 0.000000 0.000000
# 5 0.000000 0.000000 0.000000 0.000000 0.027648 0.000000
# 6 0.000000 0.000000 0.000000 0.000000 0.000000 0.064584
#
#
# Mechanical properties :
#
#
# Convention : Reuss Voigt Hill
#
# Bulk Modulus (GPa) = 20.67502 21.36280 21.01891
# Shear Modulus (GPa) = 21.21509 23.99226 22.60368
#
# Velocity S-wave (km/s) = 3.23254 3.43761 3.33665
# Velocity P-wave (km/s) = 4.91078 5.12624 5.01967
#
# Compressibility (1/GPa) = 0.04836754
#
# Stress axis : x y z
#
# Youngs Moduli (GPa) = 51.42887 59.48319 52.30063
#
# Poissons Ratio (x) = 0.25236 -0.04760
# Poissons Ratio (y) = 0.21819 0.00899
# Poissons Ratio (z) = -0.04681 0.01023
#
# Static dielectric constant tensor:
#      x y z
#    x 1.786600 0.000000 0.000000 
#    y 0.000000 1.701210 0.000000 
#    z 0.000000 0.000000 1.720170 
# 
# From -- ./inp_files/9934.got.cif
#   From: 2010.05.17/outbox.cif.g08.bks.cpg/sg60_5_cif.got.tgz:9934.got - 2010.06.03 14:59:27.
