data_PCOD9457826
_publ_section_title
;
Structure prediction by ZEFSAII (Michael W. Deem and Ramdas Pophale) SiO2 
 PCOD9457826
Probable space group: P B C N
;
_chemical_formula_sum "Si O2"
_cell_formula_units_Z 48
_cell_length_a 11.633989
_cell_length_b 8.823604
_cell_length_c 17.849377
_cell_angle_alpha 90.000000
_cell_angle_beta 90.000000
_cell_angle_gamma 90.000000
_cell_volume 1832.304804
_symmetry_space_group_name_H-M "P B C N"
_symmetry_group_IT_number 60
_symmetry_cell_setting 'orthorhombic'
loop_
_space_group_symop_operation_xyz
x,y,z
1/2-x,1/2-y,1/2+z
1/2+x,1/2-y,-z
-x,y,1/2-z
-x,-y,-z
1/2+x,1/2+y,1/2-z
1/2-x,1/2+y,z
x,-y,1/2+z
loop_
_atom_site_type_symbol
_atom_site_label
_atom_site_fract_x
_atom_site_fract_y
_atom_site_fract_z
Si Si1 0.500000 0.784260 0.250000
Si Si2 0.865721 0.086632 0.134316
Si Si3 0.000000 0.760933 0.250000
Si Si4 0.803149 0.475486 0.765443
Si Si5 0.982424 0.162466 0.910641
Si Si6 0.336569 0.854711 0.973749
Si Si7 0.773608 0.355208 0.931500
O O1 0.453658 0.692499 0.321303
O O2 0.611736 0.882301 0.273239
O O3 0.767890 0.168395 0.084928
O O4 0.793428 0.004091 0.201703
O O5 0.934684 0.979332 0.076350
O O6 0.110401 0.655614 0.262631
O O7 0.971759 0.856938 0.321652
O O8 0.763641 0.420339 0.847790
O O9 0.048708 0.320123 0.927524
O O10 0.855903 0.205727 0.935646
O O11 0.339877 0.721176 0.035735
O O12 0.323000 0.016208 0.013265
#
# Coordination Sequence:
#
# PCOD9457826 Si02
#       7
#     4   8   4   8   8   8   8
#     4  11  27  44  78 118 149 203 262 320 393 457
#     4  12  25  46  79 109 153 199 263 316 383 469
#     4   9  19  40  70  98 131 189 246 304 371 441
#     4  10  24  46  72 109 147 194 254 317 378 458
#     4  11  23  45  73 106 149 191 251 310 381 451
#     4  12  25  48  74 112 148 206 247 319 384 464
#     4  11  28  46  74 109 157 198 252 312 390 456
#
# _framework density 26.196515000000002
#
# number of rings (size 3 to 8) (size 9 to 14) (size 15 to 20)
#    0.000    1.000    3.333    2.000    2.333    4.667 
#    0.000    0.000    0.000    0.000    0.000    0.000 
#    0.000    0.000    0.000    0.000    0.000    0.000 
#
# Total GULP energy -268529.470205 kJ/mol
# GULP energy per Si atom -5594.363963 kJ/mol
# Density = 2.613689 g / cm^3
# Si number density = 26.196515 Si / 1000 Ang^3
#
#
#
# Elastic Constant Matrix: (Units=GPa)
#
#
# Indices 1 2 3 4 5 6 
#
# 1 95.8447 34.9020 40.9235 0.0000 0.0000 0.0000
# 2 34.9020 79.4419 21.4967 0.0000 0.0000 0.0000
# 3 40.9235 21.4967 133.0945 0.0000 0.0000 0.0000
# 4 0.0000 0.0000 0.0000 49.8725 0.0000 0.0000
# 5 0.0000 0.0000 0.0000 0.0000 41.3239 0.0000
# 6 0.0000 0.0000 0.0000 0.0000 0.0000 35.8418
#
#
#
# Elastic Compliance Matrix: (Units=1/GPa)
#
#
# Indices 1 2 3 4 5 6 
#
# 1 0.013750 -0.005121 -0.003401 0.000000 0.000000 0.000000
# 2 -0.005121 0.015070 -0.000860 0.000000 0.000000 0.000000
# 3 -0.003401 -0.000860 0.008698 0.000000 0.000000 0.000000
# 4 0.000000 0.000000 0.000000 0.020051 0.000000 0.000000
# 5 0.000000 0.000000 0.000000 0.000000 0.024199 0.000000
# 6 0.000000 0.000000 0.000000 0.000000 0.000000 0.027900
#
#
# Mechanical properties :
#
#
# Convention : Reuss Voigt Hill
#
# Bulk Modulus (GPa) = 53.31580 55.89168 54.60374
# Shear Modulus (GPa) = 37.12406 39.47823 38.30115
#
# Velocity S-wave (km/s) = 3.76857 3.88623 3.82785
# Velocity P-wave (km/s) = 6.27157 6.44351 6.35812
#
# Compressibility (1/GPa) = 0.01875617
#
# Stress axis : x y z
#
# Youngs Moduli (GPa) = 72.72521 66.35616 114.96945
#
# Poissons Ratio (x) = 0.33980 0.39099
# Poissons Ratio (y) = 0.37241 0.09882
# Poissons Ratio (z) = 0.24733 0.05703
#
# Static dielectric constant tensor:
#      x y z
#    x 2.092570 0.000000 0.000000 
#    y 0.000000 2.088670 0.000000 
#    z 0.000000 0.000000 1.995800 
# 
# From -- ./inp_files/20550.got.cif
#   From: 2010.05.17/outbox.cif.g08.bks.cpg/sg60_11_cif.got.tgz:20550.got - 2010.06.03 14:59:27.
