data_PCOD9457765
_publ_section_title
;
Structure prediction by ZEFSAII (Michael W. Deem and Ramdas Pophale) SiO2 
 PCOD9457765
Probable space group: P B C N
;
_chemical_formula_sum "Si O2"
_cell_formula_units_Z 24
_cell_length_a 4.851824
_cell_length_b 18.172284
_cell_length_c 10.307987
_cell_angle_alpha 90.000000
_cell_angle_beta 90.000000
_cell_angle_gamma 90.000000
_cell_volume 908.842057
_symmetry_space_group_name_H-M "P B C N"
_symmetry_group_IT_number 60
_symmetry_cell_setting 'orthorhombic'
loop_
_space_group_symop_operation_xyz
x,y,z
1/2-x,1/2-y,1/2+z
1/2+x,1/2-y,-z
-x,y,1/2-z
-x,-y,-z
1/2+x,1/2+y,1/2-z
1/2-x,1/2+y,z
x,-y,1/2+z
loop_
_atom_site_type_symbol
_atom_site_label
_atom_site_fract_x
_atom_site_fract_y
_atom_site_fract_z
Si Si1 0.000000 0.129854 0.250000
Si Si2 0.707903 0.748381 0.913702
Si Si3 0.000000 0.375421 0.250000
Si Si4 0.174712 0.991776 0.371391
O O1 0.822495 0.179459 0.344550
O O2 0.210406 0.075407 0.325155
O O3 0.787170 0.680204 0.821221
O O4 0.391418 0.755185 0.954672
O O5 0.084383 0.432379 0.366691
O O6 0.000000 0.960883 0.250000
O O7 0.000000 0.000000 0.500000
#
# Coordination Sequence:
#
# PCOD9457765 Si02
#       4
#     4   8   4   8
#     4   9  24  44  68 105 142 190 244 307 376 448
#     4  11  26  46  72 103 150 195 251 307 379 454
#     4  11  26  40  78 107 146 204 252 315 384 462
#     4  10  24  44  70 105 149 186 251 306 386 444
#
# _framework density 26.407225
#
# number of rings (size 3 to 8) (size 9 to 14) (size 15 to 20)
#    1.000    0.667    0.000    2.000    9.333    8.000 
#    0.000    0.000    0.000    0.000    0.000    0.000 
#    0.000    0.000    0.000    0.000    0.000    0.000 
#
# Total GULP energy -134238.115736 kJ/mol
# GULP energy per Si atom -5593.254822 kJ/mol
# Density = 2.634712 g / cm^3
# Si number density = 26.407225 Si / 1000 Ang^3
#
#
#
# Elastic Constant Matrix: (Units=GPa)
#
#
# Indices 1 2 3 4 5 6 
#
# 1 87.6295 32.8932 38.3550 0.0000 0.0000 0.0000
# 2 32.8932 213.2719 55.7170 0.0000 0.0000 0.0000
# 3 38.3550 55.7170 131.8425 0.0000 0.0000 0.0000
# 4 0.0000 0.0000 0.0000 -0.5220 0.0000 0.0000
# 5 0.0000 0.0000 0.0000 0.0000 50.3323 0.0000
# 6 0.0000 0.0000 0.0000 0.0000 0.0000 34.8117
#
#
#
# Elastic Compliance Matrix: (Units=1/GPa)
#
#
# Indices 1 2 3 4 5 6 
#
# 1 0.013333 -0.001172 -0.003383 0.000000 0.000000 0.000000
# 2 -0.001172 0.005374 -0.001930 0.000000 0.000000 0.000000
# 3 -0.003383 -0.001930 0.009385 0.000000 0.000000 0.000000
# 4 0.000000 0.000000 0.000000 -1.915730 0.000000 0.000000
# 5 0.000000 0.000000 0.000000 0.000000 0.019868 0.000000
# 6 0.000000 0.000000 0.000000 0.000000 0.000000 0.028726
#
#
# Mechanical properties :
#
#
# Convention : Reuss Voigt Hill
#
# Bulk Modulus (GPa) = 66.13771 76.29714 71.21743
# Shear Modulus (GPa) = -2.74569 37.30966 17.28199
#
# Velocity S-wave (km/s) = -1.02079 3.76288 2.56098
# Velocity P-wave (km/s) = 4.86933 6.91623 5.98099
#
# Compressibility (1/GPa) = 0.01511997
#
# Stress axis : x y z
#
# Youngs Moduli (GPa) = 75.00424 186.08565 106.55736
#
# Poissons Ratio (x) = 0.21818 0.36050
# Poissons Ratio (y) = 0.08794 0.20565
# Poissons Ratio (z) = 0.25375 0.35913
#
# Static dielectric constant tensor:
#      x y z
#    x 2.495720 0.000000 0.000000 
#    y 0.000000 2.008220 0.000000 
#    z 0.000000 0.000000 1.950520 
# 
# From -- ./inp_files/8693.got.cif
#   From: 2010.05.17/outbox.cif.g08.bks.cpg/sg60_5_cif.got.tgz:8693.got - 2010.06.03 14:59:27.
