data_PCOD9457815
_publ_section_title
;
Structure prediction by ZEFSAII (Michael W. Deem and Ramdas Pophale) SiO2 
 PCOD9457815
Probable space group: P B C N
;
_chemical_formula_sum "Si O2"
_cell_formula_units_Z 36
_cell_length_a 19.344701
_cell_length_b 8.228359
_cell_length_c 9.095056
_cell_angle_alpha 90.000000
_cell_angle_beta 90.000000
_cell_angle_gamma 90.000000
_cell_volume 1447.706854
_symmetry_space_group_name_H-M "P B C N"
_symmetry_group_IT_number 60
_symmetry_cell_setting 'orthorhombic'
loop_
_space_group_symop_operation_xyz
x,y,z
1/2-x,1/2-y,1/2+z
1/2+x,1/2-y,-z
-x,y,1/2-z
-x,-y,-z
1/2+x,1/2+y,1/2-z
1/2-x,1/2+y,z
x,-y,1/2+z
loop_
_atom_site_type_symbol
_atom_site_label
_atom_site_fract_x
_atom_site_fract_y
_atom_site_fract_z
Si Si1 0.843194 0.313916 0.039967
Si Si2 0.110851 0.907675 0.736388
Si Si3 0.000000 0.813758 0.250000
Si Si4 0.898336 0.333148 0.531421
Si Si5 0.215119 0.828557 0.254535
O O1 0.894031 0.175027 0.103359
O O2 0.882643 0.479002 0.003437
O O3 0.790417 0.342352 0.175470
O O4 0.798403 0.254766 0.902027
O O5 0.098035 0.772584 0.615231
O O6 0.060585 0.059545 0.710602
O O7 0.186271 0.989249 0.732918
O O8 0.967191 0.701302 0.124904
O O9 0.834730 0.261395 0.628305
#
# Coordination Sequence:
#
# PCOD9457815 Si02
#       5
#     8   8   4   8   8
#     4  12  25  43  70 103 136 175 225 280 335 401
#     4  11  24  45  70  96 135 182 224 274 340 403
#     4  10  24  46  70  98 134 180 226 278 334 396
#     4  11  24  43  69 101 136 177 228 279 330 395
#     4  11  24  43  67 100 139 177 219 274 343 406
#
# _framework density 24.866911999999999
#
# number of rings (size 3 to 8) (size 9 to 14) (size 15 to 20)
#    0.000    0.889    0.000    7.333    0.000    8.000 
#    0.000    8.889    0.000    0.000    0.000    0.000 
#    0.000    0.000    0.000    0.000    0.000    0.000 
#
# Total GULP energy -201845.067351 kJ/mol
# GULP energy per Si atom -5606.807426 kJ/mol
# Density = 2.481031 g / cm^3
# Si number density = 24.866912 Si / 1000 Ang^3
#
#
#
# Elastic Constant Matrix: (Units=GPa)
#
#
# Indices 1 2 3 4 5 6 
#
# 1 58.0655 11.2892 11.1655 0.0000 0.0000 0.0000
# 2 11.2892 145.1934 30.1850 0.0000 0.0000 0.0000
# 3 11.1655 30.1850 107.0795 0.0000 0.0000 0.0000
# 4 0.0000 0.0000 0.0000 42.0153 0.0000 0.0000
# 5 0.0000 0.0000 0.0000 0.0000 40.1649 0.0000
# 6 0.0000 0.0000 0.0000 0.0000 0.0000 25.9818
#
#
#
# Elastic Compliance Matrix: (Units=1/GPa)
#
#
# Indices 1 2 3 4 5 6 
#
# 1 0.017725 -0.001056 -0.001551 0.000000 0.000000 0.000000
# 2 -0.001056 0.007379 -0.001970 0.000000 0.000000 0.000000
# 3 -0.001551 -0.001970 0.010056 0.000000 0.000000 0.000000
# 4 0.000000 0.000000 0.000000 0.023801 0.000000 0.000000
# 5 0.000000 0.000000 0.000000 0.000000 0.024897 0.000000
# 6 0.000000 0.000000 0.000000 0.000000 0.000000 0.038488
#
#
# Mechanical properties :
#
#
# Convention : Reuss Voigt Hill
#
# Bulk Modulus (GPa) = 38.45070 46.17975 42.31522
# Shear Modulus (GPa) = 35.67123 38.81232 37.24177
#
# Velocity S-wave (km/s) = 3.79157 3.95498 3.87414
# Velocity P-wave (km/s) = 5.88763 6.28227 6.08815
#
# Compressibility (1/GPa) = 0.02600733
#
# Stress axis : x y z
#
# Youngs Moduli (GPa) = 56.41625 135.51952 99.44434
#
# Poissons Ratio (x) = 0.14309 0.15420
# Poissons Ratio (y) = 0.05957 0.19591
# Poissons Ratio (z) = 0.08748 0.26697
#
# Static dielectric constant tensor:
#      x y z
#    x 2.056160 0.000000 0.000000 
#    y 0.000000 1.947590 0.000000 
#    z 0.000000 0.000000 1.943180 
# 
# From -- ./inp_files/7172.got.cif
#   From: 2010.05.17/outbox.cif.g08.bks.cpg/sg60_4_cif.got.tgz:7172.got - 2010.06.03 14:59:27.
