data_PCOD9457634
_publ_section_title
;
Structure prediction by ZEFSAII (Michael W. Deem and Ramdas Pophale) SiO2 
 PCOD9457634
Probable space group: P B C N
;
_chemical_formula_sum "Si O2"
_cell_formula_units_Z 40
_cell_length_a 13.411158
_cell_length_b 11.659405
_cell_length_c 10.783884
_cell_angle_alpha 90.000000
_cell_angle_beta 90.000000
_cell_angle_gamma 90.000000
_cell_volume 1686.234128
_symmetry_space_group_name_H-M "P B C N"
_symmetry_group_IT_number 60
_symmetry_cell_setting 'orthorhombic'
loop_
_space_group_symop_operation_xyz
x,y,z
1/2-x,1/2-y,1/2+z
1/2+x,1/2-y,-z
-x,y,1/2-z
-x,-y,-z
1/2+x,1/2+y,1/2-z
1/2-x,1/2+y,z
x,-y,1/2+z
loop_
_atom_site_type_symbol
_atom_site_label
_atom_site_fract_x
_atom_site_fract_y
_atom_site_fract_z
Si Si1 0.597630 0.195848 0.514316
Si Si2 0.303352 0.249077 0.566606
Si Si3 0.077261 0.677501 0.341039
Si Si4 0.020739 0.913443 0.612965
Si Si5 0.382082 0.934801 0.254451
O O1 0.685766 0.236287 0.425607
O O2 0.503816 0.137908 0.445807
O O3 0.551891 0.305230 0.585638
O O4 0.649600 0.113181 0.612533
O O5 0.338820 0.235880 0.423306
O O6 0.368934 0.356763 0.612811
O O7 0.331677 0.135239 0.644502
O O8 0.122928 0.571041 0.266931
O O9 0.000000 0.743859 0.250000
O O10 0.000000 0.960873 0.750000
O O11 0.000000 0.000000 0.500000
O O12 0.500000 0.907851 0.250000
#
# Coordination Sequence:
#
# PCOD9457634 Si02
#       5
#     8   8   8   8   8
#     4  11  23  43  68 100 133 177 229 279 342 409
#     4  11  24  44  70 100 137 182 222 288 346 413
#     4  10  24  38  69 102 135 170 226 285 339 409
#     4  11  24  49  70  95 144 192 228 283 353 417
#     4  11  20  44  71  90 135 176 224 282 348 394
#
# _framework density 23.721499999999999
#
# number of rings (size 3 to 8) (size 9 to 14) (size 15 to 20)
#    0.000    1.200    6.000    0.600    5.600    4.800 
#    3.600    0.000    0.000    0.000    0.000    0.000 
#    0.000    0.000    0.000    0.000    0.000    0.000 
#
# Total GULP energy -223431.616809 kJ/mol
# GULP energy per Si atom -5585.790420 kJ/mol
# Density = 2.366751 g / cm^3
# Si number density = 23.721500 Si / 1000 Ang^3
#
#
#
# Elastic Constant Matrix: (Units=GPa)
#
#
# Indices 1 2 3 4 5 6 
#
# 1 95.9916 1.1821 -7.2929 0.0000 0.0000 0.0000
# 2 1.1821 58.1886 31.4162 0.0000 0.0000 0.0000
# 3 -7.2929 31.4162 98.0646 0.0000 0.0000 0.0000
# 4 0.0000 0.0000 0.0000 46.2044 0.0000 0.0000
# 5 0.0000 0.0000 0.0000 0.0000 27.2275 0.0000
# 6 0.0000 0.0000 0.0000 0.0000 0.0000 15.6016
#
#
#
# Elastic Compliance Matrix: (Units=1/GPa)
#
#
# Indices 1 2 3 4 5 6 
#
# 1 0.010505 -0.000768 0.001027 0.000000 0.000000 0.000000
# 2 -0.000768 0.020836 -0.006732 0.000000 0.000000 0.000000
# 3 0.001027 -0.006732 0.012430 0.000000 0.000000 0.000000
# 4 0.000000 0.000000 0.000000 0.021643 0.000000 0.000000
# 5 0.000000 0.000000 0.000000 0.000000 0.036728 0.000000
# 6 0.000000 0.000000 0.000000 0.000000 0.000000 0.064096
#
#
# Mechanical properties :
#
#
# Convention : Reuss Voigt Hill
#
# Bulk Modulus (GPa) = 32.44058 33.65064 33.04561
# Shear Modulus (GPa) = 26.39095 32.93599 29.66347
#
# Velocity S-wave (km/s) = 3.33908 3.73023 3.54006
# Velocity P-wave (km/s) = 5.34521 5.72445 5.53808
#
# Compressibility (1/GPa) = 0.03082559
#
# Stress axis : x y z
#
# Youngs Moduli (GPa) = 95.19203 47.99433 80.44741
#
# Poissons Ratio (x) = 0.03686 -0.08264
# Poissons Ratio (y) = 0.07311 0.54158
# Poissons Ratio (z) = -0.09779 0.32310
#
# Static dielectric constant tensor:
#      x y z
#    x 1.882140 0.000000 0.000000 
#    y 0.000000 1.899320 0.000000 
#    z 0.000000 0.000000 2.034960 
# 
# From -- ./inp_files/11701.got.cif
#   From: 2010.05.17/outbox.cif.g08.bks.cpg/sg60_6_cif.got.tgz:11701.got - 2010.06.03 14:59:27.
