data_PCOD9457295
_publ_section_title
;
Structure prediction by ZEFSAII (Michael W. Deem and Ramdas Pophale) SiO2 
 PCOD9457295
Probable space group: P B C N
;
_chemical_formula_sum "Si O2"
_cell_formula_units_Z 48
_cell_length_a 17.468740
_cell_length_b 22.310961
_cell_length_c 5.412584
_cell_angle_alpha 90.000000
_cell_angle_beta 90.000000
_cell_angle_gamma 90.000000
_cell_volume 2109.524178
_symmetry_space_group_name_H-M "P B C N"
_symmetry_group_IT_number 60
_symmetry_cell_setting 'orthorhombic'
loop_
_space_group_symop_operation_xyz
x,y,z
1/2-x,1/2-y,1/2+z
1/2+x,1/2-y,-z
-x,y,1/2-z
-x,-y,-z
1/2+x,1/2+y,1/2-z
1/2-x,1/2+y,z
x,-y,1/2+z
loop_
_atom_site_type_symbol
_atom_site_label
_atom_site_fract_x
_atom_site_fract_y
_atom_site_fract_z
Si Si1 0.669370 0.040303 0.320385
Si Si2 0.099759 0.845926 0.120809
Si Si3 0.149929 0.748723 0.516312
Si Si4 0.750922 0.158189 0.215934
Si Si5 0.000000 0.217407 0.250000
Si Si6 0.914041 0.979790 0.416979
Si Si7 0.500000 0.960783 0.750000
O O1 0.726030 0.096505 0.338114
O O2 0.583471 0.068440 0.281470
O O3 0.678040 0.000353 0.570471
O O4 0.118472 0.791938 0.302764
O O5 0.088192 0.913882 0.203290
O O6 0.174027 0.850631 0.947284
O O7 0.025282 0.826625 0.968465
O O8 0.222868 0.786644 0.611801
O O9 0.180514 0.684512 0.439863
O O10 0.076819 0.745407 0.696981
O O11 0.878420 0.980781 0.694706
O O12 0.000000 0.000000 0.500000
O O13 0.500000 0.000000 0.500000
#
# Coordination Sequence:
#
# PCOD9457295 Si02
#       7
#     8   8   8   8   4   8   4
#     4  10  23  43  71 103 139 183 237 297 367 440
#     4  11  24  43  69  93 142 184 232 301 353 428
#     4  11  24  46  67 102 138 193 236 300 365 429
#     4  11  25  44  70  98 144 186 237 293 367 438
#     4  10  24  42  71  98 128 179 246 292 360 414
#     4  10  23  38  61  95 134 179 235 285 351 415
#     4   8  16  38  63  92 130 173 218 286 358 418
#
# _framework density 22.753945000000002
#
# number of rings (size 3 to 8) (size 9 to 14) (size 15 to 20)
#    0.000    1.667    1.667    1.500   11.667    1.333 
#    3.000    3.333    0.000    0.000    0.000    0.000 
#    0.000    0.000    0.000    0.000    0.000    0.000 
#
# Total GULP energy -267620.103095 kJ/mol
# GULP energy per Si atom -5575.418814 kJ/mol
# Density = 2.270216 g / cm^3
# Si number density = 22.753945 Si / 1000 Ang^3
#
#
#
# Elastic Constant Matrix: (Units=GPa)
#
#
# Indices 1 2 3 4 5 6 
#
# 1 81.6411 23.5883 -1.2467 0.0000 0.0000 0.0000
# 2 23.5883 67.2283 -1.5328 0.0000 0.0000 0.0000
# 3 -1.2467 -1.5328 84.6332 0.0000 0.0000 0.0000
# 4 0.0000 0.0000 0.0000 -3.8861 0.0000 0.0000
# 5 0.0000 0.0000 0.0000 0.0000 35.0668 0.0000
# 6 0.0000 0.0000 0.0000 0.0000 0.0000 16.9460
#
#
#
# Elastic Compliance Matrix: (Units=1/GPa)
#
#
# Indices 1 2 3 4 5 6 
#
# 1 0.013632 -0.004780 0.000114 0.000000 0.000000 0.000000
# 2 -0.004780 0.016557 0.000229 0.000000 0.000000 0.000000
# 3 0.000114 0.000229 0.011822 0.000000 0.000000 0.000000
# 4 0.000000 0.000000 0.000000 -0.257328 0.000000 0.000000
# 5 0.000000 0.000000 0.000000 0.000000 0.028517 0.000000
# 6 0.000000 0.000000 0.000000 0.000000 0.000000 0.059011
#
#
# Mechanical properties :
#
#
# Convention : Reuss Voigt Hill
#
# Bulk Modulus (GPa) = 30.17766 30.56890 30.37328
# Shear Modulus (GPa) = -46.35189 23.80492 -11.27349
#
# Velocity S-wave (km/s) = -4.51831 3.23799 -2.22829
# Velocity P-wave (km/s) = 3.73213 5.23862 2.59946
#
# Compressibility (1/GPa) = 0.03313710
#
# Stress axis : x y z
#
# Youngs Moduli (GPa) = 73.35877 60.39674 84.59143
#
# Poissons Ratio (x) = 0.28872 -0.00966
# Poissons Ratio (y) = 0.35068 -0.01941
# Poissons Ratio (z) = -0.00838 -0.01386
#
# Static dielectric constant tensor:
#      x y z
#    x 1.998140 0.000000 0.000000 
#    y 0.000000 1.854140 0.000000 
#    z 0.000000 0.000000 2.104070 
# 
# From -- ./inp_files/1772.got.cif
#   From: 2010.05.17/outbox.cif.g08.bks.cpg/sg60_1_cif.got.tgz:1772.got - 2010.06.03 14:59:27.
