data_PCOD9457708
_publ_section_title
;
Structure prediction by ZEFSAII (Michael W. Deem and Ramdas Pophale) SiO2 
 PCOD9457708
Probable space group: P B C N
;
_chemical_formula_sum "Si O2"
_cell_formula_units_Z 36
_cell_length_a 11.037608
_cell_length_b 26.519356
_cell_length_c 6.039164
_cell_angle_alpha 90.000000
_cell_angle_beta 90.000000
_cell_angle_gamma 90.000000
_cell_volume 1767.725240
_symmetry_space_group_name_H-M "P B C N"
_symmetry_group_IT_number 60
_symmetry_cell_setting 'orthorhombic'
loop_
_space_group_symop_operation_xyz
x,y,z
1/2-x,1/2-y,1/2+z
1/2+x,1/2-y,-z
-x,y,1/2-z
-x,-y,-z
1/2+x,1/2+y,1/2-z
1/2-x,1/2+y,z
x,-y,1/2+z
loop_
_atom_site_type_symbol
_atom_site_label
_atom_site_fract_x
_atom_site_fract_y
_atom_site_fract_z
Si Si1 0.359063 0.517135 0.000527
Si Si2 0.361774 0.296861 0.236796
Si Si3 0.728077 0.119856 0.496626
Si Si4 0.500000 0.860396 0.250000
Si Si5 0.333836 0.816059 0.888952
O O1 0.313463 0.500265 0.750171
O O2 0.500000 0.500000 0.000000
O O3 0.327062 0.576329 0.002766
O O4 0.500000 0.312800 0.250000
O O5 0.287955 0.328111 0.419568
O O6 0.354384 0.237082 0.270806
O O7 0.294544 0.311091 0.011729
O O8 0.613083 0.108639 0.653631
O O9 0.673359 0.134604 0.261075
O O10 0.558665 0.824888 0.436834
#
# Coordination Sequence:
#
# PCOD9457708 Si02
#       5
#     8   8   8   4   8
#     4  10  25  46  72 102 141 180 244 308 367 432
#     4  11  24  36  63 100 138 180 237 278 353 435
#     4  11  24  43  70  96 140 190 228 300 368 423
#     4  10  24  42  70  92 140 180 240 278 368 440
#     4  11  23  42  62 101 140 188 230 290 352 442
#
# _framework density 20.365157
#
# number of rings (size 3 to 8) (size 9 to 14) (size 15 to 20)
#    0.000    1.333    2.222    2.000   12.444    2.667 
#    0.000    1.111    0.000    0.000    0.000    0.000 
#    0.000    0.000    0.000    0.000    0.000    0.000 
#
# Total GULP energy -200595.867628 kJ/mol
# GULP energy per Si atom -5572.107434 kJ/mol
# Density = 2.031881 g / cm^3
# Si number density = 20.365157 Si / 1000 Ang^3
#
#
#
# Elastic Constant Matrix: (Units=GPa)
#
#
# Indices 1 2 3 4 5 6 
#
# 1 117.1809 21.7168 15.4461 0.0000 0.0000 0.0000
# 2 21.7168 97.7224 29.5930 0.0000 0.0000 0.0000
# 3 15.4461 29.5930 105.3193 0.0000 0.0000 0.0000
# 4 0.0000 0.0000 0.0000 18.7043 0.0000 0.0000
# 5 0.0000 0.0000 0.0000 0.0000 25.7840 0.0000
# 6 0.0000 0.0000 0.0000 0.0000 0.0000 33.9878
#
#
#
# Elastic Compliance Matrix: (Units=1/GPa)
#
#
# Indices 1 2 3 4 5 6 
#
# 1 0.008966 -0.001742 -0.000825 0.000000 0.000000 0.000000
# 2 -0.001742 0.011523 -0.002982 0.000000 0.000000 0.000000
# 3 -0.000825 -0.002982 0.010454 0.000000 0.000000 0.000000
# 4 0.000000 0.000000 0.000000 0.053464 0.000000 0.000000
# 5 0.000000 0.000000 0.000000 0.000000 0.038784 0.000000
# 6 0.000000 0.000000 0.000000 0.000000 0.000000 0.029422
#
#
# Mechanical properties :
#
#
# Convention : Reuss Voigt Hill
#
# Bulk Modulus (GPa) = 50.39630 50.41490 50.40560
# Shear Modulus (GPa) = 29.35529 32.59301 30.97415
#
# Velocity S-wave (km/s) = 3.80076 4.00488 3.90415
# Velocity P-wave (km/s) = 6.63785 6.79666 6.71773
#
# Compressibility (1/GPa) = 0.01984273
#
# Stress axis : x y z
#
# Youngs Moduli (GPa) = 111.53831 86.77964 95.65755
#
# Poissons Ratio (x) = 0.15121 0.07894
# Poissons Ratio (y) = 0.19435 0.28528
# Poissons Ratio (z) = 0.09205 0.25881
#
# Static dielectric constant tensor:
#      x y z
#    x 1.701180 0.000000 0.000000 
#    y 0.000000 1.666330 0.000000 
#    z 0.000000 0.000000 1.875310 
# 
# From -- ./inp_files/731.got.cif
#   From: 2010.05.17/outbox.cif.g08.bks.cpg/sg60_1_cif.got.tgz:731.got - 2010.06.03 14:59:27.
