data_PCOD9457391
_publ_section_title
;
Structure prediction by ZEFSAII (Michael W. Deem and Ramdas Pophale) SiO2 
 PCOD9457391
Probable space group: P B C N
;
_chemical_formula_sum "Si O2"
_cell_formula_units_Z 64
_cell_length_a 7.757468
_cell_length_b 12.398907
_cell_length_c 33.198744
_cell_angle_alpha 90.000000
_cell_angle_beta 90.000000
_cell_angle_gamma 90.000000
_cell_volume 3193.192119
_symmetry_space_group_name_H-M "P B C N"
_symmetry_group_IT_number 60
_symmetry_cell_setting 'orthorhombic'
loop_
_space_group_symop_operation_xyz
x,y,z
1/2-x,1/2-y,1/2+z
1/2+x,1/2-y,-z
-x,y,1/2-z
-x,-y,-z
1/2+x,1/2+y,1/2-z
1/2-x,1/2+y,z
x,-y,1/2+z
loop_
_atom_site_type_symbol
_atom_site_label
_atom_site_fract_x
_atom_site_fract_y
_atom_site_fract_z
Si Si1 0.739565 0.939816 0.925802
Si Si2 0.474718 0.336171 0.295994
Si Si3 0.290779 0.581728 0.498366
Si Si4 0.446296 0.913583 0.705573
Si Si5 0.113310 0.025794 0.162984
Si Si6 0.374884 0.946040 0.428750
Si Si7 0.742205 0.022920 0.659059
Si Si8 0.062730 0.246107 0.036489
O O1 0.821826 0.955217 0.881985
O O2 0.539136 0.973449 0.924635
O O3 0.785755 0.819161 0.940691
O O4 0.815752 0.024070 0.958661
O O5 0.500000 0.374136 0.250000
O O6 0.500627 0.210441 0.297026
O O7 0.607740 0.399253 0.324885
O O8 0.292338 0.373982 0.313903
O O9 0.231901 0.490966 0.466692
O O10 0.448427 0.652914 0.483166
O O11 0.139924 0.669872 0.504552
O O12 0.500000 0.952772 0.750000
O O13 0.246115 0.922361 0.694199
O O14 0.562150 0.976492 0.673462
O O15 0.909727 0.053909 0.166582
O O16 0.266526 0.951151 0.387961
O O17 0.447506 0.825438 0.435865
#
# Coordination Sequence:
#
# PCOD9457391 Si02
#       8
#     8   8   8   8   8   8   8   8
#     4  11  22  41  61  92 129 171 217 266 324 389
#     4   9  22  43  66  97 130 166 216 262 324 393
#     4  11  23  40  63  91 130 168 222 268 323 389
#     4  11  22  43  70  97 131 173 213 267 329 389
#     4  10  23  42  66  95 133 168 215 268 322 382
#     4  11  23  43  61  93 133 167 225 270 321 391
#     4  10  23  43  65  96 133 169 211 274 316 384
#     4  11  23  39  64  91 124 180 214 270 332 379
#
# _framework density 20.042641
#
# number of rings (size 3 to 8) (size 9 to 14) (size 15 to 20)
#    0.750    0.750    1.250    4.875    0.000    5.000 
#    4.500    0.000    0.000    0.000    0.000    0.000 
#    0.000    0.000    0.000    0.000    0.000    0.000 
#
# Total GULP energy -356895.171852 kJ/mol
# GULP energy per Si atom -5576.487060 kJ/mol
# Density = 1.999702 g / cm^3
# Si number density = 20.042641 Si / 1000 Ang^3
#
#
#
# Elastic Constant Matrix: (Units=GPa)
#
#
# Indices 1 2 3 4 5 6 
#
# 1 60.9116 14.0750 7.5984 0.0000 0.0000 0.0000
# 2 14.0750 63.2958 11.9958 0.0000 0.0000 0.0000
# 3 7.5984 11.9958 73.9176 0.0000 0.0000 0.0000
# 4 0.0000 0.0000 0.0000 -23.1003 0.0000 0.0000
# 5 0.0000 0.0000 0.0000 0.0000 28.5257 0.0000
# 6 0.0000 0.0000 0.0000 0.0000 0.0000 14.0290
#
#
#
# Elastic Compliance Matrix: (Units=1/GPa)
#
#
# Indices 1 2 3 4 5 6 
#
# 1 0.017409 -0.003644 -0.001198 0.000000 0.000000 0.000000
# 2 -0.003644 0.017063 -0.002394 0.000000 0.000000 0.000000
# 3 -0.001198 -0.002394 0.014040 0.000000 0.000000 0.000000
# 4 0.000000 0.000000 0.000000 -0.043290 0.000000 0.000000
# 5 0.000000 0.000000 0.000000 0.000000 0.035056 0.000000
# 6 0.000000 0.000000 0.000000 0.000000 0.000000 0.071281
#
#
# Mechanical properties :
#
#
# Convention : Reuss Voigt Hill
#
# Bulk Modulus (GPa) = 29.37841 29.49593 29.43717
# Shear Modulus (GPa) = 36.39564 14.85462 25.62513
#
# Velocity S-wave (km/s) = 4.26597 2.72536 3.57953
# Velocity P-wave (km/s) = 6.24135 4.96508 5.63944
#
# Compressibility (1/GPa) = 0.03403860
#
# Stress axis : x y z
#
# Youngs Moduli (GPa) = 57.44238 58.60653 71.22342
#
# Poissons Ratio (x) = 0.21357 0.08534
# Poissons Ratio (y) = 0.20932 0.17054
# Poissons Ratio (z) = 0.06883 0.14033
#
# Static dielectric constant tensor:
#      x y z
#    x 1.801480 0.000000 0.000000 
#    y 0.000000 1.681920 0.000000 
#    z 0.000000 0.000000 1.695970 
# 
# From -- ./inp_files/26007.got.cif
#   From: 2010.05.17/outbox.cif.g08.bks.cpg/sg60_14_cif.got.tgz:26007.got - 2010.06.03 14:59:27.
