data_PCOD9457941
_publ_section_title
;
Structure prediction by ZEFSAII (Michael W. Deem and Ramdas Pophale) SiO2 
 PCOD9457941
Probable space group: P B C N
;
_chemical_formula_sum "Si O2"
_cell_formula_units_Z 24
_cell_length_a 11.491973
_cell_length_b 6.977070
_cell_length_c 9.803803
_cell_angle_alpha 90.000000
_cell_angle_beta 90.000000
_cell_angle_gamma 90.000000
_cell_volume 786.071866
_symmetry_space_group_name_H-M "P B C N"
_symmetry_group_IT_number 60
_symmetry_cell_setting 'orthorhombic'
loop_
_space_group_symop_operation_xyz
x,y,z
1/2-x,1/2-y,1/2+z
1/2+x,1/2-y,-z
-x,y,1/2-z
-x,-y,-z
1/2+x,1/2+y,1/2-z
1/2-x,1/2+y,z
x,-y,1/2+z
loop_
_atom_site_type_symbol
_atom_site_label
_atom_site_fract_x
_atom_site_fract_y
_atom_site_fract_z
Si Si1 0.448520 0.219132 0.882273
Si Si2 0.682707 0.136066 0.995775
Si Si3 0.367086 0.379273 0.256202
O O1 0.500000 0.110581 0.750000
O O2 0.572911 0.264943 0.948648
O O3 0.393117 0.417477 0.831055
O O4 0.199048 0.262540 0.858085
O O5 0.783561 0.113662 0.879779
O O6 0.625315 0.927809 0.026746
O O7 0.500000 0.305291 0.250000
#
# Coordination Sequence:
#
# PCOD9457941 Si02
#       3
#     8   8   8
#     4  10  25  57  88 138 186 253 326 393 487 569
#     4  11  26  56  94 135 193 251 321 405 473 585
#     4  11  27  57  94 143 191 256 323 399 492 581
#
# _framework density 30.531558
#
# number of rings (size 3 to 8) (size 9 to 14) (size 15 to 20)
#    0.000    1.333    0.000    2.000    0.000    5.333 
#   54.000    8.333    0.000    6.000    0.000    0.000 
#    0.000    0.000    0.000    0.000    0.000    0.000 
#
# Total GULP energy -134180.295338 kJ/mol
# GULP energy per Si atom -5590.845639 kJ/mol
# Density = 3.046207 g / cm^3
# Si number density = 30.531558 Si / 1000 Ang^3
#
#
#
# Elastic Constant Matrix: (Units=GPa)
#
#
# Indices 1 2 3 4 5 6 
#
# 1 261.0072 121.1587 113.4722 0.0000 0.0000 0.0000
# 2 121.1587 240.3295 103.5118 0.0000 0.0000 0.0000
# 3 113.4722 103.5118 238.3123 0.0000 0.0000 0.0000
# 4 0.0000 0.0000 0.0000 56.6125 0.0000 0.0000
# 5 0.0000 0.0000 0.0000 0.0000 100.5758 0.0000
# 6 0.0000 0.0000 0.0000 0.0000 0.0000 33.9269
#
#
#
# Elastic Compliance Matrix: (Units=1/GPa)
#
#
# Indices 1 2 3 4 5 6 
#
# 1 0.005539 -0.002038 -0.001752 0.000000 0.000000 0.000000
# 2 -0.002038 0.005868 -0.001579 0.000000 0.000000 0.000000
# 3 -0.001752 -0.001579 0.005716 0.000000 0.000000 0.000000
# 4 0.000000 0.000000 0.000000 0.017664 0.000000 0.000000
# 5 0.000000 0.000000 0.000000 0.000000 0.009943 0.000000
# 6 0.000000 0.000000 0.000000 0.000000 0.000000 0.029475
#
#
# Mechanical properties :
#
#
# Convention : Reuss Voigt Hill
#
# Bulk Modulus (GPa) = 156.58888 157.32605 156.95747
# Shear Modulus (GPa) = 57.42434 64.99014 61.20724
#
# Velocity S-wave (km/s) = 4.34155 4.61870 4.48227
# Velocity P-wave (km/s) = 8.74820 8.94897 8.84915
#
# Compressibility (1/GPa) = 0.00638615
#
# Stress axis : x y z
#
# Youngs Moduli (GPa) = 180.53760 170.41185 174.94089
#
# Poissons Ratio (x) = 0.34724 0.30655
# Poissons Ratio (y) = 0.36788 0.27616
# Poissons Ratio (z) = 0.31636 0.26901
#
# Static dielectric constant tensor:
#      x y z
#    x 2.830250 0.000000 0.000000 
#    y 0.000000 2.386970 0.000000 
#    z 0.000000 0.000000 2.864440 
# 
# From -- ./inp_files/3377.got.cif
#   From: 2010.05.17/outbox.cif.g08.bks.cpg/sg60_2_cif.got.tgz:3377.got - 2010.06.03 14:59:27.
