data_PCOD9457635
_publ_section_title
;
Structure prediction by ZEFSAII (Michael W. Deem and Ramdas Pophale) SiO2 
 PCOD9457635
Probable space group: P B C N
;
_chemical_formula_sum "Si O2"
_cell_formula_units_Z 64
_cell_length_a 14.054636
_cell_length_b 9.232818
_cell_length_c 23.642910
_cell_angle_alpha 90.000000
_cell_angle_beta 90.000000
_cell_angle_gamma 90.000000
_cell_volume 3067.996120
_symmetry_space_group_name_H-M "P B C N"
_symmetry_group_IT_number 60
_symmetry_cell_setting 'orthorhombic'
loop_
_space_group_symop_operation_xyz
x,y,z
1/2-x,1/2-y,1/2+z
1/2+x,1/2-y,-z
-x,y,1/2-z
-x,-y,-z
1/2+x,1/2+y,1/2-z
1/2-x,1/2+y,z
x,-y,1/2+z
loop_
_atom_site_type_symbol
_atom_site_label
_atom_site_fract_x
_atom_site_fract_y
_atom_site_fract_z
Si Si1 0.865769 0.926898 0.535175
Si Si2 0.740979 0.686909 0.595954
Si Si3 0.587469 0.996994 0.783025
Si Si4 0.898779 0.195748 0.824869
Si Si5 0.786371 0.561152 0.173846
Si Si6 0.929318 0.028921 0.417515
Si Si7 0.111663 0.055497 0.255994
Si Si8 0.316292 0.751763 0.155077
O O1 0.801306 0.793874 0.555993
O O2 0.876085 0.945841 0.468038
O O3 0.823371 0.076954 0.560092
O O4 0.971957 0.910469 0.559198
O O5 0.687491 0.795304 0.639230
O O6 0.803359 0.579509 0.635226
O O7 0.500000 0.069168 0.750000
O O8 0.634306 0.096077 0.830711
O O9 0.552943 0.847143 0.810868
O O10 0.662874 0.960027 0.733759
O O11 0.949448 0.083436 0.866497
O O12 0.795647 0.228170 0.851523
O O13 0.879958 0.108369 0.766921
O O14 0.671886 0.569629 0.186686
O O15 0.865055 0.158728 0.393682
O O16 0.164591 0.158974 0.211665
O O17 0.000000 0.089608 0.250000
#
# Coordination Sequence:
#
# PCOD9457635 Si02
#       8
#     8   8   8   8   8   8   8   8
#     4  10  24  49  63  98 113 167 213 274 311 384
#     4  10  24  38  70  86 130 158 218 248 320 372
#     4  12  24  36  59  94 136 163 203 251 315 369
#     4  11  22  41  60  94 125 167 208 261 307 378
#     4  11  21  39  59  94 130 172 200 261 299 382
#     4  10  25  43  73  84 127 159 222 261 321 375
#     4  11  22  37  63  88 130 177 215 241 311 383
#     4  11  22  41  60  94 125 167 208 261 307 378
#
# _framework density 20.860523000000001
#
# number of rings (size 3 to 8) (size 9 to 14) (size 15 to 20)
#    0.000    1.250    2.500    3.000   12.250    0.000 
#    0.000    0.000    0.000    7.500    0.000    0.000 
#    0.000    0.000    0.000    0.000    0.000    0.000 
#
# Total GULP energy -357680.706446 kJ/mol
# GULP energy per Si atom -5588.761038 kJ/mol
# Density = 2.081304 g / cm^3
# Si number density = 20.860523 Si / 1000 Ang^3
#
#
#
# Elastic Constant Matrix: (Units=GPa)
#
#
# Indices 1 2 3 4 5 6 
#
# 1 70.3872 -6.5624 4.5178 0.0000 0.0000 0.0000
# 2 -6.5624 92.6228 7.1542 0.0000 0.0000 0.0000
# 3 4.5178 7.1542 62.0475 0.0000 0.0000 0.0000
# 4 0.0000 0.0000 0.0000 24.5906 0.0000 0.0000
# 5 0.0000 0.0000 0.0000 0.0000 22.4499 0.0000
# 6 0.0000 0.0000 0.0000 0.0000 0.0000 24.7806
#
#
#
# Elastic Compliance Matrix: (Units=1/GPa)
#
#
# Indices 1 2 3 4 5 6 
#
# 1 0.014386 0.001110 -0.001175 0.000000 0.000000 0.000000
# 2 0.001110 0.010979 -0.001347 0.000000 0.000000 0.000000
# 3 -0.001175 -0.001347 0.016358 0.000000 0.000000 0.000000
# 4 0.000000 0.000000 0.000000 0.040666 0.000000 0.000000
# 5 0.000000 0.000000 0.000000 0.000000 0.044544 0.000000
# 6 0.000000 0.000000 0.000000 0.000000 0.000000 0.040354
#
#
# Mechanical properties :
#
#
# Convention : Reuss Voigt Hill
#
# Bulk Modulus (GPa) = 25.70794 26.14184 25.92489
# Shear Modulus (GPa) = 27.31093 29.02742 28.16917
#
# Velocity S-wave (km/s) = 3.62223 3.73433 3.67871
# Velocity P-wave (km/s) = 5.46302 5.58145 5.52255
#
# Compressibility (1/GPa) = 0.03889849
#
# Stress axis : x y z
#
# Youngs Moduli (GPa) = 69.51170 91.08172 61.13388
#
# Poissons Ratio (x) = -0.10111 0.07186
# Poissons Ratio (y) = -0.07716 0.08233
# Poissons Ratio (z) = 0.08171 0.12266
#
# Static dielectric constant tensor:
#      x y z
#    x 1.807930 0.000000 0.000000 
#    y 0.000000 1.762290 0.000000 
#    z 0.000000 0.000000 1.733430 
# 
# From -- ./inp_files/24462.got.cif
#   From: 2010.05.17/outbox.cif.g08.bks.cpg/sg60_13_cif.got.tgz:24462.got - 2010.06.03 14:59:27.
