data_PCOD9457038
_publ_section_title
;
Structure prediction by ZEFSAII (Michael W. Deem and Ramdas Pophale) SiO2 
 PCOD9457038
Probable space group: P B C N
;
_chemical_formula_sum "Si O2"
_cell_formula_units_Z 36
_cell_length_a 8.654309
_cell_length_b 21.866836
_cell_length_c 8.675890
_cell_angle_alpha 90.000000
_cell_angle_beta 90.000000
_cell_angle_gamma 90.000000
_cell_volume 1641.845860
_symmetry_space_group_name_H-M "P B C N"
_symmetry_group_IT_number 60
_symmetry_cell_setting 'orthorhombic'
loop_
_space_group_symop_operation_xyz
x,y,z
1/2-x,1/2-y,1/2+z
1/2+x,1/2-y,-z
-x,y,1/2-z
-x,-y,-z
1/2+x,1/2+y,1/2-z
1/2-x,1/2+y,z
x,-y,1/2+z
loop_
_atom_site_type_symbol
_atom_site_label
_atom_site_fract_x
_atom_site_fract_y
_atom_site_fract_z
Si Si1 0.000000 0.017152 0.250000
Si Si2 0.589723 0.809742 0.473744
Si Si3 0.744457 0.708861 0.654272
Si Si4 0.983976 0.566252 0.431026
Si Si5 0.142278 0.917224 0.456014
O O1 0.957224 0.059417 0.396963
O O2 0.876395 0.968469 0.178492
O O3 0.654580 0.770574 0.614376
O O4 0.698214 0.794897 0.329010
O O5 0.410692 0.793593 0.435836
O O6 0.596256 0.882245 0.501972
O O7 0.632617 0.651775 0.608923
O O8 0.812978 0.584012 0.477697
O O9 0.000000 0.564879 0.250000
O O10 0.000000 0.500000 0.500000
#
# Coordination Sequence:
#
# PCOD9457038 Si02
#       5
#     4   8   8   8   8
#     4  10  22  42  66  98 138 180 222 286 344 420
#     4  10  25  44  70  97 138 178 232 289 350 414
#     4  10  24  45  66 100 133 178 232 285 348 415
#     4  11  25  43  72  99 137 183 234 289 350 424
#     4  10  23  42  65  98 134 175 229 280 349 411
#
# _framework density 21.926541
#
# number of rings (size 3 to 8) (size 9 to 14) (size 15 to 20)
#    0.000    1.778    0.000    1.333   15.556    3.556 
#    4.000    0.000    0.000    0.000    0.000    0.000 
#    0.000    0.000    0.000    0.000    0.000    0.000 
#
# Total GULP energy -201001.638373 kJ/mol
# GULP energy per Si atom -5583.378844 kJ/mol
# Density = 2.187663 g / cm^3
# Si number density = 21.926541 Si / 1000 Ang^3
#
#
#
# Elastic Constant Matrix: (Units=GPa)
#
#
# Indices 1 2 3 4 5 6 
#
# 1 41.6103 44.4966 42.5484 0.0000 0.0000 0.0000
# 2 44.4966 142.1961 35.5945 0.0000 0.0000 0.0000
# 3 42.5484 35.5945 96.8494 0.0000 0.0000 0.0000
# 4 0.0000 0.0000 0.0000 43.0909 0.0000 0.0000
# 5 0.0000 0.0000 0.0000 0.0000 40.0139 0.0000
# 6 0.0000 0.0000 0.0000 0.0000 0.0000 42.8664
#
#
#
# Elastic Compliance Matrix: (Units=1/GPa)
#
#
# Indices 1 2 3 4 5 6 
#
# 1 0.060726 -0.013573 -0.021690 0.000000 0.000000 0.000000
# 2 -0.013573 0.010779 0.002002 0.000000 0.000000 0.000000
# 3 -0.021690 0.002002 0.019119 0.000000 0.000000 0.000000
# 4 0.000000 0.000000 0.000000 0.023207 0.000000 0.000000
# 5 0.000000 0.000000 0.000000 0.000000 0.024991 0.000000
# 6 0.000000 0.000000 0.000000 0.000000 0.000000 0.023328
#
#
# Mechanical properties :
#
#
# Convention : Reuss Voigt Hill
#
# Bulk Modulus (GPa) = 41.49320 58.43720 49.96520
# Shear Modulus (GPa) = 21.12312 35.72866 28.42589
#
# Velocity S-wave (km/s) = 3.10717 4.04105 3.60448
# Velocity P-wave (km/s) = 5.64247 6.96295 6.33720
#
# Compressibility (1/GPa) = 0.02410034
#
# Stress axis : x y z
#
# Youngs Moduli (GPa) = 16.46730 92.77356 52.30485
#
# Poissons Ratio (x) = 1.25924 1.13450
# Poissons Ratio (y) = 0.22352 -0.10469
# Poissons Ratio (z) = 0.35718 -0.18569
#
# Static dielectric constant tensor:
#      x y z
#    x 1.778980 0.000000 0.000000 
#    y 0.000000 1.894270 0.000000 
#    z 0.000000 0.000000 1.784250 
# 
# From -- ./inp_files/3698.got.cif
#   From: 2010.05.17/outbox.cif.g08.bks.cpg/sg60_2_cif.got.tgz:3698.got - 2010.06.03 14:59:27.
