data_PCOD9457166
_publ_section_title
;
Structure prediction by ZEFSAII (Michael W. Deem and Ramdas Pophale) SiO2 
 PCOD9457166
Probable space group: P B C N
;
_chemical_formula_sum "Si O2"
_cell_formula_units_Z 60
_cell_length_a 26.115435
_cell_length_b 8.917715
_cell_length_c 12.161499
_cell_angle_alpha 90.000000
_cell_angle_beta 90.000000
_cell_angle_gamma 90.000000
_cell_volume 2832.291580
_symmetry_space_group_name_H-M "P B C N"
_symmetry_group_IT_number 60
_symmetry_cell_setting 'orthorhombic'
loop_
_space_group_symop_operation_xyz
x,y,z
1/2-x,1/2-y,1/2+z
1/2+x,1/2-y,-z
-x,y,1/2-z
-x,-y,-z
1/2+x,1/2+y,1/2-z
1/2-x,1/2+y,z
x,-y,1/2+z
loop_
_atom_site_type_symbol
_atom_site_label
_atom_site_fract_x
_atom_site_fract_y
_atom_site_fract_z
Si Si1 0.319545 0.576203 0.341635
Si Si2 0.436810 0.105253 0.351183
Si Si3 0.661613 0.757050 0.615748
Si Si4 0.000000 0.958612 0.750000
Si Si5 0.250678 0.837569 0.041866
Si Si6 0.278846 0.905238 0.696275
Si Si7 0.079316 0.746641 0.879782
Si Si8 0.044619 0.760227 0.126001
O O1 0.342451 0.408925 0.334101
O O2 0.285327 0.584266 0.452229
O O3 0.278558 0.603681 0.245851
O O4 0.364340 0.697895 0.345129
O O5 0.392405 0.180454 0.423824
O O6 0.491714 0.166820 0.389683
O O7 0.429314 0.174043 0.228377
O O8 0.432186 0.926705 0.351875
O O9 0.705373 0.751660 0.524315
O O10 0.682795 0.877740 0.704170
O O11 0.961427 0.854459 0.681120
O O12 0.970061 0.073714 0.830981
O O13 0.215082 0.728450 0.111017
O O14 0.279654 0.944764 0.126784
O O15 0.073954 0.764175 0.011591
#
# Coordination Sequence:
#
# PCOD9457166 Si02
#       8
#     8   8   8   4   8   8   8   8
#     4  11  25  41  62  98 126 167 222 262 313 398
#     4  10  24  42  66  96 131 168 222 271 320 395
#     4  11  24  42  64  94 131 165 220 261 318 395
#     4  10  22  44  68  98 130 166 214 272 328 398
#     4  11  24  42  65  92 129 175 213 264 326 375
#     4  11  24  43  65  89 132 170 208 269 317 374
#     4  12  25  42  70  98 130 172 221 272 332 393
#     4  10  23  47  68  94 133 175 211 274 342 383
#
# _framework density 21.184259999999998
#
# number of rings (size 3 to 8) (size 9 to 14) (size 15 to 20)
#    0.000    1.333    2.667    3.200    5.600    1.067 
#    2.400    0.000    0.000    0.000    0.000    0.000 
#    0.000    0.000    0.000    0.000    0.000    0.000 
#
# Total GULP energy -335300.849766 kJ/mol
# GULP energy per Si atom -5588.347496 kJ/mol
# Density = 2.113604 g / cm^3
# Si number density = 21.184260 Si / 1000 Ang^3
#
#
#
# Elastic Constant Matrix: (Units=GPa)
#
#
# Indices 1 2 3 4 5 6 
#
# 1 80.7213 11.0717 -2.8572 0.0000 0.0000 0.0000
# 2 11.0717 112.1889 1.8886 0.0000 0.0000 0.0000
# 3 -2.8572 1.8886 50.4927 0.0000 0.0000 0.0000
# 4 0.0000 0.0000 0.0000 18.1728 0.0000 0.0000
# 5 0.0000 0.0000 0.0000 0.0000 4.0142 0.0000
# 6 0.0000 0.0000 0.0000 0.0000 0.0000 30.0785
#
#
#
# Elastic Compliance Matrix: (Units=1/GPa)
#
#
# Indices 1 2 3 4 5 6 
#
# 1 0.012587 -0.001255 0.000759 0.000000 0.000000 0.000000
# 2 -0.001255 0.009044 -0.000409 0.000000 0.000000 0.000000
# 3 0.000759 -0.000409 0.019863 0.000000 0.000000 0.000000
# 4 0.000000 0.000000 0.000000 0.055027 0.000000 0.000000
# 5 0.000000 0.000000 0.000000 0.000000 0.249118 0.000000
# 6 0.000000 0.000000 0.000000 0.000000 0.000000 0.033246
#
#
# Mechanical properties :
#
#
# Convention : Reuss Voigt Hill
#
# Bulk Modulus (GPa) = 25.19873 29.28989 27.24431
# Shear Modulus (GPa) = 12.69279 26.00640 19.34959
#
# Velocity S-wave (km/s) = 2.45043 3.50755 3.02552
# Velocity P-wave (km/s) = 4.46397 5.50093 5.00935
#
# Compressibility (1/GPa) = 0.03968454
#
# Stress axis : x y z
#
# Youngs Moduli (GPa) = 79.44508 110.56707 50.34458
#
# Poissons Ratio (x) = 0.13876 -0.03822
# Poissons Ratio (y) = 0.09970 0.02061
# Poissons Ratio (z) = -0.06032 0.04526
#
# Static dielectric constant tensor:
#      x y z
#    x 1.760160 0.000000 0.000000 
#    y 0.000000 1.732890 0.000000 
#    z 0.000000 0.000000 1.754400 
# 
# From -- ./inp_files/13280.got.cif
#   From: 2010.05.17/outbox.cif.g08.bks.cpg/sg60_7_cif.got.tgz:13280.got - 2010.06.03 14:59:27.
