data_PCOD9457485
_publ_section_title
;
Structure prediction by ZEFSAII (Michael W. Deem and Ramdas Pophale) SiO2 
 PCOD9457485
Probable space group: P B C N
;
_chemical_formula_sum "Si O2"
_cell_formula_units_Z 64
_cell_length_a 13.992185
_cell_length_b 14.266375
_cell_length_c 13.518263
_cell_angle_alpha 90.000000
_cell_angle_beta 90.000000
_cell_angle_gamma 90.000000
_cell_volume 2698.485356
_symmetry_space_group_name_H-M "P B C N"
_symmetry_group_IT_number 60
_symmetry_cell_setting 'orthorhombic'
loop_
_space_group_symop_operation_xyz
x,y,z
1/2-x,1/2-y,1/2+z
1/2+x,1/2-y,-z
-x,y,1/2-z
-x,-y,-z
1/2+x,1/2+y,1/2-z
1/2-x,1/2+y,z
x,-y,1/2+z
loop_
_atom_site_type_symbol
_atom_site_label
_atom_site_fract_x
_atom_site_fract_y
_atom_site_fract_z
Si Si1 0.804564 0.129724 0.911656
Si Si2 0.799674 0.340201 0.639455
Si Si3 0.721641 0.387411 0.836054
Si Si4 0.126751 0.444248 0.155677
Si Si5 0.590745 0.962699 0.117231
Si Si6 0.169526 0.712486 0.002203
Si Si7 0.104783 0.845118 0.293554
Si Si8 0.604313 0.542049 0.502304
O O1 0.688049 0.133418 0.901271
O O2 0.830439 0.114563 0.795873
O O3 0.889384 0.201505 0.951508
O O4 0.822237 0.043877 0.987818
O O5 0.719533 0.367533 0.721053
O O6 0.858147 0.435121 0.611334
O O7 0.740922 0.273715 0.564904
O O8 0.872082 0.264763 0.689044
O O9 0.802304 0.467642 0.846205
O O10 0.772211 0.306770 0.898133
O O11 0.626482 0.405037 0.898726
O O12 0.109608 0.424815 0.271325
O O13 0.024230 0.468030 0.108608
O O14 0.630237 0.880452 0.046111
O O15 0.121393 0.899707 0.397477
O O16 0.000000 0.858807 0.250000
O O17 0.500000 0.500000 0.500000
#
# Coordination Sequence:
#
# PCOD9457485 Si02
#       8
#     8   8   8   8   8   8   8   8
#     4  11  25  45  74 108 149 196 249 309 375 452
#     4  11  25  45  76 109 147 192 250 309 388 453
#     4  10  23  43  71 102 145 189 243 308 368 447
#     4   9  22  46  73  99 143 189 241 302 375 428
#     4  10  24  45  73 107 144 187 245 312 373 450
#     4  12  25  44  70 106 145 189 241 303 382 447
#     4  12  24  44  78 106 149 197 257 310 371 460
#     4  11  24  47  71 110 146 198 249 302 375 453
#
# _framework density 23.717009000000001
#
# number of rings (size 3 to 8) (size 9 to 14) (size 15 to 20)
#    0.000    1.250    3.750    0.750    7.000    2.500 
#    4.500    0.000    0.000    0.000    0.000    0.000 
#    0.000    0.000    0.000    0.000    0.000    0.000 
#
# Total GULP energy -356462.628871 kJ/mol
# GULP energy per Si atom -5569.728576 kJ/mol
# Density = 2.366303 g / cm^3
# Si number density = 23.717009 Si / 1000 Ang^3
#
#
#
# Elastic Constant Matrix: (Units=GPa)
#
#
# Indices 1 2 3 4 5 6 
#
# 1 103.7414 22.9961 49.6306 0.0000 0.0000 0.0000
# 2 22.9961 125.4439 62.7734 0.0000 0.0000 0.0000
# 3 49.6306 62.7734 135.8861 0.0000 0.0000 0.0000
# 4 0.0000 0.0000 0.0000 48.9617 0.0000 0.0000
# 5 0.0000 0.0000 0.0000 0.0000 28.8268 0.0000
# 6 0.0000 0.0000 0.0000 0.0000 0.0000 21.1012
#
#
#
# Elastic Compliance Matrix: (Units=1/GPa)
#
#
# Indices 1 2 3 4 5 6 
#
# 1 0.011680 -0.000008 -0.004262 0.000000 0.000000 0.000000
# 2 -0.000008 0.010369 -0.004787 0.000000 0.000000 0.000000
# 3 -0.004262 -0.004787 0.011127 0.000000 0.000000 0.000000
# 4 0.000000 0.000000 0.000000 0.020424 0.000000 0.000000
# 5 0.000000 0.000000 0.000000 0.000000 0.034690 0.000000
# 6 0.000000 0.000000 0.000000 0.000000 0.000000 0.047391
#
#
# Mechanical properties :
#
#
# Convention : Reuss Voigt Hill
#
# Bulk Modulus (GPa) = 66.39540 70.65239 68.52389
# Shear Modulus (GPa) = 31.48301 35.08935 33.28618
#
# Velocity S-wave (km/s) = 3.64736 3.85060 3.75036
# Velocity P-wave (km/s) = 6.76707 7.04443 6.90714
#
# Compressibility (1/GPa) = 0.01506128
#
# Stress axis : x y z
#
# Youngs Moduli (GPa) = 85.61439 96.44525 89.87064
#
# Poissons Ratio (x) = 0.00081 0.38305
# Poissons Ratio (y) = 0.00071 0.43019
# Poissons Ratio (z) = 0.36491 0.46166
#
# Static dielectric constant tensor:
#      x y z
#    x 1.944240 0.000000 0.000000 
#    y 0.000000 2.670980 0.000000 
#    z 0.000000 0.000000 2.078980 
# 
# From -- ./inp_files/12562.got.cif
#   From: 2010.05.17/outbox.cif.g08.bks.cpg/sg60_7_cif.got.tgz:12562.got - 2010.06.03 14:59:27.
