data_PCOD9457347
_publ_section_title
;
Structure prediction by ZEFSAII (Michael W. Deem and Ramdas Pophale) SiO2 
 PCOD9457347
Probable space group: P B C N
;
_chemical_formula_sum "Si O2"
_cell_formula_units_Z 40
_cell_length_a 7.659407
_cell_length_b 23.109384
_cell_length_c 10.007862
_cell_angle_alpha 90.000000
_cell_angle_beta 90.000000
_cell_angle_gamma 90.000000
_cell_volume 1771.433383
_symmetry_space_group_name_H-M "P B C N"
_symmetry_group_IT_number 60
_symmetry_cell_setting 'orthorhombic'
loop_
_space_group_symop_operation_xyz
x,y,z
1/2-x,1/2-y,1/2+z
1/2+x,1/2-y,-z
-x,y,1/2-z
-x,-y,-z
1/2+x,1/2+y,1/2-z
1/2-x,1/2+y,z
x,-y,1/2+z
loop_
_atom_site_type_symbol
_atom_site_label
_atom_site_fract_x
_atom_site_fract_y
_atom_site_fract_z
Si Si1 0.130005 0.998609 0.874075
Si Si2 0.245789 0.186336 0.045411
Si Si3 0.201900 0.619179 0.298619
Si Si4 0.808973 0.119430 0.699813
Si Si5 0.853266 0.315628 0.445452
O O1 0.243950 0.057876 0.865150
O O2 0.000000 0.991213 0.750000
O O3 0.251888 0.942651 0.860680
O O4 0.000000 0.000000 0.000000
O O5 0.205242 0.141375 0.163830
O O6 0.445335 0.182818 0.991496
O O7 0.151023 0.167925 0.910634
O O8 0.202172 0.250784 0.090479
O O9 0.240273 0.663797 0.418619
O O10 0.000000 0.620019 0.250000
O O11 0.000000 0.104941 0.750000
O O12 0.691483 0.143062 0.820551
#
# Coordination Sequence:
#
# PCOD9457347 Si02
#       5
#     8   8   8   8   8
#     4  11  23  41  64  92 123 163 210 257 308 367
#     4  11  23  40  63  91 124 164 207 254 313 372
#     4  10  23  41  62  90 126 162 204 256 313 370
#     4  11  23  40  61  89 124 162 207 258 307 368
#     4  11  23  40  62  92 124 163 207 257 312 373
#
# _framework density 22.580584999999999
#
# number of rings (size 3 to 8) (size 9 to 14) (size 15 to 20)
#    0.000    1.200    0.000    6.600    0.000    4.800 
#    0.000    5.000    0.000    0.000    0.000    0.000 
#    0.000    0.000    0.000    0.000    0.000    0.000 
#
# Total GULP energy -223369.338273 kJ/mol
# GULP energy per Si atom -5584.233457 kJ/mol
# Density = 2.252919 g / cm^3
# Si number density = 22.580585 Si / 1000 Ang^3
#
#
#
# Elastic Constant Matrix: (Units=GPa)
#
#
# Indices 1 2 3 4 5 6 
#
# 1 17.4442 5.0390 5.4337 0.0000 0.0000 0.0000
# 2 5.0390 129.4570 36.4973 0.0000 0.0000 0.0000
# 3 5.4337 36.4973 137.3445 0.0000 0.0000 0.0000
# 4 0.0000 0.0000 0.0000 27.2413 0.0000 0.0000
# 5 0.0000 0.0000 0.0000 0.0000 8.2316 0.0000
# 6 0.0000 0.0000 0.0000 0.0000 0.0000 27.5910
#
#
#
# Elastic Compliance Matrix: (Units=1/GPa)
#
#
# Indices 1 2 3 4 5 6 
#
# 1 0.058407 -0.001753 -0.001845 0.000000 0.000000 0.000000
# 2 -0.001753 0.008403 -0.002164 0.000000 0.000000 0.000000
# 3 -0.001845 -0.002164 0.007929 0.000000 0.000000 0.000000
# 4 0.000000 0.000000 0.000000 0.036709 0.000000 0.000000
# 5 0.000000 0.000000 0.000000 0.000000 0.121482 0.000000
# 6 0.000000 0.000000 0.000000 0.000000 0.000000 0.036244
#
#
# Mechanical properties :
#
#
# Convention : Reuss Voigt Hill
#
# Bulk Modulus (GPa) = 15.81904 42.02064 28.91984
# Shear Modulus (GPa) = 16.56899 28.43117 22.50008
#
# Velocity S-wave (km/s) = 2.71176 3.55223 3.16006
# Velocity P-wave (km/s) = 4.10191 5.95601 5.11369
#
# Compressibility (1/GPa) = 0.06321495
#
# Stress axis : x y z
#
# Youngs Moduli (GPa) = 17.12133 119.00818 126.12121
#
# Poissons Ratio (x) = 0.20866 0.23267
# Poissons Ratio (y) = 0.03002 0.27287
# Poissons Ratio (z) = 0.03159 0.25748
#
# Static dielectric constant tensor:
#      x y z
#    x 1.979730 0.000000 0.000000 
#    y 0.000000 1.891000 0.000000 
#    z 0.000000 0.000000 1.796010 
# 
# From -- ./inp_files/3812.got.cif
#   From: 2010.05.17/outbox.cif.g08.bks.cpg/sg60_2_cif.got.tgz:3812.got - 2010.06.03 14:59:27.
