data_PCOD9457455
_publ_section_title
;
Structure prediction by ZEFSAII (Michael W. Deem and Ramdas Pophale) SiO2 
 PCOD9457455
Probable space group: P B C N
;
_chemical_formula_sum "Si O2"
_cell_formula_units_Z 48
_cell_length_a 9.502283
_cell_length_b 9.100722
_cell_length_c 24.171885
_cell_angle_alpha 90.000000
_cell_angle_beta 90.000000
_cell_angle_gamma 90.000000
_cell_volume 2090.327471
_symmetry_space_group_name_H-M "P B C N"
_symmetry_group_IT_number 60
_symmetry_cell_setting 'orthorhombic'
loop_
_space_group_symop_operation_xyz
x,y,z
1/2-x,1/2-y,1/2+z
1/2+x,1/2-y,-z
-x,y,1/2-z
-x,-y,-z
1/2+x,1/2+y,1/2-z
1/2-x,1/2+y,z
x,-y,1/2+z
loop_
_atom_site_type_symbol
_atom_site_label
_atom_site_fract_x
_atom_site_fract_y
_atom_site_fract_z
Si Si1 0.695513 0.840668 0.795187
Si Si2 0.429644 0.542405 0.665186
Si Si3 0.278952 0.651160 0.869597
Si Si4 0.643653 0.911022 0.009436
Si Si5 0.903370 0.437687 0.673787
Si Si6 0.611948 0.586474 0.963592
O O1 0.654488 0.669943 0.802177
O O2 0.570480 0.919123 0.830039
O O3 0.657461 0.886173 0.732768
O O4 0.848236 0.894973 0.815947
O O5 0.599736 0.561185 0.665587
O O6 0.416469 0.580655 0.600794
O O7 0.228036 0.604854 0.931521
O O8 0.140087 0.604956 0.836219
O O9 0.330913 0.819234 0.867954
O O10 0.620222 0.748253 0.987513
O O11 0.500000 0.000000 0.000000
O O12 0.745897 0.000114 0.970648
O O13 0.500000 0.500000 0.000000
#
# Coordination Sequence:
#
# PCOD9457455 Si02
#       6
#     8   8   8   8   8   8
#     4  10  23  43  68  98 136 179 227 283 340 405
#     4  11  24  43  69  97 138 180 228 278 345 406
#     4  11  24  42  69  97 135 179 226 279 341 410
#     4  12  27  44  73 100 141 183 230 285 348 411
#     4  10  23  43  67 100 135 177 230 282 340 407
#     4  12  25  46  68 105 140 180 231 285 341 422
#
# _framework density 22.962909
#
# number of rings (size 3 to 8) (size 9 to 14) (size 15 to 20)
#    0.000    1.000    1.667    4.000    7.000    3.333 
#    0.000    0.000    0.000    0.000    0.000    0.000 
#    0.000    0.000    0.000    0.000    0.000    0.000 
#
# Total GULP energy -267809.119138 kJ/mol
# GULP energy per Si atom -5579.356649 kJ/mol
# Density = 2.291064 g / cm^3
# Si number density = 22.962909 Si / 1000 Ang^3
#
#
#
# Elastic Constant Matrix: (Units=GPa)
#
#
# Indices 1 2 3 4 5 6 
#
# 1 93.6277 29.5949 -10.4238 0.0000 0.0000 0.0000
# 2 29.5949 81.2996 -0.4333 0.0000 0.0000 0.0000
# 3 -10.4238 -0.4333 75.8472 0.0000 0.0000 0.0000
# 4 0.0000 0.0000 0.0000 30.2088 0.0000 0.0000
# 5 0.0000 0.0000 0.0000 0.0000 24.0250 0.0000
# 6 0.0000 0.0000 0.0000 0.0000 0.0000 41.0462
#
#
#
# Elastic Compliance Matrix: (Units=1/GPa)
#
#
# Indices 1 2 3 4 5 6 
#
# 1 0.012275 -0.004460 0.001662 0.000000 0.000000 0.000000
# 2 -0.004460 0.013921 -0.000533 0.000000 0.000000 0.000000
# 3 0.001662 -0.000533 0.013410 0.000000 0.000000 0.000000
# 4 0.000000 0.000000 0.000000 0.033103 0.000000 0.000000
# 5 0.000000 0.000000 0.000000 0.000000 0.041623 0.000000
# 6 0.000000 0.000000 0.000000 0.000000 0.000000 0.024363
#
#
# Mechanical properties :
#
#
# Convention : Reuss Voigt Hill
#
# Bulk Modulus (GPa) = 30.35568 32.02780 31.19174
# Shear Modulus (GPa) = 31.98188 34.52512 33.25350
#
# Velocity S-wave (km/s) = 3.73602 3.88173 3.80957
# Velocity P-wave (km/s) = 5.64434 5.83681 5.74138
#
# Compressibility (1/GPa) = 0.03294277
#
# Stress axis : x y z
#
# Youngs Moduli (GPa) = 81.46492 71.83525 74.57290
#
# Poissons Ratio (x) = 0.32036 -0.12391
# Poissons Ratio (y) = 0.36330 0.03978
# Poissons Ratio (z) = -0.13536 0.03831
#
# Static dielectric constant tensor:
#      x y z
#    x 1.733500 0.000000 0.000000 
#    y 0.000000 1.846560 0.000000 
#    z 0.000000 0.000000 1.887220 
# 
# From -- ./inp_files/25958.got.cif
#   From: 2010.05.17/outbox.cif.g08.bks.cpg/sg60_13_cif.got.tgz:25958.got - 2010.06.03 14:59:27.
