data_PCOD9457430
_publ_section_title
;
Structure prediction by ZEFSAII (Michael W. Deem and Ramdas Pophale) SiO2 
 PCOD9457430
Probable space group: P B C N
;
_chemical_formula_sum "Si O2"
_cell_formula_units_Z 36
_cell_length_a 8.343687
_cell_length_b 14.378895
_cell_length_c 12.554594
_cell_angle_alpha 90.000000
_cell_angle_beta 90.000000
_cell_angle_gamma 90.000000
_cell_volume 1506.212297
_symmetry_space_group_name_H-M "P B C N"
_symmetry_group_IT_number 60
_symmetry_cell_setting 'orthorhombic'
loop_
_space_group_symop_operation_xyz
x,y,z
1/2-x,1/2-y,1/2+z
1/2+x,1/2-y,-z
-x,y,1/2-z
-x,-y,-z
1/2+x,1/2+y,1/2-z
1/2-x,1/2+y,z
x,-y,1/2+z
loop_
_atom_site_type_symbol
_atom_site_label
_atom_site_fract_x
_atom_site_fract_y
_atom_site_fract_z
Si Si1 0.011501 0.547038 0.627649
Si Si2 0.334851 0.860110 0.685706
Si Si3 0.725258 0.325959 0.413737
Si Si4 0.819544 0.061480 0.114499
Si Si5 0.000000 0.920303 0.250000
O O1 0.135142 0.460115 0.631914
O O2 0.093952 0.634840 0.573110
O O3 0.000000 0.576241 0.750000
O O4 0.844231 0.499358 0.596397
O O5 0.500000 0.837712 0.750000
O O6 0.287343 0.783839 0.599887
O O7 0.211178 0.874465 0.781690
O O8 0.641019 0.373298 0.515199
O O9 0.643667 0.361925 0.303367
O O10 0.944702 0.985781 0.153495
#
# Coordination Sequence:
#
# PCOD9457430 Si02
#       5
#     8   8   8   8   4
#     4   9  19  43  64  85 130 156 203 263 306 373
#     4   9  20  42  60  89 132 156 202 265 306 375
#     4  12  21  41  70  89 121 176 204 256 332 365
#     4  10  23  43  62  95 127 166 211 262 314 374
#     4  12  22  42  64  90 132 158 218 270 302 374
#
# _framework density 23.901012999999999
#
# number of rings (size 3 to 8) (size 9 to 14) (size 15 to 20)
#    0.000    2.222    5.556    1.333    0.000    0.000 
#   14.000    0.000    0.000    0.000    0.000    0.000 
#    0.000    0.000    0.000    0.000    0.000    0.000 
#
# Total GULP energy -200990.453024 kJ/mol
# GULP energy per Si atom -5583.068140 kJ/mol
# Density = 2.384661 g / cm^3
# Si number density = 23.901013 Si / 1000 Ang^3
#
#
#
# Elastic Constant Matrix: (Units=GPa)
#
#
# Indices 1 2 3 4 5 6 
#
# 1 48.5794 24.7134 2.6035 0.0000 0.0000 0.0000
# 2 24.7134 55.8217 -13.3597 0.0000 0.0000 0.0000
# 3 2.6035 -13.3597 68.2425 0.0000 0.0000 0.0000
# 4 0.0000 0.0000 0.0000 23.9129 0.0000 0.0000
# 5 0.0000 0.0000 0.0000 0.0000 0.4812 0.0000
# 6 0.0000 0.0000 0.0000 0.0000 0.0000 -1.4279
#
#
#
# Elastic Compliance Matrix: (Units=1/GPa)
#
#
# Indices 1 2 3 4 5 6 
#
# 1 0.027380 -0.012980 -0.003586 0.000000 0.000000 0.000000
# 2 -0.012980 0.024948 0.005379 0.000000 0.000000 0.000000
# 3 -0.003586 0.005379 0.015843 0.000000 0.000000 0.000000
# 4 0.000000 0.000000 0.000000 0.041818 0.000000 0.000000
# 5 0.000000 0.000000 0.000000 0.000000 2.078298 0.000000
# 6 0.000000 0.000000 0.000000 0.000000 0.000000 -0.700348
#
#
# Mechanical properties :
#
#
# Convention : Reuss Voigt Hill
#
# Bulk Modulus (GPa) = 21.83447 22.28421 22.05934
# Shear Modulus (GPa) = 3.27745 15.17234 9.22489
#
# Velocity S-wave (km/s) = 1.17228 2.52226 1.96672
# Velocity P-wave (km/s) = 3.31474 4.22210 3.79563
#
# Compressibility (1/GPa) = 0.04579915
#
# Stress axis : x y z
#
# Youngs Moduli (GPa) = 36.52278 40.08324 63.11737
#
# Poissons Ratio (x) = 0.52028 0.22631
# Poissons Ratio (y) = 0.47406 -0.33952
# Poissons Ratio (z) = 0.13096 -0.21562
#
# Static dielectric constant tensor:
#      x y z
#    x 2.002750 0.000000 0.000000 
#    y 0.000000 1.879980 0.000000 
#    z 0.000000 0.000000 1.964060 
# 
# From -- ./inp_files/14559.got.cif
#   From: 2010.05.17/outbox.cif.g08.bks.cpg/sg60_8_cif.got.tgz:14559.got - 2010.06.03 14:59:27.
