data_PCOD9457176
_publ_section_title
;
Structure prediction by ZEFSAII (Michael W. Deem and Ramdas Pophale) SiO2 
 PCOD9457176
Probable space group: P B C N
;
_chemical_formula_sum "Si O2"
_cell_formula_units_Z 48
_cell_length_a 13.771153
_cell_length_b 13.280229
_cell_length_c 11.087948
_cell_angle_alpha 90.000000
_cell_angle_beta 90.000000
_cell_angle_gamma 90.000000
_cell_volume 2027.809008
_symmetry_space_group_name_H-M "P B C N"
_symmetry_group_IT_number 60
_symmetry_cell_setting 'orthorhombic'
loop_
_space_group_symop_operation_xyz
x,y,z
1/2-x,1/2-y,1/2+z
1/2+x,1/2-y,-z
-x,y,1/2-z
-x,-y,-z
1/2+x,1/2+y,1/2-z
1/2-x,1/2+y,z
x,-y,1/2+z
loop_
_atom_site_type_symbol
_atom_site_label
_atom_site_fract_x
_atom_site_fract_y
_atom_site_fract_z
Si Si1 0.854403 0.050368 0.829276
Si Si2 0.168513 0.632129 0.648038
Si Si3 0.466800 0.140655 0.416855
Si Si4 0.303263 0.732415 0.809642
Si Si5 0.000000 0.118660 0.250000
Si Si6 0.882974 0.215198 0.033848
Si Si7 0.000000 0.460686 0.250000
O O1 0.740515 0.036327 0.856871
O O2 0.849970 0.119991 0.706820
O O3 0.884687 0.119582 0.942416
O O4 0.919155 0.954480 0.808393
O O5 0.104542 0.641728 0.531350
O O6 0.235482 0.726021 0.688963
O O7 0.094229 0.607780 0.753840
O O8 0.395626 0.195156 0.319366
O O9 0.562073 0.198895 0.459555
O O10 0.495663 0.033614 0.364162
O O11 0.224279 0.756874 0.914048
O O12 0.949087 0.183281 0.146992
#
# Coordination Sequence:
#
# PCOD9457176 Si02
#       7
#     8   8   8   8   4   8   4
#     4  10  24  44  66 102 136 176 229 274 347 408
#     4  10  24  44  66 102 136 176 229 274 347 408
#     4  12  24  45  70 103 136 183 231 283 345 415
#     4  10  22  44  70  96 142 174 226 284 336 408
#     4  12  26  44  72  98 144 178 228 290 348 408
#     4  12  24  45  70 103 136 183 231 283 345 415
#     4  12  26  44  72  98 144 178 228 290 348 408
#
# _framework density 23.670870000000001
#
# number of rings (size 3 to 8) (size 9 to 14) (size 15 to 20)
#    1.000    0.000    1.667    5.000    2.333    0.000 
#    9.000    0.000    0.000    0.000    0.000    0.000 
#    0.000    0.000    0.000    0.000    0.000    0.000 
#
# Total GULP energy -267863.583070 kJ/mol
# GULP energy per Si atom -5580.491314 kJ/mol
# Density = 2.361699 g / cm^3
# Si number density = 23.670870 Si / 1000 Ang^3
#
#
#
# Elastic Constant Matrix: (Units=GPa)
#
#
# Indices 1 2 3 4 5 6 
#
# 1 117.2164 35.7105 27.6297 0.0000 0.0000 0.0000
# 2 35.7105 72.0202 38.4806 0.0000 0.0000 0.0000
# 3 27.6297 38.4806 111.4452 0.0000 0.0000 0.0000
# 4 0.0000 0.0000 0.0000 0.4836 0.0000 0.0000
# 5 0.0000 0.0000 0.0000 0.0000 40.9206 0.0000
# 6 0.0000 0.0000 0.0000 0.0000 0.0000 10.0263
#
#
#
# Elastic Compliance Matrix: (Units=1/GPa)
#
#
# Indices 1 2 3 4 5 6 
#
# 1 0.010131 -0.004514 -0.000953 0.000000 0.000000 0.000000
# 2 -0.004514 0.019038 -0.005454 0.000000 0.000000 0.000000
# 3 -0.000953 -0.005454 0.011093 0.000000 0.000000 0.000000
# 4 0.000000 0.000000 0.000000 2.067783 0.000000 0.000000
# 5 0.000000 0.000000 0.000000 0.000000 0.024438 0.000000
# 6 0.000000 0.000000 0.000000 0.000000 0.000000 0.099738
#
#
# Mechanical properties :
#
#
# Convention : Reuss Voigt Hill
#
# Bulk Modulus (GPa) = 54.29389 56.03592 55.16491
# Shear Modulus (GPa) = 2.21219 23.54350 12.87785
#
# Velocity S-wave (km/s) = 0.96778 3.15718 2.33499
# Velocity P-wave (km/s) = 4.92297 6.08397 5.53400
#
# Compressibility (1/GPa) = 0.01841828
#
# Stress axis : x y z
#
# Youngs Moduli (GPa) = 98.70548 52.52779 90.15038
#
# Poissons Ratio (x) = 0.23712 0.08592
# Poissons Ratio (y) = 0.44558 0.49170
# Poissons Ratio (z) = 0.09407 0.28650
#
# Static dielectric constant tensor:
#      x y z
#    x 1.915050 0.000000 0.000000 
#    y 0.000000 1.874410 0.000000 
#    z 0.000000 0.000000 2.048180 
# 
# From -- ./inp_files/11917.got.cif
#   From: 2010.05.17/outbox.cif.g08.bks.cpg/sg60_6_cif.got.tgz:11917.got - 2010.06.03 14:59:27.
