data_PCOD9457307
_publ_section_title
;
Structure prediction by ZEFSAII (Michael W. Deem and Ramdas Pophale) SiO2 
 PCOD9457307
Probable space group: P B C N
;
_chemical_formula_sum "Si O2"
_cell_formula_units_Z 64
_cell_length_a 14.644891
_cell_length_b 19.523092
_cell_length_c 10.711875
_cell_angle_alpha 90.000000
_cell_angle_beta 90.000000
_cell_angle_gamma 90.000000
_cell_volume 3062.670255
_symmetry_space_group_name_H-M "P B C N"
_symmetry_group_IT_number 60
_symmetry_cell_setting 'orthorhombic'
loop_
_space_group_symop_operation_xyz
x,y,z
1/2-x,1/2-y,1/2+z
1/2+x,1/2-y,-z
-x,y,1/2-z
-x,-y,-z
1/2+x,1/2+y,1/2-z
1/2-x,1/2+y,z
x,-y,1/2+z
loop_
_atom_site_type_symbol
_atom_site_label
_atom_site_fract_x
_atom_site_fract_y
_atom_site_fract_z
Si Si1 0.376631 0.369718 0.961970
Si Si2 0.947312 0.695384 0.087096
Si Si3 0.703785 0.997422 0.335760
Si Si4 0.322943 0.485285 0.412278
Si Si5 0.807989 0.344121 0.378058
Si Si6 0.377125 0.865008 0.665437
Si Si7 0.424960 0.656206 0.950004
Si Si8 0.821924 0.196669 0.297567
O O1 0.388709 0.449800 0.927467
O O2 0.362134 0.329618 0.832569
O O3 0.285849 0.353719 0.043128
O O4 0.466981 0.353024 0.037997
O O5 0.911442 0.646972 0.195211
O O6 0.917603 0.772401 0.124483
O O7 0.055046 0.679459 0.079309
O O8 0.892145 0.675460 0.965930
O O9 0.762180 0.004970 0.208443
O O10 0.672546 0.919105 0.326253
O O11 0.765181 0.010771 0.459231
O O12 0.625484 0.053772 0.352838
O O13 0.372133 0.411278 0.401582
O O14 0.802260 0.278043 0.289831
O O15 0.273695 0.838595 0.665222
O O16 0.387967 0.674785 0.088703
#
# Coordination Sequence:
#
# PCOD9457307 Si02
#       8
#     8   8   8   8   8   8   8   8
#     4  11  21  41  64  92 139 174 217 280 346 410
#     4  10  23  40  66  93 129 170 231 278 342 393
#     4  11  23  42  70  98 133 178 230 273 342 404
#     4  11  22  42  65 104 135 178 221 273 340 413
#     4  10  23  39  62  98 129 171 232 284 323 406
#     4  11  20  42  66  89 127 179 215 279 339 408
#     4  11  23  39  63 101 130 173 222 279 336 421
#     4  11  21  39  66  91 131 179 217 278 353 398
#
# _framework density 20.896798
#
# number of rings (size 3 to 8) (size 9 to 14) (size 15 to 20)
#    0.000    1.250    3.750    2.250    1.750    0.500 
#    4.500    2.500    5.500    0.000    0.000    0.000 
#    0.000    0.000    0.000    0.000    0.000    0.000 
#
# Total GULP energy -357045.814898 kJ/mol
# GULP energy per Si atom -5578.840858 kJ/mol
# Density = 2.084924 g / cm^3
# Si number density = 20.896798 Si / 1000 Ang^3
#
#
#
# Elastic Constant Matrix: (Units=GPa)
#
#
# Indices 1 2 3 4 5 6 
#
# 1 41.9851 13.9910 9.8271 0.0000 0.0000 0.0000
# 2 13.9910 143.4363 4.4860 0.0000 0.0000 0.0000
# 3 9.8271 4.4860 41.9014 0.0000 0.0000 0.0000
# 4 0.0000 0.0000 0.0000 30.5347 0.0000 0.0000
# 5 0.0000 0.0000 0.0000 0.0000 8.8924 0.0000
# 6 0.0000 0.0000 0.0000 0.0000 0.0000 26.5588
#
#
#
# Elastic Compliance Matrix: (Units=1/GPa)
#
#
# Indices 1 2 3 4 5 6 
#
# 1 0.025968 -0.002350 -0.005839 0.000000 0.000000 0.000000
# 2 -0.002350 0.007208 -0.000220 0.000000 0.000000 0.000000
# 3 -0.005839 -0.000220 0.025258 0.000000 0.000000 0.000000
# 4 0.000000 0.000000 0.000000 0.032750 0.000000 0.000000
# 5 0.000000 0.000000 0.000000 0.000000 0.112455 0.000000
# 6 0.000000 0.000000 0.000000 0.000000 0.000000 0.037652
#
#
# Mechanical properties :
#
#
# Convention : Reuss Voigt Hill
#
# Bulk Modulus (GPa) = 24.02958 31.54789 27.78874
# Shear Modulus (GPa) = 18.38358 26.46509 22.42433
#
# Velocity S-wave (km/s) = 2.96924 3.56261 3.27937
# Velocity P-wave (km/s) = 4.82487 5.66151 5.25985
#
# Compressibility (1/GPa) = 0.04161537
#
# Stress axis : x y z
#
# Youngs Moduli (GPa) = 38.50929 138.73693 39.59070
#
# Poissons Ratio (x) = 0.32608 0.23115
# Poissons Ratio (y) = 0.09051 0.00873
# Poissons Ratio (z) = 0.22484 0.03059
#
# Static dielectric constant tensor:
#      x y z
#    x 1.382350 0.000000 0.000000 
#    y 0.000000 1.800850 0.000000 
#    z 0.000000 0.000000 1.819440 
# 
# From -- ./inp_files/12150.got.cif
#   From: 2010.05.17/outbox.cif.g08.bks.cpg/sg60_7_cif.got.tgz:12150.got - 2010.06.03 14:59:27.
