data_PCOD9457956
_publ_section_title
;
Structure prediction by ZEFSAII (Michael W. Deem and Ramdas Pophale) SiO2 
 PCOD9457956
Probable space group: P B C N
;
_chemical_formula_sum "Si O2"
_cell_formula_units_Z 40
_cell_length_a 5.859583
_cell_length_b 26.964805
_cell_length_c 10.400211
_cell_angle_alpha 90.000000
_cell_angle_beta 90.000000
_cell_angle_gamma 90.000000
_cell_volume 1643.259473
_symmetry_space_group_name_H-M "P B C N"
_symmetry_group_IT_number 60
_symmetry_cell_setting 'orthorhombic'
loop_
_space_group_symop_operation_xyz
x,y,z
1/2-x,1/2-y,1/2+z
1/2+x,1/2-y,-z
-x,y,1/2-z
-x,-y,-z
1/2+x,1/2+y,1/2-z
1/2-x,1/2+y,z
x,-y,1/2+z
loop_
_atom_site_type_symbol
_atom_site_label
_atom_site_fract_x
_atom_site_fract_y
_atom_site_fract_z
Si Si1 0.860661 0.228218 0.130910
Si Si2 0.167196 0.510230 0.120680
Si Si3 0.563587 0.137136 0.110370
Si Si4 0.327592 0.674057 0.928742
Si Si5 0.040726 0.922488 0.030390
O O1 0.644827 0.193530 0.124750
O O2 0.803918 0.285582 0.155409
O O3 0.000000 0.208047 0.250000
O O4 0.010832 0.212190 0.008478
O O5 0.339829 0.463271 0.121102
O O6 0.000000 0.512914 0.250000
O O7 0.345667 0.552816 0.064234
O O8 0.000000 0.500000 0.000000
O O9 0.500000 0.118391 0.250000
O O10 0.355654 0.145747 0.016086
O O11 0.761027 0.101696 0.058157
O O12 0.466849 0.626007 0.888218
#
# Coordination Sequence:
#
# PCOD9457956 Si02
#       5
#     8   8   8   8   8
#     4  11  22  39  64  96 141 194 238 293 357 429
#     4  11  26  53  81 108 150 192 248 323 389 453
#     4  11  22  40  69 102 143 188 250 304 358 436
#     4  11  22  40  66  99 148 184 244 296 362 440
#     4  10  26  45  75 112 141 194 249 314 381 460
#
# _framework density 24.341867000000001
#
# number of rings (size 3 to 8) (size 9 to 14) (size 15 to 20)
#    0.000    1.200    4.000    1.200    0.000    8.000 
#    0.000    6.000    4.400    1.200    0.000    0.000 
#    0.000    0.000    0.000    0.000    0.000    0.000 
#
# Total GULP energy -222905.476692 kJ/mol
# GULP energy per Si atom -5572.636917 kJ/mol
# Density = 2.428646 g / cm^3
# Si number density = 24.341867 Si / 1000 Ang^3
#
#
#
# Elastic Constant Matrix: (Units=GPa)
#
#
# Indices 1 2 3 4 5 6 
#
# 1 104.6712 63.1871 50.9806 0.0000 0.0000 0.0000
# 2 63.1871 210.3231 26.8989 0.0000 0.0000 0.0000
# 3 50.9806 26.8989 107.5876 0.0000 0.0000 0.0000
# 4 0.0000 0.0000 0.0000 11.5543 0.0000 0.0000
# 5 0.0000 0.0000 0.0000 0.0000 26.3787 0.0000
# 6 0.0000 0.0000 0.0000 0.0000 0.0000 187.9720
#
#
#
# Elastic Compliance Matrix: (Units=1/GPa)
#
#
# Indices 1 2 3 4 5 6 
#
# 1 0.014702 -0.003642 -0.006056 0.000000 0.000000 0.000000
# 2 -0.003642 0.005814 0.000272 0.000000 0.000000 0.000000
# 3 -0.006056 0.000272 0.012096 0.000000 0.000000 0.000000
# 4 0.000000 0.000000 0.000000 0.086548 0.000000 0.000000
# 5 0.000000 0.000000 0.000000 0.000000 0.037909 0.000000
# 6 0.000000 0.000000 0.000000 0.000000 0.000000 0.005320
#
#
# Mechanical properties :
#
#
# Convention : Reuss Voigt Hill
#
# Bulk Modulus (GPa) = 72.67232 78.30168 75.48700
# Shear Modulus (GPa) = 26.90647 63.94867 45.42757
#
# Velocity S-wave (km/s) = 3.32830 5.13109 4.32468
# Velocity P-wave (km/s) = 6.68504 8.20618 7.48436
#
# Compressibility (1/GPa) = 0.01376040
#
# Stress axis : x y z
#
# Youngs Moduli (GPa) = 68.01721 171.99712 82.66993
#
# Poissons Ratio (x) = 0.62649 0.50065
# Poissons Ratio (y) = 0.24775 -0.02252
# Poissons Ratio (z) = 0.41191 -0.04684
#
# Static dielectric constant tensor:
#      x y z
#    x 1.868800 0.000000 0.000000 
#    y 0.000000 2.088490 0.000000 
#    z 0.000000 0.000000 1.940790 
# 
# From -- ./inp_files/9087.got.cif
#   From: 2010.05.17/outbox.cif.g08.bks.cpg/sg60_5_cif.got.tgz:9087.got - 2010.06.03 14:59:27.
