data_PCOD9457880
_publ_section_title
;
Structure prediction by ZEFSAII (Michael W. Deem and Ramdas Pophale) SiO2 
 PCOD9457880
Probable space group: P B C N
;
_chemical_formula_sum "Si O2"
_cell_formula_units_Z 36
_cell_length_a 6.782992
_cell_length_b 8.685699
_cell_length_c 23.463140
_cell_angle_alpha 90.000000
_cell_angle_beta 90.000000
_cell_angle_gamma 90.000000
_cell_volume 1382.331523
_symmetry_space_group_name_H-M "P B C N"
_symmetry_group_IT_number 60
_symmetry_cell_setting 'orthorhombic'
loop_
_space_group_symop_operation_xyz
x,y,z
1/2-x,1/2-y,1/2+z
1/2+x,1/2-y,-z
-x,y,1/2-z
-x,-y,-z
1/2+x,1/2+y,1/2-z
1/2-x,1/2+y,z
x,-y,1/2+z
loop_
_atom_site_type_symbol
_atom_site_label
_atom_site_fract_x
_atom_site_fract_y
_atom_site_fract_z
Si Si1 0.920189 0.401387 0.372593
Si Si2 0.708899 0.937910 0.545513
Si Si3 0.236501 0.166273 0.198859
Si Si4 0.356770 0.676419 0.032053
Si Si5 0.500000 0.419493 0.250000
O O1 0.943065 0.276754 0.321693
O O2 0.798557 0.545254 0.349482
O O3 0.112945 0.472466 0.402202
O O4 0.806879 0.298470 0.419427
O O5 0.940042 0.899783 0.552614
O O6 0.617402 0.775780 0.526084
O O7 0.707945 0.048129 0.489852
O O8 0.410979 0.291218 0.206836
O O9 0.177943 0.047615 0.250087
#
# Coordination Sequence:
#
# PCOD9457880 Si02
#       5
#     8   8   8   8   4
#     4  11  23  46  69 108 138 192 235 304 335 444
#     4  11  24  42  66  94 147 191 243 283 343 402
#     4  10  25  50  81 102 148 172 248 294 388 441
#     4  11  23  43  64  98 142 198 235 289 340 407
#     4  10  24  54  78 112 138 194 216 322 388 464
#
# _framework density 26.042954000000002
#
# number of rings (size 3 to 8) (size 9 to 14) (size 15 to 20)
#    0.000    1.333    2.222    2.000    3.111    3.556 
#   16.000    0.000    0.000    0.000    0.000    0.000 
#    0.000    0.000    0.000    0.000    0.000    0.000 
#
# Total GULP energy -200524.746797 kJ/mol
# GULP energy per Si atom -5570.131855 kJ/mol
# Density = 2.598368 g / cm^3
# Si number density = 26.042954 Si / 1000 Ang^3
#
#
#
# Elastic Constant Matrix: (Units=GPa)
#
#
# Indices 1 2 3 4 5 6 
#
# 1 82.8944 59.7881 31.3949 0.0000 0.0000 0.0000
# 2 59.7881 224.1958 69.6609 0.0000 0.0000 0.0000
# 3 31.3949 69.6609 62.6379 0.0000 0.0000 0.0000
# 4 0.0000 0.0000 0.0000 59.2977 0.0000 0.0000
# 5 0.0000 0.0000 0.0000 0.0000 34.2565 0.0000
# 6 0.0000 0.0000 0.0000 0.0000 0.0000 53.4374
#
#
#
# Elastic Compliance Matrix: (Units=1/GPa)
#
#
# Indices 1 2 3 4 5 6 
#
# 1 0.015888 -0.002693 -0.004968 0.000000 0.000000 0.000000
# 2 -0.002693 0.007272 -0.006738 0.000000 0.000000 0.000000
# 3 -0.004968 -0.006738 0.025948 0.000000 0.000000 0.000000
# 4 0.000000 0.000000 0.000000 0.016864 0.000000 0.000000
# 5 0.000000 0.000000 0.000000 0.000000 0.029192 0.000000
# 6 0.000000 0.000000 0.000000 0.000000 0.000000 0.018713
#
#
# Mechanical properties :
#
#
# Convention : Reuss Voigt Hill
#
# Bulk Modulus (GPa) = 49.23661 76.82397 63.03029
# Shear Modulus (GPa) = 33.45746 43.32394 38.39070
#
# Velocity S-wave (km/s) = 3.58816 4.08310 3.84361
# Velocity P-wave (km/s) = 6.00945 7.19666 6.62968
#
# Compressibility (1/GPa) = 0.02031009
#
# Stress axis : x y z
#
# Youngs Moduli (GPa) = 62.94232 137.51243 38.53919
#
# Poissons Ratio (x) = 0.37036 0.19145
# Poissons Ratio (y) = 0.16952 0.25966
# Poissons Ratio (z) = 0.31268 0.92649
#
# Static dielectric constant tensor:
#      x y z
#    x 2.162160 0.000000 0.000000 
#    y 0.000000 2.152860 0.000000 
#    z 0.000000 0.000000 2.189820 
# 
# From -- ./inp_files/25104.got.cif
#   From: 2010.05.17/outbox.cif.g08.bks.cpg/sg60_13_cif.got.tgz:25104.got - 2010.06.03 14:59:27.
