data_PCOD9457550
_publ_section_title
;
Structure prediction by ZEFSAII (Michael W. Deem and Ramdas Pophale) SiO2 
 PCOD9457550
Probable space group: P B C N
;
_chemical_formula_sum "Si O2"
_cell_formula_units_Z 52
_cell_length_a 10.184958
_cell_length_b 9.682171
_cell_length_c 25.449984
_cell_angle_alpha 90.000000
_cell_angle_beta 90.000000
_cell_angle_gamma 90.000000
_cell_volume 2509.686674
_symmetry_space_group_name_H-M "P B C N"
_symmetry_group_IT_number 60
_symmetry_cell_setting 'orthorhombic'
loop_
_space_group_symop_operation_xyz
x,y,z
1/2-x,1/2-y,1/2+z
1/2+x,1/2-y,-z
-x,y,1/2-z
-x,-y,-z
1/2+x,1/2+y,1/2-z
1/2-x,1/2+y,z
x,-y,1/2+z
loop_
_atom_site_type_symbol
_atom_site_label
_atom_site_fract_x
_atom_site_fract_y
_atom_site_fract_z
Si Si1 0.600553 0.824815 0.348110
Si Si2 0.247103 0.044428 0.741593
Si Si3 0.615602 0.789324 0.714785
Si Si4 0.742912 0.212622 0.441084
Si Si5 0.027934 0.397568 0.894107
Si Si6 0.000000 0.157062 0.250000
Si Si7 0.841854 0.470490 0.507000
O O1 0.660015 0.716215 0.390416
O O2 0.517725 0.749969 0.302412
O O3 0.720111 0.898525 0.316266
O O4 0.524556 0.950754 0.376354
O O5 0.357757 0.939231 0.760523
O O6 0.123247 0.945169 0.747606
O O7 0.230912 0.179339 0.777456
O O8 0.500000 0.727643 0.750000
O O9 0.574201 0.812544 0.655864
O O10 0.595862 0.185956 0.418874
O O11 0.784372 0.352979 0.469512
O O12 0.743378 0.100709 0.488291
O O13 0.150725 0.421012 0.933114
O O14 0.000000 0.500000 0.500000
#
# Coordination Sequence:
#
# PCOD9457550 Si02
#       7
#     8   8   8   8   8   4   8
#     4  12  22  43  70  96 140 186 227 280 353 407
#     4  12  25  40  64 103 140 182 233 278 336 432
#     4  12  24  43  67 101 148 181 230 285 348 422
#     4  11  22  43  75  94 129 186 230 282 348 414
#     4  11  24  43  71  98 138 184 225 293 352 399
#     4  12  26  38  66 106 146 178 238 276 342 424
#     4  10  23  45  67 100 131 168 241 288 337 411
#
# _framework density 20.719718
#
# number of rings (size 3 to 8) (size 9 to 14) (size 15 to 20)
#    0.000    0.615    6.923    2.769    0.000    1.231 
#    0.000    3.077    0.000    0.000    0.000    0.000 
#    0.000    0.000    0.000    0.000    0.000    0.000 
#
# Total GULP energy -289854.430922 kJ/mol
# GULP energy per Si atom -5574.123672 kJ/mol
# Density = 2.067256 g / cm^3
# Si number density = 20.719718 Si / 1000 Ang^3
#
#
#
# Elastic Constant Matrix: (Units=GPa)
#
#
# Indices 1 2 3 4 5 6 
#
# 1 64.2389 29.8393 20.1219 0.0000 0.0000 0.0000
# 2 29.8393 105.7707 25.0661 0.0000 0.0000 0.0000
# 3 20.1219 25.0661 86.0478 0.0000 0.0000 0.0000
# 4 0.0000 0.0000 0.0000 -37.3153 0.0000 0.0000
# 5 0.0000 0.0000 0.0000 0.0000 50.3308 0.0000
# 6 0.0000 0.0000 0.0000 0.0000 0.0000 66.8194
#
#
#
# Elastic Compliance Matrix: (Units=1/GPa)
#
#
# Indices 1 2 3 4 5 6 
#
# 1 0.018624 -0.004535 -0.003034 0.000000 0.000000 0.000000
# 2 -0.004535 0.011260 -0.002220 0.000000 0.000000 0.000000
# 3 -0.003034 -0.002220 0.012977 0.000000 0.000000 0.000000
# 4 0.000000 0.000000 0.000000 -0.026799 0.000000 0.000000
# 5 0.000000 0.000000 0.000000 0.000000 0.019869 0.000000
# 6 0.000000 0.000000 0.000000 0.000000 0.000000 0.014966
#
#
# Mechanical properties :
#
#
# Convention : Reuss Voigt Hill
#
# Bulk Modulus (GPa) = 42.94801 45.12355 44.03578
# Shear Modulus (GPa) = 63.90995 28.03567 45.97281
#
# Velocity S-wave (km/s) = 5.55985 3.68243 4.71552
# Velocity P-wave (km/s) = 7.87331 6.31710 7.13774
#
# Compressibility (1/GPa) = 0.02328397
#
# Stress axis : x y z
#
# Youngs Moduli (GPa) = 53.69477 88.81159 77.05649
#
# Poissons Ratio (x) = 0.40276 0.23379
# Poissons Ratio (y) = 0.24351 0.17103
# Poissons Ratio (z) = 0.16291 0.19712
#
# Static dielectric constant tensor:
#      x y z
#    x 1.743760 0.000000 0.000000 
#    y 0.000000 1.739240 0.000000 
#    z 0.000000 0.000000 1.824280 
# 
# From -- ./inp_files/25304.got.cif
#   From: 2010.05.17/outbox.cif.g08.bks.cpg/sg60_13_cif.got.tgz:25304.got - 2010.06.03 14:59:27.
