data_PCOD9457132
_publ_section_title
;
Structure prediction by ZEFSAII (Michael W. Deem and Ramdas Pophale) SiO2 
 PCOD9457132
Probable space group: P B C N
;
_chemical_formula_sum "Si O2"
_cell_formula_units_Z 44
_cell_length_a 9.787503
_cell_length_b 28.544394
_cell_length_c 7.968110
_cell_angle_alpha 90.000000
_cell_angle_beta 90.000000
_cell_angle_gamma 90.000000
_cell_volume 2226.117360
_symmetry_space_group_name_H-M "P B C N"
_symmetry_group_IT_number 60
_symmetry_cell_setting 'orthorhombic'
loop_
_space_group_symop_operation_xyz
x,y,z
1/2-x,1/2-y,1/2+z
1/2+x,1/2-y,-z
-x,y,1/2-z
-x,-y,-z
1/2+x,1/2+y,1/2-z
1/2-x,1/2+y,z
x,-y,1/2+z
loop_
_atom_site_type_symbol
_atom_site_label
_atom_site_fract_x
_atom_site_fract_y
_atom_site_fract_z
Si Si1 0.143883 0.061062 0.553118
Si Si2 0.338938 0.800589 0.765550
Si Si3 0.500000 0.486322 0.750000
Si Si4 0.500000 0.853016 0.250000
Si Si5 0.248004 0.202007 0.885861
Si Si6 0.000000 0.143619 0.750000
Si Si7 0.090964 0.398039 0.914097
O O1 0.122684 0.020921 0.693580
O O2 0.293967 0.066144 0.476006
O O3 0.089867 0.109258 0.632887
O O4 0.043722 0.045321 0.404561
O O5 0.500000 0.789391 0.750000
O O6 0.265336 0.757313 0.853464
O O7 0.284868 0.806203 0.578304
O O8 0.332395 0.849963 0.860063
O O9 0.633232 0.820492 0.229146
O O10 0.506603 0.883951 0.419184
O O11 0.106458 0.176309 0.846322
O O12 0.000000 0.410991 0.750000
#
# Coordination Sequence:
#
# PCOD9457132 Si02
#       7
#     8   8   4   4   8   4   8
#     4  10  22  43  69  99 130 164 223 277 351 410
#     4  11  24  41  60  94 137 184 236 277 328 386
#     4   9  22  44  71  96 130 164 208 299 346 417
#     4  12  22  42  65  92 139 181 218 287 332 380
#     4  12  24  40  63  95 139 182 235 283 325 391
#     4  11  24  40  70 102 129 185 230 278 334 415
#     4  11  23  43  65  98 133 182 223 273 339 410
#
# _framework density 19.765355
#
# number of rings (size 3 to 8) (size 9 to 14) (size 15 to 20)
#    0.000    1.091    6.364    1.091    2.545    0.000 
#    3.273    0.909    0.000    0.000    0.000    0.000 
#    0.000    0.000    0.000    0.000    0.000    0.000 
#
# Total GULP energy -245755.317461 kJ/mol
# GULP energy per Si atom -5585.348124 kJ/mol
# Density = 1.972037 g / cm^3
# Si number density = 19.765355 Si / 1000 Ang^3
#
#
#
# Elastic Constant Matrix: (Units=GPa)
#
#
# Indices 1 2 3 4 5 6 
#
# 1 81.3939 18.1345 29.7819 0.0000 0.0000 0.0000
# 2 18.1345 46.9441 22.7057 0.0000 0.0000 0.0000
# 3 29.7819 22.7057 121.7897 0.0000 0.0000 0.0000
# 4 0.0000 0.0000 0.0000 15.8407 0.0000 0.0000
# 5 0.0000 0.0000 0.0000 0.0000 44.5917 0.0000
# 6 0.0000 0.0000 0.0000 0.0000 0.0000 30.2444
#
#
#
# Elastic Compliance Matrix: (Units=1/GPa)
#
#
# Indices 1 2 3 4 5 6 
#
# 1 0.014204 -0.004184 -0.002693 0.000000 0.000000 0.000000
# 2 -0.004184 0.024646 -0.003572 0.000000 0.000000 0.000000
# 3 -0.002693 -0.003572 0.009535 0.000000 0.000000 0.000000
# 4 0.000000 0.000000 0.000000 0.063129 0.000000 0.000000
# 5 0.000000 0.000000 0.000000 0.000000 0.022426 0.000000
# 6 0.000000 0.000000 0.000000 0.000000 0.000000 0.033064
#
#
# Mechanical properties :
#
#
# Convention : Reuss Voigt Hill
#
# Bulk Modulus (GPa) = 36.38131 43.48577 39.93354
# Shear Modulus (GPa) = 25.37256 30.10241 27.73748
#
# Velocity S-wave (km/s) = 3.58675 3.90678 3.75018
# Velocity P-wave (km/s) = 5.96654 6.51148 6.24496
#
# Compressibility (1/GPa) = 0.02748664
#
# Stress axis : x y z
#
# Youngs Moduli (GPa) = 70.40460 40.57492 104.87319
#
# Poissons Ratio (x) = 0.16977 0.28245
# Poissons Ratio (y) = 0.29459 0.37457
# Poissons Ratio (z) = 0.18961 0.14492
#
# Static dielectric constant tensor:
#      x y z
#    x 1.687100 0.000000 0.000000 
#    y 0.000000 1.684440 0.000000 
#    z 0.000000 0.000000 1.721860 
# 
# From -- ./inp_files/4143.got.cif
#   From: 2010.05.17/outbox.cif.g08.bks.cpg/sg60_3_cif.got.tgz:4143.got - 2010.06.03 14:59:27.
