data_PCOD9457040
_publ_section_title
;
Structure prediction by ZEFSAII (Michael W. Deem and Ramdas Pophale) SiO2 
 PCOD9457040
Probable space group: P B C N
;
_chemical_formula_sum "Si O2"
_cell_formula_units_Z 56
_cell_length_a 6.610154
_cell_length_b 26.380508
_cell_length_c 15.893659
_cell_angle_alpha 90.000000
_cell_angle_beta 90.000000
_cell_angle_gamma 90.000000
_cell_volume 2771.523867
_symmetry_space_group_name_H-M "P B C N"
_symmetry_group_IT_number 60
_symmetry_cell_setting 'orthorhombic'
loop_
_space_group_symop_operation_xyz
x,y,z
1/2-x,1/2-y,1/2+z
1/2+x,1/2-y,-z
-x,y,1/2-z
-x,-y,-z
1/2+x,1/2+y,1/2-z
1/2-x,1/2+y,z
x,-y,1/2+z
loop_
_atom_site_type_symbol
_atom_site_label
_atom_site_fract_x
_atom_site_fract_y
_atom_site_fract_z
Si Si1 0.671272 0.922929 0.359356
Si Si2 0.229051 0.263392 0.379994
Si Si3 0.281316 0.895546 0.953785
Si Si4 0.500000 0.166840 0.750000
Si Si5 0.616069 0.982195 0.665772
Si Si6 0.578747 0.198926 0.436808
Si Si7 0.000000 0.019792 0.750000
Si Si8 0.974066 0.161427 0.347192
O O1 0.750312 0.913498 0.452094
O O2 0.602890 0.870643 0.317192
O O3 0.847889 0.946717 0.304045
O O4 0.487632 0.964057 0.358309
O O5 0.461227 0.245163 0.390734
O O6 0.161997 0.300597 0.304312
O O7 0.166979 0.284045 0.472666
O O8 0.100360 0.212982 0.361132
O O9 0.397908 0.939845 0.904689
O O10 0.417283 0.845131 0.954454
O O11 0.075665 0.880622 0.906333
O O12 0.500000 0.965029 0.750000
O O13 0.850708 0.988934 0.689605
O O14 0.749909 0.175545 0.376887
O O15 0.000000 0.146667 0.250000
#
# Coordination Sequence:
#
# PCOD9457040 Si02
#       8
#     8   8   8   4   8   8   4   8
#     4  11  23  45  67 102 134 176 235 284 344 417
#     4  11  23  43  69  96 139 181 223 284 342 405
#     4  11  26  40  72 101 133 181 226 287 348 410
#     4  12  22  46  67 104 132 179 238 284 342 416
#     4  10  23  43  67  99 137 175 228 291 346 417
#     4  11  24  45  69  97 138 179 225 284 341 408
#     4  10  22  42  67  92 138 179 220 282 346 400
#     4  11  26  45  64 101 136 176 232 275 338 425
#
# _framework density 20.205490000000001
#
# number of rings (size 3 to 8) (size 9 to 14) (size 15 to 20)
#    0.000    1.143    5.714    0.429    3.000    5.714 
#    2.571    0.000    0.000    0.000    0.000    0.000 
#    0.000    0.000    0.000    0.000    0.000    0.000 
#
# Total GULP energy -312886.716564 kJ/mol
# GULP energy per Si atom -5587.262796 kJ/mol
# Density = 2.015950 g / cm^3
# Si number density = 20.205490 Si / 1000 Ang^3
#
#
#
# Elastic Constant Matrix: (Units=GPa)
#
#
# Indices 1 2 3 4 5 6 
#
# 1 87.6699 21.1062 23.7479 0.0000 0.0000 0.0000
# 2 21.1062 87.8655 42.9856 0.0000 0.0000 0.0000
# 3 23.7479 42.9856 133.0618 0.0000 0.0000 0.0000
# 4 0.0000 0.0000 0.0000 14.7534 0.0000 0.0000
# 5 0.0000 0.0000 0.0000 0.0000 22.9230 0.0000
# 6 0.0000 0.0000 0.0000 0.0000 0.0000 3.0246
#
#
#
# Elastic Compliance Matrix: (Units=1/GPa)
#
#
# Indices 1 2 3 4 5 6 
#
# 1 0.012347 -0.002242 -0.001479 0.000000 0.000000 0.000000
# 2 -0.002242 0.013925 -0.004098 0.000000 0.000000 0.000000
# 3 -0.001479 -0.004098 0.009103 0.000000 0.000000 0.000000
# 4 0.000000 0.000000 0.000000 0.067781 0.000000 0.000000
# 5 0.000000 0.000000 0.000000 0.000000 0.043624 0.000000
# 6 0.000000 0.000000 0.000000 0.000000 0.000000 0.330622
#
#
# Mechanical properties :
#
#
# Convention : Reuss Voigt Hill
#
# Bulk Modulus (GPa) = 50.67010 53.80852 52.23931
# Shear Modulus (GPa) = 10.00760 22.85735 16.43248
#
# Velocity S-wave (km/s) = 2.22793 3.36705 2.85488
# Velocity P-wave (km/s) = 5.63472 6.46564 6.06443
#
# Compressibility (1/GPa) = 0.01973550
#
# Stress axis : x y z
#
# Youngs Moduli (GPa) = 80.99188 71.81570 109.85122
#
# Poissons Ratio (x) = 0.16102 0.16250
# Poissons Ratio (y) = 0.18160 0.45019
# Poissons Ratio (z) = 0.11981 0.29431
#
# Static dielectric constant tensor:
#      x y z
#    x 1.729060 0.000000 0.000000 
#    y 0.000000 1.710440 0.000000 
#    z 0.000000 0.000000 1.718420 
# 
# From -- ./inp_files/14130.got.cif
#   From: 2010.05.17/outbox.cif.g08.bks.cpg/sg60_8_cif.got.tgz:14130.got - 2010.06.03 14:59:27.
