data_PCOD9457303
_publ_section_title
;
Structure prediction by ZEFSAII (Michael W. Deem and Ramdas Pophale) SiO2 
 PCOD9457303
Probable space group: P B C N
;
_chemical_formula_sum "Si O2"
_cell_formula_units_Z 32
_cell_length_a 7.150738
_cell_length_b 13.824772
_cell_length_c 11.907373
_cell_angle_alpha 90.000000
_cell_angle_beta 90.000000
_cell_angle_gamma 90.000000
_cell_volume 1177.131013
_symmetry_space_group_name_H-M "P B C N"
_symmetry_group_IT_number 60
_symmetry_cell_setting 'orthorhombic'
loop_
_space_group_symop_operation_xyz
x,y,z
1/2-x,1/2-y,1/2+z
1/2+x,1/2-y,-z
-x,y,1/2-z
-x,-y,-z
1/2+x,1/2+y,1/2-z
1/2-x,1/2+y,z
x,-y,1/2+z
loop_
_atom_site_type_symbol
_atom_site_label
_atom_site_fract_x
_atom_site_fract_y
_atom_site_fract_z
Si Si1 0.500000 0.165289 0.750000
Si Si2 0.906916 0.866531 0.011229
Si Si3 0.343226 0.998010 0.374394
Si Si4 0.500000 0.571960 0.750000
Si Si5 0.759552 0.195672 0.123511
O O1 0.510193 0.087966 0.647971
O O2 0.676822 0.235135 0.725933
O O3 0.771468 0.959479 0.016889
O O4 0.011868 0.871010 0.132512
O O5 0.790968 0.768416 0.023279
O O6 0.050859 0.859532 0.911846
O O7 0.190430 0.985840 0.273691
O O8 0.391519 0.110191 0.370067
#
# Coordination Sequence:
#
# PCOD9457303 Si02
#       5
#     4   8   8   4   8
#     4  10  23  39  60  96 126 158 225 249 298 398
#     4   9  22  36  61  92 121 160 217 248 311 390
#     4   9  20  40  59  87 126 158 209 256 314 369
#     4   8  19  39  56  84 120 160 205 249 296 386
#     4  11  21  39  64  90 125 167 200 269 313 357
#
# _framework density 27.184736999999998
#
# number of rings (size 3 to 8) (size 9 to 14) (size 15 to 20)
#    1.500    1.000    0.000    1.500    3.500    1.000 
#    0.000    7.500    0.000    0.000    0.000    0.000 
#    0.000    0.000    0.000    0.000    0.000    0.000 
#
# Total GULP energy -178319.475889 kJ/mol
# GULP energy per Si atom -5572.483622 kJ/mol
# Density = 2.712286 g / cm^3
# Si number density = 27.184737 Si / 1000 Ang^3
#
#
#
# Elastic Constant Matrix: (Units=GPa)
#
#
# Indices 1 2 3 4 5 6 
#
# 1 39.9294 24.5331 37.1128 0.0000 0.0000 0.0000
# 2 24.5331 217.9237 27.9927 0.0000 0.0000 0.0000
# 3 37.1128 27.9927 66.8665 0.0000 0.0000 0.0000
# 4 0.0000 0.0000 0.0000 30.0369 0.0000 0.0000
# 5 0.0000 0.0000 0.0000 0.0000 55.2448 0.0000
# 6 0.0000 0.0000 0.0000 0.0000 0.0000 13.9906
#
#
#
# Elastic Compliance Matrix: (Units=1/GPa)
#
#
# Indices 1 2 3 4 5 6 
#
# 1 0.052803 -0.002304 -0.028343 0.000000 0.000000 0.000000
# 2 -0.002304 0.004950 -0.000794 0.000000 0.000000 0.000000
# 3 -0.028343 -0.000794 0.031018 0.000000 0.000000 0.000000
# 4 0.000000 0.000000 0.000000 0.033292 0.000000 0.000000
# 5 0.000000 0.000000 0.000000 0.000000 0.018101 0.000000
# 6 0.000000 0.000000 0.000000 0.000000 0.000000 0.071476
#
#
# Mechanical properties :
#
#
# Convention : Reuss Voigt Hill
#
# Bulk Modulus (GPa) = 38.62297 55.99964 47.31131
# Shear Modulus (GPa) = 17.65833 35.52654 26.59243
#
# Velocity S-wave (km/s) = 2.55143 3.61897 3.13103
# Velocity P-wave (km/s) = 4.78729 6.17308 5.52382
#
# Compressibility (1/GPa) = 0.02589133
#
# Stress axis : x y z
#
# Youngs Moduli (GPa) = 18.93827 202.01818 32.23884
#
# Poissons Ratio (x) = 0.46539 0.91374
# Poissons Ratio (y) = 0.04363 0.02559
# Poissons Ratio (z) = 0.53676 0.16033
#
# Static dielectric constant tensor:
#      x y z
#    x 2.215280 0.000000 0.000000 
#    y 0.000000 2.209390 0.000000 
#    z 0.000000 0.000000 2.143110 
# 
# From -- ./inp_files/14393.got.cif
#   From: 2010.05.17/outbox.cif.g08.bks.cpg/sg60_8_cif.got.tgz:14393.got - 2010.06.03 14:59:27.
