data_PCOD9457153
_publ_section_title
;
Structure prediction by ZEFSAII (Michael W. Deem and Ramdas Pophale) SiO2 
 PCOD9457153
Probable space group: P B C N
;
_chemical_formula_sum "Si O2"
_cell_formula_units_Z 40
_cell_length_a 11.788846
_cell_length_b 26.427560
_cell_length_c 5.246536
_cell_angle_alpha 90.000000
_cell_angle_beta 90.000000
_cell_angle_gamma 90.000000
_cell_volume 1634.560573
_symmetry_space_group_name_H-M "P B C N"
_symmetry_group_IT_number 60
_symmetry_cell_setting 'orthorhombic'
loop_
_space_group_symop_operation_xyz
x,y,z
1/2-x,1/2-y,1/2+z
1/2+x,1/2-y,-z
-x,y,1/2-z
-x,-y,-z
1/2+x,1/2+y,1/2-z
1/2-x,1/2+y,z
x,-y,1/2+z
loop_
_atom_site_type_symbol
_atom_site_label
_atom_site_fract_x
_atom_site_fract_y
_atom_site_fract_z
Si Si1 0.420496 0.659599 0.987982
Si Si2 0.744829 0.465145 0.634444
Si Si3 0.314374 0.870790 0.622143
Si Si4 0.117363 0.723748 0.399953
Si Si5 0.000000 0.033926 0.250000
Si Si6 0.500000 0.156659 0.750000
O O1 0.500000 0.660074 0.250000
O O2 0.304985 0.626562 0.973368
O O3 0.500000 0.644526 0.750000
O O4 0.376111 0.716796 0.929665
O O5 0.757583 0.493729 0.365100
O O6 0.822246 0.416254 0.674908
O O7 0.619809 0.441197 0.691408
O O8 0.302143 0.815636 0.757121
O O9 0.428846 0.874057 0.456462
O O10 0.097573 0.696080 0.664914
O O11 0.000000 0.716464 0.250000
O O12 0.000000 0.000000 0.500000
#
# Coordination Sequence:
#
# PCOD9457153 Si02
#       6
#     8   8   8   8   4   4
#     4  11  26  44  68 109 146 179 231 293 353 421
#     4  10  23  43  66  98 134 179 234 296 358 417
#     4  11  26  41  75  98 143 188 243 286 355 431
#     4   9  21  41  65  96 137 182 222 280 344 413
#     4   8  16  36  61  86 124 168 210 273 350 410
#     4  10  22  44  65  98 138 186 232 277 354 414
#
# _framework density 24.471408
#
# number of rings (size 3 to 8) (size 9 to 14) (size 15 to 20)
#    0.000    2.000    1.000    0.000    9.800    0.000 
#    7.200    1.000    0.000    0.000    0.000    0.000 
#    0.000    0.000    0.000    0.000    0.000    0.000 
#
# Total GULP energy -222703.522258 kJ/mol
# GULP energy per Si atom -5567.588056 kJ/mol
# Density = 2.441571 g / cm^3
# Si number density = 24.471408 Si / 1000 Ang^3
#
#
#
# Elastic Constant Matrix: (Units=GPa)
#
#
# Indices 1 2 3 4 5 6 
#
# 1 70.1672 27.3961 19.9559 0.0000 0.0000 0.0000
# 2 27.3961 65.5120 1.2418 0.0000 0.0000 0.0000
# 3 19.9559 1.2418 91.9981 0.0000 0.0000 0.0000
# 4 0.0000 0.0000 0.0000 -0.4526 0.0000 0.0000
# 5 0.0000 0.0000 0.0000 0.0000 40.7092 0.0000
# 6 0.0000 0.0000 0.0000 0.0000 0.0000 46.2778
#
#
#
# Elastic Compliance Matrix: (Units=1/GPa)
#
#
# Indices 1 2 3 4 5 6 
#
# 1 0.018314 -0.007585 -0.003870 0.000000 0.000000 0.000000
# 2 -0.007585 0.018410 0.001397 0.000000 0.000000 0.000000
# 3 -0.003870 0.001397 0.011690 0.000000 0.000000 0.000000
# 4 0.000000 0.000000 0.000000 -2.209352 0.000000 0.000000
# 5 0.000000 0.000000 0.000000 0.000000 0.024564 0.000000
# 6 0.000000 0.000000 0.000000 0.000000 0.000000 0.021609
#
#
# Mechanical properties :
#
#
# Convention : Reuss Voigt Hill
#
# Bulk Modulus (GPa) = 35.33926 36.09611 35.71768
# Shear Modulus (GPa) = -2.39783 29.24576 13.42396
#
# Velocity S-wave (km/s) = -0.99095 3.46077 2.34467
# Velocity P-wave (km/s) = 3.62810 5.54541 4.68587
#
# Compressibility (1/GPa) = 0.02829714
#
# Stress axis : x y z
#
# Youngs Moduli (GPa) = 54.60305 54.31846 85.53990
#
# Poissons Ratio (x) = 0.41202 0.33106
# Poissons Ratio (y) = 0.41418 -0.11949
# Poissons Ratio (z) = 0.21133 -0.07588
#
# Static dielectric constant tensor:
#      x y z
#    x 2.072420 0.000000 0.000000 
#    y 0.000000 2.032930 0.000000 
#    z 0.000000 0.000000 2.187610 
# 
# From -- ./inp_files/857.got.cif
#   From: 2010.05.17/outbox.cif.g08.bks.cpg/sg60_1_cif.got.tgz:857.got - 2010.06.03 14:59:27.
