data_PCOD9457161
_publ_section_title
;
Structure prediction by ZEFSAII (Michael W. Deem and Ramdas Pophale) SiO2 
 PCOD9457161
Probable space group: P B C N
;
_chemical_formula_sum "Si O2"
_cell_formula_units_Z 56
_cell_length_a 5.324777
_cell_length_b 31.829032
_cell_length_c 15.214427
_cell_angle_alpha 90.000000
_cell_angle_beta 90.000000
_cell_angle_gamma 90.000000
_cell_volume 2578.579086
_symmetry_space_group_name_H-M "P B C N"
_symmetry_group_IT_number 60
_symmetry_cell_setting 'orthorhombic'
loop_
_space_group_symop_operation_xyz
x,y,z
1/2-x,1/2-y,1/2+z
1/2+x,1/2-y,-z
-x,y,1/2-z
-x,-y,-z
1/2+x,1/2+y,1/2-z
1/2-x,1/2+y,z
x,-y,1/2+z
loop_
_atom_site_type_symbol
_atom_site_label
_atom_site_fract_x
_atom_site_fract_y
_atom_site_fract_z
Si Si1 0.384163 0.675003 0.579735
Si Si2 0.703995 0.490782 0.425911
Si Si3 0.465826 0.860155 0.656019
Si Si4 0.610143 0.070884 0.487915
Si Si5 0.894244 0.711013 0.655486
Si Si6 0.497939 0.587110 0.647224
Si Si7 0.466829 0.309116 0.878603
O O1 0.611614 0.694179 0.639590
O O2 0.352058 0.625776 0.601948
O O3 0.483243 0.685367 0.483249
O O4 0.107312 0.694254 0.589247
O O5 0.500000 0.500000 0.500000
O O6 0.789331 0.538285 0.412009
O O7 0.603479 0.460761 0.350391
O O8 0.897943 0.458806 0.471288
O O9 0.500000 0.883251 0.750000
O O10 0.452099 0.888714 0.569149
O O11 0.717399 0.833499 0.647669
O O12 0.219696 0.830406 0.658184
O O13 0.775987 0.082712 0.574496
O O14 0.919323 0.761150 0.648106
O O15 0.000000 0.697035 0.750000
O O16 0.500000 0.599618 0.750000
#
# Coordination Sequence:
#
# PCOD9457161 Si02
#       7
#     8   8   8   8   8   8   8
#     4  12  25  44  69 100 140 186 232 283 357 418
#     4   9  21  43  67  93 133 178 222 277 346 412
#     4  12  25  44  72 104 134 182 235 292 352 416
#     4  10  22  44  67  96 137 177 226 288 344 420
#     4  12  25  43  66 102 138 181 236 292 345 416
#     4  11  23  41  67 100 135 181 228 281 345 416
#     4  12  25  47  70  98 139 185 233 287 354 422
#
# _framework density 21.717388
#
# number of rings (size 3 to 8) (size 9 to 14) (size 15 to 20)
#    0.000    0.857    1.429    6.000    4.000    0.571 
#    7.714    0.000    0.000    0.000    0.000    0.000 
#    0.000    0.000    0.000    0.000    0.000    0.000 
#
# Total GULP energy -311969.792662 kJ/mol
# GULP energy per Si atom -5570.889155 kJ/mol
# Density = 2.166796 g / cm^3
# Si number density = 21.717388 Si / 1000 Ang^3
#
#
#
# Elastic Constant Matrix: (Units=GPa)
#
#
# Indices 1 2 3 4 5 6 
#
# 1 110.6418 50.7908 3.1397 0.0000 0.0000 0.0000
# 2 50.7908 106.6660 10.6169 0.0000 0.0000 0.0000
# 3 3.1397 10.6169 106.2906 0.0000 0.0000 0.0000
# 4 0.0000 0.0000 0.0000 27.0860 0.0000 0.0000
# 5 0.0000 0.0000 0.0000 0.0000 28.1924 0.0000
# 6 0.0000 0.0000 0.0000 0.0000 0.0000 -9.7430
#
#
#
# Elastic Compliance Matrix: (Units=1/GPa)
#
#
# Indices 1 2 3 4 5 6 
#
# 1 0.011571 -0.005531 0.000211 0.000000 0.000000 0.000000
# 2 -0.005531 0.012113 -0.001047 0.000000 0.000000 0.000000
# 3 0.000211 -0.001047 0.009506 0.000000 0.000000 0.000000
# 4 0.000000 0.000000 0.000000 0.036919 0.000000 0.000000
# 5 0.000000 0.000000 0.000000 0.000000 0.035471 0.000000
# 6 0.000000 0.000000 0.000000 0.000000 0.000000 -0.102638
#
#
# Mechanical properties :
#
#
# Convention : Reuss Voigt Hill
#
# Bulk Modulus (GPa) = 48.88271 50.29925 49.59098
# Shear Modulus (GPa) = 222.27390 26.37716 124.32553
#
# Velocity S-wave (km/s) = 10.12771 3.48884 7.57438
# Velocity P-wave (km/s) = 12.62213 6.28016 9.96892
#
# Compressibility (1/GPa) = 0.02045713
#
# Stress axis : x y z
#
# Youngs Moduli (GPa) = 86.42200 82.55743 105.19145
#
# Poissons Ratio (x) = 0.45660 -0.02216
# Poissons Ratio (y) = 0.47798 0.11009
# Poissons Ratio (z) = -0.01820 0.08640
#
# Static dielectric constant tensor:
#      x y z
#    x 1.891740 0.000000 0.000000 
#    y 0.000000 1.773130 0.000000 
#    z 0.000000 0.000000 1.762760 
# 
# From -- ./inp_files/14105.got.cif
#   From: 2010.05.17/outbox.cif.g08.bks.cpg/sg60_8_cif.got.tgz:14105.got - 2010.06.03 14:59:27.
