data_PCOD9457144
_publ_section_title
;
Structure prediction by ZEFSAII (Michael W. Deem and Ramdas Pophale) SiO2 
 PCOD9457144
Probable space group: P B C N
;
_chemical_formula_sum "Si O2"
_cell_formula_units_Z 32
_cell_length_a 5.000496
_cell_length_b 28.202617
_cell_length_c 8.278879
_cell_angle_alpha 90.000000
_cell_angle_beta 90.000000
_cell_angle_gamma 90.000000
_cell_volume 1167.546077
_symmetry_space_group_name_H-M "P B C N"
_symmetry_group_IT_number 60
_symmetry_cell_setting 'orthorhombic'
loop_
_space_group_symop_operation_xyz
x,y,z
1/2-x,1/2-y,1/2+z
1/2+x,1/2-y,-z
-x,y,1/2-z
-x,-y,-z
1/2+x,1/2+y,1/2-z
1/2-x,1/2+y,z
x,-y,1/2+z
loop_
_atom_site_type_symbol
_atom_site_label
_atom_site_fract_x
_atom_site_fract_y
_atom_site_fract_z
Si Si1 0.500000 0.904644 0.250000
Si Si2 0.500000 0.649282 0.250000
Si Si3 0.740341 0.933611 0.964177
Si Si4 0.770912 0.720855 0.023228
Si Si5 0.000000 0.994235 0.250000
Si Si6 0.500000 0.659908 0.750000
O O1 0.533806 0.927168 0.431137
O O2 0.246429 0.873212 0.291616
O O3 0.640876 0.614134 0.380228
O O4 0.717312 0.685624 0.172904
O O5 0.769847 0.971250 0.818590
O O6 0.900757 0.960718 0.106890
O O7 0.572685 0.766685 0.027938
O O8 0.625572 0.693119 0.882067
#
# Coordination Sequence:
#
# PCOD9457144 Si02
#       6
#     4   4   8   8   4   4
#     4  12  24  45  74 111 145 206 250 314 381 476
#     4  11  24  45  73 114 146 206 258 313 397 467
#     4  10  22  43  76 109 153 199 255 319 386 477
#     4  12  26  48  73 109 151 198 254 326 386 463
#     4   9  21  46  74 113 152 196 257 324 392 454
#     4  12  25  46  73 108 149 196 259 315 388 465
#
# _framework density 27.407914999999999
#
# number of rings (size 3 to 8) (size 9 to 14) (size 15 to 20)
#    0.000    1.000    2.500    3.750    0.000    1.000 
#    0.000    0.000    0.000    0.000    0.000    0.000 
#    0.000    0.000    0.000    0.000    0.000    0.000 
#
# Total GULP energy -178844.366352 kJ/mol
# GULP energy per Si atom -5588.886448 kJ/mol
# Density = 2.734553 g / cm^3
# Si number density = 27.407915 Si / 1000 Ang^3
#
#
#
# Elastic Constant Matrix: (Units=GPa)
#
#
# Indices 1 2 3 4 5 6 
#
# 1 73.3586 27.6669 50.9679 0.0000 0.0000 0.0000
# 2 27.6669 138.6920 60.8829 0.0000 0.0000 0.0000
# 3 50.9679 60.8829 183.2260 0.0000 0.0000 0.0000
# 4 0.0000 0.0000 0.0000 57.3009 0.0000 0.0000
# 5 0.0000 0.0000 0.0000 0.0000 46.2099 0.0000
# 6 0.0000 0.0000 0.0000 0.0000 0.0000 12.0437
#
#
#
# Elastic Compliance Matrix: (Units=1/GPa)
#
#
# Indices 1 2 3 4 5 6 
#
# 1 0.017180 -0.001556 -0.004262 0.000000 0.000000 0.000000
# 2 -0.001556 0.008583 -0.002419 0.000000 0.000000 0.000000
# 3 -0.004262 -0.002419 0.007447 0.000000 0.000000 0.000000
# 4 0.000000 0.000000 0.000000 0.017452 0.000000 0.000000
# 5 0.000000 0.000000 0.000000 0.000000 0.021640 0.000000
# 6 0.000000 0.000000 0.000000 0.000000 0.000000 0.083031
#
#
# Mechanical properties :
#
#
# Convention : Reuss Voigt Hill
#
# Bulk Modulus (GPa) = 59.75400 74.92356 67.33878
# Shear Modulus (GPa) = 28.18735 40.16148 34.17441
#
# Velocity S-wave (km/s) = 3.21041 3.83211 3.53495
# Velocity P-wave (km/s) = 5.96585 6.85390 6.42523
#
# Compressibility (1/GPa) = 0.01673528
#
# Stress axis : x y z
#
# Youngs Moduli (GPa) = 58.20875 116.51573 134.28243
#
# Poissons Ratio (x) = 0.18133 0.57227
# Poissons Ratio (y) = 0.09059 0.32482
# Poissons Ratio (z) = 0.24807 0.28184
#
# Static dielectric constant tensor:
#      x y z
#    x 2.163650 0.000000 0.000000 
#    y 0.000000 2.378740 0.000000 
#    z 0.000000 0.000000 0.928200 
# 
# From -- ./inp_files/3150.got.cif
#   From: 2010.05.17/outbox.cif.g08.bks.cpg/sg60_2_cif.got.tgz:3150.got - 2010.06.03 14:59:27.
