data_PCOD9457007
_publ_section_title
;
Structure prediction by ZEFSAII (Michael W. Deem and Ramdas Pophale) SiO2 
 PCOD9457007
Probable space group: P B C N
;
_chemical_formula_sum "Si O2"
_cell_formula_units_Z 40
_cell_length_a 17.263078
_cell_length_b 14.899559
_cell_length_c 6.954899
_cell_angle_alpha 90.000000
_cell_angle_beta 90.000000
_cell_angle_gamma 90.000000
_cell_volume 1788.885215
_symmetry_space_group_name_H-M "P B C N"
_symmetry_group_IT_number 60
_symmetry_cell_setting 'orthorhombic'
loop_
_space_group_symop_operation_xyz
x,y,z
1/2-x,1/2-y,1/2+z
1/2+x,1/2-y,-z
-x,y,1/2-z
-x,-y,-z
1/2+x,1/2+y,1/2-z
1/2-x,1/2+y,z
x,-y,1/2+z
loop_
_atom_site_type_symbol
_atom_site_label
_atom_site_fract_x
_atom_site_fract_y
_atom_site_fract_z
Si Si1 0.792838 0.577950 0.964495
Si Si2 0.262520 0.612691 0.962614
Si Si3 0.577205 0.352800 0.176382
Si Si4 0.175038 0.790328 0.955108
Si Si5 0.927932 0.300668 0.376235
O O1 0.762589 0.610024 0.759524
O O2 0.877457 0.621028 0.976556
O O3 0.784948 0.471654 0.958783
O O4 0.729457 0.625119 0.103012
O O5 0.355454 0.599568 0.950577
O O6 0.233162 0.710876 0.022704
O O7 0.500000 0.402933 0.250000
O O8 0.620316 0.317028 0.367338
O O9 0.550609 0.269778 0.042652
O O10 0.123767 0.753573 0.780300
O O11 0.000000 0.334784 0.250000
#
# Coordination Sequence:
#
# PCOD9457007 Si02
#       5
#     8   8   8   8   8
#     4  10  23  39  64  95 127 169 224 262 318 390
#     4  10  23  39  64  95 127 169 224 262 318 390
#     4  11  22  40  66  92 130 169 213 272 330 376
#     4  10  22  42  62  94 122 176 224 260 322 390
#     4  11  22  40  66  92 130 169 213 272 330 376
#
# _framework density 22.360294
#
# number of rings (size 3 to 8) (size 9 to 14) (size 15 to 20)
#    0.000    1.600    4.000    0.000    5.600    0.000 
#    0.000   10.000    0.000    0.000    0.000    0.000 
#    0.000    0.000    0.000    0.000    0.000    0.000 
#
# Total GULP energy -223110.639043 kJ/mol
# GULP energy per Si atom -5577.765976 kJ/mol
# Density = 2.230940 g / cm^3
# Si number density = 22.360294 Si / 1000 Ang^3
#
#
#
# Elastic Constant Matrix: (Units=GPa)
#
#
# Indices 1 2 3 4 5 6 
#
# 1 97.6065 -2.2958 0.8055 0.0000 0.0000 0.0000
# 2 -2.2958 59.7286 -7.0531 0.0000 0.0000 0.0000
# 3 0.8055 -7.0531 45.4478 0.0000 0.0000 0.0000
# 4 0.0000 0.0000 0.0000 14.7468 0.0000 0.0000
# 5 0.0000 0.0000 0.0000 0.0000 35.7401 0.0000
# 6 0.0000 0.0000 0.0000 0.0000 0.0000 18.1553
#
#
#
# Elastic Compliance Matrix: (Units=1/GPa)
#
#
# Indices 1 2 3 4 5 6 
#
# 1 0.010255 0.000380 -0.000123 0.000000 0.000000 0.000000
# 2 0.000380 0.017069 0.002642 0.000000 0.000000 0.000000
# 3 -0.000123 0.002642 0.022416 0.000000 0.000000 0.000000
# 4 0.000000 0.000000 0.000000 0.067811 0.000000 0.000000
# 5 0.000000 0.000000 0.000000 0.000000 0.027980 0.000000
# 6 0.000000 0.000000 0.000000 0.000000 0.000000 0.055080
#
#
# Mechanical properties :
#
#
# Convention : Reuss Voigt Hill
#
# Bulk Modulus (GPa) = 18.00575 20.63291 19.31933
# Shear Modulus (GPa) = 23.43838 27.81688 25.62763
#
# Velocity S-wave (km/s) = 3.24113 3.53091 3.38912
# Velocity P-wave (km/s) = 4.69857 5.08631 4.89628
#
# Compressibility (1/GPa) = 0.05553781
#
# Stress axis : x y z
#
# Youngs Moduli (GPa) = 97.51184 58.58575 44.61195
#
# Poissons Ratio (x) = -0.02224 0.00548
# Poissons Ratio (y) = -0.03702 -0.11788
# Poissons Ratio (z) = 0.01198 -0.15480
#
# Static dielectric constant tensor:
#      x y z
#    x 1.907950 0.000000 0.000000 
#    y 0.000000 1.901090 0.000000 
#    z 0.000000 0.000000 1.920350 
# 
# From -- ./inp_files/6524.got.cif
#   From: 2010.05.17/outbox.cif.g08.bks.cpg/sg60_4_cif.got.tgz:6524.got - 2010.06.03 14:59:27.
