data_PCOD9457382
_publ_section_title
;
Structure prediction by ZEFSAII (Michael W. Deem and Ramdas Pophale) SiO2 
 PCOD9457382
Probable space group: P B C N
;
_chemical_formula_sum "Si O2"
_cell_formula_units_Z 52
_cell_length_a 17.103410
_cell_length_b 5.339124
_cell_length_c 20.221921
_cell_angle_alpha 90.000000
_cell_angle_beta 90.000000
_cell_angle_gamma 90.000000
_cell_volume 1846.609747
_symmetry_space_group_name_H-M "P B C N"
_symmetry_group_IT_number 60
_symmetry_cell_setting 'orthorhombic'
loop_
_space_group_symop_operation_xyz
x,y,z
1/2-x,1/2-y,1/2+z
1/2+x,1/2-y,-z
-x,y,1/2-z
-x,-y,-z
1/2+x,1/2+y,1/2-z
1/2-x,1/2+y,z
x,-y,1/2+z
loop_
_atom_site_type_symbol
_atom_site_label
_atom_site_fract_x
_atom_site_fract_y
_atom_site_fract_z
Si Si1 0.433771 0.042882 0.933757
Si Si2 0.775378 0.611114 0.616067
Si Si3 0.000000 0.596874 0.250000
Si Si4 0.646094 0.709844 0.229081
Si Si5 0.469403 0.558001 0.869981
Si Si6 0.848865 0.681476 0.430315
Si Si7 0.671499 0.679590 0.377729
O O1 0.361481 0.000955 0.884941
O O2 0.478105 0.284599 0.904983
O O3 0.468909 0.766069 0.928886
O O4 0.387200 0.101262 0.000850
O O5 0.729167 0.384891 0.582345
O O6 0.775432 0.688811 0.692629
O O7 0.925280 0.410039 0.241222
O O8 0.013258 0.785474 0.188045
O O9 0.607927 0.512888 0.176489
O O10 0.673869 0.615241 0.300592
O O11 0.754488 0.703695 0.416610
O O12 0.867238 0.449476 0.383382
O O13 0.875696 0.958029 0.412068
#
# Coordination Sequence:
#
# PCOD9457382 Si02
#       7
#     8   8   4   8   8   8   8
#     4  11  23  42  66 100 145 181 241 274 351 425
#     4  11  24  35  63  98 139 175 211 297 359 427
#     4  12  24  48  74 108 136 192 238 300 378 408
#     4  11  26  45  69 107 143 180 240 292 375 425
#     4  11  23  43  71 106 133 184 230 314 347 416
#     4  10  23  42  64  96 137 199 223 276 342 422
#     4  10  24  40  67  95 141 185 234 280 342 436
#
# _framework density 28.159711999999999
#
# number of rings (size 3 to 8) (size 9 to 14) (size 15 to 20)
#    0.000    1.231    3.077    3.231   10.769    0.000 
#    0.000    0.000    0.000    5.538    0.000    0.000 
#    0.000    0.000    0.000    0.000    0.000    0.000 
#
# Total GULP energy -289820.085761 kJ/mol
# GULP energy per Si atom -5573.463188 kJ/mol
# Density = 2.809562 g / cm^3
# Si number density = 28.159712 Si / 1000 Ang^3
#
#
#
# Elastic Constant Matrix: (Units=GPa)
#
#
# Indices 1 2 3 4 5 6 
#
# 1 78.5612 33.6359 35.8221 0.0000 0.0000 0.0000
# 2 33.6359 194.3900 20.5026 0.0000 0.0000 0.0000
# 3 35.8221 20.5026 120.1022 0.0000 0.0000 0.0000
# 4 0.0000 0.0000 0.0000 36.4152 0.0000 0.0000
# 5 0.0000 0.0000 0.0000 0.0000 30.7874 0.0000
# 6 0.0000 0.0000 0.0000 0.0000 0.0000 9.6804
#
#
#
# Elastic Compliance Matrix: (Units=1/GPa)
#
#
# Indices 1 2 3 4 5 6 
#
# 1 0.015647 -0.002256 -0.004282 0.000000 0.000000 0.000000
# 2 -0.002256 0.005564 -0.000277 0.000000 0.000000 0.000000
# 3 -0.004282 -0.000277 0.009651 0.000000 0.000000 0.000000
# 4 0.000000 0.000000 0.000000 0.027461 0.000000 0.000000
# 5 0.000000 0.000000 0.000000 0.000000 0.032481 0.000000
# 6 0.000000 0.000000 0.000000 0.000000 0.000000 0.103301
#
#
# Mechanical properties :
#
#
# Convention : Reuss Voigt Hill
#
# Bulk Modulus (GPa) = 58.03065 63.66386 60.84726
# Shear Modulus (GPa) = 23.42157 35.58278 29.50217
#
# Velocity S-wave (km/s) = 2.88712 3.55858 3.24029
# Velocity P-wave (km/s) = 5.63617 6.28823 5.97111
#
# Compressibility (1/GPa) = 0.01723227
#
# Stress axis : x y z
#
# Youngs Moduli (GPa) = 63.90907 179.73171 103.61990
#
# Poissons Ratio (x) = 0.40545 0.44369
# Poissons Ratio (y) = 0.14417 0.02870
# Poissons Ratio (z) = 0.27365 0.04978
#
# Static dielectric constant tensor:
#      x y z
#    x 2.603890 0.000000 0.000000 
#    y 0.000000 2.342890 0.000000 
#    z 0.000000 0.000000 2.314760 
# 
# From -- ./inp_files/23184.got.cif
#   From: 2010.05.17/outbox.cif.g08.bks.cpg/sg60_12_cif.got.tgz:23184.got - 2010.06.03 14:59:27.
