data_PCOD9457898
_publ_section_title
;
Structure prediction by ZEFSAII (Michael W. Deem and Ramdas Pophale) SiO2 
 PCOD9457898
Probable space group: P B C N
;
_chemical_formula_sum "Si O2"
_cell_formula_units_Z 40
_cell_length_a 11.547925
_cell_length_b 20.437913
_cell_length_c 7.678247
_cell_angle_alpha 90.000000
_cell_angle_beta 90.000000
_cell_angle_gamma 90.000000
_cell_volume 1812.185201
_symmetry_space_group_name_H-M "P B C N"
_symmetry_group_IT_number 60
_symmetry_cell_setting 'orthorhombic'
loop_
_space_group_symop_operation_xyz
x,y,z
1/2-x,1/2-y,1/2+z
1/2+x,1/2-y,-z
-x,y,1/2-z
-x,-y,-z
1/2+x,1/2+y,1/2-z
1/2-x,1/2+y,z
x,-y,1/2+z
loop_
_atom_site_type_symbol
_atom_site_label
_atom_site_fract_x
_atom_site_fract_y
_atom_site_fract_z
Si Si1 0.405012 0.345617 0.599486
Si Si2 0.395009 0.798455 0.112790
Si Si3 0.000000 0.113211 0.750000
Si Si4 0.500000 0.846080 0.750000
Si Si5 0.286213 0.063516 0.207694
Si Si6 0.740584 0.423325 0.387271
O O1 0.500000 0.355600 0.750000
O O2 0.345783 0.275184 0.629778
O O3 0.469077 0.343732 0.416242
O O4 0.315525 0.405225 0.592812
O O5 0.500000 0.803213 0.250000
O O6 0.302443 0.854810 0.155639
O O7 0.444821 0.809256 0.916707
O O8 0.887653 0.072771 0.808415
O O9 0.600671 0.893350 0.821203
O O10 0.241831 0.073282 0.404316
O O11 0.308010 0.987442 0.175969
#
# Coordination Sequence:
#
# PCOD9457898 Si02
#       6
#     8   8   4   4   8   8
#     4  11  24  45  68  99 137 176 227 285 337 405
#     4  10  25  44  68 100 134 178 229 280 342 401
#     4  12  25  44  72  98 137 186 224 280 347 396
#     4  10  25  46  68 100 137 182 228 282 339 402
#     4  11  25  45  69 102 140 179 230 285 334 410
#     4  11  26  42  69 103 135 184 229 279 340 406
#
# _framework density 22.072797999999999
#
# number of rings (size 3 to 8) (size 9 to 14) (size 15 to 20)
#    0.000    1.200    2.000    1.800    8.400    8.000 
#    0.000    0.000    0.000    0.000    0.000    0.000 
#    0.000    0.000    0.000    0.000    0.000    0.000 
#
# Total GULP energy -223681.137063 kJ/mol
# GULP energy per Si atom -5592.028427 kJ/mol
# Density = 2.202256 g / cm^3
# Si number density = 22.072798 Si / 1000 Ang^3
#
#
#
# Elastic Constant Matrix: (Units=GPa)
#
#
# Indices 1 2 3 4 5 6 
#
# 1 40.8222 -8.5853 2.8114 0.0000 0.0000 0.0000
# 2 -8.5853 61.4571 -13.9390 0.0000 0.0000 0.0000
# 3 2.8114 -13.9390 65.3685 0.0000 0.0000 0.0000
# 4 0.0000 0.0000 0.0000 525.8352 0.0000 0.0000
# 5 0.0000 0.0000 0.0000 0.0000 23.7726 0.0000
# 6 0.0000 0.0000 0.0000 0.0000 0.0000 5.4248
#
#
#
# Elastic Compliance Matrix: (Units=1/GPa)
#
#
# Indices 1 2 3 4 5 6 
#
# 1 0.025246 0.003447 -0.000351 0.000000 0.000000 0.000000
# 2 0.003447 0.017569 0.003598 0.000000 0.000000 0.000000
# 3 -0.000351 0.003598 0.016080 0.000000 0.000000 0.000000
# 4 0.000000 0.000000 0.000000 0.001902 0.000000 0.000000
# 5 0.000000 0.000000 0.000000 0.000000 0.042065 0.000000
# 6 0.000000 0.000000 0.000000 0.000000 0.000000 0.184339
#
#
# Mechanical properties :
#
#
# Convention : Reuss Voigt Hill
#
# Bulk Modulus (GPa) = 13.83430 14.24690 14.04060
# Shear Modulus (GPa) = 16.78379 123.49723 70.14051
#
# Velocity S-wave (km/s) = 2.76050 7.48809 5.64322
# Velocity P-wave (km/s) = 4.05483 9.01279 6.98828
#
# Compressibility (1/GPa) = 0.07228410
#
# Stress axis : x y z
#
# Youngs Moduli (GPa) = 39.61088 56.91796 62.18818
#
# Poissons Ratio (x) = -0.19620 0.02181
# Poissons Ratio (y) = -0.13654 -0.22376
# Poissons Ratio (z) = 0.01389 -0.20480
#
# Static dielectric constant tensor:
#      x y z
#    x 1.802640 0.000000 0.000000 
#    y 0.000000 1.812230 0.000000 
#    z 0.000000 0.000000 1.804420 
# 
# From -- ./inp_files/4830.got.cif
#   From: 2010.05.17/outbox.cif.g08.bks.cpg/sg60_3_cif.got.tgz:4830.got - 2010.06.03 14:59:27.
