data_PCOD9457954
_publ_section_title
;
Structure prediction by ZEFSAII (Michael W. Deem and Ramdas Pophale) SiO2 
 PCOD9457954
Probable space group: P B C N
;
_chemical_formula_sum "Si O2"
_cell_formula_units_Z 40
_cell_length_a 5.169029
_cell_length_b 10.667754
_cell_length_c 29.885336
_cell_angle_alpha 90.000000
_cell_angle_beta 90.000000
_cell_angle_gamma 90.000000
_cell_volume 1647.935099
_symmetry_space_group_name_H-M "P B C N"
_symmetry_group_IT_number 60
_symmetry_cell_setting 'orthorhombic'
loop_
_space_group_symop_operation_xyz
x,y,z
1/2-x,1/2-y,1/2+z
1/2+x,1/2-y,-z
-x,y,1/2-z
-x,-y,-z
1/2+x,1/2+y,1/2-z
1/2-x,1/2+y,z
x,-y,1/2+z
loop_
_atom_site_type_symbol
_atom_site_label
_atom_site_fract_x
_atom_site_fract_y
_atom_site_fract_z
Si Si1 0.395888 0.448037 0.909685
Si Si2 0.189376 0.829345 0.675718
Si Si3 0.158924 0.217533 0.027713
Si Si4 0.500000 0.490751 0.250000
Si Si5 0.500000 0.141966 0.750000
Si Si6 0.018000 0.771032 0.397430
O O1 0.533517 0.390104 0.865592
O O2 0.575173 0.418340 0.952841
O O3 0.343295 0.594515 0.901344
O O4 0.158970 0.352346 0.916395
O O5 0.443362 0.773148 0.652308
O O6 0.169403 0.935739 0.713136
O O7 0.088826 0.717453 0.706260
O O8 0.261573 0.288830 0.072104
O O9 0.404489 0.221868 0.994627
O O10 0.261516 0.417592 0.270323
#
# Coordination Sequence:
#
# PCOD9457954 Si02
#       6
#     8   8   8   4   4   8
#     4  11  26  46  79 109 157 200 254 309 383 453
#     4  10  26  45  71 108 152 198 256 306 376 444
#     4  11  24  51  74 114 148 195 252 319 378 450
#     4  11  26  45  76 106 152 197 255 312 374 443
#     4  11  26  45  74 108 148 199 253 312 374 439
#     4  11  26  48  75 115 151 205 249 313 379 457
#
# _framework density 24.272798999999999
#
# number of rings (size 3 to 8) (size 9 to 14) (size 15 to 20)
#    0.000    1.200    2.000    1.200    8.400    9.600 
#    0.000    0.000    0.000    0.000    0.000    0.000 
#    0.000    0.000    0.000    0.000    0.000    0.000 
#
# Total GULP energy -222837.218759 kJ/mol
# GULP energy per Si atom -5570.930469 kJ/mol
# Density = 2.421755 g / cm^3
# Si number density = 24.272799 Si / 1000 Ang^3
#
#
#
# Elastic Constant Matrix: (Units=GPa)
#
#
# Indices 1 2 3 4 5 6 
#
# 1 100.9467 53.7379 17.2063 0.0000 0.0000 0.0000
# 2 53.7379 116.8002 17.2617 0.0000 0.0000 0.0000
# 3 17.2063 17.2617 94.3884 0.0000 0.0000 0.0000
# 4 0.0000 0.0000 0.0000 82.2055 0.0000 0.0000
# 5 0.0000 0.0000 0.0000 0.0000 -220.6965 0.0000
# 6 0.0000 0.0000 0.0000 0.0000 0.0000 20.8006
#
#
#
# Elastic Compliance Matrix: (Units=1/GPa)
#
#
# Indices 1 2 3 4 5 6 
#
# 1 0.013282 -0.005913 -0.001340 0.000000 0.000000 0.000000
# 2 -0.005913 0.011432 -0.001013 0.000000 0.000000 0.000000
# 3 -0.001340 -0.001013 0.011024 0.000000 0.000000 0.000000
# 4 0.000000 0.000000 0.000000 0.012165 0.000000 0.000000
# 5 0.000000 0.000000 0.000000 0.000000 -0.004531 0.000000
# 6 0.000000 0.000000 0.000000 0.000000 0.000000 0.048075
#
#
# Mechanical properties :
#
#
# Convention : Reuss Voigt Hill
#
# Bulk Modulus (GPa) = 52.06482 54.28303 53.17393
# Shear Modulus (GPa) = 43.71374 -8.60944 17.55215
#
# Velocity S-wave (km/s) = 4.24835 -1.88538 2.69201
# Velocity P-wave (km/s) = 6.74989 4.20390 5.62289
#
# Compressibility (1/GPa) = 0.01920683
#
# Stress axis : x y z
#
# Youngs Moduli (GPa) = 75.28818 87.47565 90.71128
#
# Poissons Ratio (x) = 0.51724 0.12155
# Poissons Ratio (y) = 0.44518 0.09187
# Poissons Ratio (z) = 0.10088 0.08859
#
# Static dielectric constant tensor:
#      x y z
#    x 1.970410 0.000000 0.000000 
#    y 0.000000 2.026790 0.000000 
#    z 0.000000 0.000000 1.821350 
# 
# From -- ./inp_files/25629.got.cif
#   From: 2010.05.17/outbox.cif.g08.bks.cpg/sg60_13_cif.got.tgz:25629.got - 2010.06.03 14:59:27.
