data_PCOD9457792
_publ_section_title
;
Structure prediction by ZEFSAII (Michael W. Deem and Ramdas Pophale) SiO2 
 PCOD9457792
Probable space group: P B C N
;
_chemical_formula_sum "Si O2"
_cell_formula_units_Z 32
_cell_length_a 14.254316
_cell_length_b 4.760835
_cell_length_c 17.261318
_cell_angle_alpha 90.000000
_cell_angle_beta 90.000000
_cell_angle_gamma 90.000000
_cell_volume 1171.395270
_symmetry_space_group_name_H-M "P B C N"
_symmetry_group_IT_number 60
_symmetry_cell_setting 'orthorhombic'
loop_
_space_group_symop_operation_xyz
x,y,z
1/2-x,1/2-y,1/2+z
1/2+x,1/2-y,-z
-x,y,1/2-z
-x,-y,-z
1/2+x,1/2+y,1/2-z
1/2-x,1/2+y,z
x,-y,1/2+z
loop_
_atom_site_type_symbol
_atom_site_label
_atom_site_fract_x
_atom_site_fract_y
_atom_site_fract_z
Si Si1 0.426441 0.392058 0.307578
Si Si2 0.936610 0.327189 0.940778
Si Si3 0.314164 0.978346 0.197518
Si Si4 0.188771 0.004897 0.943520
O O1 0.500000 0.543197 0.250000
O O2 0.491623 0.292483 0.377953
O O3 0.380434 0.130639 0.260944
O O4 0.349314 0.556858 0.357346
O O5 0.861393 0.482849 0.886166
O O6 0.881362 0.097009 0.990717
O O7 0.000000 0.500000 0.000000
O O8 0.216945 0.155961 0.202696
O O9 0.284619 0.829061 0.950758
#
# Coordination Sequence:
#
# PCOD9457792 Si02
#       4
#     8   8   8   8
#     4  10  24  45  72 105 145 191 240 296 360 429
#     4  11  25  46  74 107 145 188 239 298 360 426
#     4  11  25  48  73 105 144 190 239 294 357 429
#     4  12  25  45  71 103 139 183 233 290 351 420
#
# _framework density 27.317848000000001
#
# number of rings (size 3 to 8) (size 9 to 14) (size 15 to 20)
#    0.000    1.000    0.000    5.250    0.000    8.000 
#    0.000   11.250    0.000    0.000    0.000    0.000 
#    0.000    0.000    0.000    0.000    0.000    0.000 
#
# Total GULP energy -179647.769135 kJ/mol
# GULP energy per Si atom -5613.992785 kJ/mol
# Density = 2.725567 g / cm^3
# Si number density = 27.317848 Si / 1000 Ang^3
#
#
#
# Elastic Constant Matrix: (Units=GPa)
#
#
# Indices 1 2 3 4 5 6 
#
# 1 111.0194 10.4288 65.1985 0.0000 0.0000 0.0000
# 2 10.4288 73.9971 31.2025 0.0000 0.0000 0.0000
# 3 65.1985 31.2025 232.7612 0.0000 0.0000 0.0000
# 4 0.0000 0.0000 0.0000 37.4262 0.0000 0.0000
# 5 0.0000 0.0000 0.0000 0.0000 84.2648 0.0000
# 6 0.0000 0.0000 0.0000 0.0000 0.0000 40.3684
#
#
#
# Elastic Compliance Matrix: (Units=1/GPa)
#
#
# Indices 1 2 3 4 5 6 
#
# 1 0.010786 -0.000261 -0.002986 0.000000 0.000000 0.000000
# 2 -0.000261 0.014330 -0.001848 0.000000 0.000000 0.000000
# 3 -0.002986 -0.001848 0.005380 0.000000 0.000000 0.000000
# 4 0.000000 0.000000 0.000000 0.026719 0.000000 0.000000
# 5 0.000000 0.000000 0.000000 0.000000 0.011867 0.000000
# 6 0.000000 0.000000 0.000000 0.000000 0.000000 0.024772
#
#
# Mechanical properties :
#
#
# Convention : Reuss Voigt Hill
#
# Bulk Modulus (GPa) = 49.24624 70.15969 59.70297
# Shear Modulus (GPa) = 45.12098 53.14175 49.13137
#
# Velocity S-wave (km/s) = 4.06852 4.41535 4.24548
# Velocity P-wave (km/s) = 6.33536 7.19252 6.77750
#
# Compressibility (1/GPa) = 0.02030612
#
# Stress axis : x y z
#
# Youngs Moduli (GPa) = 92.71591 69.78360 185.85900
#
# Poissons Ratio (x) = 0.01821 0.55501
# Poissons Ratio (y) = 0.02419 0.34345
# Poissons Ratio (z) = 0.27687 0.12895
#
# Static dielectric constant tensor:
#      x y z
#    x 2.213130 0.000000 0.000000 
#    y 0.000000 2.108930 0.000000 
#    z 0.000000 0.000000 2.072110 
# 
# From -- ./inp_files/20336.got.cif
#   From: 2010.05.17/outbox.cif.g08.bks.cpg/sg60_11_cif.got.tgz:20336.got - 2010.06.03 14:59:27.
