data_PCOD9457239
_publ_section_title
;
Structure prediction by ZEFSAII (Michael W. Deem and Ramdas Pophale) SiO2 
 PCOD9457239
Probable space group: P B C N
;
_chemical_formula_sum "Si O2"
_cell_formula_units_Z 60
_cell_length_a 22.511523
_cell_length_b 9.336202
_cell_length_c 11.595872
_cell_angle_alpha 90.000000
_cell_angle_beta 90.000000
_cell_angle_gamma 90.000000
_cell_volume 2437.129072
_symmetry_space_group_name_H-M "P B C N"
_symmetry_group_IT_number 60
_symmetry_cell_setting 'orthorhombic'
loop_
_space_group_symop_operation_xyz
x,y,z
1/2-x,1/2-y,1/2+z
1/2+x,1/2-y,-z
-x,y,1/2-z
-x,-y,-z
1/2+x,1/2+y,1/2-z
1/2-x,1/2+y,z
x,-y,1/2+z
loop_
_atom_site_type_symbol
_atom_site_label
_atom_site_fract_x
_atom_site_fract_y
_atom_site_fract_z
Si Si1 0.298585 0.907708 0.959784
Si Si2 0.361447 0.724873 0.784297
Si Si3 0.403440 0.236910 0.868517
Si Si4 0.192259 0.933608 0.797570
Si Si5 0.733213 0.837690 0.895932
Si Si6 0.500000 0.415281 0.750000
Si Si7 0.036387 0.179257 0.605001
Si Si8 0.030190 0.453983 0.877258
O O1 0.351782 0.826668 0.894271
O O2 0.251732 0.968356 0.866994
O O3 0.262432 0.782667 0.025137
O O4 0.308023 0.041801 0.044431
O O5 0.354383 0.559711 0.818254
O O6 0.304919 0.761570 0.703249
O O7 0.417443 0.738970 0.700790
O O8 0.337170 0.286707 0.841102
O O9 0.444711 0.312459 0.773231
O O10 0.415926 0.068497 0.869667
O O11 0.427428 0.305069 0.987297
O O12 0.211838 0.918338 0.665661
O O13 0.516466 0.522354 0.854786
O O14 0.979230 0.282836 0.604074
O O15 0.000000 0.479708 0.750000
O O16 0.000000 0.500000 0.000000
#
# Coordination Sequence:
#
# PCOD9457239 Si02
#       8
#     8   8   8   8   8   4   8   8
#     4  11  23  43  67  98 141 180 226 284 351 424
#     4  11  23  43  68 104 136 180 236 285 350 428
#     4  11  24  43  72  99 132 185 244 293 357 436
#     4  11  23  41  72 100 137 180 238 286 345 433
#     4  11  23  43  66 100 141 181 225 289 355 415
#     4  12  22  42  70 104 132 180 242 292 358 428
#     4  11  24  45  68  98 144 181 231 302 363 424
#     4  10  22  46  68  96 139 186 235 303 366 425
#
# _framework density 24.619130999999999
#
# number of rings (size 3 to 8) (size 9 to 14) (size 15 to 20)
#    0.000    1.067    5.333    1.200    0.000    0.000 
#    9.600    0.000    0.000    0.000    0.000    0.000 
#    0.000    0.000    0.000    0.000    0.000    0.000 
#
# Total GULP energy -335288.602533 kJ/mol
# GULP energy per Si atom -5588.143376 kJ/mol
# Density = 2.456310 g / cm^3
# Si number density = 24.619131 Si / 1000 Ang^3
#
#
#
# Elastic Constant Matrix: (Units=GPa)
#
#
# Indices 1 2 3 4 5 6 
#
# 1 59.5696 20.0726 -4.0740 0.0000 0.0000 0.0000
# 2 20.0726 129.4502 23.3570 0.0000 0.0000 0.0000
# 3 -4.0740 23.3570 80.5821 0.0000 0.0000 0.0000
# 4 0.0000 0.0000 0.0000 33.7411 0.0000 0.0000
# 5 0.0000 0.0000 0.0000 0.0000 33.1227 0.0000
# 6 0.0000 0.0000 0.0000 0.0000 0.0000 58.1465
#
#
#
# Elastic Compliance Matrix: (Units=1/GPa)
#
#
# Indices 1 2 3 4 5 6 
#
# 1 0.017959 -0.003111 0.001810 0.000000 0.000000 0.000000
# 2 -0.003111 0.008690 -0.002676 0.000000 0.000000 0.000000
# 3 0.001810 -0.002676 0.013277 0.000000 0.000000 0.000000
# 4 0.000000 0.000000 0.000000 0.029637 0.000000 0.000000
# 5 0.000000 0.000000 0.000000 0.000000 0.030191 0.000000
# 6 0.000000 0.000000 0.000000 0.000000 0.000000 0.017198
#
#
# Mechanical properties :
#
#
# Convention : Reuss Voigt Hill
#
# Bulk Modulus (GPa) = 31.27836 38.70145 34.98991
# Shear Modulus (GPa) = 36.88268 40.35183 38.61726
#
# Velocity S-wave (km/s) = 3.87477 4.05290 3.96484
# Velocity P-wave (km/s) = 5.72284 6.13641 5.93323
#
# Compressibility (1/GPa) = 0.03197098
#
# Stress axis : x y z
#
# Youngs Moduli (GPa) = 55.68166 115.07092 75.31877
#
# Poissons Ratio (x) = 0.35802 -0.13631
# Poissons Ratio (y) = 0.17324 0.20157
# Poissons Ratio (z) = -0.10077 0.30795
#
# Static dielectric constant tensor:
#      x y z
#    x 2.346850 0.000000 0.000000 
#    y 0.000000 1.938850 0.000000 
#    z 0.000000 0.000000 1.964870 
# 
# From -- ./inp_files/13293.got.cif
#   From: 2010.05.17/outbox.cif.g08.bks.cpg/sg60_7_cif.got.tgz:13293.got - 2010.06.03 14:59:27.
