data_PCOD9457297
_publ_section_title
;
Structure prediction by ZEFSAII (Michael W. Deem and Ramdas Pophale) SiO2 
 PCOD9457297
Probable space group: P B C N
;
_chemical_formula_sum "Si O2"
_cell_formula_units_Z 60
_cell_length_a 14.790513
_cell_length_b 23.528984
_cell_length_c 7.763506
_cell_angle_alpha 90.000000
_cell_angle_beta 90.000000
_cell_angle_gamma 90.000000
_cell_volume 2701.744679
_symmetry_space_group_name_H-M "P B C N"
_symmetry_group_IT_number 60
_symmetry_cell_setting 'orthorhombic'
loop_
_space_group_symop_operation_xyz
x,y,z
1/2-x,1/2-y,1/2+z
1/2+x,1/2-y,-z
-x,y,1/2-z
-x,-y,-z
1/2+x,1/2+y,1/2-z
1/2-x,1/2+y,z
x,-y,1/2+z
loop_
_atom_site_type_symbol
_atom_site_label
_atom_site_fract_x
_atom_site_fract_y
_atom_site_fract_z
Si Si1 0.776740 0.067788 0.370527
Si Si2 0.317017 0.013987 0.822482
Si Si3 0.476015 0.563562 0.048971
Si Si4 0.274274 0.312599 0.815186
Si Si5 0.439656 0.943919 0.021543
Si Si6 0.533199 0.682647 0.047729
Si Si7 0.000000 0.650729 0.750000
Si Si8 0.875836 0.265266 0.445835
O O1 0.700750 0.051920 0.510930
O O2 0.869914 0.073259 0.470646
O O3 0.769506 0.123429 0.255186
O O4 0.775671 0.011351 0.251639
O O5 0.372052 0.049012 0.682762
O O6 0.373745 0.955558 0.860944
O O7 0.500000 0.566320 0.250000
O O8 0.522604 0.619549 0.970391
O O9 0.500000 0.500000 0.000000
O O10 0.360293 0.304870 0.944011
O O11 0.304298 0.274933 0.651874
O O12 0.181063 0.296524 0.906981
O O13 0.498844 0.890127 0.079365
O O14 0.500000 0.000000 0.000000
O O15 0.500000 0.680714 0.250000
O O16 0.461257 0.729060 0.980203
O O17 0.917200 0.692077 0.800984
#
# Coordination Sequence:
#
# PCOD9457297 Si02
#       8
#     8   8   8   8   8   8   4   8
#     4  11  21  39  63  99 137 177 225 289 344 422
#     4  10  23  38  62  96 139 173 227 283 350 417
#     4  11  20  37  65  92 128 180 216 264 345 412
#     4  11  22  44  72  96 137 185 234 295 358 419
#     4  11  21  42  63  92 135 180 218 284 353 416
#     4   9  18  43  65  89 137 178 218 284 347 410
#     4  12  22  40  72  96 134 182 232 272 354 432
#     4  11  23  44  72  99 133 187 235 290 360 422
#
# _framework density 22.207874
#
# number of rings (size 3 to 8) (size 9 to 14) (size 15 to 20)
#    0.000    1.333    7.333    1.600    0.000    1.067 
#    0.000    2.000    0.000    0.000    0.000    0.000 
#    0.000    0.000    0.000    0.000    0.000    0.000 
#
# Total GULP energy -334234.826770 kJ/mol
# GULP energy per Si atom -5570.580446 kJ/mol
# Density = 2.215733 g / cm^3
# Si number density = 22.207874 Si / 1000 Ang^3
#
#
#
# Elastic Constant Matrix: (Units=GPa)
#
#
# Indices 1 2 3 4 5 6 
#
# 1 64.0067 45.6067 5.7465 0.0000 0.0000 0.0000
# 2 45.6067 114.8894 11.7931 0.0000 0.0000 0.0000
# 3 5.7465 11.7931 34.6932 0.0000 0.0000 0.0000
# 4 0.0000 0.0000 0.0000 -11.9881 0.0000 0.0000
# 5 0.0000 0.0000 0.0000 0.0000 31.0056 0.0000
# 6 0.0000 0.0000 0.0000 0.0000 0.0000 16.0833
#
#
#
# Elastic Compliance Matrix: (Units=1/GPa)
#
#
# Indices 1 2 3 4 5 6 
#
# 1 0.021801 -0.008583 -0.000694 0.000000 0.000000 0.000000
# 2 -0.008583 0.012398 -0.002793 0.000000 0.000000 0.000000
# 3 -0.000694 -0.002793 0.029888 0.000000 0.000000 0.000000
# 4 0.000000 0.000000 0.000000 -0.083416 0.000000 0.000000
# 5 0.000000 0.000000 0.000000 0.000000 0.032252 0.000000
# 6 0.000000 0.000000 0.000000 0.000000 0.000000 0.062176
#
#
# Mechanical properties :
#
#
# Convention : Reuss Voigt Hill
#
# Bulk Modulus (GPa) = 25.03200 37.76467 31.39834
# Shear Modulus (GPa) = 44.42278 17.04968 30.73623
#
# Velocity S-wave (km/s) = 4.47734 2.77380 3.72428
# Velocity P-wave (km/s) = 6.16644 5.22500 5.71514
#
# Compressibility (1/GPa) = 0.03994886
#
# Stress axis : x y z
#
# Youngs Moduli (GPa) = 45.86868 80.65904 33.45799
#
# Poissons Ratio (x) = 0.69231 0.02320
# Poissons Ratio (y) = 0.39370 0.09344
# Poissons Ratio (z) = 0.03181 0.22525
#
# Static dielectric constant tensor:
#      x y z
#    x 1.906720 0.000000 0.000000 
#    y 0.000000 1.882410 0.000000 
#    z 0.000000 0.000000 1.989170 
# 
# From -- ./inp_files/6283.got.cif
#   From: 2010.05.17/outbox.cif.g08.bks.cpg/sg60_4_cif.got.tgz:6283.got - 2010.06.03 14:59:27.
