data_PCOD9457189
_publ_section_title
;
Structure prediction by ZEFSAII (Michael W. Deem and Ramdas Pophale) SiO2 
 PCOD9457189
Probable space group: P B C N
;
_chemical_formula_sum "Si O2"
_cell_formula_units_Z 36
_cell_length_a 10.997398
_cell_length_b 16.463949
_cell_length_c 9.556408
_cell_angle_alpha 90.000000
_cell_angle_beta 90.000000
_cell_angle_gamma 90.000000
_cell_volume 1730.288964
_symmetry_space_group_name_H-M "P B C N"
_symmetry_group_IT_number 60
_symmetry_cell_setting 'orthorhombic'
loop_
_space_group_symop_operation_xyz
x,y,z
1/2-x,1/2-y,1/2+z
1/2+x,1/2-y,-z
-x,y,1/2-z
-x,-y,-z
1/2+x,1/2+y,1/2-z
1/2-x,1/2+y,z
x,-y,1/2+z
loop_
_atom_site_type_symbol
_atom_site_label
_atom_site_fract_x
_atom_site_fract_y
_atom_site_fract_z
Si Si1 0.000000 0.979275 0.750000
Si Si2 0.382225 0.086704 0.155209
Si Si3 0.890390 0.337121 0.144669
Si Si4 0.816901 0.151178 0.133649
Si Si5 0.728936 0.426014 0.350441
O O1 0.081792 0.918461 0.842521
O O2 0.095470 0.035954 0.669259
O O3 0.500000 0.073754 0.250000
O O4 0.284818 0.136668 0.247923
O O5 0.318714 0.001178 0.121277
O O6 0.413261 0.131296 0.011142
O O7 0.869960 0.240836 0.144117
O O8 0.772801 0.382205 0.209048
O O9 0.000000 0.356587 0.250000
O O10 0.764601 0.135424 0.979433
#
# Coordination Sequence:
#
# PCOD9457189 Si02
#       5
#     4   8   8   8   8
#     4  10  22  44  72  98 130 180 220 276 320 406
#     4  11  24  43  68  97 132 178 225 271 331 399
#     4  12  25  44  66  98 139 174 220 280 335 390
#     4  11  23  44  66  99 136 173 222 276 334 392
#     4  11  24  44  70  99 131 178 225 270 328 401
#
# _framework density 20.805772000000001
#
# number of rings (size 3 to 8) (size 9 to 14) (size 15 to 20)
#    0.000    0.889    1.111    6.667    0.000    4.444 
#   12.000    0.000    0.000    0.000    0.000    0.000 
#    0.000    0.000    0.000    0.000    0.000    0.000 
#
# Total GULP energy -201516.642953 kJ/mol
# GULP energy per Si atom -5597.684526 kJ/mol
# Density = 2.075842 g / cm^3
# Si number density = 20.805772 Si / 1000 Ang^3
#
#
#
# Elastic Constant Matrix: (Units=GPa)
#
#
# Indices 1 2 3 4 5 6 
#
# 1 116.2338 28.7185 54.3109 0.0000 0.0000 0.0000
# 2 28.7185 76.7074 32.1969 0.0000 0.0000 0.0000
# 3 54.3109 32.1969 113.1308 0.0000 0.0000 0.0000
# 4 0.0000 0.0000 0.0000 32.3404 0.0000 0.0000
# 5 0.0000 0.0000 0.0000 0.0000 12.2491 0.0000
# 6 0.0000 0.0000 0.0000 0.0000 0.0000 10.6023
#
#
#
# Elastic Compliance Matrix: (Units=1/GPa)
#
#
# Indices 1 2 3 4 5 6 
#
# 1 0.011421 -0.002242 -0.004845 0.000000 0.000000 0.000000
# 2 -0.002242 0.015245 -0.003262 0.000000 0.000000 0.000000
# 3 -0.004845 -0.003262 0.012094 0.000000 0.000000 0.000000
# 4 0.000000 0.000000 0.000000 0.030921 0.000000 0.000000
# 5 0.000000 0.000000 0.000000 0.000000 0.081639 0.000000
# 6 0.000000 0.000000 0.000000 0.000000 0.000000 0.094319
#
#
# Mechanical properties :
#
#
# Convention : Reuss Voigt Hill
#
# Bulk Modulus (GPa) = 55.36748 59.61386 57.49067
# Shear Modulus (GPa) = 18.35814 23.76139 21.05976
#
# Velocity S-wave (km/s) = 2.97367 3.38310 3.18497
# Velocity P-wave (km/s) = 6.20159 6.63138 6.42008
#
# Compressibility (1/GPa) = 0.01806114
#
# Stress axis : x y z
#
# Youngs Moduli (GPa) = 87.55690 65.59357 82.68822
#
# Poissons Ratio (x) = 0.14709 0.40061
# Poissons Ratio (y) = 0.19634 0.26975
# Poissons Ratio (z) = 0.42419 0.21399
#
# Static dielectric constant tensor:
#      x y z
#    x 1.759330 0.000000 0.000000 
#    y 0.000000 1.703550 0.000000 
#    z 0.000000 0.000000 1.733850 
# 
# From -- ./inp_files/3685.got.cif
#   From: 2010.05.17/outbox.cif.g08.bks.cpg/sg60_2_cif.got.tgz:3685.got - 2010.06.03 14:59:27.
