data_PCOD9457368
_publ_section_title
;
Structure prediction by ZEFSAII (Michael W. Deem and Ramdas Pophale) SiO2 
 PCOD9457368
Probable space group: P B C N
;
_chemical_formula_sum "Si O2"
_cell_formula_units_Z 40
_cell_length_a 8.688510
_cell_length_b 14.189216
_cell_length_c 12.476394
_cell_angle_alpha 90.000000
_cell_angle_beta 90.000000
_cell_angle_gamma 90.000000
_cell_volume 1538.129092
_symmetry_space_group_name_H-M "P B C N"
_symmetry_group_IT_number 60
_symmetry_cell_setting 'orthorhombic'
loop_
_space_group_symop_operation_xyz
x,y,z
1/2-x,1/2-y,1/2+z
1/2+x,1/2-y,-z
-x,y,1/2-z
-x,-y,-z
1/2+x,1/2+y,1/2-z
1/2-x,1/2+y,z
x,-y,1/2+z
loop_
_atom_site_type_symbol
_atom_site_label
_atom_site_fract_x
_atom_site_fract_y
_atom_site_fract_z
Si Si1 0.593455 0.556107 0.591640
Si Si2 0.672464 0.154673 0.003918
Si Si3 0.679949 0.147228 0.438421
Si Si4 0.181725 0.820556 0.775840
Si Si5 0.302427 0.618225 0.701051
O O1 0.500000 0.500000 0.500000
O O2 0.745396 0.581184 0.526592
O O3 0.461675 0.631586 0.632319
O O4 0.659050 0.538576 0.711633
O O5 0.499808 0.155353 0.044507
O O6 0.782845 0.139778 0.106076
O O7 0.725774 0.256525 0.961589
O O8 0.685641 0.094215 0.894874
O O9 0.723758 0.127284 0.316695
O O10 0.242755 0.711163 0.764637
O O11 0.000000 0.822768 0.750000
#
# Coordination Sequence:
#
# PCOD9457368 Si02
#       5
#     8   8   8   8   8
#     4  11  24  45  65  90 136 198 248 283 335 433
#     4  11  21  37  67 107 141 168 220 305 377 437
#     4  11  22  36  65 103 139 175 227 286 371 433
#     4  11  21  37  69 109 146 173 210 296 386 444
#     4  10  23  41  68  94 134 179 234 292 354 426
#
# _framework density 26.00562
#
# number of rings (size 3 to 8) (size 9 to 14) (size 15 to 20)
#    0.000    1.200    2.000    6.600    5.600    0.000 
#   10.800    1.000    0.000    0.000    0.000    0.000 
#    0.000    0.000    0.000    0.000    0.000    0.000 
#
# Total GULP energy -223390.588494 kJ/mol
# GULP energy per Si atom -5584.764712 kJ/mol
# Density = 2.594643 g / cm^3
# Si number density = 26.005620 Si / 1000 Ang^3
#
#
#
# Elastic Constant Matrix: (Units=GPa)
#
#
# Indices 1 2 3 4 5 6 
#
# 1 167.8503 34.6460 66.7684 0.0000 0.0000 0.0000
# 2 34.6460 57.9864 64.5379 0.0000 0.0000 0.0000
# 3 66.7684 64.5379 261.6356 0.0000 0.0000 0.0000
# 4 0.0000 0.0000 0.0000 37.0323 0.0000 0.0000
# 5 0.0000 0.0000 0.0000 0.0000 60.2776 0.0000
# 6 0.0000 0.0000 0.0000 0.0000 0.0000 20.0388
#
#
#
# Elastic Compliance Matrix: (Units=1/GPa)
#
#
# Indices 1 2 3 4 5 6 
#
# 1 0.006995 -0.003022 -0.001040 0.000000 0.000000 0.000000
# 2 -0.003022 0.025078 -0.005415 0.000000 0.000000 0.000000
# 3 -0.001040 -0.005415 0.005423 0.000000 0.000000 0.000000
# 4 0.000000 0.000000 0.000000 0.027003 0.000000 0.000000
# 5 0.000000 0.000000 0.000000 0.000000 0.016590 0.000000
# 6 0.000000 0.000000 0.000000 0.000000 0.000000 0.049903
#
#
# Mechanical properties :
#
#
# Convention : Reuss Voigt Hill
#
# Bulk Modulus (GPa) = 53.93009 91.04188 72.48599
# Shear Modulus (GPa) = 32.02537 44.90442 38.46489
#
# Velocity S-wave (km/s) = 3.51305 4.15989 3.85008
# Velocity P-wave (km/s) = 6.10231 7.62610 6.90636
#
# Compressibility (1/GPa) = 0.01854252
#
# Stress axis : x y z
#
# Youngs Moduli (GPa) = 142.95769 39.87619 184.39869
#
# Poissons Ratio (x) = 0.12052 0.19170
# Poissons Ratio (y) = 0.43208 0.99845
# Poissons Ratio (z) = 0.14862 0.21591
#
# Static dielectric constant tensor:
#      x y z
#    x 1.978420 0.000000 0.000000 
#    y 0.000000 2.329890 0.000000 
#    z 0.000000 0.000000 2.094010 
# 
# From -- ./inp_files/9763.got.cif
#   From: 2010.05.17/outbox.cif.g08.bks.cpg/sg60_5_cif.got.tgz:9763.got - 2010.06.03 14:59:27.
