data_PCOD9457048
_publ_section_title
;
Structure prediction by ZEFSAII (Michael W. Deem and Ramdas Pophale) SiO2 
 PCOD9457048
Probable space group: P B C N
;
_chemical_formula_sum "Si O2"
_cell_formula_units_Z 56
_cell_length_a 9.864721
_cell_length_b 19.101640
_cell_length_c 14.229171
_cell_angle_alpha 90.000000
_cell_angle_beta 90.000000
_cell_angle_gamma 90.000000
_cell_volume 2681.236119
_symmetry_space_group_name_H-M "P B C N"
_symmetry_group_IT_number 60
_symmetry_cell_setting 'orthorhombic'
loop_
_space_group_symop_operation_xyz
x,y,z
1/2-x,1/2-y,1/2+z
1/2+x,1/2-y,-z
-x,y,1/2-z
-x,-y,-z
1/2+x,1/2+y,1/2-z
1/2-x,1/2+y,z
x,-y,1/2+z
loop_
_atom_site_type_symbol
_atom_site_label
_atom_site_fract_x
_atom_site_fract_y
_atom_site_fract_z
Si Si1 0.094823 0.278061 0.492594
Si Si2 0.377301 0.953325 0.119961
Si Si3 0.167980 0.712591 0.605755
Si Si4 0.168152 0.489765 0.912006
Si Si5 0.266270 0.712178 0.808277
Si Si6 0.848608 0.943569 0.226351
Si Si7 0.940162 0.651355 0.149918
O O1 0.192351 0.226126 0.550203
O O2 0.174200 0.302283 0.399421
O O3 0.952788 0.249523 0.450969
O O4 0.052213 0.336808 0.568858
O O5 0.369522 0.869502 0.105988
O O6 0.265565 0.968699 0.199138
O O7 0.533829 0.974790 0.134120
O O8 0.340283 0.992327 0.023720
O O9 0.183873 0.734129 0.714452
O O10 0.299825 0.526063 0.872124
O O11 0.161129 0.408341 0.883935
O O12 0.339447 0.640584 0.779149
O O13 0.367660 0.774389 0.834408
O O14 0.000000 0.965152 0.250000
O O15 0.000000 0.629918 0.250000
#
# Coordination Sequence:
#
# PCOD9457048 Si02
#       7
#     8   8   8   8   8   8   8
#     4  12  22  39  65  99 130 171 220 277 339 387
#     4  10  22  42  68  94 129 179 229 271 325 407
#     4  11  23  41  65  97 137 172 224 281 331 414
#     4  11  23  44  70  95 133 175 230 278 325 398
#     4  11  24  42  67  98 133 177 226 274 337 405
#     4  11  25  42  68  99 134 177 220 276 339 409
#     4  12  23  41  69  98 130 173 219 281 332 399
#
# _framework density 20.885888999999999
#
# number of rings (size 3 to 8) (size 9 to 14) (size 15 to 20)
#    0.000    0.857    4.286    3.000    4.000    2.857 
#    0.000    2.857    0.000    0.000    0.000    0.000 
#    0.000    0.000    0.000    0.000    0.000    0.000 
#
# Total GULP energy -312958.918566 kJ/mol
# GULP energy per Si atom -5588.552117 kJ/mol
# Density = 2.083835 g / cm^3
# Si number density = 20.885889 Si / 1000 Ang^3
#
#
#
# Elastic Constant Matrix: (Units=GPa)
#
#
# Indices 1 2 3 4 5 6 
#
# 1 98.2943 22.8760 42.2077 0.0000 0.0000 0.0000
# 2 22.8760 51.3222 8.7222 0.0000 0.0000 0.0000
# 3 42.2077 8.7222 128.0481 0.0000 0.0000 0.0000
# 4 0.0000 0.0000 0.0000 17.0827 0.0000 0.0000
# 5 0.0000 0.0000 0.0000 0.0000 30.1620 0.0000
# 6 0.0000 0.0000 0.0000 0.0000 0.0000 30.6486
#
#
#
# Elastic Compliance Matrix: (Units=1/GPa)
#
#
# Indices 1 2 3 4 5 6 
#
# 1 0.013073 -0.005154 -0.003958 0.000000 0.000000 0.000000
# 2 -0.005154 0.021745 0.000218 0.000000 0.000000 0.000000
# 3 -0.003958 0.000218 0.009099 0.000000 0.000000 0.000000
# 4 0.000000 0.000000 0.000000 0.058539 0.000000 0.000000
# 5 0.000000 0.000000 0.000000 0.000000 0.033154 0.000000
# 6 0.000000 0.000000 0.000000 0.000000 0.000000 0.032628
#
#
# Mechanical properties :
#
#
# Convention : Reuss Voigt Hill
#
# Bulk Modulus (GPa) = 38.27275 47.25293 42.76284
# Shear Modulus (GPa) = 25.67571 29.16923 27.42247
#
# Velocity S-wave (km/s) = 3.50999 3.74117 3.62742
# Velocity P-wave (km/s) = 5.89840 6.42925 6.16954
#
# Compressibility (1/GPa) = 0.02612825
#
# Stress axis : x y z
#
# Youngs Moduli (GPa) = 76.49565 45.98725 109.89769
#
# Poissons Ratio (x) = 0.23703 0.43497
# Poissons Ratio (y) = 0.39428 -0.02393
# Poissons Ratio (z) = 0.30277 -0.01001
#
# Static dielectric constant tensor:
#      x y z
#    x 1.745800 0.000000 0.000000 
#    y 0.000000 1.733380 0.000000 
#    z 0.000000 0.000000 1.792730 
# 
# From -- ./inp_files/15255.got.cif
#   From: 2010.05.17/outbox.cif.g08.bks.cpg/sg60_8_cif.got.tgz:15255.got - 2010.06.03 14:59:27.
