data_PCOD9457519
_publ_section_title
;
Structure prediction by ZEFSAII (Michael W. Deem and Ramdas Pophale) SiO2 
 PCOD9457519
Probable space group: P B C N
;
_chemical_formula_sum "Si O2"
_cell_formula_units_Z 24
_cell_length_a 10.798061
_cell_length_b 14.221401
_cell_length_c 7.581178
_cell_angle_alpha 90.000000
_cell_angle_beta 90.000000
_cell_angle_gamma 90.000000
_cell_volume 1164.192649
_symmetry_space_group_name_H-M "P B C N"
_symmetry_group_IT_number 60
_symmetry_cell_setting 'orthorhombic'
loop_
_space_group_symop_operation_xyz
x,y,z
1/2-x,1/2-y,1/2+z
1/2+x,1/2-y,-z
-x,y,1/2-z
-x,-y,-z
1/2+x,1/2+y,1/2-z
1/2-x,1/2+y,z
x,-y,1/2+z
loop_
_atom_site_type_symbol
_atom_site_label
_atom_site_fract_x
_atom_site_fract_y
_atom_site_fract_z
Si Si1 0.848051 0.397700 0.081045
Si Si2 0.053952 0.899248 0.442166
Si Si3 0.000000 0.754551 0.750000
Si Si4 0.500000 0.065544 0.250000
O O1 0.702499 0.404362 0.058656
O O2 0.885406 0.315750 0.216611
O O3 0.902167 0.496032 0.154464
O O4 0.923540 0.379841 0.899257
O O5 0.000000 0.877214 0.250000
O O6 0.016136 0.820882 0.582679
O O7 0.000000 0.000000 0.500000
#
# Coordination Sequence:
#
# PCOD9457519 Si02
#       4
#     8   8   4   4
#     4  10  23  44  69 101 137 178 240 288 351 426
#     4  12  26  46  69 100 143 188 231 294 361 423
#     4  11  28  42  65 108 128 188 237 286 356 403
#     4   9  20  42  73  98 132 182 227 292 356 411
#
# _framework density 20.615144000000001
#
# number of rings (size 3 to 8) (size 9 to 14) (size 15 to 20)
#    0.000    1.333    1.667    2.000    7.000    0.000 
#    0.000    0.000    0.000    0.000    0.000    0.000 
#    0.000    0.000    0.000    0.000    0.000    0.000 
#
# Total GULP energy -134251.422043 kJ/mol
# GULP energy per Si atom -5593.809252 kJ/mol
# Density = 2.056822 g / cm^3
# Si number density = 20.615144 Si / 1000 Ang^3
#
#
#
# Elastic Constant Matrix: (Units=GPa)
#
#
# Indices 1 2 3 4 5 6 
#
# 1 141.1415 50.6848 36.5413 0.0000 0.0000 0.0000
# 2 50.6848 106.5395 46.5250 0.0000 0.0000 0.0000
# 3 36.5413 46.5250 147.9050 0.0000 0.0000 0.0000
# 4 0.0000 0.0000 0.0000 48.8827 0.0000 0.0000
# 5 0.0000 0.0000 0.0000 0.0000 23.4784 0.0000
# 6 0.0000 0.0000 0.0000 0.0000 0.0000 -6.4512
#
#
#
# Elastic Compliance Matrix: (Units=1/GPa)
#
#
# Indices 1 2 3 4 5 6 
#
# 1 0.008665 -0.003695 -0.000979 0.000000 0.000000 0.000000
# 2 -0.003695 0.012457 -0.003005 0.000000 0.000000 0.000000
# 3 -0.000979 -0.003005 0.007948 0.000000 0.000000 0.000000
# 4 0.000000 0.000000 0.000000 0.020457 0.000000 0.000000
# 5 0.000000 0.000000 0.000000 0.000000 0.042592 0.000000
# 6 0.000000 0.000000 0.000000 0.000000 0.000000 -0.155011
#
#
# Mechanical properties :
#
#
# Convention : Reuss Voigt Hill
#
# Bulk Modulus (GPa) = 72.92871 73.67645 73.30258
# Shear Modulus (GPa) = -116.38070 30.63765 -42.87153
#
# Velocity S-wave (km/s) = -7.52174 3.85927 -4.56522
# Velocity P-wave (km/s) = 6.32316 7.46158 2.80115
#
# Compressibility (1/GPa) = 0.01371202
#
# Stress axis : x y z
#
# Youngs Moduli (GPa) = 115.40186 80.27915 125.81414
#
# Poissons Ratio (x) = 0.29664 0.12311
# Poissons Ratio (y) = 0.42642 0.37812
# Poissons Ratio (z) = 0.11292 0.24127
#
# Static dielectric constant tensor:
#      x y z
#    x 1.670390 0.000000 0.000000 
#    y 0.000000 1.710700 0.000000 
#    z 0.000000 0.000000 1.774510 
# 
# From -- ./inp_files/3321.got.cif
#   From: 2010.05.17/outbox.cif.g08.bks.cpg/sg60_2_cif.got.tgz:3321.got - 2010.06.03 14:59:27.
