data_PCOD9457900
_publ_section_title
;
Structure prediction by ZEFSAII (Michael W. Deem and Ramdas Pophale) SiO2 
 PCOD9457900
Probable space group: P B C N
;
_chemical_formula_sum "Si O2"
_cell_formula_units_Z 32
_cell_length_a 29.298834
_cell_length_b 4.594616
_cell_length_c 8.591998
_cell_angle_alpha 90.000000
_cell_angle_beta 90.000000
_cell_angle_gamma 90.000000
_cell_volume 1156.628062
_symmetry_space_group_name_H-M "P B C N"
_symmetry_group_IT_number 60
_symmetry_cell_setting 'orthorhombic'
loop_
_space_group_symop_operation_xyz
x,y,z
1/2-x,1/2-y,1/2+z
1/2+x,1/2-y,-z
-x,y,1/2-z
-x,-y,-z
1/2+x,1/2+y,1/2-z
1/2-x,1/2+y,z
x,-y,1/2+z
loop_
_atom_site_type_symbol
_atom_site_label
_atom_site_fract_x
_atom_site_fract_y
_atom_site_fract_z
Si Si1 0.531852 0.817300 0.381256
Si Si2 0.782346 0.811550 0.847357
Si Si3 0.902061 0.209951 0.882439
Si Si4 0.842042 0.563106 0.121931
O O1 0.500000 0.676798 0.250000
O O2 0.430482 0.423905 0.569896
O O3 0.500000 0.000000 0.500000
O O4 0.561293 0.073017 0.307279
O O5 0.733879 0.641633 0.849607
O O6 0.809307 0.669511 0.705021
O O7 0.813133 0.740458 0.996042
O O8 0.863580 0.216082 0.749256
O O9 0.879951 0.374603 0.029201
#
# Coordination Sequence:
#
# PCOD9457900 Si02
#       4
#     8   8   8   8
#     4  12  27  49  75 106 144 191 244 304 373 448
#     4  11  24  43  70 104 146 196 248 304 366 437
#     4  11  26  46  71 106 147 193 246 305 369 442
#     4  10  25  44  71 106 148 196 249 307 370 437
#
# _framework density 27.666630999999999
#
# number of rings (size 3 to 8) (size 9 to 14) (size 15 to 20)
#    0.000    1.000    0.000    4.500    0.000   18.000 
#    0.000    2.500    0.000    0.000    0.000    0.000 
#    0.000    0.000    0.000    0.000    0.000    0.000 
#
# Total GULP energy -179546.972042 kJ/mol
# GULP energy per Si atom -5610.842876 kJ/mol
# Density = 2.760366 g / cm^3
# Si number density = 27.666631 Si / 1000 Ang^3
#
#
#
# Elastic Constant Matrix: (Units=GPa)
#
#
# Indices 1 2 3 4 5 6 
#
# 1 162.2986 64.8769 65.0218 0.0000 0.0000 0.0000
# 2 64.8769 155.6459 37.9343 0.0000 0.0000 0.0000
# 3 65.0218 37.9343 143.6741 0.0000 0.0000 0.0000
# 4 0.0000 0.0000 0.0000 29.3256 0.0000 0.0000
# 5 0.0000 0.0000 0.0000 0.0000 65.0517 0.0000
# 6 0.0000 0.0000 0.0000 0.0000 0.0000 65.4976
#
#
#
# Elastic Compliance Matrix: (Units=1/GPa)
#
#
# Indices 1 2 3 4 5 6 
#
# 1 0.008529 -0.002794 -0.003122 0.000000 0.000000 0.000000
# 2 -0.002794 0.007782 -0.000790 0.000000 0.000000 0.000000
# 3 -0.003122 -0.000790 0.008582 0.000000 0.000000 0.000000
# 4 0.000000 0.000000 0.000000 0.034100 0.000000 0.000000
# 5 0.000000 0.000000 0.000000 0.000000 0.015372 0.000000
# 6 0.000000 0.000000 0.000000 0.000000 0.000000 0.015268
#
#
# Mechanical properties :
#
#
# Convention : Reuss Voigt Hill
#
# Bulk Modulus (GPa) = 87.10855 88.58717 87.84786
# Shear Modulus (GPa) = 46.78433 51.56069 49.17251
#
# Velocity S-wave (km/s) = 4.11664 4.32167 4.22040
# Velocity P-wave (km/s) = 7.35860 7.54927 7.45455
#
# Compressibility (1/GPa) = 0.01147993
#
# Stress axis : x y z
#
# Youngs Moduli (GPa) = 117.24228 128.49966 116.52478
#
# Poissons Ratio (x) = 0.35906 0.36383
# Poissons Ratio (y) = 0.32760 0.09207
# Poissons Ratio (z) = 0.36607 0.10153
#
# Static dielectric constant tensor:
#      x y z
#    x 2.197130 0.000000 0.000000 
#    y 0.000000 2.488510 0.000000 
#    z 0.000000 0.000000 2.117890 
# 
# From -- ./inp_files/8288.got.cif
#   From: 2010.05.17/outbox.cif.g08.bks.cpg/sg60_5_cif.got.tgz:8288.got - 2010.06.03 14:59:27.
