data_PCOD9457883
_publ_section_title
;
Structure prediction by ZEFSAII (Michael W. Deem and Ramdas Pophale) SiO2 
 PCOD9457883
Probable space group: P B C N
;
_chemical_formula_sum "Si O2"
_cell_formula_units_Z 56
_cell_length_a 20.670704
_cell_length_b 14.016241
_cell_length_c 9.338353
_cell_angle_alpha 90.000000
_cell_angle_beta 90.000000
_cell_angle_gamma 90.000000
_cell_volume 2705.559636
_symmetry_space_group_name_H-M "P B C N"
_symmetry_group_IT_number 60
_symmetry_cell_setting 'orthorhombic'
loop_
_space_group_symop_operation_xyz
x,y,z
1/2-x,1/2-y,1/2+z
1/2+x,1/2-y,-z
-x,y,1/2-z
-x,-y,-z
1/2+x,1/2+y,1/2-z
1/2-x,1/2+y,z
x,-y,1/2+z
loop_
_atom_site_type_symbol
_atom_site_label
_atom_site_fract_x
_atom_site_fract_y
_atom_site_fract_z
Si Si1 0.762335 0.808888 0.657142
Si Si2 0.740440 0.439156 0.911059
Si Si3 0.073962 0.217098 0.754189
Si Si4 0.874668 0.384858 0.567064
Si Si5 0.802002 0.893715 0.219993
Si Si6 0.422226 0.935891 0.250037
Si Si7 0.360529 0.185508 0.995662
O O1 0.788182 0.865141 0.794531
O O2 0.701910 0.866505 0.590447
O O3 0.732651 0.708873 0.711818
O O4 0.816658 0.776596 0.546387
O O5 0.734182 0.538888 0.831245
O O6 0.811161 0.395598 0.946186
O O7 0.704699 0.438620 0.062172
O O8 0.091328 0.285078 0.889032
O O9 0.123595 0.129317 0.749182
O O10 0.090522 0.283513 0.617909
O O11 0.000000 0.188805 0.750000
O O12 0.897341 0.466161 0.678072
O O13 0.895199 0.417012 0.408796
O O14 0.500000 0.937319 0.250000
O O15 0.395537 0.854453 0.356098
#
# Coordination Sequence:
#
# PCOD9457883 Si02
#       7
#     8   8   8   8   8   8   8
#     4  10  25  40  66  99 133 167 222 276 338 383
#     4  11  24  43  66 101 134 167 216 282 331 392
#     4  11  23  46  67  92 134 179 225 268 321 396
#     4  11  24  41  65  94 136 172 224 273 334 393
#     4  10  25  41  70  99 133 169 221 265 344 382
#     4  12  26  41  64  97 136 182 221 267 328 407
#     4  11  25  42  68  98 131 179 218 274 342 383
#
# _framework density 20.698121
#
# number of rings (size 3 to 8) (size 9 to 14) (size 15 to 20)
#    0.000    1.143    2.857    2.571   12.000    0.000 
#    0.000    0.714    0.000    0.000    0.000    0.000 
#    0.000    0.000    0.000    0.000    0.000    0.000 
#
# Total GULP energy -313507.905133 kJ/mol
# GULP energy per Si atom -5598.355449 kJ/mol
# Density = 2.065101 g / cm^3
# Si number density = 20.698121 Si / 1000 Ang^3
#
#
#
# Elastic Constant Matrix: (Units=GPa)
#
#
# Indices 1 2 3 4 5 6 
#
# 1 103.3587 37.1741 45.3118 0.0000 0.0000 0.0000
# 2 37.1741 71.2057 57.9507 0.0000 0.0000 0.0000
# 3 45.3118 57.9507 158.6705 0.0000 0.0000 0.0000
# 4 0.0000 0.0000 0.0000 35.8975 0.0000 0.0000
# 5 0.0000 0.0000 0.0000 0.0000 23.7652 0.0000
# 6 0.0000 0.0000 0.0000 0.0000 0.0000 20.2704
#
#
#
# Elastic Compliance Matrix: (Units=1/GPa)
#
#
# Indices 1 2 3 4 5 6 
#
# 1 0.012207 -0.005031 -0.001648 0.000000 0.000000 0.000000
# 2 -0.005031 0.022058 -0.006619 0.000000 0.000000 0.000000
# 3 -0.001648 -0.006619 0.009191 0.000000 0.000000 0.000000
# 4 0.000000 0.000000 0.000000 0.027857 0.000000 0.000000
# 5 0.000000 0.000000 0.000000 0.000000 0.042078 0.000000
# 6 0.000000 0.000000 0.000000 0.000000 0.000000 0.049333
#
#
# Mechanical properties :
#
#
# Convention : Reuss Voigt Hill
#
# Bulk Modulus (GPa) = 59.32121 68.23424 63.77773
# Shear Modulus (GPa) = 25.64876 28.83984 27.24430
#
# Velocity S-wave (km/s) = 3.52402 3.73682 3.63198
# Velocity P-wave (km/s) = 6.72909 7.18724 6.96194
#
# Compressibility (1/GPa) = 0.01685738
#
# Stress axis : x y z
#
# Youngs Moduli (GPa) = 81.91794 45.33592 108.80669
#
# Poissons Ratio (x) = 0.22811 0.17936
# Poissons Ratio (y) = 0.41217 0.72021
# Poissons Ratio (z) = 0.13504 0.30009
#
# Static dielectric constant tensor:
#      x y z
#    x 1.727560 0.000000 0.000000 
#    y 0.000000 1.768690 0.000000 
#    z 0.000000 0.000000 1.767690 
# 
# From -- ./inp_files/7407.got.cif
#   From: 2010.05.17/outbox.cif.g08.bks.cpg/sg60_4_cif.got.tgz:7407.got - 2010.06.03 14:59:27.
