data_PCOD9457672
_publ_section_title
;
Structure prediction by ZEFSAII (Michael W. Deem and Ramdas Pophale) SiO2 
 PCOD9457672
Probable space group: P B C N
;
_chemical_formula_sum "Si O2"
_cell_formula_units_Z 60
_cell_length_a 26.354084
_cell_length_b 9.099479
_cell_length_c 12.773985
_cell_angle_alpha 90.000000
_cell_angle_beta 90.000000
_cell_angle_gamma 90.000000
_cell_volume 3063.309338
_symmetry_space_group_name_H-M "P B C N"
_symmetry_group_IT_number 60
_symmetry_cell_setting 'orthorhombic'
loop_
_space_group_symop_operation_xyz
x,y,z
1/2-x,1/2-y,1/2+z
1/2+x,1/2-y,-z
-x,y,1/2-z
-x,-y,-z
1/2+x,1/2+y,1/2-z
1/2-x,1/2+y,z
x,-y,1/2+z
loop_
_atom_site_type_symbol
_atom_site_label
_atom_site_fract_x
_atom_site_fract_y
_atom_site_fract_z
Si Si1 0.586301 0.385366 0.014114
Si Si2 0.797651 0.776303 0.296809
Si Si3 0.043317 0.871251 0.842966
Si Si4 0.000000 0.776140 0.250000
Si Si5 0.101163 0.038879 0.702588
Si Si6 0.768784 0.502931 0.431236
Si Si7 0.997594 0.670152 0.013584
Si Si8 0.303110 0.272589 0.439761
O O1 0.599075 0.481785 0.914372
O O2 0.639147 0.333601 0.063858
O O3 0.546735 0.483421 0.082156
O O4 0.555310 0.243286 0.979669
O O5 0.851699 0.855166 0.289745
O O6 0.798392 0.625798 0.363448
O O7 0.762003 0.895713 0.353329
O O8 0.781956 0.748991 0.177023
O O9 0.000000 0.857720 0.750000
O O10 0.095928 0.896664 0.779142
O O11 0.036650 0.746334 0.931070
O O12 0.050663 0.871006 0.230584
O O13 0.001479 0.692877 0.360614
O O14 0.799835 0.384405 0.500482
O O15 0.730424 0.602948 0.501089
O O16 0.000000 0.500000 0.000000
#
# Coordination Sequence:
#
# PCOD9457672 Si02
#       8
#     8   8   8   4   8   8   8   8
#     4  12  22  41  65  97 125 172 227 265 326 408
#     4  11  22  41  68  97 131 173 221 273 342 400
#     4  12  22  41  68  94 127 174 225 268 325 401
#     4  12  22  40  62  90 130 170 216 268 332 386
#     4  12  21  38  70  95 124 173 224 273 318 408
#     4  10  24  41  65  98 133 171 217 282 340 402
#     4  12  26  39  61  93 134 172 215 279 332 385
#     4  11  22  42  67  95 133 171 216 276 335 404
#
# _framework density 19.586659999999998
#
# number of rings (size 3 to 8) (size 9 to 14) (size 15 to 20)
#    0.000    0.533    7.333    1.200    0.933    1.067 
#    0.000    1.333    0.000    0.000    0.000    0.000 
#    0.000    0.000    0.000    0.000    0.000    0.000 
#
# Total GULP energy -334028.774541 kJ/mol
# GULP energy per Si atom -5567.146242 kJ/mol
# Density = 1.954208 g / cm^3
# Si number density = 19.586660 Si / 1000 Ang^3
#
#
#
# Elastic Constant Matrix: (Units=GPa)
#
#
# Indices 1 2 3 4 5 6 
#
# 1 56.3100 38.0094 30.5438 0.0000 0.0000 0.0000
# 2 38.0094 152.0154 72.9275 0.0000 0.0000 0.0000
# 3 30.5438 72.9275 146.1341 0.0000 0.0000 0.0000
# 4 0.0000 0.0000 0.0000 32.8881 0.0000 0.0000
# 5 0.0000 0.0000 0.0000 0.0000 20.7838 0.0000
# 6 0.0000 0.0000 0.0000 0.0000 0.0000 47.4244
#
#
#
# Elastic Compliance Matrix: (Units=1/GPa)
#
#
# Indices 1 2 3 4 5 6 
#
# 1 0.022006 -0.004333 -0.002437 0.000000 0.000000 0.000000
# 2 -0.004333 0.009502 -0.003836 0.000000 0.000000 0.000000
# 3 -0.002437 -0.003836 0.009267 0.000000 0.000000 0.000000
# 4 0.000000 0.000000 0.000000 0.030406 0.000000 0.000000
# 5 0.000000 0.000000 0.000000 0.000000 0.048114 0.000000
# 6 0.000000 0.000000 0.000000 0.000000 0.000000 0.021086
#
#
# Mechanical properties :
#
#
# Convention : Reuss Voigt Hill
#
# Bulk Modulus (GPa) = 51.12021 70.82456 60.97239
# Shear Modulus (GPa) = 29.74160 34.41785 32.07972
#
# Velocity S-wave (km/s) = 3.90097 4.19645 4.05141
# Velocity P-wave (km/s) = 6.81515 7.72777 7.28576
#
# Compressibility (1/GPa) = 0.01956173
#
# Stress axis : x y z
#
# Youngs Moduli (GPa) = 45.44310 105.23954 107.91086
#
# Poissons Ratio (x) = 0.45601 0.26298
# Poissons Ratio (y) = 0.19691 0.41398
# Poissons Ratio (z) = 0.11075 0.40373
#
# Static dielectric constant tensor:
#      x y z
#    x 1.680140 0.000000 0.000000 
#    y 0.000000 1.685860 0.000000 
#    z 0.000000 0.000000 1.811760 
# 
# From -- ./inp_files/13285.got.cif
#   From: 2010.05.17/outbox.cif.g08.bks.cpg/sg60_7_cif.got.tgz:13285.got - 2010.06.03 14:59:27.
