data_PCOD9457980
_publ_section_title
;
Structure prediction by ZEFSAII (Michael W. Deem and Ramdas Pophale) SiO2 
 PCOD9457980
Probable space group: P B C N
;
_chemical_formula_sum "Si O2"
_cell_formula_units_Z 28
_cell_length_a 4.812187
_cell_length_b 12.552821
_cell_length_c 16.330837
_cell_angle_alpha 90.000000
_cell_angle_beta 90.000000
_cell_angle_gamma 90.000000
_cell_volume 986.489065
_symmetry_space_group_name_H-M "P B C N"
_symmetry_group_IT_number 60
_symmetry_cell_setting 'orthorhombic'
loop_
_space_group_symop_operation_xyz
x,y,z
1/2-x,1/2-y,1/2+z
1/2+x,1/2-y,-z
-x,y,1/2-z
-x,-y,-z
1/2+x,1/2+y,1/2-z
1/2-x,1/2+y,z
x,-y,1/2+z
loop_
_atom_site_type_symbol
_atom_site_label
_atom_site_fract_x
_atom_site_fract_y
_atom_site_fract_z
Si Si1 0.864348 0.838110 0.323393
Si Si2 0.628698 0.787243 0.545461
Si Si3 0.000000 0.850402 0.750000
Si Si4 0.172935 0.035277 0.082118
O O1 0.104893 0.787844 0.377168
O O2 0.721838 0.736513 0.282753
O O3 0.000000 0.901213 0.250000
O O4 0.709881 0.923042 0.380191
O O5 0.941991 0.608340 0.438877
O O6 0.447650 0.719139 0.479514
O O7 0.006552 0.915680 0.838969
O O8 0.000000 0.000000 0.000000
#
# Coordination Sequence:
#
# PCOD9457980 Si02
#       4
#     8   8   4   8
#     4  11  25  46  72 106 157 203 259 330 399 476
#     4  11  26  48  76 112 155 201 262 330 396 483
#     4  10  26  48  70 112 154 206 266 338 398 488
#     4  11  23  47  79 112 152 207 272 325 414 484
#
# _framework density 28.383488
#
# number of rings (size 3 to 8) (size 9 to 14) (size 15 to 20)
#    0.000    1.143    4.286    0.000    8.000    1.143 
#   15.429    0.000    0.000    0.000    0.000    0.000 
#    0.000    0.000    0.000    0.000    0.000    0.000 
#
# Total GULP energy -156075.049308 kJ/mol
# GULP energy per Si atom -5574.108904 kJ/mol
# Density = 2.831889 g / cm^3
# Si number density = 28.383488 Si / 1000 Ang^3
#
#
#
# Elastic Constant Matrix: (Units=GPa)
#
#
# Indices 1 2 3 4 5 6 
#
# 1 105.4964 16.5344 37.8437 0.0000 0.0000 0.0000
# 2 16.5344 144.5344 65.1495 0.0000 0.0000 0.0000
# 3 37.8437 65.1495 233.5048 0.0000 0.0000 0.0000
# 4 0.0000 0.0000 0.0000 32.9662 0.0000 0.0000
# 5 0.0000 0.0000 0.0000 0.0000 45.4849 0.0000
# 6 0.0000 0.0000 0.0000 0.0000 0.0000 32.3114
#
#
#
# Elastic Compliance Matrix: (Units=1/GPa)
#
#
# Indices 1 2 3 4 5 6 
#
# 1 0.010093 -0.000477 -0.001503 0.000000 0.000000 0.000000
# 2 -0.000477 0.007937 -0.002137 0.000000 0.000000 0.000000
# 3 -0.001503 -0.002137 0.005122 0.000000 0.000000 0.000000
# 4 0.000000 0.000000 0.000000 0.030334 0.000000 0.000000
# 5 0.000000 0.000000 0.000000 0.000000 0.021985 0.000000
# 6 0.000000 0.000000 0.000000 0.000000 0.000000 0.030949
#
#
# Mechanical properties :
#
#
# Convention : Reuss Voigt Hill
#
# Bulk Modulus (GPa) = 67.03312 80.28788 73.66050
# Shear Modulus (GPa) = 41.79678 46.41970 44.10824
#
# Velocity S-wave (km/s) = 3.84158 4.04845 3.94637
# Velocity P-wave (km/s) = 6.58370 7.08530 6.83910
#
# Compressibility (1/GPa) = 0.01491800
#
# Stress axis : x y z
#
# Youngs Moduli (GPa) = 99.08051 125.99790 195.22380
#
# Poissons Ratio (x) = 0.06014 0.29333
# Poissons Ratio (y) = 0.04729 0.41720
# Poissons Ratio (z) = 0.14887 0.26926
#
# Static dielectric constant tensor:
#      x y z
#    x 0.909020 0.000000 0.000000 
#    y 0.000000 2.429000 0.000000 
#    z 0.000000 0.000000 2.531900 
# 
# From -- ./inp_files/18344.got.cif
#   From: 2010.05.17/outbox.cif.g08.bks.cpg/sg60_10_cif.got.tgz:18344.got - 2010.06.03 14:59:27.
