data_PCOD9457778
_publ_section_title
;
Structure prediction by ZEFSAII (Michael W. Deem and Ramdas Pophale) SiO2 
 PCOD9457778
Probable space group: P B C N
;
_chemical_formula_sum "Si O2"
_cell_formula_units_Z 28
_cell_length_a 5.978251
_cell_length_b 16.997917
_cell_length_c 11.539896
_cell_angle_alpha 90.000000
_cell_angle_beta 90.000000
_cell_angle_gamma 90.000000
_cell_volume 1172.659009
_symmetry_space_group_name_H-M "P B C N"
_symmetry_group_IT_number 60
_symmetry_cell_setting 'orthorhombic'
loop_
_space_group_symop_operation_xyz
x,y,z
1/2-x,1/2-y,1/2+z
1/2+x,1/2-y,-z
-x,y,1/2-z
-x,-y,-z
1/2+x,1/2+y,1/2-z
1/2-x,1/2+y,z
x,-y,1/2+z
loop_
_atom_site_type_symbol
_atom_site_label
_atom_site_fract_x
_atom_site_fract_y
_atom_site_fract_z
Si Si1 0.310817 0.678386 0.078584
Si Si2 0.817025 0.057362 0.055435
Si Si3 0.020573 0.648887 0.616048
Si Si4 0.500000 0.078251 0.250000
O O1 0.547045 0.635259 0.092106
O O2 0.339662 0.769976 0.103101
O O3 0.138665 0.634577 0.163570
O O4 0.212935 0.664710 0.949950
O O5 0.677097 0.032270 0.168831
O O6 0.647268 0.081340 0.954493
O O7 0.000000 0.000000 0.000000
O O8 0.000000 0.632239 0.750000
#
# Coordination Sequence:
#
# PCOD9457778 Si02
#       4
#     8   8   8   4
#     4  11  23  45  71 106 143 186 238 301 366 435
#     4  11  25  48  71 105 150 190 244 303 373 442
#     4  11  24  42  75 109 141 187 248 298 363 444
#     4  10  24  44  78  98 142 196 238 298 382 426
#
# _framework density 23.877358999999998
#
# number of rings (size 3 to 8) (size 9 to 14) (size 15 to 20)
#    0.000    1.143    2.857    2.571    4.000    5.714 
#   15.429    0.000    0.000    0.000    0.000    0.000 
#    0.000    0.000    0.000    0.000    0.000    0.000 
#
# Total GULP energy -156953.139223 kJ/mol
# GULP energy per Si atom -5605.469258 kJ/mol
# Density = 2.382301 g / cm^3
# Si number density = 23.877359 Si / 1000 Ang^3
#
#
#
# Elastic Constant Matrix: (Units=GPa)
#
#
# Indices 1 2 3 4 5 6 
#
# 1 100.7651 30.7853 68.9822 0.0000 0.0000 0.0000
# 2 30.7853 93.9095 39.9433 0.0000 0.0000 0.0000
# 3 68.9822 39.9433 206.0670 0.0000 0.0000 0.0000
# 4 0.0000 0.0000 0.0000 21.7563 0.0000 0.0000
# 5 0.0000 0.0000 0.0000 0.0000 47.7451 0.0000
# 6 0.0000 0.0000 0.0000 0.0000 0.0000 50.3489
#
#
#
# Elastic Compliance Matrix: (Units=1/GPa)
#
#
# Indices 1 2 3 4 5 6 
#
# 1 0.013486 -0.002725 -0.003986 0.000000 0.000000 0.000000
# 2 -0.002725 0.012156 -0.001444 0.000000 0.000000 0.000000
# 3 -0.003986 -0.001444 0.006467 0.000000 0.000000 0.000000
# 4 0.000000 0.000000 0.000000 0.045964 0.000000 0.000000
# 5 0.000000 0.000000 0.000000 0.000000 0.020945 0.000000
# 6 0.000000 0.000000 0.000000 0.000000 0.000000 0.019861
#
#
# Mechanical properties :
#
#
# Convention : Reuss Voigt Hill
#
# Bulk Modulus (GPa) = 63.29965 75.57368 69.43667
# Shear Modulus (GPa) = 35.59852 41.37209 38.48530
#
# Velocity S-wave (km/s) = 3.86539 4.16708 4.01907
# Velocity P-wave (km/s) = 6.81833 7.40758 7.11905
#
# Compressibility (1/GPa) = 0.01579788
#
# Stress axis : x y z
#
# Youngs Moduli (GPa) = 74.15355 82.26287 154.62992
#
# Poissons Ratio (x) = 0.22420 0.61637
# Poissons Ratio (y) = 0.20210 0.22328
# Poissons Ratio (z) = 0.29558 0.11879
#
# Static dielectric constant tensor:
#      x y z
#    x 1.896470 0.000000 0.000000 
#    y 0.000000 1.940780 0.000000 
#    z 0.000000 0.000000 1.877950 
# 
# From -- ./inp_files/8685.got.cif
#   From: 2010.05.17/outbox.cif.g08.bks.cpg/sg60_5_cif.got.tgz:8685.got - 2010.06.03 14:59:27.
