data_PCOD9457423
_publ_section_title
;
Structure prediction by ZEFSAII (Michael W. Deem and Ramdas Pophale) SiO2 
 PCOD9457423
Probable space group: P B C N
;
_chemical_formula_sum "Si O2"
_cell_formula_units_Z 32
_cell_length_a 18.808638
_cell_length_b 5.360432
_cell_length_c 13.563209
_cell_angle_alpha 90.000000
_cell_angle_beta 90.000000
_cell_angle_gamma 90.000000
_cell_volume 1367.475622
_symmetry_space_group_name_H-M "P B C N"
_symmetry_group_IT_number 60
_symmetry_cell_setting 'orthorhombic'
loop_
_space_group_symop_operation_xyz
x,y,z
1/2-x,1/2-y,1/2+z
1/2+x,1/2-y,-z
-x,y,1/2-z
-x,-y,-z
1/2+x,1/2+y,1/2-z
1/2-x,1/2+y,z
x,-y,1/2+z
loop_
_atom_site_type_symbol
_atom_site_label
_atom_site_fract_x
_atom_site_fract_y
_atom_site_fract_z
Si Si1 0.927566 0.462784 0.809829
Si Si2 0.572016 0.465070 0.939221
Si Si3 0.226867 0.898431 0.510634
Si Si4 0.284265 0.109511 0.790679
O O1 0.934000 0.711749 0.876114
O O2 0.861666 0.512630 0.737302
O O3 0.000000 0.429430 0.750000
O O4 0.916274 0.212957 0.873752
O O5 0.500000 0.500000 0.000000
O O6 0.643169 0.432687 0.004401
O O7 0.240787 0.637764 0.563878
O O8 0.271015 0.878864 0.408942
O O9 0.269961 0.391981 0.757120
#
# Coordination Sequence:
#
# PCOD9457423 Si02
#       4
#     8   8   8   8
#     4  12  28  46  75 109 148 189 241 294 363 431
#     4  12  28  46  75 109 148 189 241 294 363 431
#     4  10  23  42  73 100 142 187 238 288 363 413
#     4  10  23  42  73 100 142 187 238 288 363 413
#
# _framework density 23.400783000000001
#
# number of rings (size 3 to 8) (size 9 to 14) (size 15 to 20)
#    0.000    1.000    0.000    4.500   14.000    6.000 
#    0.000    0.000    0.000    0.000    0.000    0.000 
#    0.000    0.000    0.000    0.000    0.000    0.000 
#
# Total GULP energy -179178.935486 kJ/mol
# GULP energy per Si atom -5599.341734 kJ/mol
# Density = 2.334752 g / cm^3
# Si number density = 23.400783 Si / 1000 Ang^3
#
#
#
# Elastic Constant Matrix: (Units=GPa)
#
#
# Indices 1 2 3 4 5 6 
#
# 1 156.8033 9.1537 26.6136 0.0000 0.0000 0.0000
# 2 9.1537 196.0780 32.3041 0.0000 0.0000 0.0000
# 3 26.6136 32.3041 88.3780 0.0000 0.0000 0.0000
# 4 0.0000 0.0000 0.0000 34.9000 0.0000 0.0000
# 5 0.0000 0.0000 0.0000 0.0000 37.6481 0.0000
# 6 0.0000 0.0000 0.0000 0.0000 0.0000 40.6543
#
#
#
# Elastic Compliance Matrix: (Units=1/GPa)
#
#
# Indices 1 2 3 4 5 6 
#
# 1 0.006721 0.000021 -0.002032 0.000000 0.000000 0.000000
# 2 0.000021 0.005427 -0.001990 0.000000 0.000000 0.000000
# 3 -0.002032 -0.001990 0.012654 0.000000 0.000000 0.000000
# 4 0.000000 0.000000 0.000000 0.028653 0.000000 0.000000
# 5 0.000000 0.000000 0.000000 0.000000 0.026562 0.000000
# 6 0.000000 0.000000 0.000000 0.000000 0.000000 0.024598
#
#
# Mechanical properties :
#
#
# Convention : Reuss Voigt Hill
#
# Bulk Modulus (GPa) = 59.52061 64.15578 61.83820
# Shear Modulus (GPa) = 42.29540 47.51970 44.90755
#
# Velocity S-wave (km/s) = 4.25601 4.51120 4.38546
# Velocity P-wave (km/s) = 7.04571 7.38987 7.21984
#
# Compressibility (1/GPa) = 0.01680090
#
# Stress axis : x y z
#
# Youngs Moduli (GPa) = 148.78725 184.26796 79.02524
#
# Poissons Ratio (x) = -0.00386 0.16055
# Poissons Ratio (y) = -0.00312 0.15726
# Poissons Ratio (z) = 0.30227 0.36668
#
# Static dielectric constant tensor:
#      x y z
#    x 1.819550 0.000000 0.000000 
#    y 0.000000 1.968930 0.000000 
#    z 0.000000 0.000000 1.942890 
# 
# From -- ./inp_files/17115.got.cif
#   From: 2010.05.17/outbox.cif.g08.bks.cpg/sg60_9_cif.got.tgz:17115.got - 2010.06.03 14:59:27.
