data_PCOD9457866
_publ_section_title
;
Structure prediction by ZEFSAII (Michael W. Deem and Ramdas Pophale) SiO2 
 PCOD9457866
Probable space group: P B C N
;
_chemical_formula_sum "Si O2"
_cell_formula_units_Z 48
_cell_length_a 9.800367
_cell_length_b 11.404364
_cell_length_c 18.291522
_cell_angle_alpha 90.000000
_cell_angle_beta 90.000000
_cell_angle_gamma 90.000000
_cell_volume 2044.387672
_symmetry_space_group_name_H-M "P B C N"
_symmetry_group_IT_number 60
_symmetry_cell_setting 'orthorhombic'
loop_
_space_group_symop_operation_xyz
x,y,z
1/2-x,1/2-y,1/2+z
1/2+x,1/2-y,-z
-x,y,1/2-z
-x,-y,-z
1/2+x,1/2+y,1/2-z
1/2-x,1/2+y,z
x,-y,1/2+z
loop_
_atom_site_type_symbol
_atom_site_label
_atom_site_fract_x
_atom_site_fract_y
_atom_site_fract_z
Si Si1 0.051735 0.285091 0.370199
Si Si2 0.716726 0.213208 0.780144
Si Si3 0.530511 0.255098 0.359913
Si Si4 0.388248 0.395934 0.999631
Si Si5 0.130281 0.027957 0.785626
Si Si6 0.655390 0.961089 0.593731
O O1 0.900852 0.272082 0.338645
O O2 0.000000 0.036358 0.250000
O O3 0.151828 0.269315 0.299968
O O4 0.078287 0.415762 0.400266
O O5 0.772962 0.079502 0.777292
O O6 0.851355 0.284723 0.803452
O O7 0.602894 0.321643 0.426743
O O8 0.436146 0.356503 0.323981
O O9 0.440754 0.148268 0.388789
O O10 0.422139 0.306341 0.934164
O O11 0.238518 0.445886 0.981438
O O12 0.500000 0.500000 0.000000
O O13 0.225707 0.968788 0.844615
#
# Coordination Sequence:
#
# PCOD9457866 Si02
#       6
#     8   8   8   8   8   8
#     4  10  24  49  73 109 150 193 252 304 369 456
#     4   9  21  48  71 108 151 189 246 305 369 443
#     4  11  24  45  73 109 150 194 249 307 375 439
#     4  12  27  47  72 103 153 202 243 306 383 443
#     4   9  19  44  69 104 147 191 247 300 371 437
#     4  11  23  46  73 105 144 194 248 313 360 449
#
# _framework density 23.478912999999999
#
# number of rings (size 3 to 8) (size 9 to 14) (size 15 to 20)
#    0.000    1.667    1.667    2.000    2.333    0.667 
#   39.000    0.000    0.000    0.000    0.000    0.000 
#    0.000    0.000    0.000    0.000    0.000    0.000 
#
# Total GULP energy -268632.027165 kJ/mol
# GULP energy per Si atom -5596.500566 kJ/mol
# Density = 2.342547 g / cm^3
# Si number density = 23.478913 Si / 1000 Ang^3
#
#
#
# Elastic Constant Matrix: (Units=GPa)
#
#
# Indices 1 2 3 4 5 6 
#
# 1 122.0393 40.0119 27.6271 0.0000 0.0000 0.0000
# 2 40.0119 136.0662 31.7737 0.0000 0.0000 0.0000
# 3 27.6271 31.7737 90.3122 0.0000 0.0000 0.0000
# 4 0.0000 0.0000 0.0000 35.4444 0.0000 0.0000
# 5 0.0000 0.0000 0.0000 0.0000 41.1050 0.0000
# 6 0.0000 0.0000 0.0000 0.0000 0.0000 13.6213
#
#
#
# Elastic Compliance Matrix: (Units=1/GPa)
#
#
# Indices 1 2 3 4 5 6 
#
# 1 0.009413 -0.002283 -0.002076 0.000000 0.000000 0.000000
# 2 -0.002283 0.008561 -0.002314 0.000000 0.000000 0.000000
# 3 -0.002076 -0.002314 0.012522 0.000000 0.000000 0.000000
# 4 0.000000 0.000000 0.000000 0.028213 0.000000 0.000000
# 5 0.000000 0.000000 0.000000 0.000000 0.024328 0.000000
# 6 0.000000 0.000000 0.000000 0.000000 0.000000 0.073414
#
#
# Mechanical properties :
#
#
# Convention : Reuss Voigt Hill
#
# Bulk Modulus (GPa) = 58.30953 60.80478 59.55715
# Shear Modulus (GPa) = 28.48792 34.63450 31.56121
#
# Velocity S-wave (km/s) = 3.48708 3.84491 3.67036
# Velocity P-wave (km/s) = 6.41107 6.75759 6.58660
#
# Compressibility (1/GPa) = 0.01714986
#
# Stress axis : x y z
#
# Youngs Moduli (GPa) = 106.24057 116.80920 79.86102
#
# Poissons Ratio (x) = 0.26668 0.16580
# Poissons Ratio (y) = 0.24255 0.18476
# Poissons Ratio (z) = 0.22057 0.27024
#
# Static dielectric constant tensor:
#      x y z
#    x 1.929690 0.000000 0.000000 
#    y 0.000000 1.894940 0.000000 
#    z 0.000000 0.000000 1.932030 
# 
# From -- ./inp_files/23930.got.cif
#   From: 2010.05.17/outbox.cif.g08.bks.cpg/sg60_12_cif.got.tgz:23930.got - 2010.06.03 14:59:27.
