data_PCOD9457111
_publ_section_title
;
Structure prediction by ZEFSAII (Michael W. Deem and Ramdas Pophale) SiO2 
 PCOD9457111
Probable space group: P B C N
;
_chemical_formula_sum "Si O2"
_cell_formula_units_Z 32
_cell_length_a 7.509167
_cell_length_b 22.989177
_cell_length_c 7.970109
_cell_angle_alpha 90.000000
_cell_angle_beta 90.000000
_cell_angle_gamma 90.000000
_cell_volume 1375.876484
_symmetry_space_group_name_H-M "P B C N"
_symmetry_group_IT_number 60
_symmetry_cell_setting 'orthorhombic'
loop_
_space_group_symop_operation_xyz
x,y,z
1/2-x,1/2-y,1/2+z
1/2+x,1/2-y,-z
-x,y,1/2-z
-x,-y,-z
1/2+x,1/2+y,1/2-z
1/2-x,1/2+y,z
x,-y,1/2+z
loop_
_atom_site_type_symbol
_atom_site_label
_atom_site_fract_x
_atom_site_fract_y
_atom_site_fract_z
Si Si1 0.393788 0.121520 0.425814
Si Si2 0.749685 0.656713 0.572479
Si Si3 0.288453 0.231386 0.252830
Si Si4 0.534936 0.566042 0.049593
O O1 0.500000 0.109163 0.250000
O O2 0.559513 0.127381 0.547837
O O3 0.277849 0.180634 0.392827
O O4 0.243855 0.077091 0.478636
O O5 0.775233 0.703755 0.718254
O O6 0.718437 0.700568 0.413786
O O7 0.592558 0.609693 0.556576
O O8 0.500000 0.239192 0.250000
O O9 0.500000 0.575301 0.250000
O O10 0.500000 0.500000 0.000000
#
# Coordination Sequence:
#
# PCOD9457111 Si02
#       4
#     8   8   8   8
#     4   9  20  41  64  93 125 173 217 266 342 393
#     4  10  22  43  66  96 138 173 220 282 341 407
#     4   9  20  37  68  98 132 173 214 269 351 408
#     4  12  25  44  69  91 135 188 228 281 340 405
#
# _framework density 23.257901
#
# number of rings (size 3 to 8) (size 9 to 14) (size 15 to 20)
#    0.000    2.500    5.000    0.000    7.000    2.000 
#    0.000    0.000    0.000    0.000    0.000    0.000 
#    0.000    0.000    0.000    0.000    0.000    0.000 
#
# Total GULP energy -178635.550861 kJ/mol
# GULP energy per Si atom -5582.360964 kJ/mol
# Density = 2.320496 g / cm^3
# Si number density = 23.257901 Si / 1000 Ang^3
#
#
#
# Elastic Constant Matrix: (Units=GPa)
#
#
# Indices 1 2 3 4 5 6 
#
# 1 124.7038 93.1202 24.4173 0.0000 0.0000 0.0000
# 2 93.1202 151.0090 25.7751 0.0000 0.0000 0.0000
# 3 24.4173 25.7751 62.0526 0.0000 0.0000 0.0000
# 4 0.0000 0.0000 0.0000 14.3481 0.0000 0.0000
# 5 0.0000 0.0000 0.0000 0.0000 7.7009 0.0000
# 6 0.0000 0.0000 0.0000 0.0000 0.0000 47.6956
#
#
#
# Elastic Compliance Matrix: (Units=1/GPa)
#
#
# Indices 1 2 3 4 5 6 
#
# 1 0.015147 -0.008958 -0.002239 0.000000 0.000000 0.000000
# 2 -0.008958 0.012425 -0.001636 0.000000 0.000000 0.000000
# 3 -0.002239 -0.001636 0.017676 0.000000 0.000000 0.000000
# 4 0.000000 0.000000 0.000000 0.069696 0.000000 0.000000
# 5 0.000000 0.000000 0.000000 0.000000 0.129856 0.000000
# 6 0.000000 0.000000 0.000000 0.000000 0.000000 0.020966
#
#
# Mechanical properties :
#
#
# Convention : Reuss Voigt Hill
#
# Bulk Modulus (GPa) = 51.06933 69.37674 60.22304
# Shear Modulus (GPa) = 16.78077 26.91243 21.84660
#
# Velocity S-wave (km/s) = 2.68900 3.40535 3.06816
# Velocity P-wave (km/s) = 5.62552 6.73469 6.20494
#
# Compressibility (1/GPa) = 0.01958123
#
# Stress axis : x y z
#
# Youngs Moduli (GPa) = 66.02087 80.47999 56.57353
#
# Poissons Ratio (x) = 0.72095 0.12668
# Poissons Ratio (y) = 0.59142 0.09257
# Poissons Ratio (z) = 0.14783 0.13169
#
# Static dielectric constant tensor:
#      x y z
#    x 1.948630 0.000000 0.000000 
#    y 0.000000 1.936030 0.000000 
#    z 0.000000 0.000000 2.078830 
# 
# From -- ./inp_files/3760.got.cif
#   From: 2010.05.17/outbox.cif.g08.bks.cpg/sg60_2_cif.got.tgz:3760.got - 2010.06.03 14:59:27.
