data_PCOD9457667
_publ_section_title
;
Structure prediction by ZEFSAII (Michael W. Deem and Ramdas Pophale) SiO2 
 PCOD9457667
Probable space group: P B C N
;
_chemical_formula_sum "Si O2"
_cell_formula_units_Z 40
_cell_length_a 8.739391
_cell_length_b 27.314079
_cell_length_c 8.841637
_cell_angle_alpha 90.000000
_cell_angle_beta 90.000000
_cell_angle_gamma 90.000000
_cell_volume 2110.573165
_symmetry_space_group_name_H-M "P B C N"
_symmetry_group_IT_number 60
_symmetry_cell_setting 'orthorhombic'
loop_
_space_group_symop_operation_xyz
x,y,z
1/2-x,1/2-y,1/2+z
1/2+x,1/2-y,-z
-x,y,1/2-z
-x,-y,-z
1/2+x,1/2+y,1/2-z
1/2-x,1/2+y,z
x,-y,1/2+z
loop_
_atom_site_type_symbol
_atom_site_label
_atom_site_fract_x
_atom_site_fract_y
_atom_site_fract_z
Si Si1 0.173083 0.954590 0.682191
Si Si2 0.836495 0.061389 0.680544
Si Si3 0.006272 0.315919 0.510011
Si Si4 0.216572 0.334102 0.265841
Si Si5 0.000000 0.767887 0.250000
Si Si6 0.000000 0.598950 0.250000
O O1 0.159649 0.948323 0.500220
O O2 0.333507 0.928397 0.734748
O O3 0.000000 0.941065 0.750000
O O4 0.198889 0.010717 0.733986
O O5 0.729775 0.107465 0.716507
O O6 0.000000 0.076305 0.750000
O O7 0.898932 0.321405 0.366754
O O8 0.990383 0.364758 0.607825
O O9 0.171991 0.314226 0.432049
O O10 0.972623 0.268971 0.610964
O O11 0.364242 0.304649 0.217483
#
# Coordination Sequence:
#
# PCOD9457667 Si02
#       6
#     8   8   8   8   4   4
#     4  11  25  42  66  97 139 178 224 273 327 393
#     4  11  23  42  66  97 131 178 224 273 324 404
#     4  10  24  41  62  98 132 161 221 282 316 409
#     4  11  22  41  67  91 130 173 216 270 339 382
#     4  11  22  42  68  90 126 172 220 269 342 392
#     4  11  24  42  66  98 138 174 226 269 336 394
#
# _framework density 18.952197000000002
#
# number of rings (size 3 to 8) (size 9 to 14) (size 15 to 20)
#    0.000    1.200    3.000    3.600    5.600    2.400 
#    0.000    0.000    0.000    0.000    0.000    0.000 
#    0.000    0.000    0.000    0.000    0.000    0.000 
#
# Total GULP energy -222699.608254 kJ/mol
# GULP energy per Si atom -5567.490206 kJ/mol
# Density = 1.890906 g / cm^3
# Si number density = 18.952197 Si / 1000 Ang^3
#
#
#
# Elastic Constant Matrix: (Units=GPa)
#
#
# Indices 1 2 3 4 5 6 
#
# 1 87.8066 42.9341 32.6431 0.0000 0.0000 0.0000
# 2 42.9341 96.7799 44.9590 0.0000 0.0000 0.0000
# 3 32.6431 44.9590 125.1440 0.0000 0.0000 0.0000
# 4 0.0000 0.0000 0.0000 7.9567 0.0000 0.0000
# 5 0.0000 0.0000 0.0000 0.0000 -103.3213 0.0000
# 6 0.0000 0.0000 0.0000 0.0000 0.0000 34.7804
#
#
#
# Elastic Compliance Matrix: (Units=1/GPa)
#
#
# Indices 1 2 3 4 5 6 
#
# 1 0.014878 -0.005758 -0.001812 0.000000 0.000000 0.000000
# 2 -0.005758 0.014631 -0.003754 0.000000 0.000000 0.000000
# 3 -0.001812 -0.003754 0.009812 0.000000 0.000000 0.000000
# 4 0.000000 0.000000 0.000000 0.125680 0.000000 0.000000
# 5 0.000000 0.000000 0.000000 0.000000 -0.009679 0.000000
# 6 0.000000 0.000000 0.000000 0.000000 0.000000 0.028752
#
#
# Mechanical properties :
#
#
# Convention : Reuss Voigt Hill
#
# Bulk Modulus (GPa) = 59.98145 61.20032 60.59088
# Shear Modulus (GPa) = 23.55360 0.49612 12.02486
#
# Velocity S-wave (km/s) = 3.52915 0.51219 2.52163
# Velocity P-wave (km/s) = 6.95155 5.71943 6.36537
#
# Compressibility (1/GPa) = 0.01667182
#
# Stress axis : x y z
#
# Youngs Moduli (GPa) = 67.21331 68.34602 101.91331
#
# Poissons Ratio (x) = 0.39357 0.18467
# Poissons Ratio (y) = 0.38705 0.38262
# Poissons Ratio (z) = 0.12180 0.25660
#
# Static dielectric constant tensor:
#      x y z
#    x 1.575900 0.000000 0.000000 
#    y 0.000000 1.563340 0.000000 
#    z 0.000000 0.000000 1.661820 
# 
# From -- ./inp_files/3898.got.cif
#   From: 2010.05.17/outbox.cif.g08.bks.cpg/sg60_2_cif.got.tgz:3898.got - 2010.06.03 14:59:27.
