data_PCOD9457705
_publ_section_title
;
Structure prediction by ZEFSAII (Michael W. Deem and Ramdas Pophale) SiO2 
 PCOD9457705
Probable space group: P B C N
;
_chemical_formula_sum "Si O2"
_cell_formula_units_Z 28
_cell_length_a 9.828366
_cell_length_b 14.339203
_cell_length_c 7.541006
_cell_angle_alpha 90.000000
_cell_angle_beta 90.000000
_cell_angle_gamma 90.000000
_cell_volume 1062.761028
_symmetry_space_group_name_H-M "P B C N"
_symmetry_group_IT_number 60
_symmetry_cell_setting 'orthorhombic'
loop_
_space_group_symop_operation_xyz
x,y,z
1/2-x,1/2-y,1/2+z
1/2+x,1/2-y,-z
-x,y,1/2-z
-x,-y,-z
1/2+x,1/2+y,1/2-z
1/2-x,1/2+y,z
x,-y,1/2+z
loop_
_atom_site_type_symbol
_atom_site_label
_atom_site_fract_x
_atom_site_fract_y
_atom_site_fract_z
Si Si1 0.792829 0.081102 0.808015
Si Si2 0.082389 0.226759 0.960365
Si Si3 0.000000 0.669031 0.750000
Si Si4 0.287722 0.631943 0.301621
O O1 0.879039 0.139396 0.664335
O O2 0.634573 0.109645 0.793547
O O3 0.848706 0.110168 0.001893
O O4 0.791167 0.970938 0.781195
O O5 0.144965 0.195276 0.150465
O O6 0.152543 0.310977 0.851056
O O7 0.959200 0.281324 0.059804
#
# Coordination Sequence:
#
# PCOD9457705 Si02
#       4
#     8   8   4   8
#     4  11  23  41  68  99 137 171 229 277 336 398
#     4  11  22  42  64  96 141 173 219 280 332 400
#     4  10  24  42  70 102 134 180 232 266 342 422
#     4  11  21  40  68  94 136 177 210 281 337 388
#
# _framework density 26.346468000000002
#
# number of rings (size 3 to 8) (size 9 to 14) (size 15 to 20)
#    0.000    1.143    8.571    0.000    0.000    4.571 
#    0.000    8.571    0.000    0.000    0.000    0.000 
#    0.000    0.000    0.000    0.000    0.000    0.000 
#
# Total GULP energy -156038.096693 kJ/mol
# GULP energy per Si atom -5572.789168 kJ/mol
# Density = 2.628650 g / cm^3
# Si number density = 26.346468 Si / 1000 Ang^3
#
#
#
# Elastic Constant Matrix: (Units=GPa)
#
#
# Indices 1 2 3 4 5 6 
#
# 1 57.8388 -38.0565 19.7294 0.0000 0.0000 0.0000
# 2 -38.0565 68.4238 -2.4421 0.0000 0.0000 0.0000
# 3 19.7294 -2.4421 177.0490 0.0000 0.0000 0.0000
# 4 0.0000 0.0000 0.0000 51.3320 0.0000 0.0000
# 5 0.0000 0.0000 0.0000 0.0000 41.6653 0.0000
# 6 0.0000 0.0000 0.0000 0.0000 0.0000 -18.2758
#
#
#
# Elastic Compliance Matrix: (Units=1/GPa)
#
#
# Indices 1 2 3 4 5 6 
#
# 1 0.028765 0.015892 -0.002986 0.000000 0.000000 0.000000
# 2 0.015892 0.023402 -0.001448 0.000000 0.000000 0.000000
# 3 -0.002986 -0.001448 0.005961 0.000000 0.000000 0.000000
# 4 0.000000 0.000000 0.000000 0.019481 0.000000 0.000000
# 5 0.000000 0.000000 0.000000 0.000000 0.024001 0.000000
# 6 0.000000 0.000000 0.000000 0.000000 0.000000 -0.054717
#
#
# Mechanical properties :
#
#
# Convention : Reuss Voigt Hill
#
# Bulk Modulus (GPa) = 12.33915 29.08590 20.71253
# Shear Modulus (GPa) = 98.05610 36.54968 67.30289
#
# Velocity S-wave (km/s) = 6.10727 3.72865 5.05972
# Velocity P-wave (km/s) = 7.37735 5.44067 6.48175
#
# Compressibility (1/GPa) = 0.08104283
#
# Stress axis : x y z
#
# Youngs Moduli (GPa) = 34.76500 42.73133 167.75871
#
# Poissons Ratio (x) = -0.67908 0.50096
# Poissons Ratio (y) = -0.55248 0.24293
# Poissons Ratio (z) = 0.10381 0.06188
#
# Static dielectric constant tensor:
#      x y z
#    x 2.177290 0.000000 0.000000 
#    y 0.000000 2.161820 0.000000 
#    z 0.000000 0.000000 2.111040 
# 
# From -- ./inp_files/4468.got.cif
#   From: 2010.05.17/outbox.cif.g08.bks.cpg/sg60_3_cif.got.tgz:4468.got - 2010.06.03 14:59:27.
