data_PCOD9457525
_publ_section_title
;
Structure prediction by ZEFSAII (Michael W. Deem and Ramdas Pophale) SiO2 
 PCOD9457525
Probable space group: P B C N
;
_chemical_formula_sum "Si O2"
_cell_formula_units_Z 64
_cell_length_a 8.504360
_cell_length_b 16.913062
_cell_length_c 20.791363
_cell_angle_alpha 90.000000
_cell_angle_beta 90.000000
_cell_angle_gamma 90.000000
_cell_volume 2990.520872
_symmetry_space_group_name_H-M "P B C N"
_symmetry_group_IT_number 60
_symmetry_cell_setting 'orthorhombic'
loop_
_space_group_symop_operation_xyz
x,y,z
1/2-x,1/2-y,1/2+z
1/2+x,1/2-y,-z
-x,y,1/2-z
-x,-y,-z
1/2+x,1/2+y,1/2-z
1/2-x,1/2+y,z
x,-y,1/2+z
loop_
_atom_site_type_symbol
_atom_site_label
_atom_site_fract_x
_atom_site_fract_y
_atom_site_fract_z
Si Si1 0.828172 0.972169 0.982105
Si Si2 0.339618 0.970603 0.132574
Si Si3 0.615876 0.794037 0.336610
Si Si4 0.638013 0.789130 0.578343
Si Si5 0.269857 0.797167 0.544949
Si Si6 0.279806 0.265853 0.790607
Si Si7 0.169993 0.532258 0.396614
Si Si8 0.808539 0.442925 0.743095
O O1 0.805162 0.884812 0.953629
O O2 0.769500 0.034278 0.929007
O O3 0.727292 0.976311 0.047195
O O4 0.000000 0.000000 0.000000
O O5 0.410486 0.886468 0.151361
O O6 0.482878 0.025675 0.109938
O O7 0.256779 0.010696 0.193698
O O8 0.692435 0.754457 0.398637
O O9 0.726087 0.786675 0.273513
O O10 0.452226 0.750624 0.320200
O O11 0.456745 0.796869 0.557308
O O12 0.729293 0.740134 0.524336
O O13 0.659332 0.754292 0.650398
O O14 0.708576 0.877674 0.584453
O O15 0.257197 0.354826 0.764048
O O16 0.230577 0.515525 0.324678
O O17 0.000000 0.438489 0.750000
#
# Coordination Sequence:
#
# PCOD9457525 Si02
#       8
#     8   8   8   8   8   8   8   8
#     4  12  28  43  68 100 140 180 234 296 350 419
#     4  11  23  46  72  98 137 184 236 279 350 426
#     4  11  26  41  71 105 142 181 231 295 347 423
#     4  11  25  44  71 100 133 186 229 292 349 428
#     4  12  27  44  70  99 141 182 235 285 360 421
#     4  10  24  43  69 102 140 177 231 290 349 413
#     4  10  23  44  70  96 129 179 233 279 344 422
#     4   9  21  41  74  96 131 181 231 277 344 424
#
# _framework density 21.400952
#
# number of rings (size 3 to 8) (size 9 to 14) (size 15 to 20)
#    0.000    1.250    1.250    2.625   19.250    0.000 
#    0.000    0.000    2.750    0.000    0.000    0.000 
#    0.000    0.000    0.000    0.000    0.000    0.000 
#
# Total GULP energy -357682.556857 kJ/mol
# GULP energy per Si atom -5588.789951 kJ/mol
# Density = 2.135224 g / cm^3
# Si number density = 21.400952 Si / 1000 Ang^3
#
#
#
# Elastic Constant Matrix: (Units=GPa)
#
#
# Indices 1 2 3 4 5 6 
#
# 1 40.7393 10.4826 27.4963 0.0000 0.0000 0.0000
# 2 10.4826 59.2462 39.3702 0.0000 0.0000 0.0000
# 3 27.4963 39.3702 118.6903 0.0000 0.0000 0.0000
# 4 0.0000 0.0000 0.0000 43.6162 0.0000 0.0000
# 5 0.0000 0.0000 0.0000 0.0000 18.4075 0.0000
# 6 0.0000 0.0000 0.0000 0.0000 0.0000 12.8512
#
#
#
# Elastic Compliance Matrix: (Units=1/GPa)
#
#
# Indices 1 2 3 4 5 6 
#
# 1 0.029130 -0.000859 -0.006463 0.000000 0.000000 0.000000
# 2 -0.000859 0.021676 -0.006991 0.000000 0.000000 0.000000
# 3 -0.006463 -0.006991 0.012242 0.000000 0.000000 0.000000
# 4 0.000000 0.000000 0.000000 0.022927 0.000000 0.000000
# 5 0.000000 0.000000 0.000000 0.000000 0.054326 0.000000
# 6 0.000000 0.000000 0.000000 0.000000 0.000000 0.077814
#
#
# Mechanical properties :
#
#
# Convention : Reuss Voigt Hill
#
# Bulk Modulus (GPa) = 29.05229 41.48600 35.26914
# Shear Modulus (GPa) = 19.36369 24.39675 21.88022
#
# Velocity S-wave (km/s) = 3.01126 3.38003 3.20096
# Velocity P-wave (km/s) = 5.06902 5.88727 5.49340
#
# Compressibility (1/GPa) = 0.03442069
#
# Stress axis : x y z
#
# Youngs Moduli (GPa) = 34.32924 46.13292 81.68837
#
# Poissons Ratio (x) = 0.03963 0.52798
# Poissons Ratio (y) = 0.02949 0.57110
# Poissons Ratio (z) = 0.22188 0.32253
#
# Static dielectric constant tensor:
#      x y z
#    x 1.744250 0.000000 0.000000 
#    y 0.000000 1.751950 0.000000 
#    z 0.000000 0.000000 1.799070 
# 
# From -- ./inp_files/22369.got.cif
#   From: 2010.05.17/outbox.cif.g08.bks.cpg/sg60_12_cif.got.tgz:22369.got - 2010.06.03 14:59:27.
