data_PCOD9457148
_publ_section_title
;
Structure prediction by ZEFSAII (Michael W. Deem and Ramdas Pophale) SiO2 
 PCOD9457148
Probable space group: P B C N
;
_chemical_formula_sum "Si O2"
_cell_formula_units_Z 48
_cell_length_a 9.665194
_cell_length_b 11.280446
_cell_length_c 22.227258
_cell_angle_alpha 90.000000
_cell_angle_beta 90.000000
_cell_angle_gamma 90.000000
_cell_volume 2423.386795
_symmetry_space_group_name_H-M "P B C N"
_symmetry_group_IT_number 60
_symmetry_cell_setting 'orthorhombic'
loop_
_space_group_symop_operation_xyz
x,y,z
1/2-x,1/2-y,1/2+z
1/2+x,1/2-y,-z
-x,y,1/2-z
-x,-y,-z
1/2+x,1/2+y,1/2-z
1/2-x,1/2+y,z
x,-y,1/2+z
loop_
_atom_site_type_symbol
_atom_site_label
_atom_site_fract_x
_atom_site_fract_y
_atom_site_fract_z
Si Si1 0.524914 0.851405 0.064534
Si Si2 0.652905 0.249408 0.737202
Si Si3 0.526331 0.490647 0.684812
Si Si4 0.311325 0.680982 0.876017
Si Si5 0.808821 0.816074 0.865284
Si Si6 0.982413 0.373757 0.922677
O O1 0.685557 0.821667 0.077114
O O2 0.421628 0.763280 0.099464
O O3 0.502415 0.986113 0.086625
O O4 0.497322 0.847996 0.993453
O O5 0.500000 0.198552 0.750000
O O6 0.619465 0.377469 0.706090
O O7 0.737214 0.180422 0.688449
O O8 0.726999 0.256815 0.801117
O O9 0.500000 0.552486 0.750000
O O10 0.593228 0.565960 0.631438
O O11 0.387233 0.434720 0.656863
O O12 0.407071 0.794503 0.887008
O O13 0.672162 0.838922 0.903020
#
# Coordination Sequence:
#
# PCOD9457148 Si02
#       6
#     8   8   8   8   8   8
#     4  11  24  46  62  90 134 164 221 265 305 385
#     4   9  19  40  62  94 125 162 197 254 327 375
#     4   9  21  39  63  94 130 159 203 264 319 386
#     4  12  22  41  68  95 127 168 213 266 321 383
#     4  10  22  44  64  92 131 168 207 266 325 373
#     4  11  27  40  66  95 121 175 218 261 316 375
#
# _framework density 19.806989999999999
#
# number of rings (size 3 to 8) (size 9 to 14) (size 15 to 20)
#    0.000    2.000    3.333    2.000    4.667    1.333 
#    0.000    1.667    0.000    0.000    0.000    0.000 
#    0.000    0.000    0.000    0.000    0.000    0.000 
#
# Total GULP energy -267763.708945 kJ/mol
# GULP energy per Si atom -5578.410603 kJ/mol
# Density = 1.976191 g / cm^3
# Si number density = 19.806990 Si / 1000 Ang^3
#
#
#
# Elastic Constant Matrix: (Units=GPa)
#
#
# Indices 1 2 3 4 5 6 
#
# 1 96.5139 48.0934 26.2465 0.0000 0.0000 0.0000
# 2 48.0934 32.7689 17.0625 0.0000 0.0000 0.0000
# 3 26.2465 17.0625 56.9343 0.0000 0.0000 0.0000
# 4 0.0000 0.0000 0.0000 15.9642 0.0000 0.0000
# 5 0.0000 0.0000 0.0000 0.0000 40.3845 0.0000
# 6 0.0000 0.0000 0.0000 0.0000 0.0000 26.3170
#
#
#
# Elastic Compliance Matrix: (Units=1/GPa)
#
#
# Indices 1 2 3 4 5 6 
#
# 1 0.038611 -0.056163 -0.000968 0.000000 0.000000 0.000000
# 2 -0.056163 0.117854 -0.009428 0.000000 0.000000 0.000000
# 3 -0.000968 -0.009428 0.020836 0.000000 0.000000 0.000000
# 4 0.000000 0.000000 0.000000 0.062640 0.000000 0.000000
# 5 0.000000 0.000000 0.000000 0.000000 0.024762 0.000000
# 6 0.000000 0.000000 0.000000 0.000000 0.000000 0.037998
#
#
# Mechanical properties :
#
#
# Convention : Reuss Voigt Hill
#
# Bulk Modulus (GPa) = 22.63387 41.00243 31.81815
# Shear Modulus (GPa) = 11.09759 22.85413 16.97586
#
# Velocity S-wave (km/s) = 2.36961 3.40051 2.93074
# Velocity P-wave (km/s) = 4.35186 6.01364 5.24893
#
# Compressibility (1/GPa) = 0.04418157
#
# Stress axis : x y z
#
# Youngs Moduli (GPa) = 25.89940 8.48505 47.99401
#
# Poissons Ratio (x) = 0.47655 0.04646
# Poissons Ratio (y) = 1.45460 0.45251
# Poissons Ratio (z) = 0.02507 0.08000
#
# Static dielectric constant tensor:
#      x y z
#    x 1.724020 0.000000 0.000000 
#    y 0.000000 1.707110 0.000000 
#    z 0.000000 0.000000 1.710100 
# 
# From -- ./inp_files/23934.got.cif
#   From: 2010.05.17/outbox.cif.g08.bks.cpg/sg60_12_cif.got.tgz:23934.got - 2010.06.03 14:59:27.
