data_PCOD9457376
_publ_section_title
;
Structure prediction by ZEFSAII (Michael W. Deem and Ramdas Pophale) SiO2 
 PCOD9457376
Probable space group: P B C N
;
_chemical_formula_sum "Si O2"
_cell_formula_units_Z 40
_cell_length_a 6.870635
_cell_length_b 10.830300
_cell_length_c 21.572134
_cell_angle_alpha 90.000000
_cell_angle_beta 90.000000
_cell_angle_gamma 90.000000
_cell_volume 1605.204888
_symmetry_space_group_name_H-M "P B C N"
_symmetry_group_IT_number 60
_symmetry_cell_setting 'orthorhombic'
loop_
_space_group_symop_operation_xyz
x,y,z
1/2-x,1/2-y,1/2+z
1/2+x,1/2-y,-z
-x,y,1/2-z
-x,-y,-z
1/2+x,1/2+y,1/2-z
1/2-x,1/2+y,z
x,-y,1/2+z
loop_
_atom_site_type_symbol
_atom_site_label
_atom_site_fract_x
_atom_site_fract_y
_atom_site_fract_z
Si Si1 0.630314 0.404065 0.941420
Si Si2 0.661951 0.294981 0.064819
Si Si3 0.402662 0.731096 0.683299
Si Si4 0.879257 0.038414 0.313774
Si Si5 0.106950 0.364580 0.042419
O O1 0.507482 0.437529 0.879766
O O2 0.800081 0.505416 0.942158
O O3 0.780897 0.355893 0.816461
O O4 0.556507 0.382734 0.012543
O O5 0.569590 0.284711 0.131479
O O6 0.883360 0.343728 0.062231
O O7 0.640608 0.163004 0.030515
O O8 0.500000 0.730197 0.750000
O O9 0.290894 0.599206 0.681960
O O10 0.705187 0.738499 0.430679
O O11 0.000000 0.049641 0.250000
#
# Coordination Sequence:
#
# PCOD9457376 Si02
#       5
#     8   8   8   8   8
#     4  10  23  43  74 109 151 198 254 316 388 461
#     4  10  24  43  77 111 154 206 252 318 389 460
#     4  11  27  51  75 110 154 203 262 317 395 466
#     4  11  26  50  77 107 154 205 257 320 385 469
#     4  10  23  41  75 114 157 197 256 323 386 463
#
# _framework density 24.918938000000001
#
# number of rings (size 3 to 8) (size 9 to 14) (size 15 to 20)
#    1.200    0.400    0.000    3.000    5.600    4.000 
#   10.800    0.000    0.000    0.000    0.000    0.000 
#    0.000    0.000    0.000    0.000    0.000    0.000 
#
# Total GULP energy -223152.056411 kJ/mol
# GULP energy per Si atom -5578.801410 kJ/mol
# Density = 2.486222 g / cm^3
# Si number density = 24.918938 Si / 1000 Ang^3
#
#
#
# Elastic Constant Matrix: (Units=GPa)
#
#
# Indices 1 2 3 4 5 6 
#
# 1 121.2868 75.7052 58.5025 0.0000 0.0000 0.0000
# 2 75.7052 232.6636 61.1837 0.0000 0.0000 0.0000
# 3 58.5025 61.1837 216.0290 0.0000 0.0000 0.0000
# 4 0.0000 0.0000 0.0000 34.6544 0.0000 0.0000
# 5 0.0000 0.0000 0.0000 0.0000 26.4281 0.0000
# 6 0.0000 0.0000 0.0000 0.0000 0.0000 36.0465
#
#
#
# Elastic Compliance Matrix: (Units=1/GPa)
#
#
# Indices 1 2 3 4 5 6 
#
# 1 0.011210 -0.003079 -0.002164 0.000000 0.000000 0.000000
# 2 -0.003079 0.005489 -0.000721 0.000000 0.000000 0.000000
# 3 -0.002164 -0.000721 0.005419 0.000000 0.000000 0.000000
# 4 0.000000 0.000000 0.000000 0.028856 0.000000 0.000000
# 5 0.000000 0.000000 0.000000 0.000000 0.037839 0.000000
# 6 0.000000 0.000000 0.000000 0.000000 0.000000 0.027742
#
#
# Mechanical properties :
#
#
# Convention : Reuss Voigt Hill
#
# Bulk Modulus (GPa) = 98.11756 106.75136 102.43446
# Shear Modulus (GPa) = 37.91322 44.39833 41.15577
#
# Velocity S-wave (km/s) = 3.90482 4.22561 4.06838
# Velocity P-wave (km/s) = 7.73242 8.16947 7.95395
#
# Compressibility (1/GPa) = 0.01019186
#
# Stress axis : x y z
#
# Youngs Moduli (GPa) = 89.20358 182.16982 184.52859
#
# Poissons Ratio (x) = 0.56083 0.39931
# Poissons Ratio (y) = 0.27462 0.13304
# Poissons Ratio (z) = 0.19303 0.13134
#
# Static dielectric constant tensor:
#      x y z
#    x 2.055400 0.000000 0.000000 
#    y 0.000000 2.079710 0.000000 
#    z 0.000000 0.000000 2.136310 
# 
# From -- ./inp_files/19133.got.cif
#   From: 2010.05.17/outbox.cif.g08.bks.cpg/sg60_10_cif.got.tgz:19133.got - 2010.06.03 14:59:27.
