data_PCOD9457944
_publ_section_title
;
Structure prediction by ZEFSAII (Michael W. Deem and Ramdas Pophale) SiO2 
 PCOD9457944
Probable space group: P B C N
;
_chemical_formula_sum "Si O2"
_cell_formula_units_Z 56
_cell_length_a 12.851239
_cell_length_b 10.272903
_cell_length_c 20.211591
_cell_angle_alpha 90.000000
_cell_angle_beta 90.000000
_cell_angle_gamma 90.000000
_cell_volume 2668.324778
_symmetry_space_group_name_H-M "P B C N"
_symmetry_group_IT_number 60
_symmetry_cell_setting 'orthorhombic'
loop_
_space_group_symop_operation_xyz
x,y,z
1/2-x,1/2-y,1/2+z
1/2+x,1/2-y,-z
-x,y,1/2-z
-x,-y,-z
1/2+x,1/2+y,1/2-z
1/2-x,1/2+y,z
x,-y,1/2+z
loop_
_atom_site_type_symbol
_atom_site_label
_atom_site_fract_x
_atom_site_fract_y
_atom_site_fract_z
Si Si1 0.500000 0.062011 0.250000
Si Si2 0.702846 0.147834 0.459379
Si Si3 0.875862 0.962280 0.143737
Si Si4 0.303524 0.296420 0.677142
Si Si5 0.000000 0.132777 0.250000
Si Si6 0.227752 0.392276 0.955613
Si Si7 0.779426 0.450298 0.251348
Si Si8 0.483589 0.799273 0.889387
O O1 0.400147 0.972266 0.261172
O O2 0.490280 0.150513 0.184493
O O3 0.780643 0.163239 0.397254
O O4 0.737629 0.255940 0.512423
O O5 0.586006 0.176098 0.433238
O O6 0.710202 0.004093 0.489668
O O7 0.948589 0.851304 0.113490
O O8 0.939325 0.042200 0.198193
O O9 0.819652 0.055153 0.091420
O O10 0.780843 0.901717 0.186505
O O11 0.421367 0.289663 0.702928
O O12 0.255908 0.408289 0.723654
O O13 0.256474 0.155394 0.692298
O O14 0.119026 0.372761 0.916717
#
# Coordination Sequence:
#
# PCOD9457944 Si02
#       8
#     4   8   8   8   4   8   8   8
#     4  12  22  42  76 110 135 187 232 310 367 415
#     4  12  28  46  78 100 148 199 249 289 353 443
#     4  11  25  45  74 107 146 186 236 302 368 429
#     4  11  24  45  67 107 141 182 234 299 352 427
#     4  10  26  42  72 108 145 179 238 308 365 421
#     4  12  27  51  70 106 148 195 240 301 348 442
#     4  11  23  42  72 106 142 175 235 300 367 412
#     4  12  26  48  75 107 144 189 247 298 372 428
#
# _framework density 20.986951000000001
#
# number of rings (size 3 to 8) (size 9 to 14) (size 15 to 20)
#    0.000    0.571    4.286    3.000    8.000    1.714 
#    2.571    0.000    0.000    0.000    0.000    0.000 
#    0.000    0.000    0.000    0.000    0.000    0.000 
#
# Total GULP energy -313064.435380 kJ/mol
# GULP energy per Si atom -5590.436346 kJ/mol
# Density = 2.093918 g / cm^3
# Si number density = 20.986951 Si / 1000 Ang^3
#
#
#
# Elastic Constant Matrix: (Units=GPa)
#
#
# Indices 1 2 3 4 5 6 
#
# 1 87.1307 9.9404 18.9298 0.0000 0.0000 0.0000
# 2 9.9404 57.3865 -12.7061 0.0000 0.0000 0.0000
# 3 18.9298 -12.7061 35.0664 0.0000 0.0000 0.0000
# 4 0.0000 0.0000 0.0000 30.7984 0.0000 0.0000
# 5 0.0000 0.0000 0.0000 0.0000 43.5675 0.0000
# 6 0.0000 0.0000 0.0000 0.0000 0.0000 -6.0735
#
#
#
# Elastic Compliance Matrix: (Units=1/GPa)
#
#
# Indices 1 2 3 4 5 6 
#
# 1 0.013973 -0.004447 -0.009155 0.000000 0.000000 0.000000
# 2 -0.004447 0.020361 0.009779 0.000000 0.000000 0.000000
# 3 -0.009155 0.009779 0.037003 0.000000 0.000000 0.000000
# 4 0.000000 0.000000 0.000000 0.032469 0.000000 0.000000
# 5 0.000000 0.000000 0.000000 0.000000 0.022953 0.000000
# 6 0.000000 0.000000 0.000000 0.000000 0.000000 -0.164649
#
#
# Mechanical properties :
#
#
# Convention : Reuss Voigt Hill
#
# Bulk Modulus (GPa) = 15.70103 23.54575 19.62339
# Shear Modulus (GPa) = -554.74921 24.55311 -265.09805
#
# Velocity S-wave (km/s) = -16.27588 3.42412 -11.25122
# Velocity P-wave (km/s) = 18.59323 5.18425 12.62600
#
# Compressibility (1/GPa) = 0.06369008
#
# Stress axis : x y z
#
# Youngs Moduli (GPa) = 71.56494 49.11304 27.02518
#
# Poissons Ratio (x) = 0.21843 0.24741
# Poissons Ratio (y) = 0.31828 -0.26427
# Poissons Ratio (z) = 0.65515 -0.48026
#
# Static dielectric constant tensor:
#      x y z
#    x 1.773350 0.000000 0.000000 
#    y 0.000000 1.756580 0.000000 
#    z 0.000000 0.000000 1.741590 
# 
# From -- ./inp_files/22648.got.cif
#   From: 2010.05.17/outbox.cif.g08.bks.cpg/sg60_12_cif.got.tgz:22648.got - 2010.06.03 14:59:27.
