data_PCOD9457125
_publ_section_title
;
Structure prediction by ZEFSAII (Michael W. Deem and Ramdas Pophale) SiO2 
 PCOD9457125
Probable space group: P B C N
;
_chemical_formula_sum "Si O2"
_cell_formula_units_Z 40
_cell_length_a 12.841361
_cell_length_b 14.259123
_cell_length_c 9.683222
_cell_angle_alpha 90.000000
_cell_angle_beta 90.000000
_cell_angle_gamma 90.000000
_cell_volume 1773.061334
_symmetry_space_group_name_H-M "P B C N"
_symmetry_group_IT_number 60
_symmetry_cell_setting 'orthorhombic'
loop_
_space_group_symop_operation_xyz
x,y,z
1/2-x,1/2-y,1/2+z
1/2+x,1/2-y,-z
-x,y,1/2-z
-x,-y,-z
1/2+x,1/2+y,1/2-z
1/2-x,1/2+y,z
x,-y,1/2+z
loop_
_atom_site_type_symbol
_atom_site_label
_atom_site_fract_x
_atom_site_fract_y
_atom_site_fract_z
Si Si1 0.553263 0.274259 0.458056
Si Si2 0.341622 0.093776 0.965800
Si Si3 0.433589 0.548495 0.380726
Si Si4 0.794097 0.442483 0.721098
Si Si5 0.831572 0.777583 0.183229
O O1 0.566865 0.165252 0.492331
O O2 0.566937 0.341061 0.587632
O O3 0.439730 0.292587 0.396364
O O4 0.640699 0.300859 0.343026
O O5 0.258494 0.163052 0.889676
O O6 0.371734 0.011912 0.859345
O O7 0.299112 0.053124 0.112339
O O8 0.500000 0.524668 0.250000
O O9 0.500000 0.500000 0.500000
O O10 0.315605 0.523711 0.344126
O O11 0.808798 0.333597 0.683631
#
# Coordination Sequence:
#
# PCOD9457125 Si02
#       5
#     8   8   8   8   8
#     4  10  23  43  66  95 131 179 218 275 336 387
#     4  11  24  43  68  96 137 169 226 275 329 402
#     4  12  25  41  65 100 133 169 223 267 333 397
#     4  11  24  41  65  96 129 178 215 272 335 385
#     4  10  22  43  68  93 135 172 222 279 328 396
#
# _framework density 22.559850999999998
#
# number of rings (size 3 to 8) (size 9 to 14) (size 15 to 20)
#    0.000    1.200    2.000    3.600    8.400    0.800 
#    3.600    0.000    0.000    0.000    0.000    0.000 
#    0.000    0.000    0.000    0.000    0.000    0.000 
#
# Total GULP energy -223576.956049 kJ/mol
# GULP energy per Si atom -5589.423901 kJ/mol
# Density = 2.250850 g / cm^3
# Si number density = 22.559851 Si / 1000 Ang^3
#
#
#
# Elastic Constant Matrix: (Units=GPa)
#
#
# Indices 1 2 3 4 5 6 
#
# 1 14.9884 -10.0896 -11.3257 0.0000 0.0000 0.0000
# 2 -10.0896 94.6927 36.4646 0.0000 0.0000 0.0000
# 3 -11.3257 36.4646 105.3554 0.0000 0.0000 0.0000
# 4 0.0000 0.0000 0.0000 42.3859 0.0000 0.0000
# 5 0.0000 0.0000 0.0000 0.0000 13.4224 0.0000
# 6 0.0000 0.0000 0.0000 0.0000 0.0000 27.0092
#
#
#
# Elastic Compliance Matrix: (Units=1/GPa)
#
#
# Indices 1 2 3 4 5 6 
#
# 1 0.075148 0.005649 0.006123 0.000000 0.000000 0.000000
# 2 0.005649 0.012609 -0.003757 0.000000 0.000000 0.000000
# 3 0.006123 -0.003757 0.011450 0.000000 0.000000 0.000000
# 4 0.000000 0.000000 0.000000 0.023593 0.000000 0.000000
# 5 0.000000 0.000000 0.000000 0.000000 0.074502 0.000000
# 6 0.000000 0.000000 0.000000 0.000000 0.000000 0.037024
#
#
# Mechanical properties :
#
#
# Convention : Reuss Voigt Hill
#
# Bulk Modulus (GPa) = 8.67769 27.23722 17.95745
# Shear Modulus (GPa) = 19.47735 29.89597 24.68666
#
# Velocity S-wave (km/s) = 2.94149 3.64426 3.31157
# Velocity P-wave (km/s) = 3.92318 5.45958 4.75386
#
# Compressibility (1/GPa) = 0.11523808
#
# Stress axis : x y z
#
# Youngs Moduli (GPa) = 13.30710 79.30772 87.33471
#
# Poissons Ratio (x) = -0.44803 -0.53476
# Poissons Ratio (y) = -0.07517 0.32810
# Poissons Ratio (z) = -0.08148 0.29795
#
# Static dielectric constant tensor:
#      x y z
#    x 1.816040 0.000000 0.000000 
#    y 0.000000 1.867080 0.000000 
#    z 0.000000 0.000000 1.813310 
# 
# From -- ./inp_files/5653.got.cif
#   From: 2010.05.17/outbox.cif.g08.bks.cpg/sg60_3_cif.got.tgz:5653.got - 2010.06.03 14:59:27.
