data_PCOD9457903
_publ_section_title
;
Structure prediction by ZEFSAII (Michael W. Deem and Ramdas Pophale) SiO2 
 PCOD9457903
Probable space group: P B C N
;
_chemical_formula_sum "Si O2"
_cell_formula_units_Z 40
_cell_length_a 9.266647
_cell_length_b 10.180375
_cell_length_c 17.013723
_cell_angle_alpha 90.000000
_cell_angle_beta 90.000000
_cell_angle_gamma 90.000000
_cell_volume 1605.039604
_symmetry_space_group_name_H-M "P B C N"
_symmetry_group_IT_number 60
_symmetry_cell_setting 'orthorhombic'
loop_
_space_group_symop_operation_xyz
x,y,z
1/2-x,1/2-y,1/2+z
1/2+x,1/2-y,-z
-x,y,1/2-z
-x,-y,-z
1/2+x,1/2+y,1/2-z
1/2-x,1/2+y,z
x,-y,1/2+z
loop_
_atom_site_type_symbol
_atom_site_label
_atom_site_fract_x
_atom_site_fract_y
_atom_site_fract_z
Si Si1 0.411771 0.714655 0.828864
Si Si2 0.094193 0.259776 0.377755
Si Si3 0.537653 0.000282 0.831655
Si Si4 0.314178 0.371822 0.620637
Si Si5 0.866664 0.865574 0.453294
O O1 0.500000 0.673347 0.750000
O O2 0.239267 0.706722 0.830373
O O3 0.484428 0.646989 0.904260
O O4 0.445760 0.868920 0.838682
O O5 0.131597 0.188121 0.459089
O O6 0.012712 0.397229 0.396391
O O7 0.967733 0.166566 0.343776
O O8 0.500000 0.069163 0.750000
O O9 0.700725 0.949440 0.825770
O O10 0.328030 0.480974 0.552076
O O11 0.237662 0.237545 0.592669
#
# Coordination Sequence:
#
# PCOD9457903 Si02
#       5
#     8   8   8   8   8
#     4  10  26  46  67 107 155 190 245 302 369 448
#     4  12  25  43  78 103 143 198 241 305 373 427
#     4  10  25  45  67 101 144 187 250 298 366 434
#     4  11  24  46  73 105 143 190 245 304 354 442
#     4  11  25  45  72 110 149 188 255 297 363 437
#
# _framework density 24.921503000000001
#
# number of rings (size 3 to 8) (size 9 to 14) (size 15 to 20)
#    0.000    1.200    2.000    1.800    8.400    3.200 
#    0.000    1.000    0.000    0.000    0.000    0.000 
#    0.000    0.000    0.000    0.000    0.000    0.000 
#
# Total GULP energy -223498.903501 kJ/mol
# GULP energy per Si atom -5587.472588 kJ/mol
# Density = 2.486478 g / cm^3
# Si number density = 24.921503 Si / 1000 Ang^3
#
#
#
# Elastic Constant Matrix: (Units=GPa)
#
#
# Indices 1 2 3 4 5 6 
#
# 1 221.0230 36.3491 55.5979 0.0000 0.0000 0.0000
# 2 36.3491 88.4480 9.1501 0.0000 0.0000 0.0000
# 3 55.5979 9.1501 61.0629 0.0000 0.0000 0.0000
# 4 0.0000 0.0000 0.0000 28.6098 0.0000 0.0000
# 5 0.0000 0.0000 0.0000 0.0000 22.1363 0.0000
# 6 0.0000 0.0000 0.0000 0.0000 0.0000 47.2922
#
#
#
# Elastic Compliance Matrix: (Units=1/GPa)
#
#
# Indices 1 2 3 4 5 6 
#
# 1 0.006196 -0.001994 -0.005343 0.000000 0.000000 0.000000
# 2 -0.001994 0.012126 -0.000002 0.000000 0.000000 0.000000
# 3 -0.005343 -0.000002 0.021242 0.000000 0.000000 0.000000
# 4 0.000000 0.000000 0.000000 0.034953 0.000000 0.000000
# 5 0.000000 0.000000 0.000000 0.000000 0.045175 0.000000
# 6 0.000000 0.000000 0.000000 0.000000 0.000000 0.021145
#
#
# Mechanical properties :
#
#
# Convention : Reuss Voigt Hill
#
# Bulk Modulus (GPa) = 40.18209 63.63644 51.90927
# Shear Modulus (GPa) = 30.52335 37.57009 34.04672
#
# Velocity S-wave (km/s) = 3.50348 3.88691 3.70017
# Velocity P-wave (km/s) = 5.70301 6.76272 6.25534
#
# Compressibility (1/GPa) = 0.02488671
#
# Stress axis : x y z
#
# Youngs Moduli (GPa) = 161.38591 82.47007 47.07733
#
# Poissons Ratio (x) = 0.16442 0.25153
# Poissons Ratio (y) = 0.32176 0.00008
# Poissons Ratio (z) = 0.86229 0.00014
#
# Static dielectric constant tensor:
#      x y z
#    x 2.079130 0.000000 0.000000 
#    y 0.000000 1.944390 0.000000 
#    z 0.000000 0.000000 2.056580 
# 
# From -- ./inp_files/18991.got.cif
#   From: 2010.05.17/outbox.cif.g08.bks.cpg/sg60_10_cif.got.tgz:18991.got - 2010.06.03 14:59:27.
