data_PCOD9457171
_publ_section_title
;
Structure prediction by ZEFSAII (Michael W. Deem and Ramdas Pophale) SiO2 
 PCOD9457171
Probable space group: P B C N
;
_chemical_formula_sum "Si O2"
_cell_formula_units_Z 48
_cell_length_a 13.542816
_cell_length_b 9.228051
_cell_length_c 16.843572
_cell_angle_alpha 90.000000
_cell_angle_beta 90.000000
_cell_angle_gamma 90.000000
_cell_volume 2105.005143
_symmetry_space_group_name_H-M "P B C N"
_symmetry_group_IT_number 60
_symmetry_cell_setting 'orthorhombic'
loop_
_space_group_symop_operation_xyz
x,y,z
1/2-x,1/2-y,1/2+z
1/2+x,1/2-y,-z
-x,y,1/2-z
-x,-y,-z
1/2+x,1/2+y,1/2-z
1/2-x,1/2+y,z
x,-y,1/2+z
loop_
_atom_site_type_symbol
_atom_site_label
_atom_site_fract_x
_atom_site_fract_y
_atom_site_fract_z
Si Si1 0.306819 0.939606 0.943447
Si Si2 0.316911 0.780580 0.545037
Si Si3 0.500000 0.997064 0.250000
Si Si4 0.987773 0.739349 0.128822
Si Si5 0.793750 0.615882 0.710274
Si Si6 0.301540 0.380984 0.696529
Si Si7 0.500000 0.486912 0.250000
O O1 0.397052 0.837605 0.915018
O O2 0.265525 0.036951 0.870616
O O3 0.228730 0.832668 0.983268
O O4 0.339362 0.063483 0.005566
O O5 0.419810 0.715097 0.575868
O O6 0.237466 0.812491 0.615226
O O7 0.533885 0.109854 0.317343
O O8 0.588432 0.903109 0.216483
O O9 0.956457 0.873950 0.184576
O O10 0.750661 0.531809 0.785814
O O11 0.768700 0.780174 0.729077
O O12 0.416989 0.416386 0.707427
#
# Coordination Sequence:
#
# PCOD9457171 Si02
#       7
#     8   8   4   8   8   8   4
#     4  11  26  43  71 103 146 183 238 289 363 423
#     4  12  24  47  69 105 140 193 228 293 360 429
#     4   9  19  38  70  94 128 174 236 286 330 406
#     4  10  22  44  70 100 140 183 233 288 353 418
#     4  11  23  43  69 102 130 186 233 293 339 416
#     4  12  25  43  74  99 141 179 244 288 348 422
#     4  11  25  44  70 108 134 180 240 304 342 408
#
# _framework density 22.802793999999999
#
# number of rings (size 3 to 8) (size 9 to 14) (size 15 to 20)
#    0.000    1.000    1.667    5.000    7.000    0.000 
#    6.000    1.667    0.000    0.000    0.000    0.000 
#    0.000    0.000    0.000    0.000    0.000    0.000 
#
# Total GULP energy -268311.055883 kJ/mol
# GULP energy per Si atom -5589.813664 kJ/mol
# Density = 2.275089 g / cm^3
# Si number density = 22.802794 Si / 1000 Ang^3
#
#
#
# Elastic Constant Matrix: (Units=GPa)
#
#
# Indices 1 2 3 4 5 6 
#
# 1 71.3892 15.8329 35.2276 0.0000 0.0000 0.0000
# 2 15.8329 92.5452 40.4158 0.0000 0.0000 0.0000
# 3 35.2276 40.4158 105.2934 0.0000 0.0000 0.0000
# 4 0.0000 0.0000 0.0000 37.5055 0.0000 0.0000
# 5 0.0000 0.0000 0.0000 0.0000 31.9832 0.0000
# 6 0.0000 0.0000 0.0000 0.0000 0.0000 28.3151
#
#
#
# Elastic Compliance Matrix: (Units=1/GPa)
#
#
# Indices 1 2 3 4 5 6 
#
# 1 0.016797 -0.000504 -0.005426 0.000000 0.000000 0.000000
# 2 -0.000504 0.012997 -0.004820 0.000000 0.000000 0.000000
# 3 -0.005426 -0.004820 0.013163 0.000000 0.000000 0.000000
# 4 0.000000 0.000000 0.000000 0.026663 0.000000 0.000000
# 5 0.000000 0.000000 0.000000 0.000000 0.031266 0.000000
# 6 0.000000 0.000000 0.000000 0.000000 0.000000 0.035317
#
#
# Mechanical properties :
#
#
# Convention : Reuss Voigt Hill
#
# Bulk Modulus (GPa) = 46.60681 50.24226 48.42453
# Shear Modulus (GPa) = 30.32959 31.41086 30.87023
#
# Velocity S-wave (km/s) = 3.65099 3.71550 3.68338
# Velocity P-wave (km/s) = 6.18517 6.36300 6.27472
#
# Compressibility (1/GPa) = 0.02145609
#
# Stress axis : x y z
#
# Youngs Moduli (GPa) = 59.53389 76.94238 75.97125
#
# Poissons Ratio (x) = 0.03877 0.41224
# Poissons Ratio (y) = 0.03000 0.36619
# Poissons Ratio (z) = 0.32305 0.37087
#
# Static dielectric constant tensor:
#      x y z
#    x 1.860300 0.000000 0.000000 
#    y 0.000000 1.803760 0.000000 
#    z 0.000000 0.000000 1.880820 
# 
# From -- ./inp_files/20562.got.cif
#   From: 2010.05.17/outbox.cif.g08.bks.cpg/sg60_11_cif.got.tgz:20562.got - 2010.06.03 14:59:27.
