data_PCOD9457101
_publ_section_title
;
Structure prediction by ZEFSAII (Michael W. Deem and Ramdas Pophale) SiO2 
 PCOD9457101
Probable space group: P B C N
;
_chemical_formula_sum "Si O2"
_cell_formula_units_Z 32
_cell_length_a 12.789589
_cell_length_b 12.860397
_cell_length_c 8.367131
_cell_angle_alpha 90.000000
_cell_angle_beta 90.000000
_cell_angle_gamma 90.000000
_cell_volume 1376.218946
_symmetry_space_group_name_H-M "P B C N"
_symmetry_group_IT_number 60
_symmetry_cell_setting 'orthorhombic'
loop_
_space_group_symop_operation_xyz
x,y,z
1/2-x,1/2-y,1/2+z
1/2+x,1/2-y,-z
-x,y,1/2-z
-x,-y,-z
1/2+x,1/2+y,1/2-z
1/2-x,1/2+y,z
x,-y,1/2+z
loop_
_atom_site_type_symbol
_atom_site_label
_atom_site_fract_x
_atom_site_fract_y
_atom_site_fract_z
Si Si1 0.876185 0.012433 0.489608
Si Si2 0.624903 0.336741 0.275998
Si Si3 0.922518 0.442424 0.121194
Si Si4 0.296006 0.118015 0.178533
O O1 0.849649 0.075370 0.647427
O O2 0.823081 0.086334 0.356245
O O3 0.843470 0.894940 0.441792
O O4 0.000000 0.000000 0.500000
O O5 0.500000 0.315493 0.250000
O O6 0.685823 0.230880 0.250007
O O7 0.854693 0.529415 0.216498
O O8 0.000000 0.388286 0.250000
O O9 0.852073 0.378746 0.997025
O O10 0.000000 0.500000 0.000000
#
# Coordination Sequence:
#
# PCOD9457101 Si02
#       4
#     8   8   8   8
#     4  10  23  42  64  95 137 178 228 287 344 412
#     4  10  22  43  65  91 131 179 227 284 347 412
#     4   9  19  36  60  97 135 164 215 290 350 410
#     4  11  21  39  67  95 130 181 229 279 349 422
#
# _framework density 23.252113999999999
#
# number of rings (size 3 to 8) (size 9 to 14) (size 15 to 20)
#    0.000    2.000    0.000    3.750    0.000    4.000 
#    0.000   18.750    0.000    0.000    0.000    0.000 
#    0.000    0.000    0.000    0.000    0.000    0.000 
#
# Total GULP energy -178269.074681 kJ/mol
# GULP energy per Si atom -5570.908584 kJ/mol
# Density = 2.319919 g / cm^3
# Si number density = 23.252114 Si / 1000 Ang^3
#
#
#
# Elastic Constant Matrix: (Units=GPa)
#
#
# Indices 1 2 3 4 5 6 
#
# 1 118.3253 42.9848 33.9435 0.0000 0.0000 0.0000
# 2 42.9848 114.9494 33.6333 0.0000 0.0000 0.0000
# 3 33.9435 33.6333 96.7286 0.0000 0.0000 0.0000
# 4 0.0000 0.0000 0.0000 35.0535 0.0000 0.0000
# 5 0.0000 0.0000 0.0000 0.0000 18.4355 0.0000
# 6 0.0000 0.0000 0.0000 0.0000 0.0000 36.7642
#
#
#
# Elastic Compliance Matrix: (Units=1/GPa)
#
#
# Indices 1 2 3 4 5 6 
#
# 1 0.010310 -0.003113 -0.002535 0.000000 0.000000 0.000000
# 2 -0.003113 0.010625 -0.002602 0.000000 0.000000 0.000000
# 3 -0.002535 -0.002602 0.012133 0.000000 0.000000 0.000000
# 4 0.000000 0.000000 0.000000 0.028528 0.000000 0.000000
# 5 0.000000 0.000000 0.000000 0.000000 0.054243 0.000000
# 6 0.000000 0.000000 0.000000 0.000000 0.000000 0.027200
#
#
# Mechanical properties :
#
#
# Convention : Reuss Voigt Hill
#
# Bulk Modulus (GPa) = 60.36416 61.23628 60.80022
# Shear Modulus (GPa) = 30.29174 32.68009 31.48591
#
# Velocity S-wave (km/s) = 3.61328 3.75302 3.68382
# Velocity P-wave (km/s) = 6.58975 6.72110 6.65575
#
# Compressibility (1/GPa) = 0.01656612
#
# Stress axis : x y z
#
# Youngs Moduli (GPa) = 96.99706 94.11746 82.42296
#
# Poissons Ratio (x) = 0.29303 0.20896
# Poissons Ratio (y) = 0.30199 0.21445
# Poissons Ratio (z) = 0.24591 0.24488
#
# Static dielectric constant tensor:
#      x y z
#    x 2.018430 0.000000 0.000000 
#    y 0.000000 1.802160 0.000000 
#    z 0.000000 0.000000 2.197160 
# 
# From -- ./inp_files/5478.got.cif
#   From: 2010.05.17/outbox.cif.g08.bks.cpg/sg60_3_cif.got.tgz:5478.got - 2010.06.03 14:59:27.
