data_PCOD9457606
_publ_section_title
;
Structure prediction by ZEFSAII (Michael W. Deem and Ramdas Pophale) SiO2 
 PCOD9457606
Probable space group: P B C N
;
_chemical_formula_sum "Si O2"
_cell_formula_units_Z 40
_cell_length_a 8.330967
_cell_length_b 10.186532
_cell_length_c 18.845230
_cell_angle_alpha 90.000000
_cell_angle_beta 90.000000
_cell_angle_gamma 90.000000
_cell_volume 1599.275228
_symmetry_space_group_name_H-M "P B C N"
_symmetry_group_IT_number 60
_symmetry_cell_setting 'orthorhombic'
loop_
_space_group_symop_operation_xyz
x,y,z
1/2-x,1/2-y,1/2+z
1/2+x,1/2-y,-z
-x,y,1/2-z
-x,-y,-z
1/2+x,1/2+y,1/2-z
1/2-x,1/2+y,z
x,-y,1/2+z
loop_
_atom_site_type_symbol
_atom_site_label
_atom_site_fract_x
_atom_site_fract_y
_atom_site_fract_z
Si Si1 0.563894 0.398609 0.324437
Si Si2 0.781821 0.914477 0.627696
Si Si3 0.765497 0.260367 0.918899
Si Si4 0.096775 0.344324 0.443971
Si Si5 0.175020 0.414167 0.726027
O O1 0.500000 0.334158 0.250000
O O2 0.440521 0.512677 0.345153
O O3 0.593790 0.343608 0.403910
O O4 0.730072 0.456933 0.296743
O O5 0.814839 0.792978 0.576597
O O6 0.730728 0.848812 0.701156
O O7 0.659322 0.027313 0.599141
O O8 0.592332 0.194378 0.935020
O O9 0.784027 0.322692 0.840344
O O10 0.834011 0.361853 0.976466
O O11 0.000000 0.456905 0.750000
#
# Coordination Sequence:
#
# PCOD9457606 Si02
#       5
#     8   8   8   8   8
#     4  10  23  47  73 110 153 200 258 323 386 454
#     4  11  27  51  76 111 154 205 256 327 379 468
#     4  12  27  46  79 112 158 206 256 324 390 474
#     4  12  29  49  78 113 161 201 262 317 403 458
#     4  11  25  45  77 111 150 203 262 319 383 459
#
# _framework density 25.011330999999998
#
# number of rings (size 3 to 8) (size 9 to 14) (size 15 to 20)
#    0.000    0.800    2.000    3.000   14.000    2.400 
#    0.000    0.000    0.000    0.000    0.000    0.000 
#    0.000    0.000    0.000    0.000    0.000    0.000 
#
# Total GULP energy -222902.627700 kJ/mol
# GULP energy per Si atom -5572.565692 kJ/mol
# Density = 2.495440 g / cm^3
# Si number density = 25.011331 Si / 1000 Ang^3
#
#
#
# Elastic Constant Matrix: (Units=GPa)
#
#
# Indices 1 2 3 4 5 6 
#
# 1 113.4120 34.6654 42.5189 0.0000 0.0000 0.0000
# 2 34.6654 52.2405 13.0177 0.0000 0.0000 0.0000
# 3 42.5189 13.0177 86.1160 0.0000 0.0000 0.0000
# 4 0.0000 0.0000 0.0000 -67.0328 0.0000 0.0000
# 5 0.0000 0.0000 0.0000 0.0000 24.8322 0.0000
# 6 0.0000 0.0000 0.0000 0.0000 0.0000 -74.9810
#
#
#
# Elastic Compliance Matrix: (Units=1/GPa)
#
#
# Indices 1 2 3 4 5 6 
#
# 1 0.013062 -0.007337 -0.005340 0.000000 0.000000 0.000000
# 2 -0.007337 0.024013 -0.000007 0.000000 0.000000 0.000000
# 3 -0.005340 -0.000007 0.014250 0.000000 0.000000 0.000000
# 4 0.000000 0.000000 0.000000 -0.014918 0.000000 0.000000
# 5 0.000000 0.000000 0.000000 0.000000 0.040270 0.000000
# 6 0.000000 0.000000 0.000000 0.000000 0.000000 -0.013337
#
#
# Mechanical properties :
#
#
# Convention : Reuss Voigt Hill
#
# Bulk Modulus (GPa) = 38.52695 48.01917 43.27306
# Shear Modulus (GPa) = 51.35521 -12.66522 19.34499
#
# Velocity S-wave (km/s) = 4.53623 -2.25273 2.78411
# Velocity P-wave (km/s) = 6.54780 3.53189 5.26061
#
# Compressibility (1/GPa) = 0.02595586
#
# Stress axis : x y z
#
# Youngs Moduli (GPa) = 76.55754 41.64476 70.17537
#
# Poissons Ratio (x) = 0.30554 0.37475
# Poissons Ratio (y) = 0.56170 0.00051
# Poissons Ratio (z) = 0.40883 0.00030
#
# Static dielectric constant tensor:
#      x y z
#    x 1.533510 0.000000 0.000000 
#    y 0.000000 2.548950 0.000000 
#    z 0.000000 0.000000 1.939270 
# 
# From -- ./inp_files/18983.got.cif
#   From: 2010.05.17/outbox.cif.g08.bks.cpg/sg60_10_cif.got.tgz:18983.got - 2010.06.03 14:59:27.
