data_PCOD9457502
_publ_section_title
;
Structure prediction by ZEFSAII (Michael W. Deem and Ramdas Pophale) SiO2 
 PCOD9457502
Probable space group: P B C N
;
_chemical_formula_sum "Si O2"
_cell_formula_units_Z 56
_cell_length_a 5.853660
_cell_length_b 14.845254
_cell_length_c 27.805288
_cell_angle_alpha 90.000000
_cell_angle_beta 90.000000
_cell_angle_gamma 90.000000
_cell_volume 2416.253655
_symmetry_space_group_name_H-M "P B C N"
_symmetry_group_IT_number 60
_symmetry_cell_setting 'orthorhombic'
loop_
_space_group_symop_operation_xyz
x,y,z
1/2-x,1/2-y,1/2+z
1/2+x,1/2-y,-z
-x,y,1/2-z
-x,-y,-z
1/2+x,1/2+y,1/2-z
1/2-x,1/2+y,z
x,-y,1/2+z
loop_
_atom_site_type_symbol
_atom_site_label
_atom_site_fract_x
_atom_site_fract_y
_atom_site_fract_z
Si Si1 0.500000 0.828103 0.750000
Si Si2 0.500425 0.270200 0.148648
Si Si3 0.865263 0.486508 0.438151
Si Si4 0.253820 0.380733 0.907415
Si Si5 0.760675 0.197203 0.942496
Si Si6 0.976667 0.975755 0.348762
Si Si7 0.500000 0.570897 0.250000
Si Si8 0.382680 0.630159 0.007876
O O1 0.538741 0.771587 0.799028
O O2 0.752889 0.876769 0.741874
O O3 0.677621 0.208789 0.119621
O O4 0.281776 0.269506 0.112232
O O5 0.567763 0.374257 0.153016
O O6 0.925329 0.382271 0.448879
O O7 0.730126 0.479687 0.387305
O O8 0.726640 0.533023 0.481853
O O9 0.048167 0.563166 0.429569
O O10 0.354102 0.450453 0.869565
O O11 0.428089 0.361929 0.949879
O O12 0.760340 0.280964 0.978441
O O13 0.992952 0.143071 0.957191
O O14 0.931575 0.009112 0.295264
#
# Coordination Sequence:
#
# PCOD9457502 Si02
#       8
#     4   8   8   8   8   8   4   8
#     4  12  27  46  79 104 146 188 239 298 371 424
#     4  11  23  46  69 103 137 180 233 290 353 430
#     4  10  23  44  67  94 135 183 231 283 353 420
#     4  11  22  43  67  97 136 179 230 288 349 421
#     4  11  24  42  68  97 139 181 233 287 353 418
#     4  10  24  42  69  99 137 180 233 289 358 426
#     4  12  25  48  73 106 144 188 237 302 363 442
#     4  11  24  42  63  99 137 179 230 289 339 423
#
# _framework density 23.176373000000002
#
# number of rings (size 3 to 8) (size 9 to 14) (size 15 to 20)
#    0.000    1.143    2.857    2.571    4.000    0.571 
#    5.143    1.429    0.000    0.000    0.000    0.000 
#    0.000    0.000    0.000    0.000    0.000    0.000 
#
# Total GULP energy -312757.486322 kJ/mol
# GULP energy per Si atom -5584.955113 kJ/mol
# Density = 2.312362 g / cm^3
# Si number density = 23.176373 Si / 1000 Ang^3
#
#
#
# Elastic Constant Matrix: (Units=GPa)
#
#
# Indices 1 2 3 4 5 6 
#
# 1 43.3689 34.8851 12.6949 0.0000 0.0000 0.0000
# 2 34.8851 157.1642 47.3217 0.0000 0.0000 0.0000
# 3 12.6949 47.3217 146.9223 0.0000 0.0000 0.0000
# 4 0.0000 0.0000 0.0000 53.7567 0.0000 0.0000
# 5 0.0000 0.0000 0.0000 0.0000 12.5441 0.0000
# 6 0.0000 0.0000 0.0000 0.0000 0.0000 -6.5913
#
#
#
# Elastic Compliance Matrix: (Units=1/GPa)
#
#
# Indices 1 2 3 4 5 6 
#
# 1 0.028098 -0.006097 -0.000464 0.000000 0.000000 0.000000
# 2 -0.006097 0.008369 -0.002169 0.000000 0.000000 0.000000
# 3 -0.000464 -0.002169 0.007545 0.000000 0.000000 0.000000
# 4 0.000000 0.000000 0.000000 0.018602 0.000000 0.000000
# 5 0.000000 0.000000 0.000000 0.000000 0.079719 0.000000
# 6 0.000000 0.000000 0.000000 0.000000 0.000000 -0.151714
#
#
# Mechanical properties :
#
#
# Convention : Reuss Voigt Hill
#
# Bulk Modulus (GPa) = 37.66131 59.69542 48.67836
# Shear Modulus (GPa) = 295.33165 28.77880 162.05523
#
# Velocity S-wave (km/s) = 11.30064 3.52764 8.37105
# Velocity P-wave (km/s) = 13.65862 6.51193 10.69961
#
# Compressibility (1/GPa) = 0.02655245
#
# Stress axis : x y z
#
# Youngs Moduli (GPa) = 35.58943 119.48668 132.53914
#
# Poissons Ratio (x) = 0.72853 0.06150
# Poissons Ratio (y) = 0.21699 0.28745
# Poissons Ratio (z) = 0.01651 0.25914
#
# Static dielectric constant tensor:
#      x y z
#    x 2.047830 0.000000 0.000000 
#    y 0.000000 1.884060 0.000000 
#    z 0.000000 0.000000 1.965950 
# 
# From -- ./inp_files/25732.got.cif
#   From: 2010.05.17/outbox.cif.g08.bks.cpg/sg60_13_cif.got.tgz:25732.got - 2010.06.03 14:59:27.
