data_PCOD9457746
_publ_section_title
;
Structure prediction by ZEFSAII (Michael W. Deem and Ramdas Pophale) SiO2 
 PCOD9457746
Probable space group: P B C N
;
_chemical_formula_sum "Si O2"
_cell_formula_units_Z 24
_cell_length_a 8.889581
_cell_length_b 22.569076
_cell_length_c 5.195386
_cell_angle_alpha 90.000000
_cell_angle_beta 90.000000
_cell_angle_gamma 90.000000
_cell_volume 1042.348367
_symmetry_space_group_name_H-M "P B C N"
_symmetry_group_IT_number 60
_symmetry_cell_setting 'orthorhombic'
loop_
_space_group_symop_operation_xyz
x,y,z
1/2-x,1/2-y,1/2+z
1/2+x,1/2-y,-z
-x,y,1/2-z
-x,-y,-z
1/2+x,1/2+y,1/2-z
1/2-x,1/2+y,z
x,-y,1/2+z
loop_
_atom_site_type_symbol
_atom_site_label
_atom_site_fract_x
_atom_site_fract_y
_atom_site_fract_z
Si Si1 0.102781 0.779572 0.003051
Si Si2 0.680647 0.467374 0.783601
Si Si3 0.828092 0.346652 0.794103
O O1 0.163291 0.712548 0.033147
O O2 0.000000 0.792263 0.250000
O O3 0.242595 0.822990 0.960531
O O4 0.000000 0.784749 0.750000
O O5 0.500000 0.466578 0.750000
O O6 0.732871 0.485652 0.498452
O O7 0.735576 0.403546 0.878509
O O8 0.000000 0.364286 0.750000
#
# Coordination Sequence:
#
# PCOD9457746 Si02
#       3
#     8   8   8
#     4  11  25  44  67  99 140 181 217 268 344 414
#     4  10  24  44  65  90 126 175 221 265 327 399
#     4  11  24  42  69 101 134 170 222 279 330 390
#
# _framework density 23.024932
#
# number of rings (size 3 to 8) (size 9 to 14) (size 15 to 20)
#    0.000    1.333    0.000    5.000    0.000   16.000 
#    0.000    1.667    0.000    0.000    0.000    0.000 
#    0.000    0.000    0.000    0.000    0.000    0.000 
#
# Total GULP energy -134239.688246 kJ/mol
# GULP energy per Si atom -5593.320344 kJ/mol
# Density = 2.297253 g / cm^3
# Si number density = 23.024932 Si / 1000 Ang^3
#
#
#
# Elastic Constant Matrix: (Units=GPa)
#
#
# Indices 1 2 3 4 5 6 
#
# 1 77.4661 11.6343 56.6719 0.0000 0.0000 0.0000
# 2 11.6343 73.0541 17.5557 0.0000 0.0000 0.0000
# 3 56.6719 17.5557 140.7359 0.0000 0.0000 0.0000
# 4 0.0000 0.0000 0.0000 28.5806 0.0000 0.0000
# 5 0.0000 0.0000 0.0000 0.0000 22.4681 0.0000
# 6 0.0000 0.0000 0.0000 0.0000 0.0000 28.6824
#
#
#
# Elastic Compliance Matrix: (Units=1/GPa)
#
#
# Indices 1 2 3 4 5 6 
#
# 1 0.018399 -0.001185 -0.007261 0.000000 0.000000 0.000000
# 2 -0.001185 0.014188 -0.001293 0.000000 0.000000 0.000000
# 3 -0.007261 -0.001293 0.010191 0.000000 0.000000 0.000000
# 4 0.000000 0.000000 0.000000 0.034989 0.000000 0.000000
# 5 0.000000 0.000000 0.000000 0.000000 0.044508 0.000000
# 6 0.000000 0.000000 0.000000 0.000000 0.000000 0.034865
#
#
# Mechanical properties :
#
#
# Convention : Reuss Voigt Hill
#
# Bulk Modulus (GPa) = 42.91903 51.44223 47.18063
# Shear Modulus (GPa) = 27.11753 29.63915 28.37834
#
# Velocity S-wave (km/s) = 3.43555 3.59174 3.51451
# Velocity P-wave (km/s) = 5.86669 6.29216 6.08315
#
# Compressibility (1/GPa) = 0.02329969
#
# Stress axis : x y z
#
# Youngs Moduli (GPa) = 54.35120 70.48280 98.12919
#
# Poissons Ratio (x) = 0.08354 0.71252
# Poissons Ratio (y) = 0.06442 0.12684
# Poissons Ratio (z) = 0.39465 0.09110
#
# Static dielectric constant tensor:
#      x y z
#    x 1.880490 0.000000 0.000000 
#    y 0.000000 1.802250 0.000000 
#    z 0.000000 0.000000 1.872280 
# 
# From -- ./inp_files/232.got.cif
#   From: 2010.05.17/outbox.cif.g08.bks.cpg/sg60_1_cif.got.tgz:232.got - 2010.06.03 14:59:27.
