data_PCOD9457752
_publ_section_title
;
Structure prediction by ZEFSAII (Michael W. Deem and Ramdas Pophale) SiO2 
 PCOD9457752
Probable space group: P B C N
;
_chemical_formula_sum "Si O2"
_cell_formula_units_Z 40
_cell_length_a 9.994749
_cell_length_b 17.885594
_cell_length_c 10.159385
_cell_angle_alpha 90.000000
_cell_angle_beta 90.000000
_cell_angle_gamma 90.000000
_cell_volume 1816.112212
_symmetry_space_group_name_H-M "P B C N"
_symmetry_group_IT_number 60
_symmetry_cell_setting 'orthorhombic'
loop_
_space_group_symop_operation_xyz
x,y,z
1/2-x,1/2-y,1/2+z
1/2+x,1/2-y,-z
-x,y,1/2-z
-x,-y,-z
1/2+x,1/2+y,1/2-z
1/2-x,1/2+y,z
x,-y,1/2+z
loop_
_atom_site_type_symbol
_atom_site_label
_atom_site_fract_x
_atom_site_fract_y
_atom_site_fract_z
Si Si1 0.211196 0.007116 0.502528
Si Si2 0.291703 0.141686 0.335149
Si Si3 0.356187 0.407763 0.256666
Si Si4 0.358491 0.206415 0.814493
Si Si5 0.909556 0.606657 0.433072
O O1 0.206210 0.081371 0.414533
O O2 0.148390 0.028620 0.643270
O O3 0.156792 0.943634 0.402716
O O4 0.361363 0.977459 0.533985
O O5 0.231763 0.223332 0.354551
O O6 0.302604 0.129493 0.178929
O O7 0.442272 0.123351 0.382295
O O8 0.500000 0.368646 0.250000
O O9 0.234828 0.350402 0.230321
O O10 0.500000 0.228507 0.750000
O O11 0.393794 0.157872 0.940959
#
# Coordination Sequence:
#
# PCOD9457752 Si02
#       5
#     8   8   8   8   8
#     4  11  22  46  70 103 141 183 237 293 350 421
#     4  11  24  42  73 100 139 180 233 291 350 420
#     4  11  25  44  71 103 141 188 235 293 354 420
#     4  11  27  45  69 102 142 182 235 288 361 429
#     4  10  24  44  68 103 138 185 235 284 355 420
#
# _framework density 22.025071000000001
#
# number of rings (size 3 to 8) (size 9 to 14) (size 15 to 20)
#    0.000    1.200    2.000    2.400    8.400    2.400 
#    3.600    0.000    0.000    0.000    0.000    0.000 
#    0.000    0.000    0.000    0.000    0.000    0.000 
#
# Total GULP energy -223190.887968 kJ/mol
# GULP energy per Si atom -5579.772199 kJ/mol
# Density = 2.197494 g / cm^3
# Si number density = 22.025071 Si / 1000 Ang^3
#
#
#
# Elastic Constant Matrix: (Units=GPa)
#
#
# Indices 1 2 3 4 5 6 
#
# 1 104.4527 16.9304 11.3441 0.0000 0.0000 0.0000
# 2 16.9304 68.3923 -10.5498 0.0000 0.0000 0.0000
# 3 11.3441 -10.5498 62.0923 0.0000 0.0000 0.0000
# 4 0.0000 0.0000 0.0000 6.4053 0.0000 0.0000
# 5 0.0000 0.0000 0.0000 0.0000 -69.0989 0.0000
# 6 0.0000 0.0000 0.0000 0.0000 0.0000 15.5504
#
#
#
# Elastic Compliance Matrix: (Units=1/GPa)
#
#
# Indices 1 2 3 4 5 6 
#
# 1 0.010305 -0.002918 -0.002378 0.000000 0.000000 0.000000
# 2 -0.002918 0.015841 0.003225 0.000000 0.000000 0.000000
# 3 -0.002378 0.003225 0.017087 0.000000 0.000000 0.000000
# 4 0.000000 0.000000 0.000000 0.156120 0.000000 0.000000
# 5 0.000000 0.000000 0.000000 0.000000 -0.014472 0.000000
# 6 0.000000 0.000000 0.000000 0.000000 0.000000 0.064307
#
#
# Mechanical properties :
#
#
# Convention : Reuss Voigt Hill
#
# Bulk Modulus (GPa) = 25.58180 30.04294 27.81237
# Shear Modulus (GPa) = 18.77142 5.05220 11.91181
#
# Velocity S-wave (km/s) = 2.92254 1.51619 2.32810
# Velocity P-wave (km/s) = 4.79879 4.09085 4.45889
#
# Compressibility (1/GPa) = 0.03909029
#
# Stress axis : x y z
#
# Youngs Moduli (GPa) = 97.04058 63.12635 58.52239
#
# Poissons Ratio (x) = 0.18419 0.13919
# Poissons Ratio (y) = 0.28315 -0.18871
# Poissons Ratio (z) = 0.23081 -0.20356
#
# Static dielectric constant tensor:
#      x y z
#    x 1.868050 0.000000 0.000000 
#    y 0.000000 1.781650 0.000000 
#    z 0.000000 0.000000 1.831020 
# 
# From -- ./inp_files/9752.got.cif
#   From: 2010.05.17/outbox.cif.g08.bks.cpg/sg60_5_cif.got.tgz:9752.got - 2010.06.03 14:59:27.
