data_PCOD9457552
_publ_section_title
;
Structure prediction by ZEFSAII (Michael W. Deem and Ramdas Pophale) SiO2 
 PCOD9457552
Probable space group: P B C N
;
_chemical_formula_sum "Si O2"
_cell_formula_units_Z 64
_cell_length_a 27.148648
_cell_length_b 9.195590
_cell_length_c 10.489502
_cell_angle_alpha 90.000000
_cell_angle_beta 90.000000
_cell_angle_gamma 90.000000
_cell_volume 2618.681476
_symmetry_space_group_name_H-M "P B C N"
_symmetry_group_IT_number 60
_symmetry_cell_setting 'orthorhombic'
loop_
_space_group_symop_operation_xyz
x,y,z
1/2-x,1/2-y,1/2+z
1/2+x,1/2-y,-z
-x,y,1/2-z
-x,-y,-z
1/2+x,1/2+y,1/2-z
1/2-x,1/2+y,z
x,-y,1/2+z
loop_
_atom_site_type_symbol
_atom_site_label
_atom_site_fract_x
_atom_site_fract_y
_atom_site_fract_z
Si Si1 0.772501 0.206562 0.326783
Si Si2 0.730310 0.970308 0.492789
Si Si3 0.981520 0.146227 0.437888
Si Si4 0.398778 0.003249 0.187211
Si Si5 0.168364 0.977448 0.866515
Si Si6 0.177689 0.698619 0.310935
Si Si7 0.452352 0.073353 0.437650
Si Si8 0.580042 0.300642 0.700246
O O1 0.789832 0.353058 0.391745
O O2 0.810264 0.090696 0.267345
O O3 0.732365 0.254347 0.223995
O O4 0.737987 0.124181 0.428791
O O5 0.786592 0.941027 0.539097
O O6 0.692422 0.943087 0.605930
O O7 0.957621 0.255508 0.537744
O O8 0.942267 0.119591 0.324962
O O9 0.029988 0.226488 0.378910
O O10 0.000000 0.000000 0.500000
O O11 0.411079 0.984259 0.038215
O O12 0.392037 0.840743 0.244870
O O13 0.358552 0.128502 0.208556
O O14 0.441674 0.049182 0.289015
O O15 0.117684 0.892803 0.883517
O O16 0.157525 0.150427 0.868065
O O17 0.500000 0.000000 0.500000
#
# Coordination Sequence:
#
# PCOD9457552 Si02
#       8
#     8   8   8   8   8   8   8   8
#     4  11  24  44  65  91 137 181 221 281 343 404
#     4  11  24  43  66  90 135 180 219 280 345 406
#     4  10  23  45  67  95 131 183 223 288 350 416
#     4  11  26  43  71 103 138 187 229 292 346 425
#     4  11  25  42  64 100 132 173 225 284 334 415
#     4  11  26  41  64 103 132 175 237 276 349 409
#     4  11  23  47  71  98 140 183 234 287 349 415
#     4  10  24  44  64  93 141 172 227 289 358 403
#
# _framework density 24.439781
#
# number of rings (size 3 to 8) (size 9 to 14) (size 15 to 20)
#    0.000    1.250    3.750    0.375    7.000    3.000 
#    2.250    0.000    0.000    0.000    0.000    0.000 
#    0.000    0.000    0.000    0.000    0.000    0.000 
#
# Total GULP energy -357161.868769 kJ/mol
# GULP energy per Si atom -5580.654200 kJ/mol
# Density = 2.438416 g / cm^3
# Si number density = 24.439781 Si / 1000 Ang^3
#
#
#
# Elastic Constant Matrix: (Units=GPa)
#
#
# Indices 1 2 3 4 5 6 
#
# 1 97.5713 11.8711 11.0907 0.0000 0.0000 0.0000
# 2 11.8711 70.9431 16.8724 0.0000 0.0000 0.0000
# 3 11.0907 16.8724 33.9430 0.0000 0.0000 0.0000
# 4 0.0000 0.0000 0.0000 33.4479 0.0000 0.0000
# 5 0.0000 0.0000 0.0000 0.0000 33.7027 0.0000
# 6 0.0000 0.0000 0.0000 0.0000 0.0000 37.4064
#
#
#
# Elastic Compliance Matrix: (Units=1/GPa)
#
#
# Indices 1 2 3 4 5 6 
#
# 1 0.010718 -0.001089 -0.002961 0.000000 0.000000 0.000000
# 2 -0.001089 0.016096 -0.007645 0.000000 0.000000 0.000000
# 3 -0.002961 -0.007645 0.034229 0.000000 0.000000 0.000000
# 4 0.000000 0.000000 0.000000 0.029897 0.000000 0.000000
# 5 0.000000 0.000000 0.000000 0.000000 0.029671 0.000000
# 6 0.000000 0.000000 0.000000 0.000000 0.000000 0.026733
#
#
# Mechanical properties :
#
#
# Convention : Reuss Voigt Hill
#
# Bulk Modulus (GPa) = 26.55844 31.34731 28.95288
# Shear Modulus (GPa) = 27.27975 31.75297 29.51636
#
# Velocity S-wave (km/s) = 3.34459 3.60840 3.47899
# Velocity P-wave (km/s) = 5.07991 5.49681 5.29247
#
# Compressibility (1/GPa) = 0.03765281
#
# Stress axis : x y z
#
# Youngs Moduli (GPa) = 93.30121 62.12586 29.21518
#
# Poissons Ratio (x) = 0.06768 0.08649
# Poissons Ratio (y) = 0.10164 0.22336
# Poissons Ratio (z) = 0.27622 0.47497
#
# Static dielectric constant tensor:
#      x y z
#    x 1.996420 0.000000 0.000000 
#    y 0.000000 1.927400 0.000000 
#    z 0.000000 0.000000 2.007850 
# 
# From -- ./inp_files/13389.got.cif
#   From: 2010.05.17/outbox.cif.g08.bks.cpg/sg60_7_cif.got.tgz:13389.got - 2010.06.03 14:59:27.
