data_PCOD9457138
_publ_section_title
;
Structure prediction by ZEFSAII (Michael W. Deem and Ramdas Pophale) SiO2 
 PCOD9457138
Probable space group: P B C N
;
_chemical_formula_sum "Si O2"
_cell_formula_units_Z 32
_cell_length_a 12.037116
_cell_length_b 5.801691
_cell_length_c 16.594981
_cell_angle_alpha 90.000000
_cell_angle_beta 90.000000
_cell_angle_gamma 90.000000
_cell_volume 1158.920913
_symmetry_space_group_name_H-M "P B C N"
_symmetry_group_IT_number 60
_symmetry_cell_setting 'orthorhombic'
loop_
_space_group_symop_operation_xyz
x,y,z
1/2-x,1/2-y,1/2+z
1/2+x,1/2-y,-z
-x,y,1/2-z
-x,-y,-z
1/2+x,1/2+y,1/2-z
1/2-x,1/2+y,z
x,-y,1/2+z
loop_
_atom_site_type_symbol
_atom_site_label
_atom_site_fract_x
_atom_site_fract_y
_atom_site_fract_z
Si Si1 0.072489 0.841841 0.941969
Si Si2 0.695095 0.282101 0.401530
Si Si3 0.756693 0.069403 0.195748
Si Si4 0.011455 0.546610 0.342965
O O1 0.136734 0.928868 0.862261
O O2 0.168499 0.761838 0.002840
O O3 0.924628 0.251194 0.857261
O O4 0.000000 0.000000 0.000000
O O5 0.739465 0.541180 0.385498
O O6 0.745866 0.819935 0.238421
O O7 0.011773 0.350819 0.091682
O O8 0.642407 0.084412 0.145156
O O9 0.000000 0.473472 0.250000
#
# Coordination Sequence:
#
# PCOD9457138 Si02
#       4
#     8   8   8   8
#     4  11  23  47  80 113 148 198 260 323 390 470
#     4  12  26  46  73 109 147 194 256 319 377 455
#     4  10  22  43  72 103 140 188 242 302 375 450
#     4  11  26  46  71 107 152 202 254 316 394 471
#
# _framework density 27.611892000000001
#
# number of rings (size 3 to 8) (size 9 to 14) (size 15 to 20)
#    0.000    1.000    0.000    6.750    0.000    8.000 
#    0.000   15.000    0.000    0.000    0.000    0.000 
#    0.000    0.000    0.000    0.000    0.000    0.000 
#
# Total GULP energy -178921.255148 kJ/mol
# GULP energy per Si atom -5591.289223 kJ/mol
# Density = 2.754905 g / cm^3
# Si number density = 27.611892 Si / 1000 Ang^3
#
#
#
# Elastic Constant Matrix: (Units=GPa)
#
#
# Indices 1 2 3 4 5 6 
#
# 1 131.7706 56.4360 0.8597 0.0000 0.0000 0.0000
# 2 56.4360 260.1789 68.3035 0.0000 0.0000 0.0000
# 3 0.8597 68.3035 95.8613 0.0000 0.0000 0.0000
# 4 0.0000 0.0000 0.0000 52.1669 0.0000 0.0000
# 5 0.0000 0.0000 0.0000 0.0000 32.3702 0.0000
# 6 0.0000 0.0000 0.0000 0.0000 0.0000 65.3564
#
#
#
# Elastic Compliance Matrix: (Units=1/GPa)
#
#
# Indices 1 2 3 4 5 6 
#
# 1 0.008545 -0.002255 0.001530 0.000000 0.000000 0.000000
# 2 -0.002255 0.005323 -0.003773 0.000000 0.000000 0.000000
# 3 0.001530 -0.003773 0.013106 0.000000 0.000000 0.000000
# 4 0.000000 0.000000 0.000000 0.019169 0.000000 0.000000
# 5 0.000000 0.000000 0.000000 0.000000 0.030893 0.000000
# 6 0.000000 0.000000 0.000000 0.000000 0.000000 0.015301
#
#
# Mechanical properties :
#
#
# Convention : Reuss Voigt Hill
#
# Bulk Modulus (GPa) = 55.62070 82.11213 68.86641
# Shear Modulus (GPa) = 46.58759 54.12615 50.35687
#
# Velocity S-wave (km/s) = 4.11205 4.43227 4.27516
# Velocity P-wave (km/s) = 6.53703 7.48304 7.02597
#
# Compressibility (1/GPa) = 0.01797892
#
# Stress axis : x y z
#
# Youngs Moduli (GPa) = 117.02956 187.86047 76.30038
#
# Poissons Ratio (x) = 0.42367 -0.11676
# Poissons Ratio (y) = 0.26393 0.28785
# Poissons Ratio (z) = -0.17909 0.70873
#
# Static dielectric constant tensor:
#      x y z
#    x 2.138000 0.000000 0.000000 
#    y 0.000000 2.308060 0.000000 
#    z 0.000000 0.000000 2.111290 
# 
# From -- ./inp_files/20356.got.cif
#   From: 2010.05.17/outbox.cif.g08.bks.cpg/sg60_11_cif.got.tgz:20356.got - 2010.06.03 14:59:27.
