data_PCOD9457190
_publ_section_title
;
Structure prediction by ZEFSAII (Michael W. Deem and Ramdas Pophale) SiO2 
 PCOD9457190
Probable space group: P B C N
;
_chemical_formula_sum "Si O2"
_cell_formula_units_Z 36
_cell_length_a 6.404929
_cell_length_b 11.737889
_cell_length_c 20.397386
_cell_angle_alpha 90.000000
_cell_angle_beta 90.000000
_cell_angle_gamma 90.000000
_cell_volume 1533.482530
_symmetry_space_group_name_H-M "P B C N"
_symmetry_group_IT_number 60
_symmetry_cell_setting 'orthorhombic'
loop_
_space_group_symop_operation_xyz
x,y,z
1/2-x,1/2-y,1/2+z
1/2+x,1/2-y,-z
-x,y,1/2-z
-x,-y,-z
1/2+x,1/2+y,1/2-z
1/2-x,1/2+y,z
x,-y,1/2+z
loop_
_atom_site_type_symbol
_atom_site_label
_atom_site_fract_x
_atom_site_fract_y
_atom_site_fract_z
Si Si1 0.794322 0.523037 0.361779
Si Si2 0.000000 0.949907 0.250000
Si Si3 0.877371 0.641878 0.683154
Si Si4 0.818775 0.594555 0.990370
Si Si5 0.974603 0.807388 0.928922
O O1 0.654917 0.519177 0.296629
O O2 0.732599 0.429997 0.417225
O O3 0.734802 0.638556 0.398429
O O4 0.022858 0.479116 0.340986
O O5 0.140113 0.874351 0.297653
O O6 0.915589 0.734315 0.627693
O O7 0.000000 0.672353 0.750000
O O8 0.917986 0.719973 0.986622
O O9 0.634487 0.598685 0.043087
O O10 0.000000 0.500000 0.000000
#
# Coordination Sequence:
#
# PCOD9457190 Si02
#       5
#     8   4   8   8   8
#     4  10  23  42  69  98 145 182 237 293 361 427
#     4  10  22  44  72  98 146 184 228 312 356 424
#     4   9  22  45  66 104 142 180 240 295 354 431
#     4  11  25  44  67 103 143 186 242 303 358 434
#     4  11  24  41  72 100 141 191 244 287 374 433
#
# _framework density 23.475975999999999
#
# number of rings (size 3 to 8) (size 9 to 14) (size 15 to 20)
#    0.000    1.778    0.000    2.000   10.889    0.000 
#    4.000    0.000    9.778    0.000    0.000    0.000 
#    0.000    0.000    0.000    0.000    0.000    0.000 
#
# Total GULP energy -201095.969100 kJ/mol
# GULP energy per Si atom -5585.999142 kJ/mol
# Density = 2.342254 g / cm^3
# Si number density = 23.475976 Si / 1000 Ang^3
#
#
#
# Elastic Constant Matrix: (Units=GPa)
#
#
# Indices 1 2 3 4 5 6 
#
# 1 92.2858 39.0509 35.5015 0.0000 0.0000 0.0000
# 2 39.0509 72.4953 14.0099 0.0000 0.0000 0.0000
# 3 35.5015 14.0099 95.3177 0.0000 0.0000 0.0000
# 4 0.0000 0.0000 0.0000 32.2642 0.0000 0.0000
# 5 0.0000 0.0000 0.0000 0.0000 39.6324 0.0000
# 6 0.0000 0.0000 0.0000 0.0000 0.0000 24.7310
#
#
#
# Elastic Compliance Matrix: (Units=1/GPa)
#
#
# Indices 1 2 3 4 5 6 
#
# 1 0.015921 -0.007647 -0.004806 0.000000 0.000000 0.000000
# 2 -0.007647 0.017870 0.000222 0.000000 0.000000 0.000000
# 3 -0.004806 0.000222 0.012249 0.000000 0.000000 0.000000
# 4 0.000000 0.000000 0.000000 0.030994 0.000000 0.000000
# 5 0.000000 0.000000 0.000000 0.000000 0.025232 0.000000
# 6 0.000000 0.000000 0.000000 0.000000 0.000000 0.040435
#
#
# Mechanical properties :
#
#
# Convention : Reuss Voigt Hill
#
# Bulk Modulus (GPa) = 46.34554 48.58037 47.46296
# Shear Modulus (GPa) = 28.67706 30.76129 29.71918
#
# Velocity S-wave (km/s) = 3.49886 3.62378 3.56186
# Velocity P-wave (km/s) = 6.00893 6.18446 6.09733
#
# Compressibility (1/GPa) = 0.02157705
#
# Stress axis : x y z
#
# Youngs Moduli (GPa) = 62.81205 55.95827 81.64229
#
# Poissons Ratio (x) = 0.42792 0.39235
# Poissons Ratio (y) = 0.48033 -0.01809
# Poissons Ratio (z) = 0.30185 -0.01240
#
# Static dielectric constant tensor:
#      x y z
#    x 1.934670 0.000000 0.000000 
#    y 0.000000 1.937810 0.000000 
#    z 0.000000 0.000000 1.894860 
# 
# From -- ./inp_files/23482.got.cif
#   From: 2010.05.17/outbox.cif.g08.bks.cpg/sg60_12_cif.got.tgz:23482.got - 2010.06.03 14:59:27.
