data_PCOD9457121
_publ_section_title
;
Structure prediction by ZEFSAII (Michael W. Deem and Ramdas Pophale) SiO2 
 PCOD9457121
Probable space group: P B C N
;
_chemical_formula_sum "Si O2"
_cell_formula_units_Z 32
_cell_length_a 6.775661
_cell_length_b 9.624275
_cell_length_c 17.718695
_cell_angle_alpha 90.000000
_cell_angle_beta 90.000000
_cell_angle_gamma 90.000000
_cell_volume 1155.450715
_symmetry_space_group_name_H-M "P B C N"
_symmetry_group_IT_number 60
_symmetry_cell_setting 'orthorhombic'
loop_
_space_group_symop_operation_xyz
x,y,z
1/2-x,1/2-y,1/2+z
1/2+x,1/2-y,-z
-x,y,1/2-z
-x,-y,-z
1/2+x,1/2+y,1/2-z
1/2-x,1/2+y,z
x,-y,1/2+z
loop_
_atom_site_type_symbol
_atom_site_label
_atom_site_fract_x
_atom_site_fract_y
_atom_site_fract_z
Si Si1 0.838710 0.799680 0.368726
Si Si2 0.798475 0.606559 0.628589
Si Si3 0.780420 0.044134 0.467753
Si Si4 0.304321 0.644530 0.278757
O O1 0.762738 0.694065 0.432780
O O2 0.792290 0.734593 0.287343
O O3 0.072183 0.833545 0.372015
O O4 0.741950 0.943217 0.396779
O O5 0.838916 0.548545 0.545867
O O6 0.895044 0.745924 0.660556
O O7 0.822023 0.475901 0.683670
O O8 0.000000 0.000000 0.500000
O O9 0.500000 0.567108 0.250000
#
# Coordination Sequence:
#
# PCOD9457121 Si02
#       4
#     8   8   8   8
#     4  11  23  44  72 100 137 183 230 285 349 415
#     4  11  25  45  67  97 136 179 228 283 347 415
#     4  10  22  43  68 100 136 179 232 291 346 413
#     4  12  24  42  66  99 137 179 227 285 342 411
#
# _framework density 27.694821000000001
#
# number of rings (size 3 to 8) (size 9 to 14) (size 15 to 20)
#    0.000    1.000    0.000    8.250    0.000    6.000 
#    0.000    7.500    0.000    0.000    0.000    0.000 
#    0.000    0.000    0.000    0.000    0.000    0.000 
#
# Total GULP energy -179196.411325 kJ/mol
# GULP energy per Si atom -5599.887854 kJ/mol
# Density = 2.763179 g / cm^3
# Si number density = 27.694821 Si / 1000 Ang^3
#
#
#
# Elastic Constant Matrix: (Units=GPa)
#
#
# Indices 1 2 3 4 5 6 
#
# 1 108.1230 13.2827 46.8334 0.0000 0.0000 0.0000
# 2 13.2827 132.8506 24.9788 0.0000 0.0000 0.0000
# 3 46.8334 24.9788 153.2984 0.0000 0.0000 0.0000
# 4 0.0000 0.0000 0.0000 75.6135 0.0000 0.0000
# 5 0.0000 0.0000 0.0000 0.0000 52.1391 0.0000
# 6 0.0000 0.0000 0.0000 0.0000 0.0000 36.1092
#
#
#
# Elastic Compliance Matrix: (Units=1/GPa)
#
#
# Indices 1 2 3 4 5 6 
#
# 1 0.010688 -0.000469 -0.003189 0.000000 0.000000 0.000000
# 2 -0.000469 0.007786 -0.001125 0.000000 0.000000 0.000000
# 3 -0.003189 -0.001125 0.007681 0.000000 0.000000 0.000000
# 4 0.000000 0.000000 0.000000 0.013225 0.000000 0.000000
# 5 0.000000 0.000000 0.000000 0.000000 0.019179 0.000000
# 6 0.000000 0.000000 0.000000 0.000000 0.000000 0.027694
#
#
# Mechanical properties :
#
#
# Convention : Reuss Voigt Hill
#
# Bulk Modulus (GPa) = 60.28476 62.71798 61.50137
# Shear Modulus (GPa) = 49.33512 53.38419 51.35965
#
# Velocity S-wave (km/s) = 4.22522 4.39519 4.31105
# Velocity P-wave (km/s) = 6.75412 6.96076 6.85822
#
# Compressibility (1/GPa) = 0.01658794
#
# Stress axis : x y z
#
# Youngs Moduli (GPa) = 93.56711 128.44004 130.19578
#
# Poissons Ratio (x) = 0.06024 0.41515
# Poissons Ratio (y) = 0.04389 0.14651
# Poissons Ratio (z) = 0.29835 0.14454
#
# Static dielectric constant tensor:
#      x y z
#    x 2.602330 0.000000 0.000000 
#    y 0.000000 2.066410 0.000000 
#    z 0.000000 0.000000 2.157450 
# 
# From -- ./inp_files/21882.got.cif
#   From: 2010.05.17/outbox.cif.g08.bks.cpg/sg60_11_cif.got.tgz:21882.got - 2010.06.03 14:59:27.
