data_PCOD9457709
_publ_section_title
;
Structure prediction by ZEFSAII (Michael W. Deem and Ramdas Pophale) SiO2 
 PCOD9457709
Probable space group: P B C N
;
_chemical_formula_sum "Si O2"
_cell_formula_units_Z 44
_cell_length_a 8.642967
_cell_length_b 29.447295
_cell_length_c 8.386162
_cell_angle_alpha 90.000000
_cell_angle_beta 90.000000
_cell_angle_gamma 90.000000
_cell_volume 2134.378854
_symmetry_space_group_name_H-M "P B C N"
_symmetry_group_IT_number 60
_symmetry_cell_setting 'orthorhombic'
loop_
_space_group_symop_operation_xyz
x,y,z
1/2-x,1/2-y,1/2+z
1/2+x,1/2-y,-z
-x,y,1/2-z
-x,-y,-z
1/2+x,1/2+y,1/2-z
1/2-x,1/2+y,z
x,-y,1/2+z
loop_
_atom_site_type_symbol
_atom_site_label
_atom_site_fract_x
_atom_site_fract_y
_atom_site_fract_z
Si Si1 0.315171 0.936595 0.770034
Si Si2 0.908691 0.776433 0.893998
Si Si3 0.000000 0.084359 0.750000
Si Si4 0.871328 0.859802 0.545913
Si Si5 0.137867 0.706262 0.339500
Si Si6 0.826518 0.982433 0.042152
O O1 0.500000 0.927664 0.750000
O O2 0.202091 0.895472 0.827467
O O3 0.247798 0.956030 0.604946
O O4 0.280929 0.976583 0.898447
O O5 0.744226 0.781455 0.811260
O O6 0.000000 0.751563 0.750000
O O7 0.987330 0.825841 0.912704
O O8 0.911632 0.750169 0.059742
O O9 0.072785 0.113716 0.608522
O O10 0.137243 0.052863 0.817079
O O11 0.730307 0.824174 0.534570
O O12 0.000000 0.681280 0.250000
O O13 0.000000 0.000000 0.000000
#
# Coordination Sequence:
#
# PCOD9457709 Si02
#       6
#     8   8   4   8   8   8
#     4  12  25  45  72 107 149 183 240 303 356 422
#     4  10  24  42  70  97 133 184 234 284 364 433
#     4  12  26  42  72 100 134 190 246 280 332 442
#     4  11  26  44  67 102 134 189 237 285 352 430
#     4  11  23  43  65  98 135 173 228 296 362 415
#     4  12  23  43  73 104 143 193 235 281 361 430
#
# _framework density 20.614896999999999
#
# number of rings (size 3 to 8) (size 9 to 14) (size 15 to 20)
#    0.000    0.727    3.636    3.273   11.455    0.000 
#    0.000    0.000    0.000    0.000    0.000    0.000 
#    0.000    0.000    0.000    0.000    0.000    0.000 
#
# Total GULP energy -245388.869822 kJ/mol
# GULP energy per Si atom -5577.019769 kJ/mol
# Density = 2.056798 g / cm^3
# Si number density = 20.614897 Si / 1000 Ang^3
#
#
#
# Elastic Constant Matrix: (Units=GPa)
#
#
# Indices 1 2 3 4 5 6 
#
# 1 113.1898 45.1577 47.3779 0.0000 0.0000 0.0000
# 2 45.1577 130.1913 64.7025 0.0000 0.0000 0.0000
# 3 47.3779 64.7025 90.7458 0.0000 0.0000 0.0000
# 4 0.0000 0.0000 0.0000 25.5473 0.0000 0.0000
# 5 0.0000 0.0000 0.0000 0.0000 22.5269 0.0000
# 6 0.0000 0.0000 0.0000 0.0000 0.0000 35.0455
#
#
#
# Elastic Compliance Matrix: (Units=1/GPa)
#
#
# Indices 1 2 3 4 5 6 
#
# 1 0.011506 -0.001557 -0.004897 0.000000 0.000000 0.000000
# 2 -0.001557 0.012107 -0.007820 0.000000 0.000000 0.000000
# 3 -0.004897 -0.007820 0.019152 0.000000 0.000000 0.000000
# 4 0.000000 0.000000 0.000000 0.039143 0.000000 0.000000
# 5 0.000000 0.000000 0.000000 0.000000 0.044391 0.000000
# 6 0.000000 0.000000 0.000000 0.000000 0.000000 0.028534
#
#
# Mechanical properties :
#
#
# Convention : Reuss Voigt Hill
#
# Bulk Modulus (GPa) = 70.33515 72.06701 71.20108
# Shear Modulus (GPa) = 26.57883 28.41653 27.49768
#
# Velocity S-wave (km/s) = 3.59458 3.71677 3.65619
# Velocity P-wave (km/s) = 7.17082 7.31121 7.24136
#
# Compressibility (1/GPa) = 0.01421764
#
# Stress axis : x y z
#
# Youngs Moduli (GPa) = 86.91423 82.59463 52.21456
#
# Poissons Ratio (x) = 0.12862 0.25568
# Poissons Ratio (y) = 0.13535 0.40830
# Poissons Ratio (z) = 0.42559 0.64586
#
# Static dielectric constant tensor:
#      x y z
#    x 2.293030 0.000000 0.000000 
#    y 0.000000 1.777120 0.000000 
#    z 0.000000 0.000000 1.774160 
# 
# From -- ./inp_files/4116.got.cif
#   From: 2010.05.17/outbox.cif.g08.bks.cpg/sg60_3_cif.got.tgz:4116.got - 2010.06.03 14:59:27.
