data_PCOD9457245
_publ_section_title
;
Structure prediction by ZEFSAII (Michael W. Deem and Ramdas Pophale) SiO2 
 PCOD9457245
Probable space group: P B C N
;
_chemical_formula_sum "Si O2"
_cell_formula_units_Z 60
_cell_length_a 10.190750
_cell_length_b 8.999629
_cell_length_c 27.150479
_cell_angle_alpha 90.000000
_cell_angle_beta 90.000000
_cell_angle_gamma 90.000000
_cell_volume 2490.051045
_symmetry_space_group_name_H-M "P B C N"
_symmetry_group_IT_number 60
_symmetry_cell_setting 'orthorhombic'
loop_
_space_group_symop_operation_xyz
x,y,z
1/2-x,1/2-y,1/2+z
1/2+x,1/2-y,-z
-x,y,1/2-z
-x,-y,-z
1/2+x,1/2+y,1/2-z
1/2-x,1/2+y,z
x,-y,1/2+z
loop_
_atom_site_type_symbol
_atom_site_label
_atom_site_fract_x
_atom_site_fract_y
_atom_site_fract_z
Si Si1 0.349082 0.392795 0.618786
Si Si2 0.869651 0.020807 0.131829
Si Si3 0.347682 0.915104 0.176385
Si Si4 0.735504 0.740873 0.967889
Si Si5 0.168997 0.673606 0.920202
Si Si6 0.357694 0.612130 0.764131
Si Si7 0.571739 0.012652 0.447565
Si Si8 0.500000 0.906636 0.750000
O O1 0.473511 0.496290 0.628097
O O2 0.217415 0.478787 0.635298
O O3 0.360267 0.248231 0.653880
O O4 0.347910 0.332218 0.562681
O O5 0.843077 0.191617 0.118116
O O6 0.793098 0.926076 0.091991
O O7 0.822077 0.961067 0.184362
O O8 0.244038 0.912781 0.221021
O O9 0.469920 0.992041 0.202870
O O10 0.793300 0.578617 0.958587
O O11 0.608165 0.813292 0.940811
O O12 0.699599 0.764144 0.024860
O O13 0.037507 0.571345 0.915117
O O14 0.500000 0.545401 0.750000
O O15 0.385675 0.789473 0.764674
O O16 0.500000 0.000000 0.500000
#
# Coordination Sequence:
#
# PCOD9457245 Si02
#       8
#     8   8   8   8   8   8   8   4
#     4  12  25  47  76 113 142 199 255 304 381 463
#     4  12  27  48  75 108 150 202 257 312 385 465
#     4  12  25  47  78 110 149 189 250 307 381 467
#     4  11  23  48  76 105 155 203 248 320 377 449
#     4  11  26  49  69 114 151 201 259 317 382 457
#     4  10  23  48  72 107 148 183 247 308 383 452
#     4  10  22  46  71 104 148 198 257 307 376 448
#     4  10  24  48  78 106 144 194 236 312 384 444
#
# _framework density 24.095890000000001
#
# number of rings (size 3 to 8) (size 9 to 14) (size 15 to 20)
#    0.400    0.533    4.000    2.400    1.867    2.667 
#   14.400    0.000    0.000    0.000    0.000    0.000 
#    0.000    0.000    0.000    0.000    0.000    0.000 
#
# Total GULP energy -335015.970244 kJ/mol
# GULP energy per Si atom -5583.599504 kJ/mol
# Density = 2.404105 g / cm^3
# Si number density = 24.095890 Si / 1000 Ang^3
#
#
#
# Elastic Constant Matrix: (Units=GPa)
#
#
# Indices 1 2 3 4 5 6 
#
# 1 34.1840 19.3943 30.0144 0.0000 0.0000 0.0000
# 2 19.3943 103.7097 49.1881 0.0000 0.0000 0.0000
# 3 30.0144 49.1881 87.5932 0.0000 0.0000 0.0000
# 4 0.0000 0.0000 0.0000 38.9041 0.0000 0.0000
# 5 0.0000 0.0000 0.0000 0.0000 34.9345 0.0000
# 6 0.0000 0.0000 0.0000 0.0000 0.0000 46.1580
#
#
#
# Elastic Compliance Matrix: (Units=1/GPa)
#
#
# Indices 1 2 3 4 5 6 
#
# 1 0.041991 -0.001402 -0.013601 0.000000 0.000000 0.000000
# 2 -0.001402 0.013189 -0.006926 0.000000 0.000000 0.000000
# 3 -0.013601 -0.006926 0.019966 0.000000 0.000000 0.000000
# 4 0.000000 0.000000 0.000000 0.025704 0.000000 0.000000
# 5 0.000000 0.000000 0.000000 0.000000 0.028625 0.000000
# 6 0.000000 0.000000 0.000000 0.000000 0.000000 0.021665
#
#
# Mechanical properties :
#
#
# Convention : Reuss Voigt Hill
#
# Bulk Modulus (GPa) = 31.96080 46.96447 39.46264
# Shear Modulus (GPa) = 24.33934 32.45867 28.39900
#
# Velocity S-wave (km/s) = 3.18166 3.67422 3.43677
# Velocity P-wave (km/s) = 5.17591 6.12640 5.67111
#
# Compressibility (1/GPa) = 0.03128833
#
# Stress axis : x y z
#
# Youngs Moduli (GPa) = 23.81467 75.81822 50.08394
#
# Poissons Ratio (x) = 0.10626 0.68121
# Poissons Ratio (y) = 0.03338 0.34690
# Poissons Ratio (z) = 0.32391 0.52514
#
# Static dielectric constant tensor:
#      x y z
#    x 1.998300 0.000000 0.000000 
#    y 0.000000 2.239780 0.000000 
#    z 0.000000 0.000000 2.128380 
# 
# From -- ./inp_files/25344.got.cif
#   From: 2010.05.17/outbox.cif.g08.bks.cpg/sg60_13_cif.got.tgz:25344.got - 2010.06.03 14:59:27.
