data_PCOD9457843
_publ_section_title
;
Structure prediction by ZEFSAII (Michael W. Deem and Ramdas Pophale) SiO2 
 PCOD9457843
Probable space group: P B C N
;
_chemical_formula_sum "Si O2"
_cell_formula_units_Z 44
_cell_length_a 24.918398
_cell_length_b 5.955162
_cell_length_c 11.987452
_cell_angle_alpha 90.000000
_cell_angle_beta 90.000000
_cell_angle_gamma 90.000000
_cell_volume 1778.855126
_symmetry_space_group_name_H-M "P B C N"
_symmetry_group_IT_number 60
_symmetry_cell_setting 'orthorhombic'
loop_
_space_group_symop_operation_xyz
x,y,z
1/2-x,1/2-y,1/2+z
1/2+x,1/2-y,-z
-x,y,1/2-z
-x,-y,-z
1/2+x,1/2+y,1/2-z
1/2-x,1/2+y,z
x,-y,1/2+z
loop_
_atom_site_type_symbol
_atom_site_label
_atom_site_fract_x
_atom_site_fract_y
_atom_site_fract_z
Si Si1 0.866336 0.834729 0.522043
Si Si2 0.457640 0.143896 0.115480
Si Si3 0.433875 0.625751 0.837445
Si Si4 0.000000 0.259822 0.250000
Si Si5 0.263686 0.137112 0.896309
Si Si6 0.726741 0.387734 0.355875
O O1 0.916346 0.686321 0.482127
O O2 0.886670 0.063901 0.579370
O O3 0.827142 0.693331 0.602507
O O4 0.831864 0.894631 0.411984
O O5 0.510285 0.300039 0.104969
O O6 0.428213 0.206556 0.233489
O O7 0.482333 0.904222 0.143411
O O8 0.449344 0.390712 0.780334
O O9 0.242630 0.381219 0.941702
O O10 0.233089 0.116251 0.778414
O O11 0.753144 0.631989 0.382802
#
# Coordination Sequence:
#
# PCOD9457843 Si02
#       6
#     8   8   8   4   8   8
#     4  12  23  39  70  99 125 192 228 282 370 414
#     4   9  21  42  63  96 135 172 227 287 345 426
#     4   9  21  42  63  96 135 172 227 287 345 426
#     4   8  18  42  60  86 144 170 206 302 336 406
#     4  10  24  47  67  96 140 175 230 295 337 411
#     4  10  24  47  67  96 140 175 230 295 337 411
#
# _framework density 24.735009999999999
#
# number of rings (size 3 to 8) (size 9 to 14) (size 15 to 20)
#    0.000    2.545    0.000    1.636    5.091    3.636 
#   19.636    0.000    0.000    0.000    0.000    0.000 
#    0.000    0.000    0.000    0.000    0.000    0.000 
#
# Total GULP energy -245358.027715 kJ/mol
# GULP energy per Si atom -5576.318812 kJ/mol
# Density = 2.467871 g / cm^3
# Si number density = 24.735010 Si / 1000 Ang^3
#
#
#
# Elastic Constant Matrix: (Units=GPa)
#
#
# Indices 1 2 3 4 5 6 
#
# 1 97.5084 11.4119 32.5852 0.0000 0.0000 0.0000
# 2 11.4119 131.1985 37.0763 0.0000 0.0000 0.0000
# 3 32.5852 37.0763 76.1329 0.0000 0.0000 0.0000
# 4 0.0000 0.0000 0.0000 46.0138 0.0000 0.0000
# 5 0.0000 0.0000 0.0000 0.0000 55.9413 0.0000
# 6 0.0000 0.0000 0.0000 0.0000 0.0000 9.9628
#
#
#
# Elastic Compliance Matrix: (Units=1/GPa)
#
#
# Indices 1 2 3 4 5 6 
#
# 1 0.011992 0.000472 -0.005363 0.000000 0.000000 0.000000
# 2 0.000472 0.008857 -0.004516 0.000000 0.000000 0.000000
# 3 -0.005363 -0.004516 0.017629 0.000000 0.000000 0.000000
# 4 0.000000 0.000000 0.000000 0.021733 0.000000 0.000000
# 5 0.000000 0.000000 0.000000 0.000000 0.017876 0.000000
# 6 0.000000 0.000000 0.000000 0.000000 0.000000 0.100373
#
#
# Mechanical properties :
#
#
# Convention : Reuss Voigt Hill
#
# Bulk Modulus (GPa) = 50.84719 51.88740 51.36729
# Shear Modulus (GPa) = 24.53053 37.30136 30.91594
#
# Velocity S-wave (km/s) = 3.15260 3.88756 3.53921
# Velocity P-wave (km/s) = 5.81835 6.41667 6.12482
#
# Compressibility (1/GPa) = 0.01966677
#
# Stress axis : x y z
#
# Youngs Moduli (GPa) = 83.38622 112.90490 56.72384
#
# Poissons Ratio (x) = -0.05334 0.30420
# Poissons Ratio (y) = -0.03939 0.25614
# Poissons Ratio (z) = 0.44719 0.50982
#
# Static dielectric constant tensor:
#      x y z
#    x 1.971420 0.000000 0.000000 
#    y 0.000000 1.989540 0.000000 
#    z 0.000000 0.000000 2.189830 
# 
# From -- ./inp_files/18017.got.cif
#   From: 2010.05.17/outbox.cif.g08.bks.cpg/sg60_10_cif.got.tgz:18017.got - 2010.06.03 14:59:27.
