data_PCOD9457277
_publ_section_title
;
Structure prediction by ZEFSAII (Michael W. Deem and Ramdas Pophale) SiO2 
 PCOD9457277
Probable space group: P B C N
;
_chemical_formula_sum "Si O2"
_cell_formula_units_Z 56
_cell_length_a 12.403342
_cell_length_b 7.728409
_cell_length_c 23.642624
_cell_angle_alpha 90.000000
_cell_angle_beta 90.000000
_cell_angle_gamma 90.000000
_cell_volume 2266.337014
_symmetry_space_group_name_H-M "P B C N"
_symmetry_group_IT_number 60
_symmetry_cell_setting 'orthorhombic'
loop_
_space_group_symop_operation_xyz
x,y,z
1/2-x,1/2-y,1/2+z
1/2+x,1/2-y,-z
-x,y,1/2-z
-x,-y,-z
1/2+x,1/2+y,1/2-z
1/2-x,1/2+y,z
x,-y,1/2+z
loop_
_atom_site_type_symbol
_atom_site_label
_atom_site_fract_x
_atom_site_fract_y
_atom_site_fract_z
Si Si1 0.482834 0.501827 0.688299
Si Si2 0.591768 0.041703 0.838715
Si Si3 0.787095 0.501622 0.566147
Si Si4 0.122314 0.355522 0.818276
Si Si5 0.918848 0.634321 0.970623
Si Si6 0.270012 0.648360 0.208324
Si Si7 0.575663 0.643049 0.075336
O O1 0.500000 0.422415 0.750000
O O2 0.353048 0.504749 0.689657
O O3 0.524191 0.386633 0.636779
O O4 0.344231 0.185799 0.696716
O O5 0.473234 0.998018 0.815344
O O6 0.666519 0.872992 0.831610
O O7 0.592642 0.084924 0.905045
O O8 0.823981 0.392905 0.621236
O O9 0.815487 0.397408 0.508798
O O10 0.851241 0.682383 0.571302
O O11 0.658453 0.512416 0.566879
O O12 0.216186 0.361334 0.770796
O O13 0.055342 0.175959 0.813456
O O14 0.978259 0.818959 0.967613
O O15 0.000000 0.500000 0.000000
#
# Coordination Sequence:
#
# PCOD9457277 Si02
#       7
#     8   8   8   8   8   8   8
#     4  12  25  46  70 106 149 184 251 301 366 461
#     4  12  24  48  76 105 154 196 250 319 376 454
#     4  11  24  46  76 105 149 197 249 310 384 459
#     4  12  25  49  74 108 150 197 249 310 381 454
#     4  10  22  48  74 104 147 195 251 314 380 450
#     4  12  27  45  71 109 144 198 246 308 387 447
#     4  11  23  47  71 111 145 194 247 309 380 448
#
# _framework density 24.709475000000001
#
# number of rings (size 3 to 8) (size 9 to 14) (size 15 to 20)
#    0.000    0.571    4.286    4.714    0.000    5.714 
#    5.143    5.714    0.000    0.000    0.000    0.000 
#    0.000    0.000    0.000    0.000    0.000    0.000 
#
# Total GULP energy -312943.401303 kJ/mol
# GULP energy per Si atom -5588.275023 kJ/mol
# Density = 2.465323 g / cm^3
# Si number density = 24.709475 Si / 1000 Ang^3
#
#
#
# Elastic Constant Matrix: (Units=GPa)
#
#
# Indices 1 2 3 4 5 6 
#
# 1 111.2541 33.2750 54.4907 0.0000 0.0000 0.0000
# 2 33.2750 112.6179 47.0303 0.0000 0.0000 0.0000
# 3 54.4907 47.0303 149.4567 0.0000 0.0000 0.0000
# 4 0.0000 0.0000 0.0000 31.1786 0.0000 0.0000
# 5 0.0000 0.0000 0.0000 0.0000 58.3745 0.0000
# 6 0.0000 0.0000 0.0000 0.0000 0.0000 45.8601
#
#
#
# Elastic Compliance Matrix: (Units=1/GPa)
#
#
# Indices 1 2 3 4 5 6 
#
# 1 0.011270 -0.001858 -0.003524 0.000000 0.000000 0.000000
# 2 -0.001858 0.010529 -0.002636 0.000000 0.000000 0.000000
# 3 -0.003524 -0.002636 0.008805 0.000000 0.000000 0.000000
# 4 0.000000 0.000000 0.000000 0.032073 0.000000 0.000000
# 5 0.000000 0.000000 0.000000 0.000000 0.017131 0.000000
# 6 0.000000 0.000000 0.000000 0.000000 0.000000 0.021805
#
#
# Mechanical properties :
#
#
# Convention : Reuss Voigt Hill
#
# Bulk Modulus (GPa) = 68.64263 71.43563 70.03913
# Shear Modulus (GPa) = 40.81383 42.98482 41.89932
#
# Velocity S-wave (km/s) = 4.06858 4.17539 4.12233
# Velocity P-wave (km/s) = 7.06479 7.22621 7.14596
#
# Compressibility (1/GPa) = 0.01456821
#
# Stress axis : x y z
#
# Youngs Moduli (GPa) = 88.72806 94.97236 113.56820
#
# Poissons Ratio (x) = 0.17648 0.40025
# Poissons Ratio (y) = 0.16488 0.29935
# Poissons Ratio (z) = 0.31271 0.25033
#
# Static dielectric constant tensor:
#      x y z
#    x 2.541680 0.000000 0.000000 
#    y 0.000000 2.171470 0.000000 
#    z 0.000000 0.000000 1.916620 
# 
# From -- ./inp_files/24285.got.cif
#   From: 2010.05.17/outbox.cif.g08.bks.cpg/sg60_13_cif.got.tgz:24285.got - 2010.06.03 14:59:27.
