data_PCOD9457330
_publ_section_title
;
Structure prediction by ZEFSAII (Michael W. Deem and Ramdas Pophale) SiO2 
 PCOD9457330
Probable space group: P B C N
;
_chemical_formula_sum "Si O2"
_cell_formula_units_Z 60
_cell_length_a 17.612614
_cell_length_b 19.171087
_cell_length_c 7.711487
_cell_angle_alpha 90.000000
_cell_angle_beta 90.000000
_cell_angle_gamma 90.000000
_cell_volume 2603.806375
_symmetry_space_group_name_H-M "P B C N"
_symmetry_group_IT_number 60
_symmetry_cell_setting 'orthorhombic'
loop_
_space_group_symop_operation_xyz
x,y,z
1/2-x,1/2-y,1/2+z
1/2+x,1/2-y,-z
-x,y,1/2-z
-x,-y,-z
1/2+x,1/2+y,1/2-z
1/2-x,1/2+y,z
x,-y,1/2+z
loop_
_atom_site_type_symbol
_atom_site_label
_atom_site_fract_x
_atom_site_fract_y
_atom_site_fract_z
Si Si1 0.714040 0.078141 0.538797
Si Si2 0.768641 0.070133 0.162591
Si Si3 0.941824 0.624902 0.377817
Si Si4 0.500000 0.494778 0.750000
Si Si5 0.574055 0.403324 0.464473
Si Si6 0.696600 0.781713 0.245076
Si Si7 0.166028 0.304962 0.875978
Si Si8 0.454993 0.743217 0.425701
O O1 0.767974 0.086068 0.369088
O O2 0.627101 0.080796 0.461630
O O3 0.715708 0.141515 0.674114
O O4 0.740545 0.008104 0.631551
O O5 0.845256 0.088994 0.060790
O O6 0.703450 0.120052 0.088990
O O7 0.904167 0.680714 0.245803
O O8 0.978358 0.678163 0.516694
O O9 0.000000 0.585101 0.250000
O O10 0.516728 0.442997 0.593367
O O11 0.431104 0.548202 0.706221
O O12 0.544819 0.324117 0.448979
O O13 0.773445 0.738819 0.232895
O O14 0.659514 0.773927 0.434011
O O15 0.634079 0.751520 0.116390
O O16 0.500000 0.725385 0.250000
#
# Coordination Sequence:
#
# PCOD9457330 Si02
#       8
#     8   8   8   4   8   8   8   8
#     4  10  23  40  65  93 130 164 225 266 339 390
#     4  11  21  40  63  93 123 170 214 280 319 399
#     4  10  23  43  62  94 129 168 217 276 335 400
#     4  10  24  40  54  84 132 176 216 270 308 408
#     4  11  22  40  59  87 130 173 224 263 328 389
#     4  11  22  40  61  95 125 169 210 280 323 393
#     4  11  22  39  65  92 131 162 220 270 333 387
#     4  11  22  39  64  91 130 171 215 267 331 400
#
# _framework density 23.043189000000002
#
# number of rings (size 3 to 8) (size 9 to 14) (size 15 to 20)
#    0.000    1.333    2.000    4.800    0.933    0.000 
#    0.000    2.667    0.000    8.000    0.000    0.000 
#    0.000    0.000    0.000    0.000    0.000    0.000 
#
# Total GULP energy -334941.251861 kJ/mol
# GULP energy per Si atom -5582.354198 kJ/mol
# Density = 2.299074 g / cm^3
# Si number density = 23.043189 Si / 1000 Ang^3
#
#
#
# Elastic Constant Matrix: (Units=GPa)
#
#
# Indices 1 2 3 4 5 6 
#
# 1 40.3350 7.8718 -2.9819 0.0000 0.0000 0.0000
# 2 7.8718 78.3341 -3.8455 0.0000 0.0000 0.0000
# 3 -2.9819 -3.8455 74.6346 0.0000 0.0000 0.0000
# 4 0.0000 0.0000 0.0000 27.7545 0.0000 0.0000
# 5 0.0000 0.0000 0.0000 0.0000 34.1873 0.0000
# 6 0.0000 0.0000 0.0000 0.0000 0.0000 19.3413
#
#
#
# Elastic Compliance Matrix: (Units=1/GPa)
#
#
# Indices 1 2 3 4 5 6 
#
# 1 0.025346 -0.002504 0.000884 0.000000 0.000000 0.000000
# 2 -0.002504 0.013046 0.000572 0.000000 0.000000 0.000000
# 3 0.000884 0.000572 0.013463 0.000000 0.000000 0.000000
# 4 0.000000 0.000000 0.000000 0.036030 0.000000 0.000000
# 5 0.000000 0.000000 0.000000 0.000000 0.029251 0.000000
# 6 0.000000 0.000000 0.000000 0.000000 0.000000 0.051703
#
#
# Mechanical properties :
#
#
# Convention : Reuss Voigt Hill
#
# Bulk Modulus (GPa) = 20.09667 21.71028 20.90348
# Shear Modulus (GPa) = 26.66366 29.07391 27.86879
#
# Velocity S-wave (km/s) = 3.40533 3.55591 3.48144
# Velocity P-wave (km/s) = 4.91955 5.12849 5.02510
#
# Compressibility (1/GPa) = 0.04975948
#
# Stress axis : x y z
#
# Youngs Moduli (GPa) = 39.45343 76.65471 74.27542
#
# Poissons Ratio (x) = 0.19192 -0.06564
# Poissons Ratio (y) = 0.09878 -0.04249
# Poissons Ratio (z) = -0.03486 -0.04386
#
# Static dielectric constant tensor:
#      x y z
#    x 1.879900 0.000000 0.000000 
#    y 0.000000 1.880530 0.000000 
#    z 0.000000 0.000000 2.021980 
# 
# From -- ./inp_files/6906.got.cif
#   From: 2010.05.17/outbox.cif.g08.bks.cpg/sg60_4_cif.got.tgz:6906.got - 2010.06.03 14:59:27.
