data_PCOD9457004
_publ_section_title
;
Structure prediction by ZEFSAII (Michael W. Deem and Ramdas Pophale) SiO2 
 PCOD9457004
Probable space group: P B C N
;
_chemical_formula_sum "Si O2"
_cell_formula_units_Z 40
_cell_length_a 10.678866
_cell_length_b 17.957790
_cell_length_c 8.996075
_cell_angle_alpha 90.000000
_cell_angle_beta 90.000000
_cell_angle_gamma 90.000000
_cell_volume 1725.166805
_symmetry_space_group_name_H-M "P B C N"
_symmetry_group_IT_number 60
_symmetry_cell_setting 'orthorhombic'
loop_
_space_group_symop_operation_xyz
x,y,z
1/2-x,1/2-y,1/2+z
1/2+x,1/2-y,-z
-x,y,1/2-z
-x,-y,-z
1/2+x,1/2+y,1/2-z
1/2-x,1/2+y,z
x,-y,1/2+z
loop_
_atom_site_type_symbol
_atom_site_label
_atom_site_fract_x
_atom_site_fract_y
_atom_site_fract_z
Si Si1 0.640898 0.960818 0.145949
Si Si2 0.000000 0.182595 0.750000
Si Si3 0.386762 0.902604 0.035134
Si Si4 0.159420 0.118917 0.002196
Si Si5 0.815604 0.769953 0.495573
Si Si6 0.500000 0.329412 0.750000
O O1 0.532828 0.903549 0.087882
O O2 0.667978 0.941823 0.315729
O O3 0.760259 0.950230 0.043746
O O4 0.603681 0.045230 0.110294
O O5 0.056538 0.131631 0.877266
O O6 0.106855 0.227509 0.660025
O O7 0.297465 0.831634 0.007444
O O8 0.246567 0.191879 0.991436
O O9 0.095895 0.120044 0.160208
O O10 0.915626 0.783818 0.629910
#
# Coordination Sequence:
#
# PCOD9457004 Si02
#       6
#     8   4   8   8   8   4
#     4  10  23  43  66  94 126 167 215 263 315 371
#     4  10  22  42  61  94 123 168 212 250 326 368
#     4  10  23  43  66  94 126 167 215 263 315 371
#     4  11  23  42  66  92 131 167 210 264 311 380
#     4  11  23  42  66  92 131 167 210 264 311 380
#     4  10  26  38  61 102 125 158 226 248 326 380
#
# _framework density 23.186164000000002
#
# number of rings (size 3 to 8) (size 9 to 14) (size 15 to 20)
#    0.000    1.600    2.000    1.200    8.400    0.000 
#    0.000    6.000    0.000    0.000    0.000    0.000 
#    0.000    0.000    0.000    0.000    0.000    0.000 
#
# Total GULP energy -223247.773928 kJ/mol
# GULP energy per Si atom -5581.194348 kJ/mol
# Density = 2.313339 g / cm^3
# Si number density = 23.186164 Si / 1000 Ang^3
#
#
#
# Elastic Constant Matrix: (Units=GPa)
#
#
# Indices 1 2 3 4 5 6 
#
# 1 58.7547 7.3200 10.8665 0.0000 0.0000 0.0000
# 2 7.3200 36.6082 9.4951 0.0000 0.0000 0.0000
# 3 10.8665 9.4951 96.6083 0.0000 0.0000 0.0000
# 4 0.0000 0.0000 0.0000 11.2259 0.0000 0.0000
# 5 0.0000 0.0000 0.0000 0.0000 47.1302 0.0000
# 6 0.0000 0.0000 0.0000 0.0000 0.0000 1.0598
#
#
#
# Elastic Compliance Matrix: (Units=1/GPa)
#
#
# Indices 1 2 3 4 5 6 
#
# 1 0.017719 -0.003105 -0.001688 0.000000 0.000000 0.000000
# 2 -0.003105 0.028575 -0.002459 0.000000 0.000000 0.000000
# 3 -0.001688 -0.002459 0.010783 0.000000 0.000000 0.000000
# 4 0.000000 0.000000 0.000000 0.089080 0.000000 0.000000
# 5 0.000000 0.000000 0.000000 0.000000 0.021218 0.000000
# 6 0.000000 0.000000 0.000000 0.000000 0.000000 0.943605
#
#
# Mechanical properties :
#
#
# Convention : Reuss Voigt Hill
#
# Bulk Modulus (GPa) = 23.48958 27.48160 25.48559
# Shear Modulus (GPa) = 4.38722 22.83581 13.61152
#
# Velocity S-wave (km/s) = 1.37705 3.14170 2.42555
# Velocity P-wave (km/s) = 3.56107 5.00387 4.34281
#
# Compressibility (1/GPa) = 0.04257207
#
# Stress axis : x y z
#
# Youngs Moduli (GPa) = 56.43678 34.99562 92.74183
#
# Poissons Ratio (x) = 0.10867 0.15653
# Poissons Ratio (y) = 0.17525 0.22807
# Poissons Ratio (z) = 0.09526 0.08606
#
# Static dielectric constant tensor:
#      x y z
#    x 1.937350 0.000000 0.000000 
#    y 0.000000 1.840540 0.000000 
#    z 0.000000 0.000000 1.860210 
# 
# From -- ./inp_files/4796.got.cif
#   From: 2010.05.17/outbox.cif.g08.bks.cpg/sg60_3_cif.got.tgz:4796.got - 2010.06.03 14:59:27.
