data_PCOD9457521
_publ_section_title
;
Structure prediction by ZEFSAII (Michael W. Deem and Ramdas Pophale) SiO2 
 PCOD9457521
Probable space group: P B C N
;
_chemical_formula_sum "Si O2"
_cell_formula_units_Z 40
_cell_length_a 16.260522
_cell_length_b 18.182297
_cell_length_c 5.249121
_cell_angle_alpha 90.000000
_cell_angle_beta 90.000000
_cell_angle_gamma 90.000000
_cell_volume 1551.921732
_symmetry_space_group_name_H-M "P B C N"
_symmetry_group_IT_number 60
_symmetry_cell_setting 'orthorhombic'
loop_
_space_group_symop_operation_xyz
x,y,z
1/2-x,1/2-y,1/2+z
1/2+x,1/2-y,-z
-x,y,1/2-z
-x,-y,-z
1/2+x,1/2+y,1/2-z
1/2-x,1/2+y,z
x,-y,1/2+z
loop_
_atom_site_type_symbol
_atom_site_label
_atom_site_fract_x
_atom_site_fract_y
_atom_site_fract_z
Si Si1 0.389498 0.745588 0.494996
Si Si2 0.766186 0.170810 0.317562
Si Si3 0.852040 0.047305 0.582981
Si Si4 0.500000 0.375713 0.250000
Si Si5 0.000000 0.363559 0.750000
Si Si6 0.342331 0.949346 0.937445
O O1 0.306071 0.772221 0.629974
O O2 0.349976 0.716043 0.234727
O O3 0.435473 0.675622 0.606955
O O4 0.452696 0.812106 0.543192
O O5 0.790371 0.114806 0.540324
O O6 0.725920 0.114539 0.110700
O O7 0.944982 0.076185 0.564698
O O8 0.841371 0.991153 0.352276
O O9 0.069159 0.410851 0.892817
O O10 0.337231 0.009030 0.706702
#
# Coordination Sequence:
#
# PCOD9457521 Si02
#       6
#     8   8   8   4   4   8
#     4  10  23  44  69 103 140 188 237 291 351 418
#     4  11  24  44  71 103 142 186 237 292 351 420
#     4  12  26  45  71 102 138 181 229 286 347 412
#     4  11  24  46  70 102 142 185 236 290 350 419
#     4   9  22  44  72 106 146 187 238 290 354 423
#     4  11  24  45  74 108 145 187 234 292 355 422
#
# _framework density 25.774498000000001
#
# number of rings (size 3 to 8) (size 9 to 14) (size 15 to 20)
#    0.000    1.200    0.000    4.800    0.000    7.200 
#    0.000    8.000    0.000    0.000    0.000    0.000 
#    0.000    0.000    0.000    0.000    0.000    0.000 
#
# Total GULP energy -224100.101935 kJ/mol
# GULP energy per Si atom -5602.502548 kJ/mol
# Density = 2.571583 g / cm^3
# Si number density = 25.774498 Si / 1000 Ang^3
#
#
#
# Elastic Constant Matrix: (Units=GPa)
#
#
# Indices 1 2 3 4 5 6 
#
# 1 168.6908 61.5131 25.6444 0.0000 0.0000 0.0000
# 2 61.5131 106.3027 29.1125 0.0000 0.0000 0.0000
# 3 25.6444 29.1125 82.5979 0.0000 0.0000 0.0000
# 4 0.0000 0.0000 0.0000 25.7253 0.0000 0.0000
# 5 0.0000 0.0000 0.0000 0.0000 30.2229 0.0000
# 6 0.0000 0.0000 0.0000 0.0000 0.0000 36.7837
#
#
#
# Elastic Compliance Matrix: (Units=1/GPa)
#
#
# Indices 1 2 3 4 5 6 
#
# 1 0.007572 -0.004137 -0.000893 0.000000 0.000000 0.000000
# 2 -0.004137 0.012673 -0.003182 0.000000 0.000000 0.000000
# 3 -0.000893 -0.003182 0.013506 0.000000 0.000000 0.000000
# 4 0.000000 0.000000 0.000000 0.038872 0.000000 0.000000
# 5 0.000000 0.000000 0.000000 0.000000 0.033088 0.000000
# 6 0.000000 0.000000 0.000000 0.000000 0.000000 0.027186
#
#
# Mechanical properties :
#
#
# Convention : Reuss Voigt Hill
#
# Bulk Modulus (GPa) = 57.71585 65.57013 61.64299
# Shear Modulus (GPa) = 32.23804 34.63446 33.43625
#
# Velocity S-wave (km/s) = 3.54046 3.66970 3.60566
# Velocity P-wave (km/s) = 6.25735 6.59171 6.42671
#
# Compressibility (1/GPa) = 0.01732626
#
# Stress axis : x y z
#
# Youngs Moduli (GPa) = 132.05827 78.90989 74.04344
#
# Poissons Ratio (x) = 0.32648 0.06610
# Poissons Ratio (y) = 0.54637 0.23561
# Poissons Ratio (z) = 0.11790 0.25110
#
# Static dielectric constant tensor:
#      x y z
#    x 2.025560 0.000000 0.000000 
#    y 0.000000 2.026840 0.000000 
#    z 0.000000 0.000000 2.046240 
# 
# From -- ./inp_files/1649.got.cif
#   From: 2010.05.17/outbox.cif.g08.bks.cpg/sg60_1_cif.got.tgz:1649.got - 2010.06.03 14:59:27.
