data_PCOD9457108
_publ_section_title
;
Structure prediction by ZEFSAII (Michael W. Deem and Ramdas Pophale) SiO2 
 PCOD9457108
Probable space group: P B C N
;
_chemical_formula_sum "Si O2"
_cell_formula_units_Z 48
_cell_length_a 15.466139
_cell_length_b 15.363531
_cell_length_c 8.742037
_cell_angle_alpha 90.000000
_cell_angle_beta 90.000000
_cell_angle_gamma 90.000000
_cell_volume 2077.234803
_symmetry_space_group_name_H-M "P B C N"
_symmetry_group_IT_number 60
_symmetry_cell_setting 'orthorhombic'
loop_
_space_group_symop_operation_xyz
x,y,z
1/2-x,1/2-y,1/2+z
1/2+x,1/2-y,-z
-x,y,1/2-z
-x,-y,-z
1/2+x,1/2+y,1/2-z
1/2-x,1/2+y,z
x,-y,1/2+z
loop_
_atom_site_type_symbol
_atom_site_label
_atom_site_fract_x
_atom_site_fract_y
_atom_site_fract_z
Si Si1 0.435115 0.230730 0.382523
Si Si2 0.055149 0.434198 0.099097
Si Si3 0.301043 0.754943 0.624681
Si Si4 0.446025 0.703096 0.393858
Si Si5 0.691000 0.586377 0.265660
Si Si6 0.243293 0.561762 0.559695
O O1 0.500000 0.200197 0.250000
O O2 0.429335 0.153699 0.503493
O O3 0.349139 0.249092 0.288954
O O4 0.482449 0.309309 0.472765
O O5 0.151321 0.470816 0.121418
O O6 0.000000 0.421392 0.250000
O O7 0.000000 0.500000 0.000000
O O8 0.371396 0.759006 0.484284
O O9 0.234681 0.834759 0.638005
O O10 0.257081 0.661525 0.606401
O O11 0.500000 0.739075 0.250000
O O12 0.394174 0.623218 0.318611
O O13 0.684307 0.501934 0.371029
O O14 0.751885 0.560634 0.122899
#
# Coordination Sequence:
#
# PCOD9457108 Si02
#       6
#     8   8   8   8   8   8
#     4  10  22  43  66  95 137 183 235 288 354 417
#     4  12  25  39  66 104 147 181 232 294 365 436
#     4  10  24  47  71  97 146 191 237 299 351 436
#     4  10  24  42  70 101 132 183 239 291 352 419
#     4  11  25  47  70 105 143 187 237 290 357 427
#     4  11  26  46  69 105 142 191 239 290 363 428
#
# _framework density 23.107644000000001
#
# number of rings (size 3 to 8) (size 9 to 14) (size 15 to 20)
#    0.000    1.333    1.667    2.000    9.333    4.000 
#    0.000    8.333    0.000    0.000    0.000    0.000 
#    0.000    0.000    0.000    0.000    0.000    0.000 
#
# Total GULP energy -268128.477464 kJ/mol
# GULP energy per Si atom -5586.009947 kJ/mol
# Density = 2.305505 g / cm^3
# Si number density = 23.107644 Si / 1000 Ang^3
#
#
#
# Elastic Constant Matrix: (Units=GPa)
#
#
# Indices 1 2 3 4 5 6 
#
# 1 85.1496 25.1191 41.5280 0.0000 0.0000 0.0000
# 2 25.1191 93.9640 55.5012 0.0000 0.0000 0.0000
# 3 41.5280 55.5012 142.3261 0.0000 0.0000 0.0000
# 4 0.0000 0.0000 0.0000 14.6700 0.0000 0.0000
# 5 0.0000 0.0000 0.0000 0.0000 36.0129 0.0000
# 6 0.0000 0.0000 0.0000 0.0000 0.0000 5.9953
#
#
#
# Elastic Compliance Matrix: (Units=1/GPa)
#
#
# Indices 1 2 3 4 5 6 
#
# 1 0.013902 -0.001716 -0.003387 0.000000 0.000000 0.000000
# 2 -0.001716 0.014039 -0.004974 0.000000 0.000000 0.000000
# 3 -0.003387 -0.004974 0.009954 0.000000 0.000000 0.000000
# 4 0.000000 0.000000 0.000000 0.068167 0.000000 0.000000
# 5 0.000000 0.000000 0.000000 0.000000 0.027768 0.000000
# 6 0.000000 0.000000 0.000000 0.000000 0.000000 0.166798
#
#
# Mechanical properties :
#
#
# Convention : Reuss Voigt Hill
#
# Bulk Modulus (GPa) = 56.36574 62.85960 59.61267
# Shear Modulus (GPa) = 15.30478 24.62170 19.96324
#
# Velocity S-wave (km/s) = 2.57636 3.26777 2.94245
# Velocity P-wave (km/s) = 5.77025 6.44203 6.11537
#
# Compressibility (1/GPa) = 0.01774127
#
# Stress axis : x y z
#
# Youngs Moduli (GPa) = 71.93108 71.23012 100.46055
#
# Poissons Ratio (x) = 0.12221 0.34030
# Poissons Ratio (y) = 0.12341 0.49969
# Poissons Ratio (z) = 0.24366 0.35430
#
# Static dielectric constant tensor:
#      x y z
#    x 1.934360 0.000000 0.000000 
#    y 0.000000 1.867530 0.000000 
#    z 0.000000 0.000000 1.866180 
# 
# From -- ./inp_files/5930.got.cif
#   From: 2010.05.17/outbox.cif.g08.bks.cpg/sg60_3_cif.got.tgz:5930.got - 2010.06.03 14:59:27.
