data_PCOD9457704
_publ_section_title
;
Structure prediction by ZEFSAII (Michael W. Deem and Ramdas Pophale) SiO2 
 PCOD9457704
Probable space group: P B C N
;
_chemical_formula_sum "Si O2"
_cell_formula_units_Z 40
_cell_length_a 5.293832
_cell_length_b 13.133815
_cell_length_c 26.821052
_cell_angle_alpha 90.000000
_cell_angle_beta 90.000000
_cell_angle_gamma 90.000000
_cell_volume 1864.819739
_symmetry_space_group_name_H-M "P B C N"
_symmetry_group_IT_number 60
_symmetry_cell_setting 'orthorhombic'
loop_
_space_group_symop_operation_xyz
x,y,z
1/2-x,1/2-y,1/2+z
1/2+x,1/2-y,-z
-x,y,1/2-z
-x,-y,-z
1/2+x,1/2+y,1/2-z
1/2-x,1/2+y,z
x,-y,1/2+z
loop_
_atom_site_type_symbol
_atom_site_label
_atom_site_fract_x
_atom_site_fract_y
_atom_site_fract_z
Si Si1 0.041685 0.490384 0.829648
Si Si2 0.500000 0.189248 0.250000
Si Si3 0.155670 0.049732 0.423722
Si Si4 0.002650 0.744402 0.966918
Si Si5 0.657676 0.969163 0.429828
Si Si6 0.000000 0.330177 0.250000
O O1 0.020563 0.389099 0.796583
O O2 0.278480 0.481400 0.867223
O O3 0.826122 0.500033 0.871575
O O4 0.038798 0.591152 0.795997
O O5 0.249691 0.259525 0.245672
O O6 0.052266 0.162290 0.429873
O O7 0.431245 0.041000 0.449938
O O8 0.942141 0.978833 0.447771
O O9 0.947876 0.642805 0.936382
O O10 0.754514 0.765576 0.999942
#
# Coordination Sequence:
#
# PCOD9457704 Si02
#       6
#     8   4   8   8   8   4
#     4   9  26  44  68 101 133 178 226 261 345 397
#     4  11  26  41  72  98 142 173 218 281 328 400
#     4  10  24  44  67  93 134 174 222 272 329 401
#     4  12  26  43  67 102 133 174 231 276 339 395
#     4  10  24  42  69  94 133 177 220 273 331 400
#     4  11  26  43  70 102 138 173 220 279 328 404
#
# _framework density 21.449793
#
# number of rings (size 3 to 8) (size 9 to 14) (size 15 to 20)
#    1.200    0.400    0.000    2.400    8.400    6.400 
#    0.000    0.000    0.000    0.000    0.000    0.000 
#    0.000    0.000    0.000    0.000    0.000    0.000 
#
# Total GULP energy -223115.402074 kJ/mol
# GULP energy per Si atom -5577.885052 kJ/mol
# Density = 2.140097 g / cm^3
# Si number density = 21.449793 Si / 1000 Ang^3
#
#
#
# Elastic Constant Matrix: (Units=GPa)
#
#
# Indices 1 2 3 4 5 6 
#
# 1 187.7591 61.5629 59.5817 0.0000 0.0000 0.0000
# 2 61.5629 142.7732 42.2399 0.0000 0.0000 0.0000
# 3 59.5817 42.2399 82.7007 0.0000 0.0000 0.0000
# 4 0.0000 0.0000 0.0000 28.3325 0.0000 0.0000
# 5 0.0000 0.0000 0.0000 0.0000 20.5039 0.0000
# 6 0.0000 0.0000 0.0000 0.0000 0.0000 21.3003
#
#
#
# Elastic Compliance Matrix: (Units=1/GPa)
#
#
# Indices 1 2 3 4 5 6 
#
# 1 0.007308 -0.001877 -0.004306 0.000000 0.000000 0.000000
# 2 -0.001877 0.008733 -0.003108 0.000000 0.000000 0.000000
# 3 -0.004306 -0.003108 0.016782 0.000000 0.000000 0.000000
# 4 0.000000 0.000000 0.000000 0.035295 0.000000 0.000000
# 5 0.000000 0.000000 0.000000 0.000000 0.048771 0.000000
# 6 0.000000 0.000000 0.000000 0.000000 0.000000 0.046948
#
#
# Mechanical properties :
#
#
# Convention : Reuss Voigt Hill
#
# Bulk Modulus (GPa) = 70.22583 82.22246 76.22415
# Shear Modulus (GPa) = 26.71422 30.68391 28.69906
#
# Velocity S-wave (km/s) = 3.53289 3.78630 3.66179
# Velocity P-wave (km/s) = 7.03225 7.58488 7.31379
#
# Compressibility (1/GPa) = 0.01423977
#
# Stress axis : x y z
#
# Youngs Moduli (GPa) = 136.83714 114.50743 59.58863
#
# Poissons Ratio (x) = 0.21494 0.25660
# Poissons Ratio (y) = 0.25686 0.18521
# Poissons Ratio (z) = 0.58926 0.35590
#
# Static dielectric constant tensor:
#      x y z
#    x 1.843450 0.000000 0.000000 
#    y 0.000000 1.762170 0.000000 
#    z 0.000000 0.000000 3.526790 
# 
# From -- ./inp_files/25621.got.cif
#   From: 2010.05.17/outbox.cif.g08.bks.cpg/sg60_13_cif.got.tgz:25621.got - 2010.06.03 14:59:27.
