data_PCOD9457943
_publ_section_title
;
Structure prediction by ZEFSAII (Michael W. Deem and Ramdas Pophale) SiO2 
 PCOD9457943
Probable space group: P B C N
;
_chemical_formula_sum "Si O2"
_cell_formula_units_Z 56
_cell_length_a 16.526580
_cell_length_b 10.849551
_cell_length_c 13.645316
_cell_angle_alpha 90.000000
_cell_angle_beta 90.000000
_cell_angle_gamma 90.000000
_cell_volume 2446.686656
_symmetry_space_group_name_H-M "P B C N"
_symmetry_group_IT_number 60
_symmetry_cell_setting 'orthorhombic'
loop_
_space_group_symop_operation_xyz
x,y,z
1/2-x,1/2-y,1/2+z
1/2+x,1/2-y,-z
-x,y,1/2-z
-x,-y,-z
1/2+x,1/2+y,1/2-z
1/2-x,1/2+y,z
x,-y,1/2+z
loop_
_atom_site_type_symbol
_atom_site_label
_atom_site_fract_x
_atom_site_fract_y
_atom_site_fract_z
Si Si1 0.364244 0.883035 0.906170
Si Si2 0.605747 0.351012 0.997486
Si Si3 0.033167 0.795705 0.856518
Si Si4 0.488594 0.991441 0.137402
Si Si5 0.183160 0.495836 0.705384
Si Si6 0.820528 0.881367 0.532720
Si Si7 0.245442 0.253742 0.134488
O O1 0.381529 0.735318 0.906481
O O2 0.350070 0.969446 0.812417
O O3 0.275738 0.898859 0.953411
O O4 0.453519 0.931964 0.934958
O O5 0.641411 0.486063 0.010928
O O6 0.518135 0.352881 0.946842
O O7 0.661686 0.277437 0.920167
O O8 0.016309 0.650268 0.859950
O O9 0.127038 0.825466 0.878372
O O10 0.000000 0.839157 0.750000
O O11 0.500000 0.042437 0.250000
O O12 0.391479 0.998310 0.128965
O O13 0.233831 0.373589 0.685513
O O14 0.230778 0.623863 0.697903
O O15 0.817898 0.787810 0.440955
#
# Coordination Sequence:
#
# PCOD9457943 Si02
#       7
#     8   8   8   8   8   8   8
#     4  10  26  41  71 103 138 183 243 298 350 438
#     4  11  24  46  62 103 144 176 241 296 357 432
#     4  11  25  44  74  97 140 194 243 298 369 435
#     4   9  21  42  66 100 133 179 237 287 348 429
#     4  11  23  44  73 103 142 187 239 290 362 429
#     4  11  26  43  66 103 143 188 238 303 366 419
#     4  11  24  42  71 102 141 185 233 295 354 429
#
# _framework density 22.888096999999998
#
# number of rings (size 3 to 8) (size 9 to 14) (size 15 to 20)
#    0.000    1.429    2.857    0.429   10.000    0.571 
#    0.000    0.714    0.000    0.000    0.000    0.000 
#    0.000    0.000    0.000    0.000    0.000    0.000 
#
# Total GULP energy -312190.671203 kJ/mol
# GULP energy per Si atom -5574.833414 kJ/mol
# Density = 2.283600 g / cm^3
# Si number density = 22.888097 Si / 1000 Ang^3
#
#
#
# Elastic Constant Matrix: (Units=GPa)
#
#
# Indices 1 2 3 4 5 6 
#
# 1 118.6890 38.8400 15.2888 0.0000 0.0000 0.0000
# 2 38.8400 121.0499 11.0052 0.0000 0.0000 0.0000
# 3 15.2888 11.0052 37.0275 0.0000 0.0000 0.0000
# 4 0.0000 0.0000 0.0000 19.6021 0.0000 0.0000
# 5 0.0000 0.0000 0.0000 0.0000 36.6866 0.0000
# 6 0.0000 0.0000 0.0000 0.0000 0.0000 27.3233
#
#
#
# Elastic Compliance Matrix: (Units=1/GPa)
#
#
# Indices 1 2 3 4 5 6 
#
# 1 0.009767 -0.002844 -0.003187 0.000000 0.000000 0.000000
# 2 -0.002844 0.009319 -0.001595 0.000000 0.000000 0.000000
# 3 -0.003187 -0.001595 0.028797 0.000000 0.000000 0.000000
# 4 0.000000 0.000000 0.000000 0.051015 0.000000 0.000000
# 5 0.000000 0.000000 0.000000 0.000000 0.027258 0.000000
# 6 0.000000 0.000000 0.000000 0.000000 0.000000 0.036599
#
#
# Mechanical properties :
#
#
# Convention : Reuss Voigt Hill
#
# Bulk Modulus (GPa) = 30.64755 45.22603 37.93679
# Shear Modulus (GPa) = 26.47128 30.83122 28.65125
#
# Velocity S-wave (km/s) = 3.40450 3.67419 3.54191
# Velocity P-wave (km/s) = 5.37340 6.14834 5.77388
#
# Compressibility (1/GPa) = 0.03262903
#
# Stress axis : x y z
#
# Youngs Moduli (GPa) = 102.38963 107.31225 34.72553
#
# Poissons Ratio (x) = 0.30519 0.11068
# Poissons Ratio (y) = 0.29119 0.05540
# Poissons Ratio (z) = 0.32636 0.17120
#
# Static dielectric constant tensor:
#      x y z
#    x 2.268710 0.000000 0.000000 
#    y 0.000000 1.939250 0.000000 
#    z 0.000000 0.000000 2.124950 
# 
# From -- ./inp_files/16869.got.cif
#   From: 2010.05.17/outbox.cif.g08.bks.cpg/sg60_9_cif.got.tgz:16869.got - 2010.06.03 14:59:27.
