data_PCOD9457072
_publ_section_title
;
Structure prediction by ZEFSAII (Michael W. Deem and Ramdas Pophale) SiO2 
 PCOD9457072
Probable space group: P B C N
;
_chemical_formula_sum "Si O2"
_cell_formula_units_Z 48
_cell_length_a 8.005839
_cell_length_b 11.570989
_cell_length_c 22.165636
_cell_angle_alpha 90.000000
_cell_angle_beta 90.000000
_cell_angle_gamma 90.000000
_cell_volume 2053.324220
_symmetry_space_group_name_H-M "P B C N"
_symmetry_group_IT_number 60
_symmetry_cell_setting 'orthorhombic'
loop_
_space_group_symop_operation_xyz
x,y,z
1/2-x,1/2-y,1/2+z
1/2+x,1/2-y,-z
-x,y,1/2-z
-x,-y,-z
1/2+x,1/2+y,1/2-z
1/2-x,1/2+y,z
x,-y,1/2+z
loop_
_atom_site_type_symbol
_atom_site_label
_atom_site_fract_x
_atom_site_fract_y
_atom_site_fract_z
Si Si1 0.476213 0.857808 0.682931
Si Si2 0.905288 0.799764 0.091301
Si Si3 0.424806 0.239561 0.982907
Si Si4 0.905175 0.775338 0.812489
Si Si5 0.537135 0.544975 0.409246
Si Si6 0.092830 0.559467 0.597290
O O1 0.500000 0.905579 0.750000
O O2 0.590926 0.753146 0.658108
O O3 0.289664 0.807463 0.689005
O O4 0.497554 0.954788 0.631683
O O5 0.750961 0.759195 0.051003
O O6 0.912622 0.937535 0.090601
O O7 0.068166 0.751135 0.054927
O O8 0.513116 0.357675 0.960015
O O9 0.513986 0.121787 0.960945
O O10 0.913495 0.662914 0.854223
O O11 0.000000 0.758185 0.750000
O O12 0.984229 0.883983 0.847694
O O13 0.721280 0.488935 0.414073
#
# Coordination Sequence:
#
# PCOD9457072 Si02
#       6
#     8   8   8   8   8   8
#     4  11  26  43  66 102 143 184 234 290 348 429
#     4  12  26  46  69 106 142 186 239 298 366 423
#     4  11  27  43  74 101 141 184 238 295 366 431
#     4  10  22  42  71  98 137 186 234 287 347 418
#     4  10  23  46  67  99 140 181 233 293 356 421
#     4  10  22  46  71  96 139 185 233 290 357 416
#
# _framework density 23.376729000000001
#
# number of rings (size 3 to 8) (size 9 to 14) (size 15 to 20)
#    0.000    1.333    1.667    2.000   11.667    1.333 
#    0.000    0.000    0.000    0.000    0.000    0.000 
#    0.000    0.000    0.000    0.000    0.000    0.000 
#
# Total GULP energy -268447.410984 kJ/mol
# GULP energy per Si atom -5592.654396 kJ/mol
# Density = 2.332352 g / cm^3
# Si number density = 23.376729 Si / 1000 Ang^3
#
#
#
# Elastic Constant Matrix: (Units=GPa)
#
#
# Indices 1 2 3 4 5 6 
#
# 1 53.9990 25.2965 14.1844 0.0000 0.0000 0.0000
# 2 25.2965 138.6784 37.0573 0.0000 0.0000 0.0000
# 3 14.1844 37.0573 54.3231 0.0000 0.0000 0.0000
# 4 0.0000 0.0000 0.0000 21.0034 0.0000 0.0000
# 5 0.0000 0.0000 0.0000 0.0000 33.0982 0.0000
# 6 0.0000 0.0000 0.0000 0.0000 0.0000 36.3910
#
#
#
# Elastic Compliance Matrix: (Units=1/GPa)
#
#
# Indices 1 2 3 4 5 6 
#
# 1 0.020771 -0.002861 -0.003472 0.000000 0.000000 0.000000
# 2 -0.002861 0.009213 -0.005537 0.000000 0.000000 0.000000
# 3 -0.003472 -0.005537 0.023092 0.000000 0.000000 0.000000
# 4 0.000000 0.000000 0.000000 0.047611 0.000000 0.000000
# 5 0.000000 0.000000 0.000000 0.000000 0.030213 0.000000
# 6 0.000000 0.000000 0.000000 0.000000 0.000000 0.027479
#
#
# Mechanical properties :
#
#
# Convention : Reuss Voigt Hill
#
# Bulk Modulus (GPa) = 34.08863 44.45299 39.27081
# Shear Modulus (GPa) = 26.05538 29.46267 27.75903
#
# Velocity S-wave (km/s) = 3.34216 3.55398 3.44970
# Velocity P-wave (km/s) = 5.43207 5.99151 5.71864
#
# Compressibility (1/GPa) = 0.02933529
#
# Stress axis : x y z
#
# Youngs Moduli (GPa) = 48.14365 108.54786 43.30443
#
# Poissons Ratio (x) = 0.31057 0.15035
# Poissons Ratio (y) = 0.13775 0.23979
# Poissons Ratio (z) = 0.16715 0.60107
#
# Static dielectric constant tensor:
#      x y z
#    x 1.958200 0.000000 0.000000 
#    y 0.000000 1.866950 0.000000 
#    z 0.000000 0.000000 1.874460 
# 
# From -- ./inp_files/23917.got.cif
#   From: 2010.05.17/outbox.cif.g08.bks.cpg/sg60_12_cif.got.tgz:23917.got - 2010.06.03 14:59:27.
