data_PCOD9457258
_publ_section_title
;
Structure prediction by ZEFSAII (Michael W. Deem and Ramdas Pophale) SiO2 
 PCOD9457258
Probable space group: P B C N
;
_chemical_formula_sum "Si O2"
_cell_formula_units_Z 56
_cell_length_a 13.877496
_cell_length_b 14.327132
_cell_length_c 11.984182
_cell_angle_alpha 90.000000
_cell_angle_beta 90.000000
_cell_angle_gamma 90.000000
_cell_volume 2382.751595
_symmetry_space_group_name_H-M "P B C N"
_symmetry_group_IT_number 60
_symmetry_cell_setting 'orthorhombic'
loop_
_space_group_symop_operation_xyz
x,y,z
1/2-x,1/2-y,1/2+z
1/2+x,1/2-y,-z
-x,y,1/2-z
-x,-y,-z
1/2+x,1/2+y,1/2-z
1/2-x,1/2+y,z
x,-y,1/2+z
loop_
_atom_site_type_symbol
_atom_site_label
_atom_site_fract_x
_atom_site_fract_y
_atom_site_fract_z
Si Si1 0.651628 0.641641 0.242703
Si Si2 0.395914 0.011131 0.567434
Si Si3 0.980383 0.907847 0.930066
Si Si4 0.318685 0.834958 0.907643
Si Si5 0.173630 0.318136 0.507333
Si Si6 0.606427 0.842437 0.241732
Si Si7 0.000654 0.776727 0.370433
O O1 0.608546 0.585193 0.345435
O O2 0.572002 0.626173 0.143708
O O3 0.751441 0.619209 0.185575
O O4 0.665275 0.750584 0.280590
O O5 0.338873 0.088508 0.498901
O O6 0.399803 0.062771 0.687875
O O7 0.500000 0.000000 0.500000
O O8 0.332470 0.917170 0.570374
O O9 0.958748 0.834270 0.026158
O O10 0.000000 0.000000 0.000000
O O11 0.421322 0.805103 0.856898
O O12 0.260718 0.747863 0.964452
O O13 0.130200 0.351592 0.387728
O O14 0.102123 0.255972 0.583164
O O15 0.500000 0.801454 0.250000
O O16 0.000000 0.826301 0.250000
#
# Coordination Sequence:
#
# PCOD9457258 Si02
#       7
#     8   8   8   8   8   8   8
#     4  10  22  46  77 103 152 215 264 313 407 489
#     4  12  24  41  78 115 147 200 272 327 389 474
#     4  11  23  44  76 105 148 215 267 320 391 486
#     4  11  25  48  77 112 157 205 259 324 400 476
#     4  11  25  48  69 109 157 205 259 314 408 482
#     4  11  18  40  76  99 141 211 249 311 398 480
#     4  12  26  46  75 111 159 195 255 344 396 450
#
# _framework density 23.502238999999999
#
# number of rings (size 3 to 8) (size 9 to 14) (size 15 to 20)
#    0.000    0.857    7.143    0.857    2.000    6.286 
#    0.000    0.000    0.000    0.000    0.000    0.000 
#    0.000    0.000    0.000    0.000    0.000    0.000 
#
# Total GULP energy -312433.787425 kJ/mol
# GULP energy per Si atom -5579.174775 kJ/mol
# Density = 2.344875 g / cm^3
# Si number density = 23.502239 Si / 1000 Ang^3
#
#
#
# Elastic Constant Matrix: (Units=GPa)
#
#
# Indices 1 2 3 4 5 6 
#
# 1 75.3800 13.2020 26.8276 0.0000 0.0000 0.0000
# 2 13.2020 73.4216 29.4739 0.0000 0.0000 0.0000
# 3 26.8276 29.4739 165.7012 0.0000 0.0000 0.0000
# 4 0.0000 0.0000 0.0000 45.3676 0.0000 0.0000
# 5 0.0000 0.0000 0.0000 0.0000 38.9397 0.0000
# 6 0.0000 0.0000 0.0000 0.0000 0.0000 -21.8854
#
#
#
# Elastic Compliance Matrix: (Units=1/GPa)
#
#
# Indices 1 2 3 4 5 6 
#
# 1 0.014287 -0.001767 -0.001999 0.000000 0.000000 0.000000
# 2 -0.001767 0.014886 -0.002362 0.000000 0.000000 0.000000
# 3 -0.001999 -0.002362 0.006779 0.000000 0.000000 0.000000
# 4 0.000000 0.000000 0.000000 0.022042 0.000000 0.000000
# 5 0.000000 0.000000 0.000000 0.000000 0.025681 0.000000
# 6 0.000000 0.000000 0.000000 0.000000 0.000000 -0.045692
#
#
# Mechanical properties :
#
#
# Convention : Reuss Voigt Hill
#
# Bulk Modulus (GPa) = 42.19954 50.38999 46.29476
# Shear Modulus (GPa) = 86.00666 28.81766 57.41216
#
# Velocity S-wave (km/s) = 6.05595 3.50547 4.94787
# Velocity P-wave (km/s) = 8.17887 6.15398 7.23759
#
# Compressibility (1/GPa) = 0.02369694
#
# Stress axis : x y z
#
# Youngs Moduli (GPa) = 69.99419 67.17852 147.52131
#
# Poissons Ratio (x) = 0.11867 0.29488
# Poissons Ratio (y) = 0.12365 0.34841
# Poissons Ratio (z) = 0.13991 0.15866
#
# Static dielectric constant tensor:
#      x y z
#    x 1.929240 0.000000 0.000000 
#    y 0.000000 2.013480 0.000000 
#    z 0.000000 0.000000 1.959430 
# 
# From -- ./inp_files/11954.got.cif
#   From: 2010.05.17/outbox.cif.g08.bks.cpg/sg60_6_cif.got.tgz:11954.got - 2010.06.03 14:59:27.
