data_PCOD9457639
_publ_section_title
;
Structure prediction by ZEFSAII (Michael W. Deem and Ramdas Pophale) SiO2 
 PCOD9457639
Probable space group: P B C N
;
_chemical_formula_sum "Si O2"
_cell_formula_units_Z 52
_cell_length_a 15.887702
_cell_length_b 9.823413
_cell_length_c 17.412163
_cell_angle_alpha 90.000000
_cell_angle_beta 90.000000
_cell_angle_gamma 90.000000
_cell_volume 2717.541673
_symmetry_space_group_name_H-M "P B C N"
_symmetry_group_IT_number 60
_symmetry_cell_setting 'orthorhombic'
loop_
_space_group_symop_operation_xyz
x,y,z
1/2-x,1/2-y,1/2+z
1/2+x,1/2-y,-z
-x,y,1/2-z
-x,-y,-z
1/2+x,1/2+y,1/2-z
1/2-x,1/2+y,z
x,-y,1/2+z
loop_
_atom_site_type_symbol
_atom_site_label
_atom_site_fract_x
_atom_site_fract_y
_atom_site_fract_z
Si Si1 0.000000 0.402852 0.750000
Si Si2 0.885146 0.758740 0.013977
Si Si3 0.676248 0.961143 0.223170
Si Si4 0.858648 0.941621 0.491120
Si Si5 0.553868 0.193574 0.410207
Si Si6 0.185248 0.451949 0.096094
Si Si7 0.267800 0.697457 0.370570
O O1 0.078132 0.494673 0.778339
O O2 0.032292 0.312281 0.679733
O O3 0.809965 0.746919 0.076044
O O4 0.966649 0.679605 0.044319
O O5 0.852322 0.688236 0.936699
O O6 0.905888 0.916764 0.003050
O O7 0.698746 0.945306 0.312918
O O8 0.694791 0.824138 0.176104
O O9 0.730404 0.082396 0.185475
O O10 0.904356 0.832775 0.437731
O O11 0.770490 0.978920 0.450113
O O12 0.835217 0.869651 0.571598
O O13 0.619232 0.071293 0.422979
#
# Coordination Sequence:
#
# PCOD9457639 Si02
#       7
#     4   8   8   8   8   8   8
#     4  10  24  44  66 102 126 174 222 268 334 386
#     4  11  22  41  63  95 128 171 215 272 320 397
#     4  11  24  42  68  94 131 174 216 275 323 391
#     4  11  24  40  63  98 127 171 220 265 324 397
#     4  11  23  41  68  91 133 167 218 271 329 388
#     4  10  24  39  65  91 126 173 220 260 324 394
#     4  11  23  42  68  93 133 174 219 263 337 387
#
# _framework density 19.13494
#
# number of rings (size 3 to 8) (size 9 to 14) (size 15 to 20)
#    0.000    1.231    3.077    2.769    8.615    2.462 
#    0.000    0.000    0.000    1.846    0.000    0.000 
#    0.000    0.000    0.000    0.000    0.000    0.000 
#
# Total GULP energy -290663.446174 kJ/mol
# GULP energy per Si atom -5589.681657 kJ/mol
# Density = 1.909139 g / cm^3
# Si number density = 19.134940 Si / 1000 Ang^3
#
#
#
# Elastic Constant Matrix: (Units=GPa)
#
#
# Indices 1 2 3 4 5 6 
#
# 1 64.7323 30.3605 47.1227 0.0000 0.0000 0.0000
# 2 30.3605 133.7802 85.4950 0.0000 0.0000 0.0000
# 3 47.1227 85.4950 133.4993 0.0000 0.0000 0.0000
# 4 0.0000 0.0000 0.0000 31.5198 0.0000 0.0000
# 5 0.0000 0.0000 0.0000 0.0000 22.4588 0.0000
# 6 0.0000 0.0000 0.0000 0.0000 0.0000 18.1731
#
#
#
# Elastic Compliance Matrix: (Units=1/GPa)
#
#
# Indices 1 2 3 4 5 6 
#
# 1 0.020791 -0.000048 -0.007308 0.000000 0.000000 0.000000
# 2 -0.000048 0.012654 -0.008087 0.000000 0.000000 0.000000
# 3 -0.007308 -0.008087 0.015249 0.000000 0.000000 0.000000
# 4 0.000000 0.000000 0.000000 0.031726 0.000000 0.000000
# 5 0.000000 0.000000 0.000000 0.000000 0.044526 0.000000
# 6 0.000000 0.000000 0.000000 0.000000 0.000000 0.055026
#
#
# Mechanical properties :
#
#
# Convention : Reuss Voigt Hill
#
# Bulk Modulus (GPa) = 56.15394 73.10756 64.63075
# Shear Modulus (GPa) = 23.06340 25.69926 24.38133
#
# Velocity S-wave (km/s) = 3.47551 3.66875 3.57344
# Velocity P-wave (km/s) = 6.74652 7.49903 7.13271
#
# Compressibility (1/GPa) = 0.01780819
#
# Stress axis : x y z
#
# Youngs Moduli (GPa) = 48.09848 79.02725 65.57741
#
# Poissons Ratio (x) = 0.00379 0.47924
# Poissons Ratio (y) = 0.00231 0.53031
# Poissons Ratio (z) = 0.35150 0.63908
#
# Static dielectric constant tensor:
#      x y z
#    x 1.675530 0.000000 0.000000 
#    y 0.000000 1.642820 0.000000 
#    z 0.000000 0.000000 1.641660 
# 
# From -- ./inp_files/20841.got.cif
#   From: 2010.05.17/outbox.cif.g08.bks.cpg/sg60_11_cif.got.tgz:20841.got - 2010.06.03 14:59:27.
