data_PCOD9457742
_publ_section_title
;
Structure prediction by ZEFSAII (Michael W. Deem and Ramdas Pophale) SiO2 
 PCOD9457742
Probable space group: P B C N
;
_chemical_formula_sum "Si O2"
_cell_formula_units_Z 28
_cell_length_a 8.075177
_cell_length_b 21.012682
_cell_length_c 8.082656
_cell_angle_alpha 90.000000
_cell_angle_beta 90.000000
_cell_angle_gamma 90.000000
_cell_volume 1371.474174
_symmetry_space_group_name_H-M "P B C N"
_symmetry_group_IT_number 60
_symmetry_cell_setting 'orthorhombic'
loop_
_space_group_symop_operation_xyz
x,y,z
1/2-x,1/2-y,1/2+z
1/2+x,1/2-y,-z
-x,y,1/2-z
-x,-y,-z
1/2+x,1/2+y,1/2-z
1/2-x,1/2+y,z
x,-y,1/2+z
loop_
_atom_site_type_symbol
_atom_site_label
_atom_site_fract_x
_atom_site_fract_y
_atom_site_fract_z
Si Si1 0.448865 0.570195 0.558845
Si Si2 0.171726 0.734677 0.341598
Si Si3 0.500000 0.656861 0.250000
Si Si4 0.328260 0.844491 0.166321
O O1 0.500000 0.575433 0.750000
O O2 0.500000 0.500000 0.500000
O O3 0.523100 0.615095 0.415556
O O4 0.259740 0.596097 0.576442
O O5 0.334400 0.697028 0.281888
O O6 0.214588 0.808272 0.302783
O O7 0.146591 0.710072 0.527320
O O8 0.000000 0.720169 0.250000
O O9 0.500000 0.862245 0.250000
#
# Coordination Sequence:
#
# PCOD9457742 Si02
#       4
#     8   8   4   8
#     4  11  24  44  70  90 134 187 235 278 342 406
#     4  11  23  39  66  99 143 170 219 287 359 414
#     4  10  24  44  64 104 132 174 232 284 340 430
#     4  11  24  41  65 102 134 177 230 284 356 420
#
# _framework density 20.415987000000001
#
# number of rings (size 3 to 8) (size 9 to 14) (size 15 to 20)
#    0.000    1.143    2.857    2.571   12.000    0.000 
#    0.000    2.857    0.000    0.000    0.000    0.000 
#    0.000    0.000    0.000    0.000    0.000    0.000 
#
# Total GULP energy -156128.883060 kJ/mol
# GULP energy per Si atom -5576.031538 kJ/mol
# Density = 2.036952 g / cm^3
# Si number density = 20.415987 Si / 1000 Ang^3
#
#
#
# Elastic Constant Matrix: (Units=GPa)
#
#
# Indices 1 2 3 4 5 6 
#
# 1 109.9085 50.7779 42.8592 0.0000 0.0000 0.0000
# 2 50.7779 120.1712 45.4765 0.0000 0.0000 0.0000
# 3 42.8592 45.4765 136.8585 0.0000 0.0000 0.0000
# 4 0.0000 0.0000 0.0000 9.8459 0.0000 0.0000
# 5 0.0000 0.0000 0.0000 0.0000 38.8505 0.0000
# 6 0.0000 0.0000 0.0000 0.0000 0.0000 17.9044
#
#
#
# Elastic Compliance Matrix: (Units=1/GPa)
#
#
# Indices 1 2 3 4 5 6 
#
# 1 0.011936 -0.004151 -0.002359 0.000000 0.000000 0.000000
# 2 -0.004151 0.010962 -0.002343 0.000000 0.000000 0.000000
# 3 -0.002359 -0.002343 0.008824 0.000000 0.000000 0.000000
# 4 0.000000 0.000000 0.000000 0.101565 0.000000 0.000000
# 5 0.000000 0.000000 0.000000 0.000000 0.025740 0.000000
# 6 0.000000 0.000000 0.000000 0.000000 0.000000 0.055852
#
#
# Mechanical properties :
#
#
# Convention : Reuss Voigt Hill
#
# Bulk Modulus (GPa) = 71.33949 71.68506 71.51227
# Shear Modulus (GPa) = 21.07433 28.50848 24.79140
#
# Velocity S-wave (km/s) = 3.21634 3.74087 3.48848
# Velocity P-wave (km/s) = 6.98656 7.33807 7.16447
#
# Compressibility (1/GPa) = 0.01401748
#
# Stress axis : x y z
#
# Youngs Moduli (GPa) = 83.78048 91.22481 113.32902
#
# Poissons Ratio (x) = 0.37867 0.26730
# Poissons Ratio (y) = 0.34777 0.26548
# Poissons Ratio (z) = 0.19761 0.21370
#
# Static dielectric constant tensor:
#      x y z
#    x 1.670750 0.000000 0.000000 
#    y 0.000000 1.747620 0.000000 
#    z 0.000000 0.000000 1.771740 
# 
# From -- ./inp_files/3446.got.cif
#   From: 2010.05.17/outbox.cif.g08.bks.cpg/sg60_2_cif.got.tgz:3446.got - 2010.06.03 14:59:27.
