data_PCOD9457830
_publ_section_title
;
Structure prediction by ZEFSAII (Michael W. Deem and Ramdas Pophale) SiO2 
 PCOD9457830
Probable space group: P B C N
;
_chemical_formula_sum "Si O2"
_cell_formula_units_Z 40
_cell_length_a 8.669560
_cell_length_b 22.282272
_cell_length_c 8.281419
_cell_angle_alpha 90.000000
_cell_angle_beta 90.000000
_cell_angle_gamma 90.000000
_cell_volume 1599.783770
_symmetry_space_group_name_H-M "P B C N"
_symmetry_group_IT_number 60
_symmetry_cell_setting 'orthorhombic'
loop_
_space_group_symop_operation_xyz
x,y,z
1/2-x,1/2-y,1/2+z
1/2+x,1/2-y,-z
-x,y,1/2-z
-x,-y,-z
1/2+x,1/2+y,1/2-z
1/2-x,1/2+y,z
x,-y,1/2+z
loop_
_atom_site_type_symbol
_atom_site_label
_atom_site_fract_x
_atom_site_fract_y
_atom_site_fract_z
Si Si1 0.595336 0.876547 0.417372
Si Si2 0.340781 0.674155 0.184087
Si Si3 0.318807 0.548774 0.755773
Si Si4 0.836499 0.563888 0.403037
Si Si5 0.371780 0.245335 0.386607
O O1 0.500000 0.874321 0.250000
O O2 0.765569 0.897922 0.364940
O O3 0.508283 0.925523 0.530149
O O4 0.590282 0.812688 0.504101
O O5 0.500000 0.649139 0.250000
O O6 0.211028 0.623820 0.191610
O O7 0.287062 0.729130 0.296576
O O8 0.356437 0.698700 0.003977
O O9 0.500000 0.535808 0.750000
O O10 0.211342 0.493519 0.699060
O O11 0.271381 0.562712 0.938277
O O12 0.500000 0.253966 0.250000
#
# Coordination Sequence:
#
# PCOD9457830 Si02
#       5
#     8   8   8   8   8
#     4  10  24  46  73 104 146 194 248 298 370 447
#     4  12  28  45  73 107 146 188 249 305 381 437
#     4  11  25  42  73 103 149 187 250 300 370 429
#     4  11  25  46  68 106 145 198 239 307 362 451
#     4  12  26  48  75 104 147 191 245 305 371 451
#
# _framework density 25.00338
#
# number of rings (size 3 to 8) (size 9 to 14) (size 15 to 20)
#    0.000    0.800    2.000    3.600   11.200    0.800 
#    0.000    0.000    0.000    0.000    0.000    0.000 
#    0.000    0.000    0.000    0.000    0.000    0.000 
#
# Total GULP energy -224433.102905 kJ/mol
# GULP energy per Si atom -5610.827573 kJ/mol
# Density = 2.494647 g / cm^3
# Si number density = 25.003380 Si / 1000 Ang^3
#
#
#
# Elastic Constant Matrix: (Units=GPa)
#
#
# Indices 1 2 3 4 5 6 
#
# 1 89.5490 8.8770 44.8840 0.0000 0.0000 0.0000
# 2 8.8770 83.9035 40.6686 0.0000 0.0000 0.0000
# 3 44.8840 40.6686 99.9484 0.0000 0.0000 0.0000
# 4 0.0000 0.0000 0.0000 36.7206 0.0000 0.0000
# 5 0.0000 0.0000 0.0000 0.0000 42.1488 0.0000
# 6 0.0000 0.0000 0.0000 0.0000 0.0000 21.8778
#
#
#
# Elastic Compliance Matrix: (Units=1/GPa)
#
#
# Indices 1 2 3 4 5 6 
#
# 1 0.014688 0.002047 -0.007429 0.000000 0.000000 0.000000
# 2 0.002047 0.015132 -0.007076 0.000000 0.000000 0.000000
# 3 -0.007429 -0.007076 0.016220 0.000000 0.000000 0.000000
# 4 0.000000 0.000000 0.000000 0.027233 0.000000 0.000000
# 5 0.000000 0.000000 0.000000 0.000000 0.023725 0.000000
# 6 0.000000 0.000000 0.000000 0.000000 0.000000 0.045709
#
#
# Mechanical properties :
#
#
# Convention : Reuss Voigt Hill
#
# Bulk Modulus (GPa) = 47.34023 51.36223 49.35123
# Shear Modulus (GPa) = 28.62644 32.08086 30.35365
#
# Velocity S-wave (km/s) = 3.38731 3.58587 3.48800
# Velocity P-wave (km/s) = 5.85433 6.14258 6.00019
#
# Compressibility (1/GPa) = 0.02112368
#
# Stress axis : x y z
#
# Youngs Moduli (GPa) = 68.08493 66.08596 61.65077
#
# Poissons Ratio (x) = -0.13526 0.45798
# Poissons Ratio (y) = -0.13935 0.43625
# Poissons Ratio (z) = 0.50577 0.46764
#
# Static dielectric constant tensor:
#      x y z
#    x 1.937320 0.000000 0.000000 
#    y 0.000000 1.931610 0.000000 
#    z 0.000000 0.000000 2.021740 
# 
# From -- ./inp_files/3815.got.cif
#   From: 2010.05.17/outbox.cif.g08.bks.cpg/sg60_2_cif.got.tgz:3815.got - 2010.06.03 14:59:27.
