data_PCOD9457858
_publ_section_title
;
Structure prediction by ZEFSAII (Michael W. Deem and Ramdas Pophale) SiO2 
 PCOD9457858
Probable space group: P B C N
;
_chemical_formula_sum "Si O2"
_cell_formula_units_Z 32
_cell_length_a 5.376194
_cell_length_b 17.830904
_cell_length_c 12.930128
_cell_angle_alpha 90.000000
_cell_angle_beta 90.000000
_cell_angle_gamma 90.000000
_cell_volume 1239.513091
_symmetry_space_group_name_H-M "P B C N"
_symmetry_group_IT_number 60
_symmetry_cell_setting 'orthorhombic'
loop_
_space_group_symop_operation_xyz
x,y,z
1/2-x,1/2-y,1/2+z
1/2+x,1/2-y,-z
-x,y,1/2-z
-x,-y,-z
1/2+x,1/2+y,1/2-z
1/2-x,1/2+y,z
x,-y,1/2+z
loop_
_atom_site_type_symbol
_atom_site_label
_atom_site_fract_x
_atom_site_fract_y
_atom_site_fract_z
Si Si1 0.000000 0.832976 0.250000
Si Si2 0.785029 0.546881 0.633802
Si Si3 0.130346 0.583893 0.093643
Si Si4 0.091137 0.732110 0.443995
Si Si5 0.500000 0.423476 0.750000
O O1 0.226037 0.888467 0.283351
O O2 0.982020 0.780085 0.349066
O O3 0.742512 0.576927 0.518164
O O4 0.600835 0.480102 0.663291
O O5 0.041617 0.499333 0.627608
O O6 0.290113 0.618548 0.186911
O O7 0.909479 0.643160 0.077180
O O8 0.372289 0.755889 0.470923
#
# Coordination Sequence:
#
# PCOD9457858 Si02
#       5
#     4   8   8   8   4
#     4  11  26  54  80 114 163 212 274 343 418 486
#     4  10  24  48  73 110 152 210 264 334 397 488
#     4  11  25  46  77 111 159 205 273 331 406 488
#     4  12  30  53  81 118 167 217 273 336 418 490
#     4  11  24  40  76 112 145 198 264 331 398 470
#
# _framework density 25.816586999999998
#
# number of rings (size 3 to 8) (size 9 to 14) (size 15 to 20)
#    0.000    1.000    2.500    1.500    7.000   11.000 
#    0.000    0.000    0.000    0.000    0.000    0.000 
#    0.000    0.000    0.000    0.000    0.000    0.000 
#
# Total GULP energy -178825.553556 kJ/mol
# GULP energy per Si atom -5588.298549 kJ/mol
# Density = 2.575783 g / cm^3
# Si number density = 25.816587 Si / 1000 Ang^3
#
#
#
# Elastic Constant Matrix: (Units=GPa)
#
#
# Indices 1 2 3 4 5 6 
#
# 1 74.4802 5.8597 28.4193 0.0000 0.0000 0.0000
# 2 5.8597 119.8181 39.2593 0.0000 0.0000 0.0000
# 3 28.4193 39.2593 101.1245 0.0000 0.0000 0.0000
# 4 0.0000 0.0000 0.0000 36.4507 0.0000 0.0000
# 5 0.0000 0.0000 0.0000 0.0000 42.1139 0.0000
# 6 0.0000 0.0000 0.0000 0.0000 0.0000 15.8787
#
#
#
# Elastic Compliance Matrix: (Units=1/GPa)
#
#
# Indices 1 2 3 4 5 6 
#
# 1 0.015097 0.000747 -0.004533 0.000000 0.000000 0.000000
# 2 0.000747 0.009599 -0.003937 0.000000 0.000000 0.000000
# 3 -0.004533 -0.003937 0.012691 0.000000 0.000000 0.000000
# 4 0.000000 0.000000 0.000000 0.027434 0.000000 0.000000
# 5 0.000000 0.000000 0.000000 0.000000 0.023745 0.000000
# 6 0.000000 0.000000 0.000000 0.000000 0.000000 0.062977
#
#
# Mechanical properties :
#
#
# Convention : Reuss Voigt Hill
#
# Bulk Modulus (GPa) = 45.57377 49.16660 47.37018
# Shear Modulus (GPa) = 28.68560 33.68096 31.18328
#
# Velocity S-wave (km/s) = 3.33698 3.61588 3.47922
# Velocity P-wave (km/s) = 5.70425 6.04307 5.87610
#
# Compressibility (1/GPa) = 0.02194245
#
# Stress axis : x y z
#
# Youngs Moduli (GPa) = 66.23749 104.17406 78.79626
#
# Poissons Ratio (x) = -0.07780 0.35716
# Poissons Ratio (y) = -0.04947 0.31019
# Poissons Ratio (z) = 0.30024 0.41009
#
# Static dielectric constant tensor:
#      x y z
#    x 2.233900 0.000000 0.000000 
#    y 0.000000 1.962980 0.000000 
#    z 0.000000 0.000000 2.049740 
# 
# From -- ./inp_files/13593.got.cif
#   From: 2010.05.17/outbox.cif.g08.bks.cpg/sg60_7_cif.got.tgz:13593.got - 2010.06.03 14:59:27.
