data_PCOD9457088
_publ_section_title
;
Structure prediction by ZEFSAII (Michael W. Deem and Ramdas Pophale) SiO2 
 PCOD9457088
Probable space group: P B C N
;
_chemical_formula_sum "Si O2"
_cell_formula_units_Z 52
_cell_length_a 19.076331
_cell_length_b 7.772548
_cell_length_c 15.578947
_cell_angle_alpha 90.000000
_cell_angle_beta 90.000000
_cell_angle_gamma 90.000000
_cell_volume 2309.916930
_symmetry_space_group_name_H-M "P B C N"
_symmetry_group_IT_number 60
_symmetry_cell_setting 'orthorhombic'
loop_
_space_group_symop_operation_xyz
x,y,z
1/2-x,1/2-y,1/2+z
1/2+x,1/2-y,-z
-x,y,1/2-z
-x,-y,-z
1/2+x,1/2+y,1/2-z
1/2-x,1/2+y,z
x,-y,1/2+z
loop_
_atom_site_type_symbol
_atom_site_label
_atom_site_fract_x
_atom_site_fract_y
_atom_site_fract_z
Si Si1 0.970771 0.770900 0.068401
Si Si2 0.840764 0.568290 0.122089
Si Si3 0.000000 0.759631 0.250000
Si Si4 0.376387 0.341440 0.590131
Si Si5 0.876164 0.502536 0.307076
Si Si6 0.752904 0.711456 0.532367
Si Si7 0.130548 0.208695 0.574209
O O1 0.919428 0.608920 0.089302
O O2 0.973742 0.856851 0.164254
O O3 0.051984 0.740890 0.045224
O O4 0.933061 0.856836 0.987440
O O5 0.839535 0.485929 0.215484
O O6 0.794835 0.741568 0.114743
O O7 0.798633 0.453506 0.055633
O O8 0.941299 0.628079 0.284616
O O9 0.393639 0.180606 0.651207
O O10 0.302998 0.297250 0.544334
O O11 0.373197 0.532779 0.629349
O O12 0.838148 0.628233 0.374797
O O13 0.816885 0.834721 0.503032
#
# Coordination Sequence:
#
# PCOD9457088 Si02
#       7
#     8   8   4   8   8   8   8
#     4   9  20  39  66  93 129 165 218 268 332 383
#     4  10  22  43  61  91 133 178 211 278 337 397
#     4   8  18  40  62  92 134 174 204 276 342 384
#     4  11  23  41  67 100 127 174 225 273 321 405
#     4  10  23  41  65  95 136 171 223 274 333 395
#     4  11  22  42  64  89 133 173 224 270 334 396
#     4  11  22  41  69  97 126 173 218 279 324 394
#
# _framework density 22.511634000000001
#
# number of rings (size 3 to 8) (size 9 to 14) (size 15 to 20)
#    0.000    1.846    1.538    2.308    0.000    8.000 
#    2.769    6.154    0.000    0.000    0.000    0.000 
#    0.000    0.000    0.000    0.000    0.000    0.000 
#
# Total GULP energy -289476.831036 kJ/mol
# GULP energy per Si atom -5566.862135 kJ/mol
# Density = 2.246040 g / cm^3
# Si number density = 22.511634 Si / 1000 Ang^3
#
#
#
# Elastic Constant Matrix: (Units=GPa)
#
#
# Indices 1 2 3 4 5 6 
#
# 1 120.1354 -1.9450 35.3478 0.0000 0.0000 0.0000
# 2 -1.9450 84.0448 16.4717 0.0000 0.0000 0.0000
# 3 35.3478 16.4717 81.7756 0.0000 0.0000 0.0000
# 4 0.0000 0.0000 0.0000 18.0307 0.0000 0.0000
# 5 0.0000 0.0000 0.0000 0.0000 25.6098 0.0000
# 6 0.0000 0.0000 0.0000 0.0000 0.0000 19.1280
#
#
#
# Elastic Compliance Matrix: (Units=1/GPa)
#
#
# Indices 1 2 3 4 5 6 
#
# 1 0.009630 0.001081 -0.004381 0.000000 0.000000 0.000000
# 2 0.001081 0.012509 -0.002987 0.000000 0.000000 0.000000
# 3 -0.004381 -0.002987 0.014724 0.000000 0.000000 0.000000
# 4 0.000000 0.000000 0.000000 0.055461 0.000000 0.000000
# 5 0.000000 0.000000 0.000000 0.000000 0.039048 0.000000
# 6 0.000000 0.000000 0.000000 0.000000 0.000000 0.052279
#
#
# Mechanical properties :
#
#
# Convention : Reuss Voigt Hill
#
# Bulk Modulus (GPa) = 41.16826 42.85610 42.01218
# Shear Modulus (GPa) = 24.47140 28.29245 26.38193
#
# Velocity S-wave (km/s) = 3.30063 3.54897 3.42705
# Velocity P-wave (km/s) = 5.73174 5.98934 5.86196
#
# Compressibility (1/GPa) = 0.02429056
#
# Stress axis : x y z
#
# Youngs Moduli (GPa) = 103.83829 79.94330 67.91736
#
# Poissons Ratio (x) = -0.08645 0.29752
# Poissons Ratio (y) = -0.11229 0.20287
# Poissons Ratio (z) = 0.45487 0.23879
#
# Static dielectric constant tensor:
#      x y z
#    x 1.898020 0.000000 0.000000 
#    y 0.000000 1.985650 0.000000 
#    z 0.000000 0.000000 1.935200 
# 
# From -- ./inp_files/17681.got.cif
#   From: 2010.05.17/outbox.cif.g08.bks.cpg/sg60_9_cif.got.tgz:17681.got - 2010.06.03 14:59:27.
