data_PCOD9457837
_publ_section_title
;
Structure prediction by ZEFSAII (Michael W. Deem and Ramdas Pophale) SiO2 
 PCOD9457837
Probable space group: P B C N
;
_chemical_formula_sum "Si O2"
_cell_formula_units_Z 32
_cell_length_a 15.530813
_cell_length_b 7.687543
_cell_length_c 10.332362
_cell_angle_alpha 90.000000
_cell_angle_beta 90.000000
_cell_angle_gamma 90.000000
_cell_volume 1233.619887
_symmetry_space_group_name_H-M "P B C N"
_symmetry_group_IT_number 60
_symmetry_cell_setting 'orthorhombic'
loop_
_space_group_symop_operation_xyz
x,y,z
1/2-x,1/2-y,1/2+z
1/2+x,1/2-y,-z
-x,y,1/2-z
-x,-y,-z
1/2+x,1/2+y,1/2-z
1/2-x,1/2+y,z
x,-y,1/2+z
loop_
_atom_site_type_symbol
_atom_site_label
_atom_site_fract_x
_atom_site_fract_y
_atom_site_fract_z
Si Si1 0.422024 0.793906 0.919112
Si Si2 0.347726 0.507513 0.257592
Si Si3 0.421762 0.808963 0.399725
Si Si4 0.737000 0.637196 0.995616
O O1 0.403087 0.656900 0.806031
O O2 0.437634 0.990109 0.869859
O O3 0.501357 0.740952 0.009507
O O4 0.335046 0.804953 0.005004
O O5 0.403423 0.682537 0.278579
O O6 0.276254 0.536112 0.368939
O O7 0.298260 0.466642 0.127112
O O8 0.335164 0.788106 0.486478
#
# Coordination Sequence:
#
# PCOD9457837 Si02
#       4
#     8   8   8   8
#     4  11  21  47  74 107 146 194 252 303 368 446
#     4  10  24  47  72 108 152 192 244 308 376 444
#     4   9  24  45  74 109 142 200 247 306 371 444
#     4  10  24  46  75 107 150 195 244 311 370 453
#
# _framework density 25.939919
#
# number of rings (size 3 to 8) (size 9 to 14) (size 15 to 20)
#    1.500    0.500    0.000    2.250    0.000    5.000 
#    4.500    2.500    0.000    0.000    0.000    0.000 
#    0.000    0.000    0.000    0.000    0.000    0.000 
#
# Total GULP energy -179093.333653 kJ/mol
# GULP energy per Si atom -5596.666677 kJ/mol
# Density = 2.588088 g / cm^3
# Si number density = 25.939919 Si / 1000 Ang^3
#
#
#
# Elastic Constant Matrix: (Units=GPa)
#
#
# Indices 1 2 3 4 5 6 
#
# 1 162.4361 -7.4428 33.5736 0.0000 0.0000 0.0000
# 2 -7.4428 95.0771 37.5245 0.0000 0.0000 0.0000
# 3 33.5736 37.5245 118.9319 0.0000 0.0000 0.0000
# 4 0.0000 0.0000 0.0000 -11.1152 0.0000 0.0000
# 5 0.0000 0.0000 0.0000 0.0000 42.3585 0.0000
# 6 0.0000 0.0000 0.0000 0.0000 0.0000 25.4586
#
#
#
# Elastic Compliance Matrix: (Units=1/GPa)
#
#
# Indices 1 2 3 4 5 6 
#
# 1 0.006709 0.001454 -0.002353 0.000000 0.000000 0.000000
# 2 0.001454 0.012329 -0.004300 0.000000 0.000000 0.000000
# 3 -0.002353 -0.004300 0.010429 0.000000 0.000000 0.000000
# 4 0.000000 0.000000 0.000000 -0.089967 0.000000 0.000000
# 5 0.000000 0.000000 0.000000 0.000000 0.023608 0.000000
# 6 0.000000 0.000000 0.000000 0.000000 0.000000 0.039280
#
#
# Mechanical properties :
#
#
# Convention : Reuss Voigt Hill
#
# Bulk Modulus (GPa) = 52.44197 55.97286 54.20741
# Shear Modulus (GPa) = 261.20351 32.19302 146.69826
#
# Velocity S-wave (km/s) = 10.04560 3.52669 7.52834
# Velocity P-wave (km/s) = 12.44238 6.18127 9.82397
#
# Compressibility (1/GPa) = 0.01906870
#
# Stress axis : x y z
#
# Youngs Moduli (GPa) = 149.05062 81.11107 95.88571
#
# Poissons Ratio (x) = -0.11791 0.22558
# Poissons Ratio (y) = -0.21668 0.41233
# Poissons Ratio (z) = 0.35066 0.34880
#
# Static dielectric constant tensor:
#      x y z
#    x 2.036930 0.000000 0.000000 
#    y 0.000000 2.139890 0.000000 
#    z 0.000000 0.000000 1.989270 
# 
# From -- ./inp_files/11508.got.cif
#   From: 2010.05.17/outbox.cif.g08.bks.cpg/sg60_6_cif.got.tgz:11508.got - 2010.06.03 14:59:27.
