data_PCOD9457030
_publ_section_title
;
Structure prediction by ZEFSAII (Michael W. Deem and Ramdas Pophale) SiO2 
 PCOD9457030
Probable space group: P B C N
;
_chemical_formula_sum "Si O2"
_cell_formula_units_Z 64
_cell_length_a 12.711998
_cell_length_b 25.902488
_cell_length_c 8.651711
_cell_angle_alpha 90.000000
_cell_angle_beta 90.000000
_cell_angle_gamma 90.000000
_cell_volume 2848.769434
_symmetry_space_group_name_H-M "P B C N"
_symmetry_group_IT_number 60
_symmetry_cell_setting 'orthorhombic'
loop_
_space_group_symop_operation_xyz
x,y,z
1/2-x,1/2-y,1/2+z
1/2+x,1/2-y,-z
-x,y,1/2-z
-x,-y,-z
1/2+x,1/2+y,1/2-z
1/2-x,1/2+y,z
x,-y,1/2+z
loop_
_atom_site_type_symbol
_atom_site_label
_atom_site_fract_x
_atom_site_fract_y
_atom_site_fract_z
Si Si1 0.122846 0.713356 0.965965
Si Si2 0.098587 0.935845 0.469482
Si Si3 0.131801 0.951138 0.104860
Si Si4 0.476760 0.943907 0.432821
Si Si5 0.617365 0.225844 0.987131
Si Si6 0.207443 0.387227 0.595245
Si Si7 0.281260 0.733637 0.714981
Si Si8 0.679956 0.110793 0.045079
O O1 0.147576 0.667140 0.082918
O O2 0.150030 0.766474 0.057246
O O3 0.000200 0.715832 0.933724
O O4 0.203221 0.700453 0.826373
O O5 0.120851 0.944941 0.288367
O O6 0.173800 0.891408 0.533937
O O7 0.972923 0.927892 0.477319
O O8 0.129103 0.988465 0.559721
O O9 0.236201 0.922118 0.051227
O O10 0.500000 0.942464 0.250000
O O11 0.361926 0.925473 0.487327
O O12 0.562043 0.907237 0.512063
O O13 0.500000 0.000000 0.500000
O O14 0.634701 0.247793 0.158196
O O15 0.678361 0.170779 0.996149
O O16 0.680322 0.262251 0.866997
O O17 0.204725 0.399712 0.776028
#
# Coordination Sequence:
#
# PCOD9457030 Si02
#       8
#     8   8   8   8   8   8   8   8
#     4  11  23  44  71  97 134 174 221 281 352 409
#     4  10  22  42  66  93 131 179 226 275 327 389
#     4  10  22  42  66  93 131 179 226 275 327 389
#     4  12  26  42  64 102 142 180 222 274 330 408
#     4  11  23  44  71  97 134 174 221 281 352 409
#     4  12  24  40  68  98 134 178 221 275 334 409
#     4  10  24  42  68 100 126 174 224 272 336 424
#     4  12  24  40  68  98 134 178 221 275 334 409
#
# _framework density 22.46584
#
# number of rings (size 3 to 8) (size 9 to 14) (size 15 to 20)
#    0.000    1.000    2.500    4.125    3.500    1.500 
#    0.000    7.500    0.000    0.000    0.000    0.000 
#    0.000    0.000    0.000    0.000    0.000    0.000 
#
# Total GULP energy -356572.519111 kJ/mol
# GULP energy per Si atom -5571.445611 kJ/mol
# Density = 2.241471 g / cm^3
# Si number density = 22.465840 Si / 1000 Ang^3
#
#
#
# Elastic Constant Matrix: (Units=GPa)
#
#
# Indices 1 2 3 4 5 6 
#
# 1 79.9916 19.1057 -13.0824 0.0000 0.0000 0.0000
# 2 19.1057 29.2606 -10.0803 0.0000 0.0000 0.0000
# 3 -13.0824 -10.0803 87.4452 0.0000 0.0000 0.0000
# 4 0.0000 0.0000 0.0000 14.5651 0.0000 0.0000
# 5 0.0000 0.0000 0.0000 0.0000 30.8125 0.0000
# 6 0.0000 0.0000 0.0000 0.0000 0.0000 34.9881
#
#
#
# Elastic Compliance Matrix: (Units=1/GPa)
#
#
# Indices 1 2 3 4 5 6 
#
# 1 0.014922 -0.009346 0.001155 0.000000 0.000000 0.000000
# 2 -0.009346 0.041442 0.003379 0.000000 0.000000 0.000000
# 3 0.001155 0.003379 0.011998 0.000000 0.000000 0.000000
# 4 0.000000 0.000000 0.000000 0.068657 0.000000 0.000000
# 5 0.000000 0.000000 0.000000 0.000000 0.032454 0.000000
# 6 0.000000 0.000000 0.000000 0.000000 0.000000 0.028581
#
#
# Mechanical properties :
#
#
# Convention : Reuss Voigt Hill
#
# Bulk Modulus (GPa) = 17.02426 20.95371 18.98899
# Shear Modulus (GPa) = 22.00146 29.45676 25.72911
#
# Velocity S-wave (km/s) = 3.13282 3.62495 3.38783
# Velocity P-wave (km/s) = 4.54757 5.18339 4.87585
#
# Compressibility (1/GPa) = 0.05873971
#
# Stress axis : x y z
#
# Youngs Moduli (GPa) = 67.01335 24.13014 83.34665
#
# Poissons Ratio (x) = 0.22551 -0.09628
# Poissons Ratio (y) = 0.62628 -0.28164
# Poissons Ratio (z) = -0.07741 -0.08154
#
# Static dielectric constant tensor:
#      x y z
#    x 1.864510 0.000000 0.000000 
#    y 0.000000 1.872100 0.000000 
#    z 0.000000 0.000000 1.982200 
# 
# From -- ./inp_files/5335.got.cif
#   From: 2010.05.17/outbox.cif.g08.bks.cpg/sg60_3_cif.got.tgz:5335.got - 2010.06.03 14:59:27.
