data_PCOD9457100
_publ_section_title
;
Structure prediction by ZEFSAII (Michael W. Deem and Ramdas Pophale) SiO2 
 PCOD9457100
Probable space group: P B C N
;
_chemical_formula_sum "Si O2"
_cell_formula_units_Z 40
_cell_length_a 13.532939
_cell_length_b 12.989488
_cell_length_c 9.224804
_cell_angle_alpha 90.000000
_cell_angle_beta 90.000000
_cell_angle_gamma 90.000000
_cell_volume 1621.590923
_symmetry_space_group_name_H-M "P B C N"
_symmetry_group_IT_number 60
_symmetry_cell_setting 'orthorhombic'
loop_
_space_group_symop_operation_xyz
x,y,z
1/2-x,1/2-y,1/2+z
1/2+x,1/2-y,-z
-x,y,1/2-z
-x,-y,-z
1/2+x,1/2+y,1/2-z
1/2-x,1/2+y,z
x,-y,1/2+z
loop_
_atom_site_type_symbol
_atom_site_label
_atom_site_fract_x
_atom_site_fract_y
_atom_site_fract_z
Si Si1 0.817928 0.750936 0.909071
Si Si2 0.315689 0.049603 0.393823
Si Si3 0.600861 0.605956 0.175134
Si Si4 0.382557 0.869751 0.596441
Si Si5 0.488778 0.684314 0.916020
O O1 0.871647 0.785597 0.758332
O O2 0.706590 0.787796 0.892465
O O3 0.816335 0.638850 0.982132
O O4 0.878383 0.822094 0.023244
O O5 0.203180 0.044123 0.330644
O O6 0.380597 0.076607 0.253032
O O7 0.355362 0.948764 0.471307
O O8 0.500000 0.566829 0.250000
O O9 0.564109 0.621024 0.012622
O O10 0.478596 0.803316 0.562799
O O11 0.500000 0.661244 0.750000
#
# Coordination Sequence:
#
# PCOD9457100 Si02
#       5
#     8   8   8   8   8
#     4  10  22  43  65  91 131 177 216 271 324 386
#     4  11  23  41  66  96 138 173 216 275 325 390
#     4   9  21  41  67  92 130 177 223 270 330 382
#     4  11  25  40  65 100 132 171 224 261 334 391
#     4  11  21  40  66  96 129 169 217 265 322 393
#
# _framework density 24.667133
#
# number of rings (size 3 to 8) (size 9 to 14) (size 15 to 20)
#    0.000    1.600    4.000    0.000    2.800    2.400 
#    0.000   10.000    0.000    0.000    0.000    0.000 
#    0.000    0.000    0.000    0.000    0.000    0.000 
#
# Total GULP energy -223718.091565 kJ/mol
# GULP energy per Si atom -5592.952289 kJ/mol
# Density = 2.461099 g / cm^3
# Si number density = 24.667133 Si / 1000 Ang^3
#
#
#
# Elastic Constant Matrix: (Units=GPa)
#
#
# Indices 1 2 3 4 5 6 
#
# 1 107.1871 10.9162 19.9381 0.0000 0.0000 0.0000
# 2 10.9162 61.7222 11.0338 0.0000 0.0000 0.0000
# 3 19.9381 11.0338 121.8527 0.0000 0.0000 0.0000
# 4 0.0000 0.0000 0.0000 29.1257 0.0000 0.0000
# 5 0.0000 0.0000 0.0000 0.0000 29.7979 0.0000
# 6 0.0000 0.0000 0.0000 0.0000 0.0000 11.6216
#
#
#
# Elastic Compliance Matrix: (Units=1/GPa)
#
#
# Indices 1 2 3 4 5 6 
#
# 1 0.009751 -0.001463 -0.001463 0.000000 0.000000 0.000000
# 2 -0.001463 0.016688 -0.001272 0.000000 0.000000 0.000000
# 3 -0.001463 -0.001272 0.008561 0.000000 0.000000 0.000000
# 4 0.000000 0.000000 0.000000 0.034334 0.000000 0.000000
# 5 0.000000 0.000000 0.000000 0.000000 0.033559 0.000000
# 6 0.000000 0.000000 0.000000 0.000000 0.000000 0.086047
#
#
# Mechanical properties :
#
#
# Convention : Reuss Voigt Hill
#
# Bulk Modulus (GPa) = 37.58802 41.61534 39.60168
# Shear Modulus (GPa) = 24.24794 30.70063 27.47428
#
# Velocity S-wave (km/s) = 3.13869 3.53171 3.34099
# Velocity P-wave (km/s) = 5.32976 5.79120 5.56527
#
# Compressibility (1/GPa) = 0.02660422
#
# Stress axis : x y z
#
# Youngs Moduli (GPa) = 102.55778 59.92432 116.80659
#
# Poissons Ratio (x) = 0.08767 0.17088
# Poissons Ratio (y) = 0.15004 0.14854
# Poissons Ratio (z) = 0.15004 0.07621
#
# Static dielectric constant tensor:
#      x y z
#    x 1.929270 0.000000 0.000000 
#    y 0.000000 2.004680 0.000000 
#    z 0.000000 0.000000 1.946780 
# 
# From -- ./inp_files/5664.got.cif
#   From: 2010.05.17/outbox.cif.g08.bks.cpg/sg60_3_cif.got.tgz:5664.got - 2010.06.03 14:59:27.
