data_PCOD9457285
_publ_section_title
;
Structure prediction by ZEFSAII (Michael W. Deem and Ramdas Pophale) SiO2 
 PCOD9457285
Probable space group: P B C N
;
_chemical_formula_sum "Si O2"
_cell_formula_units_Z 56
_cell_length_a 14.379021
_cell_length_b 8.843849
_cell_length_c 22.526665
_cell_angle_alpha 90.000000
_cell_angle_beta 90.000000
_cell_angle_gamma 90.000000
_cell_volume 2864.623415
_symmetry_space_group_name_H-M "P B C N"
_symmetry_group_IT_number 60
_symmetry_cell_setting 'orthorhombic'
loop_
_space_group_symop_operation_xyz
x,y,z
1/2-x,1/2-y,1/2+z
1/2+x,1/2-y,-z
-x,y,1/2-z
-x,-y,-z
1/2+x,1/2+y,1/2-z
1/2-x,1/2+y,z
x,-y,1/2+z
loop_
_atom_site_type_symbol
_atom_site_label
_atom_site_fract_x
_atom_site_fract_y
_atom_site_fract_z
Si Si1 0.210324 0.065395 0.075387
Si Si2 0.157151 0.119476 0.937696
Si Si3 0.625085 0.141616 0.890447
Si Si4 0.675064 0.964761 0.604933
Si Si5 0.042791 0.347499 0.472959
Si Si6 0.049335 0.158894 0.588328
Si Si7 0.999986 0.423471 0.819134
O O1 0.196783 0.219399 0.112592
O O2 0.311773 0.991186 0.081294
O O3 0.132816 0.952529 0.101230
O O4 0.187057 0.089187 0.005635
O O5 0.168547 0.299382 0.925294
O O6 0.049899 0.081504 0.925020
O O7 0.219587 0.019756 0.893144
O O8 0.542712 0.206456 0.932441
O O9 0.568456 0.062947 0.836828
O O10 0.606259 0.957416 0.660853
O O11 0.628295 0.096448 0.565457
O O12 0.071057 0.239481 0.525664
O O13 0.000000 0.500000 0.500000
O O14 0.032285 0.284137 0.639089
O O15 0.000000 0.389875 0.750000
#
# Coordination Sequence:
#
# PCOD9457285 Si02
#       7
#     8   8   8   8   8   8   8
#     4  12  23  35  58  96 128 159 188 247 306 377
#     4  11  21  34  53  93 128 158 181 239 306 374
#     4  11  23  36  59  89 123 157 201 238 305 362
#     4  10  23  34  59  86 122 156 195 238 305 362
#     4  11  17  35  54  86 123 156 187 242 298 367
#     4  11  23  36  60  91 123 162 198 243 306 361
#     4  10  23  46  65  79 112 164 212 258 298 348
#
# _framework density 19.548817
#
# number of rings (size 3 to 8) (size 9 to 14) (size 15 to 20)
#    0.000    1.143    5.714    3.000    4.000    1.143 
#    0.000    6.429    0.000    0.000    0.000    0.000 
#    0.000    0.000    0.000    0.000    0.000    0.000 
#
# Total GULP energy -312610.042795 kJ/mol
# GULP energy per Si atom -5582.322193 kJ/mol
# Density = 1.950432 g / cm^3
# Si number density = 19.548817 Si / 1000 Ang^3
#
#
#
# Elastic Constant Matrix: (Units=GPa)
#
#
# Indices 1 2 3 4 5 6 
#
# 1 80.0076 32.0335 14.2362 0.0000 0.0000 0.0000
# 2 32.0335 65.4698 17.4982 0.0000 0.0000 0.0000
# 3 14.2362 17.4982 88.4575 0.0000 0.0000 0.0000
# 4 0.0000 0.0000 0.0000 7.2802 0.0000 0.0000
# 5 0.0000 0.0000 0.0000 0.0000 14.1857 0.0000
# 6 0.0000 0.0000 0.0000 0.0000 0.0000 42.8878
#
#
#
# Elastic Compliance Matrix: (Units=1/GPa)
#
#
# Indices 1 2 3 4 5 6 
#
# 1 0.015637 -0.007368 -0.001059 0.000000 0.000000 0.000000
# 2 -0.007368 0.019599 -0.002691 0.000000 0.000000 0.000000
# 3 -0.001059 -0.002691 0.012008 0.000000 0.000000 0.000000
# 4 0.000000 0.000000 0.000000 0.137360 0.000000 0.000000
# 5 0.000000 0.000000 0.000000 0.000000 0.070494 0.000000
# 6 0.000000 0.000000 0.000000 0.000000 0.000000 0.023317
#
#
# Mechanical properties :
#
#
# Convention : Reuss Voigt Hill
#
# Bulk Modulus (GPa) = 39.98882 40.16341 40.07612
# Shear Modulus (GPa) = 16.18199 24.21520 20.19859
#
# Velocity S-wave (km/s) = 2.88023 3.52334 3.21789
# Velocity P-wave (km/s) = 5.61794 6.09440 5.86101
#
# Compressibility (1/GPa) = 0.02500699
#
# Stress axis : x y z
#
# Youngs Moduli (GPa) = 63.94974 51.02420 83.28024
#
# Poissons Ratio (x) = 0.37595 0.08821
# Poissons Ratio (y) = 0.47118 0.22411
# Poissons Ratio (z) = 0.06773 0.13731
#
# Static dielectric constant tensor:
#      x y z
#    x 1.893580 0.000000 0.000000 
#    y 0.000000 1.687350 0.000000 
#    z 0.000000 0.000000 1.527500 
# 
# From -- ./inp_files/22904.got.cif
#   From: 2010.05.17/outbox.cif.g08.bks.cpg/sg60_12_cif.got.tgz:22904.got - 2010.06.03 14:59:27.
