data_PCOD9457109
_publ_section_title
;
Structure prediction by ZEFSAII (Michael W. Deem and Ramdas Pophale) SiO2 
 PCOD9457109
Probable space group: P B C N
;
_chemical_formula_sum "Si O2"
_cell_formula_units_Z 56
_cell_length_a 14.710749
_cell_length_b 8.612035
_cell_length_c 20.819357
_cell_angle_alpha 90.000000
_cell_angle_beta 90.000000
_cell_angle_gamma 90.000000
_cell_volume 2637.593622
_symmetry_space_group_name_H-M "P B C N"
_symmetry_group_IT_number 60
_symmetry_cell_setting 'orthorhombic'
loop_
_space_group_symop_operation_xyz
x,y,z
1/2-x,1/2-y,1/2+z
1/2+x,1/2-y,-z
-x,y,1/2-z
-x,-y,-z
1/2+x,1/2+y,1/2-z
1/2-x,1/2+y,z
x,-y,1/2+z
loop_
_atom_site_type_symbol
_atom_site_label
_atom_site_fract_x
_atom_site_fract_y
_atom_site_fract_z
Si Si1 0.326794 0.402504 0.155063
Si Si2 0.663378 0.356518 0.045661
Si Si3 0.590749 0.505121 0.215982
Si Si4 0.521576 0.073427 0.569995
Si Si5 0.991910 0.753107 0.120913
Si Si6 0.322093 0.310684 0.900718
Si Si7 0.659128 0.738825 0.405237
O O1 0.342724 0.437191 0.229986
O O2 0.401208 0.281705 0.127774
O O3 0.347955 0.566928 0.122592
O O4 0.228942 0.339666 0.135948
O O5 0.556871 0.323804 0.057694
O O6 0.722728 0.266325 0.099218
O O7 0.679715 0.538285 0.053687
O O8 0.692514 0.286172 0.978114
O O9 0.500000 0.575093 0.250000
O O10 0.551627 0.358626 0.176412
O O11 0.639332 0.622990 0.166791
O O12 0.530269 0.927778 0.618096
O O13 0.500000 0.000000 0.500000
O O14 0.610706 0.179411 0.571888
O O15 0.437396 0.178198 0.591359
#
# Coordination Sequence:
#
# PCOD9457109 Si02
#       7
#     8   8   8   8   8   8   8
#     4  11  25  43  69  97 135 179 224 282 329 400
#     4  11  23  39  65  99 134 179 217 283 336 410
#     4   9  21  47  69  94 133 180 234 274 327 396
#     4  12  25  41  67 103 137 176 217 277 342 407
#     4  10  22  43  66  96 133 176 223 271 335 391
#     4  11  25  42  67  97 136 177 228 273 337 402
#     4  12  25  40  67 102 137 172 225 275 350 395
#
# _framework density 21.231473000000001
#
# number of rings (size 3 to 8) (size 9 to 14) (size 15 to 20)
#    0.000    1.143    1.429    5.143    6.000    3.429 
#    0.000    9.286    0.000    0.000    0.000    0.000 
#    0.000    0.000    0.000    0.000    0.000    0.000 
#
# Total GULP energy -313057.885653 kJ/mol
# GULP energy per Si atom -5590.319387 kJ/mol
# Density = 2.118315 g / cm^3
# Si number density = 21.231473 Si / 1000 Ang^3
#
#
#
# Elastic Constant Matrix: (Units=GPa)
#
#
# Indices 1 2 3 4 5 6 
#
# 1 46.2665 -8.1244 0.5971 0.0000 0.0000 0.0000
# 2 -8.1244 92.9439 -5.7136 0.0000 0.0000 0.0000
# 3 0.5971 -5.7136 74.9480 0.0000 0.0000 0.0000
# 4 0.0000 0.0000 0.0000 21.1397 0.0000 0.0000
# 5 0.0000 0.0000 0.0000 0.0000 25.1447 0.0000
# 6 0.0000 0.0000 0.0000 0.0000 0.0000 30.4050
#
#
#
# Elastic Compliance Matrix: (Units=1/GPa)
#
#
# Indices 1 2 3 4 5 6 
#
# 1 0.021951 0.001917 -0.000029 0.000000 0.000000 0.000000
# 2 0.001917 0.010977 0.000822 0.000000 0.000000 0.000000
# 3 -0.000029 0.000822 0.013405 0.000000 0.000000 0.000000
# 4 0.000000 0.000000 0.000000 0.047304 0.000000 0.000000
# 5 0.000000 0.000000 0.000000 0.000000 0.039770 0.000000
# 6 0.000000 0.000000 0.000000 0.000000 0.000000 0.032889
#
#
# Mechanical properties :
#
#
# Convention : Reuss Voigt Hill
#
# Bulk Modulus (GPa) = 19.32243 20.85294 20.08769
# Shear Modulus (GPa) = 28.06961 30.49782 29.28371
#
# Velocity S-wave (km/s) = 3.63998 3.79416 3.71787
# Velocity P-wave (km/s) = 5.17557 5.38862 5.28317
#
# Compressibility (1/GPa) = 0.05175332
#
# Stress axis : x y z
#
# Youngs Moduli (GPa) = 45.55618 91.09747 74.59652
#
# Poissons Ratio (x) = -0.17463 0.00214
# Poissons Ratio (y) = -0.08733 -0.06129
# Poissons Ratio (z) = 0.00131 -0.07484
#
# Static dielectric constant tensor:
#      x y z
#    x 1.762090 0.000000 0.000000 
#    y 0.000000 1.737590 0.000000 
#    z 0.000000 0.000000 1.823130 
# 
# From -- ./inp_files/22928.got.cif
#   From: 2010.05.17/outbox.cif.g08.bks.cpg/sg60_12_cif.got.tgz:22928.got - 2010.06.03 14:59:27.
