data_PCOD9457380
_publ_section_title
;
Structure prediction by ZEFSAII (Michael W. Deem and Ramdas Pophale) SiO2 
 PCOD9457380
Probable space group: P B C N
;
_chemical_formula_sum "Si O2"
_cell_formula_units_Z 32
_cell_length_a 7.905561
_cell_length_b 22.942599
_cell_length_c 8.519491
_cell_angle_alpha 90.000000
_cell_angle_beta 90.000000
_cell_angle_gamma 90.000000
_cell_volume 1545.215148
_symmetry_space_group_name_H-M "P B C N"
_symmetry_group_IT_number 60
_symmetry_cell_setting 'orthorhombic'
loop_
_space_group_symop_operation_xyz
x,y,z
1/2-x,1/2-y,1/2+z
1/2+x,1/2-y,-z
-x,y,1/2-z
-x,-y,-z
1/2+x,1/2+y,1/2-z
1/2-x,1/2+y,z
x,-y,1/2+z
loop_
_atom_site_type_symbol
_atom_site_label
_atom_site_fract_x
_atom_site_fract_y
_atom_site_fract_z
Si Si1 0.338730 0.615191 0.358432
Si Si2 0.373728 0.169290 0.077588
Si Si3 0.436837 0.939224 0.069256
Si Si4 0.474206 0.704386 0.924018
O O1 0.500000 0.593354 0.250000
O O2 0.200072 0.640187 0.236439
O O3 0.250092 0.572532 0.487925
O O4 0.407280 0.670429 0.454966
O O5 0.486625 0.227221 0.083820
O O6 0.465952 0.117594 0.990232
O O7 0.212748 0.191325 0.980518
O O8 0.500000 0.942534 0.250000
O O9 0.500000 0.000000 0.000000
O O10 0.500000 0.680088 0.750000
#
# Coordination Sequence:
#
# PCOD9457380 Si02
#       4
#     8   8   8   8
#     4  10  23  42  64  93 130 168 214 268 324 388
#     4  11  22  38  62  92 128 167 210 261 319 383
#     4  12  25  44  67  91 123 167 214 262 322 390
#     4  11  21  36  61  94 129 166 208 261 319 381
#
# _framework density 20.709088000000001
#
# number of rings (size 3 to 8) (size 9 to 14) (size 15 to 20)
#    0.000    1.000    0.000    8.250    0.000    3.000 
#    0.000   12.500    0.000    0.000    0.000    0.000 
#    0.000    0.000    0.000    0.000    0.000    0.000 
#
# Total GULP energy -178428.074669 kJ/mol
# GULP energy per Si atom -5575.877333 kJ/mol
# Density = 2.066195 g / cm^3
# Si number density = 20.709088 Si / 1000 Ang^3
#
#
#
# Elastic Constant Matrix: (Units=GPa)
#
#
# Indices 1 2 3 4 5 6 
#
# 1 93.3028 44.2133 49.6983 0.0000 0.0000 0.0000
# 2 44.2133 96.4996 38.9388 0.0000 0.0000 0.0000
# 3 49.6983 38.9388 168.8726 0.0000 0.0000 0.0000
# 4 0.0000 0.0000 0.0000 33.3653 0.0000 0.0000
# 5 0.0000 0.0000 0.0000 0.0000 35.1254 0.0000
# 6 0.0000 0.0000 0.0000 0.0000 0.0000 -506.3604
#
#
#
# Elastic Compliance Matrix: (Units=1/GPa)
#
#
# Indices 1 2 3 4 5 6 
#
# 1 0.015056 -0.005635 -0.003132 0.000000 0.000000 0.000000
# 2 -0.005635 0.013534 -0.001463 0.000000 0.000000 0.000000
# 3 -0.003132 -0.001463 0.007181 0.000000 0.000000 0.000000
# 4 0.000000 0.000000 0.000000 0.029971 0.000000 0.000000
# 5 0.000000 0.000000 0.000000 0.000000 0.028469 0.000000
# 6 0.000000 0.000000 0.000000 0.000000 0.000000 -0.001975
#
#
# Mechanical properties :
#
#
# Convention : Reuss Voigt Hill
#
# Bulk Modulus (GPa) = 65.30242 69.37509 67.33875
# Shear Modulus (GPa) = 42.44529 -72.51897 -15.03684
#
# Velocity S-wave (km/s) = 4.53216 -5.92402 -2.69754
# Velocity P-wave (km/s) = 7.68043 3.63585 4.78380
#
# Compressibility (1/GPa) = 0.01531337
#
# Stress axis : x y z
#
# Youngs Moduli (GPa) = 66.41906 73.88533 139.26606
#
# Poissons Ratio (x) = 0.41631 0.43613
# Poissons Ratio (y) = 0.37424 0.20369
# Poissons Ratio (z) = 0.20800 0.10806
#
# Static dielectric constant tensor:
#      x y z
#    x 1.780780 0.000000 0.000000 
#    y 0.000000 1.655800 0.000000 
#    z 0.000000 0.000000 1.819240 
# 
# From -- ./inp_files/3576.got.cif
#   From: 2010.05.17/outbox.cif.g08.bks.cpg/sg60_2_cif.got.tgz:3576.got - 2010.06.03 14:59:27.
