data_PCOD9457508
_publ_section_title
;
Structure prediction by ZEFSAII (Michael W. Deem and Ramdas Pophale) SiO2 
 PCOD9457508
Probable space group: P B C N
;
_chemical_formula_sum "Si O2"
_cell_formula_units_Z 40
_cell_length_a 8.061696
_cell_length_b 20.732406
_cell_length_c 10.227512
_cell_angle_alpha 90.000000
_cell_angle_beta 90.000000
_cell_angle_gamma 90.000000
_cell_volume 1709.409527
_symmetry_space_group_name_H-M "P B C N"
_symmetry_group_IT_number 60
_symmetry_cell_setting 'orthorhombic'
loop_
_space_group_symop_operation_xyz
x,y,z
1/2-x,1/2-y,1/2+z
1/2+x,1/2-y,-z
-x,y,1/2-z
-x,-y,-z
1/2+x,1/2+y,1/2-z
1/2-x,1/2+y,z
x,-y,1/2+z
loop_
_atom_site_type_symbol
_atom_site_label
_atom_site_fract_x
_atom_site_fract_y
_atom_site_fract_z
Si Si1 0.000000 0.858904 0.250000
Si Si2 0.321431 0.770941 0.265275
Si Si3 0.500000 0.860796 0.750000
Si Si4 0.189773 0.064838 0.934431
Si Si5 0.806917 0.041935 0.275268
Si Si6 0.324424 0.197861 0.039189
O O1 0.837023 0.815604 0.262198
O O2 0.021847 0.903408 0.377513
O O3 0.500000 0.804029 0.250000
O O4 0.306784 0.716966 0.152246
O O5 0.321256 0.752927 0.419063
O O6 0.335453 0.904748 0.750458
O O7 0.511587 0.814395 0.875871
O O8 0.240414 0.017987 0.817172
O O9 0.190577 0.027169 0.070145
O O10 0.292287 0.129033 0.970287
O O11 0.000000 0.061342 0.250000
#
# Coordination Sequence:
#
# PCOD9457508 Si02
#       6
#     4   8   4   8   8   8
#     4  10  23  46  68 100 148 172 233 306 328 424
#     4  11  26  45  73 101 137 190 236 277 362 421
#     4  10  25  46  72 104 144 176 235 296 340 414
#     4  10  23  44  68 102 138 182 232 284 351 404
#     4  11  23  43  70 100 137 186 231 282 348 416
#     4  10  25  46  69 106 140 184 232 295 347 418
#
# _framework density 23.399892000000001
#
# number of rings (size 3 to 8) (size 9 to 14) (size 15 to 20)
#    0.000    1.600    1.000    1.200    8.400    8.000 
#   10.800    0.000    0.000    0.000    0.000    0.000 
#    0.000    0.000    0.000    0.000    0.000    0.000 
#
# Total GULP energy -222927.241489 kJ/mol
# GULP energy per Si atom -5573.181037 kJ/mol
# Density = 2.334663 g / cm^3
# Si number density = 23.399892 Si / 1000 Ang^3
#
#
#
# Elastic Constant Matrix: (Units=GPa)
#
#
# Indices 1 2 3 4 5 6 
#
# 1 118.0274 53.2266 49.3916 0.0000 0.0000 0.0000
# 2 53.2266 72.6992 54.3546 0.0000 0.0000 0.0000
# 3 49.3916 54.3546 217.3279 0.0000 0.0000 0.0000
# 4 0.0000 0.0000 0.0000 31.3971 0.0000 0.0000
# 5 0.0000 0.0000 0.0000 0.0000 38.7046 0.0000
# 6 0.0000 0.0000 0.0000 0.0000 0.0000 32.3213
#
#
#
# Elastic Compliance Matrix: (Units=1/GPa)
#
#
# Indices 1 2 3 4 5 6 
#
# 1 0.012733 -0.008805 -0.000692 0.000000 0.000000 0.000000
# 2 -0.008805 0.023008 -0.003753 0.000000 0.000000 0.000000
# 3 -0.000692 -0.003753 0.005697 0.000000 0.000000 0.000000
# 4 0.000000 0.000000 0.000000 0.031850 0.000000 0.000000
# 5 0.000000 0.000000 0.000000 0.000000 0.025837 0.000000
# 6 0.000000 0.000000 0.000000 0.000000 0.000000 0.030939
#
#
# Mechanical properties :
#
#
# Convention : Reuss Voigt Hill
#
# Bulk Modulus (GPa) = 66.94285 80.22223 73.58254
# Shear Modulus (GPa) = 30.95121 37.22336 34.08728
#
# Velocity S-wave (km/s) = 3.64085 3.99275 3.82085
# Velocity P-wave (km/s) = 6.80769 7.45745 7.13997
#
# Compressibility (1/GPa) = 0.01493811
#
# Stress axis : x y z
#
# Youngs Moduli (GPa) = 78.53642 43.46242 175.52415
#
# Poissons Ratio (x) = 0.38270 0.12138
# Poissons Ratio (y) = 0.69154 0.65880
# Poissons Ratio (z) = 0.05431 0.16313
#
# Static dielectric constant tensor:
#      x y z
#    x 1.907100 0.000000 0.000000 
#    y 0.000000 1.982630 0.000000 
#    z 0.000000 0.000000 1.988970 
# 
# From -- ./inp_files/3913.got.cif
#   From: 2010.05.17/outbox.cif.g08.bks.cpg/sg60_2_cif.got.tgz:3913.got - 2010.06.03 14:59:27.
