data_PCOD9457812
_publ_section_title
;
Structure prediction by ZEFSAII (Michael W. Deem and Ramdas Pophale) SiO2 
 PCOD9457812
Probable space group: P B C N
;
_chemical_formula_sum "Si O2"
_cell_formula_units_Z 60
_cell_length_a 5.654139
_cell_length_b 27.777204
_cell_length_c 17.388139
_cell_angle_alpha 90.000000
_cell_angle_beta 90.000000
_cell_angle_gamma 90.000000
_cell_volume 2730.914557
_symmetry_space_group_name_H-M "P B C N"
_symmetry_group_IT_number 60
_symmetry_cell_setting 'orthorhombic'
loop_
_space_group_symop_operation_xyz
x,y,z
1/2-x,1/2-y,1/2+z
1/2+x,1/2-y,-z
-x,y,1/2-z
-x,-y,-z
1/2+x,1/2+y,1/2-z
1/2-x,1/2+y,z
x,-y,1/2+z
loop_
_atom_site_type_symbol
_atom_site_label
_atom_site_fract_x
_atom_site_fract_y
_atom_site_fract_z
Si Si1 0.445693 0.519114 0.627580
Si Si2 0.748003 0.430139 0.794636
Si Si3 0.297986 0.964795 0.968079
Si Si4 0.000000 0.367162 0.250000
Si Si5 0.611798 0.297826 0.323463
Si Si6 0.139486 0.618916 0.046328
Si Si7 0.671765 0.611636 0.623573
Si Si8 0.824880 0.266681 0.962897
O O1 0.274510 0.485853 0.677075
O O2 0.366032 0.532994 0.542009
O O3 0.677589 0.486605 0.608186
O O4 0.499128 0.571623 0.658752
O O5 0.500000 0.419860 0.750000
O O6 0.744716 0.400052 0.874773
O O7 0.000000 0.422375 0.750000
O O8 0.395032 0.911209 0.955432
O O9 0.500000 0.000000 0.000000
O O10 0.195159 0.332666 0.212966
O O11 0.099859 0.394952 0.323083
O O12 0.500000 0.272004 0.250000
O O13 0.429615 0.334810 0.364333
O O14 0.709592 0.259587 0.381928
O O15 0.128912 0.676403 0.044475
O O16 0.266757 0.604832 0.965951
O O17 0.573812 0.255526 0.004942
#
# Coordination Sequence:
#
# PCOD9457812 Si02
#       8
#     8   8   8   4   8   8   8   8
#     4  11  24  42  70 105 148 194 253 304 382 441
#     4  12  29  51  71 107 158 206 264 312 361 448
#     4  11  21  42  72 104 139 192 245 311 371 450
#     4  10  24  46  70 108 150 188 244 314 398 454
#     4  10  24  47  70 107 151 190 242 316 385 457
#     4  12  25  49  79 107 151 198 258 311 382 459
#     4  11  23  44  73 110 145 192 246 312 386 457
#     4  12  28  48  80 115 145 194 255 317 379 453
#
# _framework density 21.970661
#
# number of rings (size 3 to 8) (size 9 to 14) (size 15 to 20)
#    0.000    0.800    4.000    2.400    5.600    4.267 
#    6.000    0.000    0.000    0.000    0.000    0.000 
#    0.000    0.000    0.000    0.000    0.000    0.000 
#
# Total GULP energy -334832.222384 kJ/mol
# GULP energy per Si atom -5580.537040 kJ/mol
# Density = 2.192065 g / cm^3
# Si number density = 21.970661 Si / 1000 Ang^3
#
#
#
# Elastic Constant Matrix: (Units=GPa)
#
#
# Indices 1 2 3 4 5 6 
#
# 1 85.2999 16.5687 51.6086 0.0000 0.0000 0.0000
# 2 16.5687 100.8349 39.7933 0.0000 0.0000 0.0000
# 3 51.6086 39.7933 144.7619 0.0000 0.0000 0.0000
# 4 0.0000 0.0000 0.0000 9.2838 0.0000 0.0000
# 5 0.0000 0.0000 0.0000 0.0000 30.5227 0.0000
# 6 0.0000 0.0000 0.0000 0.0000 0.0000 16.8461
#
#
#
# Elastic Compliance Matrix: (Units=1/GPa)
#
#
# Indices 1 2 3 4 5 6 
#
# 1 0.014962 -0.000396 -0.005225 0.000000 0.000000 0.000000
# 2 -0.000396 0.011134 -0.002919 0.000000 0.000000 0.000000
# 3 -0.005225 -0.002919 0.009573 0.000000 0.000000 0.000000
# 4 0.000000 0.000000 0.000000 0.107715 0.000000 0.000000
# 5 0.000000 0.000000 0.000000 0.000000 0.032763 0.000000
# 6 0.000000 0.000000 0.000000 0.000000 0.000000 0.059361
#
#
# Mechanical properties :
#
#
# Convention : Reuss Voigt Hill
#
# Bulk Modulus (GPa) = 53.79932 60.75978 57.27955
# Shear Modulus (GPa) = 19.32109 26.19225 22.75667
#
# Velocity S-wave (km/s) = 2.96869 3.45649 3.22184
# Velocity P-wave (km/s) = 6.02419 6.60642 6.32201
#
# Compressibility (1/GPa) = 0.01858760
#
# Stress axis : x y z
#
# Youngs Moduli (GPa) = 66.83798 89.81142 104.45924
#
# Poissons Ratio (x) = 0.03561 0.54579
# Poissons Ratio (y) = 0.02650 0.30496
# Poissons Ratio (z) = 0.34922 0.26219
#
# Static dielectric constant tensor:
#      x y z
#    x 1.977420 0.000000 0.000000 
#    y 0.000000 1.777530 0.000000 
#    z 0.000000 0.000000 1.850380 
# 
# From -- ./inp_files/18785.got.cif
#   From: 2010.05.17/outbox.cif.g08.bks.cpg/sg60_10_cif.got.tgz:18785.got - 2010.06.03 14:59:27.
