data_PCOD9457717
_publ_section_title
;
Structure prediction by ZEFSAII (Michael W. Deem and Ramdas Pophale) SiO2 
 PCOD9457717
Probable space group: P B C N
;
_chemical_formula_sum "Si O2"
_cell_formula_units_Z 60
_cell_length_a 30.134031
_cell_length_b 10.387549
_cell_length_c 8.924297
_cell_angle_alpha 90.000000
_cell_angle_beta 90.000000
_cell_angle_gamma 90.000000
_cell_volume 2793.472056
_symmetry_space_group_name_H-M "P B C N"
_symmetry_group_IT_number 60
_symmetry_cell_setting 'orthorhombic'
loop_
_space_group_symop_operation_xyz
x,y,z
1/2-x,1/2-y,1/2+z
1/2+x,1/2-y,-z
-x,y,1/2-z
-x,-y,-z
1/2+x,1/2+y,1/2-z
1/2-x,1/2+y,z
x,-y,1/2+z
loop_
_atom_site_type_symbol
_atom_site_label
_atom_site_fract_x
_atom_site_fract_y
_atom_site_fract_z
Si Si1 0.276003 0.635849 0.896630
Si Si2 0.620981 0.344740 0.587927
Si Si3 0.500000 0.046652 0.250000
Si Si4 0.365997 0.401204 0.566255
Si Si5 0.191477 0.496810 0.765767
Si Si6 0.292444 0.250871 0.080276
Si Si7 0.631982 0.885841 0.471708
Si Si8 0.440278 0.895022 0.486681
O O1 0.234738 0.547279 0.849540
O O2 0.294617 0.670224 0.733464
O O3 0.315383 0.587077 0.002523
O O4 0.252679 0.755424 0.983893
O O5 0.630336 0.391079 0.755930
O O6 0.609568 0.472837 0.494094
O O7 0.666286 0.285895 0.521272
O O8 0.585133 0.231626 0.569011
O O9 0.528687 0.127647 0.368868
O O10 0.468649 0.956585 0.352134
O O11 0.382853 0.261488 0.509865
O O12 0.205004 0.394458 0.640489
O O13 0.162963 0.603688 0.676356
O O14 0.159912 0.426452 0.883484
O O15 0.594025 0.993272 0.461268
#
# Coordination Sequence:
#
# PCOD9457717 Si02
#       8
#     8   8   4   8   8   8   8   8
#     4  12  26  40  60  91 142 176 257 301 344 400
#     4  12  27  48  67  99 141 186 236 291 351 432
#     4  10  24  42  82 122 134 178 208 280 362 420
#     4  12  28  42  68  98 136 194 242 289 355 399
#     4  12  24  40  63  95 129 193 241 298 354 382
#     4  12  25  42  61  91 129 192 236 303 355 389
#     4  12  23  45  69 101 136 185 236 292 343 424
#     4  11  23  47  79 110 149 167 226 281 346 448
#
# _framework density 21.478648
#
# number of rings (size 3 to 8) (size 9 to 14) (size 15 to 20)
#    0.000    0.267    4.000    5.600    5.600    0.000 
#    0.000    0.000    0.000   13.600    0.000    0.000 
#    0.000    0.000    0.000    0.000    0.000    0.000 
#
# Total GULP energy -335808.189280 kJ/mol
# GULP energy per Si atom -5596.803155 kJ/mol
# Density = 2.142976 g / cm^3
# Si number density = 21.478648 Si / 1000 Ang^3
#
#
#
# Elastic Constant Matrix: (Units=GPa)
#
#
# Indices 1 2 3 4 5 6 
#
# 1 60.0063 44.2515 36.6500 0.0000 0.0000 0.0000
# 2 44.2515 106.9929 42.1551 0.0000 0.0000 0.0000
# 3 36.6500 42.1551 146.7281 0.0000 0.0000 0.0000
# 4 0.0000 0.0000 0.0000 32.9331 0.0000 0.0000
# 5 0.0000 0.0000 0.0000 0.0000 27.3093 0.0000
# 6 0.0000 0.0000 0.0000 0.0000 0.0000 9.0071
#
#
#
# Elastic Compliance Matrix: (Units=1/GPa)
#
#
# Indices 1 2 3 4 5 6 
#
# 1 0.025729 -0.009144 -0.003799 0.000000 0.000000 0.000000
# 2 -0.009144 0.013789 -0.001678 0.000000 0.000000 0.000000
# 3 -0.003799 -0.001678 0.008246 0.000000 0.000000 0.000000
# 4 0.000000 0.000000 0.000000 0.030365 0.000000 0.000000
# 5 0.000000 0.000000 0.000000 0.000000 0.036618 0.000000
# 6 0.000000 0.000000 0.000000 0.000000 0.000000 0.111024
#
#
# Mechanical properties :
#
#
# Convention : Reuss Voigt Hill
#
# Bulk Modulus (GPa) = 53.99008 62.20449 58.09728
# Shear Modulus (GPa) = 19.14333 26.56127 22.85230
#
# Velocity S-wave (km/s) = 2.98866 3.52040 3.26537
# Velocity P-wave (km/s) = 6.09103 6.74894 6.42841
#
# Compressibility (1/GPa) = 0.01852192
#
# Stress axis : x y z
#
# Youngs Moduli (GPa) = 38.86670 72.51935 121.26589
#
# Poissons Ratio (x) = 0.66314 0.46074
# Poissons Ratio (y) = 0.35541 0.20344
# Poissons Ratio (z) = 0.14767 0.12166
#
# Static dielectric constant tensor:
#      x y z
#    x 1.790270 0.000000 0.000000 
#    y 0.000000 1.858170 0.000000 
#    z 0.000000 0.000000 1.793420 
# 
# From -- ./inp_files/8178.got.cif
#   From: 2010.05.17/outbox.cif.g08.bks.cpg/sg60_5_cif.got.tgz:8178.got - 2010.06.03 14:59:27.
