data_PCOD9457646
_publ_section_title
;
Structure prediction by ZEFSAII (Michael W. Deem and Ramdas Pophale) SiO2 
 PCOD9457646
Probable space group: P B C N
;
_chemical_formula_sum "Si O2"
_cell_formula_units_Z 28
_cell_length_a 11.619316
_cell_length_b 11.516141
_cell_length_c 8.450502
_cell_angle_alpha 90.000000
_cell_angle_beta 90.000000
_cell_angle_gamma 90.000000
_cell_volume 1130.758980
_symmetry_space_group_name_H-M "P B C N"
_symmetry_group_IT_number 60
_symmetry_cell_setting 'orthorhombic'
loop_
_space_group_symop_operation_xyz
x,y,z
1/2-x,1/2-y,1/2+z
1/2+x,1/2-y,-z
-x,y,1/2-z
-x,-y,-z
1/2+x,1/2+y,1/2-z
1/2-x,1/2+y,z
x,-y,1/2+z
loop_
_atom_site_type_symbol
_atom_site_label
_atom_site_fract_x
_atom_site_fract_y
_atom_site_fract_z
Si Si1 0.063155 0.651628 0.406683
Si Si2 0.600271 0.416013 0.064418
Si Si3 0.000000 0.690331 0.750000
Si Si4 0.303689 0.385298 0.750299
O O1 0.047529 0.791106 0.406407
O O2 0.195990 0.631108 0.363613
O O3 0.000000 0.606275 0.250000
O O4 0.024697 0.621638 0.586036
O O5 0.703834 0.391635 0.939503
O O6 0.500000 0.500000 0.000000
O O7 0.648161 0.487398 0.209780
O O8 0.892797 0.779184 0.723044
#
# Coordination Sequence:
#
# PCOD9457646 Si02
#       4
#     8   8   4   8
#     4  11  25  42  71  98 138 178 231 283 357 413
#     4  11  21  41  70  99 131 174 239 286 331 412
#     4  10  24  40  66 102 134 168 236 278 342 396
#     4  11  23  41  67 105 129 180 227 287 352 401
#
# _framework density 24.762127
#
# number of rings (size 3 to 8) (size 9 to 14) (size 15 to 20)
#    0.000    1.143    5.714    1.714    8.000    0.000 
#    0.000    1.429    3.143    0.000    0.000    0.000 
#    0.000    0.000    0.000    0.000    0.000    0.000 
#
# Total GULP energy -156363.684949 kJ/mol
# GULP energy per Si atom -5584.417320 kJ/mol
# Density = 2.470577 g / cm^3
# Si number density = 24.762127 Si / 1000 Ang^3
#
#
#
# Elastic Constant Matrix: (Units=GPa)
#
#
# Indices 1 2 3 4 5 6 
#
# 1 83.5848 0.8643 60.1391 0.0000 0.0000 0.0000
# 2 0.8643 99.2741 41.1447 0.0000 0.0000 0.0000
# 3 60.1391 41.1447 229.6502 0.0000 0.0000 0.0000
# 4 0.0000 0.0000 0.0000 42.2842 0.0000 0.0000
# 5 0.0000 0.0000 0.0000 0.0000 40.5981 0.0000
# 6 0.0000 0.0000 0.0000 0.0000 0.0000 2.8135
#
#
#
# Elastic Compliance Matrix: (Units=1/GPa)
#
#
# Indices 1 2 3 4 5 6 
#
# 1 0.014977 0.001615 -0.004212 0.000000 0.000000 0.000000
# 2 0.001615 0.011055 -0.002404 0.000000 0.000000 0.000000
# 3 -0.004212 -0.002404 0.005888 0.000000 0.000000 0.000000
# 4 0.000000 0.000000 0.000000 0.023650 0.000000 0.000000
# 5 0.000000 0.000000 0.000000 0.000000 0.024632 0.000000
# 6 0.000000 0.000000 0.000000 0.000000 0.000000 0.355434
#
#
# Mechanical properties :
#
#
# Convention : Reuss Voigt Hill
#
# Bulk Modulus (GPa) = 45.61944 68.53391 57.07667
# Shear Modulus (GPa) = 11.03892 37.82987 24.43440
#
# Velocity S-wave (km/s) = 2.11368 3.91286 3.14469
# Velocity P-wave (km/s) = 4.94165 6.93909 6.02374
#
# Compressibility (1/GPa) = 0.02192048
#
# Stress axis : x y z
#
# Youngs Moduli (GPa) = 66.76727 90.45473 169.83765
#
# Poissons Ratio (x) = -0.14609 0.71528
# Poissons Ratio (y) = -0.10784 0.40823
# Poissons Ratio (z) = 0.28119 0.21742
#
# Static dielectric constant tensor:
#      x y z
#    x 1.677990 0.000000 0.000000 
#    y 0.000000 1.928360 0.000000 
#    z 0.000000 0.000000 1.992090 
# 
# From -- ./inp_files/4439.got.cif
#   From: 2010.05.17/outbox.cif.g08.bks.cpg/sg60_3_cif.got.tgz:4439.got - 2010.06.03 14:59:27.
