data_PCOD9457849
_publ_section_title
;
Structure prediction by ZEFSAII (Michael W. Deem and Ramdas Pophale) SiO2 
 PCOD9457849
Probable space group: P B C N
;
_chemical_formula_sum "Si O2"
_cell_formula_units_Z 32
_cell_length_a 25.655743
_cell_length_b 5.034650
_cell_length_c 8.947704
_cell_angle_alpha 90.000000
_cell_angle_beta 90.000000
_cell_angle_gamma 90.000000
_cell_volume 1155.754225
_symmetry_space_group_name_H-M "P B C N"
_symmetry_group_IT_number 60
_symmetry_cell_setting 'orthorhombic'
loop_
_space_group_symop_operation_xyz
x,y,z
1/2-x,1/2-y,1/2+z
1/2+x,1/2-y,-z
-x,y,1/2-z
-x,-y,-z
1/2+x,1/2+y,1/2-z
1/2-x,1/2+y,z
x,-y,1/2+z
loop_
_atom_site_type_symbol
_atom_site_label
_atom_site_fract_x
_atom_site_fract_y
_atom_site_fract_z
Si Si1 0.351164 0.012829 0.559026
Si Si2 0.419123 0.235437 0.306503
Si Si3 0.715520 0.269087 0.680246
Si Si4 0.500000 0.701060 0.250000
Si Si5 0.500000 0.000000 0.500000
O O1 0.395756 0.844753 0.645101
O O2 0.321877 0.187254 0.683109
O O3 0.374315 0.195425 0.427453
O O4 0.312915 0.809860 0.473702
O O5 0.451495 0.499389 0.300229
O O6 0.462945 0.010771 0.346942
O O7 0.764819 0.068940 0.688477
O O8 0.526677 0.757910 0.419587
#
# Coordination Sequence:
#
# PCOD9457849 Si02
#       5
#     8   8   8   4   4
#     4  10  24  47  74 117 148 195 267 318 376 487
#     4  11  24  48  73 108 152 200 252 315 386 450
#     4  11  24  50  77 109 160 204 258 320 408 462
#     4  12  26  48  76 100 160 206 248 324 388 460
#     4  12  26  48  70 112 154 196 266 306 396 464
#
# _framework density 27.687550000000002
#
# number of rings (size 3 to 8) (size 9 to 14) (size 15 to 20)
#    0.000    1.000    0.000    6.000    0.000    0.000 
#   45.000    5.000    0.000    0.000    0.000    0.000 
#    0.000    0.000    0.000    0.000    0.000    0.000 
#
# Total GULP energy -178564.914956 kJ/mol
# GULP energy per Si atom -5580.153592 kJ/mol
# Density = 2.762453 g / cm^3
# Si number density = 27.687550 Si / 1000 Ang^3
#
#
#
# Elastic Constant Matrix: (Units=GPa)
#
#
# Indices 1 2 3 4 5 6 
#
# 1 89.5450 31.4119 54.1386 0.0000 0.0000 0.0000
# 2 31.4119 103.8984 61.8777 0.0000 0.0000 0.0000
# 3 54.1386 61.8777 213.7503 0.0000 0.0000 0.0000
# 4 0.0000 0.0000 0.0000 45.7635 0.0000 0.0000
# 5 0.0000 0.0000 0.0000 0.0000 65.7921 0.0000
# 6 0.0000 0.0000 0.0000 0.0000 0.0000 37.1789
#
#
#
# Elastic Compliance Matrix: (Units=1/GPa)
#
#
# Indices 1 2 3 4 5 6 
#
# 1 0.013708 -0.002509 -0.002746 0.000000 0.000000 0.000000
# 2 -0.002509 0.012089 -0.002864 0.000000 0.000000 0.000000
# 3 -0.002746 -0.002864 0.006203 0.000000 0.000000 0.000000
# 4 0.000000 0.000000 0.000000 0.021851 0.000000 0.000000
# 5 0.000000 0.000000 0.000000 0.000000 0.015199 0.000000
# 6 0.000000 0.000000 0.000000 0.000000 0.000000 0.026897
#
#
# Mechanical properties :
#
#
# Convention : Reuss Voigt Hill
#
# Bulk Modulus (GPa) = 63.44331 78.00557 70.72444
# Shear Modulus (GPa) = 42.57521 47.06459 44.81990
#
# Velocity S-wave (km/s) = 3.92561 4.12739 4.02776
# Velocity P-wave (km/s) = 6.59628 7.13782 6.87239
#
# Compressibility (1/GPa) = 0.01576210
#
# Stress axis : x y z
#
# Youngs Moduli (GPa) = 72.95165 82.71887 161.21601
#
# Poissons Ratio (x) = 0.20756 0.44262
# Poissons Ratio (y) = 0.18305 0.46174
# Poissons Ratio (z) = 0.20029 0.23692
#
# Static dielectric constant tensor:
#      x y z
#    x 2.195970 0.000000 0.000000 
#    y 0.000000 2.316540 0.000000 
#    z 0.000000 0.000000 2.280890 
# 
# From -- ./inp_files/8293.got.cif
#   From: 2010.05.17/outbox.cif.g08.bks.cpg/sg60_5_cif.got.tgz:8293.got - 2010.06.03 14:59:27.
