data_PCOD9457452
_publ_section_title
;
Structure prediction by ZEFSAII (Michael W. Deem and Ramdas Pophale) SiO2 
 PCOD9457452
Probable space group: P B C N
;
_chemical_formula_sum "Si O2"
_cell_formula_units_Z 40
_cell_length_a 9.117113
_cell_length_b 9.039001
_cell_length_c 21.057491
_cell_angle_alpha 90.000000
_cell_angle_beta 90.000000
_cell_angle_gamma 90.000000
_cell_volume 1735.339274
_symmetry_space_group_name_H-M "P B C N"
_symmetry_group_IT_number 60
_symmetry_cell_setting 'orthorhombic'
loop_
_space_group_symop_operation_xyz
x,y,z
1/2-x,1/2-y,1/2+z
1/2+x,1/2-y,-z
-x,y,1/2-z
-x,-y,-z
1/2+x,1/2+y,1/2-z
1/2-x,1/2+y,z
x,-y,1/2+z
loop_
_atom_site_type_symbol
_atom_site_label
_atom_site_fract_x
_atom_site_fract_y
_atom_site_fract_z
Si Si1 0.071185 0.688219 0.946691
Si Si2 0.619356 0.541601 0.849189
Si Si3 0.239922 0.420397 0.014035
Si Si4 0.907080 0.785113 0.687734
Si Si5 0.850979 0.344816 0.774132
O O1 0.164453 0.562559 0.982421
O O2 0.152229 0.838412 0.966046
O O3 0.075682 0.675179 0.870881
O O4 0.901900 0.679696 0.967719
O O5 0.476017 0.442311 0.835428
O O6 0.757138 0.297314 0.712742
O O7 0.749788 0.454498 0.813714
O O8 0.611431 0.702634 0.817517
O O9 0.332839 0.449942 0.077682
O O10 0.000000 0.745576 0.750000
O O11 0.000000 0.413622 0.750000
#
# Coordination Sequence:
#
# PCOD9457452 Si02
#       5
#     8   8   8   8   8
#     4  11  25  44  68  98 134 176 230 282 344 418
#     4  11  24  46  68  94 139 179 220 281 343 403
#     4  11  25  44  68  99 133 178 227 286 347 410
#     4  10  23  43  66  94 131 173 216 269 335 403
#     4  11  24  41  68 100 132 175 226 276 332 400
#
# _framework density 23.050248
#
# number of rings (size 3 to 8) (size 9 to 14) (size 15 to 20)
#    0.000    1.200    0.000    6.600    0.000   16.800 
#    0.000    0.000    0.000    0.000    0.000    0.000 
#    0.000    0.000    0.000    0.000    0.000    0.000 
#
# Total GULP energy -224090.083693 kJ/mol
# GULP energy per Si atom -5602.252092 kJ/mol
# Density = 2.299778 g / cm^3
# Si number density = 23.050248 Si / 1000 Ang^3
#
#
#
# Elastic Constant Matrix: (Units=GPa)
#
#
# Indices 1 2 3 4 5 6 
#
# 1 92.7701 8.9089 42.7734 0.0000 0.0000 0.0000
# 2 8.9089 58.8632 17.0915 0.0000 0.0000 0.0000
# 3 42.7734 17.0915 138.0207 0.0000 0.0000 0.0000
# 4 0.0000 0.0000 0.0000 31.1008 0.0000 0.0000
# 5 0.0000 0.0000 0.0000 0.0000 23.5145 0.0000
# 6 0.0000 0.0000 0.0000 0.0000 0.0000 21.0312
#
#
#
# Elastic Compliance Matrix: (Units=1/GPa)
#
#
# Indices 1 2 3 4 5 6 
#
# 1 0.012613 -0.000803 -0.003809 0.000000 0.000000 0.000000
# 2 -0.000803 0.017673 -0.001940 0.000000 0.000000 0.000000
# 3 -0.003809 -0.001940 0.008666 0.000000 0.000000 0.000000
# 4 0.000000 0.000000 0.000000 0.032154 0.000000 0.000000
# 5 0.000000 0.000000 0.000000 0.000000 0.042527 0.000000
# 6 0.000000 0.000000 0.000000 0.000000 0.000000 0.047548
#
#
# Mechanical properties :
#
#
# Convention : Reuss Voigt Hill
#
# Bulk Modulus (GPa) = 38.68738 47.46686 43.07712
# Shear Modulus (GPa) = 27.33722 29.85466 28.59594
#
# Velocity S-wave (km/s) = 3.44755 3.60279 3.52602
# Velocity P-wave (km/s) = 5.71558 6.15989 5.94189
#
# Compressibility (1/GPa) = 0.02584823
#
# Stress axis : x y z
#
# Youngs Moduli (GPa) = 79.28446 56.58266 115.39306
#
# Poissons Ratio (x) = 0.04543 0.43957
# Poissons Ratio (y) = 0.06365 0.22383
# Poissons Ratio (z) = 0.30202 0.10975
#
# Static dielectric constant tensor:
#      x y z
#    x 1.862350 0.000000 0.000000 
#    y 0.000000 1.878350 0.000000 
#    z 0.000000 0.000000 1.866720 
# 
# From -- ./inp_files/21987.got.cif
#   From: 2010.05.17/outbox.cif.g08.bks.cpg/sg60_11_cif.got.tgz:21987.got - 2010.06.03 14:59:27.
