data_PCOD9457224
_publ_section_title
;
Structure prediction by ZEFSAII (Michael W. Deem and Ramdas Pophale) SiO2 
 PCOD9457224
Probable space group: P B C N
;
_chemical_formula_sum "Si O2"
_cell_formula_units_Z 32
_cell_length_a 13.842669
_cell_length_b 9.025840
_cell_length_c 10.016590
_cell_angle_alpha 90.000000
_cell_angle_beta 90.000000
_cell_angle_gamma 90.000000
_cell_volume 1251.489939
_symmetry_space_group_name_H-M "P B C N"
_symmetry_group_IT_number 60
_symmetry_cell_setting 'orthorhombic'
loop_
_space_group_symop_operation_xyz
x,y,z
1/2-x,1/2-y,1/2+z
1/2+x,1/2-y,-z
-x,y,1/2-z
-x,-y,-z
1/2+x,1/2+y,1/2-z
1/2-x,1/2+y,z
x,-y,1/2+z
loop_
_atom_site_type_symbol
_atom_site_label
_atom_site_fract_x
_atom_site_fract_y
_atom_site_fract_z
Si Si1 0.402448 0.109555 0.239061
Si Si2 0.437939 0.158576 0.940157
Si Si3 0.092566 0.103297 0.025910
Si Si4 0.685998 0.419067 0.687386
O O1 0.500000 0.212230 0.250000
O O2 0.294843 0.134568 0.290217
O O3 0.430980 0.970667 0.332492
O O4 0.396016 0.099441 0.079353
O O5 0.544769 0.232943 0.959281
O O6 0.371467 0.288688 0.885062
O O7 0.139976 0.059306 0.166541
O O8 0.166611 0.061799 0.907004
O O9 0.000000 0.000000 0.000000
#
# Coordination Sequence:
#
# PCOD9457224 Si02
#       4
#     8   8   8   8
#     4  12  27  45  70 105 148 193 237 303 373 422
#     4  11  26  47  71 106 151 192 245 305 365 441
#     4  10  22  45  74 106 139 186 250 306 353 427
#     4  11  25  47  75 107 144 197 251 298 362 444
#
# _framework density 25.569521999999999
#
# number of rings (size 3 to 8) (size 9 to 14) (size 15 to 20)
#    0.000    1.000    0.000    6.750    0.000   14.000 
#    0.000    2.500    0.000    0.000    0.000    0.000 
#    0.000    0.000    0.000    0.000    0.000    0.000 
#
# Total GULP energy -178888.431702 kJ/mol
# GULP energy per Si atom -5590.263491 kJ/mol
# Density = 2.551132 g / cm^3
# Si number density = 25.569522 Si / 1000 Ang^3
#
#
#
# Elastic Constant Matrix: (Units=GPa)
#
#
# Indices 1 2 3 4 5 6 
#
# 1 181.9179 33.6651 89.1768 0.0000 0.0000 0.0000
# 2 33.6651 71.6448 73.8944 0.0000 0.0000 0.0000
# 3 89.1768 73.8944 240.5087 0.0000 0.0000 0.0000
# 4 0.0000 0.0000 0.0000 29.9668 0.0000 0.0000
# 5 0.0000 0.0000 0.0000 0.0000 27.5745 0.0000
# 6 0.0000 0.0000 0.0000 0.0000 0.0000 20.5629
#
#
#
# Elastic Compliance Matrix: (Units=1/GPa)
#
#
# Indices 1 2 3 4 5 6 
#
# 1 0.006754 -0.000865 -0.002239 0.000000 0.000000 0.000000
# 2 -0.000865 0.020543 -0.005991 0.000000 0.000000 0.000000
# 3 -0.002239 -0.005991 0.006829 0.000000 0.000000 0.000000
# 4 0.000000 0.000000 0.000000 0.033370 0.000000 0.000000
# 5 0.000000 0.000000 0.000000 0.000000 0.036265 0.000000
# 6 0.000000 0.000000 0.000000 0.000000 0.000000 0.048631
#
#
# Mechanical properties :
#
#
# Convention : Reuss Voigt Hill
#
# Bulk Modulus (GPa) = 62.74653 98.61600 80.68126
# Shear Modulus (GPa) = 28.42602 35.44318 31.93460
#
# Velocity S-wave (km/s) = 3.33786 3.72714 3.53786
# Velocity P-wave (km/s) = 6.28076 7.56132 6.95059
#
# Compressibility (1/GPa) = 0.01593714
#
# Stress axis : x y z
#
# Youngs Moduli (GPa) = 148.05027 48.67749 146.44135
#
# Poissons Ratio (x) = 0.04210 0.32784
# Poissons Ratio (y) = 0.12804 0.87735
# Poissons Ratio (z) = 0.33145 0.29163
#
# Static dielectric constant tensor:
#      x y z
#    x 2.084460 0.000000 0.000000 
#    y 0.000000 2.161870 0.000000 
#    z 0.000000 0.000000 2.023440 
# 
# From -- ./inp_files/5515.got.cif
#   From: 2010.05.17/outbox.cif.g08.bks.cpg/sg60_3_cif.got.tgz:5515.got - 2010.06.03 14:59:27.
