data_PCOD9457986
_publ_section_title
;
Structure prediction by ZEFSAII (Michael W. Deem and Ramdas Pophale) SiO2 
 PCOD9457986
Probable space group: P B C N
;
_chemical_formula_sum "Si O2"
_cell_formula_units_Z 20
_cell_length_a 7.561070
_cell_length_b 19.152873
_cell_length_c 5.255781
_cell_angle_alpha 90.000000
_cell_angle_beta 90.000000
_cell_angle_gamma 90.000000
_cell_volume 761.122303
_symmetry_space_group_name_H-M "P B C N"
_symmetry_group_IT_number 60
_symmetry_cell_setting 'orthorhombic'
loop_
_space_group_symop_operation_xyz
x,y,z
1/2-x,1/2-y,1/2+z
1/2+x,1/2-y,-z
-x,y,1/2-z
-x,-y,-z
1/2+x,1/2+y,1/2-z
1/2-x,1/2+y,z
x,-y,1/2+z
loop_
_atom_site_type_symbol
_atom_site_label
_atom_site_fract_x
_atom_site_fract_y
_atom_site_fract_z
Si Si1 0.000000 0.213162 0.750000
Si Si2 0.290536 0.544417 0.268178
Si Si3 0.138897 0.658653 0.950202
O O1 0.830994 0.168091 0.676528
O O2 0.064684 0.265730 0.529857
O O3 0.500000 0.560138 0.250000
O O4 0.253024 0.509367 0.537641
O O5 0.181726 0.613071 0.198642
O O6 0.000000 0.628159 0.750000
#
# Coordination Sequence:
#
# PCOD9457986 Si02
#       3
#     4   8   8
#     4  12  28  48  70 116 150 204 254 324 390 462
#     4  10  26  48  78 114 153 205 258 323 386 456
#     4  12  28  47  78 109 155 202 261 321 389 469
#
# _framework density 26.276987999999999
#
# number of rings (size 3 to 8) (size 9 to 14) (size 15 to 20)
#    0.000    0.800    4.000    0.000   19.600    1.600 
#    0.000    0.000    0.000    0.000    0.000    0.000 
#    0.000    0.000    0.000    0.000    0.000    0.000 
#
# Total GULP energy -112367.884768 kJ/mol
# GULP energy per Si atom -5618.394238 kJ/mol
# Density = 2.621718 g / cm^3
# Si number density = 26.276988 Si / 1000 Ang^3
#
#
#
# Elastic Constant Matrix: (Units=GPa)
#
#
# Indices 1 2 3 4 5 6 
#
# 1 189.4236 54.1477 66.6598 0.0000 0.0000 0.0000
# 2 54.1477 78.4972 36.2041 0.0000 0.0000 0.0000
# 3 66.6598 36.2041 131.3564 0.0000 0.0000 0.0000
# 4 0.0000 0.0000 0.0000 41.1632 0.0000 0.0000
# 5 0.0000 0.0000 0.0000 0.0000 45.8643 0.0000
# 6 0.0000 0.0000 0.0000 0.0000 0.0000 21.1267
#
#
#
# Elastic Compliance Matrix: (Units=1/GPa)
#
#
# Indices 1 2 3 4 5 6 
#
# 1 0.007304 -0.003813 -0.002655 0.000000 0.000000 0.000000
# 2 -0.003813 0.016586 -0.002636 0.000000 0.000000 0.000000
# 3 -0.002655 -0.002636 0.009687 0.000000 0.000000 0.000000
# 4 0.000000 0.000000 0.000000 0.024294 0.000000 0.000000
# 5 0.000000 0.000000 0.000000 0.000000 0.021803 0.000000
# 6 0.000000 0.000000 0.000000 0.000000 0.000000 0.047334
#
#
# Mechanical properties :
#
#
# Convention : Reuss Voigt Hill
#
# Bulk Modulus (GPa) = 65.07655 79.25559 72.16607
# Shear Modulus (GPa) = 33.25821 37.78188 35.52005
#
# Velocity S-wave (km/s) = 3.56150 3.79599 3.68061
# Velocity P-wave (km/s) = 6.46001 7.03134 6.75172
#
# Compressibility (1/GPa) = 0.01536652
#
# Stress axis : x y z
#
# Youngs Moduli (GPa) = 136.91668 60.29318 103.23157
#
# Poissons Ratio (x) = 0.22992 0.27412
# Poissons Ratio (y) = 0.52212 0.27213
# Poissons Ratio (z) = 0.36357 0.15894
#
# Static dielectric constant tensor:
#      x y z
#    x 1.994310 0.000000 0.000000 
#    y 0.000000 2.012950 0.000000 
#    z 0.000000 0.000000 2.073150 
# 
# From -- ./inp_files/162.got.cif
#   From: 2010.05.17/outbox.cif.g08.bks.cpg/sg60_1_cif.got.tgz:162.got - 2010.06.03 14:59:27.
