data_PCOD9457919
_publ_section_title
;
Structure prediction by ZEFSAII (Michael W. Deem and Ramdas Pophale) SiO2 
 PCOD9457919
Probable space group: P B C N
;
_chemical_formula_sum "Si O2"
_cell_formula_units_Z 40
_cell_length_a 16.691479
_cell_length_b 19.034554
_cell_length_c 5.110368
_cell_angle_alpha 90.000000
_cell_angle_beta 90.000000
_cell_angle_gamma 90.000000
_cell_volume 1623.639845
_symmetry_space_group_name_H-M "P B C N"
_symmetry_group_IT_number 60
_symmetry_cell_setting 'orthorhombic'
loop_
_space_group_symop_operation_xyz
x,y,z
1/2-x,1/2-y,1/2+z
1/2+x,1/2-y,-z
-x,y,1/2-z
-x,-y,-z
1/2+x,1/2+y,1/2-z
1/2-x,1/2+y,z
x,-y,1/2+z
loop_
_atom_site_type_symbol
_atom_site_label
_atom_site_fract_x
_atom_site_fract_y
_atom_site_fract_z
Si Si1 0.117351 0.961629 0.937315
Si Si2 0.698237 0.744836 0.408156
Si Si3 0.810291 0.461119 0.652303
Si Si4 0.590762 0.827640 0.737047
Si Si5 0.420576 0.314513 0.918106
O O1 0.214518 0.960203 0.898501
O O2 0.086288 0.888592 0.059022
O O3 0.090626 0.979336 0.643795
O O4 0.757597 0.769848 0.179805
O O5 0.625814 0.798616 0.462815
O O6 0.845942 0.820172 0.781365
O O7 0.838453 0.479379 0.358589
O O8 0.845343 0.389681 0.779339
O O9 0.500000 0.854688 0.750000
O O10 0.588456 0.756059 0.910660
O O11 0.500000 0.309998 0.750000
#
# Coordination Sequence:
#
# PCOD9457919 Si02
#       5
#     8   8   8   8   8
#     4  10  25  47  72 103 144 194 250 303 362 442
#     4  12  26  44  72 106 142 192 246 304 364 430
#     4  10  25  47  72 103 144 194 250 303 362 442
#     4  12  27  46  75 112 156 192 246 310 380 441
#     4  12  27  46  75 112 156 192 246 310 380 441
#
# _framework density 24.636005000000001
#
# number of rings (size 3 to 8) (size 9 to 14) (size 15 to 20)
#    0.000    0.800    4.000    1.200    5.600    3.200 
#    0.000    0.000    0.000    0.000    0.000    0.000 
#    0.000    0.000    0.000    0.000    0.000    0.000 
#
# Total GULP energy -223208.732658 kJ/mol
# GULP energy per Si atom -5580.218316 kJ/mol
# Density = 2.457993 g / cm^3
# Si number density = 24.636005 Si / 1000 Ang^3
#
#
#
# Elastic Constant Matrix: (Units=GPa)
#
#
# Indices 1 2 3 4 5 6 
#
# 1 101.3622 -3.3184 30.5975 0.0000 0.0000 0.0000
# 2 -3.3184 109.9651 30.9060 0.0000 0.0000 0.0000
# 3 30.5975 30.9060 125.3392 0.0000 0.0000 0.0000
# 4 0.0000 0.0000 0.0000 -39.8524 0.0000 0.0000
# 5 0.0000 0.0000 0.0000 0.0000 20.6481 0.0000
# 6 0.0000 0.0000 0.0000 0.0000 0.0000 29.0503
#
#
#
# Elastic Compliance Matrix: (Units=1/GPa)
#
#
# Indices 1 2 3 4 5 6 
#
# 1 0.010783 0.001145 -0.002915 0.000000 0.000000 0.000000
# 2 0.001145 0.009892 -0.002719 0.000000 0.000000 0.000000
# 3 -0.002915 -0.002719 0.009360 0.000000 0.000000 0.000000
# 4 0.000000 0.000000 0.000000 -0.025093 0.000000 0.000000
# 5 0.000000 0.000000 0.000000 0.000000 0.048431 0.000000
# 6 0.000000 0.000000 0.000000 0.000000 0.000000 0.034423
#
#
# Mechanical properties :
#
#
# Convention : Reuss Voigt Hill
#
# Bulk Modulus (GPa) = 47.48744 50.33741 48.91243
# Shear Modulus (GPa) = 48.17274 20.53463 34.35368
#
# Velocity S-wave (km/s) = 4.42676 2.89021 3.73829
# Velocity P-wave (km/s) = 6.74135 5.62268 6.20727
#
# Compressibility (1/GPa) = 0.02105820
#
# Stress axis : x y z
#
# Youngs Moduli (GPa) = 92.73974 101.08748 106.83534
#
# Poissons Ratio (x) = -0.11570 0.31137
# Poissons Ratio (y) = -0.10614 0.29045
# Poissons Ratio (z) = 0.27029 0.27482
#
# Static dielectric constant tensor:
#      x y z
#    x 2.335380 0.000000 0.000000 
#    y 0.000000 2.052840 0.000000 
#    z 0.000000 0.000000 1.963590 
# 
# From -- ./inp_files/1620.got.cif
#   From: 2010.05.17/outbox.cif.g08.bks.cpg/sg60_1_cif.got.tgz:1620.got - 2010.06.03 14:59:27.
