data_PCOD9457664
_publ_section_title
;
Structure prediction by ZEFSAII (Michael W. Deem and Ramdas Pophale) SiO2 
 PCOD9457664
Probable space group: P B C N
;
_chemical_formula_sum "Si O2"
_cell_formula_units_Z 32
_cell_length_a 26.442253
_cell_length_b 5.234507
_cell_length_c 9.744235
_cell_angle_alpha 90.000000
_cell_angle_beta 90.000000
_cell_angle_gamma 90.000000
_cell_volume 1348.720599
_symmetry_space_group_name_H-M "P B C N"
_symmetry_group_IT_number 60
_symmetry_cell_setting 'orthorhombic'
loop_
_space_group_symop_operation_xyz
x,y,z
1/2-x,1/2-y,1/2+z
1/2+x,1/2-y,-z
-x,y,1/2-z
-x,-y,-z
1/2+x,1/2+y,1/2-z
1/2-x,1/2+y,z
x,-y,1/2+z
loop_
_atom_site_type_symbol
_atom_site_label
_atom_site_fract_x
_atom_site_fract_y
_atom_site_fract_z
Si Si1 0.166687 0.140998 0.634665
Si Si2 0.600623 0.608573 0.130810
Si Si3 0.236059 0.524506 0.271714
Si Si4 0.464997 0.111934 0.380068
O O1 0.127764 0.998474 0.734259
O O2 0.220735 0.000691 0.653574
O O3 0.141914 0.155101 0.487684
O O4 0.182371 0.412245 0.705339
O O5 0.572006 0.874978 0.154670
O O6 0.564054 0.374414 0.083656
O O7 0.245296 0.269761 0.354097
O O8 0.500000 0.170973 0.250000
O O9 0.500000 0.000000 0.500000
#
# Coordination Sequence:
#
# PCOD9457664 Si02
#       4
#     8   8   8   8
#     4  10  24  41  61 100 122 174 203 251 302 356
#     4  12  26  39  73  88 128 156 221 249 304 388
#     4   8  20  38  60  86 136 162 204 246 300 354
#     4  12  26  46  66  92 124 160 202 268 328 364
#
# _framework density 23.726191
#
# number of rings (size 3 to 8) (size 9 to 14) (size 15 to 20)
#    1.500    0.000    0.000    4.500    7.000    2.000 
#    0.000    0.000    0.000    0.000    0.000    0.000 
#    0.000    0.000    0.000    0.000    0.000    0.000 
#
# Total GULP energy -178688.372061 kJ/mol
# GULP energy per Si atom -5584.011627 kJ/mol
# Density = 2.367219 g / cm^3
# Si number density = 23.726191 Si / 1000 Ang^3
#
#
#
# Elastic Constant Matrix: (Units=GPa)
#
#
# Indices 1 2 3 4 5 6 
#
# 1 100.9850 17.3992 12.5634 0.0000 0.0000 0.0000
# 2 17.3992 129.6437 -27.8808 0.0000 0.0000 0.0000
# 3 12.5634 -27.8808 59.0202 0.0000 0.0000 0.0000
# 4 0.0000 0.0000 0.0000 14.3128 0.0000 0.0000
# 5 0.0000 0.0000 0.0000 0.0000 32.5454 0.0000
# 6 0.0000 0.0000 0.0000 0.0000 0.0000 58.2014
#
#
#
# Elastic Compliance Matrix: (Units=1/GPa)
#
#
# Indices 1 2 3 4 5 6 
#
# 1 0.010680 -0.002140 -0.003284 0.000000 0.000000 0.000000
# 2 -0.002140 0.009014 0.004714 0.000000 0.000000 0.000000
# 3 -0.003284 0.004714 0.019869 0.000000 0.000000 0.000000
# 4 0.000000 0.000000 0.000000 0.069868 0.000000 0.000000
# 5 0.000000 0.000000 0.000000 0.000000 0.030726 0.000000
# 6 0.000000 0.000000 0.000000 0.000000 0.000000 0.017182
#
#
# Mechanical properties :
#
#
# Convention : Reuss Voigt Hill
#
# Bulk Modulus (GPa) = 26.21684 32.64584 29.43134
# Shear Modulus (GPa) = 29.15909 40.18305 34.67107
#
# Velocity S-wave (km/s) = 3.50949 4.11982 3.82684
# Velocity P-wave (km/s) = 5.24364 6.03489 5.65312
#
# Compressibility (1/GPa) = 0.03814342
#
# Stress axis : x y z
#
# Youngs Moduli (GPa) = 93.63597 110.93467 50.32927
#
# Poissons Ratio (x) = 0.23735 0.16528
# Poissons Ratio (y) = 0.20034 -0.23724
# Poissons Ratio (z) = 0.30751 -0.52292
#
# Static dielectric constant tensor:
#      x y z
#    x 1.921970 0.000000 0.000000 
#    y 0.000000 2.105760 0.000000 
#    z 0.000000 0.000000 1.797540 
# 
# From -- ./inp_files/8277.got.cif
#   From: 2010.05.17/outbox.cif.g08.bks.cpg/sg60_5_cif.got.tgz:8277.got - 2010.06.03 14:59:27.
