data_PCOD9457154
_publ_section_title
;
Structure prediction by ZEFSAII (Michael W. Deem and Ramdas Pophale) SiO2 
 PCOD9457154
Probable space group: P B C N
;
_chemical_formula_sum "Si O2"
_cell_formula_units_Z 40
_cell_length_a 8.400407
_cell_length_b 9.062712
_cell_length_c 22.098060
_cell_angle_alpha 90.000000
_cell_angle_beta 90.000000
_cell_angle_gamma 90.000000
_cell_volume 1682.335679
_symmetry_space_group_name_H-M "P B C N"
_symmetry_group_IT_number 60
_symmetry_cell_setting 'orthorhombic'
loop_
_space_group_symop_operation_xyz
x,y,z
1/2-x,1/2-y,1/2+z
1/2+x,1/2-y,-z
-x,y,1/2-z
-x,-y,-z
1/2+x,1/2+y,1/2-z
1/2-x,1/2+y,z
x,-y,1/2+z
loop_
_atom_site_type_symbol
_atom_site_label
_atom_site_fract_x
_atom_site_fract_y
_atom_site_fract_z
Si Si1 0.000000 0.750263 0.250000
Si Si2 0.500000 0.734529 0.250000
Si Si3 0.606867 0.893733 0.040819
Si Si4 0.566951 0.009166 0.669392
Si Si5 0.817651 0.006926 0.828151
Si Si6 0.903548 0.107706 0.457411
O O1 0.899430 0.638619 0.207004
O O2 0.102329 0.852864 0.204795
O O3 0.396716 0.845656 0.291620
O O4 0.608628 0.630859 0.291591
O O5 0.644789 0.978073 0.103576
O O6 0.504302 0.751668 0.058809
O O7 0.751492 0.847102 0.997732
O O8 0.500000 0.000000 0.000000
O O9 0.373543 0.011260 0.667558
O O10 0.865870 0.983073 0.897375
O O11 0.000000 0.000000 0.500000
#
# Coordination Sequence:
#
# PCOD9457154 Si02
#       6
#     4   4   8   8   8   8
#     4  10  26  42  74 112 142 202 244 306 384 442
#     4  10  22  44  66 108 144 198 242 310 380 444
#     4  12  26  48  79 110 153 203 252 316 384 452
#     4  11  23  46  74 107 149 197 254 314 374 452
#     4  11  23  48  73 104 154 193 255 319 379 442
#     4  12  28  50  76 113 151 202 256 314 384 459
#
# _framework density 23.77647
#
# number of rings (size 3 to 8) (size 9 to 14) (size 15 to 20)
#    0.000    0.800    4.000    2.400    2.800    0.000 
#   21.600    0.000    0.000    0.000    0.000    0.000 
#    0.000    0.000    0.000    0.000    0.000    0.000 
#
# Total GULP energy -224114.980444 kJ/mol
# GULP energy per Si atom -5602.874511 kJ/mol
# Density = 2.372235 g / cm^3
# Si number density = 23.776470 Si / 1000 Ang^3
#
#
#
# Elastic Constant Matrix: (Units=GPa)
#
#
# Indices 1 2 3 4 5 6 
#
# 1 82.5116 25.0779 41.1855 0.0000 0.0000 0.0000
# 2 25.0779 136.8055 54.1872 0.0000 0.0000 0.0000
# 3 41.1855 54.1872 206.2056 0.0000 0.0000 0.0000
# 4 0.0000 0.0000 0.0000 37.4268 0.0000 0.0000
# 5 0.0000 0.0000 0.0000 0.0000 40.5110 0.0000
# 6 0.0000 0.0000 0.0000 0.0000 0.0000 31.9859
#
#
#
# Elastic Compliance Matrix: (Units=1/GPa)
#
#
# Indices 1 2 3 4 5 6 
#
# 1 0.013769 -0.001601 -0.002329 0.000000 0.000000 0.000000
# 2 -0.001601 0.008345 -0.001873 0.000000 0.000000 0.000000
# 3 -0.002329 -0.001873 0.005807 0.000000 0.000000 0.000000
# 4 0.000000 0.000000 0.000000 0.026719 0.000000 0.000000
# 5 0.000000 0.000000 0.000000 0.000000 0.024685 0.000000
# 6 0.000000 0.000000 0.000000 0.000000 0.000000 0.031264
#
#
# Mechanical properties :
#
#
# Convention : Reuss Voigt Hill
#
# Bulk Modulus (GPa) = 61.29901 74.04710 67.67305
# Shear Modulus (GPa) = 39.17466 42.32287 40.74877
#
# Velocity S-wave (km/s) = 4.06350 4.22362 4.14433
# Velocity P-wave (km/s) = 6.91761 7.41592 7.17110
#
# Compressibility (1/GPa) = 0.01631348
#
# Stress axis : x y z
#
# Youngs Moduli (GPa) = 72.62764 119.83059 172.20699
#
# Poissons Ratio (x) = 0.19190 0.40111
# Poissons Ratio (y) = 0.11631 0.32256
# Poissons Ratio (z) = 0.16917 0.22445
#
# Static dielectric constant tensor:
#      x y z
#    x 2.090630 0.000000 0.000000 
#    y 0.000000 1.935820 0.000000 
#    z 0.000000 0.000000 2.021150 
# 
# From -- ./inp_files/23871.got.cif
#   From: 2010.05.17/outbox.cif.g08.bks.cpg/sg60_12_cif.got.tgz:23871.got - 2010.06.03 14:59:27.
