data_PCOD9457273
_publ_section_title
;
Structure prediction by ZEFSAII (Michael W. Deem and Ramdas Pophale) SiO2 
 PCOD9457273
Probable space group: P B C N
;
_chemical_formula_sum "Si O2"
_cell_formula_units_Z 64
_cell_length_a 15.270292
_cell_length_b 11.009102
_cell_length_c 18.181827
_cell_angle_alpha 90.000000
_cell_angle_beta 90.000000
_cell_angle_gamma 90.000000
_cell_volume 3056.586977
_symmetry_space_group_name_H-M "P B C N"
_symmetry_group_IT_number 60
_symmetry_cell_setting 'orthorhombic'
loop_
_space_group_symop_operation_xyz
x,y,z
1/2-x,1/2-y,1/2+z
1/2+x,1/2-y,-z
-x,y,1/2-z
-x,-y,-z
1/2+x,1/2+y,1/2-z
1/2-x,1/2+y,z
x,-y,1/2+z
loop_
_atom_site_type_symbol
_atom_site_label
_atom_site_fract_x
_atom_site_fract_y
_atom_site_fract_z
Si Si1 0.451722 0.334173 0.435317
Si Si2 0.867559 0.934715 0.431646
Si Si3 0.524560 0.136236 0.665055
Si Si4 0.794882 0.741330 0.325763
Si Si5 0.617358 0.299550 0.912944
Si Si6 0.303190 0.502716 0.415915
Si Si7 0.019486 0.372555 0.664536
Si Si8 0.219618 0.263019 0.340193
O O1 0.550244 0.359699 0.463946
O O2 0.391105 0.280010 0.499649
O O3 0.404124 0.456565 0.408266
O O4 0.467287 0.236939 0.372534
O O5 0.829266 0.865991 0.361771
O O6 0.799157 0.965744 0.496641
O O7 0.907409 0.060357 0.404760
O O8 0.500000 0.124772 0.750000
O O9 0.450880 0.213722 0.625766
O O10 0.617521 0.201655 0.663282
O O11 0.517121 0.999437 0.633891
O O12 0.711560 0.710451 0.375803
O O13 0.875339 0.647842 0.339810
O O14 0.765212 0.755595 0.240791
O O15 0.256495 0.379568 0.386283
O O16 0.275905 0.626785 0.374755
O O17 0.000000 0.366543 0.750000
#
# Coordination Sequence:
#
# PCOD9457273 Si02
#       8
#     8   8   8   8   8   8   8   8
#     4  10  22  48  70  97 135 187 233 292 352 425
#     4  10  24  45  70  96 138 181 235 286 358 427
#     4  11  24  42  65  96 141 186 227 293 354 418
#     4  11  26  42  69 105 136 183 236 295 350 424
#     4  11  23  41  69  93 137 175 231 292 352 412
#     4  11  26  44  73 100 143 181 240 290 350 425
#     4  10  24  44  69  96 146 186 236 287 360 427
#     4  12  27  43  70 105 142 184 240 289 356 423
#
# _framework density 20.938386999999999
#
# number of rings (size 3 to 8) (size 9 to 14) (size 15 to 20)
#    0.000    1.250    1.250    3.750   12.250    0.500 
#    0.000    0.625    0.000    0.000    0.000    0.000 
#    0.000    0.000    0.000    0.000    0.000    0.000 
#
# Total GULP energy -356921.620320 kJ/mol
# GULP energy per Si atom -5576.900317 kJ/mol
# Density = 2.089073 g / cm^3
# Si number density = 20.938387 Si / 1000 Ang^3
#
#
#
# Elastic Constant Matrix: (Units=GPa)
#
#
# Indices 1 2 3 4 5 6 
#
# 1 75.7255 20.1631 29.9491 0.0000 0.0000 0.0000
# 2 20.1631 131.3799 67.3343 0.0000 0.0000 0.0000
# 3 29.9491 67.3343 88.3723 0.0000 0.0000 0.0000
# 4 0.0000 0.0000 0.0000 18.9298 0.0000 0.0000
# 5 0.0000 0.0000 0.0000 0.0000 30.4050 0.0000
# 6 0.0000 0.0000 0.0000 0.0000 0.0000 41.0962
#
#
#
# Elastic Compliance Matrix: (Units=1/GPa)
#
#
# Indices 1 2 3 4 5 6 
#
# 1 0.015270 0.000507 -0.005561 0.000000 0.000000 0.000000
# 2 0.000507 0.012505 -0.009700 0.000000 0.000000 0.000000
# 3 -0.005561 -0.009700 0.020591 0.000000 0.000000 0.000000
# 4 0.000000 0.000000 0.000000 0.052827 0.000000 0.000000
# 5 0.000000 0.000000 0.000000 0.000000 0.032889 0.000000
# 6 0.000000 0.000000 0.000000 0.000000 0.000000 0.024333
#
#
# Mechanical properties :
#
#
# Convention : Reuss Voigt Hill
#
# Bulk Modulus (GPa) = 53.02850 58.93008 55.97929
# Shear Modulus (GPa) = 25.74539 29.95494 27.85016
#
# Velocity S-wave (km/s) = 3.51034 3.78646 3.65101
# Velocity P-wave (km/s) = 6.46614 6.87910 6.67581
#
# Compressibility (1/GPa) = 0.01885778
#
# Stress axis : x y z
#
# Youngs Moduli (GPa) = 65.48776 79.96775 48.56505
#
# Poissons Ratio (x) = -0.04051 0.27007
# Poissons Ratio (y) = -0.03317 0.47107
# Poissons Ratio (z) = 0.36417 0.77567
#
# Static dielectric constant tensor:
#      x y z
#    x 1.793750 0.000000 0.000000 
#    y 0.000000 1.807930 0.000000 
#    z 0.000000 0.000000 1.861350 
# 
# From -- ./inp_files/20644.got.cif
#   From: 2010.05.17/outbox.cif.g08.bks.cpg/sg60_11_cif.got.tgz:20644.got - 2010.06.03 14:59:27.
