data_PCOD9457593
_publ_section_title
;
Structure prediction by ZEFSAII (Michael W. Deem and Ramdas Pophale) SiO2 
 PCOD9457593
Probable space group: P B C N
;
_chemical_formula_sum "Si O2"
_cell_formula_units_Z 40
_cell_length_a 17.243982
_cell_length_b 4.918514
_cell_length_c 16.743439
_cell_angle_alpha 90.000000
_cell_angle_beta 90.000000
_cell_angle_gamma 90.000000
_cell_volume 1420.090876
_symmetry_space_group_name_H-M "P B C N"
_symmetry_group_IT_number 60
_symmetry_cell_setting 'orthorhombic'
loop_
_space_group_symop_operation_xyz
x,y,z
1/2-x,1/2-y,1/2+z
1/2+x,1/2-y,-z
-x,y,1/2-z
-x,-y,-z
1/2+x,1/2+y,1/2-z
1/2-x,1/2+y,z
x,-y,1/2+z
loop_
_atom_site_type_symbol
_atom_site_label
_atom_site_fract_x
_atom_site_fract_y
_atom_site_fract_z
Si Si1 0.081693 0.302661 0.722572
Si Si2 0.001309 0.690810 0.424461
Si Si3 0.309635 0.903903 0.346144
Si Si4 0.797025 0.921079 0.865248
Si Si5 0.625642 0.453419 0.520936
O O1 0.043073 0.458499 0.647103
O O2 0.122451 0.502678 0.785672
O O3 0.140075 0.071036 0.690458
O O4 0.000000 0.165297 0.750000
O O5 0.939593 0.914370 0.453317
O O6 0.000000 0.500000 0.500000
O O7 0.083810 0.843642 0.416743
O O8 0.254390 0.639984 0.337849
O O9 0.349768 0.813475 0.430310
O O10 0.721255 0.108423 0.848237
O O11 0.808655 0.940292 0.961441
#
# Coordination Sequence:
#
# PCOD9457593 Si02
#       5
#     8   8   8   8   8
#     4  11  26  49  76 114 162 218 270 339 413 496
#     4  10  23  46  77 112 151 196 273 333 402 479
#     4  12  28  51  77 115 163 212 270 331 415 501
#     4  11  25  48  77 113 156 207 270 340 414 490
#     4  10  24  44  77 115 150 205 265 336 405 485
#
# _framework density 28.167213
#
# number of rings (size 3 to 8) (size 9 to 14) (size 15 to 20)
#    0.000    1.200    0.000    3.600   11.200    0.000 
#   14.400    0.000    0.000    0.000    0.000    0.000 
#    0.000    0.000    0.000    0.000    0.000    0.000 
#
# Total GULP energy -223449.874722 kJ/mol
# GULP energy per Si atom -5586.246868 kJ/mol
# Density = 2.810310 g / cm^3
# Si number density = 28.167213 Si / 1000 Ang^3
#
#
#
# Elastic Constant Matrix: (Units=GPa)
#
#
# Indices 1 2 3 4 5 6 
#
# 1 157.2745 40.4126 69.9514 0.0000 0.0000 0.0000
# 2 40.4126 135.7513 22.9515 0.0000 0.0000 0.0000
# 3 69.9514 22.9515 126.4318 0.0000 0.0000 0.0000
# 4 0.0000 0.0000 0.0000 45.4902 0.0000 0.0000
# 5 0.0000 0.0000 0.0000 0.0000 72.4047 0.0000
# 6 0.0000 0.0000 0.0000 0.0000 0.0000 35.3330
#
#
#
# Elastic Compliance Matrix: (Units=1/GPa)
#
#
# Indices 1 2 3 4 5 6 
#
# 1 0.008870 -0.001868 -0.004569 0.000000 0.000000 0.000000
# 2 -0.001868 0.007993 -0.000417 0.000000 0.000000 0.000000
# 3 -0.004569 -0.000417 0.010513 0.000000 0.000000 0.000000
# 4 0.000000 0.000000 0.000000 0.021983 0.000000 0.000000
# 5 0.000000 0.000000 0.000000 0.000000 0.013811 0.000000
# 6 0.000000 0.000000 0.000000 0.000000 0.000000 0.028302
#
#
# Mechanical properties :
#
#
# Convention : Reuss Voigt Hill
#
# Bulk Modulus (GPa) = 73.16389 76.23208 74.69799
# Shear Modulus (GPa) = 45.56353 49.72172 47.64262
#
# Velocity S-wave (km/s) = 4.02631 4.20603 4.11715
# Velocity P-wave (km/s) = 6.90262 7.12112 7.01272
#
# Compressibility (1/GPa) = 0.01366794
#
# Stress axis : x y z
#
# Youngs Moduli (GPa) = 112.73511 125.10714 95.12170
#
# Poissons Ratio (x) = 0.23373 0.43457
# Poissons Ratio (y) = 0.21062 0.03970
# Poissons Ratio (z) = 0.51504 0.05221
#
# Static dielectric constant tensor:
#      x y z
#    x 2.424270 0.000000 0.000000 
#    y 0.000000 2.143700 0.000000 
#    z 0.000000 0.000000 2.531570 
# 
# From -- ./inp_files/20762.got.cif
#   From: 2010.05.17/outbox.cif.g08.bks.cpg/sg60_11_cif.got.tgz:20762.got - 2010.06.03 14:59:27.
