data_PCOD9457584
_publ_section_title
;
Structure prediction by ZEFSAII (Michael W. Deem and Ramdas Pophale) SiO2 
 PCOD9457584
Probable space group: P B C N
;
_chemical_formula_sum "Si O2"
_cell_formula_units_Z 56
_cell_length_a 8.187308
_cell_length_b 14.411128
_cell_length_c 23.088697
_cell_angle_alpha 90.000000
_cell_angle_beta 90.000000
_cell_angle_gamma 90.000000
_cell_volume 2724.197114
_symmetry_space_group_name_H-M "P B C N"
_symmetry_group_IT_number 60
_symmetry_cell_setting 'orthorhombic'
loop_
_space_group_symop_operation_xyz
x,y,z
1/2-x,1/2-y,1/2+z
1/2+x,1/2-y,-z
-x,y,1/2-z
-x,-y,-z
1/2+x,1/2+y,1/2-z
1/2-x,1/2+y,z
x,-y,1/2+z
loop_
_atom_site_type_symbol
_atom_site_label
_atom_site_fract_x
_atom_site_fract_y
_atom_site_fract_z
Si Si1 0.814657 0.469274 0.774832
Si Si2 0.548038 0.093557 0.574755
Si Si3 0.300705 0.920753 0.546940
Si Si4 0.881836 0.957255 0.385061
Si Si5 0.729500 0.773955 0.397243
Si Si6 0.805769 0.239939 0.261787
Si Si7 0.294721 0.603402 0.820801
O O1 0.753808 0.505405 0.837883
O O2 0.756013 0.364823 0.765384
O O3 0.718936 0.536133 0.732899
O O4 0.000000 0.476512 0.750000
O O5 0.670022 0.096985 0.520488
O O6 0.443697 0.189358 0.578111
O O7 0.644973 0.089792 0.634943
O O8 0.435449 0.001046 0.564026
O O9 0.301506 0.822803 0.580722
O O10 0.127865 0.964774 0.565923
O O11 0.839057 0.860470 0.414952
O O12 0.046496 0.932398 0.353242
O O13 0.722890 0.777211 0.327021
O O14 0.715025 0.295905 0.210261
O O15 0.000000 0.245568 0.250000
#
# Coordination Sequence:
#
# PCOD9457584 Si02
#       7
#     8   8   8   8   8   8   8
#     4  12  25  40  64  96 135 179 221 275 341 414
#     4  10  24  46  69  97 133 186 231 284 344 408
#     4  10  23  46  70  94 135 183 236 280 342 407
#     4  11  24  41  66 100 135 176 227 282 338 410
#     4  11  22  41  70  95 136 178 225 288 341 408
#     4  12  24  40  66 100 137 176 220 280 351 415
#     4  12  25  40  64 100 139 173 223 281 345 415
#
# _framework density 20.556515000000001
#
# number of rings (size 3 to 8) (size 9 to 14) (size 15 to 20)
#    0.000    0.857    4.286    3.429    2.000    1.714 
#    0.000    5.714    0.000    0.000    0.000    0.000 
#    0.000    0.000    0.000    0.000    0.000    0.000 
#
# Total GULP energy -312045.270842 kJ/mol
# GULP energy per Si atom -5572.236979 kJ/mol
# Density = 2.050973 g / cm^3
# Si number density = 20.556515 Si / 1000 Ang^3
#
#
#
# Elastic Constant Matrix: (Units=GPa)
#
#
# Indices 1 2 3 4 5 6 
#
# 1 58.6702 14.9749 3.9740 0.0000 0.0000 0.0000
# 2 14.9749 133.2783 15.7720 0.0000 0.0000 0.0000
# 3 3.9740 15.7720 86.0479 0.0000 0.0000 0.0000
# 4 0.0000 0.0000 0.0000 -5.1170 0.0000 0.0000
# 5 0.0000 0.0000 0.0000 0.0000 43.7735 0.0000
# 6 0.0000 0.0000 0.0000 0.0000 0.0000 22.1374
#
#
#
# Elastic Compliance Matrix: (Units=1/GPa)
#
#
# Indices 1 2 3 4 5 6 
#
# 1 0.017565 -0.001919 -0.000459 0.000000 0.000000 0.000000
# 2 -0.001919 0.007879 -0.001356 0.000000 0.000000 0.000000
# 3 -0.000459 -0.001356 0.011891 0.000000 0.000000 0.000000
# 4 0.000000 0.000000 0.000000 -0.195427 0.000000 0.000000
# 5 0.000000 0.000000 0.000000 0.000000 0.022845 0.000000
# 6 0.000000 0.000000 0.000000 0.000000 0.000000 0.045172
#
#
# Mechanical properties :
#
#
# Convention : Reuss Voigt Hill
#
# Bulk Modulus (GPa) = 33.48159 38.60427 36.04293
# Shear Modulus (GPa) = -68.82332 28.37714 -20.22309
#
# Velocity S-wave (km/s) = -5.79247 3.71947 -3.13993
# Velocity P-wave (km/s) = 5.33048 6.10461 2.10383
#
# Compressibility (1/GPa) = 0.02986716
#
# Stress axis : x y z
#
# Youngs Moduli (GPa) = 56.93009 126.91717 84.09637
#
# Poissons Ratio (x) = 0.24359 0.03864
# Poissons Ratio (y) = 0.10926 0.11400
# Poissons Ratio (z) = 0.02616 0.17204
#
# Static dielectric constant tensor:
#      x y z
#    x 2.398360 0.000000 0.000000 
#    y 0.000000 1.701250 0.000000 
#    z 0.000000 0.000000 1.697010 
# 
# From -- ./inp_files/22213.got.cif
#   From: 2010.05.17/outbox.cif.g08.bks.cpg/sg60_12_cif.got.tgz:22213.got - 2010.06.03 14:59:27.
