data_PCOD9457110
_publ_section_title
;
Structure prediction by ZEFSAII (Michael W. Deem and Ramdas Pophale) SiO2 
 PCOD9457110
Probable space group: P B C N
;
_chemical_formula_sum "Si O2"
_cell_formula_units_Z 28
_cell_length_a 4.844747
_cell_length_b 12.653238
_cell_length_c 19.791503
_cell_angle_alpha 90.000000
_cell_angle_beta 90.000000
_cell_angle_gamma 90.000000
_cell_volume 1213.253509
_symmetry_space_group_name_H-M "P B C N"
_symmetry_group_IT_number 60
_symmetry_cell_setting 'orthorhombic'
loop_
_space_group_symop_operation_xyz
x,y,z
1/2-x,1/2-y,1/2+z
1/2+x,1/2-y,-z
-x,y,1/2-z
-x,-y,-z
1/2+x,1/2+y,1/2-z
1/2-x,1/2+y,z
x,-y,1/2+z
loop_
_atom_site_type_symbol
_atom_site_label
_atom_site_fract_x
_atom_site_fract_y
_atom_site_fract_z
Si Si1 0.226083 0.409133 0.629280
Si Si2 0.534875 0.228529 0.955501
Si Si3 0.287441 0.539170 0.887454
Si Si4 0.500000 0.510954 0.750000
O O1 0.330755 0.296744 0.604657
O O2 0.415732 0.496109 0.589604
O O3 0.299425 0.436511 0.706348
O O4 0.911734 0.437531 0.616905
O O5 0.369619 0.127189 0.929036
O O6 0.297584 0.291319 0.996481
O O7 0.343571 0.574354 0.809197
#
# Coordination Sequence:
#
# PCOD9457110 Si02
#       4
#     8   8   8   4
#     4  10  22  43  66  96 135 171 223 283 325 391
#     4  12  26  42  65 103 137 182 227 263 342 403
#     4  10  22  43  68  97 130 175 221 282 327 394
#     4   8  22  44  66  96 126 172 224 278 346 376
#
# _framework density 23.078441000000002
#
# number of rings (size 3 to 8) (size 9 to 14) (size 15 to 20)
#    1.714    0.000    0.000    4.286    0.000    6.857 
#    5.143    0.000    0.000    0.000    0.000    0.000 
#    0.000    0.000    0.000    0.000    0.000    0.000 
#
# Total GULP energy -156121.496904 kJ/mol
# GULP energy per Si atom -5575.767747 kJ/mol
# Density = 2.302591 g / cm^3
# Si number density = 23.078441 Si / 1000 Ang^3
#
#
#
# Elastic Constant Matrix: (Units=GPa)
#
#
# Indices 1 2 3 4 5 6 
#
# 1 111.7359 -10.9604 18.0726 0.0000 0.0000 0.0000
# 2 -10.9604 12.2675 -2.2909 0.0000 0.0000 0.0000
# 3 18.0726 -2.2909 45.1817 0.0000 0.0000 0.0000
# 4 0.0000 0.0000 0.0000 19.9572 0.0000 0.0000
# 5 0.0000 0.0000 0.0000 0.0000 9.9124 0.0000
# 6 0.0000 0.0000 0.0000 0.0000 0.0000 32.5350
#
#
#
# Elastic Compliance Matrix: (Units=1/GPa)
#
#
# Indices 1 2 3 4 5 6 
#
# 1 0.010394 0.008592 -0.003722 0.000000 0.000000 0.000000
# 2 0.008592 0.089397 0.001096 0.000000 0.000000 0.000000
# 3 -0.003722 0.001096 0.023677 0.000000 0.000000 0.000000
# 4 0.000000 0.000000 0.000000 0.050107 0.000000 0.000000
# 5 0.000000 0.000000 0.000000 0.000000 0.100883 0.000000
# 6 0.000000 0.000000 0.000000 0.000000 0.000000 0.030736
#
#
# Mechanical properties :
#
#
# Convention : Reuss Voigt Hill
#
# Bulk Modulus (GPa) = 7.38550 19.86976 13.62763
# Shear Modulus (GPa) = 14.77552 23.43850 19.10701
#
# Velocity S-wave (km/s) = 2.53302 3.19031 2.88047
# Velocity P-wave (km/s) = 3.42959 4.71159 4.12075
#
# Compressibility (1/GPa) = 0.13540045
#
# Stress axis : x y z
#
# Youngs Moduli (GPa) = 96.20474 11.18604 42.23455
#
# Poissons Ratio (x) = -0.09611 0.15720
# Poissons Ratio (y) = -0.82658 -0.04629
# Poissons Ratio (z) = 0.35809 -0.01226
#
# Static dielectric constant tensor:
#      x y z
#    x 1.834290 0.000000 0.000000 
#    y 0.000000 1.875840 0.000000 
#    z 0.000000 0.000000 1.894580 
# 
# From -- ./inp_files/21354.got.cif
#   From: 2010.05.17/outbox.cif.g08.bks.cpg/sg60_11_cif.got.tgz:21354.got - 2010.06.03 14:59:27.
