data_PCOD9457544
_publ_section_title
;
Structure prediction by ZEFSAII (Michael W. Deem and Ramdas Pophale) SiO2 
 PCOD9457544
Probable space group: P B C N
;
_chemical_formula_sum "Si O2"
_cell_formula_units_Z 40
_cell_length_a 8.376611
_cell_length_b 9.148356
_cell_length_c 22.075654
_cell_angle_alpha 90.000000
_cell_angle_beta 90.000000
_cell_angle_gamma 90.000000
_cell_volume 1691.706363
_symmetry_space_group_name_H-M "P B C N"
_symmetry_group_IT_number 60
_symmetry_cell_setting 'orthorhombic'
loop_
_space_group_symop_operation_xyz
x,y,z
1/2-x,1/2-y,1/2+z
1/2+x,1/2-y,-z
-x,y,1/2-z
-x,-y,-z
1/2+x,1/2+y,1/2-z
1/2-x,1/2+y,z
x,-y,1/2+z
loop_
_atom_site_type_symbol
_atom_site_label
_atom_site_fract_x
_atom_site_fract_y
_atom_site_fract_z
Si Si1 0.202641 0.503386 0.171234
Si Si2 0.754627 0.248335 0.744252
Si Si3 0.111988 0.107396 0.462023
Si Si4 0.411899 0.502014 0.333922
Si Si5 0.090157 0.608156 0.544564
O O1 0.161109 0.366565 0.213715
O O2 0.154743 0.649717 0.206572
O O3 0.395945 0.505217 0.163963
O O4 0.131106 0.477535 0.105663
O O5 0.854014 0.145130 0.699098
O O6 0.652447 0.363069 0.705799
O O7 0.252788 0.154044 0.507004
O O8 0.013488 0.249247 0.441850
O O9 0.159792 0.021818 0.401011
O O10 0.000000 0.000000 0.500000
O O11 0.000000 0.500000 0.500000
#
# Coordination Sequence:
#
# PCOD9457544 Si02
#       5
#     8   8   8   8   8
#     4  11  24  49  75 109 156 197 255 321 390 464
#     4  10  23  44  74 113 147 203 253 315 393 455
#     4  12  27  50  78 112 159 202 266 322 388 471
#     4  11  25  47  74 109 157 199 257 326 385 466
#     4  12  29  49  80 115 151 214 258 324 399 463
#
# _framework density 23.644766000000001
#
# number of rings (size 3 to 8) (size 9 to 14) (size 15 to 20)
#    0.000    0.800    2.000    4.800    8.400    0.000 
#    3.600    8.000    0.000    0.000    0.000    0.000 
#    0.000    0.000    0.000    0.000    0.000    0.000 
#
# Total GULP energy -224273.347836 kJ/mol
# GULP energy per Si atom -5606.833696 kJ/mol
# Density = 2.359095 g / cm^3
# Si number density = 23.644766 Si / 1000 Ang^3
#
#
#
# Elastic Constant Matrix: (Units=GPa)
#
#
# Indices 1 2 3 4 5 6 
#
# 1 78.7296 48.1960 39.6632 0.0000 0.0000 0.0000
# 2 48.1960 178.9004 82.7346 0.0000 0.0000 0.0000
# 3 39.6632 82.7346 209.6858 0.0000 0.0000 0.0000
# 4 0.0000 0.0000 0.0000 36.3990 0.0000 0.0000
# 5 0.0000 0.0000 0.0000 0.0000 44.6053 0.0000
# 6 0.0000 0.0000 0.0000 0.0000 0.0000 32.3203
#
#
#
# Elastic Compliance Matrix: (Units=1/GPa)
#
#
# Indices 1 2 3 4 5 6 
#
# 1 0.015629 -0.003478 -0.001584 0.000000 0.000000 0.000000
# 2 -0.003478 0.007611 -0.002345 0.000000 0.000000 0.000000
# 3 -0.001584 -0.002345 0.005994 0.000000 0.000000 0.000000
# 4 0.000000 0.000000 0.000000 0.027473 0.000000 0.000000
# 5 0.000000 0.000000 0.000000 0.000000 0.022419 0.000000
# 6 0.000000 0.000000 0.000000 0.000000 0.000000 0.030940
#
#
# Mechanical properties :
#
#
# Convention : Reuss Voigt Hill
#
# Bulk Modulus (GPa) = 69.34946 89.83372 79.59159
# Shear Modulus (GPa) = 38.55423 42.44637 40.50030
#
# Velocity S-wave (km/s) = 4.04240 4.24154 4.14317
# Velocity P-wave (km/s) = 7.15412 7.87801 7.52478
#
# Compressibility (1/GPa) = 0.01441972
#
# Stress axis : x y z
#
# Youngs Moduli (GPa) = 63.98457 131.38464 166.83274
#
# Poissons Ratio (x) = 0.45694 0.26427
# Poissons Ratio (y) = 0.22253 0.39127
# Poissons Ratio (z) = 0.10135 0.30813
#
# Static dielectric constant tensor:
#      x y z
#    x 1.948620 0.000000 0.000000 
#    y 0.000000 1.851400 0.000000 
#    z 0.000000 0.000000 1.891610 
# 
# From -- ./inp_files/23850.got.cif
#   From: 2010.05.17/outbox.cif.g08.bks.cpg/sg60_12_cif.got.tgz:23850.got - 2010.06.03 14:59:27.
