data_PCOD9457795
_publ_section_title
;
Structure prediction by ZEFSAII (Michael W. Deem and Ramdas Pophale) SiO2 
 PCOD9457795
Probable space group: P B C N
;
_chemical_formula_sum "Si O2"
_cell_formula_units_Z 32
_cell_length_a 5.299833
_cell_length_b 27.772348
_cell_length_c 8.997652
_cell_angle_alpha 90.000000
_cell_angle_beta 90.000000
_cell_angle_gamma 90.000000
_cell_volume 1324.353658
_symmetry_space_group_name_H-M "P B C N"
_symmetry_group_IT_number 60
_symmetry_cell_setting 'orthorhombic'
loop_
_space_group_symop_operation_xyz
x,y,z
1/2-x,1/2-y,1/2+z
1/2+x,1/2-y,-z
-x,y,1/2-z
-x,-y,-z
1/2+x,1/2+y,1/2-z
1/2-x,1/2+y,z
x,-y,1/2+z
loop_
_atom_site_type_symbol
_atom_site_label
_atom_site_fract_x
_atom_site_fract_y
_atom_site_fract_z
Si Si1 0.000000 0.935653 0.750000
Si Si2 0.174018 0.545657 0.980491
Si Si3 0.590230 0.267681 0.577605
Si Si4 0.212844 0.625492 0.472857
Si Si5 0.500000 0.419219 0.250000
O O1 0.119196 0.960412 0.608084
O O2 0.207423 0.901793 0.823964
O O3 0.287693 0.547053 0.817858
O O4 0.000000 0.500000 0.000000
O O5 0.051206 0.599166 0.993730
O O6 0.325265 0.265855 0.482284
O O7 0.500000 0.259239 0.750000
O O8 0.731394 0.319044 0.558435
O O9 0.384770 0.611201 0.614952
#
# Coordination Sequence:
#
# PCOD9457795 Si02
#       5
#     4   8   8   8   4
#     4  10  24  45  74 106 148 202 264 320 399 480
#     4  11  26  47  76 111 156 210 266 331 402 489
#     4  12  30  52  86 125 167 218 283 353 429 511
#     4  11  25  46  77 109 156 205 262 326 408 493
#     4  10  26  45  72 112 150 204 264 326 405 480
#
# _framework density 24.16273
#
# number of rings (size 3 to 8) (size 9 to 14) (size 15 to 20)
#    0.000    1.000    1.250    2.250   10.500   12.000 
#    0.000    3.750    0.000    0.000    0.000    0.000 
#    0.000    0.000    0.000    0.000    0.000    0.000 
#
# Total GULP energy -178773.095830 kJ/mol
# GULP energy per Si atom -5586.659245 kJ/mol
# Density = 2.410773 g / cm^3
# Si number density = 24.162730 Si / 1000 Ang^3
#
#
#
# Elastic Constant Matrix: (Units=GPa)
#
#
# Indices 1 2 3 4 5 6 
#
# 1 122.8821 38.8006 38.2150 0.0000 0.0000 0.0000
# 2 38.8006 94.0092 32.2148 0.0000 0.0000 0.0000
# 3 38.2150 32.2148 127.8224 0.0000 0.0000 0.0000
# 4 0.0000 0.0000 0.0000 -103.1127 0.0000 0.0000
# 5 0.0000 0.0000 0.0000 0.0000 58.4657 0.0000
# 6 0.0000 0.0000 0.0000 0.0000 0.0000 34.3153
#
#
#
# Elastic Compliance Matrix: (Units=1/GPa)
#
#
# Indices 1 2 3 4 5 6 
#
# 1 0.009847 -0.003344 -0.002101 0.000000 0.000000 0.000000
# 2 -0.003344 0.012779 -0.002221 0.000000 0.000000 0.000000
# 3 -0.002101 -0.002221 0.009011 0.000000 0.000000 0.000000
# 4 0.000000 0.000000 0.000000 -0.009698 0.000000 0.000000
# 5 0.000000 0.000000 0.000000 0.000000 0.017104 0.000000
# 6 0.000000 0.000000 0.000000 0.000000 0.000000 0.029141
#
#
# Mechanical properties :
#
#
# Convention : Reuss Voigt Hill
#
# Bulk Modulus (GPa) = 61.33195 62.57495 61.95345
# Shear Modulus (GPa) = 56.21029 13.63256 34.92142
#
# Velocity S-wave (km/s) = 4.82843 2.37786 3.80578
# Velocity P-wave (km/s) = 7.51817 5.78727 6.70878
#
# Compressibility (1/GPa) = 0.01630472
#
# Stress axis : x y z
#
# Youngs Moduli (GPa) = 101.55076 78.25631 110.97266
#
# Poissons Ratio (x) = 0.26171 0.23318
# Poissons Ratio (y) = 0.33961 0.24644
# Poissons Ratio (z) = 0.21338 0.17378
#
# Static dielectric constant tensor:
#      x y z
#    x 2.026300 0.000000 0.000000 
#    y 0.000000 1.972350 0.000000 
#    z 0.000000 0.000000 1.862910 
# 
# From -- ./inp_files/3075.got.cif
#   From: 2010.05.17/outbox.cif.g08.bks.cpg/sg60_2_cif.got.tgz:3075.got - 2010.06.03 14:59:27.
