data_PCOD9457541
_publ_section_title
;
Structure prediction by ZEFSAII (Michael W. Deem and Ramdas Pophale) SiO2 
 PCOD9457541
Probable space group: P B C N
;
_chemical_formula_sum "Si O2"
_cell_formula_units_Z 64
_cell_length_a 22.816198
_cell_length_b 25.051632
_cell_length_c 5.022467
_cell_angle_alpha 90.000000
_cell_angle_beta 90.000000
_cell_angle_gamma 90.000000
_cell_volume 2870.756735
_symmetry_space_group_name_H-M "P B C N"
_symmetry_group_IT_number 60
_symmetry_cell_setting 'orthorhombic'
loop_
_space_group_symop_operation_xyz
x,y,z
1/2-x,1/2-y,1/2+z
1/2+x,1/2-y,-z
-x,y,1/2-z
-x,-y,-z
1/2+x,1/2+y,1/2-z
1/2-x,1/2+y,z
x,-y,1/2+z
loop_
_atom_site_type_symbol
_atom_site_label
_atom_site_fract_x
_atom_site_fract_y
_atom_site_fract_z
Si Si1 0.651178 0.348112 0.261207
Si Si2 0.228178 0.872683 0.755446
Si Si3 0.394103 0.252365 0.862165
Si Si4 0.718333 0.227553 0.992208
Si Si5 0.456782 0.857128 0.500356
Si Si6 0.276321 0.017756 0.328348
Si Si7 0.908602 0.527422 0.586682
Si Si8 0.463066 0.663031 0.013640
O O1 0.677744 0.377960 0.518636
O O2 0.627998 0.292975 0.406987
O O3 0.735883 0.260318 0.255542
O O4 0.592602 0.367698 0.109500
O O5 0.272337 0.831249 0.895159
O O6 0.198077 0.851400 0.484441
O O7 0.266980 0.924504 0.705453
O O8 0.341999 0.237671 0.657752
O O9 0.419781 0.197685 0.981596
O O10 0.438365 0.285558 0.674731
O O11 0.500000 0.858794 0.250000
O O12 0.417524 0.911254 0.492156
O O13 0.500000 0.857284 0.750000
O O14 0.340521 0.992701 0.389474
O O15 0.247143 0.020526 0.615644
O O16 0.934838 0.486995 0.371094
O O17 0.500000 0.634825 0.250000
O O18 0.500000 0.677766 0.750000
#
# Coordination Sequence:
#
# PCOD9457541 Si02
#       8
#     8   8   8   8   8   8   8   8
#     4  12  24  45  66 104 141 189 231 294 348 444
#     4  12  24  45  69 100 141 181 237 294 368 443
#     4  12  28  43  68  98 150 190 251 290 361 435
#     4  12  26  43  64  96 140 191 237 287 364 443
#     4  12  30  46  70 103 136 192 256 312 359 416
#     4  10  23  44  74 100 132 176 233 297 370 430
#     4  10  23  48  70  93 128 172 246 317 378 419
#     4  12  23  41  68  93 140 197 230 280 333 402
#
# _framework density 22.293773000000002
#
# number of rings (size 3 to 8) (size 9 to 14) (size 15 to 20)
#    0.000    0.500    3.750    3.375    7.000    1.500 
#    2.250    0.000    0.000    0.000    0.000    0.000 
#    0.000   35.000    0.000    0.000    0.000    0.000 
#
# Total GULP energy -356829.236595 kJ/mol
# GULP energy per Si atom -5575.456822 kJ/mol
# Density = 2.224303 g / cm^3
# Si number density = 22.293773 Si / 1000 Ang^3
#
#
#
# Elastic Constant Matrix: (Units=GPa)
#
#
# Indices 1 2 3 4 5 6 
#
# 1 83.6553 31.0159 28.9630 0.0000 0.0000 0.0000
# 2 31.0159 91.6371 25.8204 0.0000 0.0000 0.0000
# 3 28.9630 25.8204 183.9692 0.0000 0.0000 0.0000
# 4 0.0000 0.0000 0.0000 15.6653 0.0000 0.0000
# 5 0.0000 0.0000 0.0000 0.0000 41.7667 0.0000
# 6 0.0000 0.0000 0.0000 0.0000 0.0000 26.8754
#
#
#
# Elastic Compliance Matrix: (Units=1/GPa)
#
#
# Indices 1 2 3 4 5 6 
#
# 1 0.014116 -0.004322 -0.001616 0.000000 0.000000 0.000000
# 2 -0.004322 0.012686 -0.001100 0.000000 0.000000 0.000000
# 3 -0.001616 -0.001100 0.005844 0.000000 0.000000 0.000000
# 4 0.000000 0.000000 0.000000 0.063835 0.000000 0.000000
# 5 0.000000 0.000000 0.000000 0.000000 0.023943 0.000000
# 6 0.000000 0.000000 0.000000 0.000000 0.000000 0.037209
#
#
# Mechanical properties :
#
#
# Convention : Reuss Voigt Hill
#
# Bulk Modulus (GPa) = 53.85124 58.98447 56.41785
# Shear Modulus (GPa) = 28.10596 35.09230 31.59913
#
# Velocity S-wave (km/s) = 3.55450 3.97178 3.76892
# Velocity P-wave (km/s) = 6.40731 6.89555 6.65591
#
# Compressibility (1/GPa) = 0.01856968
#
# Stress axis : x y z
#
# Youngs Moduli (GPa) = 70.84277 78.83001 171.10315
#
# Poissons Ratio (x) = 0.34074 0.27644
# Poissons Ratio (y) = 0.30621 0.18820
# Poissons Ratio (z) = 0.11446 0.08671
#
# Static dielectric constant tensor:
#      x y z
#    x 2.019610 0.000000 0.000000 
#    y 0.000000 2.087340 0.000000 
#    z 0.000000 0.000000 1.975020 
# 
# From -- ./inp_files/2457.got.cif
#   From: 2010.05.17/outbox.cif.g08.bks.cpg/sg60_2_cif.got.tgz:2457.got - 2010.06.03 14:59:27.
