data_PCOD9457700
_publ_section_title
;
Structure prediction by ZEFSAII (Michael W. Deem and Ramdas Pophale) SiO2 
 PCOD9457700
Probable space group: P B C N
;
_chemical_formula_sum "Si O2"
_cell_formula_units_Z 60
_cell_length_a 17.832117
_cell_length_b 10.125307
_cell_length_c 15.451590
_cell_angle_alpha 90.000000
_cell_angle_beta 90.000000
_cell_angle_gamma 90.000000
_cell_volume 2789.872016
_symmetry_space_group_name_H-M "P B C N"
_symmetry_group_IT_number 60
_symmetry_cell_setting 'orthorhombic'
loop_
_space_group_symop_operation_xyz
x,y,z
1/2-x,1/2-y,1/2+z
1/2+x,1/2-y,-z
-x,y,1/2-z
-x,-y,-z
1/2+x,1/2+y,1/2-z
1/2-x,1/2+y,z
x,-y,1/2+z
loop_
_atom_site_type_symbol
_atom_site_label
_atom_site_fract_x
_atom_site_fract_y
_atom_site_fract_z
Si Si1 0.310366 0.450228 0.841886
Si Si2 0.000000 0.321720 0.750000
Si Si3 0.135773 0.575923 0.347929
Si Si4 0.628199 0.662789 0.534430
Si Si5 0.465189 0.658201 0.575846
Si Si6 0.819570 0.930524 0.337312
Si Si7 0.869610 0.701004 0.559687
Si Si8 0.251743 0.319351 0.592467
O O1 0.222837 0.429849 0.822530
O O2 0.319663 0.552083 0.920982
O O3 0.343975 0.521071 0.757284
O O4 0.348444 0.313512 0.870406
O O5 0.925720 0.404090 0.726555
O O6 0.980257 0.234383 0.833864
O O7 0.128970 0.703313 0.409704
O O8 0.119092 0.440051 0.397326
O O9 0.544968 0.603639 0.544909
O O10 0.663943 0.703956 0.442904
O O11 0.392057 0.571835 0.599885
O O12 0.439369 0.754029 0.498581
O O13 0.780854 0.786993 0.340457
O O14 0.757928 0.033355 0.371981
O O15 0.801819 0.694816 0.490433
#
# Coordination Sequence:
#
# PCOD9457700 Si02
#       8
#     8   4   8   8   8   8   8   8
#     4  12  24  42  69  97 135 180 216 282 335 407
#     4  10  24  42  68  96 140 180 220 272 356 394
#     4  11  22  42  66  98 130 178 223 275 331 407
#     4  11  22  43  73  90 129 182 223 267 342 401
#     4  10  24  45  66  97 136 179 222 274 338 420
#     4  11  26  39  64  99 136 169 223 282 340 396
#     4  11  24  42  67  99 135 171 228 277 331 403
#     4  11  22  41  63  98 126 173 225 279 326 403
#
# _framework density 21.506361999999999
#
# number of rings (size 3 to 8) (size 9 to 14) (size 15 to 20)
#    0.000    1.067    2.667    4.000    7.467    4.267 
#    2.400    1.333    0.000    0.000    0.000    0.000 
#    0.000    0.000    0.000    0.000    0.000    0.000 
#
# Total GULP energy -335268.613643 kJ/mol
# GULP energy per Si atom -5587.810227 kJ/mol
# Density = 2.145741 g / cm^3
# Si number density = 21.506362 Si / 1000 Ang^3
#
#
#
# Elastic Constant Matrix: (Units=GPa)
#
#
# Indices 1 2 3 4 5 6 
#
# 1 107.8211 30.5787 27.8993 0.0000 0.0000 0.0000
# 2 30.5787 103.3000 20.1848 0.0000 0.0000 0.0000
# 3 27.8993 20.1848 69.3527 0.0000 0.0000 0.0000
# 4 0.0000 0.0000 0.0000 32.1561 0.0000 0.0000
# 5 0.0000 0.0000 0.0000 0.0000 32.0381 0.0000
# 6 0.0000 0.0000 0.0000 0.0000 0.0000 29.5077
#
#
#
# Elastic Compliance Matrix: (Units=1/GPa)
#
#
# Indices 1 2 3 4 5 6 
#
# 1 0.010938 -0.002522 -0.003666 0.000000 0.000000 0.000000
# 2 -0.002522 0.010846 -0.002142 0.000000 0.000000 0.000000
# 3 -0.003666 -0.002142 0.016517 0.000000 0.000000 0.000000
# 4 0.000000 0.000000 0.000000 0.031098 0.000000 0.000000
# 5 0.000000 0.000000 0.000000 0.000000 0.031213 0.000000
# 6 0.000000 0.000000 0.000000 0.000000 0.000000 0.033889
#
#
# Mechanical properties :
#
#
# Convention : Reuss Voigt Hill
#
# Bulk Modulus (GPa) = 46.20836 48.64438 47.42637
# Shear Modulus (GPa) = 31.57039 32.19443 31.88241
#
# Velocity S-wave (km/s) = 3.83555 3.87327 3.85445
# Velocity P-wave (km/s) = 6.41465 6.53228 6.47373
#
# Compressibility (1/GPa) = 0.02164111
#
# Stress axis : x y z
#
# Youngs Moduli (GPa) = 91.42049 92.20367 60.54197
#
# Poissons Ratio (x) = 0.23250 0.22197
# Poissons Ratio (y) = 0.23052 0.12969
# Poissons Ratio (z) = 0.33519 0.19752
#
# Static dielectric constant tensor:
#      x y z
#    x 1.871090 0.000000 0.000000 
#    y 0.000000 1.773280 0.000000 
#    z 0.000000 0.000000 1.805120 
# 
# From -- ./inp_files/20902.got.cif
#   From: 2010.05.17/outbox.cif.g08.bks.cpg/sg60_11_cif.got.tgz:20902.got - 2010.06.03 14:59:27.
