data_PCOD9457151
_publ_section_title
;
Structure prediction by ZEFSAII (Michael W. Deem and Ramdas Pophale) SiO2 
 PCOD9457151
Probable space group: P B C N
;
_chemical_formula_sum "Si O2"
_cell_formula_units_Z 36
_cell_length_a 8.919648
_cell_length_b 19.735554
_cell_length_c 8.119558
_cell_angle_alpha 90.000000
_cell_angle_beta 90.000000
_cell_angle_gamma 90.000000
_cell_volume 1429.319854
_symmetry_space_group_name_H-M "P B C N"
_symmetry_group_IT_number 60
_symmetry_cell_setting 'orthorhombic'
loop_
_space_group_symop_operation_xyz
x,y,z
1/2-x,1/2-y,1/2+z
1/2+x,1/2-y,-z
-x,y,1/2-z
-x,-y,-z
1/2+x,1/2+y,1/2-z
1/2-x,1/2+y,z
x,-y,1/2+z
loop_
_atom_site_type_symbol
_atom_site_label
_atom_site_fract_x
_atom_site_fract_y
_atom_site_fract_z
Si Si1 0.654486 0.465822 0.423241
Si Si2 0.759043 0.589872 0.568460
Si Si3 0.943828 0.211869 0.580605
Si Si4 0.752768 0.320741 0.513460
Si Si5 0.500000 0.836992 0.250000
O O1 0.500000 0.500000 0.500000
O O2 0.764679 0.528779 0.442885
O O3 0.678379 0.439943 0.235427
O O4 0.705231 0.398810 0.524057
O O5 0.663931 0.654663 0.506130
O O6 0.921881 0.616397 0.613733
O O7 0.862849 0.280893 0.632209
O O8 0.000000 0.179666 0.750000
O O9 0.095679 0.219509 0.478985
O O10 0.852916 0.307613 0.345713
#
# Coordination Sequence:
#
# PCOD9457151 Si02
#       5
#     8   8   8   8   4
#     4  11  21  44  69 101 132 185 232 286 351 412
#     4  11  23  43  73  95 142 177 234 288 346 418
#     4  12  22  46  66  98 137 185 225 295 346 413
#     4  11  25  41  72  96 138 179 239 279 354 420
#     4  10  22  44  64  98 134 188 218 294 352 402
#
# _framework density 25.186806000000001
#
# number of rings (size 3 to 8) (size 9 to 14) (size 15 to 20)
#    0.000    0.889    6.667    2.000    0.000    3.556 
#   10.000    0.000    0.000    0.000    0.000    0.000 
#    0.000    0.000    0.000    0.000    0.000    0.000 
#
# Total GULP energy -200594.735771 kJ/mol
# GULP energy per Si atom -5572.075994 kJ/mol
# Density = 2.512948 g / cm^3
# Si number density = 25.186806 Si / 1000 Ang^3
#
#
#
# Elastic Constant Matrix: (Units=GPa)
#
#
# Indices 1 2 3 4 5 6 
#
# 1 152.4678 70.9538 11.1793 0.0000 0.0000 0.0000
# 2 70.9538 153.9917 16.5766 0.0000 0.0000 0.0000
# 3 11.1793 16.5766 23.3405 0.0000 0.0000 0.0000
# 4 0.0000 0.0000 0.0000 30.9650 0.0000 0.0000
# 5 0.0000 0.0000 0.0000 0.0000 38.2376 0.0000
# 6 0.0000 0.0000 0.0000 0.0000 0.0000 49.9419
#
#
#
# Elastic Compliance Matrix: (Units=1/GPa)
#
#
# Indices 1 2 3 4 5 6 
#
# 1 0.008390 -0.003717 -0.001378 0.000000 0.000000 0.000000
# 2 -0.003717 0.008678 -0.004383 0.000000 0.000000 0.000000
# 3 -0.001378 -0.004383 0.046617 0.000000 0.000000 0.000000
# 4 0.000000 0.000000 0.000000 0.032295 0.000000 0.000000
# 5 0.000000 0.000000 0.000000 0.000000 0.026152 0.000000
# 6 0.000000 0.000000 0.000000 0.000000 0.000000 0.020023
#
#
# Mechanical properties :
#
#
# Convention : Reuss Voigt Hill
#
# Bulk Modulus (GPa) = 22.35742 58.57994 40.46868
# Shear Modulus (GPa) = 28.40552 39.23491 33.82021
#
# Velocity S-wave (km/s) = 3.36191 3.95112 3.66836
# Velocity P-wave (km/s) = 4.89549 6.64258 5.83479
#
# Compressibility (1/GPa) = 0.04472787
#
# Stress axis : x y z
#
# Youngs Moduli (GPa) = 119.19303 115.22744 21.45137
#
# Poissons Ratio (x) = 0.42834 0.02957
# Poissons Ratio (y) = 0.44308 0.09402
# Poissons Ratio (z) = 0.16429 0.50505
#
# Static dielectric constant tensor:
#      x y z
#    x 2.168150 0.000000 0.000000 
#    y 0.000000 2.002070 0.000000 
#    z 0.000000 0.000000 2.174800 
# 
# From -- ./inp_files/9891.got.cif
#   From: 2010.05.17/outbox.cif.g08.bks.cpg/sg60_5_cif.got.tgz:9891.got - 2010.06.03 14:59:27.
