data_PCOD9457397
_publ_section_title
;
Structure prediction by ZEFSAII (Michael W. Deem and Ramdas Pophale) SiO2 
 PCOD9457397
Probable space group: P B C N
;
_chemical_formula_sum "Si O2"
_cell_formula_units_Z 64
_cell_length_a 15.888660
_cell_length_b 11.518061
_cell_length_c 17.443846
_cell_angle_alpha 90.000000
_cell_angle_beta 90.000000
_cell_angle_gamma 90.000000
_cell_volume 3192.338164
_symmetry_space_group_name_H-M "P B C N"
_symmetry_group_IT_number 60
_symmetry_cell_setting 'orthorhombic'
loop_
_space_group_symop_operation_xyz
x,y,z
1/2-x,1/2-y,1/2+z
1/2+x,1/2-y,-z
-x,y,1/2-z
-x,-y,-z
1/2+x,1/2+y,1/2-z
1/2-x,1/2+y,z
x,-y,1/2+z
loop_
_atom_site_type_symbol
_atom_site_label
_atom_site_fract_x
_atom_site_fract_y
_atom_site_fract_z
Si Si1 0.817865 0.676372 0.435155
Si Si2 0.911846 0.102908 0.653116
Si Si3 0.587414 0.013169 0.543480
Si Si4 0.104475 0.131126 0.672134
Si Si5 0.187851 0.276625 0.956527
Si Si6 0.732901 0.981257 0.801190
Si Si7 0.090097 0.381603 0.290482
Si Si8 0.678748 0.354056 0.669790
O O1 0.865351 0.623110 0.507368
O O2 0.869856 0.770697 0.387768
O O3 0.729748 0.726359 0.466462
O O4 0.807118 0.572214 0.376094
O O5 0.899507 0.163123 0.737023
O O6 0.869915 0.182813 0.588063
O O7 0.012302 0.086798 0.647909
O O8 0.866813 0.977264 0.653839
O O9 0.582117 0.039977 0.633438
O O10 0.500000 0.000000 0.500000
O O11 0.637127 0.894183 0.529988
O O12 0.180299 0.040128 0.672779
O O13 0.264390 0.312580 0.900573
O O14 0.759516 0.881320 0.741105
O O15 0.667337 0.066883 0.759603
O O16 0.114938 0.249217 0.310360
O O17 0.000000 0.385272 0.250000
#
# Coordination Sequence:
#
# PCOD9457397 Si02
#       8
#     8   8   8   8   8   8   8   8
#     4  12  24  42  66 100 137 182 232 287 353 422
#     4  10  23  43  70 101 132 180 236 290 349 421
#     4  12  26  44  65 101 145 183 230 292 359 425
#     4  10  23  42  67 101 134 175 235 288 342 419
#     4  12  23  45  70  97 140 187 229 287 359 427
#     4  11  23  44  70 100 136 186 234 287 349 428
#     4  12  26  43  72 104 141 190 236 296 355 422
#     4  11  22  44  72  97 132 182 238 284 353 424
#
# _framework density 20.048000999999999
#
# number of rings (size 3 to 8) (size 9 to 14) (size 15 to 20)
#    0.000    0.750    2.500    6.000    3.500    1.000 
#    0.000    1.250    0.000    0.000    0.000    0.000 
#    0.000    0.000    0.000    0.000    0.000    0.000 
#
# Total GULP energy -357736.249769 kJ/mol
# GULP energy per Si atom -5589.628903 kJ/mol
# Density = 2.000237 g / cm^3
# Si number density = 20.048001 Si / 1000 Ang^3
#
#
#
# Elastic Constant Matrix: (Units=GPa)
#
#
# Indices 1 2 3 4 5 6 
#
# 1 104.9696 42.0113 30.8818 0.0000 0.0000 0.0000
# 2 42.0113 88.8448 37.3648 0.0000 0.0000 0.0000
# 3 30.8818 37.3648 66.3074 0.0000 0.0000 0.0000
# 4 0.0000 0.0000 0.0000 -545.6739 0.0000 0.0000
# 5 0.0000 0.0000 0.0000 0.0000 35.7038 0.0000
# 6 0.0000 0.0000 0.0000 0.0000 0.0000 -10.3548
#
#
#
# Elastic Compliance Matrix: (Units=1/GPa)
#
#
# Indices 1 2 3 4 5 6 
#
# 1 0.012247 -0.004446 -0.003199 0.000000 0.000000 0.000000
# 2 -0.004446 0.016366 -0.007152 0.000000 0.000000 0.000000
# 3 -0.003199 -0.007152 0.020601 0.000000 0.000000 0.000000
# 4 0.000000 0.000000 0.000000 -0.001833 0.000000 0.000000
# 5 0.000000 0.000000 0.000000 0.000000 0.028008 0.000000
# 6 0.000000 0.000000 0.000000 0.000000 0.000000 -0.096574
#
#
# Mechanical properties :
#
#
# Convention : Reuss Voigt Hill
#
# Bulk Modulus (GPa) = 50.96461 53.40415 52.18438
# Shear Modulus (GPa) = 334.50050 -94.07407 120.21322
#
# Velocity S-wave (km/s) = 12.93105 -6.85757 7.75196
# Velocity P-wave (km/s) = 15.76153 6.00048 10.30583
#
# Compressibility (1/GPa) = 0.01962146
#
# Stress axis : x y z
#
# Youngs Moduli (GPa) = 81.65314 61.10392 48.54155
#
# Poissons Ratio (x) = 0.27166 0.15526
# Poissons Ratio (y) = 0.36302 0.34715
# Poissons Ratio (z) = 0.26117 0.43699
#
# Static dielectric constant tensor:
#      x y z
#    x 1.530720 0.000000 0.000000 
#    y 0.000000 1.666150 0.000000 
#    z 0.000000 0.000000 1.707390 
# 
# From -- ./inp_files/20651.got.cif
#   From: 2010.05.17/outbox.cif.g08.bks.cpg/sg60_11_cif.got.tgz:20651.got - 2010.06.03 14:59:27.
