data_PCOD9457314
_publ_section_title
;
Structure prediction by ZEFSAII (Michael W. Deem and Ramdas Pophale) SiO2 
 PCOD9457314
Probable space group: P B C N
;
_chemical_formula_sum "Si O2"
_cell_formula_units_Z 60
_cell_length_a 5.714759
_cell_length_b 18.283574
_cell_length_c 24.367147
_cell_angle_alpha 90.000000
_cell_angle_beta 90.000000
_cell_angle_gamma 90.000000
_cell_volume 2546.031060
_symmetry_space_group_name_H-M "P B C N"
_symmetry_group_IT_number 60
_symmetry_cell_setting 'orthorhombic'
loop_
_space_group_symop_operation_xyz
x,y,z
1/2-x,1/2-y,1/2+z
1/2+x,1/2-y,-z
-x,y,1/2-z
-x,-y,-z
1/2+x,1/2+y,1/2-z
1/2-x,1/2+y,z
x,-y,1/2+z
loop_
_atom_site_type_symbol
_atom_site_label
_atom_site_fract_x
_atom_site_fract_y
_atom_site_fract_z
Si Si1 0.310414 0.123522 0.297653
Si Si2 0.120540 0.417264 0.605057
Si Si3 0.500000 0.254957 0.750000
Si Si4 0.376886 0.058904 0.908834
Si Si5 0.652095 0.885452 0.301011
Si Si6 0.267739 0.735603 0.064868
Si Si7 0.735175 0.287570 0.059891
Si Si8 0.995847 0.999012 0.171086
O O1 0.500000 0.128899 0.250000
O O2 0.415250 0.118549 0.358451
O O3 0.144001 0.192221 0.289195
O O4 0.174093 0.047088 0.291924
O O5 0.233369 0.350774 0.573007
O O6 0.296534 0.448869 0.650753
O O7 0.028777 0.488712 0.572363
O O8 0.340439 0.200082 0.713988
O O9 0.517691 0.094638 0.857150
O O10 0.296674 0.126336 0.945773
O O11 0.145963 0.024173 0.882767
O O12 0.500000 0.916005 0.250000
O O13 0.897272 0.925510 0.304884
O O14 0.525213 0.756820 0.087140
O O15 0.026238 0.775345 0.085166
O O16 0.281348 0.751025 0.999542
#
# Coordination Sequence:
#
# PCOD9457314 Si02
#       8
#     8   8   4   8   8   8   8   8
#     4  11  24  40  63  95 129 170 225 273 332 398
#     4  10  24  41  65  96 131 175 218 278 333 400
#     4  10  24  42  60  92 124 168 220 274 324 392
#     4  10  23  39  66  96 129 173 226 272 333 393
#     4   9  23  41  60  91 128 171 220 270 330 386
#     4  10  24  45  71  99 140 173 225 274 346 406
#     4  10  24  45  70 103 133 181 218 279 342 409
#     4  10  23  43  62  91 127 177 219 274 335 398
#
# _framework density 23.566092999999999
#
# number of rings (size 3 to 8) (size 9 to 14) (size 15 to 20)
#    0.400    1.600    0.000    0.800    9.333   12.267 
#    0.000    0.667    2.933    0.000    0.000    0.000 
#    0.000    0.000    0.000    0.000    0.000    0.000 
#
# Total GULP energy -335019.864689 kJ/mol
# GULP energy per Si atom -5583.664411 kJ/mol
# Density = 2.351246 g / cm^3
# Si number density = 23.566093 Si / 1000 Ang^3
#
#
#
# Elastic Constant Matrix: (Units=GPa)
#
#
# Indices 1 2 3 4 5 6 
#
# 1 100.3649 40.2866 2.3878 0.0000 0.0000 0.0000
# 2 40.2866 142.5167 0.0069 0.0000 0.0000 0.0000
# 3 2.3878 0.0069 28.6430 0.0000 0.0000 0.0000
# 4 0.0000 0.0000 0.0000 19.1891 0.0000 0.0000
# 5 0.0000 0.0000 0.0000 0.0000 9.6465 0.0000
# 6 0.0000 0.0000 0.0000 0.0000 0.0000 15.2905
#
#
#
# Elastic Compliance Matrix: (Units=1/GPa)
#
#
# Indices 1 2 3 4 5 6 
#
# 1 0.011264 -0.003184 -0.000938 0.000000 0.000000 0.000000
# 2 -0.003184 0.007917 0.000264 0.000000 0.000000 0.000000
# 3 -0.000938 0.000264 0.034991 0.000000 0.000000 0.000000
# 4 0.000000 0.000000 0.000000 0.052113 0.000000 0.000000
# 5 0.000000 0.000000 0.000000 0.000000 0.103665 0.000000
# 6 0.000000 0.000000 0.000000 0.000000 0.000000 0.065400
#
#
# Mechanical properties :
#
#
# Convention : Reuss Voigt Hill
#
# Bulk Modulus (GPa) = 21.52670 39.65415 30.59042
# Shear Modulus (GPa) = 16.74754 24.08144 20.41449
#
# Velocity S-wave (km/s) = 2.66872 3.20013 2.94643
# Velocity P-wave (km/s) = 4.31862 5.52429 4.95824
#
# Compressibility (1/GPa) = 0.04645394
#
# Stress axis : x y z
#
# Youngs Moduli (GPa) = 88.77794 126.31387 28.57901
#
# Poissons Ratio (x) = 0.40219 0.02681
# Poissons Ratio (y) = 0.28268 -0.00753
# Poissons Ratio (z) = 0.08330 -0.03329
#
# Static dielectric constant tensor:
#      x y z
#    x 1.920000 0.000000 0.000000 
#    y 0.000000 1.874000 0.000000 
#    z 0.000000 0.000000 1.911840 
# 
# From -- ./inp_files/24998.got.cif
#   From: 2010.05.17/outbox.cif.g08.bks.cpg/sg60_13_cif.got.tgz:24998.got - 2010.06.03 14:59:27.
