data_PCOD9457282
_publ_section_title
;
Structure prediction by ZEFSAII (Michael W. Deem and Ramdas Pophale) SiO2 
 PCOD9457282
Probable space group: P B C N
;
_chemical_formula_sum "Si O2"
_cell_formula_units_Z 36
_cell_length_a 19.551325
_cell_length_b 7.607343
_cell_length_c 9.833335
_cell_angle_alpha 90.000000
_cell_angle_beta 90.000000
_cell_angle_gamma 90.000000
_cell_volume 1462.547662
_symmetry_space_group_name_H-M "P B C N"
_symmetry_group_IT_number 60
_symmetry_cell_setting 'orthorhombic'
loop_
_space_group_symop_operation_xyz
x,y,z
1/2-x,1/2-y,1/2+z
1/2+x,1/2-y,-z
-x,y,1/2-z
-x,-y,-z
1/2+x,1/2+y,1/2-z
1/2-x,1/2+y,z
x,-y,1/2+z
loop_
_atom_site_type_symbol
_atom_site_label
_atom_site_fract_x
_atom_site_fract_y
_atom_site_fract_z
Si Si1 0.164953 0.717782 0.058103
Si Si2 0.606836 0.856646 0.426131
Si Si3 0.376776 0.466001 0.398010
Si Si4 0.500000 0.654377 0.250000
Si Si5 0.777711 0.777147 0.722617
O O1 0.109658 0.563195 0.045710
O O2 0.131934 0.908389 0.031486
O O3 0.208877 0.701007 0.193589
O O4 0.216517 0.696611 0.929033
O O5 0.619965 0.734182 0.556802
O O6 0.539882 0.779867 0.354731
O O7 0.669222 0.821027 0.321702
O O8 0.554890 0.467345 0.674403
O O9 0.313565 0.533657 0.306709
#
# Coordination Sequence:
#
# PCOD9457282 Si02
#       5
#     8   8   8   4   8
#     4  10  24  48  70 109 148 191 247 303 374 454
#     4  11  23  46  75 104 148 202 243 307 381 442
#     4   9  23  48  71 104 146 199 244 305 375 445
#     4  10  22  50  72 112 154 186 268 314 366 452
#     4   9  24  46  65 108 148 184 242 306 365 449
#
# _framework density 24.614583
#
# number of rings (size 3 to 8) (size 9 to 14) (size 15 to 20)
#    1.333    0.889    0.000    0.667    3.111    4.444 
#   16.000    2.222    0.000    0.000    0.000    0.000 
#    0.000    0.000    0.000    0.000    0.000    0.000 
#
# Total GULP energy -201393.608321 kJ/mol
# GULP energy per Si atom -5594.266898 kJ/mol
# Density = 2.455856 g / cm^3
# Si number density = 24.614583 Si / 1000 Ang^3
#
#
#
# Elastic Constant Matrix: (Units=GPa)
#
#
# Indices 1 2 3 4 5 6 
#
# 1 62.7715 7.6650 53.2178 0.0000 0.0000 0.0000
# 2 7.6650 85.3330 32.4065 0.0000 0.0000 0.0000
# 3 53.2178 32.4065 133.6821 0.0000 0.0000 0.0000
# 4 0.0000 0.0000 0.0000 18.1580 0.0000 0.0000
# 5 0.0000 0.0000 0.0000 0.0000 40.3022 0.0000
# 6 0.0000 0.0000 0.0000 0.0000 0.0000 17.8913
#
#
#
# Elastic Compliance Matrix: (Units=1/GPa)
#
#
# Indices 1 2 3 4 5 6 
#
# 1 0.024253 0.001639 -0.010052 0.000000 0.000000 0.000000
# 2 0.001639 0.013018 -0.003808 0.000000 0.000000 0.000000
# 3 -0.010052 -0.003808 0.012405 0.000000 0.000000 0.000000
# 4 0.000000 0.000000 0.000000 0.055072 0.000000 0.000000
# 5 0.000000 0.000000 0.000000 0.000000 0.024813 0.000000
# 6 0.000000 0.000000 0.000000 0.000000 0.000000 0.055893
#
#
# Mechanical properties :
#
#
# Convention : Reuss Voigt Hill
#
# Bulk Modulus (GPa) = 39.63032 52.04058 45.83545
# Shear Modulus (GPa) = 22.90344 27.83678 25.37011
#
# Velocity S-wave (km/s) = 3.05369 3.36654 3.21393
# Velocity P-wave (km/s) = 5.34497 6.02491 5.69509
#
# Compressibility (1/GPa) = 0.02523321
#
# Stress axis : x y z
#
# Youngs Moduli (GPa) = 41.23205 76.81796 80.61066
#
# Poissons Ratio (x) = -0.12590 0.81032
# Poissons Ratio (y) = -0.06758 0.30698
# Poissons Ratio (z) = 0.41447 0.29254
#
# Static dielectric constant tensor:
#      x y z
#    x 1.961410 0.000000 0.000000 
#    y 0.000000 2.018880 0.000000 
#    z 0.000000 0.000000 1.976580 
# 
# From -- ./inp_files/12745.got.cif
#   From: 2010.05.17/outbox.cif.g08.bks.cpg/sg60_7_cif.got.tgz:12745.got - 2010.06.03 14:59:27.
