data_PCOD9457300
_publ_section_title
;
Structure prediction by ZEFSAII (Michael W. Deem and Ramdas Pophale) SiO2 
 PCOD9457300
Probable space group: P B C N
;
_chemical_formula_sum "Si O2"
_cell_formula_units_Z 52
_cell_length_a 14.289623
_cell_length_b 5.808453
_cell_length_c 22.118184
_cell_angle_alpha 90.000000
_cell_angle_beta 90.000000
_cell_angle_gamma 90.000000
_cell_volume 1835.822622
_symmetry_space_group_name_H-M "P B C N"
_symmetry_group_IT_number 60
_symmetry_cell_setting 'orthorhombic'
loop_
_space_group_symop_operation_xyz
x,y,z
1/2-x,1/2-y,1/2+z
1/2+x,1/2-y,-z
-x,y,1/2-z
-x,-y,-z
1/2+x,1/2+y,1/2-z
1/2-x,1/2+y,z
x,-y,1/2+z
loop_
_atom_site_type_symbol
_atom_site_label
_atom_site_fract_x
_atom_site_fract_y
_atom_site_fract_z
Si Si1 0.707519 0.239036 0.247722
Si Si2 0.932295 0.057634 0.836821
Si Si3 0.460307 0.951272 0.864637
Si Si4 0.608623 0.496538 0.473650
Si Si5 0.000000 0.326585 0.250000
Si Si6 0.400752 0.992972 0.032979
Si Si7 0.225829 0.702988 0.893501
O O1 0.752203 0.489433 0.266048
O O2 0.616052 0.265652 0.290892
O O3 0.728666 0.253066 0.174375
O O4 0.886045 0.998809 0.900027
O O5 0.030463 0.175285 0.858715
O O6 0.946073 0.838061 0.795366
O O7 0.441413 0.027680 0.796359
O O8 0.559105 0.005425 0.898008
O O9 0.379057 0.097328 0.895350
O O10 0.500000 0.500000 0.500000
O O11 0.644555 0.754372 0.487551
O O12 0.646121 0.236012 0.481997
O O13 0.500000 0.000000 0.000000
O O14 0.278547 0.469297 0.916891
#
# Coordination Sequence:
#
# PCOD9457300 Si02
#       7
#     8   8   8   8   4   8   8
#     4  10  23  39  55  78 125 169 200 238 305 374
#     4  11  24  36  60  92 125 162 211 260 306 366
#     4  11  24  36  60  92 125 162 211 260 306 366
#     4   9  18  35  56  86 117 148 196 259 309 342
#     4  12  22  32  56  90 136 144 208 254 314 352
#     4   9  18  35  56  86 117 148 196 259 309 342
#     4  10  23  39  55  78 125 169 200 238 305 374
#
# _framework density 28.325177
#
# number of rings (size 3 to 8) (size 9 to 14) (size 15 to 20)
#    0.000    1.846    1.538    2.308   12.923    0.000 
#    0.000    0.000    0.000    0.000    0.000   58.154 
#    0.000    0.000    0.000    0.000    0.000    0.000 
#
# Total GULP energy -289657.471867 kJ/mol
# GULP energy per Si atom -5570.335997 kJ/mol
# Density = 2.826071 g / cm^3
# Si number density = 28.325177 Si / 1000 Ang^3
#
#
#
# Elastic Constant Matrix: (Units=GPa)
#
#
# Indices 1 2 3 4 5 6 
#
# 1 82.6462 35.4963 7.6385 0.0000 0.0000 0.0000
# 2 35.4963 282.3083 47.2990 0.0000 0.0000 0.0000
# 3 7.6385 47.2990 144.8906 0.0000 0.0000 0.0000
# 4 0.0000 0.0000 0.0000 39.3441 0.0000 0.0000
# 5 0.0000 0.0000 0.0000 0.0000 20.7305 0.0000
# 6 0.0000 0.0000 0.0000 0.0000 0.0000 8.6920
#
#
#
# Elastic Compliance Matrix: (Units=1/GPa)
#
#
# Indices 1 2 3 4 5 6 
#
# 1 0.012794 -0.001582 -0.000158 0.000000 0.000000 0.000000
# 2 -0.001582 0.003943 -0.001204 0.000000 0.000000 0.000000
# 3 -0.000158 -0.001204 0.007303 0.000000 0.000000 0.000000
# 4 0.000000 0.000000 0.000000 0.025417 0.000000 0.000000
# 5 0.000000 0.000000 0.000000 0.000000 0.048238 0.000000
# 6 0.000000 0.000000 0.000000 0.000000 0.000000 0.115049
#
#
# Mechanical properties :
#
#
# Convention : Reuss Voigt Hill
#
# Bulk Modulus (GPa) = 55.09028 76.74585 65.91807
# Shear Modulus (GPa) = 22.25367 41.71405 31.98386
#
# Velocity S-wave (km/s) = 2.80599 3.84172 3.36395
# Velocity P-wave (km/s) = 5.47627 6.84338 6.19763
#
# Compressibility (1/GPa) = 0.01815202
#
# Stress axis : x y z
#
# Youngs Moduli (GPa) = 78.16218 253.62428 136.92932
#
# Poissons Ratio (x) = 0.40128 0.02163
# Poissons Ratio (y) = 0.12367 0.16482
# Poissons Ratio (z) = 0.01235 0.30529
#
# Static dielectric constant tensor:
#      x y z
#    x 2.840410 0.000000 0.000000 
#    y 0.000000 2.515270 0.000000 
#    z 0.000000 0.000000 3.546180 
# 
# From -- ./inp_files/25464.got.cif
#   From: 2010.05.17/outbox.cif.g08.bks.cpg/sg60_13_cif.got.tgz:25464.got - 2010.06.03 14:59:27.
