data_PCOD9457411
_publ_section_title
;
Structure prediction by ZEFSAII (Michael W. Deem and Ramdas Pophale) SiO2 
 PCOD9457411
Probable space group: P B C N
;
_chemical_formula_sum "Si O2"
_cell_formula_units_Z 48
_cell_length_a 13.573691
_cell_length_b 8.465998
_cell_length_c 20.850970
_cell_angle_alpha 90.000000
_cell_angle_beta 90.000000
_cell_angle_gamma 90.000000
_cell_volume 2396.085899
_symmetry_space_group_name_H-M "P B C N"
_symmetry_group_IT_number 60
_symmetry_cell_setting 'orthorhombic'
loop_
_space_group_symop_operation_xyz
x,y,z
1/2-x,1/2-y,1/2+z
1/2+x,1/2-y,-z
-x,y,1/2-z
-x,-y,-z
1/2+x,1/2+y,1/2-z
1/2-x,1/2+y,z
x,-y,1/2+z
loop_
_atom_site_type_symbol
_atom_site_label
_atom_site_fract_x
_atom_site_fract_y
_atom_site_fract_z
Si Si1 0.876736 0.647237 0.928918
Si Si2 0.286645 0.195773 0.284442
Si Si3 0.549974 0.642026 0.038186
Si Si4 0.224959 0.648806 0.004691
Si Si5 0.610935 0.904468 0.277770
Si Si6 0.328727 0.536086 0.873126
O O1 0.887762 0.613291 0.854155
O O2 0.979927 0.708557 0.955774
O O3 0.802776 0.792161 0.942941
O O4 0.834893 0.499380 0.968247
O O5 0.191852 0.281265 0.251751
O O6 0.348553 0.331180 0.320193
O O7 0.349108 0.080042 0.239569
O O8 0.247952 0.082852 0.341079
O O9 0.650246 0.707022 0.007796
O O10 0.577711 0.566111 0.106353
O O11 0.500000 0.500000 0.000000
O O12 0.281142 0.609491 0.937932
O O13 0.500000 0.882195 0.250000
#
# Coordination Sequence:
#
# PCOD9457411 Si02
#       6
#     8   8   8   8   8   8
#     4  12  24  42  67  98 140 173 226 277 338 412
#     4  10  23  42  69  90 130 179 224 278 326 403
#     4  12  24  39  63 103 131 172 216 271 344 410
#     4  12  23  42  66  99 137 176 210 285 350 400
#     4  11  25  45  66  97 131 182 232 273 339 395
#     4  11  20  41  66  91 129 166 225 267 341 388
#
# _framework density 20.03267
#
# number of rings (size 3 to 8) (size 9 to 14) (size 15 to 20)
#    0.000    0.667    5.000    2.500    2.333    1.333 
#    0.000    8.333    0.000    0.000    0.000    0.000 
#    0.000    0.000    0.000    0.000    0.000    0.000 
#
# Total GULP energy -268126.002475 kJ/mol
# GULP energy per Si atom -5585.958385 kJ/mol
# Density = 1.998708 g / cm^3
# Si number density = 20.032670 Si / 1000 Ang^3
#
#
#
# Elastic Constant Matrix: (Units=GPa)
#
#
# Indices 1 2 3 4 5 6 
#
# 1 87.0182 21.0919 27.7620 0.0000 0.0000 0.0000
# 2 21.0919 77.1510 24.4720 0.0000 0.0000 0.0000
# 3 27.7620 24.4720 83.9167 0.0000 0.0000 0.0000
# 4 0.0000 0.0000 0.0000 36.8012 0.0000 0.0000
# 5 0.0000 0.0000 0.0000 0.0000 27.7595 0.0000
# 6 0.0000 0.0000 0.0000 0.0000 0.0000 43.3160
#
#
#
# Elastic Compliance Matrix: (Units=1/GPa)
#
#
# Indices 1 2 3 4 5 6 
#
# 1 0.013259 -0.002461 -0.003669 0.000000 0.000000 0.000000
# 2 -0.002461 0.014740 -0.003484 0.000000 0.000000 0.000000
# 3 -0.003669 -0.003484 0.014146 0.000000 0.000000 0.000000
# 4 0.000000 0.000000 0.000000 0.027173 0.000000 0.000000
# 5 0.000000 0.000000 0.000000 0.000000 0.036024 0.000000
# 6 0.000000 0.000000 0.000000 0.000000 0.000000 0.023086
#
#
# Mechanical properties :
#
#
# Convention : Reuss Voigt Hill
#
# Bulk Modulus (GPa) = 43.63602 43.85975 43.74789
# Shear Modulus (GPa) = 32.19689 33.22602 32.71146
#
# Velocity S-wave (km/s) = 4.01336 4.07700 4.04531
# Velocity P-wave (km/s) = 6.58072 6.64110 6.61098
#
# Compressibility (1/GPa) = 0.02291685
#
# Stress axis : x y z
#
# Youngs Moduli (GPa) = 75.42152 67.84453 70.68953
#
# Poissons Ratio (x) = 0.16697 0.25934
# Poissons Ratio (y) = 0.18562 0.24630
# Poissons Ratio (z) = 0.27670 0.23638
#
# Static dielectric constant tensor:
#      x y z
#    x 1.764130 0.000000 0.000000 
#    y 0.000000 1.731060 0.000000 
#    z 0.000000 0.000000 1.690020 
# 
# From -- ./inp_files/24238.got.cif
#   From: 2010.05.17/outbox.cif.g08.bks.cpg/sg60_13_cif.got.tgz:24238.got - 2010.06.03 14:59:27.
