data_PCOD9457683
_publ_section_title
;
Structure prediction by ZEFSAII (Michael W. Deem and Ramdas Pophale) SiO2 
 PCOD9457683
Probable space group: P B C N
;
_chemical_formula_sum "Si O2"
_cell_formula_units_Z 40
_cell_length_a 8.708912
_cell_length_b 18.670305
_cell_length_c 11.586093
_cell_angle_alpha 90.000000
_cell_angle_beta 90.000000
_cell_angle_gamma 90.000000
_cell_volume 1883.876051
_symmetry_space_group_name_H-M "P B C N"
_symmetry_group_IT_number 60
_symmetry_cell_setting 'orthorhombic'
loop_
_space_group_symop_operation_xyz
x,y,z
1/2-x,1/2-y,1/2+z
1/2+x,1/2-y,-z
-x,y,1/2-z
-x,-y,-z
1/2+x,1/2+y,1/2-z
1/2-x,1/2+y,z
x,-y,1/2+z
loop_
_atom_site_type_symbol
_atom_site_label
_atom_site_fract_x
_atom_site_fract_y
_atom_site_fract_z
Si Si1 0.292184 0.227257 0.483719
Si Si2 0.644042 0.401092 0.414858
Si Si3 0.795357 0.134670 0.660936
Si Si4 0.159958 0.537042 0.026344
Si Si5 0.908610 0.319173 0.868318
O O1 0.191664 0.155219 0.486439
O O2 0.268265 0.284616 0.381613
O O3 0.466723 0.201071 0.467749
O O4 0.238545 0.271345 0.597444
O O5 0.725535 0.377625 0.295692
O O6 0.466833 0.388325 0.382078
O O7 0.706615 0.479561 0.446327
O O8 0.692660 0.081507 0.588538
O O9 0.139392 0.597985 0.123943
O O10 0.000000 0.500000 0.000000
O O11 0.000000 0.304292 0.750000
#
# Coordination Sequence:
#
# PCOD9457683 Si02
#       5
#     8   8   8   8   8
#     4  11  21  41  67  95 129 169 221 271 323 392
#     4  11  22  42  68  89 133 176 218 269 335 392
#     4  10  24  42  64  96 128 175 222 268 332 394
#     4  11  24  40  63  97 132 170 219 276 325 401
#     4  11  24  43  67  96 136 175 218 275 335 386
#
# _framework density 21.232818999999999
#
# number of rings (size 3 to 8) (size 9 to 14) (size 15 to 20)
#    0.000    1.200    4.000    1.800    2.800    0.000 
#    0.000    3.000    0.000    0.000    0.000    0.000 
#    0.000    0.000    0.000    0.000    0.000    0.000 
#
# Total GULP energy -223162.179444 kJ/mol
# GULP energy per Si atom -5579.054486 kJ/mol
# Density = 2.118449 g / cm^3
# Si number density = 21.232819 Si / 1000 Ang^3
#
#
#
# Elastic Constant Matrix: (Units=GPa)
#
#
# Indices 1 2 3 4 5 6 
#
# 1 60.5632 26.1994 16.4799 0.0000 0.0000 0.0000
# 2 26.1994 140.4830 26.3850 0.0000 0.0000 0.0000
# 3 16.4799 26.3850 58.1305 0.0000 0.0000 0.0000
# 4 0.0000 0.0000 0.0000 22.0262 0.0000 0.0000
# 5 0.0000 0.0000 0.0000 0.0000 33.5450 0.0000
# 6 0.0000 0.0000 0.0000 0.0000 0.0000 39.9939
#
#
#
# Elastic Compliance Matrix: (Units=1/GPa)
#
#
# Indices 1 2 3 4 5 6 
#
# 1 0.018810 -0.002740 -0.004089 0.000000 0.000000 0.000000
# 2 -0.002740 0.008181 -0.002936 0.000000 0.000000 0.000000
# 3 -0.004089 -0.002936 0.019695 0.000000 0.000000 0.000000
# 4 0.000000 0.000000 0.000000 0.045400 0.000000 0.000000
# 5 0.000000 0.000000 0.000000 0.000000 0.029811 0.000000
# 6 0.000000 0.000000 0.000000 0.000000 0.000000 0.025004
#
#
# Mechanical properties :
#
#
# Convention : Reuss Voigt Hill
#
# Bulk Modulus (GPa) = 36.82614 44.14502 40.48558
# Shear Modulus (GPa) = 28.49294 31.78717 30.14006
#
# Velocity S-wave (km/s) = 3.66721 3.87341 3.77172
# Velocity P-wave (km/s) = 5.94246 6.39065 6.17063
#
# Compressibility (1/GPa) = 0.02715463
#
# Stress axis : x y z
#
# Youngs Moduli (GPa) = 53.16444 122.23755 50.77511
#
# Poissons Ratio (x) = 0.33492 0.20761
# Poissons Ratio (y) = 0.14567 0.14910
# Poissons Ratio (z) = 0.21738 0.35894
#
# Static dielectric constant tensor:
#      x y z
#    x 1.808530 0.000000 0.000000 
#    y 0.000000 1.788330 0.000000 
#    z 0.000000 0.000000 1.792890 
# 
# From -- ./inp_files/9764.got.cif
#   From: 2010.05.17/outbox.cif.g08.bks.cpg/sg60_5_cif.got.tgz:9764.got - 2010.06.03 14:59:27.
