data_PCOD9457183
_publ_section_title
;
Structure prediction by ZEFSAII (Michael W. Deem and Ramdas Pophale) SiO2 
 PCOD9457183
Probable space group: P B C N
;
_chemical_formula_sum "Si O2"
_cell_formula_units_Z 40
_cell_length_a 11.981517
_cell_length_b 7.234309
_cell_length_c 18.277743
_cell_angle_alpha 90.000000
_cell_angle_beta 90.000000
_cell_angle_gamma 90.000000
_cell_volume 1584.278140
_symmetry_space_group_name_H-M "P B C N"
_symmetry_group_IT_number 60
_symmetry_cell_setting 'orthorhombic'
loop_
_space_group_symop_operation_xyz
x,y,z
1/2-x,1/2-y,1/2+z
1/2+x,1/2-y,-z
-x,y,1/2-z
-x,-y,-z
1/2+x,1/2+y,1/2-z
1/2-x,1/2+y,z
x,-y,1/2+z
loop_
_atom_site_type_symbol
_atom_site_label
_atom_site_fract_x
_atom_site_fract_y
_atom_site_fract_z
Si Si1 0.850377 0.131261 0.747210
Si Si2 0.357776 0.481605 0.979630
Si Si3 0.606141 0.972360 0.216019
Si Si4 0.524990 0.496362 0.872587
Si Si5 0.099763 0.415093 0.952027
O O1 0.878383 0.343568 0.766205
O O2 0.723899 0.128362 0.720039
O O3 0.876713 0.985517 0.811506
O O4 0.933411 0.086533 0.681040
O O5 0.434380 0.373430 0.919507
O O6 0.225599 0.475810 0.972609
O O7 0.391552 0.694689 0.964732
O O8 0.399720 0.428408 0.060028
O O9 0.500000 0.868205 0.250000
O O10 0.584224 0.033812 0.133034
O O11 0.000000 0.500000 0.000000
#
# Coordination Sequence:
#
# PCOD9457183 Si02
#       5
#     8   8   8   8   8
#     4  11  23  45  71  95 137 174 225 278 338 399
#     4  11  25  44  71  96 142 177 229 280 342 404
#     4  12  24  46  68  99 136 178 225 279 336 401
#     4  10  22  44  71  96 133 181 219 277 343 393
#     4  12  27  44  69 103 137 181 233 278 343 408
#
# _framework density 25.248092
#
# number of rings (size 3 to 8) (size 9 to 14) (size 15 to 20)
#    0.000    0.800    6.000    0.000    8.400    3.200 
#    3.600    0.000    0.000    0.000    0.000    0.000 
#    0.000    0.000    0.000    0.000    0.000    0.000 
#
# Total GULP energy -222966.708463 kJ/mol
# GULP energy per Si atom -5574.167712 kJ/mol
# Density = 2.519063 g / cm^3
# Si number density = 25.248092 Si / 1000 Ang^3
#
#
#
# Elastic Constant Matrix: (Units=GPa)
#
#
# Indices 1 2 3 4 5 6 
#
# 1 217.0038 19.0658 84.1559 0.0000 0.0000 0.0000
# 2 19.0658 79.6319 22.5661 0.0000 0.0000 0.0000
# 3 84.1559 22.5661 158.6043 0.0000 0.0000 0.0000
# 4 0.0000 0.0000 0.0000 10.4461 0.0000 0.0000
# 5 0.0000 0.0000 0.0000 0.0000 51.8782 0.0000
# 6 0.0000 0.0000 0.0000 0.0000 0.0000 34.8109
#
#
#
# Elastic Compliance Matrix: (Units=1/GPa)
#
#
# Indices 1 2 3 4 5 6 
#
# 1 0.005824 -0.000541 -0.003014 0.000000 0.000000 0.000000
# 2 -0.000541 0.013136 -0.001582 0.000000 0.000000 0.000000
# 3 -0.003014 -0.001582 0.008129 0.000000 0.000000 0.000000
# 4 0.000000 0.000000 0.000000 0.095729 0.000000 0.000000
# 5 0.000000 0.000000 0.000000 0.000000 0.019276 0.000000
# 6 0.000000 0.000000 0.000000 0.000000 0.000000 0.028727
#
#
# Mechanical properties :
#
#
# Convention : Reuss Voigt Hill
#
# Bulk Modulus (GPa) = 59.46478 78.53508 68.99993
# Shear Modulus (GPa) = 26.78109 41.39050 34.08580
#
# Velocity S-wave (km/s) = 3.26040 4.05328 3.67827
# Velocity P-wave (km/s) = 6.14629 7.28549 6.74000
#
# Compressibility (1/GPa) = 0.01681668
#
# Stress axis : x y z
#
# Youngs Moduli (GPa) = 171.69224 76.12934 123.01500
#
# Poissons Ratio (x) = 0.04115 0.37071
# Poissons Ratio (y) = 0.09280 0.19462
# Poissons Ratio (z) = 0.51740 0.12045
#
# Static dielectric constant tensor:
#      x y z
#    x 2.016640 0.000000 0.000000 
#    y 0.000000 2.140130 0.000000 
#    z 0.000000 0.000000 1.993540 
# 
# From -- ./inp_files/19846.got.cif
#   From: 2010.05.17/outbox.cif.g08.bks.cpg/sg60_10_cif.got.tgz:19846.got - 2010.06.03 14:59:27.
