data_PCOD9457775
_publ_section_title
;
Structure prediction by ZEFSAII (Michael W. Deem and Ramdas Pophale) SiO2 
 PCOD9457775
Probable space group: P B C N
;
_chemical_formula_sum "Si O2"
_cell_formula_units_Z 60
_cell_length_a 27.240763
_cell_length_b 11.613052
_cell_length_c 7.670337
_cell_angle_alpha 90.000000
_cell_angle_beta 90.000000
_cell_angle_gamma 90.000000
_cell_volume 2426.498816
_symmetry_space_group_name_H-M "P B C N"
_symmetry_group_IT_number 60
_symmetry_cell_setting 'orthorhombic'
loop_
_space_group_symop_operation_xyz
x,y,z
1/2-x,1/2-y,1/2+z
1/2+x,1/2-y,-z
-x,y,1/2-z
-x,-y,-z
1/2+x,1/2+y,1/2-z
1/2-x,1/2+y,z
x,-y,1/2+z
loop_
_atom_site_type_symbol
_atom_site_label
_atom_site_fract_x
_atom_site_fract_y
_atom_site_fract_z
Si Si1 0.888100 0.851924 0.623570
Si Si2 0.006653 0.133351 0.542121
Si Si3 0.832615 0.010756 0.834183
Si Si4 0.948252 0.657196 0.958084
Si Si5 0.218937 0.171478 0.951115
Si Si6 0.000000 0.485546 0.750000
Si Si7 0.846559 0.623602 0.150800
Si Si8 0.166591 0.359154 0.440104
O O1 0.939269 0.837107 0.527299
O O2 0.883082 0.947343 0.774229
O O3 0.867204 0.727104 0.670497
O O4 0.848385 0.907689 0.491667
O O5 0.000000 0.150999 0.750000
O O6 0.967777 0.213620 0.439397
O O7 0.000000 0.000000 0.500000
O O8 0.806418 0.095003 0.699583
O O9 0.796527 0.905275 0.882183
O O10 0.955106 0.571950 0.794461
O O11 0.986596 0.597758 0.092447
O O12 0.896713 0.654546 0.053464
O O13 0.195300 0.296923 0.935110
O O14 0.276822 0.177394 0.932473
O O15 0.849982 0.646935 0.357497
O O16 0.836441 0.489466 0.123832
#
# Coordination Sequence:
#
# PCOD9457775 Si02
#       8
#     8   8   8   8   8   4   8   8
#     4  11  25  45  69 100 136 182 227 285 341 409
#     4  12  27  44  70 100 140 179 231 281 344 409
#     4  10  24  45  72  94 139 179 230 280 345 401
#     4  11  25  46  70 101 140 181 231 284 343 405
#     4  11  26  45  70  99 137 179 228 284 340 406
#     4  10  24  44  74  96 140 184 230 282 344 404
#     4  12  28  46  71 103 140 183 230 284 342 414
#     4  12  28  44  71 100 141 177 235 275 351 405
#
# _framework density 24.726986
#
# number of rings (size 3 to 8) (size 9 to 14) (size 15 to 20)
#    0.000    0.800    2.000    3.200   15.867    1.067 
#    0.000    0.000    0.000    0.000    0.000    0.000 
#    0.000    0.000    0.000    0.000    0.000    0.000 
#
# Total GULP energy -336398.284664 kJ/mol
# GULP energy per Si atom -5606.638078 kJ/mol
# Density = 2.467071 g / cm^3
# Si number density = 24.726986 Si / 1000 Ang^3
#
#
#
# Elastic Constant Matrix: (Units=GPa)
#
#
# Indices 1 2 3 4 5 6 
#
# 1 57.2939 13.5195 -25.2415 0.0000 0.0000 0.0000
# 2 13.5195 164.7555 12.2159 0.0000 0.0000 0.0000
# 3 -25.2415 12.2159 40.7499 0.0000 0.0000 0.0000
# 4 0.0000 0.0000 0.0000 26.8251 0.0000 0.0000
# 5 0.0000 0.0000 0.0000 0.0000 23.2757 0.0000
# 6 0.0000 0.0000 0.0000 0.0000 0.0000 39.2793
#
#
#
# Elastic Compliance Matrix: (Units=1/GPa)
#
#
# Indices 1 2 3 4 5 6 
#
# 1 0.025708 -0.003365 0.016933 0.000000 0.000000 0.000000
# 2 -0.003365 0.006648 -0.004077 0.000000 0.000000 0.000000
# 3 0.016933 -0.004077 0.036251 0.000000 0.000000 0.000000
# 4 0.000000 0.000000 0.000000 0.037278 0.000000 0.000000
# 5 0.000000 0.000000 0.000000 0.000000 0.042963 0.000000
# 6 0.000000 0.000000 0.000000 0.000000 0.000000 0.025459
#
#
# Mechanical properties :
#
#
# Convention : Reuss Voigt Hill
#
# Bulk Modulus (GPa) = 11.41714 29.30967 20.36341
# Shear Modulus (GPa) = 27.09703 35.36305 31.23004
#
# Velocity S-wave (km/s) = 3.31395 3.78582 3.55772
# Velocity P-wave (km/s) = 4.38980 5.56677 5.01295
#
# Compressibility (1/GPa) = 0.08758760
#
# Stress axis : x y z
#
# Youngs Moduli (GPa) = 38.89866 150.42021 27.58560
#
# Poissons Ratio (x) = 0.50617 -0.46710
# Poissons Ratio (y) = 0.13089 0.11247
# Poissons Ratio (z) = -0.65866 0.61331
#
# Static dielectric constant tensor:
#      x y z
#    x 1.905940 0.000000 0.000000 
#    y 0.000000 1.923580 0.000000 
#    z 0.000000 0.000000 2.066820 
# 
# From -- ./inp_files/8192.got.cif
#   From: 2010.05.17/outbox.cif.g08.bks.cpg/sg60_5_cif.got.tgz:8192.got - 2010.06.03 14:59:27.
