data_PCOD9457764
_publ_section_title
;
Structure prediction by ZEFSAII (Michael W. Deem and Ramdas Pophale) SiO2 
 PCOD9457764
Probable space group: P B C N
;
_chemical_formula_sum "Si O2"
_cell_formula_units_Z 40
_cell_length_a 18.201941
_cell_length_b 11.064917
_cell_length_c 8.865455
_cell_angle_alpha 90.000000
_cell_angle_beta 90.000000
_cell_angle_gamma 90.000000
_cell_volume 1785.528936
_symmetry_space_group_name_H-M "P B C N"
_symmetry_group_IT_number 60
_symmetry_cell_setting 'orthorhombic'
loop_
_space_group_symop_operation_xyz
x,y,z
1/2-x,1/2-y,1/2+z
1/2+x,1/2-y,-z
-x,y,1/2-z
-x,-y,-z
1/2+x,1/2+y,1/2-z
1/2-x,1/2+y,z
x,-y,1/2+z
loop_
_atom_site_type_symbol
_atom_site_label
_atom_site_fract_x
_atom_site_fract_y
_atom_site_fract_z
Si Si1 0.101755 0.027163 0.593034
Si Si2 0.842875 0.374053 0.079569
Si Si3 0.940438 0.831825 0.663275
Si Si4 0.327897 0.348709 0.353239
Si Si5 0.590262 0.889954 0.742421
O O1 0.047127 0.118485 0.505777
O O2 0.163314 0.102529 0.681815
O O3 0.069248 0.939647 0.718077
O O4 0.132052 0.941442 0.464256
O O5 0.869211 0.248327 0.151419
O O6 0.755529 0.361039 0.092616
O O7 0.878451 0.487154 0.168129
O O8 0.875915 0.381869 0.910993
O O9 0.000000 0.751330 0.750000
O O10 0.371894 0.221751 0.349619
O O11 0.500000 0.884303 0.750000
#
# Coordination Sequence:
#
# PCOD9457764 Si02
#       5
#     8   8   8   8   8
#     4  10  24  44  70 103 142 188 241 307 376 438
#     4  12  28  46  75 107 150 200 256 307 383 448
#     4  11  24  42  69 102 145 187 246 299 379 444
#     4  11  26  46  77 105 149 191 257 308 382 449
#     4  12  29  50  77 111 156 204 256 313 381 461
#
# _framework density 22.402324
#
# number of rings (size 3 to 8) (size 9 to 14) (size 15 to 20)
#    0.000    0.800    2.000    3.000   14.000    3.200 
#    0.000    0.000    0.000    0.000    0.000    0.000 
#    0.000    0.000    0.000    0.000    0.000    0.000 
#
# Total GULP energy -223188.057726 kJ/mol
# GULP energy per Si atom -5579.701443 kJ/mol
# Density = 2.235134 g / cm^3
# Si number density = 22.402324 Si / 1000 Ang^3
#
#
#
# Elastic Constant Matrix: (Units=GPa)
#
#
# Indices 1 2 3 4 5 6 
#
# 1 169.3502 41.7864 59.4317 0.0000 0.0000 0.0000
# 2 41.7864 102.5671 33.2995 0.0000 0.0000 0.0000
# 3 59.4317 33.2995 124.1496 0.0000 0.0000 0.0000
# 4 0.0000 0.0000 0.0000 21.0595 0.0000 0.0000
# 5 0.0000 0.0000 0.0000 0.0000 38.3909 0.0000
# 6 0.0000 0.0000 0.0000 0.0000 0.0000 26.2208
#
#
#
# Elastic Compliance Matrix: (Units=1/GPa)
#
#
# Indices 1 2 3 4 5 6 
#
# 1 0.007476 -0.002063 -0.003025 0.000000 0.000000 0.000000
# 2 -0.002063 0.011249 -0.002029 0.000000 0.000000 0.000000
# 3 -0.003025 -0.002029 0.010047 0.000000 0.000000 0.000000
# 4 0.000000 0.000000 0.000000 0.047485 0.000000 0.000000
# 5 0.000000 0.000000 0.000000 0.000000 0.026048 0.000000
# 6 0.000000 0.000000 0.000000 0.000000 0.000000 0.038138
#
#
# Mechanical properties :
#
#
# Convention : Reuss Voigt Hill
#
# Bulk Modulus (GPa) = 68.79486 73.90025 71.34755
# Shear Modulus (GPa) = 31.34321 34.57086 32.95703
#
# Velocity S-wave (km/s) = 3.74452 3.93260 3.83971
# Velocity P-wave (km/s) = 7.03354 7.32665 7.18159
#
# Compressibility (1/GPa) = 0.01453597
#
# Stress axis : x y z
#
# Youngs Moduli (GPa) = 133.76567 88.89456 99.52859
#
# Poissons Ratio (x) = 0.18343 0.30110
# Poissons Ratio (y) = 0.27602 0.20199
# Poissons Ratio (z) = 0.40468 0.18041
#
# Static dielectric constant tensor:
#      x y z
#    x 1.551900 0.000000 0.000000 
#    y 0.000000 1.866140 0.000000 
#    z 0.000000 0.000000 1.872000 
# 
# From -- ./inp_files/6507.got.cif
#   From: 2010.05.17/outbox.cif.g08.bks.cpg/sg60_4_cif.got.tgz:6507.got - 2010.06.03 14:59:27.
