data_PCOD9457780
_publ_section_title
;
Structure prediction by ZEFSAII (Michael W. Deem and Ramdas Pophale) SiO2 
 PCOD9457780
Probable space group: P B C N
;
_chemical_formula_sum "Si O2"
_cell_formula_units_Z 64
_cell_length_a 8.643042
_cell_length_b 14.775818
_cell_length_c 24.617085
_cell_angle_alpha 90.000000
_cell_angle_beta 90.000000
_cell_angle_gamma 90.000000
_cell_volume 3143.799074
_symmetry_space_group_name_H-M "P B C N"
_symmetry_group_IT_number 60
_symmetry_cell_setting 'orthorhombic'
loop_
_space_group_symop_operation_xyz
x,y,z
1/2-x,1/2-y,1/2+z
1/2+x,1/2-y,-z
-x,y,1/2-z
-x,-y,-z
1/2+x,1/2+y,1/2-z
1/2-x,1/2+y,z
x,-y,1/2+z
loop_
_atom_site_type_symbol
_atom_site_label
_atom_site_fract_x
_atom_site_fract_y
_atom_site_fract_z
Si Si1 0.031780 0.346019 0.510192
Si Si2 0.120263 0.486239 0.425873
Si Si3 0.770930 0.719661 0.929317
Si Si4 0.811806 0.548487 0.864402
Si Si5 0.677390 0.797323 0.731500
Si Si6 0.309000 0.438236 0.838003
Si Si7 0.312608 0.595338 0.753979
Si Si8 0.345838 0.635485 0.160353
O O1 0.949458 0.424842 0.545064
O O2 0.902521 0.295265 0.474500
O O3 0.136870 0.404772 0.468423
O O4 0.129747 0.275551 0.545240
O O5 0.273627 0.517715 0.395624
O O6 0.991306 0.454623 0.381756
O O7 0.733141 0.620101 0.905477
O O8 0.835448 0.778006 0.878682
O O9 0.769147 0.580614 0.803827
O O10 0.748902 0.446527 0.867005
O O11 0.500000 0.798492 0.750000
O O12 0.698788 0.854695 0.677133
O O13 0.729131 0.694154 0.724077
O O14 0.775423 0.840339 0.780891
O O15 0.272193 0.514780 0.793943
O O16 0.481561 0.401446 0.832699
O O17 0.500000 0.592925 0.750000
#
# Coordination Sequence:
#
# PCOD9457780 Si02
#       8
#     8   8   8   8   8   8   8   8
#     4  10  24  46  66  96 129 167 231 284 332 392
#     4  10  24  45  66  91 132 176 222 278 332 397
#     4  11  25  43  72  94 128 171 219 284 336 396
#     4  11  21  42  67  92 128 179 210 263 341 392
#     4  11  24  40  65  96 134 178 217 258 326 399
#     4  12  25  40  65  97 136 173 216 271 323 394
#     4  11  22  40  62  96 136 166 215 262 318 400
#     4  12  23  43  65  97 136 172 215 275 329 394
#
# _framework density 20.357534999999999
#
# number of rings (size 3 to 8) (size 9 to 14) (size 15 to 20)
#    0.000    1.000    5.000    1.125    1.750    3.000 
#    2.250    1.250    0.000    0.000    0.000    0.000 
#    0.000    0.000    0.000    0.000    0.000    0.000 
#
# Total GULP energy -357677.406405 kJ/mol
# GULP energy per Si atom -5588.709475 kJ/mol
# Density = 2.031120 g / cm^3
# Si number density = 20.357535 Si / 1000 Ang^3
#
#
#
# Elastic Constant Matrix: (Units=GPa)
#
#
# Indices 1 2 3 4 5 6 
#
# 1 20.2426 -6.3063 -0.2609 0.0000 0.0000 0.0000
# 2 -6.3063 89.9485 4.8114 0.0000 0.0000 0.0000
# 3 -0.2609 4.8114 57.9781 0.0000 0.0000 0.0000
# 4 0.0000 0.0000 0.0000 14.2617 0.0000 0.0000
# 5 0.0000 0.0000 0.0000 0.0000 33.3088 0.0000
# 6 0.0000 0.0000 0.0000 0.0000 0.0000 22.7413
#
#
#
# Elastic Compliance Matrix: (Units=1/GPa)
#
#
# Indices 1 2 3 4 5 6 
#
# 1 0.050504 0.003544 -0.000067 0.000000 0.000000 0.000000
# 2 0.003544 0.011416 -0.000931 0.000000 0.000000 0.000000
# 3 -0.000067 -0.000931 0.017325 0.000000 0.000000 0.000000
# 4 0.000000 0.000000 0.000000 0.070118 0.000000 0.000000
# 5 0.000000 0.000000 0.000000 0.000000 0.030022 0.000000
# 6 0.000000 0.000000 0.000000 0.000000 0.000000 0.043973
#
#
# Mechanical properties :
#
#
# Convention : Reuss Voigt Hill
#
# Bulk Modulus (GPa) = 11.85720 18.29530 15.07625
# Shear Modulus (GPa) = 20.29404 25.39069 22.84237
#
# Velocity S-wave (km/s) = 3.16077 3.53546 3.35335
# Velocity P-wave (km/s) = 4.37695 5.06680 4.73446
#
# Compressibility (1/GPa) = 0.08433697
#
# Stress axis : x y z
#
# Youngs Moduli (GPa) = 19.80040 87.59796 57.72046
#
# Poissons Ratio (x) = -0.31048 0.00386
# Poissons Ratio (y) = -0.07018 0.05376
# Poissons Ratio (z) = 0.00132 0.08159
#
# Static dielectric constant tensor:
#      x y z
#    x 1.713240 0.000000 0.000000 
#    y 0.000000 1.721800 0.000000 
#    z 0.000000 0.000000 1.729510 
# 
# From -- ./inp_files/24061.got.cif
#   From: 2010.05.17/outbox.cif.g08.bks.cpg/sg60_13_cif.got.tgz:24061.got - 2010.06.03 14:59:27.
