data_PCOD9457186
_publ_section_title
;
Structure prediction by ZEFSAII (Michael W. Deem and Ramdas Pophale) SiO2 
 PCOD9457186
Probable space group: P B C N
;
_chemical_formula_sum "Si O2"
_cell_formula_units_Z 60
_cell_length_a 20.760095
_cell_length_b 9.797961
_cell_length_c 13.595684
_cell_angle_alpha 90.000000
_cell_angle_beta 90.000000
_cell_angle_gamma 90.000000
_cell_volume 2765.451873
_symmetry_space_group_name_H-M "P B C N"
_symmetry_group_IT_number 60
_symmetry_cell_setting 'orthorhombic'
loop_
_space_group_symop_operation_xyz
x,y,z
1/2-x,1/2-y,1/2+z
1/2+x,1/2-y,-z
-x,y,1/2-z
-x,-y,-z
1/2+x,1/2+y,1/2-z
1/2-x,1/2+y,z
x,-y,1/2+z
loop_
_atom_site_type_symbol
_atom_site_label
_atom_site_fract_x
_atom_site_fract_y
_atom_site_fract_z
Si Si1 0.691543 0.382830 0.100988
Si Si2 0.124999 0.765525 0.061780
Si Si3 0.548048 0.355917 0.623304
Si Si4 0.891485 0.543391 0.896905
Si Si5 0.760596 0.625108 0.986192
Si Si6 0.588217 0.342572 0.951990
Si Si7 0.500000 0.107618 0.750000
Si Si8 0.623117 0.522492 0.783280
O O1 0.735452 0.491327 0.043053
O O2 0.715067 0.232020 0.069782
O O3 0.620121 0.383433 0.053210
O O4 0.681725 0.427859 0.213562
O O5 0.107459 0.607369 0.059094
O O6 0.200865 0.798611 0.064543
O O7 0.098299 0.846797 0.156161
O O8 0.480814 0.400595 0.575945
O O9 0.598988 0.331771 0.537737
O O10 0.533648 0.209508 0.672821
O O11 0.573066 0.450853 0.710290
O O12 0.815357 0.584289 0.906463
O O13 0.918477 0.678840 0.950646
O O14 0.939166 0.534201 0.802253
O O15 0.865069 0.905233 0.866548
#
# Coordination Sequence:
#
# PCOD9457186 Si02
#       8
#     8   8   8   8   8   8   4   8
#     4  11  24  45  68  97 135 185 240 289 364 430
#     4  12  26  44  69 110 145 185 238 313 361 428
#     4  11  22  44  73  99 144 186 235 292 366 429
#     4  10  23  47  71 100 146 185 240 306 363 440
#     4  11  22  47  69  96 142 184 236 295 372 421
#     4  10  22  44  72 100 138 192 228 295 361 433
#     4  10  22  48  72 108 136 204 244 278 388 438
#     4  12  22  43  66 102 136 183 242 285 352 439
#
# _framework density 21.696273999999999
#
# number of rings (size 3 to 8) (size 9 to 14) (size 15 to 20)
#    0.000    1.067    6.667    0.000    0.000    5.333 
#   19.200    0.000    0.000    0.000    0.000    0.000 
#    0.000    0.000    0.000    0.000    0.000    0.000 
#
# Total GULP energy -334332.047227 kJ/mol
# GULP energy per Si atom -5572.200787 kJ/mol
# Density = 2.164689 g / cm^3
# Si number density = 21.696274 Si / 1000 Ang^3
#
#
#
# Elastic Constant Matrix: (Units=GPa)
#
#
# Indices 1 2 3 4 5 6 
#
# 1 62.5075 9.4917 23.4301 0.0000 0.0000 0.0000
# 2 9.4917 139.4906 31.8957 0.0000 0.0000 0.0000
# 3 23.4301 31.8957 77.4651 0.0000 0.0000 0.0000
# 4 0.0000 0.0000 0.0000 8.2434 0.0000 0.0000
# 5 0.0000 0.0000 0.0000 0.0000 19.9729 0.0000
# 6 0.0000 0.0000 0.0000 0.0000 0.0000 23.6458
#
#
#
# Elastic Compliance Matrix: (Units=1/GPa)
#
#
# Indices 1 2 3 4 5 6 
#
# 1 0.018044 0.000022 -0.005467 0.000000 0.000000 0.000000
# 2 0.000022 0.007914 -0.003265 0.000000 0.000000 0.000000
# 3 -0.005467 -0.003265 0.015907 0.000000 0.000000 0.000000
# 4 0.000000 0.000000 0.000000 0.121309 0.000000 0.000000
# 5 0.000000 0.000000 0.000000 0.000000 0.050068 0.000000
# 6 0.000000 0.000000 0.000000 0.000000 0.000000 0.042291
#
#
# Mechanical properties :
#
#
# Convention : Reuss Voigt Hill
#
# Bulk Modulus (GPa) = 40.90759 45.45534 43.18146
# Shear Modulus (GPa) = 17.78726 24.68215 21.23471
#
# Velocity S-wave (km/s) = 2.86637 3.37652 3.13185
# Velocity P-wave (km/s) = 5.46355 6.01643 5.74664
#
# Compressibility (1/GPa) = 0.02444534
#
# Stress axis : x y z
#
# Youngs Moduli (GPa) = 55.42061 126.35735 62.86570
#
# Poissons Ratio (x) = -0.00280 0.34367
# Poissons Ratio (y) = -0.00123 0.20527
# Poissons Ratio (z) = 0.30297 0.41259
#
# Static dielectric constant tensor:
#      x y z
#    x 1.855450 0.000000 0.000000 
#    y 0.000000 1.803330 0.000000 
#    z 0.000000 0.000000 1.782650 
# 
# From -- ./inp_files/18106.got.cif
#   From: 2010.05.17/outbox.cif.g08.bks.cpg/sg60_10_cif.got.tgz:18106.got - 2010.06.03 14:59:27.
