data_PCOD9457032
_publ_section_title
;
Structure prediction by ZEFSAII (Michael W. Deem and Ramdas Pophale) SiO2 
 PCOD9457032
Probable space group: P B C N
;
_chemical_formula_sum "Si O2"
_cell_formula_units_Z 32
_cell_length_a 9.530232
_cell_length_b 14.368980
_cell_length_c 8.857458
_cell_angle_alpha 90.000000
_cell_angle_beta 90.000000
_cell_angle_gamma 90.000000
_cell_volume 1212.937756
_symmetry_space_group_name_H-M "P B C N"
_symmetry_group_IT_number 60
_symmetry_cell_setting 'orthorhombic'
loop_
_space_group_symop_operation_xyz
x,y,z
1/2-x,1/2-y,1/2+z
1/2+x,1/2-y,-z
-x,y,1/2-z
-x,-y,-z
1/2+x,1/2+y,1/2-z
1/2-x,1/2+y,z
x,-y,1/2+z
loop_
_atom_site_type_symbol
_atom_site_label
_atom_site_fract_x
_atom_site_fract_y
_atom_site_fract_z
Si Si1 0.000000 0.458830 0.250000
Si Si2 0.306194 0.939933 0.993995
Si Si3 0.830007 0.132357 0.490043
Si Si4 0.707142 0.726235 0.196250
Si Si5 0.000000 0.805235 0.250000
O O1 0.910423 0.522882 0.136248
O O2 0.894639 0.405009 0.361831
O O3 0.216672 0.860126 0.917427
O O4 0.220234 0.029796 0.049374
O O5 0.873581 0.193525 0.345701
O O6 0.704530 0.183563 0.586667
O O7 0.956629 0.132103 0.608847
O O8 0.864490 0.740791 0.265845
#
# Coordination Sequence:
#
# PCOD9457032 Si02
#       5
#     4   8   8   8   4
#     4  10  23  32  64  99 130 164 231 282 354 389
#     4  11  21  39  64 101 132 178 224 298 345 419
#     4  10  23  40  66  94 137 181 229 291 361 420
#     4  10  22  42  66  94 139 180 237 285 354 422
#     4   8  23  42  64  93 136 180 225 298 340 429
#
# _framework density 26.382228000000001
#
# number of rings (size 3 to 8) (size 9 to 14) (size 15 to 20)
#    1.500    0.500    2.500    0.750    7.000    0.000 
#    0.000    1.250    0.000    0.000    0.000    0.000 
#    0.000    0.000    0.000    0.000    0.000    0.000 
#
# Total GULP energy -178863.378576 kJ/mol
# GULP energy per Si atom -5589.480580 kJ/mol
# Density = 2.632218 g / cm^3
# Si number density = 26.382228 Si / 1000 Ang^3
#
#
#
# Elastic Constant Matrix: (Units=GPa)
#
#
# Indices 1 2 3 4 5 6 
#
# 1 40.8594 16.4747 44.1794 0.0000 0.0000 0.0000
# 2 16.4747 117.7429 23.0941 0.0000 0.0000 0.0000
# 3 44.1794 23.0941 179.5247 0.0000 0.0000 0.0000
# 4 0.0000 0.0000 0.0000 25.9746 0.0000 0.0000
# 5 0.0000 0.0000 0.0000 0.0000 73.3026 0.0000
# 6 0.0000 0.0000 0.0000 0.0000 0.0000 13.9666
#
#
#
# Elastic Compliance Matrix: (Units=1/GPa)
#
#
# Indices 1 2 3 4 5 6 
#
# 1 0.034515 -0.003245 -0.008076 0.000000 0.000000 0.000000
# 2 -0.003245 0.009018 -0.000361 0.000000 0.000000 0.000000
# 3 -0.008076 -0.000361 0.007604 0.000000 0.000000 0.000000
# 4 0.000000 0.000000 0.000000 0.038499 0.000000 0.000000
# 5 0.000000 0.000000 0.000000 0.000000 0.013642 0.000000
# 6 0.000000 0.000000 0.000000 0.000000 0.000000 0.071599
#
#
# Mechanical properties :
#
#
# Convention : Reuss Voigt Hill
#
# Bulk Modulus (GPa) = 36.00831 56.18038 46.09434
# Shear Modulus (GPa) = 24.09617 39.60736 31.85176
#
# Velocity S-wave (km/s) = 3.02544 3.87885 3.47842
# Velocity P-wave (km/s) = 5.08751 6.43441 5.80019
#
# Compressibility (1/GPa) = 0.02777137
#
# Stress axis : x y z
#
# Youngs Moduli (GPa) = 28.97256 110.88860 131.50440
#
# Poissons Ratio (x) = 0.35987 1.06209
# Poissons Ratio (y) = 0.09402 0.04753
# Poissons Ratio (z) = 0.23400 0.04008
#
# Static dielectric constant tensor:
#      x y z
#    x 2.168960 0.000000 0.000000 
#    y 0.000000 2.052860 0.000000 
#    z 0.000000 0.000000 2.036240 
# 
# From -- ./inp_files/4567.got.cif
#   From: 2010.05.17/outbox.cif.g08.bks.cpg/sg60_3_cif.got.tgz:4567.got - 2010.06.03 14:59:27.
