data_PCOD9457692
_publ_section_title
;
Structure prediction by ZEFSAII (Michael W. Deem and Ramdas Pophale) SiO2 
 PCOD9457692
Probable space group: P B C N
;
_chemical_formula_sum "Si O2"
_cell_formula_units_Z 28
_cell_length_a 13.681175
_cell_length_b 5.216736
_cell_length_c 15.735157
_cell_angle_alpha 90.000000
_cell_angle_beta 90.000000
_cell_angle_gamma 90.000000
_cell_volume 1123.035120
_symmetry_space_group_name_H-M "P B C N"
_symmetry_group_IT_number 60
_symmetry_cell_setting 'orthorhombic'
loop_
_space_group_symop_operation_xyz
x,y,z
1/2-x,1/2-y,1/2+z
1/2+x,1/2-y,-z
-x,y,1/2-z
-x,-y,-z
1/2+x,1/2+y,1/2-z
1/2-x,1/2+y,z
x,-y,1/2+z
loop_
_atom_site_type_symbol
_atom_site_label
_atom_site_fract_x
_atom_site_fract_y
_atom_site_fract_z
Si Si1 0.580736 0.683122 0.422259
Si Si2 0.622240 0.817020 0.987729
Si Si3 0.309548 0.986230 0.327940
Si Si4 0.000000 0.750673 0.750000
O O1 0.490309 0.747053 0.485594
O O2 0.652399 0.466176 0.457657
O O3 0.536333 0.595772 0.332546
O O4 0.626648 0.965817 0.416181
O O5 0.668949 0.936636 0.072068
O O6 0.229313 0.767910 0.307881
O O7 0.409895 0.918344 0.282037
#
# Coordination Sequence:
#
# PCOD9457692 Si02
#       4
#     8   8   8   4
#     4   9  18  34  60  86 114 157 197 246 312 368
#     4   9  18  35  57  83 114 154 206 248 296 374
#     4  11  24  42  64  92 127 173 221 270 330 391
#     4  10  24  42  66  96 138 170 208 274 336 392
#
# _framework density 24.932435000000002
#
# number of rings (size 3 to 8) (size 9 to 14) (size 15 to 20)
#    0.000    2.286    0.000    1.714    0.000   11.429 
#    0.000    8.571    0.000    0.000    0.000    0.000 
#    0.000    0.000    0.000    0.000    0.000    0.000 
#
# Total GULP energy -156442.454233 kJ/mol
# GULP energy per Si atom -5587.230508 kJ/mol
# Density = 2.487569 g / cm^3
# Si number density = 24.932435 Si / 1000 Ang^3
#
#
#
# Elastic Constant Matrix: (Units=GPa)
#
#
# Indices 1 2 3 4 5 6 
#
# 1 75.7621 -21.9321 3.4820 0.0000 0.0000 0.0000
# 2 -21.9321 96.4660 15.1639 0.0000 0.0000 0.0000
# 3 3.4820 15.1639 86.1678 0.0000 0.0000 0.0000
# 4 0.0000 0.0000 0.0000 -1.7949 0.0000 0.0000
# 5 0.0000 0.0000 0.0000 0.0000 46.3224 0.0000
# 6 0.0000 0.0000 0.0000 0.0000 0.0000 -2.0732
#
#
#
# Elastic Compliance Matrix: (Units=1/GPa)
#
#
# Indices 1 2 3 4 5 6 
#
# 1 0.014244 0.003424 -0.001178 0.000000 0.000000 0.000000
# 2 0.003424 0.011484 -0.002159 0.000000 0.000000 0.000000
# 3 -0.001178 -0.002159 0.012033 0.000000 0.000000 0.000000
# 4 0.000000 0.000000 0.000000 -0.557137 0.000000 0.000000
# 5 0.000000 0.000000 0.000000 0.000000 0.021588 0.000000
# 6 0.000000 0.000000 0.000000 0.000000 0.000000 -0.482348
#
#
# Mechanical properties :
#
#
# Convention : Reuss Voigt Hill
#
# Bulk Modulus (GPa) = 26.36150 27.98040 27.17095
# Shear Modulus (GPa) = -5.16708 25.93633 10.38463
#
# Velocity S-wave (km/s) = -1.44116 3.22881 2.04307
# Velocity P-wave (km/s) = 2.79766 5.01469 4.06042
#
# Compressibility (1/GPa) = 0.03793411
#
# Stress axis : x y z
#
# Youngs Moduli (GPa) = 70.20256 87.07619 83.10569
#
# Poissons Ratio (x) = -0.29813 0.09791
# Poissons Ratio (y) = -0.24036 0.17945
# Poissons Ratio (z) = 0.08271 0.18803
#
# Static dielectric constant tensor:
#      x y z
#    x 2.000870 0.000000 0.000000 
#    y 0.000000 2.003890 0.000000 
#    z 0.000000 0.000000 2.000310 
# 
# From -- ./inp_files/17100.got.cif
#   From: 2010.05.17/outbox.cif.g08.bks.cpg/sg60_9_cif.got.tgz:17100.got - 2010.06.03 14:59:27.
