data_PCOD9457602
_publ_section_title
;
Structure prediction by ZEFSAII (Michael W. Deem and Ramdas Pophale) SiO2 
 PCOD9457602
Probable space group: P B C N
;
_chemical_formula_sum "Si O2"
_cell_formula_units_Z 40
_cell_length_a 24.488412
_cell_length_b 9.442811
_cell_length_c 7.674012
_cell_angle_alpha 90.000000
_cell_angle_beta 90.000000
_cell_angle_gamma 90.000000
_cell_volume 1774.534285
_symmetry_space_group_name_H-M "P B C N"
_symmetry_group_IT_number 60
_symmetry_cell_setting 'orthorhombic'
loop_
_space_group_symop_operation_xyz
x,y,z
1/2-x,1/2-y,1/2+z
1/2+x,1/2-y,-z
-x,y,1/2-z
-x,-y,-z
1/2+x,1/2+y,1/2-z
1/2-x,1/2+y,z
x,-y,1/2+z
loop_
_atom_site_type_symbol
_atom_site_label
_atom_site_fract_x
_atom_site_fract_y
_atom_site_fract_z
Si Si1 0.240666 0.205286 0.628529
Si Si2 0.206697 0.939907 0.483335
Si Si3 0.629988 0.689491 0.001538
Si Si4 0.064051 0.671172 0.293685
Si Si5 0.564496 0.153105 0.797202
O O1 0.287191 0.321758 0.632714
O O2 0.187408 0.270467 0.533303
O O3 0.251468 0.063128 0.518296
O O4 0.219061 0.145442 0.809824
O O5 0.150810 0.027629 0.482655
O O6 0.595031 0.718745 0.828915
O O7 0.597705 0.748002 0.165881
O O8 0.080243 0.510935 0.238178
O O9 0.000000 0.682764 0.250000
O O10 0.072930 0.687298 0.499728
O O11 0.500000 0.164249 0.750000
#
# Coordination Sequence:
#
# PCOD9457602 Si02
#       5
#     8   8   8   8   8
#     4  10  23  47  72 102 139 186 250 312 380 446
#     4  10  23  47  74 100 142 187 247 319 379 446
#     4  10  24  41  68 115 140 202 251 306 384 442
#     4  11  19  38  70 109 162 205 255 309 364 449
#     4  11  19  38  70 109 161 206 255 309 365 447
#
# _framework density 22.541125999999998
#
# number of rings (size 3 to 8) (size 9 to 14) (size 15 to 20)
#    1.200    0.400    4.000    2.400    0.000    1.600 
#    7.200    0.000    0.000    3.600    0.000    0.000 
#    0.000    0.000    0.000    3.200    0.000    0.000 
#
# Total GULP energy -223393.226295 kJ/mol
# GULP energy per Si atom -5584.830657 kJ/mol
# Density = 2.248982 g / cm^3
# Si number density = 22.541126 Si / 1000 Ang^3
#
#
#
# Elastic Constant Matrix: (Units=GPa)
#
#
# Indices 1 2 3 4 5 6 
#
# 1 74.5856 71.4234 59.9116 0.0000 0.0000 0.0000
# 2 71.4234 148.0747 79.7676 0.0000 0.0000 0.0000
# 3 59.9116 79.7676 214.8727 0.0000 0.0000 0.0000
# 4 0.0000 0.0000 0.0000 29.7364 0.0000 0.0000
# 5 0.0000 0.0000 0.0000 0.0000 34.0999 0.0000
# 6 0.0000 0.0000 0.0000 0.0000 0.0000 52.7315
#
#
#
# Elastic Compliance Matrix: (Units=1/GPa)
#
#
# Indices 1 2 3 4 5 6 
#
# 1 0.026694 -0.011083 -0.003329 0.000000 0.000000 0.000000
# 2 -0.011083 0.013043 -0.001752 0.000000 0.000000 0.000000
# 3 -0.003329 -0.001752 0.006232 0.000000 0.000000 0.000000
# 4 0.000000 0.000000 0.000000 0.033629 0.000000 0.000000
# 5 0.000000 0.000000 0.000000 0.000000 0.029326 0.000000
# 6 0.000000 0.000000 0.000000 0.000000 0.000000 0.018964
#
#
# Mechanical properties :
#
#
# Convention : Reuss Voigt Hill
#
# Bulk Modulus (GPa) = 73.29840 95.52647 84.41243
# Shear Modulus (GPa) = 30.34697 38.40891 34.37794
#
# Velocity S-wave (km/s) = 3.67317 4.13237 3.90952
# Velocity P-wave (km/s) = 7.11181 8.07709 7.60977
#
# Compressibility (1/GPa) = 0.01364286
#
# Stress axis : x y z
#
# Youngs Moduli (GPa) = 37.46172 76.67145 160.45309
#
# Poissons Ratio (x) = 0.84972 0.53410
# Poissons Ratio (y) = 0.41517 0.28108
# Poissons Ratio (z) = 0.12470 0.13431
#
# Static dielectric constant tensor:
#      x y z
#    x 1.849540 0.000000 0.000000 
#    y 0.000000 1.840290 0.000000 
#    z 0.000000 0.000000 1.948710 
# 
# From -- ./inp_files/8092.got.cif
#   From: 2010.05.17/outbox.cif.g08.bks.cpg/sg60_5_cif.got.tgz:8092.got - 2010.06.03 14:59:27.
