data_PCOD9457124
_publ_section_title
;
Structure prediction by ZEFSAII (Michael W. Deem and Ramdas Pophale) SiO2 
 PCOD9457124
Probable space group: P B C N
;
_chemical_formula_sum "Si O2"
_cell_formula_units_Z 24
_cell_length_a 15.929515
_cell_length_b 12.362258
_cell_length_c 5.321316
_cell_angle_alpha 90.000000
_cell_angle_beta 90.000000
_cell_angle_gamma 90.000000
_cell_volume 1047.898952
_symmetry_space_group_name_H-M "P B C N"
_symmetry_group_IT_number 60
_symmetry_cell_setting 'orthorhombic'
loop_
_space_group_symop_operation_xyz
x,y,z
1/2-x,1/2-y,1/2+z
1/2+x,1/2-y,-z
-x,y,1/2-z
-x,-y,-z
1/2+x,1/2+y,1/2-z
1/2-x,1/2+y,z
x,-y,1/2+z
loop_
_atom_site_type_symbol
_atom_site_label
_atom_site_fract_x
_atom_site_fract_y
_atom_site_fract_z
Si Si1 0.037356 0.877952 0.000756
Si Si2 0.100645 0.444894 0.264979
Si Si3 0.697068 0.737572 0.048652
O O1 0.000000 0.824049 0.250000
O O2 0.137494 0.866963 0.994688
O O3 0.000000 0.827489 0.750000
O O4 0.000000 0.000000 0.000000
O O5 0.129839 0.529250 0.481610
O O6 0.134066 0.332620 0.370179
O O7 0.000000 0.447185 0.250000
O O8 0.758120 0.731007 0.288468
#
# Coordination Sequence:
#
# PCOD9457124 Si02
#       3
#     8   8   8
#     4  10  22  44  68  96 131 190 237 275 343 436
#     4  10  22  43  68  93 128 182 231 274 340 430
#     4  12  25  43  66 106 144 176 229 306 356 405
#
# _framework density 22.902971000000001
#
# number of rings (size 3 to 8) (size 9 to 14) (size 15 to 20)
#    0.000    1.333    0.000    5.000    0.000    4.000 
#   36.000    0.000    0.000    0.000    0.000    0.000 
#    0.000    0.000    0.000    0.000    0.000    0.000 
#
# Total GULP energy -134013.036992 kJ/mol
# GULP energy per Si atom -5583.876541 kJ/mol
# Density = 2.285084 g / cm^3
# Si number density = 22.902971 Si / 1000 Ang^3
#
#
#
# Elastic Constant Matrix: (Units=GPa)
#
#
# Indices 1 2 3 4 5 6 
#
# 1 110.4025 33.3884 81.9484 0.0000 0.0000 0.0000
# 2 33.3884 65.1007 24.2399 0.0000 0.0000 0.0000
# 3 81.9484 24.2399 220.8938 0.0000 0.0000 0.0000
# 4 0.0000 0.0000 0.0000 15.2872 0.0000 0.0000
# 5 0.0000 0.0000 0.0000 0.0000 45.6218 0.0000
# 6 0.0000 0.0000 0.0000 0.0000 0.0000 37.0394
#
#
#
# Elastic Compliance Matrix: (Units=1/GPa)
#
#
# Indices 1 2 3 4 5 6 
#
# 1 0.014191 -0.005544 -0.004656 0.000000 0.000000 0.000000
# 2 -0.005544 0.018181 0.000062 0.000000 0.000000 0.000000
# 3 -0.004656 0.000062 0.006248 0.000000 0.000000 0.000000
# 4 0.000000 0.000000 0.000000 0.065414 0.000000 0.000000
# 5 0.000000 0.000000 0.000000 0.000000 0.021919 0.000000
# 6 0.000000 0.000000 0.000000 0.000000 0.000000 0.026998
#
#
# Mechanical properties :
#
#
# Convention : Reuss Voigt Hill
#
# Bulk Modulus (GPa) = 54.51905 75.06117 64.79011
# Shear Modulus (GPa) = 27.87957 36.71103 32.29530
#
# Velocity S-wave (km/s) = 3.49275 4.00796 3.75919
# Velocity P-wave (km/s) = 6.33418 7.36634 6.86967
#
# Compressibility (1/GPa) = 0.01834221
#
# Stress axis : x y z
#
# Youngs Moduli (GPa) = 70.46933 55.00141 160.06062
#
# Poissons Ratio (x) = 0.30494 0.74526
# Poissons Ratio (y) = 0.39070 -0.00988
# Poissons Ratio (z) = 0.32811 -0.00339
#
# Static dielectric constant tensor:
#      x y z
#    x 1.859270 0.000000 0.000000 
#    y 0.000000 1.798490 0.000000 
#    z 0.000000 0.000000 1.886620 
# 
# From -- ./inp_files/550.got.cif
#   From: 2010.05.17/outbox.cif.g08.bks.cpg/sg60_1_cif.got.tgz:550.got - 2010.06.03 14:59:27.
