data_PCOD9457681
_publ_section_title
;
Structure prediction by ZEFSAII (Michael W. Deem and Ramdas Pophale) SiO2 
 PCOD9457681
Probable space group: P B C N
;
_chemical_formula_sum "Si O2"
_cell_formula_units_Z 44
_cell_length_a 14.993680
_cell_length_b 18.185951
_cell_length_c 8.370091
_cell_angle_alpha 90.000000
_cell_angle_beta 90.000000
_cell_angle_gamma 90.000000
_cell_volume 2282.308954
_symmetry_space_group_name_H-M "P B C N"
_symmetry_group_IT_number 60
_symmetry_cell_setting 'orthorhombic'
loop_
_space_group_symop_operation_xyz
x,y,z
1/2-x,1/2-y,1/2+z
1/2+x,1/2-y,-z
-x,y,1/2-z
-x,-y,-z
1/2+x,1/2+y,1/2-z
1/2-x,1/2+y,z
x,-y,1/2+z
loop_
_atom_site_type_symbol
_atom_site_label
_atom_site_fract_x
_atom_site_fract_y
_atom_site_fract_z
Si Si1 0.863630 0.101745 0.392153
Si Si2 0.895944 0.051802 0.742366
Si Si3 0.194519 0.676348 0.265239
Si Si4 0.189016 0.821900 0.059447
Si Si5 0.992070 0.231281 0.080068
Si Si6 0.500000 0.180568 0.250000
O O1 0.858335 0.068581 0.568745
O O2 0.770601 0.134367 0.332690
O O3 0.938920 0.164342 0.402134
O O4 0.891359 0.034128 0.280248
O O5 0.840135 0.100895 0.866003
O O6 0.000000 0.075188 0.750000
O O7 0.193434 0.759937 0.197179
O O8 0.223582 0.675729 0.450192
O O9 0.096356 0.642864 0.236544
O O10 0.108617 0.797190 0.942779
O O11 0.000000 0.273291 0.250000
O O12 0.010870 0.272487 0.913565
#
# Coordination Sequence:
#
# PCOD9457681 Si02
#       6
#     8   8   8   8   8   4
#     4  12  23  39  59  94 131 171 205 254 324 399
#     4  12  24  38  63  95 136 164 198 259 339 398
#     4  11  23  39  60  87 125 169 218 262 311 371
#     4  11  22  37  61  89 126 168 207 260 316 388
#     4  11  20  36  60  90 127 165 202 256 323 389
#     4  10  24  42  60  88 126 168 224 280 302 358
#
# _framework density 19.278722999999999
#
# number of rings (size 3 to 8) (size 9 to 14) (size 15 to 20)
#    0.000    0.727    3.636    6.545    1.273    0.000 
#    0.000    0.000    0.000    4.364    0.000    0.000 
#    0.000    0.000    0.000    0.000    0.000    0.000 
#
# Total GULP energy -245849.342063 kJ/mol
# GULP energy per Si atom -5587.485047 kJ/mol
# Density = 1.923484 g / cm^3
# Si number density = 19.278723 Si / 1000 Ang^3
#
#
#
# Elastic Constant Matrix: (Units=GPa)
#
#
# Indices 1 2 3 4 5 6 
#
# 1 129.5860 28.7996 25.6413 0.0000 0.0000 0.0000
# 2 28.7996 43.1702 16.2449 0.0000 0.0000 0.0000
# 3 25.6413 16.2449 104.4779 0.0000 0.0000 0.0000
# 4 0.0000 0.0000 0.0000 8.4394 0.0000 0.0000
# 5 0.0000 0.0000 0.0000 0.0000 36.6928 0.0000
# 6 0.0000 0.0000 0.0000 0.0000 0.0000 20.8836
#
#
#
# Elastic Compliance Matrix: (Units=1/GPa)
#
#
# Indices 1 2 3 4 5 6 
#
# 1 0.009247 -0.005645 -0.001392 0.000000 0.000000 0.000000
# 2 -0.005645 0.028050 -0.002976 0.000000 0.000000 0.000000
# 3 -0.001392 -0.002976 0.010376 0.000000 0.000000 0.000000
# 4 0.000000 0.000000 0.000000 0.118492 0.000000 0.000000
# 5 0.000000 0.000000 0.000000 0.000000 0.027253 0.000000
# 6 0.000000 0.000000 0.000000 0.000000 0.000000 0.047884
#
#
# Mechanical properties :
#
#
# Convention : Reuss Voigt Hill
#
# Bulk Modulus (GPa) = 36.17023 46.51176 41.34100
# Shear Modulus (GPa) = 18.48134 26.97304 22.72719
#
# Velocity S-wave (km/s) = 3.09955 3.74452 3.43720
# Velocity P-wave (km/s) = 5.62246 6.54779 6.10269
#
# Compressibility (1/GPa) = 0.02764705
#
# Stress axis : x y z
#
# Youngs Moduli (GPa) = 108.14519 35.65080 96.37927
#
# Poissons Ratio (x) = 0.20125 0.13413
# Poissons Ratio (y) = 0.61048 0.28682
# Poissons Ratio (z) = 0.15050 0.10610
#
# Static dielectric constant tensor:
#      x y z
#    x 1.704870 0.000000 0.000000 
#    y 0.000000 1.656990 0.000000 
#    z 0.000000 0.000000 1.730080 
# 
# From -- ./inp_files/5826.got.cif
#   From: 2010.05.17/outbox.cif.g08.bks.cpg/sg60_3_cif.got.tgz:5826.got - 2010.06.03 14:59:27.
