data_PCOD9458368
_publ_section_title
;
Structure prediction by ZEFSAII (Michael W. Deem and Ramdas Pophale) SiO2 
 PCOD9458368
Probable space group: P B C N
;
_chemical_formula_sum "Si O2"
_cell_formula_units_Z 32
_cell_length_a 10.096254
_cell_length_b 13.723428
_cell_length_c 9.234712
_cell_angle_alpha 90.000000
_cell_angle_beta 90.000000
_cell_angle_gamma 90.000000
_cell_volume 1279.517505
_symmetry_space_group_name_H-M "P B C N"
_symmetry_group_IT_number 60
_symmetry_cell_setting 'orthorhombic'
loop_
_space_group_symop_operation_xyz
x,y,z
1/2-x,1/2-y,1/2+z
1/2+x,1/2-y,-z
-x,y,1/2-z
-x,-y,-z
1/2+x,1/2+y,1/2-z
1/2-x,1/2+y,z
x,-y,1/2+z
loop_
_atom_site_type_symbol
_atom_site_label
_atom_site_fract_x
_atom_site_fract_y
_atom_site_fract_z
Si Si1 0.776519 0.775211 0.581592
Si Si2 0.879490 0.829843 0.861292
Si Si3 0.289151 0.537469 0.574928
Si Si4 0.127141 0.433078 0.351433
O O1 0.758315 0.810489 0.746786
O O2 0.646635 0.745778 0.489906
O O3 0.843781 0.865022 0.497235
O O4 0.859952 0.675253 0.584566
O O5 0.000000 0.816162 0.750000
O O6 0.873882 0.939173 0.920801
O O7 0.159888 0.509549 0.477455
O O8 0.248681 0.558566 0.738527
O O9 0.000000 0.445895 0.250000
#
# Coordination Sequence:
#
# PCOD9458368 Si02
#       4
#     8   8   8   8
#     4  11  23  43  70 101 139 180 234 292 337 422
#     4  11  25  47  71  99 144 184 230 290 349 413
#     4  11  23  43  67 102 140 180 234 290 343 422
#     4  11  23  43  69  99 138 183 233 295 347 401
#
# _framework density 25.009426999999999
#
# number of rings (size 3 to 8) (size 9 to 14) (size 15 to 20)
#    0.000    1.000    5.000    1.500    0.000    1.000 
#    0.000    1.250    0.000    0.000    0.000    0.000 
#    0.000    0.000    0.000    0.000    0.000    0.000 
#
# Total GULP energy -178873.706507 kJ/mol
# GULP energy per Si atom -5589.803328 kJ/mol
# Density = 2.495250 g / cm^3
# Si number density = 25.009427 Si / 1000 Ang^3
#
#
#
# Elastic Constant Matrix: (Units=GPa)
#
#
# Indices 1 2 3 4 5 6 
#
# 1 71.9600 24.5979 26.2580 0.0000 0.0000 0.0000
# 2 24.5979 154.2063 53.9099 0.0000 0.0000 0.0000
# 3 26.2580 53.9099 131.3272 0.0000 0.0000 0.0000
# 4 0.0000 0.0000 0.0000 66.3287 0.0000 0.0000
# 5 0.0000 0.0000 0.0000 0.0000 47.2203 0.0000
# 6 0.0000 0.0000 0.0000 0.0000 0.0000 9.6560
#
#
#
# Elastic Compliance Matrix: (Units=1/GPa)
#
#
# Indices 1 2 3 4 5 6 
#
# 1 0.015322 -0.001603 -0.002406 0.000000 0.000000 0.000000
# 2 -0.001603 0.007739 -0.002856 0.000000 0.000000 0.000000
# 3 -0.002406 -0.002856 0.009268 0.000000 0.000000 0.000000
# 4 0.000000 0.000000 0.000000 0.015076 0.000000 0.000000
# 5 0.000000 0.000000 0.000000 0.000000 0.021177 0.000000
# 6 0.000000 0.000000 0.000000 0.000000 0.000000 0.103563
#
#
# Mechanical properties :
#
#
# Convention : Reuss Voigt Hill
#
# Bulk Modulus (GPa) = 53.76490 63.00278 58.38384
# Shear Modulus (GPa) = 26.03135 41.48950 33.76043
#
# Velocity S-wave (km/s) = 3.22974 4.07745 3.67810
# Velocity P-wave (km/s) = 5.95423 6.88576 6.43687
#
# Compressibility (1/GPa) = 0.01859949
#
# Stress axis : x y z
#
# Youngs Moduli (GPa) = 65.26400 129.21365 107.89722
#
# Poissons Ratio (x) = 0.20715 0.25955
# Poissons Ratio (y) = 0.10463 0.30819
# Poissons Ratio (z) = 0.15699 0.36908
#
# Static dielectric constant tensor:
#      x y z
#    x 2.204380 0.000000 0.000000 
#    y 0.000000 1.946690 0.000000 
#    z 0.000000 0.000000 1.951890 
# 
# From -- ./inp_files/4498.got.cif
#   From: 2010.05.17/outbox.cif.g08.bks.cpg/sg60_3_cif.got.tgz:4498.got - 2010.06.03 14:59:27.
