data_PCOD9458230
_publ_section_title
;
Structure prediction by ZEFSAII (Michael W. Deem and Ramdas Pophale) SiO2 
 PCOD9458230
Probable space group: P B C N
;
_chemical_formula_sum "Si O2"
_cell_formula_units_Z 32
_cell_length_a 18.732322
_cell_length_b 15.440421
_cell_length_c 4.975641
_cell_angle_alpha 90.000000
_cell_angle_beta 90.000000
_cell_angle_gamma 90.000000
_cell_volume 1439.129216
_symmetry_space_group_name_H-M "P B C N"
_symmetry_group_IT_number 60
_symmetry_cell_setting 'orthorhombic'
loop_
_space_group_symop_operation_xyz
x,y,z
1/2-x,1/2-y,1/2+z
1/2+x,1/2-y,-z
-x,y,1/2-z
-x,-y,-z
1/2+x,1/2+y,1/2-z
1/2-x,1/2+y,z
x,-y,1/2+z
loop_
_atom_site_type_symbol
_atom_site_label
_atom_site_fract_x
_atom_site_fract_y
_atom_site_fract_z
Si Si1 0.500000 0.935508 0.750000
Si Si2 0.867184 0.056394 0.955277
Si Si3 0.500000 0.637977 0.750000
Si Si4 0.295823 0.732992 0.355404
Si Si5 0.067753 0.293754 0.053958
O O1 0.563515 0.868185 0.672706
O O2 0.500000 0.000000 0.500000
O O3 0.950555 0.083514 0.948417
O O4 0.852442 0.021519 0.658519
O O5 0.824392 0.140594 0.044422
O O6 0.553040 0.701941 0.589663
O O7 0.260734 0.777017 0.614809
O O8 0.361091 0.786631 0.226275
O O9 0.000000 0.308823 0.250000
#
# Coordination Sequence:
#
# PCOD9458230 Si02
#       5
#     4   8   4   8   8
#     4  11  24  42  70 107 140 172 240 321 360 386
#     4  12  25  43  70 108 147 181 230 294 355 423
#     4  11  22  40  72 113 144 184 230 289 360 432
#     4  12  27  48  71 100 145 197 238 285 353 433
#     4  11  23  44  76 104 135 188 249 287 346 439
#
# _framework density 22.235669000000001
#
# number of rings (size 3 to 8) (size 9 to 14) (size 15 to 20)
#    0.000    0.500    3.750    5.250    3.500    0.000 
#    0.000    7.500    0.000    0.000    0.000    0.000 
#    0.000    0.000    0.000    0.000    0.000    0.000 
#
# Total GULP energy -179057.703484 kJ/mol
# GULP energy per Si atom -5595.553234 kJ/mol
# Density = 2.218506 g / cm^3
# Si number density = 22.235669 Si / 1000 Ang^3
#
#
#
# Elastic Constant Matrix: (Units=GPa)
#
#
# Indices 1 2 3 4 5 6 
#
# 1 104.0350 59.1651 51.9297 0.0000 0.0000 0.0000
# 2 59.1651 88.2612 44.4792 0.0000 0.0000 0.0000
# 3 51.9297 44.4792 141.6832 0.0000 0.0000 0.0000
# 4 0.0000 0.0000 0.0000 47.0848 0.0000 0.0000
# 5 0.0000 0.0000 0.0000 0.0000 57.3474 0.0000
# 6 0.0000 0.0000 0.0000 0.0000 0.0000 14.0940
#
#
#
# Elastic Compliance Matrix: (Units=1/GPa)
#
#
# Indices 1 2 3 4 5 6 
#
# 1 0.016591 -0.009571 -0.003076 0.000000 0.000000 0.000000
# 2 -0.009571 0.018981 -0.002451 0.000000 0.000000 0.000000
# 3 -0.003076 -0.002451 0.008955 0.000000 0.000000 0.000000
# 4 0.000000 0.000000 0.000000 0.021238 0.000000 0.000000
# 5 0.000000 0.000000 0.000000 0.000000 0.017438 0.000000
# 6 0.000000 0.000000 0.000000 0.000000 0.000000 0.070952
#
#
# Mechanical properties :
#
#
# Convention : Reuss Voigt Hill
#
# Bulk Modulus (GPa) = 69.78152 71.68081 70.73116
# Shear Modulus (GPa) = 26.43710 35.59892 31.01801
#
# Velocity S-wave (km/s) = 3.45186 4.00557 3.73898
# Velocity P-wave (km/s) = 6.88025 7.32800 7.10766
#
# Compressibility (1/GPa) = 0.01433044
#
# Stress axis : x y z
#
# Youngs Moduli (GPa) = 60.27412 52.68395 111.67161
#
# Poissons Ratio (x) = 0.50426 0.34351
# Poissons Ratio (y) = 0.57690 0.27368
# Poissons Ratio (z) = 0.18541 0.12911
#
# Static dielectric constant tensor:
#      x y z
#    x 1.825260 0.000000 0.000000 
#    y 0.000000 1.818270 0.000000 
#    z 0.000000 0.000000 1.855140 
# 
# From -- ./inp_files/1565.got.cif
#   From: 2010.05.17/outbox.cif.g08.bks.cpg/sg60_1_cif.got.tgz:1565.got - 2010.06.03 14:59:27.
