data_PCOD9458557
_publ_section_title
;
Structure prediction by ZEFSAII (Michael W. Deem and Ramdas Pophale) SiO2 
 PCOD9458557
Probable space group: P B C N
;
_chemical_formula_sum "Si O2"
_cell_formula_units_Z 36
_cell_length_a 9.316615
_cell_length_b 11.454053
_cell_length_c 17.148820
_cell_angle_alpha 90.000000
_cell_angle_beta 90.000000
_cell_angle_gamma 90.000000
_cell_volume 1830.002063
_symmetry_space_group_name_H-M "P B C N"
_symmetry_group_IT_number 60
_symmetry_cell_setting 'orthorhombic'
loop_
_space_group_symop_operation_xyz
x,y,z
1/2-x,1/2-y,1/2+z
1/2+x,1/2-y,-z
-x,y,1/2-z
-x,-y,-z
1/2+x,1/2+y,1/2-z
1/2-x,1/2+y,z
x,-y,1/2+z
loop_
_atom_site_type_symbol
_atom_site_label
_atom_site_fract_x
_atom_site_fract_y
_atom_site_fract_z
Si Si1 0.021883 0.891228 0.392216
Si Si2 0.000000 0.464766 0.750000
Si Si3 0.211392 0.723187 0.175783
Si Si4 0.470649 0.658928 0.074576
Si Si5 0.834177 0.330217 0.172512
O O1 0.016274 0.848367 0.481685
O O2 0.174194 0.855028 0.357016
O O3 0.894074 0.829410 0.345343
O O4 0.005798 0.030489 0.392313
O O5 0.887391 0.383091 0.795177
O O6 0.915767 0.549507 0.690975
O O7 0.310698 0.690623 0.102852
O O8 0.315748 0.761291 0.246045
O O9 0.578391 0.752810 0.111377
#
# Coordination Sequence:
#
# PCOD9458557 Si02
#       5
#     8   4   8   8   8
#     4  11  25  44  66  96 132 171 213 266 324 382
#     4  12  24  40  70 100 124 168 224 266 320 376
#     4  12  23  44  68  97 131 169 219 264 322 383
#     4  11  25  44  66  96 132 171 213 266 324 382
#     4  12  23  44  68  97 131 169 219 264 322 383
#
# _framework density 19.672108999999999
#
# number of rings (size 3 to 8) (size 9 to 14) (size 15 to 20)
#    0.000    0.444    4.444    4.000    0.000    1.778 
#    0.000    2.222    0.000    0.000    0.000    0.000 
#    0.000    0.000    0.000    0.000    0.000    0.000 
#
# Total GULP energy -201519.360135 kJ/mol
# GULP energy per Si atom -5597.760004 kJ/mol
# Density = 1.962733 g / cm^3
# Si number density = 19.672109 Si / 1000 Ang^3
#
#
#
# Elastic Constant Matrix: (Units=GPa)
#
#
# Indices 1 2 3 4 5 6 
#
# 1 74.3182 1.1067 -0.0979 0.0000 0.0000 0.0000
# 2 1.1067 51.2853 15.6547 0.0000 0.0000 0.0000
# 3 -0.0979 15.6547 38.1392 0.0000 0.0000 0.0000
# 4 0.0000 0.0000 0.0000 34.2940 0.0000 0.0000
# 5 0.0000 0.0000 0.0000 0.0000 40.5893 0.0000
# 6 0.0000 0.0000 0.0000 0.0000 0.0000 19.4156
#
#
#
# Elastic Compliance Matrix: (Units=1/GPa)
#
#
# Indices 1 2 3 4 5 6 
#
# 1 0.013461 -0.000344 0.000176 0.000000 0.000000 0.000000
# 2 -0.000344 0.022301 -0.009154 0.000000 0.000000 0.000000
# 3 0.000176 -0.009154 0.029978 0.000000 0.000000 0.000000
# 4 0.000000 0.000000 0.000000 0.029160 0.000000 0.000000
# 5 0.000000 0.000000 0.000000 0.000000 0.024637 0.000000
# 6 0.000000 0.000000 0.000000 0.000000 0.000000 0.051505
#
#
# Mechanical properties :
#
#
# Convention : Reuss Voigt Hill
#
# Bulk Modulus (GPa) = 21.23423 21.89665 21.56544
# Shear Modulus (GPa) = 24.34460 28.66506 26.50483
#
# Velocity S-wave (km/s) = 3.52165 3.82139 3.67458
# Velocity P-wave (km/s) = 5.23007 5.53405 5.38420
#
# Compressibility (1/GPa) = 0.04709376
#
# Stress axis : x y z
#
# Youngs Moduli (GPa) = 74.28865 44.84191 33.35811
#
# Poissons Ratio (x) = 0.01543 -0.00586
# Poissons Ratio (y) = 0.02557 0.30537
# Poissons Ratio (z) = -0.01306 0.41050
#
# Static dielectric constant tensor:
#      x y z
#    x 1.664820 0.000000 0.000000 
#    y 0.000000 1.661130 0.000000 
#    z 0.000000 0.000000 1.676890 
# 
# From -- ./inp_files/21914.got.cif
#   From: 2010.05.17/outbox.cif.g08.bks.cpg/sg60_11_cif.got.tgz:21914.got - 2010.06.03 14:59:27.
