data_PCOD9458287
_publ_section_title
;
Structure prediction by ZEFSAII (Michael W. Deem and Ramdas Pophale) SiO2 
 PCOD9458287
Probable space group: P B C N
;
_chemical_formula_sum "Si O2"
_cell_formula_units_Z 48
_cell_length_a 16.158801
_cell_length_b 11.265940
_cell_length_c 11.803983
_cell_angle_alpha 90.000000
_cell_angle_beta 90.000000
_cell_angle_gamma 90.000000
_cell_volume 2148.845256
_symmetry_space_group_name_H-M "P B C N"
_symmetry_group_IT_number 60
_symmetry_cell_setting 'orthorhombic'
loop_
_space_group_symop_operation_xyz
x,y,z
1/2-x,1/2-y,1/2+z
1/2+x,1/2-y,-z
-x,y,1/2-z
-x,-y,-z
1/2+x,1/2+y,1/2-z
1/2-x,1/2+y,z
x,-y,1/2+z
loop_
_atom_site_type_symbol
_atom_site_label
_atom_site_fract_x
_atom_site_fract_y
_atom_site_fract_z
Si Si1 0.854068 0.535487 0.382467
Si Si2 0.195354 0.943338 0.984980
Si Si3 0.597200 0.328818 0.007170
Si Si4 0.872987 0.709038 0.773854
Si Si5 0.791692 0.691851 0.188223
Si Si6 0.579420 0.767108 0.022227
O O1 0.764339 0.496477 0.431388
O O2 0.892613 0.418262 0.327948
O O3 0.845413 0.635733 0.287012
O O4 0.904572 0.598997 0.482203
O O5 0.241487 0.917655 0.867142
O O6 0.156416 0.815877 0.015578
O O7 0.120945 0.035537 0.971024
O O8 0.655962 0.250967 0.088177
O O9 0.616137 0.301191 0.875755
O O10 0.503648 0.288843 0.026786
O O11 0.776975 0.717486 0.734973
O O12 0.922314 0.735664 0.658997
#
# Coordination Sequence:
#
# PCOD9458287 Si02
#       6
#     8   8   8   8   8   8
#     4  12  22  44  70 100 137 184 237 280 339 426
#     4  11  22  45  71  98 133 188 237 283 340 418
#     4  12  24  46  69 105 142 178 234 297 355 410
#     4  11  24  43  71  97 138 185 230 282 350 423
#     4  11  23  42  71 102 131 182 243 282 342 416
#     4  11  27  44  69 107 144 184 229 292 365 405
#
# _framework density 22.337577
#
# number of rings (size 3 to 8) (size 9 to 14) (size 15 to 20)
#    0.000    0.667    3.333    6.000    0.000    1.333 
#    3.000    0.000    0.000    0.000    0.000    0.000 
#    0.000    0.000    0.000    0.000    0.000    0.000 
#
# Total GULP energy -268595.060572 kJ/mol
# GULP energy per Si atom -5595.730429 kJ/mol
# Density = 2.228674 g / cm^3
# Si number density = 22.337577 Si / 1000 Ang^3
#
#
#
# Elastic Constant Matrix: (Units=GPa)
#
#
# Indices 1 2 3 4 5 6 
#
# 1 55.0446 -9.2265 5.6005 0.0000 0.0000 0.0000
# 2 -9.2265 84.1753 23.8217 0.0000 0.0000 0.0000
# 3 5.6005 23.8217 88.1657 0.0000 0.0000 0.0000
# 4 0.0000 0.0000 0.0000 3.8049 0.0000 0.0000
# 5 0.0000 0.0000 0.0000 0.0000 18.4866 0.0000
# 6 0.0000 0.0000 0.0000 0.0000 0.0000 21.9292
#
#
#
# Elastic Compliance Matrix: (Units=1/GPa)
#
#
# Indices 1 2 3 4 5 6 
#
# 1 0.018795 0.002597 -0.001895 0.000000 0.000000 0.000000
# 2 0.002597 0.013222 -0.003737 0.000000 0.000000 0.000000
# 3 -0.001895 -0.003737 0.012473 0.000000 0.000000 0.000000
# 4 0.000000 0.000000 0.000000 0.262816 0.000000 0.000000
# 5 0.000000 0.000000 0.000000 0.000000 0.054093 0.000000
# 6 0.000000 0.000000 0.000000 0.000000 0.000000 0.045601
#
#
# Mechanical properties :
#
#
# Convention : Reuss Voigt Hill
#
# Bulk Modulus (GPa) = 26.03005 29.75301 27.89153
# Shear Modulus (GPa) = 11.74041 22.65681 17.19861
#
# Velocity S-wave (km/s) = 2.29506 3.18825 2.77779
# Velocity P-wave (km/s) = 4.32451 5.18670 4.77511
#
# Compressibility (1/GPa) = 0.03841714
#
# Stress axis : x y z
#
# Youngs Moduli (GPa) = 53.20515 75.62987 80.17617
#
# Poissons Ratio (x) = -0.19638 0.15197
# Poissons Ratio (y) = -0.13815 0.29966
# Poissons Ratio (z) = 0.10085 0.28267
#
# Static dielectric constant tensor:
#      x y z
#    x 1.843230 0.000000 0.000000 
#    y 0.000000 1.813710 0.000000 
#    z 0.000000 0.000000 1.800960 
# 
# From -- ./inp_files/12417.got.cif
#   From: 2010.05.17/outbox.cif.g08.bks.cpg/sg60_7_cif.got.tgz:12417.got - 2010.06.03 14:59:27.
