data_PCOD9458495
_publ_section_title
;
Structure prediction by ZEFSAII (Michael W. Deem and Ramdas Pophale) SiO2 
 PCOD9458495
Probable space group: P B C N
;
_chemical_formula_sum "Si O2"
_cell_formula_units_Z 40
_cell_length_a 13.429713
_cell_length_b 13.759803
_cell_length_c 8.923450
_cell_angle_alpha 90.000000
_cell_angle_beta 90.000000
_cell_angle_gamma 90.000000
_cell_volume 1648.966157
_symmetry_space_group_name_H-M "P B C N"
_symmetry_group_IT_number 60
_symmetry_cell_setting 'orthorhombic'
loop_
_space_group_symop_operation_xyz
x,y,z
1/2-x,1/2-y,1/2+z
1/2+x,1/2-y,-z
-x,y,1/2-z
-x,-y,-z
1/2+x,1/2+y,1/2-z
1/2-x,1/2+y,z
x,-y,1/2+z
loop_
_atom_site_type_symbol
_atom_site_label
_atom_site_fract_x
_atom_site_fract_y
_atom_site_fract_z
Si Si1 0.426356 0.616699 0.449524
Si Si2 0.073752 0.443355 0.886075
Si Si3 0.804983 0.628785 0.669790
Si Si4 0.500000 0.449059 0.250000
Si Si5 0.775244 0.707874 0.996630
Si Si6 0.000000 0.260823 0.250000
O O1 0.433544 0.516800 0.358323
O O2 0.439328 0.608462 0.626468
O O3 0.319617 0.662471 0.416809
O O4 0.515590 0.683554 0.384047
O O5 0.167064 0.515344 0.845749
O O6 0.124906 0.345820 0.948564
O O7 0.000000 0.420628 0.750000
O O8 0.000000 0.500000 0.000000
O O9 0.741571 0.678361 0.536152
O O10 0.916565 0.671579 0.682448
O O11 0.763449 0.672173 0.825618
#
# Coordination Sequence:
#
# PCOD9458495 Si02
#       6
#     8   8   8   4   8   4
#     4   9  20  35  60  87 128 164 216 267 340 404
#     4  12  25  47  75 102 142 195 247 296 365 438
#     4  11  24  45  68 101 141 178 234 297 352 422
#     4   9  18  36  56  90 121 172 210 263 332 422
#     4  11  26  42  67 104 134 183 235 299 355 421
#     4   9  18  42  60  84 127 172 208 275 338 398
#
# _framework density 24.257624
#
# number of rings (size 3 to 8) (size 9 to 14) (size 15 to 20)
#    0.000    1.600    3.000    0.000    5.600    1.600 
#    7.200    0.000    0.000    0.000    0.000    0.000 
#    0.000    0.000    0.000    0.000    0.000    0.000 
#
# Total GULP energy -223050.620810 kJ/mol
# GULP energy per Si atom -5576.265520 kJ/mol
# Density = 2.420241 g / cm^3
# Si number density = 24.257624 Si / 1000 Ang^3
#
#
#
# Elastic Constant Matrix: (Units=GPa)
#
#
# Indices 1 2 3 4 5 6 
#
# 1 76.0618 27.0198 17.0273 0.0000 0.0000 0.0000
# 2 27.0198 81.9772 18.8369 0.0000 0.0000 0.0000
# 3 17.0273 18.8369 106.9203 0.0000 0.0000 0.0000
# 4 0.0000 0.0000 0.0000 37.9321 0.0000 0.0000
# 5 0.0000 0.0000 0.0000 0.0000 38.2256 0.0000
# 6 0.0000 0.0000 0.0000 0.0000 0.0000 28.6230
#
#
#
# Elastic Compliance Matrix: (Units=1/GPa)
#
#
# Indices 1 2 3 4 5 6 
#
# 1 0.015148 -0.004626 -0.001597 0.000000 0.000000 0.000000
# 2 -0.004626 0.014126 -0.001752 0.000000 0.000000 0.000000
# 3 -0.001597 -0.001752 0.009916 0.000000 0.000000 0.000000
# 4 0.000000 0.000000 0.000000 0.026363 0.000000 0.000000
# 5 0.000000 0.000000 0.000000 0.000000 0.026160 0.000000
# 6 0.000000 0.000000 0.000000 0.000000 0.000000 0.034937
#
#
# Mechanical properties :
#
#
# Convention : Reuss Voigt Hill
#
# Bulk Modulus (GPa) = 43.03053 43.41415 43.22234
# Shear Modulus (GPa) = 33.25648 34.42782 33.84215
#
# Velocity S-wave (km/s) = 3.70668 3.77139 3.73917
# Velocity P-wave (km/s) = 6.00806 6.07458 6.04141
#
# Compressibility (1/GPa) = 0.02323932
#
# Stress axis : x y z
#
# Youngs Moduli (GPa) = 66.01515 70.79271 100.84900
#
# Poissons Ratio (x) = 0.32747 0.16110
# Poissons Ratio (y) = 0.30537 0.17669
# Poissons Ratio (z) = 0.10545 0.12403
#
# Static dielectric constant tensor:
#      x y z
#    x 2.043980 0.000000 0.000000 
#    y 0.000000 2.049350 0.000000 
#    z 0.000000 0.000000 1.978450 
# 
# From -- ./inp_files/5703.got.cif
#   From: 2010.05.17/outbox.cif.g08.bks.cpg/sg60_3_cif.got.tgz:5703.got - 2010.06.03 14:59:27.
