data_PCOD9458169
_publ_section_title
;
Structure prediction by ZEFSAII (Michael W. Deem and Ramdas Pophale) SiO2 
 PCOD9458169
Probable space group: P B C N
;
_chemical_formula_sum "Si O2"
_cell_formula_units_Z 48
_cell_length_a 13.016742
_cell_length_b 17.262311
_cell_length_c 8.436385
_cell_angle_alpha 90.000000
_cell_angle_beta 90.000000
_cell_angle_gamma 90.000000
_cell_volume 1895.647683
_symmetry_space_group_name_H-M "P B C N"
_symmetry_group_IT_number 60
_symmetry_cell_setting 'orthorhombic'
loop_
_space_group_symop_operation_xyz
x,y,z
1/2-x,1/2-y,1/2+z
1/2+x,1/2-y,-z
-x,y,1/2-z
-x,-y,-z
1/2+x,1/2+y,1/2-z
1/2-x,1/2+y,z
x,-y,1/2+z
loop_
_atom_site_type_symbol
_atom_site_label
_atom_site_fract_x
_atom_site_fract_y
_atom_site_fract_z
Si Si1 0.741728 0.090465 0.000217
Si Si2 0.017892 0.877357 0.057160
Si Si3 0.543985 0.211752 0.577823
Si Si4 0.149721 0.656687 0.206319
Si Si5 0.689629 0.424391 0.977708
Si Si6 0.747940 0.307618 0.226705
O O1 0.663691 0.099574 0.146891
O O2 0.744393 0.000976 0.948883
O O3 0.707028 0.161249 0.890079
O O4 0.866581 0.103868 0.002980
O O5 0.932123 0.929927 0.969637
O O6 0.000000 0.883658 0.250000
O O7 0.996530 0.790460 0.990473
O O8 0.500000 0.187224 0.750000
O O9 0.562273 0.152479 0.429210
O O10 0.662953 0.228985 0.622630
O O11 0.157055 0.746611 0.255007
O O12 0.262909 0.641597 0.131587
O O13 0.712191 0.388375 0.149471
#
# Coordination Sequence:
#
# PCOD9458169 Si02
#       6
#     8   8   8   8   8   8
#     4  12  23  41  65 100 142 192 234 288 359 445
#     4  12  23  39  63 102 152 181 226 285 361 448
#     4  11  24  42  67 102 135 184 247 305 345 415
#     4  11  22  41  68  90 134 194 240 285 358 421
#     4  11  24  39  65 101 143 186 231 290 364 438
#     4  11  21  44  64  94 140 191 243 290 348 437
#
# _framework density 25.321159999999999
#
# number of rings (size 3 to 8) (size 9 to 14) (size 15 to 20)
#    0.000    0.667    5.000    3.500    0.000    1.333 
#    0.000    0.000    0.000   16.000    0.000    0.000 
#    0.000    0.000    0.000    0.000    0.000    0.000 
#
# Total GULP energy -267518.914749 kJ/mol
# GULP energy per Si atom -5573.310724 kJ/mol
# Density = 2.526353 g / cm^3
# Si number density = 25.321160 Si / 1000 Ang^3
#
#
#
# Elastic Constant Matrix: (Units=GPa)
#
#
# Indices 1 2 3 4 5 6 
#
# 1 78.2803 17.7349 22.5659 0.0000 0.0000 0.0000
# 2 17.7349 96.0090 12.8341 0.0000 0.0000 0.0000
# 3 22.5659 12.8341 53.1229 0.0000 0.0000 0.0000
# 4 0.0000 0.0000 0.0000 21.9490 0.0000 0.0000
# 5 0.0000 0.0000 0.0000 0.0000 46.1548 0.0000
# 6 0.0000 0.0000 0.0000 0.0000 0.0000 33.1200
#
#
#
# Elastic Compliance Matrix: (Units=1/GPa)
#
#
# Indices 1 2 3 4 5 6 
#
# 1 0.014910 -0.001971 -0.005857 0.000000 0.000000 0.000000
# 2 -0.001971 0.011024 -0.001826 0.000000 0.000000 0.000000
# 3 -0.005857 -0.001826 0.021753 0.000000 0.000000 0.000000
# 4 0.000000 0.000000 0.000000 0.045560 0.000000 0.000000
# 5 0.000000 0.000000 0.000000 0.000000 0.021666 0.000000
# 6 0.000000 0.000000 0.000000 0.000000 0.000000 0.030193
#
#
# Mechanical properties :
#
#
# Convention : Reuss Voigt Hill
#
# Bulk Modulus (GPa) = 35.23813 37.07577 36.15695
# Shear Modulus (GPa) = 28.75634 31.86325 30.30979
#
# Velocity S-wave (km/s) = 3.37362 3.55119 3.46354
# Velocity P-wave (km/s) = 5.39646 5.61147 5.50501
#
# Compressibility (1/GPa) = 0.02837835
#
# Stress axis : x y z
#
# Youngs Moduli (GPa) = 67.07074 90.71202 45.96971
#
# Poissons Ratio (x) = 0.17881 0.26925
# Poissons Ratio (y) = 0.13221 0.08394
# Poissons Ratio (z) = 0.39285 0.16564
#
# Static dielectric constant tensor:
#      x y z
#    x 2.036640 0.000000 0.000000 
#    y 0.000000 1.944780 0.000000 
#    z 0.000000 0.000000 2.233870 
# 
# From -- ./inp_files/5901.got.cif
#   From: 2010.05.17/outbox.cif.g08.bks.cpg/sg60_3_cif.got.tgz:5901.got - 2010.06.03 14:59:27.
