data_PCOD9458028
_publ_section_title
;
Structure prediction by ZEFSAII (Michael W. Deem and Ramdas Pophale) SiO2 
 PCOD9458028
Probable space group: P B C N
;
_chemical_formula_sum "Si O2"
_cell_formula_units_Z 48
_cell_length_a 9.109287
_cell_length_b 13.965138
_cell_length_c 14.907214
_cell_angle_alpha 90.000000
_cell_angle_beta 90.000000
_cell_angle_gamma 90.000000
_cell_volume 1896.383216
_symmetry_space_group_name_H-M "P B C N"
_symmetry_group_IT_number 60
_symmetry_cell_setting 'orthorhombic'
loop_
_space_group_symop_operation_xyz
x,y,z
1/2-x,1/2-y,1/2+z
1/2+x,1/2-y,-z
-x,y,1/2-z
-x,-y,-z
1/2+x,1/2+y,1/2-z
1/2-x,1/2+y,z
x,-y,1/2+z
loop_
_atom_site_type_symbol
_atom_site_label
_atom_site_fract_x
_atom_site_fract_y
_atom_site_fract_z
Si Si1 0.265702 0.662781 0.327738
Si Si2 0.681621 0.951412 0.194817
Si Si3 0.445409 0.325253 0.344930
Si Si4 0.598325 0.668118 0.366137
Si Si5 0.906392 0.380334 0.396809
Si Si6 0.141365 0.032288 0.555663
O O1 0.177138 0.565250 0.312799
O O2 0.166132 0.742726 0.374681
O O3 0.423546 0.647025 0.373291
O O4 0.330422 0.693947 0.230371
O O5 0.846314 0.918286 0.174889
O O6 0.576913 0.903982 0.119787
O O7 0.647354 0.913696 0.295617
O O8 0.500000 0.286224 0.250000
O O9 0.580126 0.369465 0.398924
O O10 0.613972 0.768412 0.416062
O O11 0.669436 0.567130 0.391002
O O12 0.807332 0.437190 0.468447
O O13 0.000000 0.000000 0.500000
#
# Coordination Sequence:
#
# PCOD9458028 Si02
#       6
#     8   8   8   8   8   8
#     4  11  20  34  69 102 127 173 224 292 368 404
#     4  11  20  36  65 102 133 162 226 297 351 404
#     4  12  21  39  66 100 130 171 238 293 344 422
#     4  11  20  40  66  95 134 177 225 291 355 420
#     4  11  22  40  64 100 135 174 231 291 350 423
#     4  12  27  46  65  96 146 192 230 286 368 442
#
# _framework density 25.311340999999999
#
# number of rings (size 3 to 8) (size 9 to 14) (size 15 to 20)
#    0.000    0.667    8.333    1.000    2.333    1.333 
#    3.000    0.833    0.000    0.000    0.000    0.000 
#    0.000    0.000    0.000    0.000    0.000    0.000 
#
# Total GULP energy -267754.631730 kJ/mol
# GULP energy per Si atom -5578.221494 kJ/mol
# Density = 2.525373 g / cm^3
# Si number density = 25.311341 Si / 1000 Ang^3
#
#
#
# Elastic Constant Matrix: (Units=GPa)
#
#
# Indices 1 2 3 4 5 6 
#
# 1 88.4882 17.4556 11.2330 0.0000 0.0000 0.0000
# 2 17.4556 174.3718 12.5529 0.0000 0.0000 0.0000
# 3 11.2330 12.5529 59.0846 0.0000 0.0000 0.0000
# 4 0.0000 0.0000 0.0000 9.6433 0.0000 0.0000
# 5 0.0000 0.0000 0.0000 0.0000 36.8690 0.0000
# 6 0.0000 0.0000 0.0000 0.0000 0.0000 42.2147
#
#
#
# Elastic Compliance Matrix: (Units=1/GPa)
#
#
# Indices 1 2 3 4 5 6 
#
# 1 0.011761 -0.001032 -0.002017 0.000000 0.000000 0.000000
# 2 -0.001032 0.005915 -0.001060 0.000000 0.000000 0.000000
# 3 -0.002017 -0.001060 0.017534 0.000000 0.000000 0.000000
# 4 0.000000 0.000000 0.000000 0.103699 0.000000 0.000000
# 5 0.000000 0.000000 0.000000 0.000000 0.027123 0.000000
# 6 0.000000 0.000000 0.000000 0.000000 0.000000 0.023688
#
#
# Mechanical properties :
#
#
# Convention : Reuss Voigt Hill
#
# Bulk Modulus (GPa) = 37.05011 44.93640 40.99325
# Shear Modulus (GPa) = 24.16234 36.45894 30.31064
#
# Velocity S-wave (km/s) = 3.09302 3.79940 3.46426
# Velocity P-wave (km/s) = 5.23691 6.08599 5.67735
#
# Compressibility (1/GPa) = 0.02699048
#
# Stress axis : x y z
#
# Youngs Moduli (GPa) = 85.03013 169.07524 57.03352
#
# Poissons Ratio (x) = 0.17451 0.11501
# Poissons Ratio (y) = 0.08776 0.06048
# Poissons Ratio (z) = 0.17147 0.17928
#
# Static dielectric constant tensor:
#      x y z
#    x 1.980320 0.000000 0.000000 
#    y 0.000000 1.966620 0.000000 
#    z 0.000000 0.000000 2.223500 
# 
# From -- ./inp_files/19286.got.cif
#   From: 2010.05.17/outbox.cif.g08.bks.cpg/sg60_10_cif.got.tgz:19286.got - 2010.06.03 14:59:27.
