data_PCOD9458547
_publ_section_title
;
Structure prediction by ZEFSAII (Michael W. Deem and Ramdas Pophale) SiO2 
 PCOD9458547
Probable space group: P B C N
;
_chemical_formula_sum "Si O2"
_cell_formula_units_Z 56
_cell_length_a 15.179055
_cell_length_b 11.389014
_cell_length_c 12.581682
_cell_angle_alpha 90.000000
_cell_angle_beta 90.000000
_cell_angle_gamma 90.000000
_cell_volume 2175.051606
_symmetry_space_group_name_H-M "P B C N"
_symmetry_group_IT_number 60
_symmetry_cell_setting 'orthorhombic'
loop_
_space_group_symop_operation_xyz
x,y,z
1/2-x,1/2-y,1/2+z
1/2+x,1/2-y,-z
-x,y,1/2-z
-x,-y,-z
1/2+x,1/2+y,1/2-z
1/2-x,1/2+y,z
x,-y,1/2+z
loop_
_atom_site_type_symbol
_atom_site_label
_atom_site_fract_x
_atom_site_fract_y
_atom_site_fract_z
Si Si1 0.442892 0.186660 0.477076
Si Si2 0.116245 0.587596 0.679331
Si Si3 0.256291 0.902636 0.925629
Si Si4 0.646419 0.348790 0.764581
Si Si5 0.500000 0.466175 0.250000
Si Si6 0.272951 0.908489 0.567775
Si Si7 0.000000 0.399313 0.750000
Si Si8 0.595305 0.314251 0.435835
O O1 0.448114 0.097275 0.575939
O O2 0.338291 0.181592 0.457022
O O3 0.486316 0.165189 0.361200
O O4 0.508496 0.290999 0.508789
O O5 0.119483 0.713000 0.733500
O O6 0.203319 0.529442 0.631106
O O7 0.081285 0.487078 0.753075
O O8 0.231940 0.867486 0.807203
O O9 0.167733 0.882156 0.994226
O O10 0.277710 0.039977 0.948303
O O11 0.576681 0.441377 0.720225
O O12 0.679397 0.371048 0.885136
O O13 0.553926 0.385881 0.335524
O O14 0.344731 0.805172 0.585223
#
# Coordination Sequence:
#
# PCOD9458547 Si02
#       8
#     8   8   8   8   4   8   4   8
#     4  11  26  48  79 118 157 211 275 345 413 492
#     4  11  26  43  76 113 155 203 268 340 412 485
#     4  11  28  48  79 116 157 219 267 349 424 495
#     4  12  28  49  77 114 165 214 275 338 424 508
#     4  12  30  50  76 114 156 226 260 346 422 512
#     4  11  24  51  74 114 159 206 269 347 403 499
#     4  12  22  44  74 114 154 210 274 344 408 502
#     4  12  27  50  80 114 166 213 279 341 417 513
#
# _framework density 25.746517000000001
#
# number of rings (size 3 to 8) (size 9 to 14) (size 15 to 20)
#    0.000    0.571    2.857    3.857    8.000    4.000 
#    0.000    0.000    0.000    0.000    0.000    0.000 
#    0.000    0.000    0.000    0.000    0.000    0.000 
#
# Total GULP energy -312188.454262 kJ/mol
# GULP energy per Si atom -5574.793826 kJ/mol
# Density = 2.568792 g / cm^3
# Si number density = 25.746517 Si / 1000 Ang^3
#
#
#
# Elastic Constant Matrix: (Units=GPa)
#
#
# Indices 1 2 3 4 5 6 
#
# 1 141.0597 34.7348 22.4284 0.0000 0.0000 0.0000
# 2 34.7348 132.6268 45.6955 0.0000 0.0000 0.0000
# 3 22.4284 45.6955 79.5054 0.0000 0.0000 0.0000
# 4 0.0000 0.0000 0.0000 19.8546 0.0000 0.0000
# 5 0.0000 0.0000 0.0000 0.0000 53.2342 0.0000
# 6 0.0000 0.0000 0.0000 0.0000 0.0000 37.9776
#
#
#
# Elastic Compliance Matrix: (Units=1/GPa)
#
#
# Indices 1 2 3 4 5 6 
#
# 1 0.007678 -0.001577 -0.001260 0.000000 0.000000 0.000000
# 2 -0.001577 0.009726 -0.005145 0.000000 0.000000 0.000000
# 3 -0.001260 -0.005145 0.015890 0.000000 0.000000 0.000000
# 4 0.000000 0.000000 0.000000 0.050366 0.000000 0.000000
# 5 0.000000 0.000000 0.000000 0.000000 0.018785 0.000000
# 6 0.000000 0.000000 0.000000 0.000000 0.000000 0.026331
#
#
# Mechanical properties :
#
#
# Convention : Reuss Voigt Hill
#
# Bulk Modulus (GPa) = 57.70093 62.10104 59.90098
# Shear Modulus (GPa) = 33.21916 38.90215 36.06066
#
# Velocity S-wave (km/s) = 3.59589 3.89133 3.74652
# Velocity P-wave (km/s) = 6.30082 6.66052 6.48316
#
# Compressibility (1/GPa) = 0.01733074
#
# Stress axis : x y z
#
# Youngs Moduli (GPa) = 130.24649 102.82186 62.93207
#
# Poissons Ratio (x) = 0.16213 0.07927
# Poissons Ratio (y) = 0.20537 0.32378
# Poissons Ratio (z) = 0.16406 0.52901
#
# Static dielectric constant tensor:
#      x y z
#    x 2.133150 0.000000 0.000000 
#    y 0.000000 2.089370 0.000000 
#    z 0.000000 0.000000 2.229120 
# 
# From -- ./inp_files/16904.got.cif
#   From: 2010.05.17/outbox.cif.g08.bks.cpg/sg60_9_cif.got.tgz:16904.got - 2010.06.03 14:59:27.
