data_PCOD9458955
_publ_section_title
;
Structure prediction by ZEFSAII (Michael W. Deem and Ramdas Pophale) SiO2 
 PCOD9458955
Probable space group: P B C N
;
_chemical_formula_sum "Si O2"
_cell_formula_units_Z 64
_cell_length_a 9.000000
_cell_length_b 15.000000
_cell_length_c 24.000000
_cell_angle_alpha 90.000000
_cell_angle_beta 90.000000
_cell_angle_gamma 90.000000
_cell_volume 3240.000000
_symmetry_space_group_name_H-M "P B C N"
_symmetry_group_IT_number 60
_symmetry_cell_setting 'orthorhombic'
loop_
_space_group_symop_operation_xyz
x,y,z
1/2-x,1/2-y,1/2+z
1/2+x,1/2-y,-z
-x,y,1/2-z
-x,-y,-z
1/2+x,1/2+y,1/2-z
1/2-x,1/2+y,z
x,-y,1/2+z
loop_
_atom_site_type_symbol
_atom_site_label
_atom_site_fract_x
_atom_site_fract_y
_atom_site_fract_z
Si Si1 0.413057 0.244508 0.912262
Si Si2 0.171510 0.986926 0.522045
Si Si3 0.717625 0.991302 0.851222
Si Si4 0.316171 0.905456 0.922539
Si Si5 0.268414 0.279375 0.643621
Si Si6 0.875153 0.565919 0.657356
Si Si7 0.674539 0.372328 0.266006
Si Si8 0.120234 0.680127 0.035641
O O1 0.285898 0.320124 0.908227
O O2 0.560990 0.273921 0.878253
O O3 0.369149 0.150335 0.884334
O O4 0.433981 0.227302 0.978833
O O5 0.260748 0.048691 0.479320
O O6 0.215015 0.010225 0.586537
O O7 0.243116 0.886680 0.518997
O O8 0.000000 0.000000 0.500000
O O9 0.726270 0.883360 0.843276
O O10 0.551125 0.033752 0.839942
O O11 0.818890 0.042348 0.806690
O O12 0.484808 0.875857 0.936867
O O13 0.305392 0.979257 0.873441
O O14 0.233890 0.211639 0.695163
O O15 0.176137 0.257694 0.586598
O O16 0.785241 0.600068 0.713342
O O17 0.500000 0.355719 0.250000
#
# Coordination Sequence:
#
# PCOD9458955 Si02
#       8
#     8   8   8   8   8   8   8   8
#     4  12  26  42  78 116 154 201 254 321 391 475
#     4  11  23  41  74 112 154 196 248 316 389 468
#     4  11  25  51  76 106 151 200 248 320 396 461
#     4  12  24  43  76 110 154 201 256 309 395 474
#     4  11  26  50  74 111 154 196 257 318 395 460
#     4  12  26  51  75 108 154 208 261 318 393 459
#     4  12  31  48  77 106 145 203 266 327 374 468
#     4  11  23  45  71 115 155 203 245 320 396 470
#
# _framework density 19.753086
#
# number of rings (size 3 to 8) (size 9 to 14) (size 15 to 20)
#    0.000    0.500    5.000    3.750    7.000    2.000 
#    0.000    0.000    0.000    0.000    0.000    0.000 
#    0.000    0.000    0.000    0.000    0.000    0.000 
#
# Total GULP energy -357314.471798 kJ/mol
# GULP energy per Si atom -5583.038622 kJ/mol
# Density = 1.970813 g / cm^3
# Si number density = 19.753086 Si / 1000 Ang^3
#
#
#
# Elastic Constant Matrix: (Units=GPa)
#
#
# Indices 1 2 3 4 5 6 
#
# 1 141.0704 45.7659 59.3907 0.0000 0.0000 0.0000
# 2 45.7659 140.3611 59.3293 0.0000 0.0000 0.0000
# 3 59.3907 59.3293 147.7851 0.0000 0.0000 0.0000
# 4 0.0000 0.0000 0.0000 53.1246 0.0000 0.0000
# 5 0.0000 0.0000 0.0000 0.0000 45.2468 0.0000
# 6 0.0000 0.0000 0.0000 0.0000 0.0000 41.7750
#
#
#
# Elastic Compliance Matrix: (Units=1/GPa)
#
#
# Indices 1 2 3 4 5 6 
#
# 1 0.008843 -0.001664 -0.002886 0.000000 0.000000 0.000000
# 2 -0.001664 0.008893 -0.002902 0.000000 0.000000 0.000000
# 3 -0.002886 -0.002902 0.009091 0.000000 0.000000 0.000000
# 4 0.000000 0.000000 0.000000 0.018824 0.000000 0.000000
# 5 0.000000 0.000000 0.000000 0.000000 0.022101 0.000000
# 6 0.000000 0.000000 0.000000 0.000000 0.000000 0.023938
#
#
# Mechanical properties :
#
#
# Convention : Reuss Voigt Hill
#
# Bulk Modulus (GPa) = 83.85487 84.24316 84.04902
# Shear Modulus (GPa) = 45.22077 45.67797 45.44937
#
# Velocity S-wave (km/s) = 4.78986 4.81401 4.80195
# Velocity P-wave (km/s) = 8.55184 8.58139 8.56663
#
# Compressibility (1/GPa) = 0.01192537
#
# Stress axis : x y z
#
# Youngs Moduli (GPa) = 113.07896 112.44214 109.99458
#
# Poissons Ratio (x) = 0.18705 0.31745
# Poissons Ratio (y) = 0.18811 0.31918
# Poissons Ratio (z) = 0.32635 0.32629
#
# Static dielectric constant tensor:
#      x y z
#    x 1.741550 0.000000 0.000000 
#    y 0.000000 1.707810 0.000000 
#    z 0.000000 0.000000 1.702220 
# 
# From -- ./inp_files/24102.got.cif
#   From: 2010.05.17/outbox.ucp.g08.bks.cvg/sg60_13_cif.got.tgz:24102.got - 2010.06.11 16:26:41.
