data_PCOD9458320
_publ_section_title
;
Structure prediction by ZEFSAII (Michael W. Deem and Ramdas Pophale) SiO2 
 PCOD9458320
Probable space group: P B C N
;
_chemical_formula_sum "Si O2"
_cell_formula_units_Z 48
_cell_length_a 13.220232
_cell_length_b 17.657992
_cell_length_c 8.229475
_cell_angle_alpha 90.000000
_cell_angle_beta 90.000000
_cell_angle_gamma 90.000000
_cell_volume 1921.111282
_symmetry_space_group_name_H-M "P B C N"
_symmetry_group_IT_number 60
_symmetry_cell_setting 'orthorhombic'
loop_
_space_group_symop_operation_xyz
x,y,z
1/2-x,1/2-y,1/2+z
1/2+x,1/2-y,-z
-x,y,1/2-z
-x,-y,-z
1/2+x,1/2+y,1/2-z
1/2-x,1/2+y,z
x,-y,1/2+z
loop_
_atom_site_type_symbol
_atom_site_label
_atom_site_fract_x
_atom_site_fract_y
_atom_site_fract_z
Si Si1 0.546130 0.297819 0.571038
Si Si2 0.339805 0.298647 0.408586
Si Si3 0.663569 0.179233 0.349155
Si Si4 0.614291 0.024847 0.476769
Si Si5 0.578796 0.455962 0.617405
Si Si6 0.250877 0.066386 0.736287
O O1 0.500000 0.276387 0.750000
O O2 0.452189 0.320507 0.456619
O O3 0.597180 0.227468 0.478769
O O4 0.617184 0.373020 0.563841
O O5 0.274253 0.313621 0.569850
O O6 0.340014 0.216312 0.328014
O O7 0.294210 0.351422 0.267646
O O8 0.626986 0.092868 0.347331
O O9 0.654770 0.060707 0.641942
O O10 0.500000 0.000000 0.500000
O O11 0.697715 0.961990 0.427853
O O12 0.500000 0.428724 0.750000
O O13 0.500000 0.500000 0.500000
O O14 0.662290 0.509587 0.699890
#
# Coordination Sequence:
#
# PCOD9458320 Si02
#       6
#     8   8   8   8   8   8
#     4  11  25  43  69 103 146 184 233 301 366 439
#     4  11  25  45  68 105 139 193 237 299 369 438
#     4  11  27  45  71 101 146 189 250 297 369 437
#     4  11  27  48  71 104 138 194 251 305 358 434
#     4  11  23  39  69 103 143 179 228 293 368 443
#     4  11  25  43  72 103 142 185 239 298 373 437
#
# _framework density 24.985537999999998
#
# number of rings (size 3 to 8) (size 9 to 14) (size 15 to 20)
#    0.000    1.000    1.667    3.000   14.000    6.667 
#    0.000    0.000    0.000    0.000    0.000    0.000 
#    0.000    0.000    0.000    0.000    0.000    0.000 
#
# Total GULP energy -268419.444644 kJ/mol
# GULP energy per Si atom -5592.071763 kJ/mol
# Density = 2.492867 g / cm^3
# Si number density = 24.985538 Si / 1000 Ang^3
#
#
#
# Elastic Constant Matrix: (Units=GPa)
#
#
# Indices 1 2 3 4 5 6 
#
# 1 120.1311 33.4268 -4.5731 0.0000 0.0000 0.0000
# 2 33.4268 87.5271 -7.9263 0.0000 0.0000 0.0000
# 3 -4.5731 -7.9263 46.1320 0.0000 0.0000 0.0000
# 4 0.0000 0.0000 0.0000 35.1631 0.0000 0.0000
# 5 0.0000 0.0000 0.0000 0.0000 43.9210 0.0000
# 6 0.0000 0.0000 0.0000 0.0000 0.0000 23.5336
#
#
#
# Elastic Compliance Matrix: (Units=1/GPa)
#
#
# Indices 1 2 3 4 5 6 
#
# 1 0.009319 -0.003530 0.000317 0.000000 0.000000 0.000000
# 2 -0.003530 0.012943 0.001874 0.000000 0.000000 0.000000
# 3 0.000317 0.001874 0.022030 0.000000 0.000000 0.000000
# 4 0.000000 0.000000 0.000000 0.028439 0.000000 0.000000
# 5 0.000000 0.000000 0.000000 0.000000 0.022768 0.000000
# 6 0.000000 0.000000 0.000000 0.000000 0.000000 0.042492
#
#
# Mechanical properties :
#
#
# Convention : Reuss Voigt Hill
#
# Bulk Modulus (GPa) = 24.03044 32.84945 28.43994
# Shear Modulus (GPa) = 32.35398 36.04772 34.20085
#
# Velocity S-wave (km/s) = 3.60239 3.80247 3.70378
# Velocity P-wave (km/s) = 5.19052 5.69686 5.44958
#
# Compressibility (1/GPa) = 0.04161388
#
# Stress axis : x y z
#
# Youngs Moduli (GPa) = 107.31275 77.26268 45.39193
#
# Poissons Ratio (x) = 0.27274 -0.01440
# Poissons Ratio (y) = 0.37882 -0.08506
# Poissons Ratio (z) = -0.03404 -0.14478
#
# Static dielectric constant tensor:
#      x y z
#    x 1.922220 0.000000 0.000000 
#    y 0.000000 2.083760 0.000000 
#    z 0.000000 0.000000 2.187600 
# 
# From -- ./inp_files/5908.got.cif
#   From: 2010.05.17/outbox.cif.g08.bks.cpg/sg60_3_cif.got.tgz:5908.got - 2010.06.03 14:59:27.
