data_PCOD9458590
_publ_section_title
;
Structure prediction by ZEFSAII (Michael W. Deem and Ramdas Pophale) SiO2 
 PCOD9458590
Probable space group: P B C N
;
_chemical_formula_sum "Si O2"
_cell_formula_units_Z 40
_cell_length_a 10.085683
_cell_length_b 10.584673
_cell_length_c 14.274138
_cell_angle_alpha 90.000000
_cell_angle_beta 90.000000
_cell_angle_gamma 90.000000
_cell_volume 1523.816425
_symmetry_space_group_name_H-M "P B C N"
_symmetry_group_IT_number 60
_symmetry_cell_setting 'orthorhombic'
loop_
_space_group_symop_operation_xyz
x,y,z
1/2-x,1/2-y,1/2+z
1/2+x,1/2-y,-z
-x,y,1/2-z
-x,-y,-z
1/2+x,1/2+y,1/2-z
1/2-x,1/2+y,z
x,-y,1/2+z
loop_
_atom_site_type_symbol
_atom_site_label
_atom_site_fract_x
_atom_site_fract_y
_atom_site_fract_z
Si Si1 0.500000 0.602620 0.750000
Si Si2 0.782918 0.126270 0.476489
Si Si3 0.500000 0.171096 0.750000
Si Si4 0.454317 0.729983 0.552368
Si Si5 0.290983 0.608286 0.239828
Si Si6 0.099313 0.471366 0.890459
O O1 0.456520 0.679011 0.658330
O O2 0.619167 0.507654 0.725189
O O3 0.694317 0.254628 0.486152
O O4 0.937850 0.150270 0.495095
O O5 0.764752 0.085319 0.369351
O O6 0.717288 0.029981 0.548381
O O7 0.626951 0.262249 0.754217
O O8 0.517608 0.082884 0.659797
O O9 0.510189 0.872832 0.553892
O O10 0.163515 0.607714 0.304627
#
# Coordination Sequence:
#
# PCOD9458590 Si02
#       6
#     4   8   4   8   8   8
#     4  11  25  50  74 110 159 201 258 316 396 469
#     4  12  27  46  78 112 157 200 264 319 388 467
#     4  11  25  48  72 108 153 201 258 320 386 471
#     4  12  27  48  77 116 153 205 259 324 386 464
#     4  11  26  46  77 111 153 208 252 322 392 460
#     4  12  25  49  74 111 152 205 256 324 389 463
#
# _framework density 26.249881999999999
#
# number of rings (size 3 to 8) (size 9 to 14) (size 15 to 20)
#    0.000    0.400    2.000    6.000    5.600    2.400 
#    0.000    0.000    0.000    0.000    0.000    0.000 
#    0.000    0.000    0.000    0.000    0.000    0.000 
#
# Total GULP energy -224659.411715 kJ/mol
# GULP energy per Si atom -5616.485293 kJ/mol
# Density = 2.619014 g / cm^3
# Si number density = 26.249882 Si / 1000 Ang^3
#
#
#
# Elastic Constant Matrix: (Units=GPa)
#
#
# Indices 1 2 3 4 5 6 
#
# 1 91.3913 22.0129 17.0702 0.0000 0.0000 0.0000
# 2 22.0129 114.0850 21.3418 0.0000 0.0000 0.0000
# 3 17.0702 21.3418 117.2653 0.0000 0.0000 0.0000
# 4 0.0000 0.0000 0.0000 19.4922 0.0000 0.0000
# 5 0.0000 0.0000 0.0000 0.0000 51.5644 0.0000
# 6 0.0000 0.0000 0.0000 0.0000 0.0000 26.0313
#
#
#
# Elastic Compliance Matrix: (Units=1/GPa)
#
#
# Indices 1 2 3 4 5 6 
#
# 1 0.011674 -0.002003 -0.001335 0.000000 0.000000 0.000000
# 2 -0.002003 0.009418 -0.001422 0.000000 0.000000 0.000000
# 3 -0.001335 -0.001422 0.008981 0.000000 0.000000 0.000000
# 4 0.000000 0.000000 0.000000 0.051303 0.000000 0.000000
# 5 0.000000 0.000000 0.000000 0.000000 0.019393 0.000000
# 6 0.000000 0.000000 0.000000 0.000000 0.000000 0.038415
#
#
# Mechanical properties :
#
#
# Convention : Reuss Voigt Hill
#
# Bulk Modulus (GPa) = 48.65627 49.28793 48.97210
# Shear Modulus (GPa) = 32.14308 36.90535 34.52422
#
# Velocity S-wave (km/s) = 3.50309 3.75363 3.63052
# Velocity P-wave (km/s) = 5.91086 6.13217 6.02253
#
# Compressibility (1/GPa) = 0.02055234
#
# Stress axis : x y z
#
# Youngs Moduli (GPa) = 85.66285 106.18041 111.34780
#
# Poissons Ratio (x) = 0.21265 0.14863
# Poissons Ratio (y) = 0.17156 0.15839
# Poissons Ratio (z) = 0.11435 0.15104
#
# Static dielectric constant tensor:
#      x y z
#    x 2.254080 0.000000 0.000000 
#    y 0.000000 2.056800 0.000000 
#    z 0.000000 0.000000 2.719400 
# 
# From -- ./inp_files/15880.got.cif
#   From: 2010.05.17/outbox.cif.g08.bks.cpg/sg60_8_cif.got.tgz:15880.got - 2010.06.03 14:59:27.
