data_PCOD9458624
_publ_section_title
;
Structure prediction by ZEFSAII (Michael W. Deem and Ramdas Pophale) SiO2 
 PCOD9458624
Probable space group: P B C N
;
_chemical_formula_sum "Si O2"
_cell_formula_units_Z 64
_cell_length_a 11.457170
_cell_length_b 9.167500
_cell_length_c 28.285243
_cell_angle_alpha 90.000000
_cell_angle_beta 90.000000
_cell_angle_gamma 90.000000
_cell_volume 2970.901068
_symmetry_space_group_name_H-M "P B C N"
_symmetry_group_IT_number 60
_symmetry_cell_setting 'orthorhombic'
loop_
_space_group_symop_operation_xyz
x,y,z
1/2-x,1/2-y,1/2+z
1/2+x,1/2-y,-z
-x,y,1/2-z
-x,-y,-z
1/2+x,1/2+y,1/2-z
1/2-x,1/2+y,z
x,-y,1/2+z
loop_
_atom_site_type_symbol
_atom_site_label
_atom_site_fract_x
_atom_site_fract_y
_atom_site_fract_z
Si Si1 0.536456 0.356550 0.475087
Si Si2 0.785099 0.149733 0.348656
Si Si3 0.965162 0.330053 0.804690
Si Si4 0.902087 0.863281 0.120087
Si Si5 0.512650 0.111611 0.956295
Si Si6 0.344490 0.285929 0.882270
Si Si7 0.502199 0.168318 0.693681
Si Si8 0.744827 0.604042 0.915888
O O1 0.500000 0.500000 0.500000
O O2 0.487892 0.334567 0.423130
O O3 0.472683 0.248916 0.510316
O O4 0.673748 0.378732 0.464433
O O5 0.674495 0.165653 0.314075
O O6 0.895595 0.234336 0.326937
O O7 0.753816 0.234408 0.396202
O O8 0.805192 0.990170 0.371497
O O9 0.999435 0.496383 0.819118
O O10 0.000000 0.312292 0.750000
O O11 0.031571 0.203871 0.834208
O O12 0.788407 0.762900 0.112027
O O13 0.869907 0.038158 0.116529
O O14 0.418128 0.181659 0.919051
O O15 0.623011 0.056971 0.926707
O O16 0.500000 0.000000 0.000000
O O17 0.384279 0.236129 0.830215
O O18 0.500000 0.178341 0.750000
#
# Coordination Sequence:
#
# PCOD9458624 Si02
#       8
#     8   8   8   8   8   8   8   8
#     4  12  26  44  69 104 144 190 247 300 361 435
#     4  12  22  46  75 102 143 190 241 305 362 431
#     4  11  26  48  75 110 146 189 244 303 372 445
#     4  12  28  48  73 103 149 192 237 303 366 439
#     4  12  28  43  72 107 145 196 243 303 368 432
#     4  12  27  49  70 106 150 194 240 300 370 436
#     4  11  26  48  75 108 145 188 243 303 369 441
#     4  12  25  45  71 102 142 194 248 300 360 438
#
# _framework density 21.542283999999999
#
# number of rings (size 3 to 8) (size 9 to 14) (size 15 to 20)
#    0.000    0.250    5.000    3.000    8.750    0.500 
#    0.000    0.000    0.000    0.000    0.000    0.000 
#    0.000    0.000    0.000    0.000    0.000    0.000 
#
# Total GULP energy -356467.009335 kJ/mol
# GULP energy per Si atom -5569.797021 kJ/mol
# Density = 2.149325 g / cm^3
# Si number density = 21.542284 Si / 1000 Ang^3
#
#
#
# Elastic Constant Matrix: (Units=GPa)
#
#
# Indices 1 2 3 4 5 6 
#
# 1 71.0310 9.6715 9.6268 0.0000 0.0000 0.0000
# 2 9.6715 91.0654 12.9461 0.0000 0.0000 0.0000
# 3 9.6268 12.9461 90.9002 0.0000 0.0000 0.0000
# 4 0.0000 0.0000 0.0000 35.3379 0.0000 0.0000
# 5 0.0000 0.0000 0.0000 0.0000 139.4720 0.0000
# 6 0.0000 0.0000 0.0000 0.0000 0.0000 34.3900
#
#
#
# Elastic Compliance Matrix: (Units=1/GPa)
#
#
# Indices 1 2 3 4 5 6 
#
# 1 0.014443 -0.001344 -0.001338 0.000000 0.000000 0.000000
# 2 -0.001344 0.011333 -0.001472 0.000000 0.000000 0.000000
# 3 -0.001338 -0.001472 0.011352 0.000000 0.000000 0.000000
# 4 0.000000 0.000000 0.000000 0.028298 0.000000 0.000000
# 5 0.000000 0.000000 0.000000 0.000000 0.007170 0.000000
# 6 0.000000 0.000000 0.000000 0.000000 0.000000 0.029078
#
#
# Mechanical properties :
#
#
# Convention : Reuss Voigt Hill
#
# Bulk Modulus (GPa) = 34.69699 35.27617 34.98658
# Shear Modulus (GPa) = 41.81001 56.55680 49.18340
#
# Velocity S-wave (km/s) = 4.41027 5.12941 4.78337
# Velocity P-wave (km/s) = 6.48655 7.17579 6.83986
#
# Compressibility (1/GPa) = 0.02882095
#
# Stress axis : x y z
#
# Youngs Moduli (GPa) = 69.23927 88.23747 88.08706
#
# Poissons Ratio (x) = 0.11856 0.11788
# Poissons Ratio (y) = 0.09303 0.12964
# Poissons Ratio (z) = 0.09266 0.12987
#
# Static dielectric constant tensor:
#      x y z
#    x 2.127340 0.000000 0.000000 
#    y 0.000000 1.169050 0.000000 
#    z 0.000000 0.000000 1.768550 
# 
# From -- ./inp_files/26103.got.cif
#   From: 2010.05.17/outbox.cif.g08.bks.cpg/sg60_14_cif.got.tgz:26103.got - 2010.06.03 14:59:27.
