data_PCOD9458121
_publ_section_title
;
Structure prediction by ZEFSAII (Michael W. Deem and Ramdas Pophale) SiO2 
 PCOD9458121
Probable space group: P B C N
;
_chemical_formula_sum "Si O2"
_cell_formula_units_Z 40
_cell_length_a 11.773043
_cell_length_b 18.187930
_cell_length_c 8.317557
_cell_angle_alpha 90.000000
_cell_angle_beta 90.000000
_cell_angle_gamma 90.000000
_cell_volume 1781.015873
_symmetry_space_group_name_H-M "P B C N"
_symmetry_group_IT_number 60
_symmetry_cell_setting 'orthorhombic'
loop_
_space_group_symop_operation_xyz
x,y,z
1/2-x,1/2-y,1/2+z
1/2+x,1/2-y,-z
-x,y,1/2-z
-x,-y,-z
1/2+x,1/2+y,1/2-z
1/2-x,1/2+y,z
x,-y,1/2+z
loop_
_atom_site_type_symbol
_atom_site_label
_atom_site_fract_x
_atom_site_fract_y
_atom_site_fract_z
Si Si1 0.208371 0.195332 0.516364
Si Si2 0.817424 0.523526 0.446280
Si Si3 0.876889 0.607427 0.773387
Si Si4 0.868509 0.673547 0.286331
Si Si5 0.576004 0.442407 0.407363
O O1 0.284874 0.164640 0.663967
O O2 0.163979 0.275075 0.563262
O O3 0.288579 0.194612 0.362414
O O4 0.108899 0.134092 0.505997
O O5 0.831408 0.561230 0.620190
O O6 0.896642 0.453173 0.414706
O O7 0.845740 0.588939 0.325460
O O8 0.695170 0.487725 0.401087
O O9 0.000000 0.642589 0.750000
O O10 0.000000 0.685408 0.250000
O O11 0.500000 0.424770 0.250000
O O12 0.500000 0.500000 0.500000
#
# Coordination Sequence:
#
# PCOD9458121 Si02
#       5
#     8   8   8   8   8
#     4  11  25  42  63  94 127 169 220 266 330 404
#     4  11  22  38  63  94 124 165 217 265 323 396
#     4  11  21  39  63  92 126 164 211 268 322 384
#     4  12  25  44  65  92 130 170 212 273 333 392
#     4  11  22  41  65  92 127 168 215 270 323 382
#
# _framework density 22.459091999999998
#
# number of rings (size 3 to 8) (size 9 to 14) (size 15 to 20)
#    0.000    0.800    0.000   10.200    0.000    1.600 
#    0.000    3.000    0.000    0.000    0.000    0.000 
#    0.000    0.000    0.000    0.000    0.000    0.000 
#
# Total GULP energy -223627.430771 kJ/mol
# GULP energy per Si atom -5590.685769 kJ/mol
# Density = 2.240797 g / cm^3
# Si number density = 22.459092 Si / 1000 Ang^3
#
#
#
# Elastic Constant Matrix: (Units=GPa)
#
#
# Indices 1 2 3 4 5 6 
#
# 1 72.2465 10.6154 3.7525 0.0000 0.0000 0.0000
# 2 10.6154 89.8267 -9.5908 0.0000 0.0000 0.0000
# 3 3.7525 -9.5908 68.3900 0.0000 0.0000 0.0000
# 4 0.0000 0.0000 0.0000 36.2403 0.0000 0.0000
# 5 0.0000 0.0000 0.0000 0.0000 36.8447 0.0000
# 6 0.0000 0.0000 0.0000 0.0000 0.0000 -5.5476
#
#
#
# Elastic Compliance Matrix: (Units=1/GPa)
#
#
# Indices 1 2 3 4 5 6 
#
# 1 0.014157 -0.001783 -0.001027 0.000000 0.000000 0.000000
# 2 -0.001783 0.011526 0.001714 0.000000 0.000000 0.000000
# 3 -0.001027 0.001714 0.014919 0.000000 0.000000 0.000000
# 4 0.000000 0.000000 0.000000 0.027594 0.000000 0.000000
# 5 0.000000 0.000000 0.000000 0.000000 0.027141 0.000000
# 6 0.000000 0.000000 0.000000 0.000000 0.000000 -0.180259
#
#
# Mechanical properties :
#
#
# Convention : Reuss Voigt Hill
#
# Bulk Modulus (GPa) = 26.03395 26.66862 26.35128
# Shear Modulus (GPa) = -71.50159 28.55321 -21.47419
#
# Velocity S-wave (km/s) = -5.64849 3.56946 -3.09552
# Velocity P-wave (km/s) = 5.56091 5.37477 1.00887
#
# Compressibility (1/GPa) = 0.03841139
#
# Stress axis : x y z
#
# Youngs Moduli (GPa) = 70.63762 86.75858 67.02976
#
# Poissons Ratio (x) = 0.15466 0.06882
# Poissons Ratio (y) = 0.12592 -0.11490
# Poissons Ratio (z) = 0.07253 -0.14872
#
# Static dielectric constant tensor:
#      x y z
#    x 1.886400 0.000000 0.000000 
#    y 0.000000 1.786030 0.000000 
#    z 0.000000 0.000000 1.918900 
# 
# From -- ./inp_files/4774.got.cif
#   From: 2010.05.17/outbox.cif.g08.bks.cpg/sg60_3_cif.got.tgz:4774.got - 2010.06.03 14:59:27.
