data_PCOD9458133
_publ_section_title
;
Structure prediction by ZEFSAII (Michael W. Deem and Ramdas Pophale) SiO2 
 PCOD9458133
Probable space group: P B C N
;
_chemical_formula_sum "Si O2"
_cell_formula_units_Z 36
_cell_length_a 4.908766
_cell_length_b 20.985905
_cell_length_c 14.186686
_cell_angle_alpha 90.000000
_cell_angle_beta 90.000000
_cell_angle_gamma 90.000000
_cell_volume 1461.439996
_symmetry_space_group_name_H-M "P B C N"
_symmetry_group_IT_number 60
_symmetry_cell_setting 'orthorhombic'
loop_
_space_group_symop_operation_xyz
x,y,z
1/2-x,1/2-y,1/2+z
1/2+x,1/2-y,-z
-x,y,1/2-z
-x,-y,-z
1/2+x,1/2+y,1/2-z
1/2-x,1/2+y,z
x,-y,1/2+z
loop_
_atom_site_type_symbol
_atom_site_label
_atom_site_fract_x
_atom_site_fract_y
_atom_site_fract_z
Si Si1 0.873986 0.620175 0.844409
Si Si2 0.304403 0.061097 0.002810
Si Si3 0.402799 0.292627 0.995728
Si Si4 0.285602 0.591494 0.389638
Si Si5 0.500000 0.511956 0.750000
O O1 0.710384 0.666106 0.915346
O O2 0.692723 0.559125 0.810872
O O3 0.000000 0.650374 0.750000
O O4 0.129927 0.594299 0.904541
O O5 0.992813 0.061259 0.031665
O O6 0.468551 0.097693 0.085171
O O7 0.500000 0.000000 0.000000
O O8 0.703431 0.267354 0.013385
O O9 0.385886 0.335761 0.900984
O O10 0.321651 0.539217 0.308942
#
# Coordination Sequence:
#
# PCOD9458133 Si02
#       5
#     8   8   8   8   4
#     4  11  26  42  76 107 146 183 246 310 364 437
#     4  11  21  40  66 101 143 185 223 281 376 440
#     4  11  26  51  74  98 142 206 248 281 353 435
#     4  11  25  43  72 103 143 187 233 301 355 438
#     4  12  26  42  72 120 146 176 240 312 392 412
#
# _framework density 24.633237999999999
#
# number of rings (size 3 to 8) (size 9 to 14) (size 15 to 20)
#    0.000    0.889    2.222    4.667   12.444    0.000 
#    2.000    0.000    4.889    0.000    0.000    0.000 
#    0.000    0.000    0.000    0.000    0.000    0.000 
#
# Total GULP energy -200943.254529 kJ/mol
# GULP energy per Si atom -5581.757070 kJ/mol
# Density = 2.457717 g / cm^3
# Si number density = 24.633238 Si / 1000 Ang^3
#
#
#
# Elastic Constant Matrix: (Units=GPa)
#
#
# Indices 1 2 3 4 5 6 
#
# 1 125.8434 16.5738 27.6886 0.0000 0.0000 0.0000
# 2 16.5738 109.5124 21.3038 0.0000 0.0000 0.0000
# 3 27.6886 21.3038 109.6402 0.0000 0.0000 0.0000
# 4 0.0000 0.0000 0.0000 48.3961 0.0000 0.0000
# 5 0.0000 0.0000 0.0000 0.0000 28.7274 0.0000
# 6 0.0000 0.0000 0.0000 0.0000 0.0000 44.3738
#
#
#
# Elastic Compliance Matrix: (Units=1/GPa)
#
#
# Indices 1 2 3 4 5 6 
#
# 1 0.008499 -0.000903 -0.001971 0.000000 0.000000 0.000000
# 2 -0.000903 0.009586 -0.001635 0.000000 0.000000 0.000000
# 3 -0.001971 -0.001635 0.009936 0.000000 0.000000 0.000000
# 4 0.000000 0.000000 0.000000 0.020663 0.000000 0.000000
# 5 0.000000 0.000000 0.000000 0.000000 0.034810 0.000000
# 6 0.000000 0.000000 0.000000 0.000000 0.000000 0.022536
#
#
# Mechanical properties :
#
#
# Convention : Reuss Voigt Hill
#
# Bulk Modulus (GPa) = 52.61962 52.90317 52.76140
# Shear Modulus (GPa) = 41.19258 42.92812 42.06035
#
# Velocity S-wave (km/s) = 4.09373 4.17908 4.13663
# Velocity P-wave (km/s) = 6.61457 6.69397 6.65439
#
# Compressibility (1/GPa) = 0.01900432
#
# Stress axis : x y z
#
# Youngs Moduli (GPa) = 117.66179 104.31865 100.64318
#
# Poissons Ratio (x) = 0.09418 0.19836
# Poissons Ratio (y) = 0.10623 0.16451
# Poissons Ratio (z) = 0.23190 0.17052
#
# Static dielectric constant tensor:
#      x y z
#    x 1.912720 0.000000 0.000000 
#    y 0.000000 2.109420 0.000000 
#    z 0.000000 0.000000 2.069360 
# 
# From -- ./inp_files/13738.got.cif
#   From: 2010.05.17/outbox.cif.g08.bks.cpg/sg60_7_cif.got.tgz:13738.got - 2010.06.03 14:59:27.
