data_PCOD9458483
_publ_section_title
;
Structure prediction by ZEFSAII (Michael W. Deem and Ramdas Pophale) SiO2 
 PCOD9458483
Probable space group: P B C N
;
_chemical_formula_sum "Si O2"
_cell_formula_units_Z 60
_cell_length_a 19.062218
_cell_length_b 8.177071
_cell_length_c 15.843038
_cell_angle_alpha 90.000000
_cell_angle_beta 90.000000
_cell_angle_gamma 90.000000
_cell_volume 2469.503605
_symmetry_space_group_name_H-M "P B C N"
_symmetry_group_IT_number 60
_symmetry_cell_setting 'orthorhombic'
loop_
_space_group_symop_operation_xyz
x,y,z
1/2-x,1/2-y,1/2+z
1/2+x,1/2-y,-z
-x,y,1/2-z
-x,-y,-z
1/2+x,1/2+y,1/2-z
1/2-x,1/2+y,z
x,-y,1/2+z
loop_
_atom_site_type_symbol
_atom_site_label
_atom_site_fract_x
_atom_site_fract_y
_atom_site_fract_z
Si Si1 0.814671 0.690323 0.551104
Si Si2 0.386423 0.263619 0.653303
Si Si3 0.551541 0.724191 0.625773
Si Si4 0.834731 0.934185 0.004427
Si Si5 0.230871 0.401002 0.261278
Si Si6 0.352452 0.211625 0.229348
Si Si7 0.500000 0.449173 0.750000
Si Si8 0.076232 0.571214 0.068804
O O1 0.743997 0.636055 0.502854
O O2 0.795038 0.659818 0.647918
O O3 0.880901 0.586155 0.517983
O O4 0.830831 0.878860 0.532827
O O5 0.369207 0.402957 0.585816
O O6 0.315154 0.187027 0.689684
O O7 0.434947 0.334888 0.726466
O O8 0.424495 0.111887 0.605494
O O9 0.616631 0.664688 0.569883
O O10 0.583390 0.815776 0.707335
O O11 0.514979 0.566242 0.669471
O O12 0.497873 0.836325 0.573694
O O13 0.313572 0.381783 0.245378
O O14 0.208548 0.588180 0.255495
O O15 0.376994 0.174865 0.135946
#
# Coordination Sequence:
#
# PCOD9458483 Si02
#       8
#     8   8   8   8   8   8   4   8
#     4  12  25  47  75 106 146 187 241 301 358 433
#     4  11  28  46  72 107 143 191 243 296 363 437
#     4  12  26  46  74 102 144 192 238 299 366 430
#     4  12  27  46  72 109 144 189 244 297 370 426
#     4  11  25  43  74 105 138 189 239 301 354 432
#     4  11  24  44  71 104 139 183 240 288 365 420
#     4  12  26  46  74 102 148 186 242 304 354 444
#     4  11  26  47  74 103 147 190 240 302 365 431
#
# _framework density 24.296382000000001
#
# number of rings (size 3 to 8) (size 9 to 14) (size 15 to 20)
#    0.000    0.533    2.667    4.000    7.467    5.867 
#    0.000    0.000    0.000    0.000    0.000    0.000 
#    0.000    0.000    0.000    0.000    0.000    0.000 
#
# Total GULP energy -336411.079408 kJ/mol
# GULP energy per Si atom -5606.851323 kJ/mol
# Density = 2.424108 g / cm^3
# Si number density = 24.296382 Si / 1000 Ang^3
#
#
#
# Elastic Constant Matrix: (Units=GPa)
#
#
# Indices 1 2 3 4 5 6 
#
# 1 107.8568 32.5586 8.3894 0.0000 0.0000 0.0000
# 2 32.5586 93.6179 0.7088 0.0000 0.0000 0.0000
# 3 8.3894 0.7088 72.4070 0.0000 0.0000 0.0000
# 4 0.0000 0.0000 0.0000 23.6757 0.0000 0.0000
# 5 0.0000 0.0000 0.0000 0.0000 41.7827 0.0000
# 6 0.0000 0.0000 0.0000 0.0000 0.0000 37.0084
#
#
#
# Elastic Compliance Matrix: (Units=1/GPa)
#
#
# Indices 1 2 3 4 5 6 
#
# 1 0.010458 -0.003628 -0.001176 0.000000 0.000000 0.000000
# 2 -0.003628 0.011941 0.000303 0.000000 0.000000 0.000000
# 3 -0.001176 0.000303 0.013944 0.000000 0.000000 0.000000
# 4 0.000000 0.000000 0.000000 0.042237 0.000000 0.000000
# 5 0.000000 0.000000 0.000000 0.000000 0.023933 0.000000
# 6 0.000000 0.000000 0.000000 0.000000 0.000000 0.027021
#
#
# Mechanical properties :
#
#
# Convention : Reuss Voigt Hill
#
# Bulk Modulus (GPa) = 36.57423 39.68836 38.13129
# Shear Modulus (GPa) = 33.86356 35.97502 34.91929
#
# Velocity S-wave (km/s) = 3.73737 3.85213 3.79518
# Velocity P-wave (km/s) = 5.80603 6.01296 5.91040
#
# Compressibility (1/GPa) = 0.02734166
#
# Stress axis : x y z
#
# Youngs Moduli (GPa) = 95.61768 83.74309 71.71478
#
# Poissons Ratio (x) = 0.30385 0.08435
# Poissons Ratio (y) = 0.34693 -0.02177
# Poissons Ratio (z) = 0.11247 -0.02542
#
# Static dielectric constant tensor:
#      x y z
#    x 1.931090 0.000000 0.000000 
#    y 0.000000 1.952910 0.000000 
#    z 0.000000 0.000000 1.919350 
# 
# From -- ./inp_files/20900.got.cif
#   From: 2010.05.17/outbox.cif.g08.bks.cpg/sg60_11_cif.got.tgz:20900.got - 2010.06.03 14:59:27.
