data_PCOD9458452
_publ_section_title
;
Structure prediction by ZEFSAII (Michael W. Deem and Ramdas Pophale) SiO2 
 PCOD9458452
Probable space group: P B C N
;
_chemical_formula_sum "Si O2"
_cell_formula_units_Z 56
_cell_length_a 5.816034
_cell_length_b 30.799170
_cell_length_c 14.252075
_cell_angle_alpha 90.000000
_cell_angle_beta 90.000000
_cell_angle_gamma 90.000000
_cell_volume 2552.960226
_symmetry_space_group_name_H-M "P B C N"
_symmetry_group_IT_number 60
_symmetry_cell_setting 'orthorhombic'
loop_
_space_group_symop_operation_xyz
x,y,z
1/2-x,1/2-y,1/2+z
1/2+x,1/2-y,-z
-x,y,1/2-z
-x,-y,-z
1/2+x,1/2+y,1/2-z
1/2-x,1/2+y,z
x,-y,1/2+z
loop_
_atom_site_type_symbol
_atom_site_label
_atom_site_fract_x
_atom_site_fract_y
_atom_site_fract_z
Si Si1 0.000000 0.902400 0.250000
Si Si2 0.361339 0.446597 0.430724
Si Si3 0.155278 0.336327 0.660643
Si Si4 0.791122 0.959729 0.590201
Si Si5 0.013919 0.386693 0.009900
Si Si6 0.787778 0.249643 0.944174
Si Si7 0.000000 0.095927 0.250000
Si Si8 0.189605 0.670350 0.680970
O O1 0.986119 0.933106 0.341101
O O2 0.203637 0.867176 0.247277
O O3 0.224942 0.489958 0.399491
O O4 0.474122 0.458423 0.530105
O O5 0.229198 0.402480 0.452315
O O6 0.996436 0.357769 0.581963
O O7 0.254913 0.293224 0.615107
O O8 0.345111 0.372205 0.687171
O O9 0.000000 0.326143 0.750000
O O10 0.628656 0.931379 0.524014
O O11 0.838543 0.934817 0.686730
O O12 0.121132 0.358602 0.091557
O O13 0.820961 0.209836 0.870551
O O14 0.538751 0.244472 0.001105
O O15 0.000000 0.690811 0.750000
#
# Coordination Sequence:
#
# PCOD9458452 Si02
#       8
#     4   8   8   8   8   8   4   8
#     4  12  25  44  72 102 142 190 244 300 359 452
#     4  11  24  42  67 102 143 188 239 301 362 426
#     4  12  28  47  75 104 147 190 244 299 376 439
#     4  11  24  42  67 102 143 188 239 301 362 426
#     4  12  23  48  68 102 138 192 238 300 361 444
#     4  12  32  52  80 114 152 194 248 312 374 452
#     4  12  25  44  72 102 142 190 244 300 359 452
#     4  12  28  47  75 104 147 190 244 299 376 439
#
# _framework density 21.935321999999999
#
# number of rings (size 3 to 8) (size 9 to 14) (size 15 to 20)
#    0.000    0.286    7.143    0.857   10.000    0.000 
#    0.000    1.429    0.000    0.000    0.000    0.000 
#    0.000    0.000    0.000    0.000    0.000    0.000 
#
# Total GULP energy -312095.709426 kJ/mol
# GULP energy per Si atom -5573.137668 kJ/mol
# Density = 2.188540 g / cm^3
# Si number density = 21.935322 Si / 1000 Ang^3
#
#
#
# Elastic Constant Matrix: (Units=GPa)
#
#
# Indices 1 2 3 4 5 6 
#
# 1 25.6052 -6.8083 16.1591 0.0000 0.0000 0.0000
# 2 -6.8083 98.5909 35.6007 0.0000 0.0000 0.0000
# 3 16.1591 35.6007 97.2444 0.0000 0.0000 0.0000
# 4 0.0000 0.0000 0.0000 -21.0446 0.0000 0.0000
# 5 0.0000 0.0000 0.0000 0.0000 27.4069 0.0000
# 6 0.0000 0.0000 0.0000 0.0000 0.0000 29.4598
#
#
#
# Elastic Compliance Matrix: (Units=1/GPa)
#
#
# Indices 1 2 3 4 5 6 
#
# 1 0.047556 0.007072 -0.010492 0.000000 0.000000 0.000000
# 2 0.007072 0.012740 -0.005839 0.000000 0.000000 0.000000
# 3 -0.010492 -0.005839 0.014164 0.000000 0.000000 0.000000
# 4 0.000000 0.000000 0.000000 -0.047518 0.000000 0.000000
# 5 0.000000 0.000000 0.000000 0.000000 0.036487 0.000000
# 6 0.000000 0.000000 0.000000 0.000000 0.000000 0.033945
#
#
# Mechanical properties :
#
#
# Convention : Reuss Voigt Hill
#
# Bulk Modulus (GPa) = 17.87508 34.59370 26.23439
# Shear Modulus (GPa) = 37.16407 18.93036 28.04722
#
# Velocity S-wave (km/s) = 4.12060 2.94089 3.57968
# Velocity P-wave (km/s) = 5.55030 5.22846 5.39178
#
# Compressibility (1/GPa) = 0.05594381
#
# Stress axis : x y z
#
# Youngs Moduli (GPa) = 21.02777 78.49397 70.59923
#
# Poissons Ratio (x) = -0.55515 0.74070
# Poissons Ratio (y) = -0.14872 0.41224
# Poissons Ratio (z) = 0.22061 0.45834
#
# Static dielectric constant tensor:
#      x y z
#    x 1.952070 0.000000 0.000000 
#    y 0.000000 1.809220 0.000000 
#    z 0.000000 0.000000 1.769210 
# 
# From -- ./inp_files/14144.got.cif
#   From: 2010.05.17/outbox.cif.g08.bks.cpg/sg60_8_cif.got.tgz:14144.got - 2010.06.03 14:59:27.
