data_PCOD9458361
_publ_section_title
;
Structure prediction by ZEFSAII (Michael W. Deem and Ramdas Pophale) SiO2 
 PCOD9458361
Probable space group: P B C N
;
_chemical_formula_sum "Si O2"
_cell_formula_units_Z 48
_cell_length_a 22.081761
_cell_length_b 10.179788
_cell_length_c 9.024031
_cell_angle_alpha 90.000000
_cell_angle_beta 90.000000
_cell_angle_gamma 90.000000
_cell_volume 2028.490683
_symmetry_space_group_name_H-M "P B C N"
_symmetry_group_IT_number 60
_symmetry_cell_setting 'orthorhombic'
loop_
_space_group_symop_operation_xyz
x,y,z
1/2-x,1/2-y,1/2+z
1/2+x,1/2-y,-z
-x,y,1/2-z
-x,-y,-z
1/2+x,1/2+y,1/2-z
1/2-x,1/2+y,z
x,-y,1/2+z
loop_
_atom_site_type_symbol
_atom_site_label
_atom_site_fract_x
_atom_site_fract_y
_atom_site_fract_z
Si Si1 0.110505 0.076464 0.798766
Si Si2 0.356432 0.137776 0.377070
Si Si3 0.000000 0.000000 0.000000
Si Si4 0.377285 0.137190 0.728495
Si Si5 0.188557 0.970609 0.047799
Si Si6 0.256634 0.276888 0.702381
Si Si7 0.500000 0.291881 0.750000
O O1 0.112622 0.231744 0.815948
O O2 0.122492 0.038652 0.629434
O O3 0.048524 0.032494 0.867243
O O4 0.166815 0.004804 0.882290
O O5 0.367985 0.128961 0.551248
O O6 0.275358 0.398854 0.597910
O O7 0.287253 0.163878 0.327236
O O8 0.014499 0.136330 0.093703
O O9 0.376634 0.993897 0.798137
O O10 0.438545 0.208637 0.774247
O O11 0.316884 0.216149 0.775205
O O12 0.222567 0.841188 0.111872
#
# Coordination Sequence:
#
# PCOD9458361 Si02
#       7
#     8   8   4   8   8   8   4
#     4  11  24  45  69 108 140 189 248 311 371 456
#     4  11  26  47  73 110 153 194 255 315 386 451
#     4  12  22  50  78 102 144 200 250 324 370 458
#     4  12  26  52  75 112 157 203 258 315 387 462
#     4  11  24  40  69 104 148 181 247 304 380 444
#     4  11  23  42  73 108 144 195 239 315 375 452
#     4  12  28  52  78 110 156 200 258 320 382 470
#
# _framework density 23.662914000000001
#
# number of rings (size 3 to 8) (size 9 to 14) (size 15 to 20)
#    0.000    0.667    5.000    2.000    2.333    2.000 
#   12.000    0.000    0.000    0.000    0.000    0.000 
#    0.000    0.000    0.000    0.000    0.000    0.000 
#
# Total GULP energy -267748.766177 kJ/mol
# GULP energy per Si atom -5578.099295 kJ/mol
# Density = 2.360906 g / cm^3
# Si number density = 23.662914 Si / 1000 Ang^3
#
#
#
# Elastic Constant Matrix: (Units=GPa)
#
#
# Indices 1 2 3 4 5 6 
#
# 1 90.5137 37.9423 -0.1469 0.0000 0.0000 0.0000
# 2 37.9423 126.1988 27.9597 0.0000 0.0000 0.0000
# 3 -0.1469 27.9597 75.8203 0.0000 0.0000 0.0000
# 4 0.0000 0.0000 0.0000 35.0953 0.0000 0.0000
# 5 0.0000 0.0000 0.0000 0.0000 21.5887 0.0000
# 6 0.0000 0.0000 0.0000 0.0000 0.0000 43.5261
#
#
#
# Elastic Compliance Matrix: (Units=1/GPa)
#
#
# Indices 1 2 3 4 5 6 
#
# 1 0.012811 -0.004201 0.001574 0.000000 0.000000 0.000000
# 2 -0.004201 0.010006 -0.003698 0.000000 0.000000 0.000000
# 3 0.001574 -0.003698 0.014556 0.000000 0.000000 0.000000
# 4 0.000000 0.000000 0.000000 0.028494 0.000000 0.000000
# 5 0.000000 0.000000 0.000000 0.000000 0.046321 0.000000
# 6 0.000000 0.000000 0.000000 0.000000 0.000000 0.022975
#
#
# Mechanical properties :
#
#
# Convention : Reuss Voigt Hill
#
# Bulk Modulus (GPa) = 40.44656 47.11589 43.78123
# Shear Modulus (GPa) = 32.04030 35.16054 33.60042
#
# Velocity S-wave (km/s) = 3.68371 3.85891 3.77233
# Velocity P-wave (km/s) = 5.93488 6.30947 6.12504
#
# Compressibility (1/GPa) = 0.02472398
#
# Stress axis : x y z
#
# Youngs Moduli (GPa) = 78.05538 99.93777 68.70094
#
# Poissons Ratio (x) = 0.41979 -0.10812
# Poissons Ratio (y) = 0.32787 0.25406
# Poissons Ratio (z) = -0.12285 0.36958
#
# Static dielectric constant tensor:
#      x y z
#    x 2.009640 0.000000 0.000000 
#    y 0.000000 1.891560 0.000000 
#    z 0.000000 0.000000 1.949510 
# 
# From -- ./inp_files/7903.got.cif
#   From: 2010.05.17/outbox.cif.g08.bks.cpg/sg60_4_cif.got.tgz:7903.got - 2010.06.03 14:59:27.
