data_PCOD9458281
_publ_section_title
;
Structure prediction by ZEFSAII (Michael W. Deem and Ramdas Pophale) SiO2 
 PCOD9458281
Probable space group: P B C N
;
_chemical_formula_sum "Si O2"
_cell_formula_units_Z 48
_cell_length_a 8.537266
_cell_length_b 14.838180
_cell_length_c 17.123423
_cell_angle_alpha 90.000000
_cell_angle_beta 90.000000
_cell_angle_gamma 90.000000
_cell_volume 2169.152239
_symmetry_space_group_name_H-M "P B C N"
_symmetry_group_IT_number 60
_symmetry_cell_setting 'orthorhombic'
loop_
_space_group_symop_operation_xyz
x,y,z
1/2-x,1/2-y,1/2+z
1/2+x,1/2-y,-z
-x,y,1/2-z
-x,-y,-z
1/2+x,1/2+y,1/2-z
1/2-x,1/2+y,z
x,-y,1/2+z
loop_
_atom_site_type_symbol
_atom_site_label
_atom_site_fract_x
_atom_site_fract_y
_atom_site_fract_z
Si Si1 0.312771 0.803322 0.135948
Si Si2 0.831652 0.913323 0.490198
Si Si3 0.679888 0.155051 0.274877
Si Si4 0.657259 0.267437 0.621181
Si Si5 0.824776 0.088129 0.577547
Si Si6 0.809792 0.457493 0.246843
O O1 0.210101 0.714176 0.148533
O O2 0.491686 0.775151 0.143905
O O3 0.258492 0.873421 0.201791
O O4 0.295780 0.856244 0.055850
O O5 0.867832 0.855033 0.567440
O O6 0.987942 0.912936 0.436568
O O7 0.775331 0.013149 0.513430
O O8 0.500000 0.152287 0.250000
O O9 0.764340 0.201581 0.201544
O O10 0.739008 0.053091 0.282936
O O11 0.757197 0.189784 0.576518
O O12 0.762154 0.051868 0.660814
O O13 0.000000 0.455627 0.250000
#
# Coordination Sequence:
#
# PCOD9458281 Si02
#       6
#     8   8   8   8   8   8
#     4  12  25  43  69 105 133 182 238 287 353 415
#     4  11  27  43  68 105 140 190 229 289 366 417
#     4  11  24  41  71 101 133 178 235 286 350 414
#     4  12  23  46  70  97 144 184 230 292 352 427
#     4  11  23  46  69  97 144 181 235 293 348 428
#     4  11  22  44  71  99 135 182 231 291 353 414
#
# _framework density 22.128461000000001
#
# number of rings (size 3 to 8) (size 9 to 14) (size 15 to 20)
#    0.000    0.667    5.000    2.500    0.000    4.667 
#    3.000    0.000    0.000    0.000    0.000    0.000 
#    0.000    0.000    0.000    0.000    0.000    0.000 
#
# Total GULP energy -268341.174650 kJ/mol
# GULP energy per Si atom -5590.441139 kJ/mol
# Density = 2.207810 g / cm^3
# Si number density = 22.128461 Si / 1000 Ang^3
#
#
#
# Elastic Constant Matrix: (Units=GPa)
#
#
# Indices 1 2 3 4 5 6 
#
# 1 29.2914 -3.6575 1.6528 0.0000 0.0000 0.0000
# 2 -3.6575 105.7275 -0.4314 0.0000 0.0000 0.0000
# 3 1.6528 -0.4314 46.6601 0.0000 0.0000 0.0000
# 4 0.0000 0.0000 0.0000 8.4197 0.0000 0.0000
# 5 0.0000 0.0000 0.0000 0.0000 37.0529 0.0000
# 6 0.0000 0.0000 0.0000 0.0000 0.0000 17.5395
#
#
#
# Elastic Compliance Matrix: (Units=1/GPa)
#
#
# Indices 1 2 3 4 5 6 
#
# 1 0.034356 0.001184 -0.001206 0.000000 0.000000 0.000000
# 2 0.001184 0.009499 0.000046 0.000000 0.000000 0.000000
# 3 -0.001206 0.000046 0.021475 0.000000 0.000000 0.000000
# 4 0.000000 0.000000 0.000000 0.118768 0.000000 0.000000
# 5 0.000000 0.000000 0.000000 0.000000 0.026988 0.000000
# 6 0.000000 0.000000 0.000000 0.000000 0.000000 0.057014
#
#
# Mechanical properties :
#
#
# Convention : Reuss Voigt Hill
#
# Bulk Modulus (GPa) = 15.29597 19.64520 17.47058
# Shear Modulus (GPa) = 17.25054 24.87676 21.06365
#
# Velocity S-wave (km/s) = 2.79510 3.35654 3.08860
# Velocity P-wave (km/s) = 4.16463 4.89070 4.54219
#
# Compressibility (1/GPa) = 0.06537668
#
# Stress axis : x y z
#
# Youngs Moduli (GPa) = 29.10734 105.26973 46.56632
#
# Poissons Ratio (x) = -0.12459 0.05616
# Poissons Ratio (y) = -0.03445 -0.00214
# Poissons Ratio (z) = 0.03510 -0.00483
#
# Static dielectric constant tensor:
#      x y z
#    x 1.783240 0.000000 0.000000 
#    y 0.000000 1.831630 0.000000 
#    z 0.000000 0.000000 1.823280 
# 
# From -- ./inp_files/19306.got.cif
#   From: 2010.05.17/outbox.cif.g08.bks.cpg/sg60_10_cif.got.tgz:19306.got - 2010.06.03 14:59:27.
