data_PCOD9458340
_publ_section_title
;
Structure prediction by ZEFSAII (Michael W. Deem and Ramdas Pophale) SiO2 
 PCOD9458340
Probable space group: P B C N
;
_chemical_formula_sum "Si O2"
_cell_formula_units_Z 32
_cell_length_a 10.646220
_cell_length_b 8.642588
_cell_length_c 16.193780
_cell_angle_alpha 90.000000
_cell_angle_beta 90.000000
_cell_angle_gamma 90.000000
_cell_volume 1490.004162
_symmetry_space_group_name_H-M "P B C N"
_symmetry_group_IT_number 60
_symmetry_cell_setting 'orthorhombic'
loop_
_space_group_symop_operation_xyz
x,y,z
1/2-x,1/2-y,1/2+z
1/2+x,1/2-y,-z
-x,y,1/2-z
-x,-y,-z
1/2+x,1/2+y,1/2-z
1/2-x,1/2+y,z
x,-y,1/2+z
loop_
_atom_site_type_symbol
_atom_site_label
_atom_site_fract_x
_atom_site_fract_y
_atom_site_fract_z
Si Si1 0.132267 0.933303 0.233496
Si Si2 0.376400 0.898767 0.483279
Si Si3 0.625418 0.768171 0.201590
Si Si4 0.626340 0.439272 0.456295
O O1 0.252139 0.831979 0.252935
O O2 0.132998 0.989488 0.139044
O O3 0.000000 0.848694 0.250000
O O4 0.131987 0.082520 0.293046
O O5 0.378281 0.832607 0.390562
O O6 0.374828 0.746755 0.540704
O O7 0.500000 0.000000 0.500000
O O8 0.250496 0.996686 0.498995
O O9 0.500000 0.816198 0.250000
O O10 0.500000 0.500000 0.500000
#
# Coordination Sequence:
#
# PCOD9458340 Si02
#       4
#     8   8   8   8
#     4  11  24  42  64  93 128 170 215 267 324 388
#     4  12  25  43  68  99 133 176 222 275 333 395
#     4  11  23  42  63  93 130 168 215 268 322 387
#     4  12  24  43  67  97 134 176 223 274 330 396
#
# _framework density 21.476451000000001
#
# number of rings (size 3 to 8) (size 9 to 14) (size 15 to 20)
#    0.000    0.500    0.000   10.500    0.000    3.000 
#    0.000    0.000    0.000    0.000    0.000    0.000 
#    0.000    0.000    0.000    0.000    0.000    0.000 
#
# Total GULP energy -179243.541736 kJ/mol
# GULP energy per Si atom -5601.360679 kJ/mol
# Density = 2.142757 g / cm^3
# Si number density = 21.476451 Si / 1000 Ang^3
#
#
#
# Elastic Constant Matrix: (Units=GPa)
#
#
# Indices 1 2 3 4 5 6 
#
# 1 207.5256 54.4342 12.5857 0.0000 0.0000 0.0000
# 2 54.4342 102.1125 -1.6758 0.0000 0.0000 0.0000
# 3 12.5857 -1.6758 72.9039 0.0000 0.0000 0.0000
# 4 0.0000 0.0000 0.0000 40.8319 0.0000 0.0000
# 5 0.0000 0.0000 0.0000 0.0000 39.4805 0.0000
# 6 0.0000 0.0000 0.0000 0.0000 0.0000 38.5284
#
#
#
# Elastic Compliance Matrix: (Units=1/GPa)
#
#
# Indices 1 2 3 4 5 6 
#
# 1 0.005681 -0.003046 -0.001051 0.000000 0.000000 0.000000
# 2 -0.003046 0.011430 0.000789 0.000000 0.000000 0.000000
# 3 -0.001051 0.000789 0.013916 0.000000 0.000000 0.000000
# 4 0.000000 0.000000 0.000000 0.024491 0.000000 0.000000
# 5 0.000000 0.000000 0.000000 0.000000 0.025329 0.000000
# 6 0.000000 0.000000 0.000000 0.000000 0.000000 0.025955
#
#
# Mechanical properties :
#
#
# Convention : Reuss Voigt Hill
#
# Bulk Modulus (GPa) = 40.96502 57.02559 48.99531
# Shear Modulus (GPa) = 41.13362 44.91468 43.02415
#
# Velocity S-wave (km/s) = 4.38115 4.57808 4.48070
# Velocity P-wave (km/s) = 6.68644 7.38616 7.04499
#
# Compressibility (1/GPa) = 0.02441107
#
# Stress axis : x y z
#
# Youngs Moduli (GPa) = 176.01470 87.49098 71.85860
#
# Poissons Ratio (x) = 0.26649 0.07551
# Poissons Ratio (y) = 0.53612 -0.05666
# Poissons Ratio (z) = 0.18496 -0.06899
#
# Static dielectric constant tensor:
#      x y z
#    x 1.755840 0.000000 0.000000 
#    y 0.000000 1.764440 0.000000 
#    z 0.000000 0.000000 1.772400 
# 
# From -- ./inp_files/15618.got.cif
#   From: 2010.05.17/outbox.cif.g08.bks.cpg/sg60_8_cif.got.tgz:15618.got - 2010.06.03 14:59:27.
