data_PCOD9458190
_publ_section_title
;
Structure prediction by ZEFSAII (Michael W. Deem and Ramdas Pophale) SiO2 
 PCOD9458190
Probable space group: P B C N
;
_chemical_formula_sum "Si O2"
_cell_formula_units_Z 64
_cell_length_a 9.484301
_cell_length_b 19.182891
_cell_length_c 18.903547
_cell_angle_alpha 90.000000
_cell_angle_beta 90.000000
_cell_angle_gamma 90.000000
_cell_volume 3439.241630
_symmetry_space_group_name_H-M "P B C N"
_symmetry_group_IT_number 60
_symmetry_cell_setting 'orthorhombic'
loop_
_space_group_symop_operation_xyz
x,y,z
1/2-x,1/2-y,1/2+z
1/2+x,1/2-y,-z
-x,y,1/2-z
-x,-y,-z
1/2+x,1/2+y,1/2-z
1/2-x,1/2+y,z
x,-y,1/2+z
loop_
_atom_site_type_symbol
_atom_site_label
_atom_site_fract_x
_atom_site_fract_y
_atom_site_fract_z
Si Si1 0.144685 0.577295 0.780743
Si Si2 0.216740 0.955267 0.582213
Si Si3 0.355315 0.077296 0.219257
Si Si4 0.654214 0.311954 0.719846
Si Si5 0.283260 0.544733 0.917787
Si Si6 0.593865 0.390702 0.417148
Si Si7 0.654214 0.688046 0.780154
Si Si8 0.406135 0.609298 0.417148
O O1 0.151033 0.500000 0.750000
O O2 0.163048 0.570993 0.864831
O O3 0.277273 0.619103 0.752614
O O4 0.000000 0.609039 0.750000
O O5 0.336952 0.929007 0.635169
O O6 0.254130 0.947707 0.500000
O O7 0.070190 0.912905 0.594218
O O8 0.179903 0.036969 0.595178
O O9 0.500000 0.109040 0.250000
O O10 0.222727 0.119103 0.247385
O O11 0.500000 0.300716 0.750000
O O12 0.750000 0.250000 0.750000
O O13 0.641301 0.330119 0.636434
O O14 0.429810 0.587095 0.905782
O O15 0.320097 0.463031 0.904822
O O16 0.641301 0.330119 0.363566
O O17 0.609997 0.372425 0.500000
O O18 0.500000 0.699284 0.750000
#
# Coordination Sequence:
#
# PCOD9458190 Si02
#       8
#     8   8   8   8   8   8   8   8
#     4  11  22  37  59  93 127 155 202 255 306 371
#     4   9  17  34  63  95 120 154 204 259 310 361
#     4  11  22  37  59  93 127 155 202 255 306 371
#     4  12  24  40  61  87 124 164 209 251 309 373
#     4   9  17  34  63  95 120 154 204 259 310 361
#     4   9  18  35  62  94 121 154 207 258 308 366
#     4  12  24  40  61  87 124 164 209 251 309 373
#     4   9  18  35  62  94 121 154 207 258 308 366
#
# _framework density 18.608754000000001
#
# number of rings (size 3 to 8) (size 9 to 14) (size 15 to 20)
#    0.000    1.750    5.000    2.250    0.000    0.500 
#    0.000    6.250    0.000    0.000    0.000    0.000 
#    0.000    0.000    0.000    0.000    0.000    0.000 
#
# Total GULP energy -356829.955441 kJ/mol
# GULP energy per Si atom -5575.468054 kJ/mol
# Density = 1.856640 g / cm^3
# Si number density = 18.608754 Si / 1000 Ang^3
#
#
#
# Elastic Constant Matrix: (Units=GPa)
#
#
# Indices 1 2 3 4 5 6 
#
# 1 110.1419 31.9892 60.1033 0.0000 0.0000 0.0000
# 2 31.9892 61.0395 39.3105 0.0000 0.0000 0.0000
# 3 60.1033 39.3105 169.9373 0.0000 0.0000 0.0000
# 4 0.0000 0.0000 0.0000 26.8158 0.0000 0.0000
# 5 0.0000 0.0000 0.0000 0.0000 30.9574 0.0000
# 6 0.0000 0.0000 0.0000 0.0000 0.0000 29.6442
#
#
#
# Elastic Compliance Matrix: (Units=1/GPa)
#
#
# Indices 1 2 3 4 5 6 
#
# 1 0.012108 -0.004216 -0.003307 0.000000 0.000000 0.000000
# 2 -0.004216 0.020719 -0.003302 0.000000 0.000000 0.000000
# 3 -0.003307 -0.003302 0.007818 0.000000 0.000000 0.000000
# 4 0.000000 0.000000 0.000000 0.037291 0.000000 0.000000
# 5 0.000000 0.000000 0.000000 0.000000 0.032302 0.000000
# 6 0.000000 0.000000 0.000000 0.000000 0.000000 0.033733
#
#
# Mechanical properties :
#
#
# Convention : Reuss Voigt Hill
#
# Bulk Modulus (GPa) = 52.64399 67.10275 59.87337
# Shear Modulus (GPa) = 29.07767 31.46454 30.27111
#
# Velocity S-wave (km/s) = 3.95724 4.11645 4.03763
# Velocity P-wave (km/s) = 7.01648 7.66366 7.34720
#
# Compressibility (1/GPa) = 0.01899552
#
# Stress axis : x y z
#
# Youngs Moduli (GPa) = 82.58772 48.26597 127.91009
#
# Poissons Ratio (x) = 0.20348 0.42303
# Poissons Ratio (y) = 0.34817 0.42232
# Poissons Ratio (z) = 0.27314 0.15936
#
# Static dielectric constant tensor:
#      x y z
#    x 1.688530 0.000000 0.000000 
#    y 0.000000 1.546880 0.000000 
#    z 0.000000 0.000000 1.662270 
# 
# From -- ./inp_files/19676.got.cif
#   From: 2010.05.17/outbox.cif.g08.bks.cpg/sg60_10_cif.got.tgz:19676.got - 2010.06.03 14:59:27.
