data_PCOD9458074
_publ_section_title
;
Structure prediction by ZEFSAII (Michael W. Deem and Ramdas Pophale) SiO2 
 PCOD9458074
Probable space group: P B C N
;
_chemical_formula_sum "Si O2"
_cell_formula_units_Z 40
_cell_length_a 27.391888
_cell_length_b 6.700065
_cell_length_c 7.527297
_cell_angle_alpha 90.000000
_cell_angle_beta 90.000000
_cell_angle_gamma 90.000000
_cell_volume 1381.465474
_symmetry_space_group_name_H-M "P B C N"
_symmetry_group_IT_number 60
_symmetry_cell_setting 'orthorhombic'
loop_
_space_group_symop_operation_xyz
x,y,z
1/2-x,1/2-y,1/2+z
1/2+x,1/2-y,-z
-x,y,1/2-z
-x,-y,-z
1/2+x,1/2+y,1/2-z
1/2-x,1/2+y,z
x,-y,1/2+z
loop_
_atom_site_type_symbol
_atom_site_label
_atom_site_fract_x
_atom_site_fract_y
_atom_site_fract_z
Si Si1 0.808379 0.817842 0.389223
Si Si2 0.609156 0.821703 0.344439
Si Si3 0.206606 0.414189 0.973665
Si Si4 0.089404 0.779573 0.062845
Si Si5 0.989790 0.734490 0.959403
O O1 0.810799 0.642145 0.536250
O O2 0.760967 0.937255 0.447964
O O3 0.863092 0.902136 0.371748
O O4 0.794545 0.705150 0.208331
O O5 0.664594 0.810897 0.410128
O O6 0.568294 0.734249 0.480909
O O7 0.597287 0.061803 0.346672
O O8 0.597381 0.746108 0.148408
O O9 0.032401 0.839141 0.075454
O O10 0.000000 0.760645 0.750000
O O11 0.000000 0.500000 0.000000
#
# Coordination Sequence:
#
# PCOD9458074 Si02
#       5
#     8   8   8   8   8
#     4  11  21  34  50  71  97 128 162 200 240 284
#     4   9  15  25  40  62  90 121 153 190 232 278
#     4  11  21  34  50  71  97 128 162 200 240 284
#     4   9  15  25  40  62  90 121 153 190 232 278
#     4   8  14  22  36  58  87 118 149 184 229 276
#
# _framework density 28.954761000000001
#
# number of rings (size 3 to 8) (size 9 to 14) (size 15 to 20)
#    0.000    2.400    0.000    7.200    0.000    1.600 
#    0.000    0.000    0.000    0.000    0.000    1.400 
#    0.000    0.000    0.000    0.000    0.000    0.000 
#
# Total GULP energy -223988.060804 kJ/mol
# GULP energy per Si atom -5599.701520 kJ/mol
# Density = 2.888886 g / cm^3
# Si number density = 28.954761 Si / 1000 Ang^3
#
#
#
# Elastic Constant Matrix: (Units=GPa)
#
#
# Indices 1 2 3 4 5 6 
#
# 1 284.1833 15.6259 55.9326 0.0000 0.0000 0.0000
# 2 15.6259 74.2391 12.7100 0.0000 0.0000 0.0000
# 3 55.9326 12.7100 122.0662 0.0000 0.0000 0.0000
# 4 0.0000 0.0000 0.0000 24.3587 0.0000 0.0000
# 5 0.0000 0.0000 0.0000 0.0000 48.1586 0.0000
# 6 0.0000 0.0000 0.0000 0.0000 0.0000 46.4163
#
#
#
# Elastic Compliance Matrix: (Units=1/GPa)
#
#
# Indices 1 2 3 4 5 6 
#
# 1 0.003887 -0.000523 -0.001727 0.000000 0.000000 0.000000
# 2 -0.000523 0.013785 -0.001196 0.000000 0.000000 0.000000
# 3 -0.001727 -0.001196 0.009108 0.000000 0.000000 0.000000
# 4 0.000000 0.000000 0.000000 0.041053 0.000000 0.000000
# 5 0.000000 0.000000 0.000000 0.000000 0.020765 0.000000
# 6 0.000000 0.000000 0.000000 0.000000 0.000000 0.021544
#
#
# Mechanical properties :
#
#
# Convention : Reuss Voigt Hill
#
# Bulk Modulus (GPa) = 50.27752 72.11396 61.19574
# Shear Modulus (GPa) = 40.43254 50.20139 45.31697
#
# Velocity S-wave (km/s) = 3.74090 4.16839 3.96042
# Velocity P-wave (km/s) = 6.00508 6.93737 6.48799
#
# Compressibility (1/GPa) = 0.01988961
#
# Stress axis : x y z
#
# Youngs Moduli (GPa) = 257.23650 72.54406 109.79263
#
# Poissons Ratio (x) = 0.03791 0.18960
# Poissons Ratio (y) = 0.13443 0.13130
# Poissons Ratio (z) = 0.44422 0.08675
#
# Static dielectric constant tensor:
#      x y z
#    x 2.389700 0.000000 0.000000 
#    y 0.000000 2.379970 0.000000 
#    z 0.000000 0.000000 2.162880 
# 
# From -- ./inp_files/8104.got.cif
#   From: 2010.05.17/outbox.cif.g08.bks.cpg/sg60_5_cif.got.tgz:8104.got - 2010.06.03 14:59:27.
