data_PCOD9458072
_publ_section_title
;
Structure prediction by ZEFSAII (Michael W. Deem and Ramdas Pophale) SiO2 
 PCOD9458072
Probable space group: P B C N
;
_chemical_formula_sum "Si O2"
_cell_formula_units_Z 64
_cell_length_a 28.642479
_cell_length_b 12.952652
_cell_length_c 10.057077
_cell_angle_alpha 90.000000
_cell_angle_beta 90.000000
_cell_angle_gamma 90.000000
_cell_volume 3731.135971
_symmetry_space_group_name_H-M "P B C N"
_symmetry_group_IT_number 60
_symmetry_cell_setting 'orthorhombic'
loop_
_space_group_symop_operation_xyz
x,y,z
1/2-x,1/2-y,1/2+z
1/2+x,1/2-y,-z
-x,y,1/2-z
-x,-y,-z
1/2+x,1/2+y,1/2-z
1/2-x,1/2+y,z
x,-y,1/2+z
loop_
_atom_site_type_symbol
_atom_site_label
_atom_site_fract_x
_atom_site_fract_y
_atom_site_fract_z
Si Si1 0.790180 0.289745 0.339269
Si Si2 0.046989 0.608002 0.420454
Si Si3 0.282929 0.435019 0.789621
Si Si4 0.353582 0.158358 0.421349
Si Si5 0.054365 0.586274 0.112205
Si Si6 0.846578 0.689955 0.384872
Si Si7 0.690418 0.055985 0.609514
Si Si8 0.807313 0.900267 0.422175
O O1 0.778895 0.181055 0.268281
O O2 0.822790 0.284545 0.468960
O O3 0.816091 0.365114 0.232468
O O4 0.742549 0.343900 0.389936
O O5 0.091576 0.681548 0.438360
O O6 0.053627 0.564729 0.270355
O O7 0.051388 0.518781 0.529603
O O8 0.993604 0.647013 0.422419
O O9 0.235543 0.491312 0.841592
O O10 0.306933 0.504843 0.678044
O O11 0.310909 0.433064 0.926155
O O12 0.337565 0.178703 0.271427
O O13 0.345865 0.034063 0.429271
O O14 0.102414 0.644665 0.083671
O O15 0.809455 0.628320 0.477882
O O16 0.844830 0.811200 0.406081
#
# Coordination Sequence:
#
# PCOD9458072 Si02
#       8
#     8   8   8   8   8   8   8   8
#     4  11  24  37  55  78 110 145 191 227 270 326
#     4   9  18  31  51  80 111 148 176 218 271 329
#     4  11  25  39  54  75 108 147 187 234 270 316
#     4  11  21  32  56  83 112 146 182 223 270 330
#     4   9  18  33  51  77 115 143 181 215 269 333
#     4  11  22  35  56  80 109 148 186 221 273 336
#     4  11  21  37  52  78 109 147 185 224 269 322
#     4  11  25  38  56  76 106 147 186 232 276 321
#
# _framework density 17.152951999999999
#
# number of rings (size 3 to 8) (size 9 to 14) (size 15 to 20)
#    0.000    1.500    3.750    1.500    7.000    0.000 
#    0.000    0.000    0.000    0.000    0.000    0.875 
#    0.000    0.000    0.000    0.000    0.000    0.000 
#
# Total GULP energy -356577.067975 kJ/mol
# GULP energy per Si atom -5571.516687 kJ/mol
# Density = 1.711391 g / cm^3
# Si number density = 17.152952 Si / 1000 Ang^3
#
#
#
# Elastic Constant Matrix: (Units=GPa)
#
#
# Indices 1 2 3 4 5 6 
#
# 1 53.6551 9.7603 28.2115 0.0000 0.0000 0.0000
# 2 9.7603 64.5236 29.6111 0.0000 0.0000 0.0000
# 3 28.2115 29.6111 81.6290 0.0000 0.0000 0.0000
# 4 0.0000 0.0000 0.0000 18.6761 0.0000 0.0000
# 5 0.0000 0.0000 0.0000 0.0000 7.4986 0.0000
# 6 0.0000 0.0000 0.0000 0.0000 0.0000 14.4967
#
#
#
# Elastic Compliance Matrix: (Units=1/GPa)
#
#
# Indices 1 2 3 4 5 6 
#
# 1 0.022779 0.000201 -0.007945 0.000000 0.000000 0.000000
# 2 0.000201 0.018595 -0.006815 0.000000 0.000000 0.000000
# 3 -0.007945 -0.006815 0.017469 0.000000 0.000000 0.000000
# 4 0.000000 0.000000 0.000000 0.053544 0.000000 0.000000
# 5 0.000000 0.000000 0.000000 0.000000 0.133357 0.000000
# 6 0.000000 0.000000 0.000000 0.000000 0.000000 0.068981
#
#
# Mechanical properties :
#
#
# Convention : Reuss Voigt Hill
#
# Bulk Modulus (GPa) = 33.64331 37.21927 35.43129
# Shear Modulus (GPa) = 14.13420 16.94929 15.54174
#
# Velocity S-wave (km/s) = 2.87367 3.14686 3.01336
# Velocity P-wave (km/s) = 5.53777 5.91178 5.72783
#
# Compressibility (1/GPa) = 0.02972359
#
# Stress axis : x y z
#
# Youngs Moduli (GPa) = 43.90085 53.77701 57.24576
#
# Poissons Ratio (x) = -0.01079 0.45483
# Poissons Ratio (y) = -0.00880 0.39012
# Poissons Ratio (z) = 0.34880 0.36648
#
# Static dielectric constant tensor:
#      x y z
#    x 1.623410 0.000000 0.000000 
#    y 0.000000 1.593100 0.000000 
#    z 0.000000 0.000000 1.642140 
# 
# From -- ./inp_files/8492.got.cif
#   From: 2010.05.17/outbox.cif.g08.bks.cpg/sg60_5_cif.got.tgz:8492.got - 2010.06.03 14:59:27.
