data_PCOD9458354
_publ_section_title
;
Structure prediction by ZEFSAII (Michael W. Deem and Ramdas Pophale) SiO2 
 PCOD9458354
Probable space group: P B C N
;
_chemical_formula_sum "Si O2"
_cell_formula_units_Z 24
_cell_length_a 4.802491
_cell_length_b 16.404411
_cell_length_c 13.327292
_cell_angle_alpha 90.000000
_cell_angle_beta 90.000000
_cell_angle_gamma 90.000000
_cell_volume 1049.951201
_symmetry_space_group_name_H-M "P B C N"
_symmetry_group_IT_number 60
_symmetry_cell_setting 'orthorhombic'
loop_
_space_group_symop_operation_xyz
x,y,z
1/2-x,1/2-y,1/2+z
1/2+x,1/2-y,-z
-x,y,1/2-z
-x,-y,-z
1/2+x,1/2+y,1/2-z
1/2-x,1/2+y,z
x,-y,1/2+z
loop_
_atom_site_type_symbol
_atom_site_label
_atom_site_fract_x
_atom_site_fract_y
_atom_site_fract_z
Si Si1 0.272990 0.182213 0.678012
Si Si2 0.158125 0.128419 0.149006
Si Si3 0.329284 0.919691 0.974082
O O1 0.500000 0.141898 0.750000
O O2 0.371762 0.273528 0.648907
O O3 0.283856 0.133737 0.574224
O O4 0.000000 0.187076 0.750000
O O5 0.479888 0.117971 0.116553
O O6 0.000000 0.101297 0.250000
O O7 0.980801 0.078468 0.068268
O O8 0.500000 0.000000 0.000000
#
# Coordination Sequence:
#
# PCOD9458354 Si02
#       3
#     8   8   8
#     4  11  23  42  68  97 129 176 231 285 338 406
#     4  11  23  43  67  93 128 177 231 280 337 409
#     4  12  25  41  64  98 136 175 217 279 352 417
#
# _framework density 22.858205000000002
#
# number of rings (size 3 to 8) (size 9 to 14) (size 15 to 20)
#    0.000    0.667    0.000   10.000    0.000    4.000 
#    0.000    0.000    0.000    0.000    0.000    0.000 
#    0.000    0.000    0.000    0.000    0.000    0.000 
#
# Total GULP energy -133739.802519 kJ/mol
# GULP energy per Si atom -5572.491772 kJ/mol
# Density = 2.280618 g / cm^3
# Si number density = 22.858205 Si / 1000 Ang^3
#
#
#
# Elastic Constant Matrix: (Units=GPa)
#
#
# Indices 1 2 3 4 5 6 
#
# 1 145.2887 10.8403 43.2304 0.0000 0.0000 0.0000
# 2 10.8403 62.8072 31.4767 0.0000 0.0000 0.0000
# 3 43.2304 31.4767 117.2082 0.0000 0.0000 0.0000
# 4 0.0000 0.0000 0.0000 74.4976 0.0000 0.0000
# 5 0.0000 0.0000 0.0000 0.0000 60.6055 0.0000
# 6 0.0000 0.0000 0.0000 0.0000 0.0000 5.4647
#
#
#
# Elastic Compliance Matrix: (Units=1/GPa)
#
#
# Indices 1 2 3 4 5 6 
#
# 1 0.007732 0.000109 -0.002881 0.000000 0.000000 0.000000
# 2 0.000109 0.018399 -0.004982 0.000000 0.000000 0.000000
# 3 -0.002881 -0.004982 0.010932 0.000000 0.000000 0.000000
# 4 0.000000 0.000000 0.000000 0.013423 0.000000 0.000000
# 5 0.000000 0.000000 0.000000 0.000000 0.016500 0.000000
# 6 0.000000 0.000000 0.000000 0.000000 0.000000 0.182994
#
#
# Mechanical properties :
#
#
# Convention : Reuss Voigt Hill
#
# Bulk Modulus (GPa) = 46.38857 55.15543 50.77200
# Shear Modulus (GPa) = 18.33692 44.09733 31.21713
#
# Velocity S-wave (km/s) = 2.83539 4.39700 3.69953
# Velocity P-wave (km/s) = 5.57291 7.06823 6.36464
#
# Compressibility (1/GPa) = 0.02155703
#
# Stress axis : x y z
#
# Youngs Moduli (GPa) = 129.33292 54.34946 91.47163
#
# Poissons Ratio (x) = -0.00595 0.26355
# Poissons Ratio (y) = -0.01416 0.45568
# Poissons Ratio (z) = 0.37264 0.27075
#
# Static dielectric constant tensor:
#      x y z
#    x 1.856460 0.000000 0.000000 
#    y 0.000000 1.818440 0.000000 
#    z 0.000000 0.000000 1.990560 
# 
# From -- ./inp_files/8672.got.cif
#   From: 2010.05.17/outbox.cif.g08.bks.cpg/sg60_5_cif.got.tgz:8672.got - 2010.06.03 14:59:27.
