data_PCOD9458784
_publ_section_title
;
Structure prediction by ZEFSAII (Michael W. Deem and Ramdas Pophale) SiO2 
 PCOD9458784
Probable space group: P B C N
;
_chemical_formula_sum "Si O2"
_cell_formula_units_Z 32
_cell_length_a 8.204892
_cell_length_b 13.680608
_cell_length_c 11.086982
_cell_angle_alpha 90.000000
_cell_angle_beta 90.000000
_cell_angle_gamma 90.000000
_cell_volume 1244.490570
_symmetry_space_group_name_H-M "P B C N"
_symmetry_group_IT_number 60
_symmetry_cell_setting 'orthorhombic'
loop_
_space_group_symop_operation_xyz
x,y,z
1/2-x,1/2-y,1/2+z
1/2+x,1/2-y,-z
-x,y,1/2-z
-x,-y,-z
1/2+x,1/2+y,1/2-z
1/2-x,1/2+y,z
x,-y,1/2+z
loop_
_atom_site_type_symbol
_atom_site_label
_atom_site_fract_x
_atom_site_fract_y
_atom_site_fract_z
Si Si1 0.071090 0.660234 0.506637
Si Si2 0.717354 0.221039 0.340457
Si Si3 0.500000 0.602777 0.750000
Si Si4 0.500000 0.938810 0.250000
Si Si5 0.293758 0.556953 0.335796
O O1 0.161458 0.758399 0.548386
O O2 0.207859 0.585483 0.459934
O O3 0.943145 0.673468 0.399888
O O4 0.990836 0.622282 0.628151
O O5 0.645174 0.323703 0.289161
O O6 0.808663 0.159115 0.237583
O O7 0.564032 0.522672 0.652893
O O8 0.660259 0.003833 0.247780
#
# Coordination Sequence:
#
# PCOD9458784 Si02
#       5
#     8   8   4   4   8
#     4  12  28  46  80 107 161 201 259 324 394 463
#     4  12  28  50  73 117 155 203 259 324 385 471
#     4  12  27  51  80 116 156 200 265 317 396 462
#     4  12  25  47  74 108 142 212 253 311 398 460
#     4  12  27  51  77 111 154 202 259 325 386 467
#
# _framework density 25.713332000000001
#
# number of rings (size 3 to 8) (size 9 to 14) (size 15 to 20)
#    0.000    0.000    7.500    0.750   10.500    1.000 
#    0.000    0.000    0.000    0.000    0.000    0.000 
#    0.000    0.000    0.000    0.000    0.000    0.000 
#
# Total GULP energy -179051.635861 kJ/mol
# GULP energy per Si atom -5595.363621 kJ/mol
# Density = 2.565481 g / cm^3
# Si number density = 25.713332 Si / 1000 Ang^3
#
#
#
# Elastic Constant Matrix: (Units=GPa)
#
#
# Indices 1 2 3 4 5 6 
#
# 1 63.2621 37.5043 16.2204 0.0000 0.0000 0.0000
# 2 37.5043 126.5788 55.2436 0.0000 0.0000 0.0000
# 3 16.2204 55.2436 114.8214 0.0000 0.0000 0.0000
# 4 0.0000 0.0000 0.0000 -11.7278 0.0000 0.0000
# 5 0.0000 0.0000 0.0000 0.0000 32.0048 0.0000
# 6 0.0000 0.0000 0.0000 0.0000 0.0000 30.2989
#
#
#
# Elastic Compliance Matrix: (Units=1/GPa)
#
#
# Indices 1 2 3 4 5 6 
#
# 1 0.019176 -0.005695 0.000031 0.000000 0.000000 0.000000
# 2 -0.005695 0.011692 -0.004821 0.000000 0.000000 0.000000
# 3 0.000031 -0.004821 0.011024 0.000000 0.000000 0.000000
# 4 0.000000 0.000000 0.000000 -0.085267 0.000000 0.000000
# 5 0.000000 0.000000 0.000000 0.000000 0.031245 0.000000
# 6 0.000000 0.000000 0.000000 0.000000 0.000000 0.033004
#
#
# Mechanical properties :
#
#
# Convention : Reuss Voigt Hill
#
# Bulk Modulus (GPa) = 47.79626 58.06655 52.93140
# Shear Modulus (GPa) = 102.42382 23.16144 62.79263
#
# Velocity S-wave (km/s) = 6.31818 3.00452 4.94705
# Velocity P-wave (km/s) = 8.47670 5.88791 7.29801
#
# Compressibility (1/GPa) = 0.02092214
#
# Stress axis : x y z
#
# Youngs Moduli (GPa) = 52.14959 85.53193 90.71065
#
# Poissons Ratio (x) = 0.48712 -0.00283
# Poissons Ratio (y) = 0.29700 0.43728
# Poissons Ratio (z) = -0.00163 0.41231
#
# Static dielectric constant tensor:
#      x y z
#    x 2.086520 0.000000 0.000000 
#    y 0.000000 2.102150 0.000000 
#    z 0.000000 0.000000 1.920110 
# 
# From -- ./inp_files/9535.got.cif
#   From: 2010.05.17/outbox.cif.g08.bks.cpg/sg60_5_cif.got.tgz:9535.got - 2010.06.03 14:59:27.
