data_PCOD9458749
_publ_section_title
;
Structure prediction by ZEFSAII (Michael W. Deem and Ramdas Pophale) SiO2 
 PCOD9458749
Probable space group: P B C N
;
_chemical_formula_sum "Si O2"
_cell_formula_units_Z 24
_cell_length_a 6.745883
_cell_length_b 17.713310
_cell_length_c 8.516711
_cell_angle_alpha 90.000000
_cell_angle_beta 90.000000
_cell_angle_gamma 90.000000
_cell_volume 1017.678122
_symmetry_space_group_name_H-M "P B C N"
_symmetry_group_IT_number 60
_symmetry_cell_setting 'orthorhombic'
loop_
_space_group_symop_operation_xyz
x,y,z
1/2-x,1/2-y,1/2+z
1/2+x,1/2-y,-z
-x,y,1/2-z
-x,-y,-z
1/2+x,1/2+y,1/2-z
1/2-x,1/2+y,z
x,-y,1/2+z
loop_
_atom_site_type_symbol
_atom_site_label
_atom_site_fract_x
_atom_site_fract_y
_atom_site_fract_z
Si Si1 0.999365 0.414465 0.941850
Si Si2 0.659648 0.325347 0.133432
Si Si3 0.863612 0.820764 0.623198
O O1 0.000000 0.411032 0.750000
O O2 0.206991 0.372034 0.967957
O O3 0.821961 0.375170 0.041219
O O4 0.000000 0.500000 0.000000
O O5 0.500000 0.363899 0.250000
O O6 0.762342 0.251178 0.205552
O O7 0.516724 0.289998 0.002593
O O8 0.000000 0.863999 0.750000
#
# Coordination Sequence:
#
# PCOD9458749 Si02
#       3
#     8   8   8
#     4  12  29  49  71 107 152 197 249 313 377 455
#     4  12  26  44  78 112 144 194 256 313 378 451
#     4  12  24  47  76 108 149 195 252 312 373 448
#
# _framework density 23.583095
#
# number of rings (size 3 to 8) (size 9 to 14) (size 15 to 20)
#    0.000    0.000    6.667    3.000    4.667    2.667 
#    0.000    0.000    0.000    0.000    0.000    0.000 
#    0.000    0.000    0.000    0.000    0.000    0.000 
#
# Total GULP energy -133909.220160 kJ/mol
# GULP energy per Si atom -5579.550840 kJ/mol
# Density = 2.352942 g / cm^3
# Si number density = 23.583095 Si / 1000 Ang^3
#
#
#
# Elastic Constant Matrix: (Units=GPa)
#
#
# Indices 1 2 3 4 5 6 
#
# 1 186.1036 85.6454 75.9664 0.0000 0.0000 0.0000
# 2 85.6454 140.9581 26.1832 0.0000 0.0000 0.0000
# 3 75.9664 26.1832 103.0508 0.0000 0.0000 0.0000
# 4 0.0000 0.0000 0.0000 32.4502 0.0000 0.0000
# 5 0.0000 0.0000 0.0000 0.0000 77.6452 0.0000
# 6 0.0000 0.0000 0.0000 0.0000 0.0000 21.2943
#
#
#
# Elastic Compliance Matrix: (Units=1/GPa)
#
#
# Indices 1 2 3 4 5 6 
#
# 1 0.010274 -0.005075 -0.006284 0.000000 0.000000 0.000000
# 2 -0.005075 0.009953 0.001213 0.000000 0.000000 0.000000
# 3 -0.006284 0.001213 0.014029 0.000000 0.000000 0.000000
# 4 0.000000 0.000000 0.000000 0.030816 0.000000 0.000000
# 5 0.000000 0.000000 0.000000 0.000000 0.012879 0.000000
# 6 0.000000 0.000000 0.000000 0.000000 0.000000 0.046961
#
#
# Mechanical properties :
#
#
# Convention : Reuss Voigt Hill
#
# Bulk Modulus (GPa) = 71.62619 89.52251 80.57435
# Shear Modulus (GPa) = 33.36447 42.43244 37.89845
#
# Velocity S-wave (km/s) = 3.76541 4.24639 4.01311
# Velocity P-wave (km/s) = 7.02440 7.87942 7.46416
#
# Compressibility (1/GPa) = 0.01396137
#
# Stress axis : x y z
#
# Youngs Moduli (GPa) = 97.33084 100.47466 71.28316
#
# Poissons Ratio (x) = 0.50993 0.44797
# Poissons Ratio (y) = 0.49398 -0.08643
# Poissons Ratio (z) = 0.61166 -0.12183
#
# Static dielectric constant tensor:
#      x y z
#    x 2.008310 0.000000 0.000000 
#    y 0.000000 1.797940 0.000000 
#    z 0.000000 0.000000 2.086630 
# 
# From -- ./inp_files/2886.got.cif
#   From: 2010.05.17/outbox.cif.g08.bks.cpg/sg60_2_cif.got.tgz:2886.got - 2010.06.03 14:59:27.
