data_PCOD9458621
_publ_section_title
;
Structure prediction by ZEFSAII (Michael W. Deem and Ramdas Pophale) SiO2 
 PCOD9458621
Probable space group: P B C N
;
_chemical_formula_sum "Si O2"
_cell_formula_units_Z 40
_cell_length_a 7.643306
_cell_length_b 8.738173
_cell_length_c 22.646949
_cell_angle_alpha 90.000000
_cell_angle_beta 90.000000
_cell_angle_gamma 90.000000
_cell_volume 1512.556435
_symmetry_space_group_name_H-M "P B C N"
_symmetry_group_IT_number 60
_symmetry_cell_setting 'orthorhombic'
loop_
_space_group_symop_operation_xyz
x,y,z
1/2-x,1/2-y,1/2+z
1/2+x,1/2-y,-z
-x,y,1/2-z
-x,-y,-z
1/2+x,1/2+y,1/2-z
1/2-x,1/2+y,z
x,-y,1/2+z
loop_
_atom_site_type_symbol
_atom_site_label
_atom_site_fract_x
_atom_site_fract_y
_atom_site_fract_z
Si Si1 0.895308 0.718678 0.071308
Si Si2 0.724768 0.609870 0.404669
Si Si3 0.212316 0.009447 0.853807
Si Si4 0.000000 0.156783 0.250000
Si Si5 0.103365 0.384446 0.165576
Si Si6 0.500000 0.500000 0.000000
O O1 0.739958 0.593244 0.084461
O O2 0.894924 0.830574 0.015290
O O3 0.080838 0.635179 0.070625
O O4 0.869387 0.829121 0.127586
O O5 0.762247 0.519734 0.343420
O O6 0.624730 0.765425 0.388891
O O7 0.616635 0.488317 0.441996
O O8 0.101120 0.930315 0.802523
O O9 0.410252 0.044052 0.834493
O O10 0.134934 0.278631 0.221291
#
# Coordination Sequence:
#
# PCOD9458621 Si02
#       6
#     8   8   8   4   8   4
#     4  11  26  48  74 115 154 202 259 327 385 482
#     4  11  26  49  76 111 159 198 266 318 394 466
#     4  11  26  49  76 111 154 199 265 321 395 469
#     4  12  26  46  80 108 150 210 250 326 392 470
#     4  11  26  48  76 116 153 202 255 331 380 477
#     4  12  26  46  78 112 150 216 246 326 390 466
#
# _framework density 26.445291999999998
#
# number of rings (size 3 to 8) (size 9 to 14) (size 15 to 20)
#    0.000    0.800    4.000    1.200    5.600    0.000 
#    0.000    4.000    0.000    0.000    0.000    0.000 
#    0.000    0.000    0.000    0.000    0.000    0.000 
#
# Total GULP energy -222867.154628 kJ/mol
# GULP energy per Si atom -5571.678866 kJ/mol
# Density = 2.638510 g / cm^3
# Si number density = 26.445292 Si / 1000 Ang^3
#
#
#
# Elastic Constant Matrix: (Units=GPa)
#
#
# Indices 1 2 3 4 5 6 
#
# 1 151.7921 37.9225 11.1402 0.0000 0.0000 0.0000
# 2 37.9225 96.4806 4.7526 0.0000 0.0000 0.0000
# 3 11.1402 4.7526 27.9278 0.0000 0.0000 0.0000
# 4 0.0000 0.0000 0.0000 31.7707 0.0000 0.0000
# 5 0.0000 0.0000 0.0000 0.0000 24.5691 0.0000
# 6 0.0000 0.0000 0.0000 0.0000 0.0000 54.3605
#
#
#
# Elastic Compliance Matrix: (Units=1/GPa)
#
#
# Indices 1 2 3 4 5 6 
#
# 1 0.007475 -0.002815 -0.002503 0.000000 0.000000 0.000000
# 2 -0.002815 0.011512 -0.000836 0.000000 0.000000 0.000000
# 3 -0.002503 -0.000836 0.036947 0.000000 0.000000 0.000000
# 4 0.000000 0.000000 0.000000 0.031476 0.000000 0.000000
# 5 0.000000 0.000000 0.000000 0.000000 0.040702 0.000000
# 6 0.000000 0.000000 0.000000 0.000000 0.000000 0.018396
#
#
# Mechanical properties :
#
#
# Convention : Reuss Voigt Hill
#
# Bulk Modulus (GPa) = 22.92160 42.64789 32.78474
# Shear Modulus (GPa) = 28.84222 36.96576 32.90399
#
# Velocity S-wave (km/s) = 3.30606 3.74280 3.53119
# Velocity P-wave (km/s) = 4.82284 5.90253 5.38979
#
# Compressibility (1/GPa) = 0.04362698
#
# Stress axis : x y z
#
# Youngs Moduli (GPa) = 133.78194 86.86333 27.06561
#
# Poissons Ratio (x) = 0.24450 0.06774
# Poissons Ratio (y) = 0.37657 0.02264
# Poissons Ratio (z) = 0.33481 0.07264
#
# Static dielectric constant tensor:
#      x y z
#    x 1.517390 0.000000 0.000000 
#    y 0.000000 2.072460 0.000000 
#    z 0.000000 0.000000 2.632100 
# 
# From -- ./inp_files/23867.got.cif
#   From: 2010.05.17/outbox.cif.g08.bks.cpg/sg60_12_cif.got.tgz:23867.got - 2010.06.03 14:59:27.
