data_PCOD9458382
_publ_section_title
;
Structure prediction by ZEFSAII (Michael W. Deem and Ramdas Pophale) SiO2 
 PCOD9458382
Probable space group: P B C N
;
_chemical_formula_sum "Si O2"
_cell_formula_units_Z 56
_cell_length_a 17.017677
_cell_length_b 10.973475
_cell_length_c 14.005065
_cell_angle_alpha 90.000000
_cell_angle_beta 90.000000
_cell_angle_gamma 90.000000
_cell_volume 2615.348597
_symmetry_space_group_name_H-M "P B C N"
_symmetry_group_IT_number 60
_symmetry_cell_setting 'orthorhombic'
loop_
_space_group_symop_operation_xyz
x,y,z
1/2-x,1/2-y,1/2+z
1/2+x,1/2-y,-z
-x,y,1/2-z
-x,-y,-z
1/2+x,1/2+y,1/2-z
1/2-x,1/2+y,z
x,-y,1/2+z
loop_
_atom_site_type_symbol
_atom_site_label
_atom_site_fract_x
_atom_site_fract_y
_atom_site_fract_z
Si Si1 0.101135 0.897346 0.522240
Si Si2 0.071790 0.485369 0.074906
Si Si3 0.178640 0.334080 0.935302
Si Si4 0.355380 0.609090 0.392521
Si Si5 0.489650 0.761278 0.356604
Si Si6 0.593377 0.536505 0.781999
Si Si7 0.906443 0.681894 0.268765
O O1 0.162171 0.804351 0.472293
O O2 0.031712 0.806139 0.554209
O O3 0.092553 0.012114 0.452666
O O4 0.113315 0.965817 0.621577
O O5 0.032741 0.389455 0.147884
O O6 0.103405 0.597079 0.137955
O O7 0.139015 0.422606 0.012633
O O8 0.000000 0.500000 0.000000
O O9 0.269654 0.366779 0.930830
O O10 0.138290 0.350670 0.830402
O O11 0.399097 0.738365 0.379510
O O12 0.354903 0.536489 0.293874
O O13 0.500000 0.707589 0.250000
O O14 0.500000 0.538053 0.750000
O O15 0.615048 0.678152 0.790230
O O16 0.000000 0.676851 0.250000
#
# Coordination Sequence:
#
# PCOD9458382 Si02
#       7
#     8   8   8   8   8   8   8
#     4  11  23  46  69 107 136 182 249 287 363 444
#     4  11  25  44  71 104 142 195 243 286 362 452
#     4  11  27  46  69 104 151 186 243 309 367 430
#     4  12  24  44  71 107 142 186 236 315 366 420
#     4  11  23  43  74 102 132 186 239 295 351 438
#     4  11  23  44  79 105 135 188 244 302 360 439
#     4  11  23  47  72 103 143 190 240 296 363 440
#
# _framework density 21.41206
#
# number of rings (size 3 to 8) (size 9 to 14) (size 15 to 20)
#    0.000    0.857    5.714    0.857    2.000    2.286 
#    2.571    0.000    0.000    0.000    0.000    0.000 
#    0.000    0.000    0.000    0.000    0.000    0.000 
#
# Total GULP energy -312135.784946 kJ/mol
# GULP energy per Si atom -5573.853303 kJ/mol
# Density = 2.136332 g / cm^3
# Si number density = 21.412060 Si / 1000 Ang^3
#
#
#
# Elastic Constant Matrix: (Units=GPa)
#
#
# Indices 1 2 3 4 5 6 
#
# 1 78.0951 21.6887 9.1531 0.0000 0.0000 0.0000
# 2 21.6887 92.1738 29.4506 0.0000 0.0000 0.0000
# 3 9.1531 29.4506 105.0552 0.0000 0.0000 0.0000
# 4 0.0000 0.0000 0.0000 38.5832 0.0000 0.0000
# 5 0.0000 0.0000 0.0000 0.0000 23.6650 0.0000
# 6 0.0000 0.0000 0.0000 0.0000 0.0000 15.6187
#
#
#
# Elastic Compliance Matrix: (Units=1/GPa)
#
#
# Indices 1 2 3 4 5 6 
#
# 1 0.013710 -0.003124 -0.000319 0.000000 0.000000 0.000000
# 2 -0.003124 0.012628 -0.003268 0.000000 0.000000 0.000000
# 3 -0.000319 -0.003268 0.010463 0.000000 0.000000 0.000000
# 4 0.000000 0.000000 0.000000 0.025918 0.000000 0.000000
# 5 0.000000 0.000000 0.000000 0.000000 0.042256 0.000000
# 6 0.000000 0.000000 0.000000 0.000000 0.000000 0.064026
#
#
# Mechanical properties :
#
#
# Convention : Reuss Voigt Hill
#
# Bulk Modulus (GPa) = 42.77282 43.98988 43.38135
# Shear Modulus (GPa) = 26.28591 29.90884 28.09737
#
# Velocity S-wave (km/s) = 3.50754 3.74146 3.62639
# Velocity P-wave (km/s) = 6.03517 6.26528 6.15130
#
# Compressibility (1/GPa) = 0.02337933
#
# Stress axis : x y z
#
# Youngs Moduli (GPa) = 72.94003 79.18695 95.57774
#
# Poissons Ratio (x) = 0.24739 0.03046
# Poissons Ratio (y) = 0.22788 0.31234
# Poissons Ratio (z) = 0.02325 0.25878
#
# Static dielectric constant tensor:
#      x y z
#    x 2.100040 0.000000 0.000000 
#    y 0.000000 1.967860 0.000000 
#    z 0.000000 0.000000 2.629300 
# 
# From -- ./inp_files/16845.got.cif
#   From: 2010.05.17/outbox.cif.g08.bks.cpg/sg60_9_cif.got.tgz:16845.got - 2010.06.03 14:59:27.
