data_PCOD9458939
_publ_section_title
;
Structure prediction by ZEFSAII (Michael W. Deem and Ramdas Pophale) SiO2 
 PCOD9458939
Probable space group: P B C N
;
_chemical_formula_sum "Si O2"
_cell_formula_units_Z 56
_cell_length_a 15.000000
_cell_length_b 9.000000
_cell_length_c 21.000000
_cell_angle_alpha 90.000000
_cell_angle_beta 90.000000
_cell_angle_gamma 90.000000
_cell_volume 2835.000000
_symmetry_space_group_name_H-M "P B C N"
_symmetry_group_IT_number 60
_symmetry_cell_setting 'orthorhombic'
loop_
_space_group_symop_operation_xyz
x,y,z
1/2-x,1/2-y,1/2+z
1/2+x,1/2-y,-z
-x,y,1/2-z
-x,-y,-z
1/2+x,1/2+y,1/2-z
1/2-x,1/2+y,z
x,-y,1/2+z
loop_
_atom_site_type_symbol
_atom_site_label
_atom_site_fract_x
_atom_site_fract_y
_atom_site_fract_z
Si Si1 0.245986 0.918943 0.652566
Si Si2 0.846384 0.101255 0.176559
Si Si3 0.161623 0.661255 0.020787
Si Si4 0.748681 0.664439 0.756261
Si Si5 0.969707 0.223666 0.529384
Si Si6 0.219722 0.621585 0.446454
Si Si7 0.963144 0.064400 0.392790
O O1 0.291222 0.881654 0.586290
O O2 0.287003 0.809452 0.706898
O O3 0.135997 0.927345 0.641287
O O4 0.278123 0.074533 0.681180
O O5 0.824981 0.255366 0.214274
O O6 0.775332 0.109427 0.118590
O O7 0.949471 0.098468 0.151984
O O8 0.815299 0.951895 0.217219
O O9 0.054917 0.666683 0.027437
O O10 0.207867 0.812990 0.996517
O O11 0.189364 0.540179 0.968671
O O12 0.872553 0.281952 0.552975
O O13 0.957977 0.167707 0.456219
O O14 0.007965 0.093812 0.575682
#
# Coordination Sequence:
#
# PCOD9458939 Si02
#       7
#     8   8   8   8   8   8   8
#     4  11  23  43  66  93 128 176 218 275 322 396
#     4  11  23  43  66  93 128 176 218 275 322 396
#     4  12  23  40  66  98 136 169 214 281 343 398
#     4  10  24  42  62  88 124 172 228 254 320 380
#     4  11  23  38  61 107 133 167 213 267 351 399
#     4  12  23  40  66  98 136 169 214 281 343 398
#     4  11  22  39  69  95 131 170 220 271 327 406
#
# _framework density 19.753086
#
# number of rings (size 3 to 8) (size 9 to 14) (size 15 to 20)
#    0.000    0.857    2.857    5.571    0.000    2.286 
#    0.000    2.857    0.000    5.143    0.000    0.000 
#    0.000    0.000    0.000    0.000    0.000    0.000 
#
# Total GULP energy -312104.302537 kJ/mol
# GULP energy per Si atom -5573.291117 kJ/mol
# Density = 1.970813 g / cm^3
# Si number density = 19.753086 Si / 1000 Ang^3
#
#
#
# Elastic Constant Matrix: (Units=GPa)
#
#
# Indices 1 2 3 4 5 6 
#
# 1 130.1443 18.3935 44.6755 0.0000 0.0000 0.0000
# 2 18.3935 43.5068 2.6638 0.0000 0.0000 0.0000
# 3 44.6755 2.6638 88.9135 0.0000 0.0000 0.0000
# 4 0.0000 0.0000 0.0000 43.3474 0.0000 0.0000
# 5 0.0000 0.0000 0.0000 0.0000 30.2329 0.0000
# 6 0.0000 0.0000 0.0000 0.0000 0.0000 28.7397
#
#
#
# Elastic Compliance Matrix: (Units=1/GPa)
#
#
# Indices 1 2 3 4 5 6 
#
# 1 0.009901 -0.003888 -0.004858 0.000000 0.000000 0.000000
# 2 -0.003888 0.024554 0.001218 0.000000 0.000000 0.000000
# 3 -0.004858 0.001218 0.013652 0.000000 0.000000 0.000000
# 4 0.000000 0.000000 0.000000 0.023069 0.000000 0.000000
# 5 0.000000 0.000000 0.000000 0.000000 0.033076 0.000000
# 6 0.000000 0.000000 0.000000 0.000000 0.000000 0.034795
#
#
# Mechanical properties :
#
#
# Convention : Reuss Voigt Hill
#
# Bulk Modulus (GPa) = 30.25764 43.78112 37.01938
# Shear Modulus (GPa) = 30.28066 33.58612 31.93339
#
# Velocity S-wave (km/s) = 3.91955 4.12794 4.02509
# Velocity P-wave (km/s) = 5.98623 6.70315 6.35481
#
# Compressibility (1/GPa) = 0.03304951
#
# Stress axis : x y z
#
# Youngs Moduli (GPa) = 100.99859 40.72614 73.25168
#
# Poissons Ratio (x) = 0.15836 0.35589
# Poissons Ratio (y) = 0.39273 -0.08923
# Poissons Ratio (z) = 0.49069 -0.04961
#
# Static dielectric constant tensor:
#      x y z
#    x 1.657680 0.000000 0.000000 
#    y 0.000000 1.781230 0.000000 
#    z 0.000000 0.000000 1.737130 
# 
# From -- ./inp_files/22896.got.cif
#   From: 2010.05.17/outbox.ucp.g08.bks.cvg/sg60_12_cif.got.tgz:22896.got - 2010.06.11 16:26:41.
