data_PCOD9458271
_publ_section_title
;
Structure prediction by ZEFSAII (Michael W. Deem and Ramdas Pophale) SiO2 
 PCOD9458271
Probable space group: P B C N
;
_chemical_formula_sum "Si O2"
_cell_formula_units_Z 48
_cell_length_a 5.367044
_cell_length_b 27.279586
_cell_length_c 13.458215
_cell_angle_alpha 90.000000
_cell_angle_beta 90.000000
_cell_angle_gamma 90.000000
_cell_volume 1970.427195
_symmetry_space_group_name_H-M "P B C N"
_symmetry_group_IT_number 60
_symmetry_cell_setting 'orthorhombic'
loop_
_space_group_symop_operation_xyz
x,y,z
1/2-x,1/2-y,1/2+z
1/2+x,1/2-y,-z
-x,y,1/2-z
-x,-y,-z
1/2+x,1/2+y,1/2-z
1/2-x,1/2+y,z
x,-y,1/2+z
loop_
_atom_site_type_symbol
_atom_site_label
_atom_site_fract_x
_atom_site_fract_y
_atom_site_fract_z
Si Si1 0.526844 0.098922 0.108224
Si Si2 0.000000 0.326350 0.750000
Si Si3 0.760346 0.249333 0.132322
Si Si4 0.851779 0.185200 0.453549
Si Si5 0.196308 0.881351 0.083395
Si Si6 0.000000 0.488844 0.750000
Si Si7 0.000000 0.947502 0.250000
Si Si8 0.500000 0.170547 0.750000
O O1 0.668109 0.131431 0.193585
O O2 0.303117 0.137362 0.082333
O O3 0.462909 0.047472 0.156566
O O4 0.677758 0.090647 0.007919
O O5 0.030101 0.285395 0.838367
O O6 0.788200 0.293297 0.209656
O O7 0.000939 0.213552 0.132905
O O8 0.775936 0.275064 0.025323
O O9 0.059109 0.163129 0.529054
O O10 0.402777 0.861119 0.158937
O O11 0.019045 0.913691 0.152131
O O12 0.248618 0.520992 0.757981
#
# Coordination Sequence:
#
# PCOD9458271 Si02
#       8
#     8   4   8   8   8   4   4   4
#     4  11  26  49  76 106 155 194 254 313 401 456
#     4  11  22  43  63 106 148 208 245 311 360 437
#     4  12  22  38  68 104 156 197 266 297 349 446
#     4  12  24  43  70 109 149 210 253 308 376 446
#     4  12  26  49  76 107 154 200 248 325 390 471
#     4  11  31  54  84 119 144 197 254 336 409 495
#     4  12  30  53  83 115 148 189 265 323 416 488
#     4  12  23  42  68 110 148 208 246 304 367 438
#
# _framework density 24.360201
#
# number of rings (size 3 to 8) (size 9 to 14) (size 15 to 20)
#    0.000    0.333    3.333    5.500    4.667    1.333 
#    0.000    0.000    0.000    0.000    0.000    0.000 
#    0.000    0.000    0.000    0.000    0.000    0.000 
#
# Total GULP energy -267944.016643 kJ/mol
# GULP energy per Si atom -5582.167013 kJ/mol
# Density = 2.430476 g / cm^3
# Si number density = 24.360201 Si / 1000 Ang^3
#
#
#
# Elastic Constant Matrix: (Units=GPa)
#
#
# Indices 1 2 3 4 5 6 
#
# 1 89.3971 39.6084 23.3829 0.0000 0.0000 0.0000
# 2 39.6084 112.8821 49.2895 0.0000 0.0000 0.0000
# 3 23.3829 49.2895 153.5882 0.0000 0.0000 0.0000
# 4 0.0000 0.0000 0.0000 26.0583 0.0000 0.0000
# 5 0.0000 0.0000 0.0000 0.0000 38.4918 0.0000
# 6 0.0000 0.0000 0.0000 0.0000 0.0000 40.1193
#
#
#
# Elastic Compliance Matrix: (Units=1/GPa)
#
#
# Indices 1 2 3 4 5 6 
#
# 1 0.013295 -0.004397 -0.000613 0.000000 0.000000 0.000000
# 2 -0.004397 0.011757 -0.003104 0.000000 0.000000 0.000000
# 3 -0.000613 -0.003104 0.007600 0.000000 0.000000 0.000000
# 4 0.000000 0.000000 0.000000 0.038376 0.000000 0.000000
# 5 0.000000 0.000000 0.000000 0.000000 0.025980 0.000000
# 6 0.000000 0.000000 0.000000 0.000000 0.000000 0.024926
#
#
# Mechanical properties :
#
#
# Convention : Reuss Voigt Hill
#
# Bulk Modulus (GPa) = 60.88517 64.49210 62.68864
# Shear Modulus (GPa) = 34.81057 37.17298 35.99178
#
# Velocity S-wave (km/s) = 3.78430 3.91061 3.84797
# Velocity P-wave (km/s) = 6.64399 6.84999 6.74777
#
# Compressibility (1/GPa) = 0.01642436
#
# Stress axis : x y z
#
# Youngs Moduli (GPa) = 75.21852 85.05668 131.57518
#
# Poissons Ratio (x) = 0.37401 0.08064
# Poissons Ratio (y) = 0.33075 0.40835
# Poissons Ratio (z) = 0.04610 0.26398
#
# Static dielectric constant tensor:
#      x y z
#    x 2.170310 0.000000 0.000000 
#    y 0.000000 1.868420 0.000000 
#    z 0.000000 0.000000 2.099120 
# 
# From -- ./inp_files/13993.got.cif
#   From: 2010.05.17/outbox.cif.g08.bks.cpg/sg60_7_cif.got.tgz:13993.got - 2010.06.03 14:59:27.
