data_PCOD9458571
_publ_section_title
;
Structure prediction by ZEFSAII (Michael W. Deem and Ramdas Pophale) SiO2 
 PCOD9458571
Probable space group: P B C N
;
_chemical_formula_sum "Si O2"
_cell_formula_units_Z 52
_cell_length_a 8.163342
_cell_length_b 19.333028
_cell_length_c 14.131106
_cell_angle_alpha 90.000000
_cell_angle_beta 90.000000
_cell_angle_gamma 90.000000
_cell_volume 2230.201099
_symmetry_space_group_name_H-M "P B C N"
_symmetry_group_IT_number 60
_symmetry_cell_setting 'orthorhombic'
loop_
_space_group_symop_operation_xyz
x,y,z
1/2-x,1/2-y,1/2+z
1/2+x,1/2-y,-z
-x,y,1/2-z
-x,-y,-z
1/2+x,1/2+y,1/2-z
1/2-x,1/2+y,z
x,-y,1/2+z
loop_
_atom_site_type_symbol
_atom_site_label
_atom_site_fract_x
_atom_site_fract_y
_atom_site_fract_z
Si Si1 0.687829 0.004377 0.031534
Si Si2 0.677124 0.431827 0.855802
Si Si3 0.000000 0.399450 0.750000
Si Si4 0.500000 0.690333 0.250000
Si Si5 0.854419 0.716743 0.583314
Si Si6 0.130134 0.341581 0.947195
Si Si7 0.500000 0.463325 0.250000
Si Si8 0.680089 0.091638 0.704608
O O1 0.721860 0.086644 0.025988
O O2 0.684291 0.974536 0.136451
O O3 0.500000 0.000000 0.000000
O O4 0.784298 0.951941 0.963279
O O5 0.851572 0.442079 0.800350
O O6 0.621926 0.359152 0.810348
O O7 0.521989 0.481301 0.834136
O O8 0.926489 0.354491 0.662057
O O9 0.565026 0.739593 0.167946
O O10 0.741320 0.774358 0.536542
O O11 0.768073 0.655580 0.639442
O O12 0.973620 0.676365 0.511694
O O13 0.662289 0.419465 0.269377
O O14 0.500000 0.100967 0.750000
#
# Coordination Sequence:
#
# PCOD9458571 Si02
#       8
#     8   8   4   4   8   8   4   8
#     4  12  24  45  78 115 147 209 266 330 401 474
#     4  11  25  45  76 115 149 201 265 322 398 474
#     4  12  22  47  77 109 153 210 250 314 410 471
#     4  11  26  50  73 109 163 210 256 332 397 474
#     4  12  28  50  74 110 158 210 265 322 403 481
#     4  12  29  46  78 113 153 212 262 328 398 484
#     4  11  28  43  76 114 150 204 262 330 395 475
#     4  12  27  51  75 115 161 207 266 332 400 477
#
# _framework density 23.316282000000001
#
# number of rings (size 3 to 8) (size 9 to 14) (size 15 to 20)
#    0.000    0.308    5.385    1.846    8.615    2.462 
#    0.000    0.000    0.000    0.000    0.000    0.000 
#    0.000    0.000    0.000    0.000    0.000    0.000 
#
# Total GULP energy -289950.126401 kJ/mol
# GULP energy per Si atom -5575.963969 kJ/mol
# Density = 2.326321 g / cm^3
# Si number density = 23.316282 Si / 1000 Ang^3
#
#
#
# Elastic Constant Matrix: (Units=GPa)
#
#
# Indices 1 2 3 4 5 6 
#
# 1 53.4032 23.2777 -8.2834 0.0000 0.0000 0.0000
# 2 23.2777 137.3214 27.2435 0.0000 0.0000 0.0000
# 3 -8.2834 27.2435 91.4099 0.0000 0.0000 0.0000
# 4 0.0000 0.0000 0.0000 14.0694 0.0000 0.0000
# 5 0.0000 0.0000 0.0000 0.0000 34.1559 0.0000
# 6 0.0000 0.0000 0.0000 0.0000 0.0000 27.0175
#
#
#
# Elastic Compliance Matrix: (Units=1/GPa)
#
#
# Indices 1 2 3 4 5 6 
#
# 1 0.021043 -0.004193 0.003157 0.000000 0.000000 0.000000
# 2 -0.004193 0.008575 -0.002936 0.000000 0.000000 0.000000
# 3 0.003157 -0.002936 0.012101 0.000000 0.000000 0.000000
# 4 0.000000 0.000000 0.000000 0.071076 0.000000 0.000000
# 5 0.000000 0.000000 0.000000 0.000000 0.029278 0.000000
# 6 0.000000 0.000000 0.000000 0.000000 0.000000 0.037013
#
#
# Mechanical properties :
#
#
# Convention : Reuss Voigt Hill
#
# Bulk Modulus (GPa) = 29.60841 40.73447 35.17144
# Shear Modulus (GPa) = 25.21575 31.04167 28.12871
#
# Velocity S-wave (km/s) = 3.29213 3.65270 3.47709
# Velocity P-wave (km/s) = 5.21316 5.94121 5.58905
#
# Compressibility (1/GPa) = 0.03377418
#
# Stress axis : x y z
#
# Youngs Moduli (GPa) = 47.52200 116.61206 82.63949
#
# Poissons Ratio (x) = 0.48899 -0.26086
# Poissons Ratio (y) = 0.19927 0.24261
# Poissons Ratio (z) = -0.15001 0.34235
#
# Static dielectric constant tensor:
#      x y z
#    x 2.011000 0.000000 0.000000 
#    y 0.000000 1.931690 0.000000 
#    z 0.000000 0.000000 -1.129770 
# 
# From -- ./inp_files/15227.got.cif
#   From: 2010.05.17/outbox.cif.g08.bks.cpg/sg60_8_cif.got.tgz:15227.got - 2010.06.03 14:59:27.
