data_PCOD9458032
_publ_section_title
;
Structure prediction by ZEFSAII (Michael W. Deem and Ramdas Pophale) SiO2 
 PCOD9458032
Probable space group: P B C N
;
_chemical_formula_sum "Si O2"
_cell_formula_units_Z 48
_cell_length_a 9.572498
_cell_length_b 14.093396
_cell_length_c 17.056054
_cell_angle_alpha 90.000000
_cell_angle_beta 90.000000
_cell_angle_gamma 90.000000
_cell_volume 2301.015275
_symmetry_space_group_name_H-M "P B C N"
_symmetry_group_IT_number 60
_symmetry_cell_setting 'orthorhombic'
loop_
_space_group_symop_operation_xyz
x,y,z
1/2-x,1/2-y,1/2+z
1/2+x,1/2-y,-z
-x,y,1/2-z
-x,-y,-z
1/2+x,1/2+y,1/2-z
1/2-x,1/2+y,z
x,-y,1/2+z
loop_
_atom_site_type_symbol
_atom_site_label
_atom_site_fract_x
_atom_site_fract_y
_atom_site_fract_z
Si Si1 0.940046 0.864284 0.377019
Si Si2 0.587868 0.053119 0.066831
Si Si3 0.748332 0.381436 0.081245
Si Si4 0.356456 0.578536 0.099882
Si Si5 0.396979 0.169196 0.179624
Si Si6 0.135825 0.176729 0.449030
O O1 0.885113 0.783145 0.319913
O O2 0.917649 0.817719 0.462399
O O3 0.105733 0.877764 0.370191
O O4 0.870105 0.967256 0.380649
O O5 0.484595 0.125629 0.107793
O O6 0.724109 0.114229 0.045808
O O7 0.652298 0.964037 0.113451
O O8 0.500000 0.000000 0.000000
O O9 0.823777 0.280269 0.081278
O O10 0.703916 0.406583 0.989724
O O11 0.255725 0.626275 0.164012
O O12 0.511020 0.624896 0.097544
O O13 0.500000 0.141116 0.250000
#
# Coordination Sequence:
#
# PCOD9458032 Si02
#       6
#     8   8   8   8   8   8
#     4  11  20  40  66  93 130 170 217 277 340 398
#     4  12  21  39  66  98 131 169 225 284 334 394
#     4  11  20  35  68 101 128 164 220 280 335 393
#     4  11  22  40  64 100 133 171 221 280 340 401
#     4  12  27  45  63  93 136 178 225 277 346 417
#     4  11  20  35  66 103 130 161 217 279 337 391
#
# _framework density 20.860357
#
# number of rings (size 3 to 8) (size 9 to 14) (size 15 to 20)
#    0.000    0.667    8.333    1.000    2.333    1.333 
#    3.000    0.833    0.000    0.000    0.000    0.000 
#    0.000    0.000    0.000    0.000    0.000    0.000 
#
# Total GULP energy -267843.097182 kJ/mol
# GULP energy per Si atom -5580.064525 kJ/mol
# Density = 2.081288 g / cm^3
# Si number density = 20.860357 Si / 1000 Ang^3
#
#
#
# Elastic Constant Matrix: (Units=GPa)
#
#
# Indices 1 2 3 4 5 6 
#
# 1 114.2025 45.5974 15.7867 0.0000 0.0000 0.0000
# 2 45.5974 167.6743 18.4958 0.0000 0.0000 0.0000
# 3 15.7867 18.4958 30.7301 0.0000 0.0000 0.0000
# 4 0.0000 0.0000 0.0000 5.0811 0.0000 0.0000
# 5 0.0000 0.0000 0.0000 0.0000 14.3361 0.0000
# 6 0.0000 0.0000 0.0000 0.0000 0.0000 37.9421
#
#
#
# Elastic Compliance Matrix: (Units=1/GPa)
#
#
# Indices 1 2 3 4 5 6 
#
# 1 0.010228 -0.002358 -0.003835 0.000000 0.000000 0.000000
# 2 -0.002358 0.006932 -0.002961 0.000000 0.000000 0.000000
# 3 -0.003835 -0.002961 0.036293 0.000000 0.000000 0.000000
# 4 0.000000 0.000000 0.000000 0.196809 0.000000 0.000000
# 5 0.000000 0.000000 0.000000 0.000000 0.069754 0.000000
# 6 0.000000 0.000000 0.000000 0.000000 0.000000 0.026356
#
#
# Mechanical properties :
#
#
# Convention : Reuss Voigt Hill
#
# Bulk Modulus (GPa) = 28.45310 52.48520 40.46915
# Shear Modulus (GPa) = 13.28392 26.98699 20.13545
#
# Velocity S-wave (km/s) = 2.52623 3.60070 3.11022
# Velocity P-wave (km/s) = 4.70941 6.51933 5.68683
#
# Compressibility (1/GPa) = 0.03514555
#
# Stress axis : x y z
#
# Youngs Moduli (GPa) = 97.76949 144.26124 27.55321
#
# Poissons Ratio (x) = 0.34023 0.10566
# Poissons Ratio (y) = 0.23058 0.08157
# Poissons Ratio (z) = 0.37494 0.42710
#
# Static dielectric constant tensor:
#      x y z
#    x 1.939440 0.000000 0.000000 
#    y 0.000000 1.759080 0.000000 
#    z 0.000000 0.000000 2.000940 
# 
# From -- ./inp_files/19285.got.cif
#   From: 2010.05.17/outbox.cif.g08.bks.cpg/sg60_10_cif.got.tgz:19285.got - 2010.06.03 14:59:27.
