data_PCOD9458681
_publ_section_title
;
Structure prediction by ZEFSAII (Michael W. Deem and Ramdas Pophale) SiO2 
 PCOD9458681
Probable space group: P B C N
;
_chemical_formula_sum "Si O2"
_cell_formula_units_Z 32
_cell_length_a 8.152108
_cell_length_b 21.898280
_cell_length_c 7.734522
_cell_angle_alpha 90.000000
_cell_angle_beta 90.000000
_cell_angle_gamma 90.000000
_cell_volume 1380.744774
_symmetry_space_group_name_H-M "P B C N"
_symmetry_group_IT_number 60
_symmetry_cell_setting 'orthorhombic'
loop_
_space_group_symop_operation_xyz
x,y,z
1/2-x,1/2-y,1/2+z
1/2+x,1/2-y,-z
-x,y,1/2-z
-x,-y,-z
1/2+x,1/2+y,1/2-z
1/2-x,1/2+y,z
x,-y,1/2+z
loop_
_atom_site_type_symbol
_atom_site_label
_atom_site_fract_x
_atom_site_fract_y
_atom_site_fract_z
Si Si1 0.000000 0.352811 0.250000
Si Si2 0.735606 0.313851 0.003561
Si Si3 0.000000 0.742462 0.250000
Si Si4 0.671848 0.558859 0.344515
Si Si5 0.648666 0.952249 0.502331
O O1 0.131198 0.312495 0.345539
O O2 0.095265 0.396184 0.115168
O O3 0.841842 0.292176 0.835833
O O4 0.690054 0.384960 0.974451
O O5 0.579154 0.279406 0.086436
O O6 0.500000 0.562825 0.250000
O O7 0.702074 0.492648 0.427682
O O8 0.807494 0.566529 0.194907
O O9 0.500000 0.000000 0.500000
#
# Coordination Sequence:
#
# PCOD9458681 Si02
#       5
#     4   8   4   8   8
#     4  12  24  43  78 102 146 185 236 286 368 434
#     4  12  28  49  76 104 141 190 246 309 368 425
#     4  12  30  51  76 104 142 187 258 312 366 424
#     4  12  26  42  72 104 149 185 233 292 364 430
#     4  12  22  44  69 109 145 190 230 279 353 457
#
# _framework density 23.175899000000001
#
# number of rings (size 3 to 8) (size 9 to 14) (size 15 to 20)
#    0.000    0.000    5.000    3.750    7.000    0.000 
#    2.250    0.000    0.000    0.000    0.000    0.000 
#    0.000    0.000    0.000    0.000    0.000    0.000 
#
# Total GULP energy -178994.807951 kJ/mol
# GULP energy per Si atom -5593.587748 kJ/mol
# Density = 2.312315 g / cm^3
# Si number density = 23.175899 Si / 1000 Ang^3
#
#
#
# Elastic Constant Matrix: (Units=GPa)
#
#
# Indices 1 2 3 4 5 6 
#
# 1 98.3184 16.9795 5.0227 0.0000 0.0000 0.0000
# 2 16.9795 51.2511 2.9477 0.0000 0.0000 0.0000
# 3 5.0227 2.9477 57.2628 0.0000 0.0000 0.0000
# 4 0.0000 0.0000 0.0000 49.8208 0.0000 0.0000
# 5 0.0000 0.0000 0.0000 0.0000 52.8016 0.0000
# 6 0.0000 0.0000 0.0000 0.0000 0.0000 23.3589
#
#
#
# Elastic Compliance Matrix: (Units=1/GPa)
#
#
# Indices 1 2 3 4 5 6 
#
# 1 0.010822 -0.003541 -0.000767 0.000000 0.000000 0.000000
# 2 -0.003541 0.020728 -0.000756 0.000000 0.000000 0.000000
# 3 -0.000767 -0.000756 0.017570 0.000000 0.000000 0.000000
# 4 0.000000 0.000000 0.000000 0.020072 0.000000 0.000000
# 5 0.000000 0.000000 0.000000 0.000000 0.018939 0.000000
# 6 0.000000 0.000000 0.000000 0.000000 0.000000 0.042810
#
#
# Mechanical properties :
#
#
# Convention : Reuss Voigt Hill
#
# Bulk Modulus (GPa) = 25.64706 28.52576 27.08641
# Shear Modulus (GPa) = 32.45346 37.32174 34.88760
#
# Velocity S-wave (km/s) = 3.74613 4.01729 3.88408
# Velocity P-wave (km/s) = 5.45909 5.81836 5.64158
#
# Compressibility (1/GPa) = 0.03899082
#
# Stress axis : x y z
#
# Youngs Moduli (GPa) = 92.40633 48.24287 56.91664
#
# Poissons Ratio (x) = 0.17083 0.04365
# Poissons Ratio (y) = 0.32722 0.04305
# Poissons Ratio (z) = 0.07087 0.03649
#
# Static dielectric constant tensor:
#      x y z
#    x 1.839710 0.000000 0.000000 
#    y 0.000000 1.884180 0.000000 
#    z 0.000000 0.000000 1.877470 
# 
# From -- ./inp_files/3632.got.cif
#   From: 2010.05.17/outbox.cif.g08.bks.cpg/sg60_2_cif.got.tgz:3632.got - 2010.06.03 14:59:27.
