data_PCOD9458682
_publ_section_title
;
Structure prediction by ZEFSAII (Michael W. Deem and Ramdas Pophale) SiO2 
 PCOD9458682
Probable space group: P B C N
;
_chemical_formula_sum "Si O2"
_cell_formula_units_Z 36
_cell_length_a 11.461529
_cell_length_b 9.805775
_cell_length_c 12.966392
_cell_angle_alpha 90.000000
_cell_angle_beta 90.000000
_cell_angle_gamma 90.000000
_cell_volume 1457.282094
_symmetry_space_group_name_H-M "P B C N"
_symmetry_group_IT_number 60
_symmetry_cell_setting 'orthorhombic'
loop_
_space_group_symop_operation_xyz
x,y,z
1/2-x,1/2-y,1/2+z
1/2+x,1/2-y,-z
-x,y,1/2-z
-x,-y,-z
1/2+x,1/2+y,1/2-z
1/2-x,1/2+y,z
x,-y,1/2+z
loop_
_atom_site_type_symbol
_atom_site_label
_atom_site_fract_x
_atom_site_fract_y
_atom_site_fract_z
Si Si1 0.255083 0.742534 0.163025
Si Si2 0.418080 0.156815 0.336033
Si Si3 0.204440 0.497898 0.018896
Si Si4 0.071522 0.942778 0.405481
Si Si5 0.000000 0.836407 0.750000
O O1 0.193625 0.719054 0.273890
O O2 0.192144 0.622435 0.097894
O O3 0.245658 0.878114 0.093129
O O4 0.396206 0.734374 0.184786
O O5 0.500000 0.085829 0.250000
O O6 0.386904 0.068686 0.437464
O O7 0.477706 0.298137 0.371129
O O8 0.297632 0.566969 0.943241
O O9 0.069071 0.059243 0.321677
O O10 0.000000 0.000000 0.500000
#
# Coordination Sequence:
#
# PCOD9458682 Si02
#       5
#     8   8   8   8   4
#     4  12  27  45  77 110 149 193 250 308 372 441
#     4  12  26  46  73 108 154 193 243 311 375 445
#     4  12  25  46  73 110 146 195 246 309 371 443
#     4  12  22  45  78 103 138 198 253 293 357 459
#     4  12  22  44  76 104 136 200 252 286 358 458
#
# _framework density 24.703523000000001
#
# number of rings (size 3 to 8) (size 9 to 14) (size 15 to 20)
#    0.000    0.000    7.778    2.667    0.000    0.889 
#    2.000    0.000    0.000    0.000    0.000    0.000 
#    0.000    0.000    0.000    0.000    0.000    0.000 
#
# Total GULP energy -200932.861690 kJ/mol
# GULP energy per Si atom -5581.468380 kJ/mol
# Density = 2.464730 g / cm^3
# Si number density = 24.703523 Si / 1000 Ang^3
#
#
#
# Elastic Constant Matrix: (Units=GPa)
#
#
# Indices 1 2 3 4 5 6 
#
# 1 80.0968 20.2033 31.8378 0.0000 0.0000 0.0000
# 2 20.2033 121.2727 52.8603 0.0000 0.0000 0.0000
# 3 31.8378 52.8603 124.1171 0.0000 0.0000 0.0000
# 4 0.0000 0.0000 0.0000 95.8423 0.0000 0.0000
# 5 0.0000 0.0000 0.0000 0.0000 44.6163 0.0000
# 6 0.0000 0.0000 0.0000 0.0000 0.0000 35.7499
#
#
#
# Elastic Compliance Matrix: (Units=1/GPa)
#
#
# Indices 1 2 3 4 5 6 
#
# 1 0.013989 -0.000941 -0.003188 0.000000 0.000000 0.000000
# 2 -0.000941 0.010189 -0.004098 0.000000 0.000000 0.000000
# 3 -0.003188 -0.004098 0.010620 0.000000 0.000000 0.000000
# 4 0.000000 0.000000 0.000000 0.010434 0.000000 0.000000
# 5 0.000000 0.000000 0.000000 0.000000 0.022413 0.000000
# 6 0.000000 0.000000 0.000000 0.000000 0.000000 0.027972
#
#
# Mechanical properties :
#
#
# Convention : Reuss Voigt Hill
#
# Bulk Modulus (GPa) = 54.51176 59.47661 56.99419
# Shear Modulus (GPa) = 42.30635 49.94739 46.12687
#
# Velocity S-wave (km/s) = 4.14280 4.50140 4.32582
# Velocity P-wave (km/s) = 6.70806 7.15159 6.93337
#
# Compressibility (1/GPa) = 0.01834467
#
# Stress axis : x y z
#
# Youngs Moduli (GPa) = 71.48304 98.14631 94.16317
#
# Poissons Ratio (x) = 0.09237 0.30016
# Poissons Ratio (y) = 0.06727 0.38588
# Poissons Ratio (z) = 0.22786 0.40220
#
# Static dielectric constant tensor:
#      x y z
#    x 2.045180 0.000000 0.000000 
#    y 0.000000 1.902560 0.000000 
#    z 0.000000 0.000000 2.684550 
# 
# From -- ./inp_files/10653.got.cif
#   From: 2010.05.17/outbox.cif.g08.bks.cpg/sg60_6_cif.got.tgz:10653.got - 2010.06.03 14:59:27.
