data_PCOD9458305
_publ_section_title
;
Structure prediction by ZEFSAII (Michael W. Deem and Ramdas Pophale) SiO2 
 PCOD9458305
Probable space group: P B C N
;
_chemical_formula_sum "Si O2"
_cell_formula_units_Z 48
_cell_length_a 32.129709
_cell_length_b 7.156926
_cell_length_c 7.692765
_cell_angle_alpha 90.000000
_cell_angle_beta 90.000000
_cell_angle_gamma 90.000000
_cell_volume 1768.950925
_symmetry_space_group_name_H-M "P B C N"
_symmetry_group_IT_number 60
_symmetry_cell_setting 'orthorhombic'
loop_
_space_group_symop_operation_xyz
x,y,z
1/2-x,1/2-y,1/2+z
1/2+x,1/2-y,-z
-x,y,1/2-z
-x,-y,-z
1/2+x,1/2+y,1/2-z
1/2-x,1/2+y,z
x,-y,1/2+z
loop_
_atom_site_type_symbol
_atom_site_label
_atom_site_fract_x
_atom_site_fract_y
_atom_site_fract_z
Si Si1 0.887183 0.205975 0.634515
Si Si2 0.029833 0.252814 0.980374
Si Si3 0.128852 0.423707 0.225692
Si Si4 0.215000 0.296374 0.273081
Si Si5 0.449363 0.815606 0.383216
Si Si6 0.200715 0.936037 0.420104
O O1 0.933809 0.128488 0.607887
O O2 0.877379 0.317635 0.454823
O O3 0.888570 0.367442 0.777306
O O4 0.845686 0.086841 0.657680
O O5 0.038825 0.260047 0.186026
O O6 0.980164 0.216371 0.977000
O O7 0.038489 0.463864 0.910188
O O8 0.177265 0.442229 0.274147
O O9 0.100601 0.311696 0.364781
O O10 0.260591 0.374877 0.299476
O O11 0.207422 0.180729 0.095838
O O12 0.206587 0.157042 0.432476
#
# Coordination Sequence:
#
# PCOD9458305 Si02
#       6
#     8   8   8   8   8   8
#     4   9  18  31  49  74 101 129 162 201 244 290
#     4   8  13  23  41  66  95 125 157 194 236 281
#     4   9  18  31  49  74 101 129 162 201 244 290
#     4  11  23  38  55  75 100 130 166 206 250 299
#     4   8  13  23  41  66  95 125 157 194 236 281
#     4  11  23  38  55  75 100 130 166 206 250 299
#
# _framework density 27.134727000000002
#
# number of rings (size 3 to 8) (size 9 to 14) (size 15 to 20)
#    0.000    2.667    0.000    2.000    0.000    5.333 
#    0.000    0.000    0.000    1.000    0.000    0.000 
#    0.000    0.000    0.000    0.000    0.000    0.333 
#
# Total GULP energy -268065.614829 kJ/mol
# GULP energy per Si atom -5584.700309 kJ/mol
# Density = 2.707297 g / cm^3
# Si number density = 27.134727 Si / 1000 Ang^3
#
#
#
# Elastic Constant Matrix: (Units=GPa)
#
#
# Indices 1 2 3 4 5 6 
#
# 1 137.2696 13.3197 47.3191 0.0000 0.0000 0.0000
# 2 13.3197 25.5124 -1.3103 0.0000 0.0000 0.0000
# 3 47.3191 -1.3103 95.1031 0.0000 0.0000 0.0000
# 4 0.0000 0.0000 0.0000 20.7003 0.0000 0.0000
# 5 0.0000 0.0000 0.0000 0.0000 20.7836 0.0000
# 6 0.0000 0.0000 0.0000 0.0000 0.0000 48.9329
#
#
#
# Elastic Compliance Matrix: (Units=1/GPa)
#
#
# Indices 1 2 3 4 5 6 
#
# 1 0.009428 -0.005167 -0.004762 0.000000 0.000000 0.000000
# 2 -0.005167 0.042056 0.003150 0.000000 0.000000 0.000000
# 3 -0.004762 0.003150 0.012928 0.000000 0.000000 0.000000
# 4 0.000000 0.000000 0.000000 0.048308 0.000000 0.000000
# 5 0.000000 0.000000 0.000000 0.000000 0.048115 0.000000
# 6 0.000000 0.000000 0.000000 0.000000 0.000000 0.020436
#
#
# Mechanical properties :
#
#
# Convention : Reuss Voigt Hill
#
# Bulk Modulus (GPa) = 19.66402 41.83800 30.75101
# Shear Modulus (GPa) = 23.60946 31.32048 27.46497
#
# Velocity S-wave (km/s) = 2.95292 3.40112 3.18491
# Velocity P-wave (km/s) = 4.34613 5.55658 4.98821
#
# Compressibility (1/GPa) = 0.05085430
#
# Stress axis : x y z
#
# Youngs Moduli (GPa) = 106.06882 23.77783 77.35322
#
# Poissons Ratio (x) = 0.12285 0.36836
# Poissons Ratio (y) = 0.54803 -0.24368
# Poissons Ratio (z) = 0.50511 -0.07490
#
# Static dielectric constant tensor:
#      x y z
#    x 2.293110 0.000000 0.000000 
#    y 0.000000 2.112360 0.000000 
#    z 0.000000 0.000000 2.132510 
# 
# From -- ./inp_files/8391.got.cif
#   From: 2010.05.17/outbox.cif.g08.bks.cpg/sg60_5_cif.got.tgz:8391.got - 2010.06.03 14:59:27.
