data_PCOD9458096
_publ_section_title
;
Structure prediction by ZEFSAII (Michael W. Deem and Ramdas Pophale) SiO2 
 PCOD9458096
Probable space group: P B C N
;
_chemical_formula_sum "Si O2"
_cell_formula_units_Z 48
_cell_length_a 14.433147
_cell_length_b 9.790055
_cell_length_c 17.680878
_cell_angle_alpha 90.000000
_cell_angle_beta 90.000000
_cell_angle_gamma 90.000000
_cell_volume 2498.331099
_symmetry_space_group_name_H-M "P B C N"
_symmetry_group_IT_number 60
_symmetry_cell_setting 'orthorhombic'
loop_
_space_group_symop_operation_xyz
x,y,z
1/2-x,1/2-y,1/2+z
1/2+x,1/2-y,-z
-x,y,1/2-z
-x,-y,-z
1/2+x,1/2+y,1/2-z
1/2-x,1/2+y,z
x,-y,1/2+z
loop_
_atom_site_type_symbol
_atom_site_label
_atom_site_fract_x
_atom_site_fract_y
_atom_site_fract_z
Si Si1 0.455401 0.150524 0.826941
Si Si2 0.181911 0.120069 0.274428
Si Si3 0.466359 0.390819 0.327594
Si Si4 0.833420 0.198992 0.544699
Si Si5 0.314615 0.019593 0.399029
Si Si6 0.102028 0.120541 0.120000
O O1 0.500000 0.093880 0.750000
O O2 0.365038 0.239892 0.802961
O O3 0.529211 0.258089 0.860243
O O4 0.416702 0.038195 0.883769
O O5 0.273264 0.082167 0.320611
O O6 0.182508 0.125981 0.183716
O O7 0.107085 0.004021 0.297287
O O8 0.500000 0.319599 0.250000
O O9 0.414236 0.307840 0.392042
O O10 0.547981 0.478567 0.366365
O O11 0.806952 0.357566 0.541536
O O12 0.865488 0.141205 0.464714
O O13 0.750669 0.103664 0.574156
#
# Coordination Sequence:
#
# PCOD9458096 Si02
#       6
#     8   8   8   8   8   8
#     4   9  18  36  61  80 110 148 190 233 283 336
#     4   8  16  35  58  79 106 148 187 221 275 346
#     4   8  16  33  58  81 105 144 192 226 275 348
#     4  11  22  35  56  82 119 146 184 239 292 337
#     4  11  21  37  57  82 113 152 188 227 288 343
#     4   9  18  36  59  84 109 149 190 233 287 340
#
# _framework density 19.212826
#
# number of rings (size 3 to 8) (size 9 to 14) (size 15 to 20)
#    0.000    2.667    1.667    2.500    0.000    1.333 
#    6.000    0.000    0.000    0.000    0.000    0.000 
#    0.000    0.000    0.000    0.000    0.000    0.000 
#
# Total GULP energy -267517.022249 kJ/mol
# GULP energy per Si atom -5573.271297 kJ/mol
# Density = 1.916910 g / cm^3
# Si number density = 19.212826 Si / 1000 Ang^3
#
#
#
# Elastic Constant Matrix: (Units=GPa)
#
#
# Indices 1 2 3 4 5 6 
#
# 1 33.8832 -0.7273 19.5593 0.0000 0.0000 0.0000
# 2 -0.7273 42.8564 -4.5352 0.0000 0.0000 0.0000
# 3 19.5593 -4.5352 95.7191 0.0000 0.0000 0.0000
# 4 0.0000 0.0000 0.0000 13.0276 0.0000 0.0000
# 5 0.0000 0.0000 0.0000 0.0000 22.7790 0.0000
# 6 0.0000 0.0000 0.0000 0.0000 0.0000 12.4653
#
#
#
# Elastic Compliance Matrix: (Units=1/GPa)
#
#
# Indices 1 2 3 4 5 6 
#
# 1 0.033461 -0.000156 -0.006845 0.000000 0.000000 0.000000
# 2 -0.000156 0.023452 0.001143 0.000000 0.000000 0.000000
# 3 -0.006845 0.001143 0.011900 0.000000 0.000000 0.000000
# 4 0.000000 0.000000 0.000000 0.076760 0.000000 0.000000
# 5 0.000000 0.000000 0.000000 0.000000 0.043900 0.000000
# 6 0.000000 0.000000 0.000000 0.000000 0.000000 0.080223
#
#
# Mechanical properties :
#
#
# Convention : Reuss Voigt Hill
#
# Bulk Modulus (GPa) = 17.51411 22.33914 19.92662
# Shear Modulus (GPa) = 16.64199 20.19850 18.42024
#
# Velocity S-wave (km/s) = 2.94631 3.24590 3.09972
# Velocity P-wave (km/s) = 4.55082 5.06954 4.81717
#
# Compressibility (1/GPa) = 0.05709683
#
# Stress axis : x y z
#
# Youngs Moduli (GPa) = 29.88546 42.64016 84.03304
#
# Poissons Ratio (x) = 0.00667 0.57520
# Poissons Ratio (y) = 0.00468 -0.09606
# Poissons Ratio (z) = 0.20456 -0.04874
#
# Static dielectric constant tensor:
#      x y z
#    x 1.676000 0.000000 0.000000 
#    y 0.000000 1.684190 0.000000 
#    z 0.000000 0.000000 1.671250 
# 
# From -- ./inp_files/20482.got.cif
#   From: 2010.05.17/outbox.cif.g08.bks.cpg/sg60_11_cif.got.tgz:20482.got - 2010.06.03 14:59:27.
