data_PCOD9458273
_publ_section_title
;
Structure prediction by ZEFSAII (Michael W. Deem and Ramdas Pophale) SiO2 
 PCOD9458273
Probable space group: P B C N
;
_chemical_formula_sum "Si O2"
_cell_formula_units_Z 40
_cell_length_a 6.741970
_cell_length_b 24.141658
_cell_length_c 10.577305
_cell_angle_alpha 90.000000
_cell_angle_beta 90.000000
_cell_angle_gamma 90.000000
_cell_volume 1721.586849
_symmetry_space_group_name_H-M "P B C N"
_symmetry_group_IT_number 60
_symmetry_cell_setting 'orthorhombic'
loop_
_space_group_symop_operation_xyz
x,y,z
1/2-x,1/2-y,1/2+z
1/2+x,1/2-y,-z
-x,y,1/2-z
-x,-y,-z
1/2+x,1/2+y,1/2-z
1/2-x,1/2+y,z
x,-y,1/2+z
loop_
_atom_site_type_symbol
_atom_site_label
_atom_site_fract_x
_atom_site_fract_y
_atom_site_fract_z
Si Si1 0.859140 0.463805 0.364221
Si Si2 0.153056 0.691720 0.139837
Si Si3 0.082261 0.707904 0.615631
Si Si4 0.569082 0.367793 0.375501
Si Si5 0.286462 0.920245 0.536998
O O1 0.697779 0.419333 0.325686
O O2 0.746561 0.517548 0.416678
O O3 0.000000 0.482008 0.250000
O O4 0.008079 0.432091 0.460937
O O5 0.345430 0.730206 0.145751
O O6 0.184816 0.625624 0.145001
O O7 0.000000 0.707166 0.250000
O O8 0.071237 0.703155 0.998108
O O9 0.273675 0.673936 0.564378
O O10 0.000000 0.684426 0.750000
O O11 0.500000 0.336598 0.250000
O O12 0.390482 0.392644 0.456274
#
# Coordination Sequence:
#
# PCOD9458273 Si02
#       5
#     8   8   8   8   8
#     4  11  22  43  66  98 139 181 242 290 358 422
#     4  12  25  45  68 103 142 185 230 293 364 413
#     4  12  25  46  72 103 143 188 239 298 350 436
#     4  12  22  41  69 102 131 186 242 292 354 420
#     4  11  24  41  67  97 141 184 227 301 354 425
#
# _framework density 23.234378
#
# number of rings (size 3 to 8) (size 9 to 14) (size 15 to 20)
#    0.000    0.400    4.000    6.000    0.000    0.000 
#    0.000    1.000    0.000    0.000    0.000    0.000 
#    0.000    0.000    0.000    0.000    0.000    0.000 
#
# Total GULP energy -223517.732194 kJ/mol
# GULP energy per Si atom -5587.943305 kJ/mol
# Density = 2.318150 g / cm^3
# Si number density = 23.234378 Si / 1000 Ang^3
#
#
#
# Elastic Constant Matrix: (Units=GPa)
#
#
# Indices 1 2 3 4 5 6 
#
# 1 74.4585 38.9039 16.6143 0.0000 0.0000 0.0000
# 2 38.9039 132.1243 7.9965 0.0000 0.0000 0.0000
# 3 16.6143 7.9965 65.5032 0.0000 0.0000 0.0000
# 4 0.0000 0.0000 0.0000 -24.5961 0.0000 0.0000
# 5 0.0000 0.0000 0.0000 0.0000 45.6612 0.0000
# 6 0.0000 0.0000 0.0000 0.0000 0.0000 49.2093
#
#
#
# Elastic Compliance Matrix: (Units=1/GPa)
#
#
# Indices 1 2 3 4 5 6 
#
# 1 0.016701 -0.004696 -0.003663 0.000000 0.000000 0.000000
# 2 -0.004696 0.008945 0.000099 0.000000 0.000000 0.000000
# 3 -0.003663 0.000099 0.016183 0.000000 0.000000 0.000000
# 4 0.000000 0.000000 0.000000 -0.040657 0.000000 0.000000
# 5 0.000000 0.000000 0.000000 0.000000 0.021900 0.000000
# 6 0.000000 0.000000 0.000000 0.000000 0.000000 0.020321
#
#
# Mechanical properties :
#
#
# Convention : Reuss Voigt Hill
#
# Bulk Modulus (GPa) = 39.50936 44.34613 41.92774
# Shear Modulus (GPa) = 73.15173 27.95966 50.55570
#
# Velocity S-wave (km/s) = 5.61717 3.47273 4.66972
# Velocity P-wave (km/s) = 7.68842 5.93361 6.86729
#
# Compressibility (1/GPa) = 0.02531046
#
# Stress axis : x y z
#
# Youngs Moduli (GPa) = 59.87591 111.78979 61.79181
#
# Poissons Ratio (x) = 0.52496 0.22633
# Poissons Ratio (y) = 0.28118 -0.00612
# Poissons Ratio (z) = 0.21932 -0.01107
#
# Static dielectric constant tensor:
#      x y z
#    x 1.886480 0.000000 0.000000 
#    y 0.000000 1.875150 0.000000 
#    z 0.000000 0.000000 1.890400 
# 
# From -- ./inp_files/9057.got.cif
#   From: 2010.05.17/outbox.cif.g08.bks.cpg/sg60_5_cif.got.tgz:9057.got - 2010.06.03 14:59:27.
