data_PCOD9458737
_publ_section_title
;
Structure prediction by ZEFSAII (Michael W. Deem and Ramdas Pophale) SiO2 
 PCOD9458737
Probable space group: P B C N
;
_chemical_formula_sum "Si O2"
_cell_formula_units_Z 32
_cell_length_a 5.003140
_cell_length_b 23.819047
_cell_length_c 11.868262
_cell_angle_alpha 90.000000
_cell_angle_beta 90.000000
_cell_angle_gamma 90.000000
_cell_volume 1414.341101
_symmetry_space_group_name_H-M "P B C N"
_symmetry_group_IT_number 60
_symmetry_cell_setting 'orthorhombic'
loop_
_space_group_symop_operation_xyz
x,y,z
1/2-x,1/2-y,1/2+z
1/2+x,1/2-y,-z
-x,y,1/2-z
-x,-y,-z
1/2+x,1/2+y,1/2-z
1/2-x,1/2+y,z
x,-y,1/2+z
loop_
_atom_site_type_symbol
_atom_site_label
_atom_site_fract_x
_atom_site_fract_y
_atom_site_fract_z
Si Si1 0.750849 0.132751 0.828651
Si Si2 0.067617 0.784767 0.979081
Si Si3 0.500000 0.658287 0.250000
Si Si4 0.500000 0.082685 0.250000
Si Si5 0.246230 0.493697 0.081691
O O1 0.500000 0.147031 0.750000
O O2 0.745797 0.066740 0.859649
O O3 0.000000 0.143593 0.750000
O O4 0.798438 0.167370 0.942847
O O5 0.941559 0.805956 0.861586
O O6 0.315269 0.742907 0.957243
O O7 0.239238 0.623139 0.290490
O O8 0.678831 0.042127 0.328875
O O9 0.500000 0.500000 0.000000
O O10 0.000000 0.500000 0.000000
#
# Coordination Sequence:
#
# PCOD9458737 Si02
#       5
#     8   8   4   4   8
#     4  12  26  46  74 112 151 193 250 307 377 456
#     4  12  28  49  78 107 145 201 253 323 388 444
#     4  12  28  50  75 110 151 194 262 314 376 474
#     4  12  24  46  73 108 151 200 240 300 382 448
#     4  12  25  43  73 107 154 198 242 299 369 453
#
# _framework density 22.625378000000001
#
# number of rings (size 3 to 8) (size 9 to 14) (size 15 to 20)
#    0.000    0.000    1.250    9.000    7.000    0.000 
#    0.000    0.000    0.000    0.000    0.000    0.000 
#    0.000    0.000    0.000    0.000    0.000    0.000 
#
# Total GULP energy -178889.311650 kJ/mol
# GULP energy per Si atom -5590.290989 kJ/mol
# Density = 2.257388 g / cm^3
# Si number density = 22.625378 Si / 1000 Ang^3
#
#
#
# Elastic Constant Matrix: (Units=GPa)
#
#
# Indices 1 2 3 4 5 6 
#
# 1 181.5822 24.2059 39.9988 0.0000 0.0000 0.0000
# 2 24.2059 67.9506 38.0794 0.0000 0.0000 0.0000
# 3 39.9988 38.0794 130.6980 0.0000 0.0000 0.0000
# 4 0.0000 0.0000 0.0000 17.2190 0.0000 0.0000
# 5 0.0000 0.0000 0.0000 0.0000 43.2107 0.0000
# 6 0.0000 0.0000 0.0000 0.0000 0.0000 56.5051
#
#
#
# Elastic Compliance Matrix: (Units=1/GPa)
#
#
# Indices 1 2 3 4 5 6 
#
# 1 0.006003 -0.001325 -0.001451 0.000000 0.000000 0.000000
# 2 -0.001325 0.017881 -0.004804 0.000000 0.000000 0.000000
# 3 -0.001451 -0.004804 0.009495 0.000000 0.000000 0.000000
# 4 0.000000 0.000000 0.000000 0.058075 0.000000 0.000000
# 5 0.000000 0.000000 0.000000 0.000000 0.023142 0.000000
# 6 0.000000 0.000000 0.000000 0.000000 0.000000 0.017698
#
#
# Mechanical properties :
#
#
# Convention : Reuss Voigt Hill
#
# Bulk Modulus (GPa) = 54.89010 64.97766 59.93388
# Shear Modulus (GPa) = 32.56724 41.91676 37.24200
#
# Velocity S-wave (km/s) = 3.79807 4.30890 4.06153
# Velocity P-wave (km/s) = 6.59901 7.31689 6.96720
#
# Compressibility (1/GPa) = 0.01821822
#
# Stress axis : x y z
#
# Youngs Moduli (GPa) = 166.56985 55.92562 105.31849
#
# Poissons Ratio (x) = 0.07412 0.15283
# Poissons Ratio (y) = 0.22077 0.50595
# Poissons Ratio (z) = 0.24172 0.26867
#
# Static dielectric constant tensor:
#      x y z
#    x 1.766860 0.000000 0.000000 
#    y 0.000000 1.836390 0.000000 
#    z 0.000000 0.000000 1.805540 
# 
# From -- ./inp_files/8860.got.cif
#   From: 2010.05.17/outbox.cif.g08.bks.cpg/sg60_5_cif.got.tgz:8860.got - 2010.06.03 14:59:27.
