data_PCOD9458752
_publ_section_title
;
Structure prediction by ZEFSAII (Michael W. Deem and Ramdas Pophale) SiO2 
 PCOD9458752
Probable space group: P B C N
;
_chemical_formula_sum "Si O2"
_cell_formula_units_Z 32
_cell_length_a 8.224607
_cell_length_b 19.461007
_cell_length_c 9.951541
_cell_angle_alpha 90.000000
_cell_angle_beta 90.000000
_cell_angle_gamma 90.000000
_cell_volume 1592.835038
_symmetry_space_group_name_H-M "P B C N"
_symmetry_group_IT_number 60
_symmetry_cell_setting 'orthorhombic'
loop_
_space_group_symop_operation_xyz
x,y,z
1/2-x,1/2-y,1/2+z
1/2+x,1/2-y,-z
-x,y,1/2-z
-x,-y,-z
1/2+x,1/2+y,1/2-z
1/2-x,1/2+y,z
x,-y,1/2+z
loop_
_atom_site_type_symbol
_atom_site_label
_atom_site_fract_x
_atom_site_fract_y
_atom_site_fract_z
Si Si1 0.132173 0.211649 0.640063
Si Si2 0.816042 0.027389 0.501931
Si Si3 0.407140 0.326515 0.609800
Si Si4 0.314120 0.928184 0.216340
O O1 0.271650 0.267832 0.622878
O O2 0.212798 0.140978 0.691438
O O3 0.000000 0.234528 0.750000
O O4 0.037915 0.196117 0.502185
O O5 0.822408 0.103358 0.438823
O O6 0.758371 0.032989 0.654698
O O7 0.706747 0.976730 0.412945
O O8 0.000000 0.000000 0.500000
O O9 0.500000 0.337123 0.750000
O O10 0.500000 0.911402 0.250000
#
# Coordination Sequence:
#
# PCOD9458752 Si02
#       4
#     8   8   8   8
#     4  12  25  48  70 102 144 189 234 295 359 413
#     4  12  24  48  74 103 141 191 234 290 359 419
#     4  12  26  43  73 103 140 188 238 289 354 430
#     4  12  26  46  73 105 145 181 237 296 353 423
#
# _framework density 20.089963999999998
#
# number of rings (size 3 to 8) (size 9 to 14) (size 15 to 20)
#    0.000    0.000    5.000    5.250    3.500    1.000 
#    0.000    0.000    0.000    0.000    0.000    0.000 
#    0.000    0.000    0.000    0.000    0.000    0.000 
#
# Total GULP energy -179278.252985 kJ/mol
# GULP energy per Si atom -5602.445406 kJ/mol
# Density = 2.004424 g / cm^3
# Si number density = 20.089964 Si / 1000 Ang^3
#
#
#
# Elastic Constant Matrix: (Units=GPa)
#
#
# Indices 1 2 3 4 5 6 
#
# 1 87.6667 20.6540 23.1051 0.0000 0.0000 0.0000
# 2 20.6540 84.6890 16.1112 0.0000 0.0000 0.0000
# 3 23.1051 16.1112 102.6793 0.0000 0.0000 0.0000
# 4 0.0000 0.0000 0.0000 -1.0342 0.0000 0.0000
# 5 0.0000 0.0000 0.0000 0.0000 26.0908 0.0000
# 6 0.0000 0.0000 0.0000 0.0000 0.0000 45.5071
#
#
#
# Elastic Compliance Matrix: (Units=1/GPa)
#
#
# Indices 1 2 3 4 5 6 
#
# 1 0.012668 -0.002626 -0.002439 0.000000 0.000000 0.000000
# 2 -0.002626 0.012715 -0.001404 0.000000 0.000000 0.000000
# 3 -0.002439 -0.001404 0.010508 0.000000 0.000000 0.000000
# 4 0.000000 0.000000 0.000000 -0.966915 0.000000 0.000000
# 5 0.000000 0.000000 0.000000 0.000000 0.038328 0.000000
# 6 0.000000 0.000000 0.000000 0.000000 0.000000 0.021975
#
#
# Mechanical properties :
#
#
# Convention : Reuss Voigt Hill
#
# Bulk Modulus (GPa) = 43.56428 43.86396 43.71412
# Shear Modulus (GPa) = -5.88144 28.45705 11.28780
#
# Velocity S-wave (km/s) = -1.71286 3.76770 2.37294
# Velocity P-wave (km/s) = 4.22135 6.38816 5.41426
#
# Compressibility (1/GPa) = 0.02295458
#
# Stress axis : x y z
#
# Youngs Moduli (GPa) = 78.93819 78.64481 95.16412
#
# Poissons Ratio (x) = 0.20649 0.23207
# Poissons Ratio (y) = 0.20726 0.13364
# Poissons Ratio (z) = 0.19250 0.11044
#
# Static dielectric constant tensor:
#      x y z
#    x 1.692360 0.000000 0.000000 
#    y 0.000000 1.684100 0.000000 
#    z 0.000000 0.000000 1.683200 
# 
# From -- ./inp_files/3557.got.cif
#   From: 2010.05.17/outbox.cif.g08.bks.cpg/sg60_2_cif.got.tgz:3557.got - 2010.06.03 14:59:27.
