data_PCOD9458758
_publ_section_title
;
Structure prediction by ZEFSAII (Michael W. Deem and Ramdas Pophale) SiO2 
 PCOD9458758
Probable space group: P B C N
;
_chemical_formula_sum "Si O2"
_cell_formula_units_Z 40
_cell_length_a 14.693640
_cell_length_b 10.096722
_cell_length_c 10.599340
_cell_angle_alpha 90.000000
_cell_angle_beta 90.000000
_cell_angle_gamma 90.000000
_cell_volume 1572.492625
_symmetry_space_group_name_H-M "P B C N"
_symmetry_group_IT_number 60
_symmetry_cell_setting 'orthorhombic'
loop_
_space_group_symop_operation_xyz
x,y,z
1/2-x,1/2-y,1/2+z
1/2+x,1/2-y,-z
-x,y,1/2-z
-x,-y,-z
1/2+x,1/2+y,1/2-z
1/2-x,1/2+y,z
x,-y,1/2+z
loop_
_atom_site_type_symbol
_atom_site_label
_atom_site_fract_x
_atom_site_fract_y
_atom_site_fract_z
Si Si1 0.932366 0.271795 0.021034
Si Si2 0.199568 0.999747 0.236245
Si Si3 0.500000 0.802014 0.750000
Si Si4 0.862020 0.447784 0.593019
Si Si5 0.739014 0.239838 0.925089
Si Si6 0.500000 0.598949 0.250000
O O1 0.921194 0.429109 0.044254
O O2 0.985277 0.194595 0.129714
O O3 0.974267 0.238540 0.884230
O O4 0.825380 0.236564 0.017910
O O5 0.261353 0.014155 0.360175
O O6 0.222384 0.116672 0.135426
O O7 0.091684 0.012607 0.251934
O O8 0.230497 0.858843 0.184864
O O9 0.413379 0.891470 0.785292
O O10 0.846219 0.330766 0.492353
#
# Coordination Sequence:
#
# PCOD9458758 Si02
#       6
#     8   8   4   8   8   4
#     4  12  26  49  79 118 157 211 261 332 394 479
#     4  12  27  48  79 112 161 208 265 328 397 476
#     4  12  25  45  80 122 156 202 270 334 392 474
#     4  12  24  48  78 113 157 208 267 321 398 474
#     4  12  25  49  75 112 159 208 260 325 400 472
#     4  12  27  51  80 120 160 210 266 328 406 478
#
# _framework density 25.437322999999999
#
# number of rings (size 3 to 8) (size 9 to 14) (size 15 to 20)
#    0.000    0.000    6.000    3.600    0.000    1.600 
#    3.600    0.000    0.000    0.000    0.000    0.000 
#    0.000    0.000    0.000    0.000    0.000    0.000 
#
# Total GULP energy -224045.230055 kJ/mol
# GULP energy per Si atom -5601.130751 kJ/mol
# Density = 2.537943 g / cm^3
# Si number density = 25.437323 Si / 1000 Ang^3
#
#
#
# Elastic Constant Matrix: (Units=GPa)
#
#
# Indices 1 2 3 4 5 6 
#
# 1 123.9130 15.9633 37.7665 0.0000 0.0000 0.0000
# 2 15.9633 48.6962 36.4736 0.0000 0.0000 0.0000
# 3 37.7665 36.4736 136.9252 0.0000 0.0000 0.0000
# 4 0.0000 0.0000 0.0000 42.4392 0.0000 0.0000
# 5 0.0000 0.0000 0.0000 0.0000 47.0249 0.0000
# 6 0.0000 0.0000 0.0000 0.0000 0.0000 -174.9220
#
#
#
# Elastic Compliance Matrix: (Units=1/GPa)
#
#
# Indices 1 2 3 4 5 6 
#
# 1 0.008881 -0.001345 -0.002091 0.000000 0.000000 0.000000
# 2 -0.001345 0.025858 -0.006517 0.000000 0.000000 0.000000
# 3 -0.002091 -0.006517 0.009616 0.000000 0.000000 0.000000
# 4 0.000000 0.000000 0.000000 0.023563 0.000000 0.000000
# 5 0.000000 0.000000 0.000000 0.000000 0.021265 0.000000
# 6 0.000000 0.000000 0.000000 0.000000 0.000000 -0.005717
#
#
# Mechanical properties :
#
#
# Convention : Reuss Voigt Hill
#
# Bulk Modulus (GPa) = 40.90266 54.43790 47.67028
# Shear Modulus (GPa) = 44.83442 -2.46952 21.18245
#
# Velocity S-wave (km/s) = 4.20282 -0.98637 2.88884
# Velocity P-wave (km/s) = 6.29812 4.48888 5.46884
#
# Compressibility (1/GPa) = 0.02444829
#
# Stress axis : x y z
#
# Youngs Moduli (GPa) = 112.60228 38.67347 103.99326
#
# Poissons Ratio (x) = 0.05201 0.21748
# Poissons Ratio (y) = 0.15144 0.67771
# Poissons Ratio (z) = 0.23548 0.25203
#
# Static dielectric constant tensor:
#      x y z
#    x 2.015190 0.000000 0.000000 
#    y 0.000000 2.048950 0.000000 
#    z 0.000000 0.000000 1.948350 
# 
# From -- ./inp_files/11745.got.cif
#   From: 2010.05.17/outbox.cif.g08.bks.cpg/sg60_6_cif.got.tgz:11745.got - 2010.06.03 14:59:27.
