data_PCOD9458057
_publ_section_title
;
Structure prediction by ZEFSAII (Michael W. Deem and Ramdas Pophale) SiO2 
 PCOD9458057
Probable space group: P B C N
;
_chemical_formula_sum "Si O2"
_cell_formula_units_Z 56
_cell_length_a 5.741048
_cell_length_b 15.011224
_cell_length_c 29.151322
_cell_angle_alpha 90.000000
_cell_angle_beta 90.000000
_cell_angle_gamma 90.000000
_cell_volume 2512.265522
_symmetry_space_group_name_H-M "P B C N"
_symmetry_group_IT_number 60
_symmetry_cell_setting 'orthorhombic'
loop_
_space_group_symop_operation_xyz
x,y,z
1/2-x,1/2-y,1/2+z
1/2+x,1/2-y,-z
-x,y,1/2-z
-x,-y,-z
1/2+x,1/2+y,1/2-z
1/2-x,1/2+y,z
x,-y,1/2+z
loop_
_atom_site_type_symbol
_atom_site_label
_atom_site_fract_x
_atom_site_fract_y
_atom_site_fract_z
Si Si1 0.000000 0.029729 0.750000
Si Si2 0.817955 0.616484 0.823233
Si Si3 0.000000 0.736985 0.750000
Si Si4 0.611872 0.038499 0.127706
Si Si5 0.152958 0.798986 0.489828
Si Si6 0.500135 0.401406 0.406095
Si Si7 0.689888 0.113571 0.215586
Si Si8 0.174095 0.532124 0.039523
O O1 0.113740 0.962370 0.785985
O O2 0.174021 0.088458 0.721520
O O3 0.641972 0.642247 0.864024
O O4 0.983515 0.687517 0.798898
O O5 0.958226 0.533534 0.844021
O O6 0.219749 0.801265 0.757486
O O7 0.628919 0.121292 0.162597
O O8 0.479710 0.066171 0.081913
O O9 0.838723 0.981903 0.112767
O O10 0.404138 0.749980 0.499262
O O11 0.142892 0.831837 0.436860
O O12 0.166980 0.889028 0.520226
O O13 0.681480 0.449093 0.440629
O O14 0.500000 0.074026 0.250000
O O15 0.000000 0.500000 0.000000
#
# Coordination Sequence:
#
# PCOD9458057 Si02
#       8
#     4   8   4   8   8   8   8   8
#     4  11  20  40  72  89 130 182 240 285 346 430
#     4  11  24  44  69 106 131 191 243 306 357 451
#     4  11  28  42  66 101 158 180 232 295 400 436
#     4  11  23  44  76 103 133 187 263 297 347 450
#     4  12  28  50  73 113 157 198 238 319 401 451
#     4  11  25  46  78 101 141 193 258 300 363 455
#     4  11  23  44  65 101 141 184 229 301 366 432
#     4  11  24  47  77 105 143 198 259 305 370 456
#
# _framework density 22.29064
#
# number of rings (size 3 to 8) (size 9 to 14) (size 15 to 20)
#    0.000    0.857    4.286    2.143    5.000    0.000 
#    7.714    0.000    0.000    0.000    0.000    0.000 
#    0.000    0.000    0.000    0.000    0.000    0.000 
#
# Total GULP energy -312659.353697 kJ/mol
# GULP energy per Si atom -5583.202745 kJ/mol
# Density = 2.223991 g / cm^3
# Si number density = 22.290640 Si / 1000 Ang^3
#
#
#
# Elastic Constant Matrix: (Units=GPa)
#
#
# Indices 1 2 3 4 5 6 
#
# 1 70.7269 5.2512 27.9273 0.0000 0.0000 0.0000
# 2 5.2512 34.3860 20.2379 0.0000 0.0000 0.0000
# 3 27.9273 20.2379 145.2252 0.0000 0.0000 0.0000
# 4 0.0000 0.0000 0.0000 2.9333 0.0000 0.0000
# 5 0.0000 0.0000 0.0000 0.0000 52.0978 0.0000
# 6 0.0000 0.0000 0.0000 0.0000 0.0000 16.0237
#
#
#
# Elastic Compliance Matrix: (Units=1/GPa)
#
#
# Indices 1 2 3 4 5 6 
#
# 1 0.015314 -0.000660 -0.002853 0.000000 0.000000 0.000000
# 2 -0.000660 0.031708 -0.004292 0.000000 0.000000 0.000000
# 3 -0.002853 -0.004292 0.008033 0.000000 0.000000 0.000000
# 4 0.000000 0.000000 0.000000 0.340912 0.000000 0.000000
# 5 0.000000 0.000000 0.000000 0.000000 0.019195 0.000000
# 6 0.000000 0.000000 0.000000 0.000000 0.000000 0.062407
#
#
# Mechanical properties :
#
#
# Convention : Reuss Voigt Hill
#
# Bulk Modulus (GPa) = 25.35091 39.68565 32.51828
# Shear Modulus (GPa) = 9.87504 27.33908 18.60706
#
# Velocity S-wave (km/s) = 2.10707 3.50592 2.89233
# Velocity P-wave (km/s) = 4.16140 5.85072 5.07682
#
# Compressibility (1/GPa) = 0.03944631
#
# Stress axis : x y z
#
# Youngs Moduli (GPa) = 65.29783 31.53750 124.49244
#
# Poissons Ratio (x) = 0.02080 0.35519
# Poissons Ratio (y) = 0.04307 0.53431
# Poissons Ratio (z) = 0.18630 0.13536
#
# Static dielectric constant tensor:
#      x y z
#    x 1.942030 0.000000 0.000000 
#    y 0.000000 1.798130 0.000000 
#    z 0.000000 0.000000 1.914150 
# 
# From -- ./inp_files/25726.got.cif
#   From: 2010.05.17/outbox.cif.g08.bks.cpg/sg60_13_cif.got.tgz:25726.got - 2010.06.03 14:59:27.
