data_PCOD9458769
_publ_section_title
;
Structure prediction by ZEFSAII (Michael W. Deem and Ramdas Pophale) SiO2 
 PCOD9458769
Probable space group: P B C N
;
_chemical_formula_sum "Si O2"
_cell_formula_units_Z 24
_cell_length_a 7.340160
_cell_length_b 23.115064
_cell_length_c 7.511075
_cell_angle_alpha 90.000000
_cell_angle_beta 90.000000
_cell_angle_gamma 90.000000
_cell_volume 1274.391087
_symmetry_space_group_name_H-M "P B C N"
_symmetry_group_IT_number 60
_symmetry_cell_setting 'orthorhombic'
loop_
_space_group_symop_operation_xyz
x,y,z
1/2-x,1/2-y,1/2+z
1/2+x,1/2-y,-z
-x,y,1/2-z
-x,-y,-z
1/2+x,1/2+y,1/2-z
1/2-x,1/2+y,z
x,-y,1/2+z
loop_
_atom_site_type_symbol
_atom_site_label
_atom_site_fract_x
_atom_site_fract_y
_atom_site_fract_z
Si Si1 0.500000 0.744148 0.750000
Si Si2 0.150227 0.187753 0.395210
Si Si3 0.500000 0.964215 0.250000
Si Si4 0.150677 0.424289 0.886663
O O1 0.660813 0.781576 0.659588
O O2 0.412137 0.706724 0.590963
O O3 0.181687 0.118611 0.385739
O O4 0.000000 0.204850 0.250000
O O5 0.569646 0.927910 0.415354
O O6 0.342803 0.008801 0.320268
O O7 0.000000 0.399987 0.750000
#
# Coordination Sequence:
#
# PCOD9458769 Si02
#       4
#     4   8   4   8
#     4  12  25  44  64  90 132 168 209 266 318 370
#     4  12  25  41  65  94 126 167 214 263 314 379
#     4   8  17  36  64  90 122 162 201 258 322 364
#     4   9  18  36  64  89 119 163 202 254 312 372
#
# _framework density 18.832522999999998
#
# number of rings (size 3 to 8) (size 9 to 14) (size 15 to 20)
#    1.000    0.667    5.000    0.000    0.000    5.333 
#    0.000    1.667    0.000    0.000    0.000    0.000 
#    0.000    0.000    0.000    0.000    0.000    0.000 
#
# Total GULP energy -133602.006657 kJ/mol
# GULP energy per Si atom -5566.750277 kJ/mol
# Density = 1.878966 g / cm^3
# Si number density = 18.832523 Si / 1000 Ang^3
#
#
#
# Elastic Constant Matrix: (Units=GPa)
#
#
# Indices 1 2 3 4 5 6 
#
# 1 82.9479 33.7568 46.7836 0.0000 0.0000 0.0000
# 2 33.7568 42.3022 29.1042 0.0000 0.0000 0.0000
# 3 46.7836 29.1042 168.0826 0.0000 0.0000 0.0000
# 4 0.0000 0.0000 0.0000 -90.5153 0.0000 0.0000
# 5 0.0000 0.0000 0.0000 0.0000 29.1621 0.0000
# 6 0.0000 0.0000 0.0000 0.0000 0.0000 50.7032
#
#
#
# Elastic Compliance Matrix: (Units=1/GPa)
#
#
# Indices 1 2 3 4 5 6 
#
# 1 0.019134 -0.013174 -0.003045 0.000000 0.000000 0.000000
# 2 -0.013174 0.035907 -0.002551 0.000000 0.000000 0.000000
# 3 -0.003045 -0.002551 0.007239 0.000000 0.000000 0.000000
# 4 0.000000 0.000000 0.000000 -0.011048 0.000000 0.000000
# 5 0.000000 0.000000 0.000000 0.000000 0.034291 0.000000
# 6 0.000000 0.000000 0.000000 0.000000 0.000000 0.019723
#
#
# Mechanical properties :
#
#
# Convention : Reuss Voigt Hill
#
# Bulk Modulus (GPa) = 40.41859 56.95799 48.68829
# Shear Modulus (GPa) = 33.10548 10.11589 21.61068
#
# Velocity S-wave (km/s) = 4.19727 2.32016 3.39118
# Velocity P-wave (km/s) = 6.70806 6.12272 6.42206
#
# Compressibility (1/GPa) = 0.02474109
#
# Stress axis : x y z
#
# Youngs Moduli (GPa) = 52.26165 27.84948 138.14956
#
# Poissons Ratio (x) = 0.36690 0.42062
# Poissons Ratio (y) = 0.68852 0.35236
# Poissons Ratio (z) = 0.15912 0.07103
#
# Static dielectric constant tensor:
#      x y z
#    x 1.635910 0.000000 0.000000 
#    y 0.000000 1.668750 0.000000 
#    z 0.000000 0.000000 1.608560 
# 
# From -- ./inp_files/3751.got.cif
#   From: 2010.05.17/outbox.cif.g08.bks.cpg/sg60_2_cif.got.tgz:3751.got - 2010.06.03 14:59:27.
