data_PCOD9458408
_publ_section_title
;
Structure prediction by ZEFSAII (Michael W. Deem and Ramdas Pophale) SiO2 
 PCOD9458408
Probable space group: P B C N
;
_chemical_formula_sum "Si O2"
_cell_formula_units_Z 56
_cell_length_a 7.975707
_cell_length_b 14.955660
_cell_length_c 16.912565
_cell_angle_alpha 90.000000
_cell_angle_beta 90.000000
_cell_angle_gamma 90.000000
_cell_volume 2017.363938
_symmetry_space_group_name_H-M "P B C N"
_symmetry_group_IT_number 60
_symmetry_cell_setting 'orthorhombic'
loop_
_space_group_symop_operation_xyz
x,y,z
1/2-x,1/2-y,1/2+z
1/2+x,1/2-y,-z
-x,y,1/2-z
-x,-y,-z
1/2+x,1/2+y,1/2-z
1/2-x,1/2+y,z
x,-y,1/2+z
loop_
_atom_site_type_symbol
_atom_site_label
_atom_site_fract_x
_atom_site_fract_y
_atom_site_fract_z
Si Si1 0.437952 0.895515 0.172745
Si Si2 0.735942 0.612750 0.401102
Si Si3 0.230046 0.750458 0.837283
Si Si4 0.693354 0.452156 0.732237
Si Si5 0.093684 0.198304 0.640784
Si Si6 0.178714 0.477001 0.432775
Si Si7 0.875698 0.148047 0.032809
O O1 0.500000 0.948928 0.250000
O O2 0.569061 0.811044 0.176644
O O3 0.250910 0.856675 0.175893
O O4 0.495382 0.946756 0.094279
O O5 0.236977 0.450351 0.676343
O O6 0.833977 0.703147 0.378882
O O7 0.780941 0.579855 0.489093
O O8 0.536327 0.630180 0.411578
O O9 0.411581 0.709210 0.820574
O O10 0.215830 0.766071 0.931782
O O11 0.223598 0.848401 0.796205
O O12 0.500000 0.468775 0.750000
O O13 0.734428 0.516105 0.656124
O O14 0.064069 0.152633 0.555961
O O15 0.233942 0.574070 0.460236
#
# Coordination Sequence:
#
# PCOD9458408 Si02
#       7
#     8   8   8   8   8   8   8
#     4  12  27  51  75 111 167 210 274 352 403 483
#     4  12  24  47  83 116 161 222 268 339 420 479
#     4  11  24  47  77 117 151 206 283 332 407 501
#     4  11  23  50  80 114 169 218 269 346 411 497
#     4  12  26  46  83 117 158 213 278 348 409 482
#     4  11  27  47  76 120 160 216 275 327 415 510
#     4  11  23  45  76 116 161 202 269 339 407 495
#
# _framework density 27.758997999999998
#
# number of rings (size 3 to 8) (size 9 to 14) (size 15 to 20)
#    0.000    0.571    4.286    4.286    2.000    4.000 
#   10.286    0.000    0.000    0.000    0.000    0.000 
#    0.000    0.000    0.000    0.000    0.000    0.000 
#
# Total GULP energy -313073.038949 kJ/mol
# GULP energy per Si atom -5590.589981 kJ/mol
# Density = 2.769582 g / cm^3
# Si number density = 27.758998 Si / 1000 Ang^3
#
#
#
# Elastic Constant Matrix: (Units=GPa)
#
#
# Indices 1 2 3 4 5 6 
#
# 1 195.2827 53.4832 66.4677 0.0000 0.0000 0.0000
# 2 53.4832 87.6264 48.0698 0.0000 0.0000 0.0000
# 3 66.4677 48.0698 148.4457 0.0000 0.0000 0.0000
# 4 0.0000 0.0000 0.0000 40.4484 0.0000 0.0000
# 5 0.0000 0.0000 0.0000 0.0000 72.7528 0.0000
# 6 0.0000 0.0000 0.0000 0.0000 0.0000 32.6037
#
#
#
# Elastic Compliance Matrix: (Units=1/GPa)
#
#
# Indices 1 2 3 4 5 6 
#
# 1 0.006607 -0.002930 -0.002010 0.000000 0.000000 0.000000
# 2 -0.002930 0.015177 -0.003602 0.000000 0.000000 0.000000
# 3 -0.002010 -0.003602 0.008803 0.000000 0.000000 0.000000
# 4 0.000000 0.000000 0.000000 0.024723 0.000000 0.000000
# 5 0.000000 0.000000 0.000000 0.000000 0.013745 0.000000
# 6 0.000000 0.000000 0.000000 0.000000 0.000000 0.030671
#
#
# Mechanical properties :
#
#
# Convention : Reuss Voigt Hill
#
# Bulk Modulus (GPa) = 74.06224 85.26626 79.66425
# Shear Modulus (GPa) = 41.21600 46.71659 43.96630
#
# Velocity S-wave (km/s) = 3.85746 4.10681 3.98409
# Velocity P-wave (km/s) = 6.82484 7.29871 7.06575
#
# Compressibility (1/GPa) = 0.01350216
#
# Stress axis : x y z
#
# Youngs Moduli (GPa) = 151.34688 65.88948 113.59987
#
# Poissons Ratio (x) = 0.19308 0.22829
# Poissons Ratio (y) = 0.44351 0.40924
# Poissons Ratio (z) = 0.30414 0.23737
#
# Static dielectric constant tensor:
#      x y z
#    x 2.214350 0.000000 0.000000 
#    y 0.000000 2.220600 0.000000 
#    z 0.000000 0.000000 2.436970 
# 
# From -- ./inp_files/16166.got.cif
#   From: 2010.05.17/outbox.cif.g08.bks.cpg/sg60_9_cif.got.tgz:16166.got - 2010.06.03 14:59:27.
