data_PCOD9458536
_publ_section_title
;
Structure prediction by ZEFSAII (Michael W. Deem and Ramdas Pophale) SiO2 
 PCOD9458536
Probable space group: P B C N
;
_chemical_formula_sum "Si O2"
_cell_formula_units_Z 60
_cell_length_a 8.893981
_cell_length_b 27.659325
_cell_length_c 10.766131
_cell_angle_alpha 90.000000
_cell_angle_beta 90.000000
_cell_angle_gamma 90.000000
_cell_volume 2648.484494
_symmetry_space_group_name_H-M "P B C N"
_symmetry_group_IT_number 60
_symmetry_cell_setting 'orthorhombic'
loop_
_space_group_symop_operation_xyz
x,y,z
1/2-x,1/2-y,1/2+z
1/2+x,1/2-y,-z
-x,y,1/2-z
-x,-y,-z
1/2+x,1/2+y,1/2-z
1/2-x,1/2+y,z
x,-y,1/2+z
loop_
_atom_site_type_symbol
_atom_site_label
_atom_site_fract_x
_atom_site_fract_y
_atom_site_fract_z
Si Si1 0.000000 0.324919 0.750000
Si Si2 0.329597 0.296478 0.697494
Si Si3 0.345203 0.191391 0.673284
Si Si4 0.372479 0.958022 0.336766
Si Si5 0.880415 0.904143 0.906222
Si Si6 0.205506 0.052620 0.337337
Si Si7 0.838423 0.882331 0.194385
Si Si8 0.450453 0.886844 0.979125
O O1 0.166388 0.299984 0.769553
O O2 0.965487 0.356020 0.873508
O O3 0.500000 0.288148 0.750000
O O4 0.308880 0.245296 0.625726
O O5 0.359322 0.349380 0.641424
O O6 0.500000 0.189981 0.750000
O O7 0.219696 0.170609 0.768239
O O8 0.370985 0.153131 0.564776
O O9 0.500000 0.981586 0.250000
O O10 0.285327 0.919036 0.252340
O O11 0.452891 0.925977 0.443184
O O12 0.249966 0.998084 0.372037
O O13 0.788245 0.938458 0.811492
O O14 0.046900 0.926592 0.885942
O O15 0.846383 0.897607 0.050835
O O16 0.328451 0.084592 0.402585
O O17 0.000000 0.890221 0.250000
#
# Coordination Sequence:
#
# PCOD9458536 Si02
#       8
#     4   8   8   8   8   8   8   8
#     4  12  26  44  80 118 148 206 260 314 390 474
#     4  11  24  48  76 110 154 199 255 316 391 464
#     4  11  25  48  74 104 153 200 242 318 385 452
#     4  12  27  47  74 107 147 201 256 312 388 462
#     4  11  24  50  72 108 156 190 253 324 381 458
#     4  11  26  45  75 108 145 202 246 319 387 448
#     4  12  26  47  74 107 151 197 252 313 385 465
#     4  12  23  49  73 110 155 191 256 319 382 460
#
# _framework density 22.654467
#
# number of rings (size 3 to 8) (size 9 to 14) (size 15 to 20)
#    0.000    0.533    5.333    2.000    3.733    2.667 
#    4.800    0.000    0.000    0.000    0.000    0.000 
#    0.000    0.000    0.000    0.000    0.000    0.000 
#
# Total GULP energy -334356.972313 kJ/mol
# GULP energy per Si atom -5572.616205 kJ/mol
# Density = 2.260290 g / cm^3
# Si number density = 22.654467 Si / 1000 Ang^3
#
#
#
# Elastic Constant Matrix: (Units=GPa)
#
#
# Indices 1 2 3 4 5 6 
#
# 1 150.8409 32.0740 43.6940 0.0000 0.0000 0.0000
# 2 32.0740 115.2811 31.6335 0.0000 0.0000 0.0000
# 3 43.6940 31.6335 96.0318 0.0000 0.0000 0.0000
# 4 0.0000 0.0000 0.0000 57.0200 0.0000 0.0000
# 5 0.0000 0.0000 0.0000 0.0000 29.9058 0.0000
# 6 0.0000 0.0000 0.0000 0.0000 0.0000 27.2052
#
#
#
# Elastic Compliance Matrix: (Units=1/GPa)
#
#
# Indices 1 2 3 4 5 6 
#
# 1 0.007814 -0.001318 -0.003121 0.000000 0.000000 0.000000
# 2 -0.001318 0.009759 -0.002615 0.000000 0.000000 0.000000
# 3 -0.003121 -0.002615 0.012695 0.000000 0.000000 0.000000
# 4 0.000000 0.000000 0.000000 0.017538 0.000000 0.000000
# 5 0.000000 0.000000 0.000000 0.000000 0.033438 0.000000
# 6 0.000000 0.000000 0.000000 0.000000 0.000000 0.036758
#
#
# Mechanical properties :
#
#
# Convention : Reuss Voigt Hill
#
# Bulk Modulus (GPa) = 61.88308 64.10632 62.99470
# Shear Modulus (GPa) = 36.36496 39.80970 38.08733
#
# Velocity S-wave (km/s) = 4.01084 4.19651 4.10473
# Velocity P-wave (km/s) = 6.98745 7.19999 7.09452
#
# Compressibility (1/GPa) = 0.01615951
#
# Stress axis : x y z
#
# Youngs Moduli (GPa) = 127.97915 102.47375 78.77249
#
# Poissons Ratio (x) = 0.13501 0.24587
# Poissons Ratio (y) = 0.16861 0.20600
# Poissons Ratio (z) = 0.39945 0.26798
#
# Static dielectric constant tensor:
#      x y z
#    x 1.452790 0.000000 0.000000 
#    y 0.000000 1.910560 0.000000 
#    z 0.000000 0.000000 1.898390 
# 
# From -- ./inp_files/10293.got.cif
#   From: 2010.05.17/outbox.cif.g08.bks.cpg/sg60_6_cif.got.tgz:10293.got - 2010.06.03 14:59:27.
