data_PCOD9458900
_publ_section_title
;
Structure prediction by ZEFSAII (Michael W. Deem and Ramdas Pophale) SiO2 
 PCOD9458900
Probable space group: P B C N
;
_chemical_formula_sum "Si O2"
_cell_formula_units_Z 64
_cell_length_a 12.000000
_cell_length_b 12.000000
_cell_length_c 24.000000
_cell_angle_alpha 90.000000
_cell_angle_beta 90.000000
_cell_angle_gamma 90.000000
_cell_volume 3456.000000
_symmetry_space_group_name_H-M "P B C N"
_symmetry_group_IT_number 60
_symmetry_cell_setting 'orthorhombic'
loop_
_space_group_symop_operation_xyz
x,y,z
1/2-x,1/2-y,1/2+z
1/2+x,1/2-y,-z
-x,y,1/2-z
-x,-y,-z
1/2+x,1/2+y,1/2-z
1/2-x,1/2+y,z
x,-y,1/2+z
loop_
_atom_site_type_symbol
_atom_site_label
_atom_site_fract_x
_atom_site_fract_y
_atom_site_fract_z
Si Si1 0.181673 0.446822 0.840166
Si Si2 0.082233 0.086064 0.970979
Si Si3 0.842555 0.341931 0.234037
Si Si4 0.441755 0.498388 0.346885
Si Si5 0.095787 0.226914 0.788018
Si Si6 0.975483 0.757879 0.839955
Si Si7 0.161601 0.480598 0.468373
Si Si8 0.457736 0.820261 0.031424
O O1 0.146464 0.530963 0.789470
O O2 0.316162 0.454552 0.838984
O O3 0.132194 0.323605 0.831223
O O4 0.149477 0.487386 0.902593
O O5 0.056982 0.061208 0.906700
O O6 0.211700 0.054783 0.979590
O O7 0.059281 0.209006 0.994927
O O8 0.000000 0.000000 0.000000
O O9 0.713581 0.308640 0.238728
O O10 0.902477 0.276431 0.183119
O O11 0.899665 0.301703 0.291995
O O12 0.455942 0.390521 0.308308
O O13 0.522717 0.605889 0.340342
O O14 0.000000 0.278857 0.750000
O O15 0.950606 0.713120 0.902544
O O16 0.125820 0.584001 0.508033
O O17 0.078343 0.377157 0.477896
#
# Coordination Sequence:
#
# PCOD9458900 Si02
#       8
#     8   8   8   8   8   8   8   8
#     4  10  20  41  66  90 123 162 218 258 306 375
#     4  11  23  40  66  95 125 171 218 267 322 389
#     4  10  23  39  63  90 117 171 208 253 309 383
#     4  10  22  40  65  91 121 167 217 257 306 374
#     4  11  24  38  60  95 127 159 205 267 318 371
#     4  11  21  40  67  85 125 163 218 254 311 395
#     4  10  24  41  67  95 129 170 218 276 321 387
#     4  11  23  42  65  97 130 169 217 269 334 385
#
# _framework density 18.518519000000001
#
# number of rings (size 3 to 8) (size 9 to 14) (size 15 to 20)
#    0.000    1.500    3.750    0.750    5.250    0.000 
#    2.250    3.750    0.000    0.000    0.000    0.000 
#    0.000    0.000    0.000    0.000    0.000    0.000 
#
# Total GULP energy -356571.281978 kJ/mol
# GULP energy per Si atom -5571.426281 kJ/mol
# Density = 1.847637 g / cm^3
# Si number density = 18.518519 Si / 1000 Ang^3
#
#
#
# Elastic Constant Matrix: (Units=GPa)
#
#
# Indices 1 2 3 4 5 6 
#
# 1 88.5774 43.7732 47.3893 0.0000 0.0000 0.0000
# 2 43.7732 148.5026 69.7717 0.0000 0.0000 0.0000
# 3 47.3893 69.7717 121.9376 0.0000 0.0000 0.0000
# 4 0.0000 0.0000 0.0000 35.1515 0.0000 0.0000
# 5 0.0000 0.0000 0.0000 0.0000 25.1342 0.0000
# 6 0.0000 0.0000 0.0000 0.0000 0.0000 27.0180
#
#
#
# Elastic Compliance Matrix: (Units=1/GPa)
#
#
# Indices 1 2 3 4 5 6 
#
# 1 0.014792 -0.002269 -0.004450 0.000000 0.000000 0.000000
# 2 -0.002269 0.009558 -0.004587 0.000000 0.000000 0.000000
# 3 -0.004450 -0.004587 0.012555 0.000000 0.000000 0.000000
# 4 0.000000 0.000000 0.000000 0.028448 0.000000 0.000000
# 5 0.000000 0.000000 0.000000 0.000000 0.039786 0.000000
# 6 0.000000 0.000000 0.000000 0.000000 0.000000 0.037012
#
#
# Mechanical properties :
#
#
# Convention : Reuss Voigt Hill
#
# Bulk Modulus (GPa) = 69.96978 75.65398 72.81188
# Shear Modulus (GPa) = 29.49348 30.66630 30.07989
#
# Velocity S-wave (km/s) = 3.99513 4.07379 4.03465
# Velocity P-wave (km/s) = 7.69072 7.94163 7.81718
#
# Compressibility (1/GPa) = 0.01429188
#
# Stress axis : x y z
#
# Youngs Moduli (GPa) = 67.60473 104.62509 79.64885
#
# Poissons Ratio (x) = 0.23742 0.35445
# Poissons Ratio (y) = 0.15341 0.36535
# Poissons Ratio (z) = 0.30086 0.47992
#
# Static dielectric constant tensor:
#      x y z
#    x 1.639660 0.000000 0.000000 
#    y 0.000000 1.654260 0.000000 
#    z 0.000000 0.000000 1.530120 
# 
# From -- ./inp_files/24297.got.cif
#   From: 2010.05.17/outbox.ucp.g08.bks.cvg/sg60_13_cif.got.tgz:24297.got - 2010.06.11 16:26:41.
