data_PCOD9458353
_publ_section_title
;
Structure prediction by ZEFSAII (Michael W. Deem and Ramdas Pophale) SiO2 
 PCOD9458353
Probable space group: P B C N
;
_chemical_formula_sum "Si O2"
_cell_formula_units_Z 20
_cell_length_a 9.212442
_cell_length_b 17.109684
_cell_length_c 4.945453
_cell_angle_alpha 90.000000
_cell_angle_beta 90.000000
_cell_angle_gamma 90.000000
_cell_volume 779.512052
_symmetry_space_group_name_H-M "P B C N"
_symmetry_group_IT_number 60
_symmetry_cell_setting 'orthorhombic'
loop_
_space_group_symop_operation_xyz
x,y,z
1/2-x,1/2-y,1/2+z
1/2+x,1/2-y,-z
-x,y,1/2-z
-x,-y,-z
1/2+x,1/2+y,1/2-z
1/2-x,1/2+y,z
x,-y,1/2+z
loop_
_atom_site_type_symbol
_atom_site_label
_atom_site_fract_x
_atom_site_fract_y
_atom_site_fract_z
Si Si1 0.000000 0.941126 0.750000
Si Si2 0.602484 0.171012 0.500863
Si Si3 0.159015 0.843710 0.123060
O O1 0.863432 0.885783 0.665251
O O2 0.000000 0.000000 0.500000
O O3 0.500000 0.141971 0.250000
O O4 0.719688 0.121825 0.676726
O O5 0.677455 0.250634 0.399507
O O6 0.500000 0.196594 0.750000
O O7 0.000000 0.851098 0.250000
#
# Coordination Sequence:
#
# PCOD9458353 Si02
#       3
#     4   8   8
#     4  12  26  42  68 100 138 198 250 294 332 428
#     4  11  24  38  66 105 142 175 218 308 388 434
#     4  11  23  42  68 102 139 181 241 293 366 437
#
# _framework density 25.657080000000001
#
# number of rings (size 3 to 8) (size 9 to 14) (size 15 to 20)
#    0.000    0.800    4.000    4.800    5.600    0.000 
#    0.000    0.000    0.000    7.200    0.000    0.000 
#    0.000    0.000    0.000    0.000    0.000    0.000 
#
# Total GULP energy -111476.362238 kJ/mol
# GULP energy per Si atom -5573.818112 kJ/mol
# Density = 2.559868 g / cm^3
# Si number density = 25.657080 Si / 1000 Ang^3
#
#
#
# Elastic Constant Matrix: (Units=GPa)
#
#
# Indices 1 2 3 4 5 6 
#
# 1 132.6577 15.8154 90.2148 0.0000 0.0000 0.0000
# 2 15.8154 62.5213 13.4948 0.0000 0.0000 0.0000
# 3 90.2148 13.4948 219.9624 0.0000 0.0000 0.0000
# 4 0.0000 0.0000 0.0000 23.9842 0.0000 0.0000
# 5 0.0000 0.0000 0.0000 0.0000 101.5384 0.0000
# 6 0.0000 0.0000 0.0000 0.0000 0.0000 9.8777
#
#
#
# Elastic Compliance Matrix: (Units=1/GPa)
#
#
# Indices 1 2 3 4 5 6 
#
# 1 0.010645 -0.001774 -0.004257 0.000000 0.000000 0.000000
# 2 -0.001774 0.016505 -0.000285 0.000000 0.000000 0.000000
# 3 -0.004257 -0.000285 0.006310 0.000000 0.000000 0.000000
# 4 0.000000 0.000000 0.000000 0.041694 0.000000 0.000000
# 5 0.000000 0.000000 0.000000 0.000000 0.009848 0.000000
# 6 0.000000 0.000000 0.000000 0.000000 0.000000 0.101238
#
#
# Mechanical properties :
#
#
# Convention : Reuss Voigt Hill
#
# Bulk Modulus (GPa) = 48.01370 72.68794 60.35082
# Shear Modulus (GPa) = 24.29379 46.78782 35.54080
#
# Velocity S-wave (km/s) = 3.08046 4.27498 3.72590
# Velocity P-wave (km/s) = 5.60415 7.26356 6.48713
#
# Compressibility (1/GPa) = 0.02082739
#
# Stress axis : x y z
#
# Youngs Moduli (GPa) = 93.94404 60.58851 158.48743
#
# Poissons Ratio (x) = 0.10747 0.67467
# Poissons Ratio (y) = 0.16664 0.04518
# Poissons Ratio (z) = 0.39991 0.01727
#
# Static dielectric constant tensor:
#      x y z
#    x 2.462560 0.000000 0.000000 
#    y 0.000000 2.018820 0.000000 
#    z 0.000000 0.000000 2.237720 
# 
# From -- ./inp_files/203.got.cif
#   From: 2010.05.17/outbox.cif.g08.bks.cpg/sg60_1_cif.got.tgz:203.got - 2010.06.03 14:59:27.
