data_PCOD9458533
_publ_section_title
;
Structure prediction by ZEFSAII (Michael W. Deem and Ramdas Pophale) SiO2 
 PCOD9458533
Probable space group: P B C N
;
_chemical_formula_sum "Si O2"
_cell_formula_units_Z 56
_cell_length_a 4.797343
_cell_length_b 14.971996
_cell_length_c 28.617217
_cell_angle_alpha 90.000000
_cell_angle_beta 90.000000
_cell_angle_gamma 90.000000
_cell_volume 2055.454511
_symmetry_space_group_name_H-M "P B C N"
_symmetry_group_IT_number 60
_symmetry_cell_setting 'orthorhombic'
loop_
_space_group_symop_operation_xyz
x,y,z
1/2-x,1/2-y,1/2+z
1/2+x,1/2-y,-z
-x,y,1/2-z
-x,-y,-z
1/2+x,1/2+y,1/2-z
1/2-x,1/2+y,z
x,-y,1/2+z
loop_
_atom_site_type_symbol
_atom_site_label
_atom_site_fract_x
_atom_site_fract_y
_atom_site_fract_z
Si Si1 0.121311 0.223572 0.621642
Si Si2 0.000000 0.517290 0.250000
Si Si3 0.298215 0.977170 0.956753
Si Si4 0.298041 0.462797 0.097044
Si Si5 0.500000 0.713988 0.250000
Si Si6 0.212409 0.277894 0.970329
Si Si7 0.124425 0.103672 0.171522
Si Si8 0.296939 0.349980 0.290667
O O1 0.267676 0.313862 0.639651
O O2 0.925573 0.246951 0.577743
O O3 0.938104 0.176033 0.661610
O O4 0.302194 0.137803 0.606258
O O5 0.141958 0.571534 0.208311
O O6 0.221164 0.448911 0.274731
O O7 0.521990 0.982347 0.915193
O O8 0.182155 0.877989 0.962395
O O9 0.032559 0.037299 0.943661
O O10 0.500000 0.000000 0.000000
O O11 0.437271 0.519160 0.139162
O O12 0.406656 0.643063 0.290441
O O13 0.510369 0.794919 0.210919
O O14 0.465643 0.221615 0.991250
O O15 0.500000 0.307342 0.250000
#
# Coordination Sequence:
#
# PCOD9458533 Si02
#       8
#     8   4   8   8   4   8   8   8
#     4  12  27  48  79 110 160 208 274 326 420 478
#     4  11  28  48  73 112 168 206 275 328 409 494
#     4  12  26  52  79 114 160 204 266 335 416 479
#     4  12  29  48  79 117 155 208 268 334 390 497
#     4  11  26  42  75 100 156 198 263 318 401 470
#     4  12  27  50  80 118 159 210 268 337 404 488
#     4  12  27  48  75 116 152 214 265 335 400 494
#     4  11  24  48  73 110 152 209 258 335 399 492
#
# _framework density 27.244585000000001
#
# number of rings (size 3 to 8) (size 9 to 14) (size 15 to 20)
#    0.000    0.286    2.857    4.714    9.000    0.000 
#    0.000    0.000    0.000    0.000    0.000    0.000 
#    0.000    0.000    0.000    0.000    0.000    0.000 
#
# Total GULP energy -312666.311611 kJ/mol
# GULP energy per Si atom -5583.326993 kJ/mol
# Density = 2.718258 g / cm^3
# Si number density = 27.244585 Si / 1000 Ang^3
#
#
#
# Elastic Constant Matrix: (Units=GPa)
#
#
# Indices 1 2 3 4 5 6 
#
# 1 88.6160 -4.1465 29.8264 0.0000 0.0000 0.0000
# 2 -4.1465 159.6031 47.8267 0.0000 0.0000 0.0000
# 3 29.8264 47.8267 140.5705 0.0000 0.0000 0.0000
# 4 0.0000 0.0000 0.0000 58.2701 0.0000 0.0000
# 5 0.0000 0.0000 0.0000 0.0000 40.4405 0.0000
# 6 0.0000 0.0000 0.0000 0.0000 0.0000 9.3157
#
#
#
# Elastic Compliance Matrix: (Units=1/GPa)
#
#
# Indices 1 2 3 4 5 6 
#
# 1 0.012367 0.001233 -0.003044 0.000000 0.000000 0.000000
# 2 0.001233 0.007100 -0.002677 0.000000 0.000000 0.000000
# 3 -0.003044 -0.002677 0.008671 0.000000 0.000000 0.000000
# 4 0.000000 0.000000 0.000000 0.017161 0.000000 0.000000
# 5 0.000000 0.000000 0.000000 0.000000 0.024728 0.000000
# 6 0.000000 0.000000 0.000000 0.000000 0.000000 0.107346
#
#
# Mechanical properties :
#
#
# Convention : Reuss Voigt Hill
#
# Bulk Modulus (GPa) = 52.18646 59.53365 55.86005
# Shear Modulus (GPa) = 25.94235 42.62412 34.28324
#
# Velocity S-wave (km/s) = 3.08913 3.95967 3.55117
# Velocity P-wave (km/s) = 5.64978 6.54250 6.11246
#
# Compressibility (1/GPa) = 0.01916206
#
# Stress axis : x y z
#
# Youngs Moduli (GPa) = 80.86182 140.84769 115.33261
#
# Poissons Ratio (x) = -0.17371 0.35103
# Poissons Ratio (y) = -0.09973 0.30878
# Poissons Ratio (z) = 0.24611 0.37709
#
# Static dielectric constant tensor:
#      x y z
#    x 2.391120 0.000000 0.000000 
#    y 0.000000 2.060570 0.000000 
#    z 0.000000 0.000000 2.283370 
# 
# From -- ./inp_files/25739.got.cif
#   From: 2010.05.17/outbox.cif.g08.bks.cpg/sg60_13_cif.got.tgz:25739.got - 2010.06.03 14:59:27.
