data_PCOD9458972
_publ_section_title
;
Structure prediction by ZEFSAII (Michael W. Deem and Ramdas Pophale) SiO2 
 PCOD9458972
Probable space group: P B C A
;
_chemical_formula_sum "Si O2"
_cell_formula_units_Z 56
_cell_length_a 12.982930
_cell_length_b 28.888752
_cell_length_c 5.548097
_cell_angle_alpha 90.000000
_cell_angle_beta 90.000000
_cell_angle_gamma 90.000000
_cell_volume 2080.872839
_symmetry_space_group_name_H-M "P B C A"
_symmetry_group_IT_number 61
_symmetry_cell_setting 'orthorhombic'
loop_
_space_group_symop_operation_xyz
x,y,z
1/2-x,-y,1/2+z
1/2+x,1/2-y,-z
-x,1/2+y,1/2-z
-x,-y,-z
1/2+x,y,1/2-z
1/2-x,1/2+y,z
x,1/2-y,1/2+z
loop_
_atom_site_type_symbol
_atom_site_label
_atom_site_fract_x
_atom_site_fract_y
_atom_site_fract_z
Si Si1 0.932672 0.135892 0.863724
Si Si2 0.432515 0.774376 0.868860
Si Si3 0.157216 0.760896 0.143924
Si Si4 0.336731 0.624861 0.357020
Si Si5 0.186783 0.495855 0.250659
Si Si6 0.943809 0.084643 0.363557
Si Si7 0.164497 0.107838 0.853594
O O1 0.887060 0.187283 0.847568
O O2 0.912492 0.104755 0.625569
O O3 0.059373 0.137420 0.856183
O O4 0.914338 0.114009 0.126304
O O5 0.406327 0.746729 0.627438
O O6 0.558063 0.773277 0.863631
O O7 0.388826 0.825376 0.850582
O O8 0.212812 0.748235 0.391494
O O9 0.431021 0.588056 0.362538
O O10 0.278191 0.621361 0.608923
O O11 0.280981 0.616345 0.106562
O O12 0.247702 0.510108 0.499343
O O13 0.102390 0.534126 0.182912
O O14 0.141431 0.446322 0.327563
#
# Coordination Sequence:
#
# PCOD9458972 Si02
#       7
#     8   8   8   8   8   8   8
#     4  10  19  32  54  85 111 137 170 207 266 317
#     4  10  16  25  43  74 120 145 156 189 242 323
#     4  10  16  25  43  74 120 145 156 189 242 323
#     4  10  19  32  54  85 111 137 170 207 266 317
#     4  12  26  42  56  74 100 138 186 226 266 310
#     4  10  20  35  54  75 107 135 172 222 263 315
#     4  10  20  35  54  75 107 135 172 222 263 315
#
# _framework density 26.911783
#
# number of rings (size 3 to 8) (size 9 to 14) (size 15 to 20)
#    0.000    1.714    0.000   10.286    0.000    4.571 
#    0.000    0.000    0.000    0.000    0.000    0.000 
#    0.000  278.857    0.000    0.000    0.000    0.000 
#
# Total GULP energy -313926.996145 kJ/mol
# GULP energy per Si atom -5605.839217 kJ/mol
# Density = 2.685053 g / cm^3
# Si number density = 26.911783 Si / 1000 Ang^3
#
#
#
# Elastic Constant Matrix: (Units=GPa)
#
#
# Indices 1 2 3 4 5 6 
#
# 1 76.4420 1.9239 53.3465 0.0000 0.0000 0.0000
# 2 1.9239 90.2841 42.7833 0.0000 0.0000 0.0000
# 3 53.3465 42.7833 317.8359 0.0000 0.0000 0.0000
# 4 0.0000 0.0000 0.0000 56.9976 0.0000 0.0000
# 5 0.0000 0.0000 0.0000 0.0000 61.6258 0.0000
# 6 0.0000 0.0000 0.0000 0.0000 0.0000 -7.3854
#
#
#
# Elastic Compliance Matrix: (Units=1/GPa)
#
#
# Indices 1 2 3 4 5 6 
#
# 1 0.014890 0.000926 -0.002624 0.000000 0.000000 0.000000
# 2 0.000926 0.011888 -0.001756 0.000000 0.000000 0.000000
# 3 -0.002624 -0.001756 0.003823 0.000000 0.000000 0.000000
# 4 0.000000 0.000000 0.000000 0.017545 0.000000 0.000000
# 5 0.000000 0.000000 0.000000 0.000000 0.016227 0.000000
# 6 0.000000 0.000000 0.000000 0.000000 0.000000 -0.135402
#
#
# Mechanical properties :
#
#
# Convention : Reuss Voigt Hill
#
# Bulk Modulus (GPa) = 42.20460 75.62991 58.91726
# Shear Modulus (GPa) = -88.92906 48.01483 -20.45711
#
# Velocity S-wave (km/s) = -5.75468 4.22851 -2.76008
# Velocity P-wave (km/s) = 5.33278 7.21140 3.43262
#
# Compressibility (1/GPa) = 0.02369410
#
# Stress axis : x y z
#
# Youngs Moduli (GPa) = 67.16122 84.11567 261.57548
#
# Poissons Ratio (x) = -0.07790 0.68631
# Poissons Ratio (y) = -0.06219 0.45925
# Poissons Ratio (z) = 0.17621 0.14768
#
# Static dielectric constant tensor:
#      x y z
#    x 2.128760 0.000000 0.000000 
#    y 0.000000 2.008750 0.000000 
#    z 0.000000 0.000000 2.152400 
# 
# From -- ./inp_files/1044.got.cif
#   From: 2010.05.17/outbox.cif.g08.bks.cpg/sg61_1_cif.got.tgz:1044.got - 2010.06.03 15:17:17.
