data_PCOD9458416
_publ_section_title
;
Structure prediction by ZEFSAII (Michael W. Deem and Ramdas Pophale) SiO2 
 PCOD9458416
Probable space group: P B C N
;
_chemical_formula_sum "Si O2"
_cell_formula_units_Z 48
_cell_length_a 9.058039
_cell_length_b 15.382699
_cell_length_c 14.056441
_cell_angle_alpha 90.000000
_cell_angle_beta 90.000000
_cell_angle_gamma 90.000000
_cell_volume 1958.583549
_symmetry_space_group_name_H-M "P B C N"
_symmetry_group_IT_number 60
_symmetry_cell_setting 'orthorhombic'
loop_
_space_group_symop_operation_xyz
x,y,z
1/2-x,1/2-y,1/2+z
1/2+x,1/2-y,-z
-x,y,1/2-z
-x,-y,-z
1/2+x,1/2+y,1/2-z
1/2-x,1/2+y,z
x,-y,1/2+z
loop_
_atom_site_type_symbol
_atom_site_label
_atom_site_fract_x
_atom_site_fract_y
_atom_site_fract_z
Si Si1 0.985342 0.132067 0.987102
Si Si2 0.128754 0.077956 0.173175
Si Si3 0.838944 0.194800 0.667059
Si Si4 0.436870 0.140915 0.159838
Si Si5 0.958387 0.325583 0.051530
Si Si6 0.234499 0.394008 0.145147
O O1 0.069178 0.119798 0.887244
O O2 0.816408 0.123877 0.955858
O O3 0.047923 0.075426 0.071445
O O4 0.018706 0.230327 0.022602
O O5 0.260125 0.149220 0.177145
O O6 0.000000 0.090594 0.250000
O O7 0.221017 0.989280 0.179690
O O8 0.692419 0.198748 0.604352
O O9 0.796547 0.168247 0.772877
O O10 0.944308 0.279152 0.663870
O O11 0.500000 0.086196 0.250000
O O12 0.439992 0.119948 0.046672
O O13 0.065055 0.375299 0.123362
#
# Coordination Sequence:
#
# PCOD9458416 Si02
#       6
#     8   8   8   8   8   8
#     4  11  23  47  73 107 147 192 259 313 384 459
#     4  12  29  49  72 112 156 209 256 325 398 460
#     4  11  23  46  76 108 150 193 254 319 383 468
#     4  11  26  46  73 112 152 197 258 324 387 459
#     4  11  25  45  78 112 144 198 259 321 390 463
#     4  12  27  47  76 109 155 204 254 320 398 467
#
# _framework density 24.507507
#
# number of rings (size 3 to 8) (size 9 to 14) (size 15 to 20)
#    0.000    0.667    1.667    6.500    9.333    2.000 
#    0.000    0.000    0.000    0.000    0.000    0.000 
#    0.000    0.000    0.000    0.000    0.000    0.000 
#
# Total GULP energy -268112.525503 kJ/mol
# GULP energy per Si atom -5585.677615 kJ/mol
# Density = 2.445173 g / cm^3
# Si number density = 24.507507 Si / 1000 Ang^3
#
#
#
# Elastic Constant Matrix: (Units=GPa)
#
#
# Indices 1 2 3 4 5 6 
#
# 1 179.8827 29.4852 84.8365 0.0000 0.0000 0.0000
# 2 29.4852 72.7443 22.3347 0.0000 0.0000 0.0000
# 3 84.8365 22.3347 135.1404 0.0000 0.0000 0.0000
# 4 0.0000 0.0000 0.0000 20.5552 0.0000 0.0000
# 5 0.0000 0.0000 0.0000 0.0000 60.8335 0.0000
# 6 0.0000 0.0000 0.0000 0.0000 0.0000 32.9690
#
#
#
# Elastic Compliance Matrix: (Units=1/GPa)
#
#
# Indices 1 2 3 4 5 6 
#
# 1 0.008119 -0.001818 -0.004797 0.000000 0.000000 0.000000
# 2 -0.001818 0.014889 -0.001319 0.000000 0.000000 0.000000
# 3 -0.004797 -0.001319 0.010629 0.000000 0.000000 0.000000
# 4 0.000000 0.000000 0.000000 0.048650 0.000000 0.000000
# 5 0.000000 0.000000 0.000000 0.000000 0.016438 0.000000
# 6 0.000000 0.000000 0.000000 0.000000 0.000000 0.030332
#
#
# Mechanical properties :
#
#
# Convention : Reuss Voigt Hill
#
# Bulk Modulus (GPa) = 56.27808 73.45335 64.86572
# Shear Modulus (GPa) = 33.14604 39.61226 36.37915
#
# Velocity S-wave (km/s) = 3.68160 4.02472 3.85698
# Velocity P-wave (km/s) = 6.40982 7.18573 6.80883
#
# Compressibility (1/GPa) = 0.01776891
#
# Stress axis : x y z
#
# Youngs Moduli (GPa) = 123.16202 67.16447 94.08348
#
# Poissons Ratio (x) = 0.12213 0.45128
# Poissons Ratio (y) = 0.22395 0.12412
# Poissons Ratio (z) = 0.59075 0.08860
#
# Static dielectric constant tensor:
#      x y z
#    x 2.027420 0.000000 0.000000 
#    y 0.000000 2.062660 0.000000 
#    z 0.000000 0.000000 2.025890 
# 
# From -- ./inp_files/15027.got.cif
#   From: 2010.05.17/outbox.cif.g08.bks.cpg/sg60_8_cif.got.tgz:15027.got - 2010.06.03 14:59:27.
