data_PCOD9458232
_publ_section_title
;
Structure prediction by ZEFSAII (Michael W. Deem and Ramdas Pophale) SiO2 
 PCOD9458232
Probable space group: P B C N
;
_chemical_formula_sum "Si O2"
_cell_formula_units_Z 36
_cell_length_a 7.451613
_cell_length_b 10.366034
_cell_length_c 16.744013
_cell_angle_alpha 90.000000
_cell_angle_beta 90.000000
_cell_angle_gamma 90.000000
_cell_volume 1293.369077
_symmetry_space_group_name_H-M "P B C N"
_symmetry_group_IT_number 60
_symmetry_cell_setting 'orthorhombic'
loop_
_space_group_symop_operation_xyz
x,y,z
1/2-x,1/2-y,1/2+z
1/2+x,1/2-y,-z
-x,y,1/2-z
-x,-y,-z
1/2+x,1/2+y,1/2-z
1/2-x,1/2+y,z
x,-y,1/2+z
loop_
_atom_site_type_symbol
_atom_site_label
_atom_site_fract_x
_atom_site_fract_y
_atom_site_fract_z
Si Si1 0.952707 0.260791 0.845947
Si Si2 0.335828 0.352657 0.908295
Si Si3 0.500000 0.564936 0.250000
Si Si4 0.113032 0.413932 0.439257
Si Si5 0.201560 0.467414 0.161720
O O1 0.827387 0.384236 0.862890
O O2 0.000000 0.259604 0.750000
O O3 0.145674 0.290338 0.882334
O O4 0.842020 0.135292 0.874257
O O5 0.463784 0.360566 0.831350
O O6 0.293606 0.499609 0.934534
O O7 0.397325 0.235466 0.964561
O O8 0.312478 0.486907 0.243562
O O9 0.000000 0.500000 0.500000
O O10 0.998613 0.417557 0.355867
#
# Coordination Sequence:
#
# PCOD9458232 Si02
#       5
#     8   8   4   8   8
#     4  11  22  41  62 105 140 172 223 280 368 421
#     4  11  26  43  74 104 142 190 228 309 350 426
#     4  12  22  42  72 114 144 176 238 290 392 414
#     4  11  28  50  70 102 144 197 250 281 347 430
#     4  11  24  39  69 100 140 183 222 299 346 422
#
# _framework density 27.834282999999999
#
# number of rings (size 3 to 8) (size 9 to 14) (size 15 to 20)
#    0.000    0.889    3.333    2.667    0.000    5.333 
#    2.000    3.333    0.000    0.000    0.000    0.000 
#    0.000    0.000    0.000    0.000    0.000    0.000 
#
# Total GULP energy -200617.681028 kJ/mol
# GULP energy per Si atom -5572.713362 kJ/mol
# Density = 2.777093 g / cm^3
# Si number density = 27.834283 Si / 1000 Ang^3
#
#
#
# Elastic Constant Matrix: (Units=GPa)
#
#
# Indices 1 2 3 4 5 6 
#
# 1 129.1333 32.7320 20.7735 0.0000 0.0000 0.0000
# 2 32.7320 162.1707 38.1424 0.0000 0.0000 0.0000
# 3 20.7735 38.1424 69.7753 0.0000 0.0000 0.0000
# 4 0.0000 0.0000 0.0000 -60.9618 0.0000 0.0000
# 5 0.0000 0.0000 0.0000 0.0000 43.2272 0.0000
# 6 0.0000 0.0000 0.0000 0.0000 0.0000 33.2107
#
#
#
# Elastic Compliance Matrix: (Units=1/GPa)
#
#
# Indices 1 2 3 4 5 6 
#
# 1 0.008353 -0.001264 -0.001796 0.000000 0.000000 0.000000
# 2 -0.001264 0.007267 -0.003596 0.000000 0.000000 0.000000
# 3 -0.001796 -0.003596 0.016832 0.000000 0.000000 0.000000
# 4 0.000000 0.000000 0.000000 -0.016404 0.000000 0.000000
# 5 0.000000 0.000000 0.000000 0.000000 0.023134 0.000000
# 6 0.000000 0.000000 0.000000 0.000000 0.000000 0.030111
#
#
# Mechanical properties :
#
#
# Convention : Reuss Voigt Hill
#
# Bulk Modulus (GPa) = 52.24511 60.48613 56.36562
# Shear Modulus (GPa) = 56.18862 21.05731 38.62296
#
# Velocity S-wave (km/s) = 4.49785 2.75348 3.72910
# Velocity P-wave (km/s) = 6.76646 5.64685 6.23185
#
# Compressibility (1/GPa) = 0.01914055
#
# Stress axis : x y z
#
# Youngs Moduli (GPa) = 119.71523 137.60377 59.40904
#
# Poissons Ratio (x) = 0.17386 0.10671
# Poissons Ratio (y) = 0.15126 0.21366
# Poissons Ratio (z) = 0.21503 0.49488
#
# Static dielectric constant tensor:
#      x y z
#    x 2.253660 0.000000 0.000000 
#    y 0.000000 2.271340 0.000000 
#    z 0.000000 0.000000 2.275090 
# 
# From -- ./inp_files/21936.got.cif
#   From: 2010.05.17/outbox.cif.g08.bks.cpg/sg60_11_cif.got.tgz:21936.got - 2010.06.03 14:59:27.
