data_PCOD9458770
_publ_section_title
;
Structure prediction by ZEFSAII (Michael W. Deem and Ramdas Pophale) SiO2 
 PCOD9458770
Probable space group: P B C N
;
_chemical_formula_sum "Si O2"
_cell_formula_units_Z 32
_cell_length_a 4.898753
_cell_length_b 16.940603
_cell_length_c 15.975591
_cell_angle_alpha 90.000000
_cell_angle_beta 90.000000
_cell_angle_gamma 90.000000
_cell_volume 1325.779626
_symmetry_space_group_name_H-M "P B C N"
_symmetry_group_IT_number 60
_symmetry_cell_setting 'orthorhombic'
loop_
_space_group_symop_operation_xyz
x,y,z
1/2-x,1/2-y,1/2+z
1/2+x,1/2-y,-z
-x,y,1/2-z
-x,-y,-z
1/2+x,1/2+y,1/2-z
1/2-x,1/2+y,z
x,-y,1/2+z
loop_
_atom_site_type_symbol
_atom_site_label
_atom_site_fract_x
_atom_site_fract_y
_atom_site_fract_z
Si Si1 0.094047 0.509618 0.157038
Si Si2 0.884793 0.091362 0.082757
Si Si3 0.647332 0.351071 0.395725
Si Si4 0.372830 0.756221 0.342494
O O1 0.333547 0.565359 0.124143
O O2 0.213077 0.421526 0.156038
O O3 0.000000 0.530064 0.250000
O O4 0.834770 0.522252 0.097088
O O5 0.781145 0.169247 0.130630
O O6 0.917204 0.113147 0.986266
O O7 0.380466 0.314954 0.353234
O O8 0.880149 0.284114 0.402591
O O9 0.500000 0.756221 0.250000
#
# Coordination Sequence:
#
# PCOD9458770 Si02
#       4
#     8   8   8   8
#     4  12  25  44  70 103 140 183 231 285 346 411
#     4  12  25  46  71 102 140 184 232 287 345 413
#     4  12  25  45  70 103 140 184 233 286 346 413
#     4  12  25  43  69 102 140 185 232 286 346 411
#
# _framework density 24.13674
#
# number of rings (size 3 to 8) (size 9 to 14) (size 15 to 20)
#    0.000    0.000    0.000   11.250    0.000    2.000 
#    0.000    0.000    0.000    0.000    0.000    0.000 
#    0.000    0.000    0.000    0.000    0.000    0.000 
#
# Total GULP energy -179670.505748 kJ/mol
# GULP energy per Si atom -5614.703305 kJ/mol
# Density = 2.408180 g / cm^3
# Si number density = 24.136740 Si / 1000 Ang^3
#
#
#
# Elastic Constant Matrix: (Units=GPa)
#
#
# Indices 1 2 3 4 5 6 
#
# 1 154.0868 31.8896 43.2739 0.0000 0.0000 0.0000
# 2 31.8896 60.7728 21.0194 0.0000 0.0000 0.0000
# 3 43.2739 21.0194 87.0409 0.0000 0.0000 0.0000
# 4 0.0000 0.0000 0.0000 33.6418 0.0000 0.0000
# 5 0.0000 0.0000 0.0000 0.0000 34.7488 0.0000
# 6 0.0000 0.0000 0.0000 0.0000 0.0000 42.9572
#
#
#
# Elastic Compliance Matrix: (Units=1/GPa)
#
#
# Indices 1 2 3 4 5 6 
#
# 1 0.008044 -0.003096 -0.003251 0.000000 0.000000 0.000000
# 2 -0.003096 0.019146 -0.003084 0.000000 0.000000 0.000000
# 3 -0.003251 -0.003084 0.013850 0.000000 0.000000 0.000000
# 4 0.000000 0.000000 0.000000 0.029725 0.000000 0.000000
# 5 0.000000 0.000000 0.000000 0.000000 0.028778 0.000000
# 6 0.000000 0.000000 0.000000 0.000000 0.000000 0.023279
#
#
# Mechanical properties :
#
#
# Convention : Reuss Voigt Hill
#
# Bulk Modulus (GPa) = 45.09315 54.91848 50.00581
# Shear Modulus (GPa) = 33.53954 35.98409 34.76181
#
# Velocity S-wave (km/s) = 3.73173 3.86533 3.79912
# Velocity P-wave (km/s) = 6.10661 6.53632 6.32512
#
# Compressibility (1/GPa) = 0.02217632
#
# Stress axis : x y z
#
# Youngs Moduli (GPa) = 124.31973 52.22973 72.20146
#
# Poissons Ratio (x) = 0.16172 0.23475
# Poissons Ratio (y) = 0.38493 0.22268
# Poissons Ratio (z) = 0.40421 0.16109
#
# Static dielectric constant tensor:
#      x y z
#    x 1.889190 0.000000 0.000000 
#    y 0.000000 1.939350 0.000000 
#    z 0.000000 0.000000 1.892330 
# 
# From -- ./inp_files/13620.got.cif
#   From: 2010.05.17/outbox.cif.g08.bks.cpg/sg60_7_cif.got.tgz:13620.got - 2010.06.03 14:59:27.
