data_PCOD9458750
_publ_section_title
;
Structure prediction by ZEFSAII (Michael W. Deem and Ramdas Pophale) SiO2 
 PCOD9458750
Probable space group: P B C N
;
_chemical_formula_sum "Si O2"
_cell_formula_units_Z 32
_cell_length_a 14.404516
_cell_length_b 11.282995
_cell_length_c 8.506034
_cell_angle_alpha 90.000000
_cell_angle_beta 90.000000
_cell_angle_gamma 90.000000
_cell_volume 1382.452379
_symmetry_space_group_name_H-M "P B C N"
_symmetry_group_IT_number 60
_symmetry_cell_setting 'orthorhombic'
loop_
_space_group_symop_operation_xyz
x,y,z
1/2-x,1/2-y,1/2+z
1/2+x,1/2-y,-z
-x,y,1/2-z
-x,-y,-z
1/2+x,1/2+y,1/2-z
1/2-x,1/2+y,z
x,-y,1/2+z
loop_
_atom_site_type_symbol
_atom_site_label
_atom_site_fract_x
_atom_site_fract_y
_atom_site_fract_z
Si Si1 0.623222 0.214972 0.618744
Si Si2 0.523309 0.627556 0.567213
Si Si3 0.427456 0.049029 0.376467
Si Si4 0.810833 0.754555 0.960972
O O1 0.531040 0.275470 0.543993
O O2 0.659713 0.271490 0.780320
O O3 0.702128 0.232833 0.487791
O O4 0.616457 0.076991 0.671586
O O5 0.500000 0.635758 0.750000
O O6 0.500000 0.500000 0.500000
O O7 0.633313 0.644682 0.552560
O O8 0.500000 0.103121 0.250000
O O9 0.353386 0.136559 0.455062
O O10 0.500000 0.000000 0.500000
#
# Coordination Sequence:
#
# PCOD9458750 Si02
#       4
#     8   8   8   8
#     4  12  27  46  72 108 143 188 238 293 357 426
#     4  12  26  48  72 100 143 187 232 293 357 421
#     4  12  24  47  77 103 140 188 243 301 358 425
#     4  12  27  45  73 106 145 185 239 293 357 426
#
# _framework density 23.147271
#
# number of rings (size 3 to 8) (size 9 to 14) (size 15 to 20)
#    0.000    0.000    5.000    4.500    7.000    0.000 
#    0.000    0.000    0.000    0.000    0.000    0.000 
#    0.000    0.000    0.000    0.000    0.000    0.000 
#
# Total GULP energy -178738.613467 kJ/mol
# GULP energy per Si atom -5585.581671 kJ/mol
# Density = 2.309459 g / cm^3
# Si number density = 23.147271 Si / 1000 Ang^3
#
#
#
# Elastic Constant Matrix: (Units=GPa)
#
#
# Indices 1 2 3 4 5 6 
#
# 1 87.7915 -5.4271 -8.2768 0.0000 0.0000 0.0000
# 2 -5.4271 114.5635 -7.0874 0.0000 0.0000 0.0000
# 3 -8.2768 -7.0874 122.9165 0.0000 0.0000 0.0000
# 4 0.0000 0.0000 0.0000 24.4894 0.0000 0.0000
# 5 0.0000 0.0000 0.0000 0.0000 36.7948 0.0000
# 6 0.0000 0.0000 0.0000 0.0000 0.0000 3.9093
#
#
#
# Elastic Compliance Matrix: (Units=1/GPa)
#
#
# Indices 1 2 3 4 5 6 
#
# 1 0.011504 0.000595 0.000809 0.000000 0.000000 0.000000
# 2 0.000595 0.008791 0.000547 0.000000 0.000000 0.000000
# 3 0.000809 0.000547 0.008222 0.000000 0.000000 0.000000
# 4 0.000000 0.000000 0.000000 0.040834 0.000000 0.000000
# 5 0.000000 0.000000 0.000000 0.000000 0.027178 0.000000
# 6 0.000000 0.000000 0.000000 0.000000 0.000000 0.255798
#
#
# Mechanical properties :
#
#
# Convention : Reuss Voigt Hill
#
# Bulk Modulus (GPa) = 30.84724 31.52100 31.18412
# Shear Modulus (GPa) = 13.91868 36.10958 25.01413
#
# Velocity S-wave (km/s) = 2.45482 3.95396 3.29089
# Velocity P-wave (km/s) = 4.62497 5.87301 5.28595
#
# Compressibility (1/GPa) = 0.03241782
#
# Stress axis : x y z
#
# Youngs Moduli (GPa) = 86.92883 113.75525 121.63065
#
# Poissons Ratio (x) = -0.06768 -0.09839
# Poissons Ratio (y) = -0.05172 -0.06653
# Poissons Ratio (z) = -0.07032 -0.06222
#
# Static dielectric constant tensor:
#      x y z
#    x 1.749150 0.000000 0.000000 
#    y 0.000000 2.096460 0.000000 
#    z 0.000000 0.000000 1.807860 
# 
# From -- ./inp_files/5471.got.cif
#   From: 2010.05.17/outbox.cif.g08.bks.cpg/sg60_3_cif.got.tgz:5471.got - 2010.06.03 14:59:27.
