data_PCOD9458942
_publ_section_title
;
Structure prediction by ZEFSAII (Michael W. Deem and Ramdas Pophale) SiO2 
 PCOD9458942
Probable space group: P B C N
;
_chemical_formula_sum "Si O2"
_cell_formula_units_Z 40
_cell_length_a 9.000000
_cell_length_b 24.000000
_cell_length_c 9.000000
_cell_angle_alpha 90.000000
_cell_angle_beta 90.000000
_cell_angle_gamma 90.000000
_cell_volume 1944.000000
_symmetry_space_group_name_H-M "P B C N"
_symmetry_group_IT_number 60
_symmetry_cell_setting 'orthorhombic'
loop_
_space_group_symop_operation_xyz
x,y,z
1/2-x,1/2-y,1/2+z
1/2+x,1/2-y,-z
-x,y,1/2-z
-x,-y,-z
1/2+x,1/2+y,1/2-z
1/2-x,1/2+y,z
x,-y,1/2+z
loop_
_atom_site_type_symbol
_atom_site_label
_atom_site_fract_x
_atom_site_fract_y
_atom_site_fract_z
Si Si1 0.194664 0.570419 0.043528
Si Si2 0.818060 0.016458 0.745589
Si Si3 0.604130 0.892281 0.397519
Si Si4 0.162656 0.190443 0.072883
Si Si5 0.693468 0.700364 0.069868
O O1 0.246059 0.541430 0.196723
O O2 0.272061 0.630518 0.028511
O O3 0.266553 0.529874 0.920738
O O4 0.019802 0.579572 0.006695
O O5 0.730152 0.064556 0.839267
O O6 0.000000 0.016719 0.750000
O O7 0.500000 0.876145 0.250000
O O8 0.696810 0.843733 0.484062
O O9 0.197383 0.196597 0.249924
O O10 0.984573 0.192875 0.039455
O O11 0.247967 0.239520 0.985544
#
# Coordination Sequence:
#
# PCOD9458942 Si02
#       5
#     8   8   8   8   8
#     4  11  25  44  68 105 141 186 238 288 355 427
#     4  11  24  42  70  98 143 187 238 290 353 419
#     4  10  24  45  71 103 143 186 237 292 356 425
#     4  11  27  46  73 108 141 185 239 291 363 425
#     4  11  26  47  76 104 144 182 238 298 357 429
#
# _framework density 20.576132000000001
#
# number of rings (size 3 to 8) (size 9 to 14) (size 15 to 20)
#    0.000    1.200    0.000    3.600   14.000    3.200 
#    0.000    0.000    0.000    0.000    0.000    0.000 
#    0.000    0.000    0.000    0.000    0.000    0.000 
#
# Total GULP energy -223630.476404 kJ/mol
# GULP energy per Si atom -5590.761910 kJ/mol
# Density = 2.052930 g / cm^3
# Si number density = 20.576132 Si / 1000 Ang^3
#
#
#
# Elastic Constant Matrix: (Units=GPa)
#
#
# Indices 1 2 3 4 5 6 
#
# 1 188.5918 58.1665 57.8392 0.0000 0.0000 0.0000
# 2 58.1665 115.8273 41.3384 0.0000 0.0000 0.0000
# 3 57.8392 41.3384 83.8838 0.0000 0.0000 0.0000
# 4 0.0000 0.0000 0.0000 43.4517 0.0000 0.0000
# 5 0.0000 0.0000 0.0000 0.0000 42.0942 0.0000
# 6 0.0000 0.0000 0.0000 0.0000 0.0000 40.7416
#
#
#
# Elastic Compliance Matrix: (Units=1/GPa)
#
#
# Indices 1 2 3 4 5 6 
#
# 1 0.007169 -0.002228 -0.003845 0.000000 0.000000 0.000000
# 2 -0.002228 0.011168 -0.003968 0.000000 0.000000 0.000000
# 3 -0.003845 -0.003968 0.016528 0.000000 0.000000 0.000000
# 4 0.000000 0.000000 0.000000 0.023014 0.000000 0.000000
# 5 0.000000 0.000000 0.000000 0.000000 0.023756 0.000000
# 6 0.000000 0.000000 0.000000 0.000000 0.000000 0.024545
#
#
# Mechanical properties :
#
#
# Convention : Reuss Voigt Hill
#
# Bulk Modulus (GPa) = 67.64196 78.11012 72.87604
# Shear Modulus (GPa) = 38.11281 40.65477 39.38379
#
# Velocity S-wave (km/s) = 4.30848 4.44984 4.37973
# Velocity P-wave (km/s) = 7.59579 8.02779 7.81478
#
# Compressibility (1/GPa) = 0.01478372
#
# Stress axis : x y z
#
# Youngs Moduli (GPa) = 139.49292 89.53870 60.50381
#
# Poissons Ratio (x) = 0.19947 0.23265
# Poissons Ratio (y) = 0.31075 0.24006
# Poissons Ratio (z) = 0.53637 0.35527
#
# Static dielectric constant tensor:
#      x y z
#    x 1.699410 0.000000 0.000000 
#    y 0.000000 1.738810 0.000000 
#    z 0.000000 0.000000 1.777010 
# 
# From -- ./inp_files/3798.got.cif
#   From: 2010.05.17/outbox.ucp.g08.bks.cvg/sg60_2_cif.got.tgz:3798.got - 2010.06.11 16:26:41.
