data_PCOD9458952
_publ_section_title
;
Structure prediction by ZEFSAII (Michael W. Deem and Ramdas Pophale) SiO2 
 PCOD9458952
Probable space group: P B C N
;
_chemical_formula_sum "Si O2"
_cell_formula_units_Z 56
_cell_length_a 12.000000
_cell_length_b 15.000000
_cell_length_c 15.000000
_cell_angle_alpha 90.000000
_cell_angle_beta 90.000000
_cell_angle_gamma 90.000000
_cell_volume 2700.000000
_symmetry_space_group_name_H-M "P B C N"
_symmetry_group_IT_number 60
_symmetry_cell_setting 'orthorhombic'
loop_
_space_group_symop_operation_xyz
x,y,z
1/2-x,1/2-y,1/2+z
1/2+x,1/2-y,-z
-x,y,1/2-z
-x,-y,-z
1/2+x,1/2+y,1/2-z
1/2-x,1/2+y,z
x,-y,1/2+z
loop_
_atom_site_type_symbol
_atom_site_label
_atom_site_fract_x
_atom_site_fract_y
_atom_site_fract_z
Si Si1 0.635176 0.287118 0.632212
Si Si2 0.166569 0.822813 0.461315
Si Si3 0.299349 0.911652 0.105413
Si Si4 0.790703 0.781244 0.827253
Si Si5 0.406172 0.912234 0.674317
Si Si6 0.510819 0.181534 0.004950
Si Si7 0.623354 0.522612 0.033341
O O1 0.746053 0.239761 0.591138
O O2 0.630884 0.286988 0.739721
O O3 0.546583 0.221775 0.583665
O O4 0.625467 0.389697 0.596906
O O5 0.180605 0.815701 0.570866
O O6 0.050543 0.771575 0.445121
O O7 0.170029 0.926242 0.433092
O O8 0.266593 0.823209 0.159141
O O9 0.355312 0.989369 0.162830
O O10 0.387212 0.877190 0.031111
O O11 0.196045 0.951073 0.052182
O O12 0.687233 0.841489 0.798422
O O13 0.500000 0.912780 0.750000
O O14 0.444878 0.878072 0.575954
O O15 0.500000 0.500000 0.000000
#
# Coordination Sequence:
#
# PCOD9458952 Si02
#       7
#     8   8   8   8   8   8   8
#     4  12  24  44  73 103 143 192 237 292 364 427
#     4  11  23  44  68  98 145 183 234 301 352 423
#     4  11  25  45  70 101 146 181 242 305 352 436
#     4  11  25  45  68 101 149 181 235 301 357 423
#     4  12  25  43  72 106 140 186 242 296 362 429
#     4  11  22  44  71 100 142 190 233 295 360 423
#     4  12  23  44  73 100 138 191 236 291 371 428
#
# _framework density 20.740741
#
# number of rings (size 3 to 8) (size 9 to 14) (size 15 to 20)
#    0.000    0.571    7.143    1.286    2.000    2.857 
#    0.000    0.000    0.000    0.000    0.000    0.000 
#    0.000    0.000    0.000    0.000    0.000    0.000 
#
# Total GULP energy -312576.548641 kJ/mol
# GULP energy per Si atom -5581.724083 kJ/mol
# Density = 2.069353 g / cm^3
# Si number density = 20.740741 Si / 1000 Ang^3
#
#
#
# Elastic Constant Matrix: (Units=GPa)
#
#
# Indices 1 2 3 4 5 6 
#
# 1 71.4677 28.0830 5.6418 0.0000 0.0000 0.0000
# 2 28.0830 177.9649 15.1160 0.0000 0.0000 0.0000
# 3 5.6418 15.1160 54.5006 0.0000 0.0000 0.0000
# 4 0.0000 0.0000 0.0000 14.3554 0.0000 0.0000
# 5 0.0000 0.0000 0.0000 0.0000 20.6339 0.0000
# 6 0.0000 0.0000 0.0000 0.0000 0.0000 24.2773
#
#
#
# Elastic Compliance Matrix: (Units=1/GPa)
#
#
# Indices 1 2 3 4 5 6 
#
# 1 0.014962 -0.002283 -0.000916 0.000000 0.000000 0.000000
# 2 -0.002283 0.006103 -0.001456 0.000000 0.000000 0.000000
# 3 -0.000916 -0.001456 0.018847 0.000000 0.000000 0.000000
# 4 0.000000 0.000000 0.000000 0.069660 0.000000 0.000000
# 5 0.000000 0.000000 0.000000 0.000000 0.048464 0.000000
# 6 0.000000 0.000000 0.000000 0.000000 0.000000 0.041191
#
#
# Mechanical properties :
#
#
# Convention : Reuss Voigt Hill
#
# Bulk Modulus (GPa) = 32.67790 44.62387 38.65089
# Shear Modulus (GPa) = 22.85840 28.85946 25.85893
#
# Velocity S-wave (km/s) = 3.32339 3.73425 3.53479
# Velocity P-wave (km/s) = 5.52415 6.33676 5.94436
#
# Compressibility (1/GPa) = 0.03060172
#
# Stress axis : x y z
#
# Youngs Moduli (GPa) = 66.83688 163.85170 53.05848
#
# Poissons Ratio (x) = 0.37411 0.04858
# Poissons Ratio (y) = 0.15260 0.07727
# Poissons Ratio (z) = 0.06119 0.23863
#
# Static dielectric constant tensor:
#      x y z
#    x 1.865730 0.000000 0.000000 
#    y 0.000000 1.729340 0.000000 
#    z 0.000000 0.000000 1.718990 
# 
# From -- ./inp_files/16155.got.cif
#   From: 2010.05.17/outbox.ucp.g08.bks.cvg/sg60_9_cif.got.tgz:16155.got - 2010.06.11 16:26:41.
