data_PCOD9458813
_publ_section_title
;
Structure prediction by ZEFSAII (Michael W. Deem and Ramdas Pophale) SiO2 
 PCOD9458813
Probable space group: P B C N
;
_chemical_formula_sum "Si O2"
_cell_formula_units_Z 32
_cell_length_a 11.229330
_cell_length_b 7.350463
_cell_length_c 13.904538
_cell_angle_alpha 90.000000
_cell_angle_beta 90.000000
_cell_angle_gamma 90.000000
_cell_volume 1147.691338
_symmetry_space_group_name_H-M "P B C N"
_symmetry_group_IT_number 60
_symmetry_cell_setting 'orthorhombic'
loop_
_space_group_symop_operation_xyz
x,y,z
1/2-x,1/2-y,1/2+z
1/2+x,1/2-y,-z
-x,y,1/2-z
-x,-y,-z
1/2+x,1/2+y,1/2-z
1/2-x,1/2+y,z
x,-y,1/2+z
loop_
_atom_site_type_symbol
_atom_site_label
_atom_site_fract_x
_atom_site_fract_y
_atom_site_fract_z
Si Si1 0.692173 0.986959 0.053942
Si Si2 0.558780 0.369253 0.078980
Si Si3 0.651727 0.143611 0.341577
Si Si4 0.880668 0.721725 0.730270
O O1 0.621986 0.176930 0.048984
O O2 0.822138 0.983721 0.105208
O O3 0.621082 0.851082 0.122053
O O4 0.701098 0.905808 0.947287
O O5 0.450804 0.294426 0.144557
O O6 0.500000 0.500000 0.000000
O O7 0.757117 0.202921 0.271080
O O8 0.605181 0.957987 0.296954
O O9 0.000000 0.836578 0.750000
#
# Coordination Sequence:
#
# PCOD9458813 Si02
#       4
#     8   8   8   8
#     4  12  27  50  84 123 170 228 295 370 446 530
#     4  12  26  49  83 120 168 225 290 366 444 533
#     4  12  28  51  82 124 168 234 292 357 452 530
#     4  12  28  53  83 122 178 230 297 369 438 540
#
# _framework density 27.882062999999999
#
# number of rings (size 3 to 8) (size 9 to 14) (size 15 to 20)
#    0.000    0.000    2.500    6.750    3.500    0.000 
#    9.000    0.000    0.000    0.000    0.000    0.000 
#    0.000    0.000    0.000    0.000    0.000    0.000 
#
# Total GULP energy -179450.434588 kJ/mol
# GULP energy per Si atom -5607.826081 kJ/mol
# Density = 2.781860 g / cm^3
# Si number density = 27.882063 Si / 1000 Ang^3
#
#
#
# Elastic Constant Matrix: (Units=GPa)
#
#
# Indices 1 2 3 4 5 6 
#
# 1 200.9887 71.5856 22.8658 0.0000 0.0000 0.0000
# 2 71.5856 168.7696 45.7661 0.0000 0.0000 0.0000
# 3 22.8658 45.7661 139.2351 0.0000 0.0000 0.0000
# 4 0.0000 0.0000 0.0000 2.4002 0.0000 0.0000
# 5 0.0000 0.0000 0.0000 0.0000 63.8793 0.0000
# 6 0.0000 0.0000 0.0000 0.0000 0.0000 52.5941
#
#
#
# Elastic Compliance Matrix: (Units=1/GPa)
#
#
# Indices 1 2 3 4 5 6 
#
# 1 0.005864 -0.002444 -0.000160 0.000000 0.000000 0.000000
# 2 -0.002444 0.007524 -0.002072 0.000000 0.000000 0.000000
# 3 -0.000160 -0.002072 0.007889 0.000000 0.000000 0.000000
# 4 0.000000 0.000000 0.000000 0.416629 0.000000 0.000000
# 5 0.000000 0.000000 0.000000 0.000000 0.015655 0.000000
# 6 0.000000 0.000000 0.000000 0.000000 0.000000 0.019014
#
#
# Mechanical properties :
#
#
# Convention : Reuss Voigt Hill
#
# Bulk Modulus (GPa) = 83.84815 87.71428 85.78121
# Shear Modulus (GPa) = 10.29019 48.35977 29.32498
#
# Velocity S-wave (km/s) = 1.92318 4.16918 3.24659
# Velocity P-wave (km/s) = 5.92193 7.39617 6.69972
#
# Compressibility (1/GPa) = 0.01192632
#
# Stress axis : x y z
#
# Youngs Moduli (GPa) = 170.53072 132.91385 126.75457
#
# Poissons Ratio (x) = 0.32484 0.02024
# Poissons Ratio (y) = 0.41678 0.26259
# Poissons Ratio (z) = 0.02723 0.27535
#
# Static dielectric constant tensor:
#      x y z
#    x 2.258910 0.000000 0.000000 
#    y 0.000000 2.229890 0.000000 
#    z 0.000000 0.000000 2.661280 
# 
# From -- ./inp_files/15608.got.cif
#   From: 2010.05.17/outbox.cif.g08.bks.cpg/sg60_8_cif.got.tgz:15608.got - 2010.06.03 14:59:27.
