data_PCOD9458476
_publ_section_title
;
Structure prediction by ZEFSAII (Michael W. Deem and Ramdas Pophale) SiO2 
 PCOD9458476
Probable space group: P B C N
;
_chemical_formula_sum "Si O2"
_cell_formula_units_Z 36
_cell_length_a 19.824965
_cell_length_b 7.429248
_cell_length_c 9.081347
_cell_angle_alpha 90.000000
_cell_angle_beta 90.000000
_cell_angle_gamma 90.000000
_cell_volume 1337.542393
_symmetry_space_group_name_H-M "P B C N"
_symmetry_group_IT_number 60
_symmetry_cell_setting 'orthorhombic'
loop_
_space_group_symop_operation_xyz
x,y,z
1/2-x,1/2-y,1/2+z
1/2+x,1/2-y,-z
-x,y,1/2-z
-x,-y,-z
1/2+x,1/2+y,1/2-z
1/2-x,1/2+y,z
x,-y,1/2+z
loop_
_atom_site_type_symbol
_atom_site_label
_atom_site_fract_x
_atom_site_fract_y
_atom_site_fract_z
Si Si1 0.905236 0.362483 0.507044
Si Si2 0.175892 0.128729 0.373595
Si Si3 0.500000 0.820352 0.750000
Si Si4 0.593654 0.513603 0.870172
Si Si5 0.318535 0.022082 0.265206
O O1 0.961190 0.435964 0.624514
O O2 0.931036 0.173020 0.443727
O O3 0.848269 0.321856 0.630784
O O4 0.864728 0.471401 0.377815
O O5 0.110778 0.055133 0.291611
O O6 0.175918 0.341849 0.361533
O O7 0.161305 0.071744 0.540176
O O8 0.239714 0.067663 0.275394
O O9 0.547045 0.685719 0.845028
#
# Coordination Sequence:
#
# PCOD9458476 Si02
#       5
#     8   8   4   8   8
#     4  11  26  47  74 110 153 205 253 324 376 468
#     4  11  24  43  76 107 151 192 261 326 391 457
#     4  12  26  48  80 110 164 210 274 294 396 478
#     4  11  24  46  76 111 147 211 252 318 378 464
#     4  11  26  46  73 113 147 196 262 326 406 445
#
# _framework density 26.915033999999999
#
# number of rings (size 3 to 8) (size 9 to 14) (size 15 to 20)
#    0.000    0.889    2.222    3.333    3.111    4.444 
#    0.000    0.000    0.000    0.000    0.000    0.000 
#    0.000    0.000    0.000    0.000    0.000    0.000 
#
# Total GULP energy -200650.031209 kJ/mol
# GULP energy per Si atom -5573.611978 kJ/mol
# Density = 2.685377 g / cm^3
# Si number density = 26.915034 Si / 1000 Ang^3
#
#
#
# Elastic Constant Matrix: (Units=GPa)
#
#
# Indices 1 2 3 4 5 6 
#
# 1 75.8373 15.1288 57.5353 0.0000 0.0000 0.0000
# 2 15.1288 83.1424 43.7813 0.0000 0.0000 0.0000
# 3 57.5353 43.7813 169.1430 0.0000 0.0000 0.0000
# 4 0.0000 0.0000 0.0000 71.5064 0.0000 0.0000
# 5 0.0000 0.0000 0.0000 0.0000 49.4111 0.0000
# 6 0.0000 0.0000 0.0000 0.0000 0.0000 35.3748
#
#
#
# Elastic Compliance Matrix: (Units=1/GPa)
#
#
# Indices 1 2 3 4 5 6 
#
# 1 0.017773 -0.000058 -0.006030 0.000000 0.000000 0.000000
# 2 -0.000058 0.013926 -0.003585 0.000000 0.000000 0.000000
# 3 -0.006030 -0.003585 0.008891 0.000000 0.000000 0.000000
# 4 0.000000 0.000000 0.000000 0.013985 0.000000 0.000000
# 5 0.000000 0.000000 0.000000 0.000000 0.020238 0.000000
# 6 0.000000 0.000000 0.000000 0.000000 0.000000 0.028269
#
#
# Mechanical properties :
#
#
# Convention : Reuss Voigt Hill
#
# Bulk Modulus (GPa) = 47.07475 62.33484 54.70480
# Shear Modulus (GPa) = 38.60704 45.37028 41.98866
#
# Velocity S-wave (km/s) = 3.79146 4.11016 3.95403
# Velocity P-wave (km/s) = 6.05764 6.76275 6.41988
#
# Compressibility (1/GPa) = 0.02124281
#
# Stress axis : x y z
#
# Youngs Moduli (GPa) = 56.26545 71.80900 112.46915
#
# Poissons Ratio (x) = 0.00420 0.67824
# Poissons Ratio (y) = 0.00329 0.40317
# Poissons Ratio (z) = 0.33931 0.25741
#
# Static dielectric constant tensor:
#      x y z
#    x 2.257810 0.000000 0.000000 
#    y 0.000000 2.056560 0.000000 
#    z 0.000000 0.000000 2.040800 
# 
# From -- ./inp_files/7161.got.cif
#   From: 2010.05.17/outbox.cif.g08.bks.cpg/sg60_4_cif.got.tgz:7161.got - 2010.06.03 14:59:27.
