data_PCOD9458743
_publ_section_title
;
Structure prediction by ZEFSAII (Michael W. Deem and Ramdas Pophale) SiO2 
 PCOD9458743
Probable space group: P B C N
;
_chemical_formula_sum "Si O2"
_cell_formula_units_Z 24
_cell_length_a 6.538867
_cell_length_b 9.797044
_cell_length_c 17.225053
_cell_angle_alpha 90.000000
_cell_angle_beta 90.000000
_cell_angle_gamma 90.000000
_cell_volume 1103.463899
_symmetry_space_group_name_H-M "P B C N"
_symmetry_group_IT_number 60
_symmetry_cell_setting 'orthorhombic'
loop_
_space_group_symop_operation_xyz
x,y,z
1/2-x,1/2-y,1/2+z
1/2+x,1/2-y,-z
-x,y,1/2-z
-x,-y,-z
1/2+x,1/2+y,1/2-z
1/2-x,1/2+y,z
x,-y,1/2+z
loop_
_atom_site_type_symbol
_atom_site_label
_atom_site_fract_x
_atom_site_fract_y
_atom_site_fract_z
Si Si1 0.983071 0.452794 0.157948
Si Si2 0.790782 0.719833 0.097154
Si Si3 0.140814 0.095868 0.555137
O O1 0.828337 0.573324 0.134589
O O2 0.894424 0.307304 0.130753
O O3 0.000000 0.453206 0.250000
O O4 0.192336 0.476576 0.109525
O O5 0.991878 0.812032 0.106648
O O6 0.758313 0.692387 0.005978
O O7 0.000000 0.000000 0.500000
#
# Coordination Sequence:
#
# PCOD9458743 Si02
#       3
#     8   8   8
#     4  12  30  45  73 112 151 194 245 315 380 436
#     4  12  25  48  73 105 145 192 247 303 367 453
#     4  12  24  46  78 107 142 193 255 297 365 450
#
# _framework density 21.749690999999999
#
# number of rings (size 3 to 8) (size 9 to 14) (size 15 to 20)
#    0.000    0.000    6.667    3.000    4.667    0.000 
#    0.000    0.000    0.000    0.000    0.000    0.000 
#    0.000    0.000    0.000    0.000    0.000    0.000 
#
# Total GULP energy -134282.493569 kJ/mol
# GULP energy per Si atom -5595.103899 kJ/mol
# Density = 2.170019 g / cm^3
# Si number density = 21.749691 Si / 1000 Ang^3
#
#
#
# Elastic Constant Matrix: (Units=GPa)
#
#
# Indices 1 2 3 4 5 6 
#
# 1 88.7324 40.5942 46.9989 0.0000 0.0000 0.0000
# 2 40.5942 69.9406 19.6047 0.0000 0.0000 0.0000
# 3 46.9989 19.6047 129.7943 0.0000 0.0000 0.0000
# 4 0.0000 0.0000 0.0000 10.4263 0.0000 0.0000
# 5 0.0000 0.0000 0.0000 0.0000 16.2694 0.0000
# 6 0.0000 0.0000 0.0000 0.0000 0.0000 50.2542
#
#
#
# Elastic Compliance Matrix: (Units=1/GPa)
#
#
# Indices 1 2 3 4 5 6 
#
# 1 0.018194 -0.009098 -0.005214 0.000000 0.000000 0.000000
# 2 -0.009098 0.019480 0.000352 0.000000 0.000000 0.000000
# 3 -0.005214 0.000352 0.009539 0.000000 0.000000 0.000000
# 4 0.000000 0.000000 0.000000 0.095911 0.000000 0.000000
# 5 0.000000 0.000000 0.000000 0.000000 0.061465 0.000000
# 6 0.000000 0.000000 0.000000 0.000000 0.000000 0.019899
#
#
# Mechanical properties :
#
#
# Convention : Reuss Voigt Hill
#
# Bulk Modulus (GPa) = 51.83214 55.87365 53.85289
# Shear Modulus (GPa) = 19.31702 27.47463 23.39583
#
# Velocity S-wave (km/s) = 2.98342 3.55804 3.28332
# Velocity P-wave (km/s) = 5.97919 6.52876 6.26000
#
# Compressibility (1/GPa) = 0.01929305
#
# Stress axis : x y z
#
# Youngs Moduli (GPa) = 54.96361 51.33491 104.83036
#
# Poissons Ratio (x) = 0.46707 0.54656
# Poissons Ratio (y) = 0.50008 -0.03693
# Poissons Ratio (z) = 0.28657 -0.01808
#
# Static dielectric constant tensor:
#      x y z
#    x 1.833300 0.000000 0.000000 
#    y 0.000000 1.812080 0.000000 
#    z 0.000000 0.000000 1.758070 
# 
# From -- ./inp_files/13474.got.cif
#   From: 2010.05.17/outbox.cif.g08.bks.cpg/sg60_7_cif.got.tgz:13474.got - 2010.06.03 14:59:27.
