data_PCOD9458766
_publ_section_title
;
Structure prediction by ZEFSAII (Michael W. Deem and Ramdas Pophale) SiO2 
 PCOD9458766
Probable space group: P B C N
;
_chemical_formula_sum "Si O2"
_cell_formula_units_Z 28
_cell_length_a 5.121124
_cell_length_b 16.520184
_cell_length_c 13.087077
_cell_angle_alpha 90.000000
_cell_angle_beta 90.000000
_cell_angle_gamma 90.000000
_cell_volume 1107.191721
_symmetry_space_group_name_H-M "P B C N"
_symmetry_group_IT_number 60
_symmetry_cell_setting 'orthorhombic'
loop_
_space_group_symop_operation_xyz
x,y,z
1/2-x,1/2-y,1/2+z
1/2+x,1/2-y,-z
-x,y,1/2-z
-x,-y,-z
1/2+x,1/2+y,1/2-z
1/2-x,1/2+y,z
x,-y,1/2+z
loop_
_atom_site_type_symbol
_atom_site_label
_atom_site_fract_x
_atom_site_fract_y
_atom_site_fract_z
Si Si1 0.994301 0.887355 0.438347
Si Si2 0.824462 0.873192 0.838911
Si Si3 0.014036 0.526718 0.866797
Si Si4 0.500000 0.730888 0.750000
O O1 0.036803 0.857222 0.553321
O O2 0.203078 0.958669 0.414521
O O3 0.059486 0.823061 0.349346
O O4 0.297295 0.919203 0.077180
O O5 0.588127 0.934681 0.863749
O O6 0.724229 0.791306 0.788012
O O7 0.000000 0.913824 0.750000
O O8 0.000000 0.554990 0.750000
#
# Coordination Sequence:
#
# PCOD9458766 Si02
#       4
#     8   8   8   4
#     4  12  29  51  83 111 159 208 262 322 397 462
#     4  12  30  49  80 118 160 206 266 329 391 466
#     4  12  24  53  80 117 149 205 271 325 384 464
#     4  12  30  48  78 116 164 208 258 322 402 484
#
# _framework density 25.289207999999999
#
# number of rings (size 3 to 8) (size 9 to 14) (size 15 to 20)
#    0.000    0.000    4.286    3.429   12.000    0.000 
#    0.000    0.000    0.000    0.000    0.000    0.000 
#    0.000    0.000    0.000    0.000    0.000    0.000 
#
# Total GULP energy -157129.491048 kJ/mol
# GULP energy per Si atom -5611.767537 kJ/mol
# Density = 2.523165 g / cm^3
# Si number density = 25.289208 Si / 1000 Ang^3
#
#
#
# Elastic Constant Matrix: (Units=GPa)
#
#
# Indices 1 2 3 4 5 6 
#
# 1 92.3172 16.3770 45.7110 0.0000 0.0000 0.0000
# 2 16.3770 97.8606 39.8199 0.0000 0.0000 0.0000
# 3 45.7110 39.8199 242.6834 0.0000 0.0000 0.0000
# 4 0.0000 0.0000 0.0000 43.7062 0.0000 0.0000
# 5 0.0000 0.0000 0.0000 0.0000 51.1937 0.0000
# 6 0.0000 0.0000 0.0000 0.0000 0.0000 31.9312
#
#
#
# Elastic Compliance Matrix: (Units=1/GPa)
#
#
# Indices 1 2 3 4 5 6 
#
# 1 0.012071 -0.001173 -0.002081 0.000000 0.000000 0.000000
# 2 -0.001173 0.011064 -0.001594 0.000000 0.000000 0.000000
# 3 -0.002081 -0.001594 0.004774 0.000000 0.000000 0.000000
# 4 0.000000 0.000000 0.000000 0.022880 0.000000 0.000000
# 5 0.000000 0.000000 0.000000 0.000000 0.019534 0.000000
# 6 0.000000 0.000000 0.000000 0.000000 0.000000 0.031317
#
#
# Mechanical properties :
#
#
# Convention : Reuss Voigt Hill
#
# Bulk Modulus (GPa) = 54.91102 70.74191 62.82647
# Shear Modulus (GPa) = 42.58668 47.42978 45.00823
#
# Velocity S-wave (km/s) = 4.10809 4.33540 4.22327
# Velocity P-wave (km/s) = 6.65299 7.28662 6.97700
#
# Compressibility (1/GPa) = 0.01821128
#
# Stress axis : x y z
#
# Youngs Moduli (GPa) = 82.84444 90.38561 209.45954
#
# Poissons Ratio (x) = 0.10604 0.43591
# Poissons Ratio (y) = 0.09720 0.33395
# Poissons Ratio (z) = 0.17241 0.14411
#
# Static dielectric constant tensor:
#      x y z
#    x 2.007810 0.000000 0.000000 
#    y 0.000000 2.003390 0.000000 
#    z 0.000000 0.000000 2.014560 
# 
# From -- ./inp_files/3467.got.cif
#   From: 2010.05.17/outbox.cif.g08.bks.cpg/sg60_2_cif.got.tgz:3467.got - 2010.06.03 14:59:27.
