data_PCOD9458007
_publ_section_title
;
Structure prediction by ZEFSAII (Michael W. Deem and Ramdas Pophale) SiO2 
 PCOD9458007
Probable space group: P B C N
;
_chemical_formula_sum "Si O2"
_cell_formula_units_Z 48
_cell_length_a 11.397468
_cell_length_b 18.846634
_cell_length_c 11.854615
_cell_angle_alpha 90.000000
_cell_angle_beta 90.000000
_cell_angle_gamma 90.000000
_cell_volume 2546.417629
_symmetry_space_group_name_H-M "P B C N"
_symmetry_group_IT_number 60
_symmetry_cell_setting 'orthorhombic'
loop_
_space_group_symop_operation_xyz
x,y,z
1/2-x,1/2-y,1/2+z
1/2+x,1/2-y,-z
-x,y,1/2-z
-x,-y,-z
1/2+x,1/2+y,1/2-z
1/2-x,1/2+y,z
x,-y,1/2+z
loop_
_atom_site_type_symbol
_atom_site_label
_atom_site_fract_x
_atom_site_fract_y
_atom_site_fract_z
Si Si1 0.126877 0.563494 0.292021
Si Si2 0.796475 0.043928 0.413850
Si Si3 0.735286 0.614935 0.988100
Si Si4 0.502405 0.651041 0.386875
Si Si5 0.419735 0.058683 0.934615
Si Si6 0.936731 0.691879 0.872864
O O1 0.229031 0.566528 0.200105
O O2 0.176656 0.596949 0.407172
O O3 0.104361 0.479989 0.316648
O O4 0.000000 0.592078 0.250000
O O5 0.917659 0.084980 0.423989
O O6 0.705427 0.067478 0.509124
O O7 0.801671 0.959089 0.428879
O O8 0.622198 0.647298 0.050198
O O9 0.805546 0.662514 0.897041
O O10 0.500000 0.646428 0.250000
O O11 0.557478 0.727593 0.415264
O O12 0.484014 0.132843 0.933413
O O13 0.500000 0.000000 0.000000
O O14 0.000000 0.693416 0.750000
#
# Coordination Sequence:
#
# PCOD9458007 Si02
#       6
#     8   8   8   8   8   8
#     4  11  18  33  63  93 118 148 210 262 307 354
#     4  11  21  37  62  90 121 159 212 252 300 377
#     4  11  22  41  62  90 125 167 209 257 313 383
#     4  11  25  41  61  89 126 175 199 253 326 392
#     4  11  19  33  60  95 112 158 203 259 308 348
#     4  11  23  41  62  91 127 158 209 265 323 367
#
# _framework density 18.850012
#
# number of rings (size 3 to 8) (size 9 to 14) (size 15 to 20)
#    0.000    1.000    6.667    2.000    2.333    0.000 
#    0.000    0.000    0.000    0.000    0.000    0.000 
#    0.000    0.000    0.000    0.000    0.000    0.000 
#
# Total GULP energy -267417.059937 kJ/mol
# GULP energy per Si atom -5571.188749 kJ/mol
# Density = 1.880711 g / cm^3
# Si number density = 18.850012 Si / 1000 Ang^3
#
#
#
# Elastic Constant Matrix: (Units=GPa)
#
#
# Indices 1 2 3 4 5 6 
#
# 1 115.2755 55.6088 33.1012 0.0000 0.0000 0.0000
# 2 55.6088 110.3521 14.6413 0.0000 0.0000 0.0000
# 3 33.1012 14.6413 53.1986 0.0000 0.0000 0.0000
# 4 0.0000 0.0000 0.0000 16.1197 0.0000 0.0000
# 5 0.0000 0.0000 0.0000 0.0000 33.5129 0.0000
# 6 0.0000 0.0000 0.0000 0.0000 0.0000 27.1653
#
#
#
# Elastic Compliance Matrix: (Units=1/GPa)
#
#
# Indices 1 2 3 4 5 6 
#
# 1 0.013451 -0.005883 -0.006750 0.000000 0.000000 0.000000
# 2 -0.005883 0.011978 0.000364 0.000000 0.000000 0.000000
# 3 -0.006750 0.000364 0.022898 0.000000 0.000000 0.000000
# 4 0.000000 0.000000 0.000000 0.062036 0.000000 0.000000
# 5 0.000000 0.000000 0.000000 0.000000 0.029839 0.000000
# 6 0.000000 0.000000 0.000000 0.000000 0.000000 0.036812
#
#
# Mechanical properties :
#
#
# Convention : Reuss Voigt Hill
#
# Bulk Modulus (GPa) = 42.03816 53.94763 47.99289
# Shear Modulus (GPa) = 23.86845 27.05792 25.46318
#
# Velocity S-wave (km/s) = 3.56227 3.79282 3.67935
# Velocity P-wave (km/s) = 6.26654 6.91825 6.60044
#
# Compressibility (1/GPa) = 0.02378791
#
# Stress axis : x y z
#
# Youngs Moduli (GPa) = 74.34371 83.48620 43.67262
#
# Poissons Ratio (x) = 0.49112 0.29481
# Poissons Ratio (y) = 0.43734 -0.01588
# Poissons Ratio (z) = 0.50186 -0.03036
#
# Static dielectric constant tensor:
#      x y z
#    x 1.686560 0.000000 0.000000 
#    y 0.000000 1.656730 0.000000 
#    z 0.000000 0.000000 1.740820 
# 
# From -- ./inp_files/11013.got.cif
#   From: 2010.05.17/outbox.cif.g08.bks.cpg/sg60_6_cif.got.tgz:11013.got - 2010.06.03 14:59:27.
