data_PCOD9458818
_publ_section_title
;
Structure prediction by ZEFSAII (Michael W. Deem and Ramdas Pophale) SiO2 
 PCOD9458818
Probable space group: P B C N
;
_chemical_formula_sum "Si O2"
_cell_formula_units_Z 32
_cell_length_a 26.382965
_cell_length_b 4.834611
_cell_length_c 9.305712
_cell_angle_alpha 90.000000
_cell_angle_beta 90.000000
_cell_angle_gamma 90.000000
_cell_volume 1186.956340
_symmetry_space_group_name_H-M "P B C N"
_symmetry_group_IT_number 60
_symmetry_cell_setting 'orthorhombic'
loop_
_space_group_symop_operation_xyz
x,y,z
1/2-x,1/2-y,1/2+z
1/2+x,1/2-y,-z
-x,y,1/2-z
-x,-y,-z
1/2+x,1/2+y,1/2-z
1/2-x,1/2+y,z
x,-y,1/2+z
loop_
_atom_site_type_symbol
_atom_site_label
_atom_site_fract_x
_atom_site_fract_y
_atom_site_fract_z
Si Si1 0.500000 0.084070 0.250000
Si Si2 0.411848 0.211411 0.832269
Si Si3 0.000000 0.000000 0.500000
Si Si4 0.218016 0.819420 0.061437
Si Si5 0.342633 0.323541 0.341962
O O1 0.516074 0.278660 0.122046
O O2 0.546724 0.884450 0.286048
O O3 0.382741 0.470696 0.768429
O O4 0.372039 0.964527 0.865339
O O5 0.447895 0.311385 0.961253
O O6 0.267998 0.003614 0.027480
O O7 0.203141 0.805678 0.228463
O O8 0.175448 0.985341 0.974626
#
# Coordination Sequence:
#
# PCOD9458818 Si02
#       5
#     4   8   4   8   8
#     4  12  28  50  78 112 164 216 260 330 392 472
#     4  12  28  46  76 115 157 203 274 311 398 448
#     4  12  28  52  78 110 166 216 260 328 396 472
#     4  12  26  51  77 109 153 197 253 331 423 470
#     4  12  28  45  80 114 148 203 266 333 377 505
#
# _framework density 26.959710000000001
#
# number of rings (size 3 to 8) (size 9 to 14) (size 15 to 20)
#    0.000    0.000    2.500    6.000    7.000    0.000 
#    0.000    0.000    0.000    0.000    0.000    0.000 
#    0.000    0.000    0.000    0.000    0.000    0.000 
#
# Total GULP energy -178266.244923 kJ/mol
# GULP energy per Si atom -5570.820154 kJ/mol
# Density = 2.689835 g / cm^3
# Si number density = 26.959710 Si / 1000 Ang^3
#
#
#
# Elastic Constant Matrix: (Units=GPa)
#
#
# Indices 1 2 3 4 5 6 
#
# 1 103.0078 48.1516 16.0169 0.0000 0.0000 0.0000
# 2 48.1516 194.0556 15.9917 0.0000 0.0000 0.0000
# 3 16.0169 15.9917 72.7696 0.0000 0.0000 0.0000
# 4 0.0000 0.0000 0.0000 20.8421 0.0000 0.0000
# 5 0.0000 0.0000 0.0000 0.0000 36.2413 0.0000
# 6 0.0000 0.0000 0.0000 0.0000 0.0000 81.7300
#
#
#
# Elastic Compliance Matrix: (Units=1/GPa)
#
#
# Indices 1 2 3 4 5 6 
#
# 1 0.011232 -0.002631 -0.001894 0.000000 0.000000 0.000000
# 2 -0.002631 0.005864 -0.000710 0.000000 0.000000 0.000000
# 3 -0.001894 -0.000710 0.014315 0.000000 0.000000 0.000000
# 4 0.000000 0.000000 0.000000 0.047980 0.000000 0.000000
# 5 0.000000 0.000000 0.000000 0.000000 0.027593 0.000000
# 6 0.000000 0.000000 0.000000 0.000000 0.000000 0.012235
#
#
# Mechanical properties :
#
#
# Convention : Reuss Voigt Hill
#
# Bulk Modulus (GPa) = 47.75065 58.90595 53.32830
# Shear Modulus (GPa) = 36.58442 47.07419 41.82931
#
# Velocity S-wave (km/s) = 3.68775 4.18316 3.94324
# Velocity P-wave (km/s) = 5.99024 6.72524 6.36835
#
# Compressibility (1/GPa) = 0.02094212
#
# Stress axis : x y z
#
# Youngs Moduli (GPa) = 89.02801 170.51768 69.85752
#
# Poissons Ratio (x) = 0.44864 0.13232
# Poissons Ratio (y) = 0.23424 0.04958
# Poissons Ratio (z) = 0.16863 0.12101
#
# Static dielectric constant tensor:
#      x y z
#    x 2.592390 0.000000 0.000000 
#    y 0.000000 2.318370 0.000000 
#    z 0.000000 0.000000 3.212720 
# 
# From -- ./inp_files/8301.got.cif
#   From: 2010.05.17/outbox.cif.g08.bks.cpg/sg60_5_cif.got.tgz:8301.got - 2010.06.03 14:59:27.
