data_PCOD9458475
_publ_section_title
;
Structure prediction by ZEFSAII (Michael W. Deem and Ramdas Pophale) SiO2 
 PCOD9458475
Probable space group: P B C N
;
_chemical_formula_sum "Si O2"
_cell_formula_units_Z 32
_cell_length_a 19.018640
_cell_length_b 6.978870
_cell_length_c 9.892123
_cell_angle_alpha 90.000000
_cell_angle_beta 90.000000
_cell_angle_gamma 90.000000
_cell_volume 1312.967796
_symmetry_space_group_name_H-M "P B C N"
_symmetry_group_IT_number 60
_symmetry_cell_setting 'orthorhombic'
loop_
_space_group_symop_operation_xyz
x,y,z
1/2-x,1/2-y,1/2+z
1/2+x,1/2-y,-z
-x,y,1/2-z
-x,-y,-z
1/2+x,1/2+y,1/2-z
1/2-x,1/2+y,z
x,-y,1/2+z
loop_
_atom_site_type_symbol
_atom_site_label
_atom_site_fract_x
_atom_site_fract_y
_atom_site_fract_z
Si Si1 0.953508 0.969067 0.634443
Si Si2 0.342647 0.931735 0.997404
Si Si3 0.179285 0.008840 0.532724
Si Si4 0.383144 0.192330 0.217975
O O1 0.937286 0.171338 0.706361
O O2 0.000000 0.861157 0.750000
O O3 0.875940 0.907386 0.579598
O O4 0.000000 0.000000 0.500000
O O5 0.345379 0.710769 0.046730
O O6 0.261860 0.998655 0.007078
O O7 0.356942 0.938639 0.838823
O O8 0.394620 0.056762 0.089667
O O9 0.170175 0.146502 0.660997
#
# Coordination Sequence:
#
# PCOD9458475 Si02
#       4
#     8   8   8   8
#     4  11  24  47  75 102 143 205 253 293 369 445
#     4  11  26  42  73 114 149 184 244 313 389 447
#     4  11  24  43  76 106 150 193 238 314 380 449
#     4  11  26  46  72 112 147 194 245 314 377 447
#
# _framework density 24.372266
#
# number of rings (size 3 to 8) (size 9 to 14) (size 15 to 20)
#    0.000    1.000    5.000    0.000    7.000    4.000 
#    0.000    5.000    0.000    0.000    0.000    0.000 
#    0.000    0.000    0.000    0.000    0.000    0.000 
#
# Total GULP energy -178401.026723 kJ/mol
# GULP energy per Si atom -5575.032085 kJ/mol
# Density = 2.431679 g / cm^3
# Si number density = 24.372266 Si / 1000 Ang^3
#
#
#
# Elastic Constant Matrix: (Units=GPa)
#
#
# Indices 1 2 3 4 5 6 
#
# 1 85.4748 -17.5318 41.9476 0.0000 0.0000 0.0000
# 2 -17.5318 86.9630 19.1480 0.0000 0.0000 0.0000
# 3 41.9476 19.1480 158.4645 0.0000 0.0000 0.0000
# 4 0.0000 0.0000 0.0000 22.4289 0.0000 0.0000
# 5 0.0000 0.0000 0.0000 0.0000 27.5416 0.0000
# 6 0.0000 0.0000 0.0000 0.0000 0.0000 12.2224
#
#
#
# Elastic Compliance Matrix: (Units=1/GPa)
#
#
# Indices 1 2 3 4 5 6 
#
# 1 0.014633 0.003907 -0.004346 0.000000 0.000000 0.000000
# 2 0.003907 0.012857 -0.002588 0.000000 0.000000 0.000000
# 3 -0.004346 -0.002588 0.007774 0.000000 0.000000 0.000000
# 4 0.000000 0.000000 0.000000 0.044585 0.000000 0.000000
# 5 0.000000 0.000000 0.000000 0.000000 0.036309 0.000000
# 6 0.000000 0.000000 0.000000 0.000000 0.000000 0.081817
#
#
# Mechanical properties :
#
#
# Convention : Reuss Voigt Hill
#
# Bulk Modulus (GPa) = 34.23416 46.44776 40.34096
# Shear Modulus (GPa) = 23.39023 31.59447 27.49235
#
# Velocity S-wave (km/s) = 3.10127 3.60436 3.36224
# Velocity P-wave (km/s) = 5.18659 6.03497 5.62679
#
# Compressibility (1/GPa) = 0.02921059
#
# Stress axis : x y z
#
# Youngs Moduli (GPa) = 68.33664 77.78121 128.64002
#
# Poissons Ratio (x) = -0.30389 0.55904
# Poissons Ratio (y) = -0.26699 0.33289
# Poissons Ratio (z) = 0.29697 0.20128
#
# Static dielectric constant tensor:
#      x y z
#    x 2.019800 0.000000 0.000000 
#    y 0.000000 2.076980 0.000000 
#    z 0.000000 0.000000 2.019590 
# 
# From -- ./inp_files/7692.got.cif
#   From: 2010.05.17/outbox.cif.g08.bks.cpg/sg60_4_cif.got.tgz:7692.got - 2010.06.03 14:59:27.
