data_PCOD9458296
_publ_section_title
;
Structure prediction by ZEFSAII (Michael W. Deem and Ramdas Pophale) SiO2 
 PCOD9458296
Probable space group: P B C N
;
_chemical_formula_sum "Si O2"
_cell_formula_units_Z 40
_cell_length_a 16.533750
_cell_length_b 11.055836
_cell_length_c 9.182615
_cell_angle_alpha 90.000000
_cell_angle_beta 90.000000
_cell_angle_gamma 90.000000
_cell_volume 1678.530861
_symmetry_space_group_name_H-M "P B C N"
_symmetry_group_IT_number 60
_symmetry_cell_setting 'orthorhombic'
loop_
_space_group_symop_operation_xyz
x,y,z
1/2-x,1/2-y,1/2+z
1/2+x,1/2-y,-z
-x,y,1/2-z
-x,-y,-z
1/2+x,1/2+y,1/2-z
1/2-x,1/2+y,z
x,-y,1/2+z
loop_
_atom_site_type_symbol
_atom_site_label
_atom_site_fract_x
_atom_site_fract_y
_atom_site_fract_z
Si Si1 0.834565 0.270486 0.604694
Si Si2 0.585096 0.009580 0.578965
Si Si3 0.677546 0.919149 0.327427
Si Si4 0.592851 0.536900 0.489204
Si Si5 0.310556 0.405966 0.794101
O O1 0.895864 0.377797 0.648271
O O2 0.813137 0.308639 0.438117
O O3 0.882149 0.146262 0.597576
O O4 0.750756 0.292276 0.689396
O O5 0.605653 0.100309 0.709433
O O6 0.500000 0.000000 0.500000
O O7 0.649538 0.020093 0.448011
O O8 0.750200 0.981678 0.242118
O O9 0.500000 0.500000 0.500000
O O10 0.647461 0.427393 0.550106
O O11 0.621665 0.581264 0.330424
#
# Coordination Sequence:
#
# PCOD9458296 Si02
#       5
#     8   8   8   8   8
#     4   9  23  39  70  98 133 194 249 286 379 440
#     4   9  17  34  58  97 137 171 231 310 355 427
#     4   9  18  37  62  95 127 177 246 293 349 429
#     4  12  26  47  68 107 154 189 249 316 384 438
#     4  11  22  46  71  98 144 191 251 310 355 463
#
# _framework density 23.830362999999998
#
# number of rings (size 3 to 8) (size 9 to 14) (size 15 to 20)
#    1.200    0.800    2.000    1.200    2.800    0.000 
#    7.200    8.000    0.000    0.000    0.000    0.000 
#    0.000    0.000    0.000    0.000    0.000    0.000 
#
# Total GULP energy -222822.877607 kJ/mol
# GULP energy per Si atom -5570.571940 kJ/mol
# Density = 2.377612 g / cm^3
# Si number density = 23.830363 Si / 1000 Ang^3
#
#
#
# Elastic Constant Matrix: (Units=GPa)
#
#
# Indices 1 2 3 4 5 6 
#
# 1 146.8572 41.1942 36.6575 0.0000 0.0000 0.0000
# 2 41.1942 67.4408 -1.4987 0.0000 0.0000 0.0000
# 3 36.6575 -1.4987 114.1651 0.0000 0.0000 0.0000
# 4 0.0000 0.0000 0.0000 27.2487 0.0000 0.0000
# 5 0.0000 0.0000 0.0000 0.0000 48.9663 0.0000
# 6 0.0000 0.0000 0.0000 0.0000 0.0000 23.4893
#
#
#
# Elastic Compliance Matrix: (Units=1/GPa)
#
#
# Indices 1 2 3 4 5 6 
#
# 1 0.009147 -0.005654 -0.003011 0.000000 0.000000 0.000000
# 2 -0.005654 0.018327 0.002056 0.000000 0.000000 0.000000
# 3 -0.003011 0.002056 0.009753 0.000000 0.000000 0.000000
# 4 0.000000 0.000000 0.000000 0.036699 0.000000 0.000000
# 5 0.000000 0.000000 0.000000 0.000000 0.020422 0.000000
# 6 0.000000 0.000000 0.000000 0.000000 0.000000 0.042573
#
#
# Mechanical properties :
#
#
# Convention : Reuss Voigt Hill
#
# Bulk Modulus (GPa) = 41.65151 53.46323 47.55737
# Shear Modulus (GPa) = 31.61707 36.74820 34.18264
#
# Velocity S-wave (km/s) = 3.64642 3.93119 3.79148
# Velocity P-wave (km/s) = 5.93673 6.56424 6.25836
#
# Compressibility (1/GPa) = 0.02400873
#
# Stress axis : x y z
#
# Youngs Moduli (GPa) = 109.32570 54.56390 102.53124
#
# Poissons Ratio (x) = 0.30851 0.30875
# Poissons Ratio (y) = 0.61814 -0.21081
# Poissons Ratio (z) = 0.32921 -0.11219
#
# Static dielectric constant tensor:
#      x y z
#    x 1.932420 0.000000 0.000000 
#    y 0.000000 2.021010 0.000000 
#    z 0.000000 0.000000 2.011650 
# 
# From -- ./inp_files/11689.got.cif
#   From: 2010.05.17/outbox.cif.g08.bks.cpg/sg60_6_cif.got.tgz:11689.got - 2010.06.03 14:59:27.
