data_PCOD9458586
_publ_section_title
;
Structure prediction by ZEFSAII (Michael W. Deem and Ramdas Pophale) SiO2 
 PCOD9458586
Probable space group: P B C N
;
_chemical_formula_sum "Si O2"
_cell_formula_units_Z 48
_cell_length_a 9.616425
_cell_length_b 8.234285
_cell_length_c 26.878440
_cell_angle_alpha 90.000000
_cell_angle_beta 90.000000
_cell_angle_gamma 90.000000
_cell_volume 2128.352718
_symmetry_space_group_name_H-M "P B C N"
_symmetry_group_IT_number 60
_symmetry_cell_setting 'orthorhombic'
loop_
_space_group_symop_operation_xyz
x,y,z
1/2-x,1/2-y,1/2+z
1/2+x,1/2-y,-z
-x,y,1/2-z
-x,-y,-z
1/2+x,1/2+y,1/2-z
1/2-x,1/2+y,z
x,-y,1/2+z
loop_
_atom_site_type_symbol
_atom_site_label
_atom_site_fract_x
_atom_site_fract_y
_atom_site_fract_z
Si Si1 0.410066 0.581381 0.797567
Si Si2 0.696585 0.709953 0.936260
Si Si3 0.907961 0.472433 0.702780
Si Si4 0.308456 0.185703 0.950788
Si Si5 0.458743 0.021761 0.598329
Si Si6 0.449891 0.506902 0.908433
O O1 0.500000 0.530306 0.750000
O O2 0.250963 0.526386 0.792106
O O3 0.413326 0.776887 0.800737
O O4 0.468467 0.511366 0.849251
O O5 0.617547 0.849210 0.905694
O O6 0.840711 0.654178 0.912777
O O7 0.591830 0.556320 0.935615
O O8 0.715791 0.774863 0.991896
O O9 0.000000 0.523200 0.750000
O O10 0.971246 0.541346 0.651838
O O11 0.383798 0.339012 0.926006
O O12 0.418341 0.039866 0.942207
O O13 0.166719 0.139761 0.923342
#
# Coordination Sequence:
#
# PCOD9458586 Si02
#       6
#     8   8   8   8   8   8
#     4  11  25  48  71 103 135 179 230 283 349 414
#     4  12  25  43  68 101 143 187 233 283 340 416
#     4  11  26  46  72 103 134 176 227 287 350 413
#     4  12  24  43  70 101 141 187 233 284 345 410
#     4  12  25  45  66 103 140 184 236 290 349 411
#     4  12  23  43  69 100 138 180 231 284 344 408
#
# _framework density 22.552651999999998
#
# number of rings (size 3 to 8) (size 9 to 14) (size 15 to 20)
#    0.000    0.333    3.333    6.000    2.333    0.667 
#    0.000    0.000    0.000    0.000    0.000    0.000 
#    0.000    0.000    0.000    0.000    0.000    0.000 
#
# Total GULP energy -269202.564729 kJ/mol
# GULP energy per Si atom -5608.386765 kJ/mol
# Density = 2.250132 g / cm^3
# Si number density = 22.552652 Si / 1000 Ang^3
#
#
#
# Elastic Constant Matrix: (Units=GPa)
#
#
# Indices 1 2 3 4 5 6 
#
# 1 123.6965 24.5375 63.4363 0.0000 0.0000 0.0000
# 2 24.5375 57.6332 17.0728 0.0000 0.0000 0.0000
# 3 63.4363 17.0728 140.1534 0.0000 0.0000 0.0000
# 4 0.0000 0.0000 0.0000 30.0434 0.0000 0.0000
# 5 0.0000 0.0000 0.0000 0.0000 46.0048 0.0000
# 6 0.0000 0.0000 0.0000 0.0000 0.0000 52.3309
#
#
#
# Elastic Compliance Matrix: (Units=1/GPa)
#
#
# Indices 1 2 3 4 5 6 
#
# 1 0.011124 -0.003366 -0.004625 0.000000 0.000000 0.000000
# 2 -0.003366 0.019019 -0.000793 0.000000 0.000000 0.000000
# 3 -0.004625 -0.000793 0.009325 0.000000 0.000000 0.000000
# 4 0.000000 0.000000 0.000000 0.033285 0.000000 0.000000
# 5 0.000000 0.000000 0.000000 0.000000 0.021737 0.000000
# 6 0.000000 0.000000 0.000000 0.000000 0.000000 0.019109
#
#
# Mechanical properties :
#
#
# Convention : Reuss Voigt Hill
#
# Bulk Modulus (GPa) = 45.66268 59.06404 52.36336
# Shear Modulus (GPa) = 36.10962 40.10493 38.10728
#
# Velocity S-wave (km/s) = 4.00575 4.22154 4.11506
# Velocity P-wave (km/s) = 6.45645 7.07164 6.77104
#
# Compressibility (1/GPa) = 0.02189972
#
# Stress axis : x y z
#
# Youngs Moduli (GPa) = 89.89740 52.57849 107.23898
#
# Poissons Ratio (x) = 0.17698 0.49596
# Poissons Ratio (y) = 0.30259 0.08507
# Poissons Ratio (z) = 0.41576 0.04171
#
# Static dielectric constant tensor:
#      x y z
#    x 1.795550 0.000000 0.000000 
#    y 0.000000 1.897270 0.000000 
#    z 0.000000 0.000000 1.787580 
# 
# From -- ./inp_files/25946.got.cif
#   From: 2010.05.17/outbox.cif.g08.bks.cpg/sg60_13_cif.got.tgz:25946.got - 2010.06.03 14:59:27.
