data_PCOD9458201
_publ_section_title
;
Structure prediction by ZEFSAII (Michael W. Deem and Ramdas Pophale) SiO2 
 PCOD9458201
Probable space group: P B C N
;
_chemical_formula_sum "Si O2"
_cell_formula_units_Z 36
_cell_length_a 7.778756
_cell_length_b 13.467692
_cell_length_c 13.504732
_cell_angle_alpha 90.000000
_cell_angle_beta 90.000000
_cell_angle_gamma 90.000000
_cell_volume 1414.781248
_symmetry_space_group_name_H-M "P B C N"
_symmetry_group_IT_number 60
_symmetry_cell_setting 'orthorhombic'
loop_
_space_group_symop_operation_xyz
x,y,z
1/2-x,1/2-y,1/2+z
1/2+x,1/2-y,-z
-x,y,1/2-z
-x,-y,-z
1/2+x,1/2+y,1/2-z
1/2-x,1/2+y,z
x,-y,1/2+z
loop_
_atom_site_type_symbol
_atom_site_label
_atom_site_fract_x
_atom_site_fract_y
_atom_site_fract_z
Si Si1 0.221544 0.071959 0.107675
Si Si2 0.162388 0.136225 0.584756
Si Si3 0.733649 0.263908 0.737512
Si Si4 0.050209 0.688924 0.954426
Si Si5 0.000000 0.414421 0.750000
O O1 0.153375 0.159787 0.179467
O O2 0.378757 0.028742 0.175948
O O3 0.105498 0.977511 0.088712
O O4 0.316259 0.119506 0.013998
O O5 0.171574 0.184373 0.693258
O O6 0.359297 0.145212 0.546513
O O7 0.052193 0.206208 0.513285
O O8 0.623693 0.209512 0.655172
O O9 0.873918 0.339316 0.690525
#
# Coordination Sequence:
#
# PCOD9458201 Si02
#       5
#     8   8   8   8   4
#     4   9  21  38  63  92 117 167 218 239 301 386
#     4  11  23  39  63  93 122 163 213 250 316 370
#     4   9  21  36  62  87 124 151 211 258 305 349
#     4  11  22  38  63  93 126 164 204 267 304 371
#     4   8  18  40  60  86 118 160 212 250 288 378
#
# _framework density 25.445632
#
# number of rings (size 3 to 8) (size 9 to 14) (size 15 to 20)
#    1.333    0.889    0.000    2.667    3.111    1.778 
#    0.000    4.444    9.778    2.667    0.000    0.000 
#    0.000    0.000    0.000    0.000    0.000    0.000 
#
# Total GULP energy -201187.704876 kJ/mol
# GULP energy per Si atom -5588.547358 kJ/mol
# Density = 2.538772 g / cm^3
# Si number density = 25.445632 Si / 1000 Ang^3
#
#
#
# Elastic Constant Matrix: (Units=GPa)
#
#
# Indices 1 2 3 4 5 6 
#
# 1 47.0305 -9.4918 23.7490 0.0000 0.0000 0.0000
# 2 -9.4918 129.4351 34.4949 0.0000 0.0000 0.0000
# 3 23.7490 34.4949 146.7972 0.0000 0.0000 0.0000
# 4 0.0000 0.0000 0.0000 16.2804 0.0000 0.0000
# 5 0.0000 0.0000 0.0000 0.0000 45.0710 0.0000
# 6 0.0000 0.0000 0.0000 0.0000 0.0000 11.1390
#
#
#
# Elastic Compliance Matrix: (Units=1/GPa)
#
#
# Indices 1 2 3 4 5 6 
#
# 1 0.024204 0.003007 -0.004622 0.000000 0.000000 0.000000
# 2 0.003007 0.008616 -0.002511 0.000000 0.000000 0.000000
# 3 -0.004622 -0.002511 0.008150 0.000000 0.000000 0.000000
# 4 0.000000 0.000000 0.000000 0.061423 0.000000 0.000000
# 5 0.000000 0.000000 0.000000 0.000000 0.022187 0.000000
# 6 0.000000 0.000000 0.000000 0.000000 0.000000 0.089775
#
#
# Mechanical properties :
#
#
# Convention : Reuss Voigt Hill
#
# Bulk Modulus (GPa) = 30.56571 46.75188 38.65880
# Shear Modulus (GPa) = 21.41210 32.79880 27.10545
#
# Velocity S-wave (km/s) = 2.90398 3.59413 3.26733
# Velocity P-wave (km/s) = 4.82518 5.96966 5.42767
#
# Compressibility (1/GPa) = 0.03271640
#
# Stress axis : x y z
#
# Youngs Moduli (GPa) = 41.31591 116.06913 122.70022
#
# Poissons Ratio (x) = -0.34899 0.56715
# Poissons Ratio (y) = -0.12423 0.30809
# Poissons Ratio (z) = 0.19097 0.29144
#
# Static dielectric constant tensor:
#      x y z
#    x 2.076190 0.000000 0.000000 
#    y 0.000000 1.957920 0.000000 
#    z 0.000000 0.000000 1.979500 
# 
# From -- ./inp_files/15775.got.cif
#   From: 2010.05.17/outbox.cif.g08.bks.cpg/sg60_8_cif.got.tgz:15775.got - 2010.06.03 14:59:27.
