data_PCOD9458963
_publ_section_title
;
Structure prediction by ZEFSAII (Michael W. Deem and Ramdas Pophale) SiO2 
 PCOD9458963
Probable space group: P B C A
;
_chemical_formula_sum "Si O2"
_cell_formula_units_Z 56
_cell_length_a 13.188650
_cell_length_b 5.319875
_cell_length_c 34.345746
_cell_angle_alpha 90.000000
_cell_angle_beta 90.000000
_cell_angle_gamma 90.000000
_cell_volume 2409.765181
_symmetry_space_group_name_H-M "P B C A"
_symmetry_group_IT_number 61
_symmetry_cell_setting 'orthorhombic'
loop_
_space_group_symop_operation_xyz
x,y,z
1/2-x,-y,1/2+z
1/2+x,1/2-y,-z
-x,1/2+y,1/2-z
-x,-y,-z
1/2+x,y,1/2-z
1/2-x,1/2+y,z
x,1/2-y,1/2+z
loop_
_atom_site_type_symbol
_atom_site_label
_atom_site_fract_x
_atom_site_fract_y
_atom_site_fract_z
Si Si1 0.819633 0.775061 0.704692
Si Si2 0.374614 0.741027 0.627372
Si Si3 0.599757 0.254539 0.035756
Si Si4 0.650511 0.740458 0.905501
Si Si5 0.818340 0.790823 0.620601
Si Si6 0.133589 0.746446 0.009356
Si Si7 0.179699 0.235355 0.711033
O O1 0.742696 0.537019 0.705058
O O2 0.873596 0.767501 0.662701
O O3 0.873385 0.753742 0.746639
O O4 0.409247 0.490462 0.605871
O O5 0.251816 0.738442 0.621151
O O6 0.391937 0.745018 0.673315
O O7 0.409166 0.988760 0.605024
O O8 0.619923 0.237703 0.081217
O O9 0.481488 0.252998 0.025634
O O10 0.643294 0.510909 0.017675
O O11 0.644114 0.010307 0.014151
O O12 0.691133 0.743909 0.949566
O O13 0.737116 0.561669 0.619803
O O14 0.256015 0.475435 0.708732
#
# Coordination Sequence:
#
# PCOD9458963 Si02
#       7
#     8   8   8   8   8   8   8
#     4   8  16  25  44  66  95 121 154 187 233 289
#     4  10  17  28  43  68 102 121 149 191 242 280
#     4  10  21  38  54  69  94 131 167 203 239 292
#     4  10  18  30  43  67  95 123 157 197 229 282
#     4  10  19  35  50  77 102 119 158 207 254 285
#     4  10  21  37  53  69  93 132 175 195 233 295
#     4  10  14  25  41  64  95 129 150 180 234 287
#
# _framework density 23.238776999999999
#
# number of rings (size 3 to 8) (size 9 to 14) (size 15 to 20)
#    0.000    2.286    2.857    1.714    0.000    0.000 
#   15.429    0.000    0.000    0.000    0.000    2.000 
#    0.000    0.000    0.000    0.000    0.000    0.000 
#
# Total GULP energy -312707.781489 kJ/mol
# GULP energy per Si atom -5584.067527 kJ/mol
# Density = 2.318588 g / cm^3
# Si number density = 23.238777 Si / 1000 Ang^3
#
#
#
# Elastic Constant Matrix: (Units=GPa)
#
#
# Indices 1 2 3 4 5 6 
#
# 1 38.2305 -14.5646 -1.3539 0.0000 0.0000 0.0000
# 2 -14.5646 154.0306 38.7627 0.0000 0.0000 0.0000
# 3 -1.3539 38.7627 210.0712 0.0000 0.0000 0.0000
# 4 0.0000 0.0000 0.0000 35.9683 0.0000 0.0000
# 5 0.0000 0.0000 0.0000 0.0000 30.9880 0.0000
# 6 0.0000 0.0000 0.0000 0.0000 0.0000 -177.7511
#
#
#
# Elastic Compliance Matrix: (Units=1/GPa)
#
#
# Indices 1 2 3 4 5 6 
#
# 1 0.027154 0.002646 -0.000313 0.000000 0.000000 0.000000
# 2 0.002646 0.007066 -0.001287 0.000000 0.000000 0.000000
# 3 -0.000313 -0.001287 0.004996 0.000000 0.000000 0.000000
# 4 0.000000 0.000000 0.000000 0.027802 0.000000 0.000000
# 5 0.000000 0.000000 0.000000 0.000000 0.032271 0.000000
# 6 0.000000 0.000000 0.000000 0.000000 0.000000 -0.005626
#
#
# Mechanical properties :
#
#
# Convention : Reuss Voigt Hill
#
# Bulk Modulus (GPa) = 24.20788 49.78009 36.99399
# Shear Modulus (GPa) = 47.46523 3.14024 25.30274
#
# Velocity S-wave (km/s) = 4.52431 1.16371 3.30330
# Velocity P-wave (km/s) = 6.14265 4.82424 5.52292
#
# Compressibility (1/GPa) = 0.04130887
#
# Stress axis : x y z
#
# Youngs Moduli (GPa) = 36.82665 141.51692 200.17140
#
# Poissons Ratio (x) = -0.37452 0.06272
# Poissons Ratio (y) = -0.09746 0.25759
# Poissons Ratio (z) = 0.01154 0.18211
#
# Static dielectric constant tensor:
#      x y z
#    x 1.894040 0.000000 0.000000 
#    y 0.000000 2.161940 0.000000 
#    z 0.000000 0.000000 1.896410 
# 
# From -- ./inp_files/11827.got.cif
#   From: 2010.05.17/outbox.cif.g08.bks.cpg/sg61_6_cif.got.tgz:11827.got - 2010.06.03 15:17:17.
