data_PCOD9458449
_publ_section_title
;
Structure prediction by ZEFSAII (Michael W. Deem and Ramdas Pophale) SiO2 
 PCOD9458449
Probable space group: P B C N
;
_chemical_formula_sum "Si O2"
_cell_formula_units_Z 32
_cell_length_a 13.683345
_cell_length_b 10.924711
_cell_length_c 8.023307
_cell_angle_alpha 90.000000
_cell_angle_beta 90.000000
_cell_angle_gamma 90.000000
_cell_volume 1199.376801
_symmetry_space_group_name_H-M "P B C N"
_symmetry_group_IT_number 60
_symmetry_cell_setting 'orthorhombic'
loop_
_space_group_symop_operation_xyz
x,y,z
1/2-x,1/2-y,1/2+z
1/2+x,1/2-y,-z
-x,y,1/2-z
-x,-y,-z
1/2+x,1/2+y,1/2-z
1/2-x,1/2+y,z
x,-y,1/2+z
loop_
_atom_site_type_symbol
_atom_site_label
_atom_site_fract_x
_atom_site_fract_y
_atom_site_fract_z
Si Si1 0.453386 0.343229 0.579515
Si Si2 0.631094 0.722938 0.855562
Si Si3 0.411365 0.092887 0.450286
Si Si4 0.756609 0.100074 0.571245
O O1 0.500000 0.384284 0.750000
O O2 0.463001 0.659580 0.561863
O O3 0.355580 0.413172 0.533790
O O4 0.298560 0.363787 0.249723
O O5 0.597715 0.829919 0.724108
O O6 0.692688 0.787727 0.000228
O O7 0.419976 0.200388 0.586569
O O8 0.500000 0.000000 0.500000
O O9 0.313781 0.014136 0.442602
#
# Coordination Sequence:
#
# PCOD9458449 Si02
#       4
#     8   8   8   8
#     4  11  25  47  77 110 149 196 249 308 372 448
#     4  11  25  47  69 110 150 190 255 302 376 446
#     4  11  24  41  74 112 143 190 252 309 361 442
#     4  11  24  41  73 107 149 194 245 312 372 432
#
# _framework density 26.680523000000001
#
# number of rings (size 3 to 8) (size 9 to 14) (size 15 to 20)
#    0.000    1.000    2.500    4.500    3.500    2.000 
#    0.000    2.500    0.000   34.500    0.000    0.000 
#    0.000    0.000    0.000    0.000    0.000    0.000 
#
# Total GULP energy -179526.441010 kJ/mol
# GULP energy per Si atom -5610.201282 kJ/mol
# Density = 2.661980 g / cm^3
# Si number density = 26.680523 Si / 1000 Ang^3
#
#
#
# Elastic Constant Matrix: (Units=GPa)
#
#
# Indices 1 2 3 4 5 6 
#
# 1 253.4400 89.4924 79.2978 0.0000 0.0000 0.0000
# 2 89.4924 129.6599 36.3545 0.0000 0.0000 0.0000
# 3 79.2978 36.3545 118.3827 0.0000 0.0000 0.0000
# 4 0.0000 0.0000 0.0000 33.2132 0.0000 0.0000
# 5 0.0000 0.0000 0.0000 0.0000 62.9533 0.0000
# 6 0.0000 0.0000 0.0000 0.0000 0.0000 76.5905
#
#
#
# Elastic Compliance Matrix: (Units=1/GPa)
#
#
# Indices 1 2 3 4 5 6 
#
# 1 0.006079 -0.003342 -0.003045 0.000000 0.000000 0.000000
# 2 -0.003342 0.010276 -0.000917 0.000000 0.000000 0.000000
# 3 -0.003045 -0.000917 0.010769 0.000000 0.000000 0.000000
# 4 0.000000 0.000000 0.000000 0.030108 0.000000 0.000000
# 5 0.000000 0.000000 0.000000 0.000000 0.015885 0.000000
# 6 0.000000 0.000000 0.000000 0.000000 0.000000 0.013056
#
#
# Mechanical properties :
#
#
# Convention : Reuss Voigt Hill
#
# Bulk Modulus (GPa) = 79.90648 101.30799 90.60723
# Shear Modulus (GPa) = 47.64007 54.30728 50.97367
#
# Velocity S-wave (km/s) = 4.23019 4.51651 4.37569
# Velocity P-wave (km/s) = 7.33987 8.07785 7.71769
#
# Compressibility (1/GPa) = 0.01251463
#
# Stress axis : x y z
#
# Youngs Moduli (GPa) = 164.51325 97.31344 92.85992
#
# Poissons Ratio (x) = 0.32518 0.28280
# Poissons Ratio (y) = 0.54973 0.08519
# Poissons Ratio (z) = 0.50102 0.08928
#
# Static dielectric constant tensor:
#      x y z
#    x 2.058090 0.000000 0.000000 
#    y 0.000000 2.131180 0.000000 
#    z 0.000000 0.000000 2.112080 
# 
# From -- ./inp_files/10598.got.cif
#   From: 2010.05.17/outbox.cif.g08.bks.cpg/sg60_6_cif.got.tgz:10598.got - 2010.06.03 14:59:27.
