data_PCOD9458562
_publ_section_title
;
Structure prediction by ZEFSAII (Michael W. Deem and Ramdas Pophale) SiO2 
 PCOD9458562
Probable space group: P B C N
;
_chemical_formula_sum "Si O2"
_cell_formula_units_Z 32
_cell_length_a 5.105874
_cell_length_b 10.864679
_cell_length_c 22.675329
_cell_angle_alpha 90.000000
_cell_angle_beta 90.000000
_cell_angle_gamma 90.000000
_cell_volume 1257.883991
_symmetry_space_group_name_H-M "P B C N"
_symmetry_group_IT_number 60
_symmetry_cell_setting 'orthorhombic'
loop_
_space_group_symop_operation_xyz
x,y,z
1/2-x,1/2-y,1/2+z
1/2+x,1/2-y,-z
-x,y,1/2-z
-x,-y,-z
1/2+x,1/2+y,1/2-z
1/2-x,1/2+y,z
x,-y,1/2+z
loop_
_atom_site_type_symbol
_atom_site_label
_atom_site_fract_x
_atom_site_fract_y
_atom_site_fract_z
Si Si1 0.225319 0.336753 0.492075
Si Si2 0.853385 0.520801 0.907484
Si Si3 0.129133 0.367182 0.814888
Si Si4 0.551243 0.391951 0.180326
O O1 0.485544 0.253320 0.486794
O O2 0.275723 0.447805 0.538207
O O3 0.101666 0.406472 0.435182
O O4 0.681594 0.611110 0.866985
O O5 0.923195 0.410370 0.863254
O O6 0.224749 0.230176 0.827763
O O7 0.340602 0.471714 0.823452
O O8 0.000000 0.377683 0.750000
O O9 0.500000 0.381063 0.250000
#
# Coordination Sequence:
#
# PCOD9458562 Si02
#       4
#     8   8   8   8
#     4  11  28  49  75 111 156 210 273 331 393 463
#     4  11  26  46  75 107 153 209 262 325 397 476
#     4  11  25  44  73 111 153 207 255 329 392 485
#     4  11  25  46  71 113 157 202 263 319 404 471
#
# _framework density 25.439550000000001
#
# number of rings (size 3 to 8) (size 9 to 14) (size 15 to 20)
#    0.000    1.000    2.500    1.500   10.500    5.000 
#    0.000    0.000    0.000    0.000    0.000    0.000 
#    0.000    0.000    0.000    0.000    0.000    0.000 
#
# Total GULP energy -178855.181519 kJ/mol
# GULP energy per Si atom -5589.224422 kJ/mol
# Density = 2.538165 g / cm^3
# Si number density = 25.439550 Si / 1000 Ang^3
#
#
#
# Elastic Constant Matrix: (Units=GPa)
#
#
# Indices 1 2 3 4 5 6 
#
# 1 82.5562 37.2718 40.7896 0.0000 0.0000 0.0000
# 2 37.2718 158.7201 51.6502 0.0000 0.0000 0.0000
# 3 40.7896 51.6502 185.6912 0.0000 0.0000 0.0000
# 4 0.0000 0.0000 0.0000 339.4328 0.0000 0.0000
# 5 0.0000 0.0000 0.0000 0.0000 32.7516 0.0000
# 6 0.0000 0.0000 0.0000 0.0000 0.0000 179.4578
#
#
#
# Elastic Compliance Matrix: (Units=1/GPa)
#
#
# Indices 1 2 3 4 5 6 
#
# 1 0.014505 -0.002605 -0.002462 0.000000 0.000000 0.000000
# 2 -0.002605 0.007395 -0.001485 0.000000 0.000000 0.000000
# 3 -0.002462 -0.001485 0.006339 0.000000 0.000000 0.000000
# 4 0.000000 0.000000 0.000000 0.002946 0.000000 0.000000
# 5 0.000000 0.000000 0.000000 0.000000 0.030533 0.000000
# 6 0.000000 0.000000 0.000000 0.000000 0.000000 0.005572
#
#
# Mechanical properties :
#
#
# Convention : Reuss Voigt Hill
#
# Bulk Modulus (GPa) = 66.06542 76.26563 71.16552
# Shear Modulus (GPa) = 58.52076 130.14551 94.33313
#
# Velocity S-wave (km/s) = 4.80144 7.16029 6.09605
# Velocity P-wave (km/s) = 7.53421 9.91988 8.80819
#
# Compressibility (1/GPa) = 0.01513651
#
# Stress axis : x y z
#
# Youngs Moduli (GPa) = 68.93979 135.22031 157.75341
#
# Poissons Ratio (x) = 0.35228 0.38834
# Poissons Ratio (y) = 0.17960 0.23422
# Poissons Ratio (z) = 0.16971 0.20077
#
# Static dielectric constant tensor:
#      x y z
#    x 2.295120 0.000000 0.000000 
#    y 0.000000 1.941780 0.000000 
#    z 0.000000 0.000000 -0.430740 
# 
# From -- ./inp_files/21378.got.cif
#   From: 2010.05.17/outbox.cif.g08.bks.cpg/sg60_11_cif.got.tgz:21378.got - 2010.06.03 14:59:27.
