data_PCOD9458402
_publ_section_title
;
Structure prediction by ZEFSAII (Michael W. Deem and Ramdas Pophale) SiO2 
 PCOD9458402
Probable space group: P B C N
;
_chemical_formula_sum "Si O2"
_cell_formula_units_Z 48
_cell_length_a 27.728000
_cell_length_b 8.506541
_cell_length_c 9.044193
_cell_angle_alpha 90.000000
_cell_angle_beta 90.000000
_cell_angle_gamma 90.000000
_cell_volume 2133.248095
_symmetry_space_group_name_H-M "P B C N"
_symmetry_group_IT_number 60
_symmetry_cell_setting 'orthorhombic'
loop_
_space_group_symop_operation_xyz
x,y,z
1/2-x,1/2-y,1/2+z
1/2+x,1/2-y,-z
-x,y,1/2-z
-x,-y,-z
1/2+x,1/2+y,1/2-z
1/2-x,1/2+y,z
x,-y,1/2+z
loop_
_atom_site_type_symbol
_atom_site_label
_atom_site_fract_x
_atom_site_fract_y
_atom_site_fract_z
Si Si1 0.798941 0.176079 0.062752
Si Si2 0.105976 0.675216 0.584722
Si Si3 0.449140 0.318599 0.329945
Si Si4 0.295696 0.331709 0.578790
Si Si5 0.605779 0.182715 0.421617
Si Si6 0.049454 0.178148 0.333928
O O1 0.793925 0.167213 0.241251
O O2 0.752568 0.259445 0.990737
O O3 0.846108 0.271702 0.009373
O O4 0.802805 0.003679 0.990561
O O5 0.065839 0.702507 0.459761
O O6 0.158701 0.725518 0.532141
O O7 0.107097 0.495166 0.634435
O O8 0.091180 0.792436 0.715209
O O9 0.500000 0.286261 0.250000
O O10 0.406438 0.300352 0.210869
O O11 0.450761 0.497843 0.386764
O O12 0.561261 0.206669 0.533355
O O13 0.000000 0.209854 0.250000
#
# Coordination Sequence:
#
# PCOD9458402 Si02
#       6
#     8   8   8   8   8   8
#     4  12  27  48  76 107 144 189 239 296 363 436
#     4  12  26  43  69 103 143 184 237 292 358 426
#     4  11  25  43  70 101 138 191 241 295 357 425
#     4  12  27  48  76 107 144 189 239 296 363 436
#     4  12  26  43  69 103 143 184 237 292 358 426
#     4  11  23  45  68  97 138 185 239 295 355 427
#
# _framework density 22.500899
#
# number of rings (size 3 to 8) (size 9 to 14) (size 15 to 20)
#    0.000    0.333    1.667    7.000    4.667    6.667 
#    0.000    0.000    0.000    0.000    0.000    0.000 
#    0.000    0.000    0.000    0.000    0.000    0.000 
#
# Total GULP energy -268725.940331 kJ/mol
# GULP energy per Si atom -5598.457090 kJ/mol
# Density = 2.244969 g / cm^3
# Si number density = 22.500899 Si / 1000 Ang^3
#
#
#
# Elastic Constant Matrix: (Units=GPa)
#
#
# Indices 1 2 3 4 5 6 
#
# 1 116.0603 34.3638 18.2040 0.0000 0.0000 0.0000
# 2 34.3638 93.7099 11.5208 0.0000 0.0000 0.0000
# 3 18.2040 11.5208 82.4255 0.0000 0.0000 0.0000
# 4 0.0000 0.0000 0.0000 -41.5894 0.0000 0.0000
# 5 0.0000 0.0000 0.0000 0.0000 38.2758 0.0000
# 6 0.0000 0.0000 0.0000 0.0000 0.0000 36.6991
#
#
#
# Elastic Compliance Matrix: (Units=1/GPa)
#
#
# Indices 1 2 3 4 5 6 
#
# 1 0.009896 -0.003419 -0.001708 0.000000 0.000000 0.000000
# 2 -0.003419 0.012039 -0.000928 0.000000 0.000000 0.000000
# 3 -0.001708 -0.000928 0.012639 0.000000 0.000000 0.000000
# 4 0.000000 0.000000 0.000000 -0.024045 0.000000 0.000000
# 5 0.000000 0.000000 0.000000 0.000000 0.026126 0.000000
# 6 0.000000 0.000000 0.000000 0.000000 0.000000 0.027249
#
#
# Mechanical properties :
#
#
# Convention : Reuss Voigt Hill
#
# Bulk Modulus (GPa) = 44.51266 46.70811 45.61039
# Shear Modulus (GPa) = 59.87867 21.88423 40.88145
#
# Velocity S-wave (km/s) = 5.16425 3.12203 4.26711
# Velocity P-wave (km/s) = 7.44210 5.81373 6.67773
#
# Compressibility (1/GPa) = 0.02246552
#
# Stress axis : x y z
#
# Youngs Moduli (GPa) = 101.04667 83.06286 79.12031
#
# Poissons Ratio (x) = 0.28400 0.13512
# Poissons Ratio (y) = 0.34549 0.07339
# Poissons Ratio (z) = 0.17256 0.07705
#
# Static dielectric constant tensor:
#      x y z
#    x 1.829350 0.000000 0.000000 
#    y 0.000000 1.750040 0.000000 
#    z 0.000000 0.000000 1.860030 
# 
# From -- ./inp_files/8415.got.cif
#   From: 2010.05.17/outbox.cif.g08.bks.cpg/sg60_5_cif.got.tgz:8415.got - 2010.06.03 14:59:27.
