data_PCOD9458832
_publ_section_title
;
Structure prediction by ZEFSAII (Michael W. Deem and Ramdas Pophale) SiO2 
 PCOD9458832
Probable space group: P B C N
;
_chemical_formula_sum "Si O2"
_cell_formula_units_Z 32
_cell_length_a 11.197417
_cell_length_b 7.792678
_cell_length_c 13.712947
_cell_angle_alpha 90.000000
_cell_angle_beta 90.000000
_cell_angle_gamma 90.000000
_cell_volume 1196.562480
_symmetry_space_group_name_H-M "P B C N"
_symmetry_group_IT_number 60
_symmetry_cell_setting 'orthorhombic'
loop_
_space_group_symop_operation_xyz
x,y,z
1/2-x,1/2-y,1/2+z
1/2+x,1/2-y,-z
-x,y,1/2-z
-x,-y,-z
1/2+x,1/2+y,1/2-z
1/2-x,1/2+y,z
x,-y,1/2+z
loop_
_atom_site_type_symbol
_atom_site_label
_atom_site_fract_x
_atom_site_fract_y
_atom_site_fract_z
Si Si1 0.825069 0.542020 0.378616
Si Si2 0.373643 0.273982 0.752035
Si Si3 0.050130 0.727925 0.359885
Si Si4 0.778402 0.953483 0.581508
O O1 0.770547 0.128749 0.307174
O O2 0.928746 0.671201 0.414442
O O3 0.751609 0.462811 0.467925
O O4 0.500000 0.365163 0.750000
O O5 0.337756 0.288400 0.865310
O O6 0.355291 0.926596 0.873834
O O7 0.386318 0.103901 0.687365
O O8 0.000000 0.746895 0.250000
O O9 0.873449 0.105832 0.606077
#
# Coordination Sequence:
#
# PCOD9458832 Si02
#       4
#     8   8   8   8
#     4  12  29  55  86 128 172 225 290 351 428 518
#     4  12  29  53  84 125 172 226 283 354 428 510
#     4  12  27  53  85 124 174 219 286 353 427 512
#     4  12  28  54  85 123 173 227 279 356 432 503
#
# _framework density 26.743276999999999
#
# number of rings (size 3 to 8) (size 9 to 14) (size 15 to 20)
#    0.000    0.000    2.500    5.250    7.000    1.000 
#    4.500    0.000    0.000    0.000    0.000    0.000 
#    0.000    0.000    0.000    0.000    0.000    0.000 
#
# Total GULP energy -178759.299247 kJ/mol
# GULP energy per Si atom -5586.228101 kJ/mol
# Density = 2.668241 g / cm^3
# Si number density = 26.743277 Si / 1000 Ang^3
#
#
#
# Elastic Constant Matrix: (Units=GPa)
#
#
# Indices 1 2 3 4 5 6 
#
# 1 198.6974 78.1462 37.0237 0.0000 0.0000 0.0000
# 2 78.1462 159.1296 61.0497 0.0000 0.0000 0.0000
# 3 37.0237 61.0497 153.2405 0.0000 0.0000 0.0000
# 4 0.0000 0.0000 0.0000 25.4568 0.0000 0.0000
# 5 0.0000 0.0000 0.0000 0.0000 22.0243 0.0000
# 6 0.0000 0.0000 0.0000 0.0000 0.0000 34.8329
#
#
#
# Elastic Compliance Matrix: (Units=1/GPa)
#
#
# Indices 1 2 3 4 5 6 
#
# 1 0.006252 -0.002940 -0.000339 0.000000 0.000000 0.000000
# 2 -0.002940 0.008801 -0.002796 0.000000 0.000000 0.000000
# 3 -0.000339 -0.002796 0.007721 0.000000 0.000000 0.000000
# 4 0.000000 0.000000 0.000000 0.039282 0.000000 0.000000
# 5 0.000000 0.000000 0.000000 0.000000 0.045404 0.000000
# 6 0.000000 0.000000 0.000000 0.000000 0.000000 0.028709
#
#
# Mechanical properties :
#
#
# Convention : Reuss Voigt Hill
#
# Bulk Modulus (GPa) = 94.12635 95.94518 95.03577
# Shear Modulus (GPa) = 32.92474 38.78599 35.85536
#
# Velocity S-wave (km/s) = 3.51257 3.81242 3.66556
# Velocity P-wave (km/s) = 7.19191 7.43866 7.31632
#
# Compressibility (1/GPa) = 0.01062402
#
# Stress axis : x y z
#
# Youngs Moduli (GPa) = 159.93889 113.62724 129.50947
#
# Poissons Ratio (x) = 0.33410 0.04393
# Poissons Ratio (y) = 0.47027 0.36207
# Poissons Ratio (z) = 0.05425 0.31767
#
# Static dielectric constant tensor:
#      x y z
#    x 2.086360 0.000000 0.000000 
#    y 0.000000 2.169510 0.000000 
#    z 0.000000 0.000000 2.100570 
# 
# From -- ./inp_files/20332.got.cif
#   From: 2010.05.17/outbox.cif.g08.bks.cpg/sg60_11_cif.got.tgz:20332.got - 2010.06.03 14:59:27.
