data_PCOD9458730
_publ_section_title
;
Structure prediction by ZEFSAII (Michael W. Deem and Ramdas Pophale) SiO2 
 PCOD9458730
Probable space group: P B C N
;
_chemical_formula_sum "Si O2"
_cell_formula_units_Z 28
_cell_length_a 12.293522
_cell_length_b 5.940440
_cell_length_c 13.911417
_cell_angle_alpha 90.000000
_cell_angle_beta 90.000000
_cell_angle_gamma 90.000000
_cell_volume 1015.935896
_symmetry_space_group_name_H-M "P B C N"
_symmetry_group_IT_number 60
_symmetry_cell_setting 'orthorhombic'
loop_
_space_group_symop_operation_xyz
x,y,z
1/2-x,1/2-y,1/2+z
1/2+x,1/2-y,-z
-x,y,1/2-z
-x,-y,-z
1/2+x,1/2+y,1/2-z
1/2-x,1/2+y,z
x,-y,1/2+z
loop_
_atom_site_type_symbol
_atom_site_label
_atom_site_fract_x
_atom_site_fract_y
_atom_site_fract_z
Si Si1 0.594583 0.952136 0.592687
Si Si2 0.196688 0.650770 0.593646
Si Si3 0.000000 0.182046 0.750000
Si Si4 0.824715 0.826753 0.698219
O O1 0.600702 0.870531 0.484387
O O2 0.502653 0.832008 0.655106
O O3 0.713253 0.881043 0.641401
O O4 0.598914 0.213901 0.617780
O O5 0.254548 0.405032 0.574786
O O6 0.180060 0.664697 0.708296
O O7 0.893811 0.031843 0.740574
#
# Coordination Sequence:
#
# PCOD9458730 Si02
#       4
#     8   8   4   8
#     4  12  24  47  74 105 151 193 247 309 369 442
#     4  12  24  43  79 111 145 198 248 303 381 443
#     4  12  26  46  76 104 148 202 246 306 382 434
#     4  12  24  47  74 105 151 193 247 309 369 442
#
# _framework density 27.560794999999999
#
# number of rings (size 3 to 8) (size 9 to 14) (size 15 to 20)
#    0.000    0.000    8.571    0.857    0.000    1.143 
#    0.000    8.571    0.000    0.000    0.000    0.000 
#    0.000    0.000    0.000    0.000    0.000    0.000 
#
# Total GULP energy -156566.899790 kJ/mol
# GULP energy per Si atom -5591.674992 kJ/mol
# Density = 2.749807 g / cm^3
# Si number density = 27.560795 Si / 1000 Ang^3
#
#
#
# Elastic Constant Matrix: (Units=GPa)
#
#
# Indices 1 2 3 4 5 6 
#
# 1 97.0226 34.8537 41.3465 0.0000 0.0000 0.0000
# 2 34.8537 129.6016 25.0283 0.0000 0.0000 0.0000
# 3 41.3465 25.0283 164.4601 0.0000 0.0000 0.0000
# 4 0.0000 0.0000 0.0000 30.3715 0.0000 0.0000
# 5 0.0000 0.0000 0.0000 0.0000 64.4154 0.0000
# 6 0.0000 0.0000 0.0000 0.0000 0.0000 46.7689
#
#
#
# Elastic Compliance Matrix: (Units=1/GPa)
#
#
# Indices 1 2 3 4 5 6 
#
# 1 0.012478 -0.002833 -0.002706 0.000000 0.000000 0.000000
# 2 -0.002833 0.008593 -0.000595 0.000000 0.000000 0.000000
# 3 -0.002706 -0.000595 0.006851 0.000000 0.000000 0.000000
# 4 0.000000 0.000000 0.000000 0.032926 0.000000 0.000000
# 5 0.000000 0.000000 0.000000 0.000000 0.015524 0.000000
# 6 0.000000 0.000000 0.000000 0.000000 0.000000 0.021382
#
#
# Mechanical properties :
#
#
# Convention : Reuss Voigt Hill
#
# Bulk Modulus (GPa) = 63.88459 65.94902 64.91681
# Shear Modulus (GPa) = 43.38772 47.63487 45.51130
#
# Velocity S-wave (km/s) = 3.97199 4.16186 4.06803
# Velocity P-wave (km/s) = 6.65323 6.86114 6.75799
#
# Compressibility (1/GPa) = 0.01565323
#
# Stress axis : x y z
#
# Youngs Moduli (GPa) = 80.14292 116.37589 145.95583
#
# Poissons Ratio (x) = 0.32970 0.39493
# Poissons Ratio (y) = 0.22705 0.08691
# Poissons Ratio (z) = 0.21685 0.06930
#
# Static dielectric constant tensor:
#      x y z
#    x 2.240180 0.000000 0.000000 
#    y 0.000000 2.323490 0.000000 
#    z 0.000000 0.000000 2.099980 
# 
# From -- ./inp_files/13537.got.cif
#   From: 2010.05.17/outbox.cif.g08.bks.cpg/sg60_7_cif.got.tgz:13537.got - 2010.06.03 14:59:27.
