data_PCOD9458600
_publ_section_title
;
Structure prediction by ZEFSAII (Michael W. Deem and Ramdas Pophale) SiO2 
 PCOD9458600
Probable space group: P B C N
;
_chemical_formula_sum "Si O2"
_cell_formula_units_Z 40
_cell_length_a 7.628666
_cell_length_b 14.751284
_cell_length_c 16.038056
_cell_angle_alpha 90.000000
_cell_angle_beta 90.000000
_cell_angle_gamma 90.000000
_cell_volume 1804.804441
_symmetry_space_group_name_H-M "P B C N"
_symmetry_group_IT_number 60
_symmetry_cell_setting 'orthorhombic'
loop_
_space_group_symop_operation_xyz
x,y,z
1/2-x,1/2-y,1/2+z
1/2+x,1/2-y,-z
-x,y,1/2-z
-x,-y,-z
1/2+x,1/2+y,1/2-z
1/2-x,1/2+y,z
x,-y,1/2+z
loop_
_atom_site_type_symbol
_atom_site_label
_atom_site_fract_x
_atom_site_fract_y
_atom_site_fract_z
Si Si1 0.713303 0.749722 0.107469
Si Si2 0.290603 0.022381 0.596447
Si Si3 0.061972 0.058157 0.346596
Si Si4 0.709706 0.398167 0.230899
Si Si5 0.501151 0.143146 0.029455
O O1 0.306620 0.928623 0.185561
O O2 0.614392 0.655048 0.119440
O O3 0.714205 0.808944 0.190436
O O4 0.631747 0.810051 0.034421
O O5 0.349514 0.092018 0.525183
O O6 0.091039 0.986852 0.598713
O O7 0.407394 0.933113 0.584296
O O8 0.000000 0.071646 0.250000
O O9 0.212050 0.981800 0.335203
O O10 0.500000 0.384540 0.250000
O O11 0.590040 0.220893 0.083950
#
# Coordination Sequence:
#
# PCOD9458600 Si02
#       5
#     8   8   8   8   8
#     4  12  26  41  71 102 136 181 227 284 337 412
#     4   9  22  48  66  93 138 181 224 280 342 405
#     4   9  22  44  66  96 131 177 225 277 330 398
#     4   9  23  44  70  95 132 185 226 278 337 400
#     4  11  26  40  67 104 134 179 225 281 351 399
#
# _framework density 22.163066000000001
#
# number of rings (size 3 to 8) (size 9 to 14) (size 15 to 20)
#    0.000    2.400    0.000    1.200   14.000    4.000 
#    3.600    0.000    0.000    0.000    0.000    0.000 
#    0.000    0.000    0.000    0.000    0.000    0.000 
#
# Total GULP energy -223642.120493 kJ/mol
# GULP energy per Si atom -5591.053012 kJ/mol
# Density = 2.211262 g / cm^3
# Si number density = 22.163066 Si / 1000 Ang^3
#
#
#
# Elastic Constant Matrix: (Units=GPa)
#
#
# Indices 1 2 3 4 5 6 
#
# 1 29.5151 25.2719 33.7979 0.0000 0.0000 0.0000
# 2 25.2719 126.4693 49.1221 0.0000 0.0000 0.0000
# 3 33.7979 49.1221 76.7589 0.0000 0.0000 0.0000
# 4 0.0000 0.0000 0.0000 -19.7693 0.0000 0.0000
# 5 0.0000 0.0000 0.0000 0.0000 34.7509 0.0000
# 6 0.0000 0.0000 0.0000 0.0000 0.0000 37.3717
#
#
#
# Elastic Compliance Matrix: (Units=1/GPa)
#
#
# Indices 1 2 3 4 5 6 
#
# 1 0.068995 -0.002645 -0.028687 0.000000 0.000000 0.000000
# 2 -0.002645 0.010624 -0.005634 0.000000 0.000000 0.000000
# 3 -0.028687 -0.005634 0.029265 0.000000 0.000000 0.000000
# 4 0.000000 0.000000 0.000000 -0.050584 0.000000 0.000000
# 5 0.000000 0.000000 0.000000 0.000000 0.028776 0.000000
# 6 0.000000 0.000000 0.000000 0.000000 0.000000 0.026758
#
#
# Mechanical properties :
#
#
# Convention : Reuss Voigt Hill
#
# Bulk Modulus (GPa) = 28.61078 49.90302 39.25690
# Shear Modulus (GPa) = 25.07302 18.77409 21.92355
#
# Velocity S-wave (km/s) = 3.36713 2.91364 3.14856
# Velocity P-wave (km/s) = 5.29660 5.82102 5.56499
#
# Compressibility (1/GPa) = 0.03495186
#
# Stress axis : x y z
#
# Youngs Moduli (GPa) = 14.49375 94.12661 34.17080
#
# Poissons Ratio (x) = 0.24894 0.98026
# Poissons Ratio (y) = 0.03833 0.19253
# Poissons Ratio (z) = 0.41578 0.53034
#
# Static dielectric constant tensor:
#      x y z
#    x 1.864360 0.000000 0.000000 
#    y 0.000000 1.781680 0.000000 
#    z 0.000000 0.000000 1.808430 
# 
# From -- ./inp_files/19019.got.cif
#   From: 2010.05.17/outbox.cif.g08.bks.cpg/sg60_10_cif.got.tgz:19019.got - 2010.06.03 14:59:27.
