data_PCOD9458982
_publ_section_title
;
Structure prediction by ZEFSAII (Michael W. Deem and Ramdas Pophale) SiO2 
 PCOD9458982
Probable space group: P B C A
;
_chemical_formula_sum "Si O2"
_cell_formula_units_Z 48
_cell_length_a 15.017831
_cell_length_b 9.372457
_cell_length_c 13.427093
_cell_angle_alpha 90.000000
_cell_angle_beta 90.000000
_cell_angle_gamma 90.000000
_cell_volume 1889.916716
_symmetry_space_group_name_H-M "P B C A"
_symmetry_group_IT_number 61
_symmetry_cell_setting 'orthorhombic'
loop_
_space_group_symop_operation_xyz
x,y,z
1/2-x,-y,1/2+z
1/2+x,1/2-y,-z
-x,1/2+y,1/2-z
-x,-y,-z
1/2+x,y,1/2-z
1/2-x,1/2+y,z
x,1/2-y,1/2+z
loop_
_atom_site_type_symbol
_atom_site_label
_atom_site_fract_x
_atom_site_fract_y
_atom_site_fract_z
Si Si1 0.427756 0.822855 0.781002
Si Si2 0.465366 0.285336 0.453204
Si Si3 0.129091 0.067719 0.490067
Si Si4 0.429612 0.118399 0.724564
Si Si5 0.692191 0.614051 0.073029
Si Si6 0.735648 0.357871 0.212759
O O1 0.381140 0.910125 0.871136
O O2 0.505673 0.728482 0.830750
O O3 0.348316 0.724163 0.740960
O O4 0.457786 0.954031 0.712231
O O5 0.570157 0.302602 0.469759
O O6 0.417955 0.417583 0.512488
O O7 0.455334 0.324984 0.335885
O O8 0.405420 0.145989 0.468661
O O9 0.233833 0.068419 0.507330
O O10 0.322875 0.128083 0.718437
O O11 0.696432 0.501269 0.163503
O O12 0.727580 0.763423 0.119773
#
# Coordination Sequence:
#
# PCOD9458982 Si02
#       6
#     8   8   8   8   8   8
#     4  10  21  33  55  80 109 139 181 228 270 326
#     4   9  18  32  57  77 106 142 181 223 273 321
#     4   9  17  35  53  80 106 140 183 224 270 324
#     4  10  20  34  54  82 104 144 180 225 276 319
#     4  10  16  32  55  78  99 141 182 217 257 326
#     4  10  18  34  53  76 105 141 185 213 257 334
#
# _framework density 25.397946000000001
#
# number of rings (size 3 to 8) (size 9 to 14) (size 15 to 20)
#    0.000    2.333    6.667    0.000    4.667    0.000 
#    0.000    5.000    0.000    4.000    0.000    0.000 
#    0.000    0.000    0.000    0.000    0.000    0.000 
#
# Total GULP energy -267754.619689 kJ/mol
# GULP energy per Si atom -5578.221244 kJ/mol
# Density = 2.534014 g / cm^3
# Si number density = 25.397946 Si / 1000 Ang^3
#
#
#
# Elastic Constant Matrix: (Units=GPa)
#
#
# Indices 1 2 3 4 5 6 
#
# 1 123.5240 56.2875 13.2353 0.0000 0.0000 0.0000
# 2 56.2875 129.6832 -8.9098 0.0000 0.0000 0.0000
# 3 13.2353 -8.9098 19.9195 0.0000 0.0000 0.0000
# 4 0.0000 0.0000 0.0000 15.3305 0.0000 0.0000
# 5 0.0000 0.0000 0.0000 0.0000 33.7267 0.0000
# 6 0.0000 0.0000 0.0000 0.0000 0.0000 47.3114
#
#
#
# Elastic Compliance Matrix: (Units=1/GPa)
#
#
# Indices 1 2 3 4 5 6 
#
# 1 0.011913 -0.005896 -0.010552 0.000000 0.000000 0.000000
# 2 -0.005896 0.010873 0.008781 0.000000 0.000000 0.000000
# 3 -0.010552 0.008781 0.061141 0.000000 0.000000 0.000000
# 4 0.000000 0.000000 0.000000 0.065230 0.000000 0.000000
# 5 0.000000 0.000000 0.000000 0.000000 0.029650 0.000000
# 6 0.000000 0.000000 0.000000 0.000000 0.000000 0.021137
#
#
# Mechanical properties :
#
#
# Convention : Reuss Voigt Hill
#
# Bulk Modulus (GPa) = 14.57880 43.81698 29.19789
# Shear Modulus (GPa) = 20.99589 33.44128 27.21859
#
# Velocity S-wave (km/s) = 2.87832 3.63256 3.27721
# Velocity P-wave (km/s) = 4.09865 5.90624 5.08343
#
# Compressibility (1/GPa) = 0.06859273
#
# Stress axis : x y z
#
# Youngs Moduli (GPa) = 83.94356 91.96852 16.35563
#
# Poissons Ratio (x) = 0.54221 0.17259
# Poissons Ratio (y) = 0.49490 -0.14362
# Poissons Ratio (z) = 0.88580 -0.80756
#
# Static dielectric constant tensor:
#      x y z
#    x 2.146370 0.000000 0.000000 
#    y 0.000000 2.055770 0.000000 
#    z 0.000000 0.000000 2.158510 
# 
# From -- ./inp_files/3838.got.cif
#   From: 2010.05.17/outbox.cif.g08.bks.cpg/sg61_2_cif.got.tgz:3838.got - 2010.06.03 15:17:17.
