data_PCOD9458192
_publ_section_title
;
Structure prediction by ZEFSAII (Michael W. Deem and Ramdas Pophale) SiO2 
 PCOD9458192
Probable space group: P B C N
;
_chemical_formula_sum "Si O2"
_cell_formula_units_Z 56
_cell_length_a 27.334187
_cell_length_b 5.050088
_cell_length_c 18.825181
_cell_angle_alpha 90.000000
_cell_angle_beta 90.000000
_cell_angle_gamma 90.000000
_cell_volume 2598.628922
_symmetry_space_group_name_H-M "P B C N"
_symmetry_group_IT_number 60
_symmetry_cell_setting 'orthorhombic'
loop_
_space_group_symop_operation_xyz
x,y,z
1/2-x,1/2-y,1/2+z
1/2+x,1/2-y,-z
-x,y,1/2-z
-x,-y,-z
1/2+x,1/2+y,1/2-z
1/2-x,1/2+y,z
x,-y,1/2+z
loop_
_atom_site_type_symbol
_atom_site_label
_atom_site_fract_x
_atom_site_fract_y
_atom_site_fract_z
Si Si1 0.403630 0.059829 0.894838
Si Si2 0.649463 0.442523 0.046848
Si Si3 0.553233 0.703131 0.813177
Si Si4 0.612161 0.635922 0.400994
Si Si5 0.126503 0.863261 0.756939
Si Si6 0.719611 0.612675 0.670298
Si Si7 0.012345 0.703034 0.628220
O O1 0.373710 0.268125 0.943158
O O2 0.388087 0.146854 0.815037
O O3 0.461323 0.112211 0.902728
O O4 0.386269 0.767862 0.914360
O O5 0.699654 0.424820 0.090181
O O6 0.649598 0.369031 0.964370
O O7 0.593103 0.657107 0.876869
O O8 0.583099 0.581639 0.748152
O O9 0.511800 0.490279 0.835282
O O10 0.530681 0.988617 0.814436
O O11 0.629534 0.743522 0.324129
O O12 0.560207 0.770949 0.422573
O O13 0.175733 0.009127 0.780464
O O14 0.764948 0.414479 0.681783
#
# Coordination Sequence:
#
# PCOD9458192 Si02
#       7
#     8   8   8   8   8   8   8
#     4  11  22  37  60  90 127 166 214 242 292 360
#     4  11  24  39  61  90 123 164 195 256 316 359
#     4   8  19  35  58  83 120 159 200 251 289 342
#     4   8  22  38  61  84 129 162 201 250 300 356
#     4   8  21  42  61  86 116 162 201 252 306 360
#     4  11  23  43  65  88 113 146 196 253 311 377
#     4   9  19  35  55  90 121 168 205 247 280 348
#
# _framework density 21.549828000000002
#
# number of rings (size 3 to 8) (size 9 to 14) (size 15 to 20)
#    1.714    0.571    0.000    2.571    2.000   10.286 
#    0.000    4.286    0.000    0.000    0.000    0.000 
#    0.000    0.000    0.000    0.000    0.000    0.000 
#
# Total GULP energy -312027.423431 kJ/mol
# GULP energy per Si atom -5571.918276 kJ/mol
# Density = 2.150078 g / cm^3
# Si number density = 21.549828 Si / 1000 Ang^3
#
#
#
# Elastic Constant Matrix: (Units=GPa)
#
#
# Indices 1 2 3 4 5 6 
#
# 1 24.7209 1.2035 -20.0873 0.0000 0.0000 0.0000
# 2 1.2035 51.7116 -1.7333 0.0000 0.0000 0.0000
# 3 -20.0873 -1.7333 64.6572 0.0000 0.0000 0.0000
# 4 0.0000 0.0000 0.0000 10.3916 0.0000 0.0000
# 5 0.0000 0.0000 0.0000 0.0000 13.6864 0.0000
# 6 0.0000 0.0000 0.0000 0.0000 0.0000 16.5405
#
#
#
# Elastic Compliance Matrix: (Units=1/GPa)
#
#
# Indices 1 2 3 4 5 6 
#
# 1 0.054137 -0.000697 0.016800 0.000000 0.000000 0.000000
# 2 -0.000697 0.019364 0.000303 0.000000 0.000000 0.000000
# 3 0.016800 0.000303 0.020694 0.000000 0.000000 0.000000
# 4 0.000000 0.000000 0.000000 0.096232 0.000000 0.000000
# 5 0.000000 0.000000 0.000000 0.000000 0.073065 0.000000
# 6 0.000000 0.000000 0.000000 0.000000 0.000000 0.060458
#
#
# Mechanical properties :
#
#
# Convention : Reuss Voigt Hill
#
# Bulk Modulus (GPa) = 7.87360 11.09506 9.48433
# Shear Modulus (GPa) = 14.99371 18.90415 16.94893
#
# Velocity S-wave (km/s) = 2.64061 2.96502 2.80750
# Velocity P-wave (km/s) = 3.59981 4.10871 3.86265
#
# Compressibility (1/GPa) = 0.12700674
#
# Stress axis : x y z
#
# Youngs Moduli (GPa) = 18.47175 51.64124 48.32401
#
# Poissons Ratio (x) = 0.03598 -0.81185
# Poissons Ratio (y) = 0.01287 -0.01463
# Poissons Ratio (z) = -0.31033 -0.01563
#
# Static dielectric constant tensor:
#      x y z
#    x 1.813900 0.000000 0.000000 
#    y 0.000000 1.796960 0.000000 
#    z 0.000000 0.000000 1.826110 
# 
# From -- ./inp_files/23331.got.cif
#   From: 2010.05.17/outbox.cif.g08.bks.cpg/sg60_12_cif.got.tgz:23331.got - 2010.06.03 14:59:27.
