data_PCOD9458787
_publ_section_title
;
Structure prediction by ZEFSAII (Michael W. Deem and Ramdas Pophale) SiO2 
 PCOD9458787
Probable space group: P B C N
;
_chemical_formula_sum "Si O2"
_cell_formula_units_Z 36
_cell_length_a 20.222174
_cell_length_b 8.680496
_cell_length_c 8.061663
_cell_angle_alpha 90.000000
_cell_angle_beta 90.000000
_cell_angle_gamma 90.000000
_cell_volume 1415.132235
_symmetry_space_group_name_H-M "P B C N"
_symmetry_group_IT_number 60
_symmetry_cell_setting 'orthorhombic'
loop_
_space_group_symop_operation_xyz
x,y,z
1/2-x,1/2-y,1/2+z
1/2+x,1/2-y,-z
-x,y,1/2-z
-x,-y,-z
1/2+x,1/2+y,1/2-z
1/2-x,1/2+y,z
x,-y,1/2+z
loop_
_atom_site_type_symbol
_atom_site_label
_atom_site_fract_x
_atom_site_fract_y
_atom_site_fract_z
Si Si1 0.884190 0.347674 0.236179
Si Si2 0.253058 0.524238 0.300733
Si Si3 0.022575 0.170140 0.443834
Si Si4 0.000000 0.399054 0.750000
Si Si5 0.310025 0.706644 0.997675
O O1 0.812179 0.420071 0.212094
O O2 0.901474 0.224584 0.092692
O O3 0.936536 0.487339 0.240391
O O4 0.876453 0.262229 0.413560
O O5 0.269457 0.614917 0.135650
O O6 0.232294 0.650826 0.434666
O O7 0.314238 0.414509 0.348676
O O8 0.002979 0.291000 0.587768
O O9 0.000000 0.190389 0.250000
O O10 0.000000 0.000000 0.500000
#
# Coordination Sequence:
#
# PCOD9458787 Si02
#       5
#     8   8   8   4   8
#     4  12  27  50  84 115 161 212 272 332 408 501
#     4  12  25  48  75 114 155 208 263 327 399 473
#     4  12  28  53  79 121 161 209 271 338 414 487
#     4  12  28  54  86 118 164 216 274 338 416 500
#     4  12  25  48  75 113 155 205 265 326 399 472
#
# _framework density 25.439318
#
# number of rings (size 3 to 8) (size 9 to 14) (size 15 to 20)
#    0.000    0.000    6.667    2.000    3.111    1.778 
#    4.000    0.000    0.000    0.000    0.000    0.000 
#    0.000    0.000    0.000    0.000    0.000    0.000 
#
# Total GULP energy -201431.163490 kJ/mol
# GULP energy per Si atom -5595.310097 kJ/mol
# Density = 2.538142 g / cm^3
# Si number density = 25.439318 Si / 1000 Ang^3
#
#
#
# Elastic Constant Matrix: (Units=GPa)
#
#
# Indices 1 2 3 4 5 6 
#
# 1 66.2024 30.5520 17.3783 0.0000 0.0000 0.0000
# 2 30.5520 154.2579 43.9146 0.0000 0.0000 0.0000
# 3 17.3783 43.9146 109.3649 0.0000 0.0000 0.0000
# 4 0.0000 0.0000 0.0000 51.1670 0.0000 0.0000
# 5 0.0000 0.0000 0.0000 0.0000 40.6697 0.0000
# 6 0.0000 0.0000 0.0000 0.0000 0.0000 47.8314
#
#
#
# Elastic Compliance Matrix: (Units=1/GPa)
#
#
# Indices 1 2 3 4 5 6 
#
# 1 0.016843 -0.002906 -0.001509 0.000000 0.000000 0.000000
# 2 -0.002906 0.007821 -0.002679 0.000000 0.000000 0.000000
# 3 -0.001509 -0.002679 0.010459 0.000000 0.000000 0.000000
# 4 0.000000 0.000000 0.000000 0.019544 0.000000 0.000000
# 5 0.000000 0.000000 0.000000 0.000000 0.024588 0.000000
# 6 0.000000 0.000000 0.000000 0.000000 0.000000 0.020907
#
#
# Mechanical properties :
#
#
# Convention : Reuss Voigt Hill
#
# Bulk Modulus (GPa) = 47.76853 57.05722 52.41288
# Shear Modulus (GPa) = 41.21071 43.79896 42.50484
#
# Velocity S-wave (km/s) = 4.02924 4.15384 4.09202
# Velocity P-wave (km/s) = 6.36118 6.74413 6.55545
#
# Compressibility (1/GPa) = 0.02093429
#
# Stress axis : x y z
#
# Youngs Moduli (GPa) = 59.37339 127.86449 95.61039
#
# Poissons Ratio (x) = 0.37159 0.14431
# Poissons Ratio (y) = 0.17255 0.25610
# Poissons Ratio (z) = 0.08962 0.34250
#
# Static dielectric constant tensor:
#      x y z
#    x 2.084580 0.000000 0.000000 
#    y 0.000000 2.000450 0.000000 
#    z 0.000000 0.000000 2.067020 
# 
# From -- ./inp_files/7209.got.cif
#   From: 2010.05.17/outbox.cif.g08.bks.cpg/sg60_4_cif.got.tgz:7209.got - 2010.06.03 14:59:27.
