data_PCOD9458534
_publ_section_title
;
Structure prediction by ZEFSAII (Michael W. Deem and Ramdas Pophale) SiO2 
 PCOD9458534
Probable space group: P B C N
;
_chemical_formula_sum "Si O2"
_cell_formula_units_Z 28
_cell_length_a 6.192755
_cell_length_b 15.601025
_cell_length_c 12.824833
_cell_angle_alpha 90.000000
_cell_angle_beta 90.000000
_cell_angle_gamma 90.000000
_cell_volume 1239.049766
_symmetry_space_group_name_H-M "P B C N"
_symmetry_group_IT_number 60
_symmetry_cell_setting 'orthorhombic'
loop_
_space_group_symop_operation_xyz
x,y,z
1/2-x,1/2-y,1/2+z
1/2+x,1/2-y,-z
-x,y,1/2-z
-x,-y,-z
1/2+x,1/2+y,1/2-z
1/2-x,1/2+y,z
x,-y,1/2+z
loop_
_atom_site_type_symbol
_atom_site_label
_atom_site_fract_x
_atom_site_fract_y
_atom_site_fract_z
Si Si1 0.706718 0.999442 0.926069
Si Si2 0.485388 0.356422 0.961085
Si Si3 0.000000 0.395951 0.250000
Si Si4 0.169694 0.240582 0.844926
O O1 0.643511 0.041515 0.818322
O O2 0.867266 0.068370 0.976446
O O3 0.805222 0.904713 0.916357
O O4 0.500000 0.000000 0.000000
O O5 0.325255 0.319373 0.874322
O O6 0.549414 0.285664 0.047441
O O7 0.836351 0.335644 0.185553
O O8 0.000000 0.252166 0.750000
#
# Coordination Sequence:
#
# PCOD9458534 Si02
#       4
#     8   8   4   8
#     4  11  24  48  74 107 149 196 248 313 373 454
#     4  11  26  48  74 107 150 196 250 312 382 445
#     4  12  24  48  76 106 146 198 248 310 382 446
#     4  12  26  48  75 111 150 199 252 315 378 458
#
# _framework density 22.597961999999999
#
# number of rings (size 3 to 8) (size 9 to 14) (size 15 to 20)
#    0.000    0.571    5.714    1.714    0.000    0.000 
#    7.714    0.000    0.000    0.000    0.000    0.000 
#    0.000    0.000    0.000    0.000    0.000    0.000 
#
# Total GULP energy -156715.042227 kJ/mol
# GULP energy per Si atom -5596.965794 kJ/mol
# Density = 2.254653 g / cm^3
# Si number density = 22.597962 Si / 1000 Ang^3
#
#
#
# Elastic Constant Matrix: (Units=GPa)
#
#
# Indices 1 2 3 4 5 6 
#
# 1 103.8522 50.6401 38.4612 0.0000 0.0000 0.0000
# 2 50.6401 101.9011 54.0976 0.0000 0.0000 0.0000
# 3 38.4612 54.0976 83.7593 0.0000 0.0000 0.0000
# 4 0.0000 0.0000 0.0000 935.8380 0.0000 0.0000
# 5 0.0000 0.0000 0.0000 0.0000 34.5856 0.0000
# 6 0.0000 0.0000 0.0000 0.0000 0.0000 55.3893
#
#
#
# Elastic Compliance Matrix: (Units=1/GPa)
#
#
# Indices 1 2 3 4 5 6 
#
# 1 0.013115 -0.005053 -0.002759 0.000000 0.000000 0.000000
# 2 -0.005053 0.016881 -0.008583 0.000000 0.000000 0.000000
# 3 -0.002759 -0.008583 0.018749 0.000000 0.000000 0.000000
# 4 0.000000 0.000000 0.000000 0.001069 0.000000 0.000000
# 5 0.000000 0.000000 0.000000 0.000000 0.028914 0.000000
# 6 0.000000 0.000000 0.000000 0.000000 0.000000 0.018054
#
#
# Mechanical properties :
#
#
# Convention : Reuss Voigt Hill
#
# Bulk Modulus (GPa) = 62.67131 63.99005 63.33068
# Shear Modulus (GPa) = 37.06797 214.91683 125.99240
#
# Velocity S-wave (km/s) = 4.05448 9.76273 7.47495
# Velocity P-wave (km/s) = 7.05066 12.46834 10.12846
#
# Compressibility (1/GPa) = 0.01595626
#
# Stress axis : x y z
#
# Youngs Moduli (GPa) = 76.25127 59.23881 53.33648
#
# Poissons Ratio (x) = 0.29932 0.14713
# Poissons Ratio (y) = 0.38529 0.45777
# Poissons Ratio (z) = 0.21034 0.50842
#
# Static dielectric constant tensor:
#      x y z
#    x 3.103740 0.000000 0.000000 
#    y 0.000000 1.791700 0.000000 
#    z 0.000000 0.000000 1.905260 
# 
# From -- ./inp_files/13550.got.cif
#   From: 2010.05.17/outbox.cif.g08.bks.cpg/sg60_7_cif.got.tgz:13550.got - 2010.06.03 14:59:27.
