data_PCOD9458301
_publ_section_title
;
Structure prediction by ZEFSAII (Michael W. Deem and Ramdas Pophale) SiO2 
 PCOD9458301
Probable space group: P B C N
;
_chemical_formula_sum "Si O2"
_cell_formula_units_Z 48
_cell_length_a 7.700610
_cell_length_b 19.713414
_cell_length_c 14.087284
_cell_angle_alpha 90.000000
_cell_angle_beta 90.000000
_cell_angle_gamma 90.000000
_cell_volume 2138.524557
_symmetry_space_group_name_H-M "P B C N"
_symmetry_group_IT_number 60
_symmetry_cell_setting 'orthorhombic'
loop_
_space_group_symop_operation_xyz
x,y,z
1/2-x,1/2-y,1/2+z
1/2+x,1/2-y,-z
-x,y,1/2-z
-x,-y,-z
1/2+x,1/2+y,1/2-z
1/2-x,1/2+y,z
x,-y,1/2+z
loop_
_atom_site_type_symbol
_atom_site_label
_atom_site_fract_x
_atom_site_fract_y
_atom_site_fract_z
Si Si1 0.731146 0.316327 0.591896
Si Si2 0.717828 0.395735 0.318230
Si Si3 0.343938 0.684793 0.019047
Si Si4 0.344652 0.051902 0.485596
Si Si5 0.327849 0.564757 0.882399
Si Si6 0.803169 0.734640 0.286587
O O1 0.825079 0.254005 0.539921
O O2 0.546597 0.328923 0.540730
O O3 0.848696 0.383045 0.582810
O O4 0.693545 0.293831 0.698799
O O5 0.822625 0.417034 0.410131
O O6 0.769303 0.431423 0.219109
O O7 0.523246 0.417667 0.349579
O O8 0.724805 0.314962 0.302090
O O9 0.243523 0.696022 0.117222
O O10 0.272470 0.624664 0.953595
O O11 0.500000 0.000000 0.500000
O O12 0.194172 0.004968 0.438936
O O13 0.000000 0.726179 0.250000
#
# Coordination Sequence:
#
# PCOD9458301 Si02
#       6
#     8   8   8   8   8   8
#     4  12  26  46  72 113 147 198 259 316 394 458
#     4  11  22  49  75 103 143 200 253 301 387 459
#     4  12  24  44  78 110 151 198 262 321 380 466
#     4  12  29  47  72 110 156 198 249 324 388 465
#     4  11  24  46  78 102 143 201 246 304 382 465
#     4  12  24  45  76 112 150 199 258 324 379 451
#
# _framework density 22.445383
#
# number of rings (size 3 to 8) (size 9 to 14) (size 15 to 20)
#    0.000    0.333    6.667    2.000    4.667    2.000 
#    6.000    0.000    0.000    0.000    0.000    0.000 
#    0.000    0.000    0.000    0.000    0.000    0.000 
#
# Total GULP energy -268568.633344 kJ/mol
# GULP energy per Si atom -5595.179861 kJ/mol
# Density = 2.239430 g / cm^3
# Si number density = 22.445383 Si / 1000 Ang^3
#
#
#
# Elastic Constant Matrix: (Units=GPa)
#
#
# Indices 1 2 3 4 5 6 
#
# 1 46.3470 19.0635 22.6494 0.0000 0.0000 0.0000
# 2 19.0635 134.9627 52.3939 0.0000 0.0000 0.0000
# 3 22.6494 52.3939 162.8033 0.0000 0.0000 0.0000
# 4 0.0000 0.0000 0.0000 37.8859 0.0000 0.0000
# 5 0.0000 0.0000 0.0000 0.0000 32.0586 0.0000
# 6 0.0000 0.0000 0.0000 0.0000 0.0000 56.3765
#
#
#
# Elastic Compliance Matrix: (Units=1/GPa)
#
#
# Indices 1 2 3 4 5 6 
#
# 1 0.023797 -0.002373 -0.002547 0.000000 0.000000 0.000000
# 2 -0.002373 0.008704 -0.002471 0.000000 0.000000 0.000000
# 3 -0.002547 -0.002471 0.007292 0.000000 0.000000 0.000000
# 4 0.000000 0.000000 0.000000 0.026395 0.000000 0.000000
# 5 0.000000 0.000000 0.000000 0.000000 0.031193 0.000000
# 6 0.000000 0.000000 0.000000 0.000000 0.000000 0.017738
#
#
# Mechanical properties :
#
#
# Convention : Reuss Voigt Hill
#
# Bulk Modulus (GPa) = 39.98163 59.14738 49.56451
# Shear Modulus (GPa) = 36.16970 41.93127 39.05049
#
# Velocity S-wave (km/s) = 4.01865 4.32690 4.17562
# Velocity P-wave (km/s) = 6.27568 7.16740 6.73631
#
# Compressibility (1/GPa) = 0.02501148
#
# Stress axis : x y z
#
# Youngs Moduli (GPa) = 42.02206 114.89162 137.13695
#
# Poissons Ratio (x) = 0.27258 0.34931
# Poissons Ratio (y) = 0.09970 0.33887
# Poissons Ratio (z) = 0.10704 0.28390
#
# Static dielectric constant tensor:
#      x y z
#    x 1.945540 0.000000 0.000000 
#    y 0.000000 1.787580 0.000000 
#    z 0.000000 0.000000 1.877930 
# 
# From -- ./inp_files/15118.got.cif
#   From: 2010.05.17/outbox.cif.g08.bks.cpg/sg60_8_cif.got.tgz:15118.got - 2010.06.03 14:59:27.
