data_PCOD9458494
_publ_section_title
;
Structure prediction by ZEFSAII (Michael W. Deem and Ramdas Pophale) SiO2 
 PCOD9458494
Probable space group: P B C N
;
_chemical_formula_sum "Si O2"
_cell_formula_units_Z 32
_cell_length_a 14.962481
_cell_length_b 9.752850
_cell_length_c 7.417489
_cell_angle_alpha 90.000000
_cell_angle_beta 90.000000
_cell_angle_gamma 90.000000
_cell_volume 1082.410677
_symmetry_space_group_name_H-M "P B C N"
_symmetry_group_IT_number 60
_symmetry_cell_setting 'orthorhombic'
loop_
_space_group_symop_operation_xyz
x,y,z
1/2-x,1/2-y,1/2+z
1/2+x,1/2-y,-z
-x,y,1/2-z
-x,-y,-z
1/2+x,1/2+y,1/2-z
1/2-x,1/2+y,z
x,-y,1/2+z
loop_
_atom_site_type_symbol
_atom_site_label
_atom_site_fract_x
_atom_site_fract_y
_atom_site_fract_z
Si Si1 0.413757 0.829194 0.142074
Si Si2 0.597864 0.489540 0.909677
Si Si3 0.370738 0.782797 0.761477
Si Si4 0.726059 0.118210 0.579611
O O1 0.500000 0.873557 0.250000
O O2 0.402438 0.663995 0.175071
O O3 0.220332 0.742657 0.374211
O O4 0.330505 0.903111 0.239216
O O5 0.601144 0.629207 0.795482
O O6 0.500000 0.500000 0.000000
O O7 0.692786 0.480930 0.018137
O O8 0.345333 0.853643 0.576268
O O9 0.428400 0.843016 0.925975
#
# Coordination Sequence:
#
# PCOD9458494 Si02
#       4
#     8   8   8   8
#     4  11  26  44  73 111 156 208 265 328 409 481
#     4  11  26  43  74 119 159 205 273 337 399 479
#     4  11  24  45  67 109 155 208 268 327 405 478
#     4  11  24  45  68 106 163 208 258 335 409 470
#
# _framework density 29.563638999999998
#
# number of rings (size 3 to 8) (size 9 to 14) (size 15 to 20)
#    0.000    1.000    5.000    1.500   14.000    5.000 
#    0.000    0.000    0.000    1.500    6.500    0.000 
#    0.000    0.000    0.000    0.000    0.000    0.000 
#
# Total GULP energy -179092.722049 kJ/mol
# GULP energy per Si atom -5596.647564 kJ/mol
# Density = 2.949635 g / cm^3
# Si number density = 29.563639 Si / 1000 Ang^3
#
#
#
# Elastic Constant Matrix: (Units=GPa)
#
#
# Indices 1 2 3 4 5 6 
#
# 1 194.0985 52.8732 85.8595 0.0000 0.0000 0.0000
# 2 52.8732 120.8125 70.5677 0.0000 0.0000 0.0000
# 3 85.8595 70.5677 222.3786 0.0000 0.0000 0.0000
# 4 0.0000 0.0000 0.0000 22.6106 0.0000 0.0000
# 5 0.0000 0.0000 0.0000 0.0000 74.7438 0.0000
# 6 0.0000 0.0000 0.0000 0.0000 0.0000 32.8207
#
#
#
# Elastic Compliance Matrix: (Units=1/GPa)
#
#
# Indices 1 2 3 4 5 6 
#
# 1 0.006482 -0.001688 -0.001967 0.000000 0.000000 0.000000
# 2 -0.001688 0.010600 -0.002712 0.000000 0.000000 0.000000
# 3 -0.001967 -0.002712 0.006117 0.000000 0.000000 0.000000
# 4 0.000000 0.000000 0.000000 0.044227 0.000000 0.000000
# 5 0.000000 0.000000 0.000000 0.000000 0.013379 0.000000
# 6 0.000000 0.000000 0.000000 0.000000 0.000000 0.030469
#
#
# Mechanical properties :
#
#
# Convention : Reuss Voigt Hill
#
# Bulk Modulus (GPa) = 95.55605 106.21003 100.88304
# Shear Modulus (GPa) = 39.21695 47.90096 43.55896
#
# Velocity S-wave (km/s) = 3.64610 4.02962 3.84265
# Velocity P-wave (km/s) = 7.07939 7.59305 7.34071
#
# Compressibility (1/GPa) = 0.01046506
#
# Stress axis : x y z
#
# Youngs Moduli (GPa) = 154.27541 94.33860 163.48062
#
# Poissons Ratio (x) = 0.15923 0.32157
# Poissons Ratio (y) = 0.26039 0.44337
# Poissons Ratio (z) = 0.30347 0.25585
#
# Static dielectric constant tensor:
#      x y z
#    x 2.357010 0.000000 0.000000 
#    y 0.000000 2.304580 0.000000 
#    z 0.000000 0.000000 2.459400 
# 
# From -- ./inp_files/5476.got.cif
#   From: 2010.05.17/outbox.cif.g08.bks.cpg/sg60_3_cif.got.tgz:5476.got - 2010.06.03 14:59:27.
