data_PCOD9458745
_publ_section_title
;
Structure prediction by ZEFSAII (Michael W. Deem and Ramdas Pophale) SiO2 
 PCOD9458745
Probable space group: P B C N
;
_chemical_formula_sum "Si O2"
_cell_formula_units_Z 28
_cell_length_a 7.235047
_cell_length_b 12.180205
_cell_length_c 14.578897
_cell_angle_alpha 90.000000
_cell_angle_beta 90.000000
_cell_angle_gamma 90.000000
_cell_volume 1284.755904
_symmetry_space_group_name_H-M "P B C N"
_symmetry_group_IT_number 60
_symmetry_cell_setting 'orthorhombic'
loop_
_space_group_symop_operation_xyz
x,y,z
1/2-x,1/2-y,1/2+z
1/2+x,1/2-y,-z
-x,y,1/2-z
-x,-y,-z
1/2+x,1/2+y,1/2-z
1/2-x,1/2+y,z
x,-y,1/2+z
loop_
_atom_site_type_symbol
_atom_site_label
_atom_site_fract_x
_atom_site_fract_y
_atom_site_fract_z
Si Si1 0.500000 0.855166 0.750000
Si Si2 0.421692 0.381218 0.024934
Si Si3 0.949029 0.458949 0.397619
Si Si4 0.759987 0.728081 0.629730
O O1 0.674868 0.782152 0.720219
O O2 0.554235 0.934762 0.833602
O O3 0.246685 0.399042 0.091100
O O4 0.581769 0.313221 0.073517
O O5 0.500000 0.500000 0.000000
O O6 0.358268 0.318949 0.933312
O O7 0.000000 0.500000 0.500000
O O8 0.102041 0.374117 0.360546
#
# Coordination Sequence:
#
# PCOD9458745 Si02
#       4
#     4   8   8   8
#     4  12  28  46  72 118 152 194 262 310 382 462
#     4  12  24  46  80 104 144 200 253 308 380 454
#     4  12  25  51  73 108 155 196 251 317 379 458
#     4  12  25  47  75 111 147 200 251 310 386 450
#
# _framework density 21.794021000000001
#
# number of rings (size 3 to 8) (size 9 to 14) (size 15 to 20)
#    0.000    0.000    8.571    0.000    4.000    0.000 
#    0.000    2.857    0.000    0.000    0.000    0.000 
#    0.000    0.000    0.000    0.000    0.000    0.000 
#
# Total GULP energy -156941.751312 kJ/mol
# GULP energy per Si atom -5605.062547 kJ/mol
# Density = 2.174442 g / cm^3
# Si number density = 21.794021 Si / 1000 Ang^3
#
#
#
# Elastic Constant Matrix: (Units=GPa)
#
#
# Indices 1 2 3 4 5 6 
#
# 1 142.7073 69.2313 41.0817 0.0000 0.0000 0.0000
# 2 69.2313 155.1848 68.4657 0.0000 0.0000 0.0000
# 3 41.0817 68.4657 112.8545 0.0000 0.0000 0.0000
# 4 0.0000 0.0000 0.0000 58.3919 0.0000 0.0000
# 5 0.0000 0.0000 0.0000 0.0000 34.3499 0.0000
# 6 0.0000 0.0000 0.0000 0.0000 0.0000 62.5622
#
#
#
# Elastic Compliance Matrix: (Units=1/GPa)
#
#
# Indices 1 2 3 4 5 6 
#
# 1 0.009052 -0.003529 -0.001154 0.000000 0.000000 0.000000
# 2 -0.003529 0.010175 -0.004888 0.000000 0.000000 0.000000
# 3 -0.001154 -0.004888 0.012247 0.000000 0.000000 0.000000
# 4 0.000000 0.000000 0.000000 0.017126 0.000000 0.000000
# 5 0.000000 0.000000 0.000000 0.000000 0.029112 0.000000
# 6 0.000000 0.000000 0.000000 0.000000 0.000000 0.015984
#
#
# Mechanical properties :
#
#
# Convention : Reuss Voigt Hill
#
# Bulk Modulus (GPa) = 81.09884 85.36712 83.23298
# Shear Modulus (GPa) = 42.75418 46.52532 44.63975
#
# Velocity S-wave (km/s) = 4.43396 4.62537 4.53068
# Velocity P-wave (km/s) = 7.96904 8.23289 8.10204
#
# Compressibility (1/GPa) = 0.01233063
#
# Stress axis : x y z
#
# Youngs Moduli (GPa) = 110.47816 98.28117 81.65516
#
# Poissons Ratio (x) = 0.34683 0.09424
# Poissons Ratio (y) = 0.38987 0.39915
# Poissons Ratio (z) = 0.12750 0.48042
#
# Static dielectric constant tensor:
#      x y z
#    x 1.833040 0.000000 0.000000 
#    y 0.000000 1.775470 0.000000 
#    z 0.000000 0.000000 1.847080 
# 
# From -- ./inp_files/14240.got.cif
#   From: 2010.05.17/outbox.cif.g08.bks.cpg/sg60_8_cif.got.tgz:14240.got - 2010.06.03 14:59:27.
