data_PCOD9458877
_publ_section_title
;
Structure prediction by ZEFSAII (Michael W. Deem and Ramdas Pophale) SiO2 
 PCOD9458877
Probable space group: P B C N
;
_chemical_formula_sum "Si O2"
_cell_formula_units_Z 52
_cell_length_a 21.000000
_cell_length_b 9.000000
_cell_length_c 15.000000
_cell_angle_alpha 90.000000
_cell_angle_beta 90.000000
_cell_angle_gamma 90.000000
_cell_volume 2835.000000
_symmetry_space_group_name_H-M "P B C N"
_symmetry_group_IT_number 60
_symmetry_cell_setting 'orthorhombic'
loop_
_space_group_symop_operation_xyz
x,y,z
1/2-x,1/2-y,1/2+z
1/2+x,1/2-y,-z
-x,y,1/2-z
-x,-y,-z
1/2+x,1/2+y,1/2-z
1/2-x,1/2+y,z
x,-y,1/2+z
loop_
_atom_site_type_symbol
_atom_site_label
_atom_site_fract_x
_atom_site_fract_y
_atom_site_fract_z
Si Si1 0.709445 0.832909 0.300537
Si Si2 0.394464 0.593619 0.151756
Si Si3 0.644128 0.670885 0.731744
Si Si4 0.331415 0.411143 0.463892
Si Si5 0.000000 0.697555 0.750000
Si Si6 0.199520 0.427461 0.999021
Si Si7 0.616523 0.003952 0.667095
O O1 0.670735 0.679095 0.317066
O O2 0.783656 0.813343 0.272901
O O3 0.697225 0.926769 0.392453
O O4 0.672872 0.914122 0.220772
O O5 0.394465 0.432598 0.199002
O O6 0.382959 0.573510 0.044634
O O7 0.453765 0.697402 0.186819
O O8 0.644692 0.580759 0.637735
O O9 0.616387 0.834208 0.706109
O O10 0.304843 0.244597 0.473588
O O11 0.269644 0.513834 0.475664
O O12 0.050673 0.593525 0.807159
O O13 0.143003 0.498698 0.936490
#
# Coordination Sequence:
#
# PCOD9458877 Si02
#       7
#     8   8   8   8   4   8   8
#     4  10  19  34  58  92 124 154 194 256 326 366
#     4  10  22  39  59  87 124 166 203 255 301 370
#     4  11  20  34  61  92 124 150 206 263 317 360
#     4  10  21  34  56  93 127 150 197 251 316 370
#     4  10  24  46  62  78 128 178 222 240 302 374
#     4  10  20  33  55  89 126 152 193 253 315 367
#     4  10  22  38  59  88 121 171 204 253 301 374
#
# _framework density 18.342151999999999
#
# number of rings (size 3 to 8) (size 9 to 14) (size 15 to 20)
#    0.000    1.846    3.077    0.923    4.308    0.615 
#    0.000   13.077    0.000    0.000    0.000    0.000 
#    0.000    0.000    0.000    0.000    0.000    0.000 
#
# Total GULP energy -289780.657901 kJ/mol
# GULP energy per Si atom -5572.704960 kJ/mol
# Density = 1.830040 g / cm^3
# Si number density = 18.342152 Si / 1000 Ang^3
#
#
#
# Elastic Constant Matrix: (Units=GPa)
#
#
# Indices 1 2 3 4 5 6 
#
# 1 99.7292 22.8000 27.5972 0.0000 0.0000 0.0000
# 2 22.8000 43.5241 6.9780 0.0000 0.0000 0.0000
# 3 27.5972 6.9780 110.2038 0.0000 0.0000 0.0000
# 4 0.0000 0.0000 0.0000 30.0073 0.0000 0.0000
# 5 0.0000 0.0000 0.0000 0.0000 30.8709 0.0000
# 6 0.0000 0.0000 0.0000 0.0000 0.0000 33.0560
#
#
#
# Elastic Compliance Matrix: (Units=1/GPa)
#
#
# Indices 1 2 3 4 5 6 
#
# 1 0.012117 -0.005921 -0.002659 0.000000 0.000000 0.000000
# 2 -0.005921 0.026105 -0.000170 0.000000 0.000000 0.000000
# 3 -0.002659 -0.000170 0.009751 0.000000 0.000000 0.000000
# 4 0.000000 0.000000 0.000000 0.033325 0.000000 0.000000
# 5 0.000000 0.000000 0.000000 0.000000 0.032393 0.000000
# 6 0.000000 0.000000 0.000000 0.000000 0.000000 0.030252
#
#
# Mechanical properties :
#
#
# Convention : Reuss Voigt Hill
#
# Bulk Modulus (GPa) = 32.81779 40.91192 36.86486
# Shear Modulus (GPa) = 29.13749 31.85896 30.49822
#
# Velocity S-wave (km/s) = 3.98999 4.17217 4.08209
# Velocity P-wave (km/s) = 6.25760 6.75001 6.50846
#
# Compressibility (1/GPa) = 0.03047127
#
# Stress axis : x y z
#
# Youngs Moduli (GPa) = 82.53085 38.30725 102.55539
#
# Poissons Ratio (x) = 0.22681 0.27273
# Poissons Ratio (y) = 0.48866 0.01746
# Poissons Ratio (z) = 0.21948 0.00652
#
# Static dielectric constant tensor:
#      x y z
#    x 1.615030 0.000000 0.000000 
#    y 0.000000 1.666850 0.000000 
#    z 0.000000 0.000000 1.693870 
# 
# From -- ./inp_files/17663.got.cif
#   From: 2010.05.17/outbox.ucp.g08.bks.cvg/sg60_9_cif.got.tgz:17663.got - 2010.06.11 16:26:41.
