data_PCOD9458237
_publ_section_title
;
Structure prediction by ZEFSAII (Michael W. Deem and Ramdas Pophale) SiO2 
 PCOD9458237
Probable space group: P B C N
;
_chemical_formula_sum "Si O2"
_cell_formula_units_Z 40
_cell_length_a 10.408359
_cell_length_b 18.491780
_cell_length_c 8.456457
_cell_angle_alpha 90.000000
_cell_angle_beta 90.000000
_cell_angle_gamma 90.000000
_cell_volume 1627.606539
_symmetry_space_group_name_H-M "P B C N"
_symmetry_group_IT_number 60
_symmetry_cell_setting 'orthorhombic'
loop_
_space_group_symop_operation_xyz
x,y,z
1/2-x,1/2-y,1/2+z
1/2+x,1/2-y,-z
-x,y,1/2-z
-x,-y,-z
1/2+x,1/2+y,1/2-z
1/2-x,1/2+y,z
x,-y,1/2+z
loop_
_atom_site_type_symbol
_atom_site_label
_atom_site_fract_x
_atom_site_fract_y
_atom_site_fract_z
Si Si1 0.141116 0.809193 0.708330
Si Si2 0.805218 0.511389 0.443044
Si Si3 0.365769 0.526030 0.315803
Si Si4 0.610124 0.259563 0.129174
Si Si5 0.005302 0.619671 0.558649
O O1 0.139684 0.887555 0.791350
O O2 0.260443 0.763221 0.776874
O O3 0.144714 0.811400 0.517620
O O4 0.000000 0.778749 0.750000
O O5 0.770887 0.502980 0.259452
O O6 0.661887 0.503450 0.511244
O O7 0.891758 0.442715 0.479319
O O8 0.875535 0.585391 0.486279
O O9 0.500000 0.498925 0.250000
O O10 0.500000 0.286600 0.250000
O O11 0.549676 0.189542 0.039633
O O12 0.000000 0.626632 0.750000
#
# Coordination Sequence:
#
# PCOD9458237 Si02
#       5
#     8   8   8   8   8
#     4  11  25  45  68 101 142 187 236 287 352 420
#     4  11  22  41  65 104 134 180 228 286 351 402
#     4  11  23  42  65  95 143 187 226 281 346 427
#     4  12  25  46  73 100 137 186 236 297 350 420
#     4  11  23  39  71 103 139 172 229 295 351 407
#
# _framework density 24.575963000000002
#
# number of rings (size 3 to 8) (size 9 to 14) (size 15 to 20)
#    0.000    0.800    4.000    3.600    0.000    1.600 
#    0.000    1.000    0.000    0.000    0.000    0.000 
#    0.000    0.000    0.000    0.000    0.000    0.000 
#
# Total GULP energy -223507.712271 kJ/mol
# GULP energy per Si atom -5587.692807 kJ/mol
# Density = 2.452003 g / cm^3
# Si number density = 24.575963 Si / 1000 Ang^3
#
#
#
# Elastic Constant Matrix: (Units=GPa)
#
#
# Indices 1 2 3 4 5 6 
#
# 1 157.2099 16.0357 51.9223 0.0000 0.0000 0.0000
# 2 16.0357 61.7249 -7.5080 0.0000 0.0000 0.0000
# 3 51.9223 -7.5080 97.7440 0.0000 0.0000 0.0000
# 4 0.0000 0.0000 0.0000 21.2614 0.0000 0.0000
# 5 0.0000 0.0000 0.0000 0.0000 64.4860 0.0000
# 6 0.0000 0.0000 0.0000 0.0000 0.0000 2.1784
#
#
#
# Elastic Compliance Matrix: (Units=1/GPa)
#
#
# Indices 1 2 3 4 5 6 
#
# 1 0.008125 -0.002661 -0.004521 0.000000 0.000000 0.000000
# 2 -0.002661 0.017225 0.002737 0.000000 0.000000 0.000000
# 3 -0.004521 0.002737 0.012842 0.000000 0.000000 0.000000
# 4 0.000000 0.000000 0.000000 0.047034 0.000000 0.000000
# 5 0.000000 0.000000 0.000000 0.000000 0.015507 0.000000
# 6 0.000000 0.000000 0.000000 0.000000 0.000000 0.459056
#
#
# Mechanical properties :
#
#
# Convention : Reuss Voigt Hill
#
# Bulk Modulus (GPa) = 34.12617 48.61986 41.37302
# Shear Modulus (GPa) = 8.64383 34.66708 21.65546
#
# Velocity S-wave (km/s) = 1.87745 3.75988 2.97166
# Velocity P-wave (km/s) = 4.31462 6.21896 5.35216
#
# Compressibility (1/GPa) = 0.02930302
#
# Stress axis : x y z
#
# Youngs Moduli (GPa) = 123.07123 58.05501 77.86710
#
# Poissons Ratio (x) = 0.15447 0.35201
# Poissons Ratio (y) = 0.32747 -0.21309
# Poissons Ratio (z) = 0.55636 -0.15887
#
# Static dielectric constant tensor:
#      x y z
#    x 1.941820 0.000000 0.000000 
#    y 0.000000 1.932430 0.000000 
#    z 0.000000 0.000000 1.933650 
# 
# From -- ./inp_files/3869.got.cif
#   From: 2010.05.17/outbox.cif.g08.bks.cpg/sg60_2_cif.got.tgz:3869.got - 2010.06.03 14:59:27.
