data_PCOD9458253
_publ_section_title
;
Structure prediction by ZEFSAII (Michael W. Deem and Ramdas Pophale) SiO2 
 PCOD9458253
Probable space group: P B C N
;
_chemical_formula_sum "Si O2"
_cell_formula_units_Z 64
_cell_length_a 17.308529
_cell_length_b 9.016917
_cell_length_c 19.072548
_cell_angle_alpha 90.000000
_cell_angle_beta 90.000000
_cell_angle_gamma 90.000000
_cell_volume 2976.644353
_symmetry_space_group_name_H-M "P B C N"
_symmetry_group_IT_number 60
_symmetry_cell_setting 'orthorhombic'
loop_
_space_group_symop_operation_xyz
x,y,z
1/2-x,1/2-y,1/2+z
1/2+x,1/2-y,-z
-x,y,1/2-z
-x,-y,-z
1/2+x,1/2+y,1/2-z
1/2-x,1/2+y,z
x,-y,1/2+z
loop_
_atom_site_type_symbol
_atom_site_label
_atom_site_fract_x
_atom_site_fract_y
_atom_site_fract_z
Si Si1 0.918427 0.508147 0.119740
Si Si2 0.712749 0.763631 0.770903
Si Si3 0.356747 0.910112 0.239920
Si Si4 0.310212 0.994389 0.001102
Si Si5 0.064870 0.338863 0.093820
Si Si6 0.177389 0.184160 0.571095
Si Si7 0.436670 0.677878 0.812191
Si Si8 0.024295 0.999611 0.580687
O O1 0.911524 0.427115 0.193957
O O2 0.940818 0.675574 0.139165
O O3 0.984743 0.422519 0.077815
O O4 0.836548 0.503988 0.079617
O O5 0.797780 0.722912 0.746011
O O6 0.712212 0.710419 0.851665
O O7 0.646597 0.680970 0.725574
O O8 0.691498 0.936484 0.766501
O O9 0.403134 0.893302 0.168378
O O10 0.371979 0.884283 0.036848
O O11 0.227512 0.930684 0.024630
O O12 0.321919 0.158014 0.032454
O O13 0.054095 0.163959 0.097310
O O14 0.093024 0.118828 0.585420
O O15 0.500000 0.686434 0.750000
O O16 0.458085 0.544560 0.864118
O O17 0.000000 0.000000 0.500000
#
# Coordination Sequence:
#
# PCOD9458253 Si02
#       8
#     8   8   8   8   8   8   8   8
#     4  11  25  44  65 100 136 172 225 280 342 407
#     4  11  22  42  67  94 131 173 228 275 328 408
#     4  11  25  41  68  98 130 176 221 277 333 399
#     4  12  25  42  72  96 134 180 217 279 345 405
#     4  12  23  43  67  97 134 178 223 276 335 410
#     4  12  23  44  67  94 133 173 228 268 338 410
#     4  11  23  44  71  95 134 185 224 280 345 404
#     4  12  27  43  68 105 138 177 231 285 341 407
#
# _framework density 21.500720999999999
#
# number of rings (size 3 to 8) (size 9 to 14) (size 15 to 20)
#    0.000    0.500    3.750    5.250    1.750    5.000 
#    0.000    0.000    0.000    0.000    0.000    0.000 
#    0.000    0.000    0.000    0.000    0.000    0.000 
#
# Total GULP energy -358137.293427 kJ/mol
# GULP energy per Si atom -5595.895210 kJ/mol
# Density = 2.145178 g / cm^3
# Si number density = 21.500721 Si / 1000 Ang^3
#
#
#
# Elastic Constant Matrix: (Units=GPa)
#
#
# Indices 1 2 3 4 5 6 
#
# 1 43.9952 9.7232 -4.5026 0.0000 0.0000 0.0000
# 2 9.7232 88.7678 18.4761 0.0000 0.0000 0.0000
# 3 -4.5026 18.4761 57.2546 0.0000 0.0000 0.0000
# 4 0.0000 0.0000 0.0000 2.3767 0.0000 0.0000
# 5 0.0000 0.0000 0.0000 0.0000 39.8000 0.0000
# 6 0.0000 0.0000 0.0000 0.0000 0.0000 40.2657
#
#
#
# Elastic Compliance Matrix: (Units=1/GPa)
#
#
# Indices 1 2 3 4 5 6 
#
# 1 0.023735 -0.003203 0.002900 0.000000 0.000000 0.000000
# 2 -0.003203 0.012509 -0.004289 0.000000 0.000000 0.000000
# 3 0.002900 -0.004289 0.019078 0.000000 0.000000 0.000000
# 4 0.000000 0.000000 0.000000 0.420746 0.000000 0.000000
# 5 0.000000 0.000000 0.000000 0.000000 0.025126 0.000000
# 6 0.000000 0.000000 0.000000 0.000000 0.000000 0.024835
#
#
# Mechanical properties :
#
#
# Convention : Reuss Voigt Hill
#
# Bulk Modulus (GPa) = 21.67417 26.37900 24.02658
# Shear Modulus (GPa) = 9.08116 27.57655 18.32885
#
# Velocity S-wave (km/s) = 2.05738 3.58521 2.92289
# Velocity P-wave (km/s) = 3.96816 5.42529 4.75290
#
# Compressibility (1/GPa) = 0.04613787
#
# Stress axis : x y z
#
# Youngs Moduli (GPa) = 42.13264 79.94346 52.41685
#
# Poissons Ratio (x) = 0.25609 -0.15202
# Poissons Ratio (y) = 0.13497 0.22479
# Poissons Ratio (z) = -0.12220 0.34284
#
# Static dielectric constant tensor:
#      x y z
#    x 1.785850 0.000000 0.000000 
#    y 0.000000 1.774190 0.000000 
#    z 0.000000 0.000000 1.779960 
# 
# From -- ./inp_files/23089.got.cif
#   From: 2010.05.17/outbox.cif.g08.bks.cpg/sg60_12_cif.got.tgz:23089.got - 2010.06.03 14:59:27.
