data_PCOD9458833
_publ_section_title
;
Structure prediction by ZEFSAII (Michael W. Deem and Ramdas Pophale) SiO2 
 PCOD9458833
Probable space group: P B C N
;
_chemical_formula_sum "Si O2"
_cell_formula_units_Z 36
_cell_length_a 5.095487
_cell_length_b 13.553562
_cell_length_c 20.142947
_cell_angle_alpha 90.000000
_cell_angle_beta 90.000000
_cell_angle_gamma 90.000000
_cell_volume 1391.112185
_symmetry_space_group_name_H-M "P B C N"
_symmetry_group_IT_number 60
_symmetry_cell_setting 'orthorhombic'
loop_
_space_group_symop_operation_xyz
x,y,z
1/2-x,1/2-y,1/2+z
1/2+x,1/2-y,-z
-x,y,1/2-z
-x,-y,-z
1/2+x,1/2+y,1/2-z
1/2-x,1/2+y,z
x,-y,1/2+z
loop_
_atom_site_type_symbol
_atom_site_label
_atom_site_fract_x
_atom_site_fract_y
_atom_site_fract_z
Si Si1 0.051640 0.690963 0.055986
Si Si2 0.403334 0.545521 0.680523
Si Si3 0.114113 0.906106 0.462144
Si Si4 0.000000 0.659122 0.750000
Si Si5 0.056510 0.826976 0.851315
O O1 0.011823 0.798806 0.025577
O O2 0.104921 0.614174 0.996247
O O3 0.806735 0.658982 0.101141
O O4 0.300834 0.699645 0.105182
O O5 0.500000 0.590894 0.750000
O O6 0.551955 0.580607 0.615142
O O7 0.461956 0.429891 0.680319
O O8 0.108331 0.583967 0.691978
O O9 0.000000 0.000000 0.500000
O O10 0.131058 0.742517 0.798668
#
# Coordination Sequence:
#
# PCOD9458833 Si02
#       5
#     8   8   8   4   8
#     4  12  28  55  82 125 176 223 291 363 435 519
#     4  12  28  51  84 126 167 234 289 359 441 524
#     4  12  27  53  85 126 169 232 287 359 437 525
#     4  12  28  54  88 126 186 226 300 362 444 526
#     4  12  28  54  87 124 174 232 289 362 437 523
#
# _framework density 25.878575000000001
#
# number of rings (size 3 to 8) (size 9 to 14) (size 15 to 20)
#    0.000    0.000    5.556    2.667    3.111    0.889 
#    8.000    0.000    0.000    0.000    0.000    0.000 
#    0.000    0.000    0.000    0.000    0.000    0.000 
#
# Total GULP energy -201022.994897 kJ/mol
# GULP energy per Si atom -5583.972080 kJ/mol
# Density = 2.581967 g / cm^3
# Si number density = 25.878575 Si / 1000 Ang^3
#
#
#
# Elastic Constant Matrix: (Units=GPa)
#
#
# Indices 1 2 3 4 5 6 
#
# 1 114.2123 58.4274 62.5825 0.0000 0.0000 0.0000
# 2 58.4274 214.9016 80.0762 0.0000 0.0000 0.0000
# 3 62.5825 80.0762 209.3605 0.0000 0.0000 0.0000
# 4 0.0000 0.0000 0.0000 46.5676 0.0000 0.0000
# 5 0.0000 0.0000 0.0000 0.0000 -1.3309 0.0000
# 6 0.0000 0.0000 0.0000 0.0000 0.0000 38.4400
#
#
#
# Elastic Compliance Matrix: (Units=1/GPa)
#
#
# Indices 1 2 3 4 5 6 
#
# 1 0.011230 -0.002102 -0.002553 0.000000 0.000000 0.000000
# 2 -0.002102 0.005820 -0.001598 0.000000 0.000000 0.000000
# 3 -0.002553 -0.001598 0.006151 0.000000 0.000000 0.000000
# 4 0.000000 0.000000 0.000000 0.021474 0.000000 0.000000
# 5 0.000000 0.000000 0.000000 0.000000 -0.751398 0.000000
# 6 0.000000 0.000000 0.000000 0.000000 0.000000 0.026015
#
#
# Mechanical properties :
#
#
# Convention : Reuss Voigt Hill
#
# Bulk Modulus (GPa) = 93.49786 104.51628 99.00707
# Shear Modulus (GPa) = -7.52289 39.22789 15.85250
#
# Velocity S-wave (km/s) = -1.70684 3.89761 2.47770
# Velocity P-wave (km/s) = 5.68537 7.79295 6.82105
#
# Compressibility (1/GPa) = 0.01069543
#
# Stress axis : x y z
#
# Youngs Moduli (GPa) = 89.04928 171.81799 162.58355
#
# Poissons Ratio (x) = 0.36114 0.41506
# Poissons Ratio (y) = 0.18717 0.25977
# Poissons Ratio (z) = 0.22733 0.27453
#
# Static dielectric constant tensor:
#      x y z
#    x 0.210580 0.000000 0.000000 
#    y 0.000000 1.983370 0.000000 
#    z 0.000000 0.000000 2.078990 
# 
# From -- ./inp_files/23462.got.cif
#   From: 2010.05.17/outbox.cif.g08.bks.cpg/sg60_12_cif.got.tgz:23462.got - 2010.06.03 14:59:27.
