data_PCOD9458507
_publ_section_title
;
Structure prediction by ZEFSAII (Michael W. Deem and Ramdas Pophale) SiO2 
 PCOD9458507
Probable space group: P B C N
;
_chemical_formula_sum "Si O2"
_cell_formula_units_Z 48
_cell_length_a 8.219282
_cell_length_b 15.221417
_cell_length_c 16.816539
_cell_angle_alpha 90.000000
_cell_angle_beta 90.000000
_cell_angle_gamma 90.000000
_cell_volume 2103.902375
_symmetry_space_group_name_H-M "P B C N"
_symmetry_group_IT_number 60
_symmetry_cell_setting 'orthorhombic'
loop_
_space_group_symop_operation_xyz
x,y,z
1/2-x,1/2-y,1/2+z
1/2+x,1/2-y,-z
-x,y,1/2-z
-x,-y,-z
1/2+x,1/2+y,1/2-z
1/2-x,1/2+y,z
x,-y,1/2+z
loop_
_atom_site_type_symbol
_atom_site_label
_atom_site_fract_x
_atom_site_fract_y
_atom_site_fract_z
Si Si1 0.000000 0.500000 0.000000
Si Si2 0.000000 0.373436 0.750000
Si Si3 0.415375 0.591460 0.089646
Si Si4 0.775815 0.740595 0.363258
Si Si5 0.500000 0.480700 0.750000
Si Si6 0.798945 0.098027 0.973202
Si Si7 0.500000 0.181398 0.750000
Si Si8 0.311676 0.970145 0.338000
O O1 0.135806 0.522057 0.929228
O O2 0.894808 0.590042 0.981472
O O3 0.090727 0.311088 0.687653
O O4 0.115604 0.441259 0.797600
O O5 0.292994 0.670505 0.072674
O O6 0.415380 0.579388 0.184298
O O7 0.349908 0.497915 0.060052
O O8 0.590116 0.611131 0.051238
O O9 0.836770 0.826871 0.408846
O O10 0.627030 0.767318 0.305227
O O11 0.372407 0.533255 0.804809
O O12 0.603441 0.115940 0.695428
#
# Coordination Sequence:
#
# PCOD9458507 Si02
#       8
#     4   4   8   8   4   8   4   8
#     4  12  22  44  72 108 140 198 246 314 394 462
#     4  11  26  45  72 102 146 200 247 317 384 478
#     4  11  25  47  70 101 146 197 242 313 388 464
#     4  12  25  45  72 111 148 196 260 317 387 480
#     4  12  21  43  77 101 138 204 251 305 387 477
#     4  11  26  47  70 106 150 190 249 320 392 469
#     4  11  25  44  69 109 140 188 256 322 367 471
#     4  11  24  45  76 101 149 200 255 315 397 466
#
# _framework density 22.814746
#
# number of rings (size 3 to 8) (size 9 to 14) (size 15 to 20)
#    0.000    0.667    5.000    2.500    0.000    5.333 
#    0.000    0.000    0.000    0.000    0.000    0.000 
#    0.000    0.000    0.000    0.000    0.000    0.000 
#
# Total GULP energy -267206.117892 kJ/mol
# GULP energy per Si atom -5566.794123 kJ/mol
# Density = 2.276282 g / cm^3
# Si number density = 22.814746 Si / 1000 Ang^3
#
#
#
# Elastic Constant Matrix: (Units=GPa)
#
#
# Indices 1 2 3 4 5 6 
#
# 1 106.6613 44.7969 47.5027 0.0000 0.0000 0.0000
# 2 44.7969 108.4481 22.5195 0.0000 0.0000 0.0000
# 3 47.5027 22.5195 101.5613 0.0000 0.0000 0.0000
# 4 0.0000 0.0000 0.0000 18.7431 0.0000 0.0000
# 5 0.0000 0.0000 0.0000 0.0000 50.8076 0.0000
# 6 0.0000 0.0000 0.0000 0.0000 0.0000 -77.4491
#
#
#
# Elastic Compliance Matrix: (Units=1/GPa)
#
#
# Indices 1 2 3 4 5 6 
#
# 1 0.013681 -0.004531 -0.005394 0.000000 0.000000 0.000000
# 2 -0.004531 0.011167 -0.000357 0.000000 0.000000 0.000000
# 3 -0.005394 -0.000357 0.012448 0.000000 0.000000 0.000000
# 4 0.000000 0.000000 0.000000 0.053353 0.000000 0.000000
# 5 0.000000 0.000000 0.000000 0.000000 0.019682 0.000000
# 6 0.000000 0.000000 0.000000 0.000000 0.000000 -0.012912
#
#
# Mechanical properties :
#
#
# Convention : Reuss Voigt Hill
#
# Bulk Modulus (GPa) = 59.76584 60.70098 60.23341
# Shear Modulus (GPa) = 40.46596 11.87707 26.17152
#
# Velocity S-wave (km/s) = 4.21607 2.28411 3.39061
# Velocity P-wave (km/s) = 7.06777 5.79828 6.46426
#
# Compressibility (1/GPa) = 0.01673197
#
# Stress axis : x y z
#
# Youngs Moduli (GPa) = 73.09508 89.55176 80.33187
#
# Poissons Ratio (x) = 0.40576 0.43332
# Poissons Ratio (y) = 0.33120 0.02866
# Poissons Ratio (z) = 0.39429 0.03195
#
# Static dielectric constant tensor:
#      x y z
#    x 2.104720 0.000000 0.000000 
#    y 0.000000 1.842440 0.000000 
#    z 0.000000 0.000000 1.889730 
# 
# From -- ./inp_files/19387.got.cif
#   From: 2010.05.17/outbox.cif.g08.bks.cpg/sg60_10_cif.got.tgz:19387.got - 2010.06.03 14:59:27.
