data_PCOD9458734
_publ_section_title
;
Structure prediction by ZEFSAII (Michael W. Deem and Ramdas Pophale) SiO2 
 PCOD9458734
Probable space group: P B C N
;
_chemical_formula_sum "Si O2"
_cell_formula_units_Z 40
_cell_length_a 21.935477
_cell_length_b 9.504565
_cell_length_c 8.319227
_cell_angle_alpha 90.000000
_cell_angle_beta 90.000000
_cell_angle_gamma 90.000000
_cell_volume 1734.452068
_symmetry_space_group_name_H-M "P B C N"
_symmetry_group_IT_number 60
_symmetry_cell_setting 'orthorhombic'
loop_
_space_group_symop_operation_xyz
x,y,z
1/2-x,1/2-y,1/2+z
1/2+x,1/2-y,-z
-x,y,1/2-z
-x,-y,-z
1/2+x,1/2+y,1/2-z
1/2-x,1/2+y,z
x,-y,1/2+z
loop_
_atom_site_type_symbol
_atom_site_label
_atom_site_fract_x
_atom_site_fract_y
_atom_site_fract_z
Si Si1 0.824189 0.956165 0.290530
Si Si2 0.817138 0.545152 0.796071
Si Si3 0.869971 0.206191 0.475754
Si Si4 0.366814 0.796727 0.515498
Si Si5 0.998842 0.338261 0.557151
O O1 0.753254 0.994773 0.280171
O O2 0.847236 0.875174 0.133458
O O3 0.832693 0.844465 0.435185
O O4 0.862570 0.094164 0.332263
O O5 0.827614 0.660113 0.936215
O O6 0.857028 0.409221 0.839641
O O7 0.839653 0.623880 0.637214
O O8 0.938253 0.262593 0.495099
O O9 0.561592 0.770197 0.004246
O O10 0.000000 0.332653 0.750000
O O11 0.000000 0.500000 0.500000
#
# Coordination Sequence:
#
# PCOD9458734 Si02
#       5
#     8   8   8   8   8
#     4  12  25  46  69 109 149 188 239 299 374 436
#     4  12  24  44  74 107 144 192 242 299 363 441
#     4  12  27  47  73 105 150 196 241 304 367 435
#     4  12  25  44  75 106 142 191 244 301 359 431
#     4  12  25  50  76 103 142 188 253 300 356 441
#
# _framework density 23.062038000000001
#
# number of rings (size 3 to 8) (size 9 to 14) (size 15 to 20)
#    0.000    0.000    4.000    7.200    0.000    0.800 
#    0.000    0.000    0.000    0.000    0.000    0.000 
#    0.000    0.000    0.000    0.000    0.000    0.000 
#
# Total GULP energy -224387.585304 kJ/mol
# GULP energy per Si atom -5609.689633 kJ/mol
# Density = 2.300955 g / cm^3
# Si number density = 23.062038 Si / 1000 Ang^3
#
#
#
# Elastic Constant Matrix: (Units=GPa)
#
#
# Indices 1 2 3 4 5 6 
#
# 1 148.0583 7.4925 18.0341 0.0000 0.0000 0.0000
# 2 7.4925 89.0041 7.8356 0.0000 0.0000 0.0000
# 3 18.0341 7.8356 70.9336 0.0000 0.0000 0.0000
# 4 0.0000 0.0000 0.0000 43.7836 0.0000 0.0000
# 5 0.0000 0.0000 0.0000 0.0000 35.6636 0.0000
# 6 0.0000 0.0000 0.0000 0.0000 0.0000 19.5957
#
#
#
# Elastic Compliance Matrix: (Units=1/GPa)
#
#
# Indices 1 2 3 4 5 6 
#
# 1 0.006987 -0.000436 -0.001728 0.000000 0.000000 0.000000
# 2 -0.000436 0.011373 -0.001145 0.000000 0.000000 0.000000
# 3 -0.001728 -0.001145 0.014664 0.000000 0.000000 0.000000
# 4 0.000000 0.000000 0.000000 0.022840 0.000000 0.000000
# 5 0.000000 0.000000 0.000000 0.000000 0.028040 0.000000
# 6 0.000000 0.000000 0.000000 0.000000 0.000000 0.051032
#
#
# Mechanical properties :
#
#
# Convention : Reuss Voigt Hill
#
# Bulk Modulus (GPa) = 37.87297 41.63558 39.75428
# Shear Modulus (GPa) = 33.25467 38.11749 35.68608
#
# Velocity S-wave (km/s) = 3.80144 4.06990 3.93796
# Velocity P-wave (km/s) = 5.97711 6.33865 6.16053
#
# Compressibility (1/GPa) = 0.02640406
#
# Stress axis : x y z
#
# Youngs Moduli (GPa) = 143.13007 87.92764 68.19623
#
# Poissons Ratio (x) = 0.03834 0.11785
# Poissons Ratio (y) = 0.06241 0.07812
# Poissons Ratio (z) = 0.24734 0.10072
#
# Static dielectric constant tensor:
#      x y z
#    x 1.668840 0.000000 0.000000 
#    y 0.000000 1.833730 0.000000 
#    z 0.000000 0.000000 1.960130 
# 
# From -- ./inp_files/7755.got.cif
#   From: 2010.05.17/outbox.cif.g08.bks.cpg/sg60_4_cif.got.tgz:7755.got - 2010.06.03 14:59:27.
