data_PCOD9458167
_publ_section_title
;
Structure prediction by ZEFSAII (Michael W. Deem and Ramdas Pophale) SiO2 
 PCOD9458167
Probable space group: P B C N
;
_chemical_formula_sum "Si O2"
_cell_formula_units_Z 60
_cell_length_a 11.995578
_cell_length_b 19.517537
_cell_length_c 12.407964
_cell_angle_alpha 90.000000
_cell_angle_beta 90.000000
_cell_angle_gamma 90.000000
_cell_volume 2905.003869
_symmetry_space_group_name_H-M "P B C N"
_symmetry_group_IT_number 60
_symmetry_cell_setting 'orthorhombic'
loop_
_space_group_symop_operation_xyz
x,y,z
1/2-x,1/2-y,1/2+z
1/2+x,1/2-y,-z
-x,y,1/2-z
-x,-y,-z
1/2+x,1/2+y,1/2-z
1/2-x,1/2+y,z
x,-y,1/2+z
loop_
_atom_site_type_symbol
_atom_site_label
_atom_site_fract_x
_atom_site_fract_y
_atom_site_fract_z
Si Si1 0.612485 0.966525 0.794850
Si Si2 0.476558 0.145380 0.037165
Si Si3 0.388669 0.613230 0.561108
Si Si4 0.658155 0.889860 0.357763
Si Si5 0.448087 0.714580 0.869682
Si Si6 0.291448 0.477551 0.869538
Si Si7 0.715040 0.136071 0.622034
Si Si8 0.000000 0.975675 0.250000
O O1 0.500000 0.001014 0.750000
O O2 0.567073 0.909911 0.876016
O O3 0.687731 0.943493 0.693839
O O4 0.678442 0.027897 0.851941
O O5 0.538147 0.206757 0.097955
O O6 0.562057 0.119621 0.945119
O O7 0.364435 0.163188 0.971595
O O8 0.274329 0.644139 0.607214
O O9 0.477245 0.673174 0.542623
O O10 0.343338 0.565300 0.466534
O O11 0.454228 0.568891 0.650631
O O12 0.646471 0.865710 0.234462
O O13 0.500000 0.706064 0.750000
O O14 0.325467 0.682040 0.869011
O O15 0.252912 0.556000 0.896619
O O16 0.393980 0.482650 0.787818
#
# Coordination Sequence:
#
# PCOD9458167 Si02
#       8
#     8   8   8   8   8   8   8   4
#     4  11  22  43  63 102 135 166 217 282 344 392
#     4  12  27  40  67  99 134 180 221 281 336 403
#     4  12  21  41  67  96 129 179 221 273 339 407
#     4  11  21  43  72  96 131 169 228 273 343 405
#     4  12  25  45  64  91 132 182 225 267 331 418
#     4  11  23  37  71 100 132 165 227 285 343 399
#     4  11  23  43  69  95 131 175 226 278 336 402
#     4  12  20  40  64 104 128 170 218 286 342 394
#
# _framework density 20.654018000000001
#
# number of rings (size 3 to 8) (size 9 to 14) (size 15 to 20)
#    0.000    0.533    6.000    4.800    1.867    0.000 
#    0.000    0.000    2.933    0.000    0.000    0.000 
#    0.000    0.000    0.000    0.000    0.000    0.000 
#
# Total GULP energy -334896.261528 kJ/mol
# GULP energy per Si atom -5581.604359 kJ/mol
# Density = 2.060701 g / cm^3
# Si number density = 20.654018 Si / 1000 Ang^3
#
#
#
# Elastic Constant Matrix: (Units=GPa)
#
#
# Indices 1 2 3 4 5 6 
#
# 1 118.8103 27.7829 46.9098 0.0000 0.0000 0.0000
# 2 27.7829 71.6378 50.0154 0.0000 0.0000 0.0000
# 3 46.9098 50.0154 84.7727 0.0000 0.0000 0.0000
# 4 0.0000 0.0000 0.0000 16.3383 0.0000 0.0000
# 5 0.0000 0.0000 0.0000 0.0000 41.8814 0.0000
# 6 0.0000 0.0000 0.0000 0.0000 0.0000 16.3646
#
#
#
# Elastic Compliance Matrix: (Units=1/GPa)
#
#
# Indices 1 2 3 4 5 6 
#
# 1 0.010770 -0.000027 -0.005944 0.000000 0.000000 0.000000
# 2 -0.000027 0.023737 -0.013989 0.000000 0.000000 0.000000
# 3 -0.005944 -0.013989 0.023339 0.000000 0.000000 0.000000
# 4 0.000000 0.000000 0.000000 0.061206 0.000000 0.000000
# 5 0.000000 0.000000 0.000000 0.000000 0.023877 0.000000
# 6 0.000000 0.000000 0.000000 0.000000 0.000000 0.061107
#
#
# Mechanical properties :
#
#
# Convention : Reuss Voigt Hill
#
# Bulk Modulus (GPa) = 55.78806 58.29301 57.04053
# Shear Modulus (GPa) = 20.00553 24.95105 22.47829
#
# Velocity S-wave (km/s) = 3.11561 3.47947 3.30256
# Velocity P-wave (km/s) = 6.32551 6.66537 6.49766
#
# Compressibility (1/GPa) = 0.01792498
#
# Stress axis : x y z
#
# Youngs Moduli (GPa) = 92.85209 42.12885 42.84699
#
# Poissons Ratio (x) = 0.00115 0.25466
# Poissons Ratio (y) = 0.00253 0.59941
# Poissons Ratio (z) = 0.55187 0.58936
#
# Static dielectric constant tensor:
#      x y z
#    x 1.742670 0.000000 0.000000 
#    y 0.000000 1.766650 0.000000 
#    z 0.000000 0.000000 1.803470 
# 
# From -- ./inp_files/11276.got.cif
#   From: 2010.05.17/outbox.cif.g08.bks.cpg/sg60_6_cif.got.tgz:11276.got - 2010.06.03 14:59:27.
