data_PCOD9458170
_publ_section_title
;
Structure prediction by ZEFSAII (Michael W. Deem and Ramdas Pophale) SiO2 
 PCOD9458170
Probable space group: P B C N
;
_chemical_formula_sum "Si O2"
_cell_formula_units_Z 36
_cell_length_a 15.610504
_cell_length_b 6.938025
_cell_length_c 13.673623
_cell_angle_alpha 90.000000
_cell_angle_beta 90.000000
_cell_angle_gamma 90.000000
_cell_volume 1480.936329
_symmetry_space_group_name_H-M "P B C N"
_symmetry_group_IT_number 60
_symmetry_cell_setting 'orthorhombic'
loop_
_space_group_symop_operation_xyz
x,y,z
1/2-x,1/2-y,1/2+z
1/2+x,1/2-y,-z
-x,y,1/2-z
-x,-y,-z
1/2+x,1/2+y,1/2-z
1/2-x,1/2+y,z
x,-y,1/2+z
loop_
_atom_site_type_symbol
_atom_site_label
_atom_site_fract_x
_atom_site_fract_y
_atom_site_fract_z
Si Si1 0.943885 0.166625 0.951645
Si Si2 0.500000 0.409170 0.250000
Si Si3 0.853938 0.531488 0.561044
Si Si4 0.599268 0.785097 0.253126
Si Si5 0.317780 0.666696 0.044686
O O1 0.934009 0.347720 0.020504
O O2 0.975588 0.211632 0.843801
O O3 0.857115 0.044597 0.941728
O O4 0.000000 0.000000 0.000000
O O5 0.577809 0.559955 0.225919
O O6 0.847583 0.597332 0.672975
O O7 0.775965 0.613004 0.495099
O O8 0.856956 0.305606 0.539281
O O9 0.500000 0.860941 0.250000
O O10 0.651581 0.774625 0.355055
#
# Coordination Sequence:
#
# PCOD9458170 Si02
#       5
#     8   4   8   8   8
#     4  11  21  44  68  95 131 175 220 270 331 401
#     4   8  18  40  64  92 132 162 218 270 316 382
#     4  12  23  44  69  96 140 176 221 282 341 401
#     4   9  21  43  67  94 137 174 220 286 325 400
#     4  11  25  42  65 102 133 175 225 275 340 396
#
# _framework density 24.308947
#
# number of rings (size 3 to 8) (size 9 to 14) (size 15 to 20)
#    0.667    0.889    4.444    0.000    0.000    5.333 
#   10.000    0.000    0.000    0.000    0.000    0.000 
#    0.000    0.000    0.000    0.000    0.000    0.000 
#
# Total GULP energy -200806.355265 kJ/mol
# GULP energy per Si atom -5577.954313 kJ/mol
# Density = 2.425362 g / cm^3
# Si number density = 24.308947 Si / 1000 Ang^3
#
#
#
# Elastic Constant Matrix: (Units=GPa)
#
#
# Indices 1 2 3 4 5 6 
#
# 1 83.4553 6.7117 37.4964 0.0000 0.0000 0.0000
# 2 6.7117 66.7182 14.7486 0.0000 0.0000 0.0000
# 3 37.4964 14.7486 115.1549 0.0000 0.0000 0.0000
# 4 0.0000 0.0000 0.0000 27.0110 0.0000 0.0000
# 5 0.0000 0.0000 0.0000 0.0000 36.0522 0.0000
# 6 0.0000 0.0000 0.0000 0.0000 0.0000 29.4819
#
#
#
# Elastic Compliance Matrix: (Units=1/GPa)
#
#
# Indices 1 2 3 4 5 6 
#
# 1 0.014047 -0.000414 -0.004521 0.000000 0.000000 0.000000
# 2 -0.000414 0.015437 -0.001842 0.000000 0.000000 0.000000
# 3 -0.004521 -0.001842 0.010392 0.000000 0.000000 0.000000
# 4 0.000000 0.000000 0.000000 0.037022 0.000000 0.000000
# 5 0.000000 0.000000 0.000000 0.000000 0.027738 0.000000
# 6 0.000000 0.000000 0.000000 0.000000 0.000000 0.033919
#
#
# Mechanical properties :
#
#
# Convention : Reuss Voigt Hill
#
# Bulk Modulus (GPa) = 37.99083 42.58241 40.28662
# Shear Modulus (GPa) = 31.07845 32.26714 31.67280
#
# Velocity S-wave (km/s) = 3.57946 3.64727 3.61352
# Velocity P-wave (km/s) = 5.72238 5.94071 5.83256
#
# Compressibility (1/GPa) = 0.02632214
#
# Stress axis : x y z
#
# Youngs Moduli (GPa) = 71.18963 64.77811 96.22763
#
# Poissons Ratio (x) = 0.02680 0.43504
# Poissons Ratio (y) = 0.02945 0.17729
# Poissons Ratio (z) = 0.32184 0.11935
#
# Static dielectric constant tensor:
#      x y z
#    x 1.509730 0.000000 0.000000 
#    y 0.000000 1.928240 0.000000 
#    z 0.000000 0.000000 1.977310 
# 
# From -- ./inp_files/17190.got.cif
#   From: 2010.05.17/outbox.cif.g08.bks.cpg/sg60_9_cif.got.tgz:17190.got - 2010.06.03 14:59:27.
