data_PCOD9458493
_publ_section_title
;
Structure prediction by ZEFSAII (Michael W. Deem and Ramdas Pophale) SiO2 
 PCOD9458493
Probable space group: P B C N
;
_chemical_formula_sum "Si O2"
_cell_formula_units_Z 40
_cell_length_a 6.783759
_cell_length_b 23.999506
_cell_length_c 11.558719
_cell_angle_alpha 90.000000
_cell_angle_beta 90.000000
_cell_angle_gamma 90.000000
_cell_volume 1881.838802
_symmetry_space_group_name_H-M "P B C N"
_symmetry_group_IT_number 60
_symmetry_cell_setting 'orthorhombic'
loop_
_space_group_symop_operation_xyz
x,y,z
1/2-x,1/2-y,1/2+z
1/2+x,1/2-y,-z
-x,y,1/2-z
-x,-y,-z
1/2+x,1/2+y,1/2-z
1/2-x,1/2+y,z
x,-y,1/2+z
loop_
_atom_site_type_symbol
_atom_site_label
_atom_site_fract_x
_atom_site_fract_y
_atom_site_fract_z
Si Si1 0.597879 0.392821 0.873401
Si Si2 0.538513 0.284386 0.133080
Si Si3 0.884277 0.498711 0.872933
Si Si4 0.774899 0.885627 0.430829
Si Si5 0.605334 0.183457 0.506584
O O1 0.500000 0.382693 0.750000
O O2 0.730525 0.448090 0.876848
O O3 0.739753 0.342779 0.915557
O O4 0.418561 0.399339 0.962831
O O5 0.500000 0.251403 0.250000
O O6 0.392212 0.336839 0.134356
O O7 0.484958 0.242193 0.031338
O O8 0.759733 0.305473 0.117934
O O9 0.773654 0.557982 0.864344
O O10 0.000000 0.491900 0.750000
O O11 0.000000 0.500000 0.000000
O O12 0.569724 0.859457 0.473096
#
# Coordination Sequence:
#
# PCOD9458493 Si02
#       5
#     8   8   8   8   8
#     4  11  26  44  73 105 140 187 243 295 359 428
#     4  11  26  41  70 100 141 186 234 294 355 426
#     4  12  26  46  76 105 144 191 238 302 364 432
#     4  11  25  46  69 100 146 183 240 290 361 426
#     4  11  24  45  67 102 143 183 240 291 353 425
#
# _framework density 21.255806
#
# number of rings (size 3 to 8) (size 9 to 14) (size 15 to 20)
#    0.000    0.800    4.000    1.800    5.600    0.800 
#    0.000    0.000    0.000    0.000    0.000    0.000 
#    0.000    0.000    0.000    0.000    0.000    0.000 
#
# Total GULP energy -223471.789547 kJ/mol
# GULP energy per Si atom -5586.794739 kJ/mol
# Density = 2.120743 g / cm^3
# Si number density = 21.255806 Si / 1000 Ang^3
#
#
#
# Elastic Constant Matrix: (Units=GPa)
#
#
# Indices 1 2 3 4 5 6 
#
# 1 136.5632 31.8296 48.0201 0.0000 0.0000 0.0000
# 2 31.8296 100.3625 3.9201 0.0000 0.0000 0.0000
# 3 48.0201 3.9201 97.9136 0.0000 0.0000 0.0000
# 4 0.0000 0.0000 0.0000 2.5708 0.0000 0.0000
# 5 0.0000 0.0000 0.0000 0.0000 12.6042 0.0000
# 6 0.0000 0.0000 0.0000 0.0000 0.0000 38.4520
#
#
#
# Elastic Compliance Matrix: (Units=1/GPa)
#
#
# Indices 1 2 3 4 5 6 
#
# 1 0.009607 -0.002867 -0.004597 0.000000 0.000000 0.000000
# 2 -0.002867 0.010835 0.000972 0.000000 0.000000 0.000000
# 3 -0.004597 0.000972 0.012429 0.000000 0.000000 0.000000
# 4 0.000000 0.000000 0.000000 0.388982 0.000000 0.000000
# 5 0.000000 0.000000 0.000000 0.000000 0.079339 0.000000
# 6 0.000000 0.000000 0.000000 0.000000 0.000000 0.026006
#
#
# Mechanical properties :
#
#
# Convention : Reuss Voigt Hill
#
# Bulk Modulus (GPa) = 50.28284 55.81989 53.05136
# Shear Modulus (GPa) = 9.14391 27.46336 18.30364
#
# Velocity S-wave (km/s) = 2.07634 3.59840 2.93765
# Velocity P-wave (km/s) = 5.42731 6.60171 6.04311
#
# Compressibility (1/GPa) = 0.01988750
#
# Stress axis : x y z
#
# Youngs Moduli (GPa) = 104.08656 92.29107 80.45913
#
# Poissons Ratio (x) = 0.26463 0.36987
# Poissons Ratio (y) = 0.29846 -0.07824
# Poissons Ratio (z) = 0.47848 -0.08975
#
# Static dielectric constant tensor:
#      x y z
#    x 1.752800 0.000000 0.000000 
#    y 0.000000 1.727000 0.000000 
#    z 0.000000 0.000000 1.856030 
# 
# From -- ./inp_files/9076.got.cif
#   From: 2010.05.17/outbox.cif.g08.bks.cpg/sg60_5_cif.got.tgz:9076.got - 2010.06.03 14:59:27.
