data_PCOD9458639
_publ_section_title
;
Structure prediction by ZEFSAII (Michael W. Deem and Ramdas Pophale) SiO2 
 PCOD9458639
Probable space group: P B C N
;
_chemical_formula_sum "Si O2"
_cell_formula_units_Z 32
_cell_length_a 8.444356
_cell_length_b 19.438899
_cell_length_c 8.861106
_cell_angle_alpha 90.000000
_cell_angle_beta 90.000000
_cell_angle_gamma 90.000000
_cell_volume 1454.541542
_symmetry_space_group_name_H-M "P B C N"
_symmetry_group_IT_number 60
_symmetry_cell_setting 'orthorhombic'
loop_
_space_group_symop_operation_xyz
x,y,z
1/2-x,1/2-y,1/2+z
1/2+x,1/2-y,-z
-x,y,1/2-z
-x,-y,-z
1/2+x,1/2+y,1/2-z
1/2-x,1/2+y,z
x,-y,1/2+z
loop_
_atom_site_type_symbol
_atom_site_label
_atom_site_fract_x
_atom_site_fract_y
_atom_site_fract_z
Si Si1 0.110583 0.956713 0.886490
Si Si2 0.223066 0.183656 0.900583
Si Si3 0.898059 0.449496 0.106397
Si Si4 0.652398 0.678300 0.950125
O O1 0.000000 0.932904 0.750000
O O2 0.246623 0.008186 0.833377
O O3 0.192974 0.892775 0.968015
O O4 0.000000 0.000000 0.000000
O O5 0.325773 0.120013 0.964846
O O6 0.221640 0.180528 0.718540
O O7 0.038781 0.177473 0.943717
O O8 0.289554 0.255464 0.959591
O O9 0.000000 0.429107 0.250000
O O10 0.000000 0.500000 0.000000
#
# Coordination Sequence:
#
# PCOD9458639 Si02
#       4
#     8   8   8   8
#     4  12  25  47  75 105 142 196 247 294 372 438
#     4  11  27  48  71 106 142 189 239 298 367 435
#     4  12  27  45  72 107 146 184 239 306 358 427
#     4  11  27  47  74 103 145 190 241 298 363 440
#
# _framework density 22.000059
#
# number of rings (size 3 to 8) (size 9 to 14) (size 15 to 20)
#    0.000    0.500    2.500    4.500   10.500    0.000 
#    0.000    0.000    0.000    0.000    0.000    0.000 
#    0.000    0.000    0.000    0.000    0.000    0.000 
#
# Total GULP energy -179238.188770 kJ/mol
# GULP energy per Si atom -5601.193399 kJ/mol
# Density = 2.194999 g / cm^3
# Si number density = 22.000059 Si / 1000 Ang^3
#
#
#
# Elastic Constant Matrix: (Units=GPa)
#
#
# Indices 1 2 3 4 5 6 
#
# 1 87.2557 28.6202 14.7684 0.0000 0.0000 0.0000
# 2 28.6202 151.0625 16.3117 0.0000 0.0000 0.0000
# 3 14.7684 16.3117 56.5095 0.0000 0.0000 0.0000
# 4 0.0000 0.0000 0.0000 38.0472 0.0000 0.0000
# 5 0.0000 0.0000 0.0000 0.0000 38.6243 0.0000
# 6 0.0000 0.0000 0.0000 0.0000 0.0000 53.5624
#
#
#
# Elastic Compliance Matrix: (Units=1/GPa)
#
#
# Indices 1 2 3 4 5 6 
#
# 1 0.012604 -0.002098 -0.002688 0.000000 0.000000 0.000000
# 2 -0.002098 0.007182 -0.001525 0.000000 0.000000 0.000000
# 3 -0.002688 -0.001525 0.018839 0.000000 0.000000 0.000000
# 4 0.000000 0.000000 0.000000 0.026283 0.000000 0.000000
# 5 0.000000 0.000000 0.000000 0.000000 0.025890 0.000000
# 6 0.000000 0.000000 0.000000 0.000000 0.000000 0.018670
#
#
# Mechanical properties :
#
#
# Convention : Reuss Voigt Hill
#
# Bulk Modulus (GPa) = 38.45765 46.02538 42.24152
# Shear Modulus (GPa) = 38.23886 41.72192 39.98039
#
# Velocity S-wave (km/s) = 4.17361 4.35954 4.26759
# Velocity P-wave (km/s) = 6.38310 6.80491 6.59738
#
# Compressibility (1/GPa) = 0.02600263
#
# Stress axis : x y z
#
# Youngs Moduli (GPa) = 79.34237 139.24010 53.08165
#
# Poissons Ratio (x) = 0.29207 0.14270
# Poissons Ratio (y) = 0.16643 0.08094
# Poissons Ratio (z) = 0.21330 0.21232
#
# Static dielectric constant tensor:
#      x y z
#    x 1.847000 0.000000 0.000000 
#    y 0.000000 1.765060 0.000000 
#    z 0.000000 0.000000 1.794900 
# 
# From -- ./inp_files/3617.got.cif
#   From: 2010.05.17/outbox.cif.g08.bks.cpg/sg60_2_cif.got.tgz:3617.got - 2010.06.03 14:59:27.
