data_PCOD9458114
_publ_section_title
;
Structure prediction by ZEFSAII (Michael W. Deem and Ramdas Pophale) SiO2 
 PCOD9458114
Probable space group: P B C N
;
_chemical_formula_sum "Si O2"
_cell_formula_units_Z 32
_cell_length_a 10.277643
_cell_length_b 14.294768
_cell_length_c 8.820776
_cell_angle_alpha 90.000000
_cell_angle_beta 90.000000
_cell_angle_gamma 90.000000
_cell_volume 1295.917734
_symmetry_space_group_name_H-M "P B C N"
_symmetry_group_IT_number 60
_symmetry_cell_setting 'orthorhombic'
loop_
_space_group_symop_operation_xyz
x,y,z
1/2-x,1/2-y,1/2+z
1/2+x,1/2-y,-z
-x,y,1/2-z
-x,-y,-z
1/2+x,1/2+y,1/2-z
1/2-x,1/2+y,z
x,-y,1/2+z
loop_
_atom_site_type_symbol
_atom_site_label
_atom_site_fract_x
_atom_site_fract_y
_atom_site_fract_z
Si Si1 0.993731 0.605582 0.430670
Si Si2 0.743972 0.581269 0.618064
Si Si3 0.361223 0.428437 0.689690
Si Si4 0.864258 0.291617 0.328022
O O1 0.852442 0.627575 0.504009
O O2 0.000000 0.609574 0.250000
O O3 0.000000 0.500000 0.500000
O O4 0.104800 0.672474 0.502872
O O5 0.749248 0.486071 0.718455
O O6 0.641232 0.556928 0.490242
O O7 0.742317 0.656405 0.752790
O O8 0.500000 0.461509 0.750000
O O9 0.354733 0.316909 0.706912
O O10 0.000000 0.326563 0.250000
#
# Coordination Sequence:
#
# PCOD9458114 Si02
#       4
#     8   8   8   8
#     4  11  21  38  66 101 133 163 210 275 334 388
#     4  11  23  39  65  92 126 177 218 265 331 392
#     4  11  24  44  65  94 135 177 222 270 323 394
#     4   9  22  43  66  97 130 165 220 280 333 390
#
# _framework density 24.692927000000001
#
# number of rings (size 3 to 8) (size 9 to 14) (size 15 to 20)
#    0.000    1.500    0.000    6.000    0.000    6.000 
#    0.000    8.750    0.000    4.500    0.000    0.000 
#    0.000    0.000    0.000    0.000    0.000    0.000 
#
# Total GULP energy -178197.068666 kJ/mol
# GULP energy per Si atom -5568.658396 kJ/mol
# Density = 2.463672 g / cm^3
# Si number density = 24.692927 Si / 1000 Ang^3
#
#
#
# Elastic Constant Matrix: (Units=GPa)
#
#
# Indices 1 2 3 4 5 6 
#
# 1 45.1910 -1.4545 48.2650 0.0000 0.0000 0.0000
# 2 -1.4545 70.6737 63.7756 0.0000 0.0000 0.0000
# 3 48.2650 63.7756 202.5537 0.0000 0.0000 0.0000
# 4 0.0000 0.0000 0.0000 26.4022 0.0000 0.0000
# 5 0.0000 0.0000 0.0000 0.0000 49.5056 0.0000
# 6 0.0000 0.0000 0.0000 0.0000 0.0000 24.9586
#
#
#
# Elastic Compliance Matrix: (Units=1/GPa)
#
#
# Indices 1 2 3 4 5 6 
#
# 1 0.035448 0.011667 -0.012120 0.000000 0.000000 0.000000
# 2 0.011667 0.023605 -0.010212 0.000000 0.000000 0.000000
# 3 -0.012120 -0.010212 0.011040 0.000000 0.000000 0.000000
# 4 0.000000 0.000000 0.000000 0.037876 0.000000 0.000000
# 5 0.000000 0.000000 0.000000 0.000000 0.020200 0.000000
# 6 0.000000 0.000000 0.000000 0.000000 0.000000 0.040066
#
#
# Mechanical properties :
#
#
# Convention : Reuss Voigt Hill
#
# Bulk Modulus (GPa) = 20.50755 59.95450 40.23103
# Shear Modulus (GPa) = 24.29297 34.02877 29.16087
#
# Velocity S-wave (km/s) = 3.13997 3.71627 3.44021
# Velocity P-wave (km/s) = 4.63346 6.53812 5.66639
#
# Compressibility (1/GPa) = 0.04876252
#
# Stress axis : x y z
#
# Youngs Moduli (GPa) = 28.21012 42.36369 90.57681
#
# Poissons Ratio (x) = -0.49424 1.09779
# Poissons Ratio (y) = -0.32912 0.92499
# Poissons Ratio (z) = 0.34191 0.43263
#
# Static dielectric constant tensor:
#      x y z
#    x 2.382970 0.000000 0.000000 
#    y 0.000000 1.937010 0.000000 
#    z 0.000000 0.000000 2.081730 
# 
# From -- ./inp_files/4604.got.cif
#   From: 2010.05.17/outbox.cif.g08.bks.cpg/sg60_3_cif.got.tgz:4604.got - 2010.06.03 14:59:27.
