data_PCOD9458470
_publ_section_title
;
Structure prediction by ZEFSAII (Michael W. Deem and Ramdas Pophale) SiO2 
 PCOD9458470
Probable space group: P B C N
;
_chemical_formula_sum "Si O2"
_cell_formula_units_Z 32
_cell_length_a 10.413451
_cell_length_b 13.164088
_cell_length_c 9.188643
_cell_angle_alpha 90.000000
_cell_angle_beta 90.000000
_cell_angle_gamma 90.000000
_cell_volume 1259.612127
_symmetry_space_group_name_H-M "P B C N"
_symmetry_group_IT_number 60
_symmetry_cell_setting 'orthorhombic'
loop_
_space_group_symop_operation_xyz
x,y,z
1/2-x,1/2-y,1/2+z
1/2+x,1/2-y,-z
-x,y,1/2-z
-x,-y,-z
1/2+x,1/2+y,1/2-z
1/2-x,1/2+y,z
x,-y,1/2+z
loop_
_atom_site_type_symbol
_atom_site_label
_atom_site_fract_x
_atom_site_fract_y
_atom_site_fract_z
Si Si1 0.693970 0.003715 0.974471
Si Si2 0.815089 0.289069 0.874062
Si Si3 0.958707 0.694393 0.916720
Si Si4 0.645561 0.597673 0.734292
O O1 0.668156 0.909678 0.865545
O O2 0.582096 0.086962 0.989362
O O3 0.796500 0.071382 0.890201
O O4 0.763303 0.952502 0.113234
O O5 0.665603 0.266776 0.908637
O O6 0.847847 0.220713 0.733704
O O7 0.919224 0.261252 0.998627
O O8 0.000000 0.672810 0.750000
O O9 0.500000 0.562324 0.750000
#
# Coordination Sequence:
#
# PCOD9458470 Si02
#       4
#     8   8   8   8
#     4  11  25  46  73 105 146 196 247 306 370 443
#     4  11  24  43  72 104 142 186 239 301 368 437
#     4  11  26  49  74 110 149 195 250 308 372 445
#     4  11  25  44  69 107 145 191 244 303 373 441
#
# _framework density 25.404644999999999
#
# number of rings (size 3 to 8) (size 9 to 14) (size 15 to 20)
#    0.000    1.000    0.000    6.000    0.000   14.000 
#    0.000    0.000    0.000    0.000    0.000    0.000 
#    0.000    0.000    0.000    0.000    0.000    0.000 
#
# Total GULP energy -178905.683285 kJ/mol
# GULP energy per Si atom -5590.802603 kJ/mol
# Density = 2.534682 g / cm^3
# Si number density = 25.404645 Si / 1000 Ang^3
#
#
#
# Elastic Constant Matrix: (Units=GPa)
#
#
# Indices 1 2 3 4 5 6 
#
# 1 145.6355 36.3149 46.4649 0.0000 0.0000 0.0000
# 2 36.3149 134.6884 44.5304 0.0000 0.0000 0.0000
# 3 46.4649 44.5304 114.7453 0.0000 0.0000 0.0000
# 4 0.0000 0.0000 0.0000 65.3575 0.0000 0.0000
# 5 0.0000 0.0000 0.0000 0.0000 39.6311 0.0000
# 6 0.0000 0.0000 0.0000 0.0000 0.0000 37.2960
#
#
#
# Elastic Compliance Matrix: (Units=1/GPa)
#
#
# Indices 1 2 3 4 5 6 
#
# 1 0.008066 -0.001256 -0.002779 0.000000 0.000000 0.000000
# 2 -0.001256 0.008713 -0.002873 0.000000 0.000000 0.000000
# 3 -0.002779 -0.002873 0.010955 0.000000 0.000000 0.000000
# 4 0.000000 0.000000 0.000000 0.015300 0.000000 0.000000
# 5 0.000000 0.000000 0.000000 0.000000 0.025233 0.000000
# 6 0.000000 0.000000 0.000000 0.000000 0.000000 0.026813
#
#
# Mechanical properties :
#
#
# Convention : Reuss Voigt Hill
#
# Bulk Modulus (GPa) = 71.84435 72.18772 72.01603
# Shear Modulus (GPa) = 44.03928 46.30754 45.17341
#
# Velocity S-wave (km/s) = 4.16806 4.27406 4.22139
# Velocity P-wave (km/s) = 7.17670 7.26867 7.22283
#
# Compressibility (1/GPa) = 0.01391898
#
# Stress axis : x y z
#
# Youngs Moduli (GPa) = 123.97304 114.77136 91.28193
#
# Poissons Ratio (x) = 0.14416 0.25366
# Poissons Ratio (y) = 0.15572 0.26222
# Poissons Ratio (z) = 0.34451 0.32970
#
# Static dielectric constant tensor:
#      x y z
#    x 2.066000 0.000000 0.000000 
#    y 0.000000 2.043420 0.000000 
#    z 0.000000 0.000000 2.011480 
# 
# From -- ./inp_files/4497.got.cif
#   From: 2010.05.17/outbox.cif.g08.bks.cpg/sg60_3_cif.got.tgz:4497.got - 2010.06.03 14:59:27.
