data_PCOD9458392
_publ_section_title
;
Structure prediction by ZEFSAII (Michael W. Deem and Ramdas Pophale) SiO2 
 PCOD9458392
Probable space group: P B C N
;
_chemical_formula_sum "Si O2"
_cell_formula_units_Z 32
_cell_length_a 10.264406
_cell_length_b 13.624384
_cell_length_c 9.062731
_cell_angle_alpha 90.000000
_cell_angle_beta 90.000000
_cell_angle_gamma 90.000000
_cell_volume 1267.388572
_symmetry_space_group_name_H-M "P B C N"
_symmetry_group_IT_number 60
_symmetry_cell_setting 'orthorhombic'
loop_
_space_group_symop_operation_xyz
x,y,z
1/2-x,1/2-y,1/2+z
1/2+x,1/2-y,-z
-x,y,1/2-z
-x,-y,-z
1/2+x,1/2+y,1/2-z
1/2-x,1/2+y,z
x,-y,1/2+z
loop_
_atom_site_type_symbol
_atom_site_label
_atom_site_fract_x
_atom_site_fract_y
_atom_site_fract_z
Si Si1 0.579627 0.402846 0.953787
Si Si2 0.924447 0.622412 0.118453
Si Si3 0.347940 0.696005 0.346064
Si Si4 0.647745 0.907047 0.123277
O O1 0.630363 0.381636 0.786551
O O2 0.465368 0.321160 0.961074
O O3 0.500000 0.500000 0.000000
O O4 0.710518 0.404197 0.048190
O O5 0.790933 0.676613 0.080095
O O6 0.875942 0.515962 0.182720
O O7 0.000000 0.675455 0.250000
O O8 0.029035 0.605225 0.991654
O O9 0.353946 0.806635 0.283898
#
# Coordination Sequence:
#
# PCOD9458392 Si02
#       4
#     8   8   8   8
#     4  11  23  45  66 101 141 181 234 293 356 419
#     4  11  23  44  69 101 139 181 231 291 354 416
#     4  11  24  44  69  99 137 185 235 288 356 424
#     4  11  24  44  70 100 139 183 237 290 350 423
#
# _framework density 25.248767000000001
#
# number of rings (size 3 to 8) (size 9 to 14) (size 15 to 20)
#    0.000    1.000    5.000    1.500    3.500    0.000 
#    4.500    0.000    0.000    0.000    0.000    0.000 
#    0.000    0.000    0.000    0.000    0.000    0.000 
#
# Total GULP energy -178666.618428 kJ/mol
# GULP energy per Si atom -5583.331826 kJ/mol
# Density = 2.519130 g / cm^3
# Si number density = 25.248767 Si / 1000 Ang^3
#
#
#
# Elastic Constant Matrix: (Units=GPa)
#
#
# Indices 1 2 3 4 5 6 
#
# 1 265.9554 32.1492 42.7161 0.0000 0.0000 0.0000
# 2 32.1492 136.8147 18.2647 0.0000 0.0000 0.0000
# 3 42.7161 18.2647 58.7698 0.0000 0.0000 0.0000
# 4 0.0000 0.0000 0.0000 16.0976 0.0000 0.0000
# 5 0.0000 0.0000 0.0000 0.0000 47.4571 0.0000
# 6 0.0000 0.0000 0.0000 0.0000 0.0000 15.1413
#
#
#
# Elastic Compliance Matrix: (Units=1/GPa)
#
#
# Indices 1 2 3 4 5 6 
#
# 1 0.004307 -0.000620 -0.002938 0.000000 0.000000 0.000000
# 2 -0.000620 0.007715 -0.001947 0.000000 0.000000 0.000000
# 3 -0.002938 -0.001947 0.019756 0.000000 0.000000 0.000000
# 4 0.000000 0.000000 0.000000 0.062121 0.000000 0.000000
# 5 0.000000 0.000000 0.000000 0.000000 0.021072 0.000000
# 6 0.000000 0.000000 0.000000 0.000000 0.000000 0.066044
#
#
# Mechanical properties :
#
#
# Convention : Reuss Voigt Hill
#
# Bulk Modulus (GPa) = 48.15059 71.97775 60.06417
# Shear Modulus (GPa) = 25.13238 40.29988 32.71613
#
# Velocity S-wave (km/s) = 3.15840 3.99947 3.60356
# Velocity P-wave (km/s) = 5.69320 7.06378 6.41520
#
# Compressibility (1/GPa) = 0.02076818
#
# Stress axis : x y z
#
# Youngs Moduli (GPa) = 232.19134 129.62195 50.61775
#
# Poissons Ratio (x) = 0.08035 0.14870
# Poissons Ratio (y) = 0.14392 0.09856
# Poissons Ratio (z) = 0.68211 0.25239
#
# Static dielectric constant tensor:
#      x y z
#    x 1.983140 0.000000 0.000000 
#    y 0.000000 2.062510 0.000000 
#    z 0.000000 0.000000 1.472190 
# 
# From -- ./inp_files/9595.got.cif
#   From: 2010.05.17/outbox.cif.g08.bks.cpg/sg60_5_cif.got.tgz:9595.got - 2010.06.03 14:59:27.
