data_PCOD9458585
_publ_section_title
;
Structure prediction by ZEFSAII (Michael W. Deem and Ramdas Pophale) SiO2 
 PCOD9458585
Probable space group: P B C N
;
_chemical_formula_sum "Si O2"
_cell_formula_units_Z 28
_cell_length_a 5.739175
_cell_length_b 20.962882
_cell_length_c 9.697773
_cell_angle_alpha 90.000000
_cell_angle_beta 90.000000
_cell_angle_gamma 90.000000
_cell_volume 1166.735659
_symmetry_space_group_name_H-M "P B C N"
_symmetry_group_IT_number 60
_symmetry_cell_setting 'orthorhombic'
loop_
_space_group_symop_operation_xyz
x,y,z
1/2-x,1/2-y,1/2+z
1/2+x,1/2-y,-z
-x,y,1/2-z
-x,-y,-z
1/2+x,1/2+y,1/2-z
1/2-x,1/2+y,z
x,-y,1/2+z
loop_
_atom_site_type_symbol
_atom_site_label
_atom_site_fract_x
_atom_site_fract_y
_atom_site_fract_z
Si Si1 0.500000 0.252990 0.250000
Si Si2 0.500000 0.318864 0.750000
Si Si3 0.000000 0.029486 0.750000
Si Si4 0.617519 0.361051 0.033781
Si Si5 0.110231 0.448496 0.602726
O O1 0.753416 0.218816 0.270667
O O2 0.556880 0.298674 0.119235
O O3 0.529306 0.357824 0.607628
O O4 0.094059 0.079158 0.863520
O O5 0.159360 0.984445 0.657225
O O6 0.870402 0.380442 0.973957
O O7 0.000000 0.435934 0.750000
O O8 0.000000 0.500000 0.500000
#
# Coordination Sequence:
#
# PCOD9458585 Si02
#       5
#     4   4   4   8   8
#     4  11  28  52  73 110 153 194 272 343 388 462
#     4  12  27  50  79 110 145 204 273 334 398 464
#     4  11  25  48  64 114 156 196 257 321 384 498
#     4  11  26  46  76 106 152 207 258 326 408 459
#     4  12  26  45  74 112 160 208 261 317 399 492
#
# _framework density 23.99858
#
# number of rings (size 3 to 8) (size 9 to 14) (size 15 to 20)
#    0.000    0.571    2.857    3.429    6.000    4.571 
#    0.000    0.000    0.000    0.000    0.000    0.000 
#    0.000    0.000    0.000    0.000    0.000    0.000 
#
# Total GULP energy -155900.968961 kJ/mol
# GULP energy per Si atom -5567.891749 kJ/mol
# Density = 2.394396 g / cm^3
# Si number density = 23.998580 Si / 1000 Ang^3
#
#
#
# Elastic Constant Matrix: (Units=GPa)
#
#
# Indices 1 2 3 4 5 6 
#
# 1 114.9905 60.5865 45.7753 0.0000 0.0000 0.0000
# 2 60.5865 101.1831 56.6101 0.0000 0.0000 0.0000
# 3 45.7753 56.6101 197.7847 0.0000 0.0000 0.0000
# 4 0.0000 0.0000 0.0000 57.2603 0.0000 0.0000
# 5 0.0000 0.0000 0.0000 0.0000 55.8227 0.0000
# 6 0.0000 0.0000 0.0000 0.0000 0.0000 39.3432
#
#
#
# Elastic Compliance Matrix: (Units=1/GPa)
#
#
# Indices 1 2 3 4 5 6 
#
# 1 0.012843 -0.007176 -0.000918 0.000000 0.000000 0.000000
# 2 -0.007176 0.015777 -0.002855 0.000000 0.000000 0.000000
# 3 -0.000918 -0.002855 0.006086 0.000000 0.000000 0.000000
# 4 0.000000 0.000000 0.000000 0.017464 0.000000 0.000000
# 5 0.000000 0.000000 0.000000 0.000000 0.017914 0.000000
# 6 0.000000 0.000000 0.000000 0.000000 0.000000 0.025417
#
#
# Mechanical properties :
#
#
# Convention : Reuss Voigt Hill
#
# Bulk Modulus (GPa) = 78.08328 82.21134 80.14731
# Shear Modulus (GPa) = 41.09484 47.21767 44.15625
#
# Velocity S-wave (km/s) = 4.14259 4.44048 4.29412
# Velocity P-wave (km/s) = 7.44907 7.78599 7.61939
#
# Compressibility (1/GPa) = 0.01280684
#
# Stress axis : x y z
#
# Youngs Moduli (GPa) = 77.86305 63.38173 164.31995
#
# Poissons Ratio (x) = 0.45485 0.15091
# Poissons Ratio (y) = 0.55877 0.46912
# Poissons Ratio (z) = 0.07151 0.18095
#
# Static dielectric constant tensor:
#      x y z
#    x 2.109290 0.000000 0.000000 
#    y 0.000000 1.938650 0.000000 
#    z 0.000000 0.000000 1.880830 
# 
# From -- ./inp_files/8788.got.cif
#   From: 2010.05.17/outbox.cif.g08.bks.cpg/sg60_5_cif.got.tgz:8788.got - 2010.06.03 14:59:27.
