data_PCOD9458356
_publ_section_title
;
Structure prediction by ZEFSAII (Michael W. Deem and Ramdas Pophale) SiO2 
 PCOD9458356
Probable space group: P B C N
;
_chemical_formula_sum "Si O2"
_cell_formula_units_Z 40
_cell_length_a 5.004717
_cell_length_b 17.936583
_cell_length_c 19.133175
_cell_angle_alpha 90.000000
_cell_angle_beta 90.000000
_cell_angle_gamma 90.000000
_cell_volume 1717.537705
_symmetry_space_group_name_H-M "P B C N"
_symmetry_group_IT_number 60
_symmetry_cell_setting 'orthorhombic'
loop_
_space_group_symop_operation_xyz
x,y,z
1/2-x,1/2-y,1/2+z
1/2+x,1/2-y,-z
-x,y,1/2-z
-x,-y,-z
1/2+x,1/2+y,1/2-z
1/2-x,1/2+y,z
x,-y,1/2+z
loop_
_atom_site_type_symbol
_atom_site_label
_atom_site_fract_x
_atom_site_fract_y
_atom_site_fract_z
Si Si1 0.396584 0.372311 0.992622
Si Si2 0.757461 0.074625 0.295135
Si Si3 0.790504 0.498149 0.935535
Si Si4 0.879032 0.242259 0.324727
Si Si5 0.633588 0.750451 0.584456
O O1 0.306649 0.416881 0.061357
O O2 0.566118 0.302826 0.020011
O O3 0.565442 0.436372 0.954147
O O4 0.166699 0.335131 0.944981
O O5 0.500000 0.096451 0.250000
O O6 0.640294 0.024146 0.357234
O O7 0.884577 0.151853 0.322716
O O8 0.000000 0.039067 0.250000
O O9 0.000000 0.500000 0.000000
O O10 0.583783 0.257452 0.353987
O O11 0.000000 0.266761 0.250000
O O12 0.083850 0.269959 0.382716
#
# Coordination Sequence:
#
# PCOD9458356 Si02
#       5
#     8   8   8   8   8
#     4  11  27  43  74 106 149 186 250 309 382 429
#     4  11  24  44  71 106 144 190 245 298 363 442
#     4  11  26  47  75 108 144 200 247 316 363 456
#     4  11  23  42  70 102 142 190 243 294 362 444
#     4  12  24  44  70 108 141 187 239 309 364 439
#
# _framework density 23.289152000000001
#
# number of rings (size 3 to 8) (size 9 to 14) (size 15 to 20)
#    0.000    0.800    2.000    5.400   11.200    0.000 
#    0.000    3.000    0.000    0.000    0.000    0.000 
#    0.000    0.000    0.000    0.000    0.000    0.000 
#
# Total GULP energy -223392.716612 kJ/mol
# GULP energy per Si atom -5584.817915 kJ/mol
# Density = 2.323614 g / cm^3
# Si number density = 23.289152 Si / 1000 Ang^3
#
#
#
# Elastic Constant Matrix: (Units=GPa)
#
#
# Indices 1 2 3 4 5 6 
#
# 1 110.1947 28.8445 32.5538 0.0000 0.0000 0.0000
# 2 28.8445 77.0495 19.8990 0.0000 0.0000 0.0000
# 3 32.5538 19.8990 80.3027 0.0000 0.0000 0.0000
# 4 0.0000 0.0000 0.0000 28.3112 0.0000 0.0000
# 5 0.0000 0.0000 0.0000 0.0000 46.1656 0.0000
# 6 0.0000 0.0000 0.0000 0.0000 0.0000 32.3212
#
#
#
# Elastic Compliance Matrix: (Units=1/GPa)
#
#
# Indices 1 2 3 4 5 6 
#
# 1 0.010988 -0.003166 -0.003670 0.000000 0.000000 0.000000
# 2 -0.003166 0.014778 -0.002379 0.000000 0.000000 0.000000
# 3 -0.003670 -0.002379 0.014530 0.000000 0.000000 0.000000
# 4 0.000000 0.000000 0.000000 0.035322 0.000000 0.000000
# 5 0.000000 0.000000 0.000000 0.000000 0.021661 0.000000
# 6 0.000000 0.000000 0.000000 0.000000 0.000000 0.030939
#
#
# Mechanical properties :
#
#
# Convention : Reuss Voigt Hill
#
# Bulk Modulus (GPa) = 45.72999 47.79350 46.76175
# Shear Modulus (GPa) = 32.48115 33.77624 33.12870
#
# Velocity S-wave (km/s) = 3.73861 3.81241 3.77569
# Velocity P-wave (km/s) = 6.18988 6.32026 6.25541
#
# Compressibility (1/GPa) = 0.02186749
#
# Stress axis : x y z
#
# Youngs Moduli (GPa) = 91.01162 67.66785 68.82292
#
# Poissons Ratio (x) = 0.21421 0.25257
# Poissons Ratio (y) = 0.28810 0.16371
# Poissons Ratio (z) = 0.33400 0.16096
#
# Static dielectric constant tensor:
#      x y z
#    x 1.982850 0.000000 0.000000 
#    y 0.000000 1.871950 0.000000 
#    z 0.000000 0.000000 1.977580 
# 
# From -- ./inp_files/18521.got.cif
#   From: 2010.05.17/outbox.cif.g08.bks.cpg/sg60_10_cif.got.tgz:18521.got - 2010.06.03 14:59:27.
