data_PCOD9458053
_publ_section_title
;
Structure prediction by ZEFSAII (Michael W. Deem and Ramdas Pophale) SiO2 
 PCOD9458053
Probable space group: P B C N
;
_chemical_formula_sum "Si O2"
_cell_formula_units_Z 48
_cell_length_a 5.362067
_cell_length_b 25.251419
_cell_length_c 15.923183
_cell_angle_alpha 90.000000
_cell_angle_beta 90.000000
_cell_angle_gamma 90.000000
_cell_volume 2155.995802
_symmetry_space_group_name_H-M "P B C N"
_symmetry_group_IT_number 60
_symmetry_cell_setting 'orthorhombic'
loop_
_space_group_symop_operation_xyz
x,y,z
1/2-x,1/2-y,1/2+z
1/2+x,1/2-y,-z
-x,y,1/2-z
-x,-y,-z
1/2+x,1/2+y,1/2-z
1/2-x,1/2+y,z
x,-y,1/2+z
loop_
_atom_site_type_symbol
_atom_site_label
_atom_site_fract_x
_atom_site_fract_y
_atom_site_fract_z
Si Si1 0.000000 0.561813 0.750000
Si Si2 0.461128 0.892254 0.429036
Si Si3 0.039612 0.081364 0.474056
Si Si4 0.819051 0.031952 0.323530
Si Si5 0.500000 0.121108 0.250000
Si Si6 0.484234 0.232853 0.546958
Si Si7 0.613971 0.675306 0.158947
O O1 0.930503 0.596166 0.669678
O O2 0.794530 0.522688 0.790983
O O3 0.701786 0.920001 0.474108
O O4 0.500481 0.829783 0.442240
O O5 0.203572 0.911432 0.469458
O O6 0.046038 0.133139 0.412909
O O7 0.974069 0.033647 0.409501
O O8 0.611417 0.077643 0.316718
O O9 0.000000 0.049728 0.250000
O O10 0.397342 0.162698 0.319087
O O11 0.211350 0.248871 0.513477
O O12 0.540020 0.266807 0.630202
O O13 0.500000 0.662500 0.250000
#
# Coordination Sequence:
#
# PCOD9458053 Si02
#       7
#     4   8   8   8   4   8   8
#     4  11  32  50  72 104 160 196 252 309 394 458
#     4  12  28  51  73 107 153 204 245 311 377 457
#     4  12  24  47  80 105 146 193 255 310 375 432
#     4  11  24  45  76 107 145 193 246 322 372 444
#     4  11  20  40  70 110 146 184 238 315 374 428
#     4  12  26  47  72 106 152 197 251 297 362 448
#     4  12  24  39  73 114 147 193 245 316 371 438
#
# _framework density 22.263494999999999
#
# number of rings (size 3 to 8) (size 9 to 14) (size 15 to 20)
#    0.000    0.333    6.667    1.000    8.167    1.333 
#    0.000    0.000    0.000    0.000    0.000    0.000 
#    0.000    0.000    0.000    0.000    0.000    0.000 
#
# Total GULP energy -267894.335128 kJ/mol
# GULP energy per Si atom -5581.131982 kJ/mol
# Density = 2.221282 g / cm^3
# Si number density = 22.263495 Si / 1000 Ang^3
#
#
#
# Elastic Constant Matrix: (Units=GPa)
#
#
# Indices 1 2 3 4 5 6 
#
# 1 79.1868 14.9472 46.4768 0.0000 0.0000 0.0000
# 2 14.9472 80.4863 28.1766 0.0000 0.0000 0.0000
# 3 46.4768 28.1766 159.5794 0.0000 0.0000 0.0000
# 4 0.0000 0.0000 0.0000 46.0089 0.0000 0.0000
# 5 0.0000 0.0000 0.0000 0.0000 22.2537 0.0000
# 6 0.0000 0.0000 0.0000 0.0000 0.0000 91.7396
#
#
#
# Elastic Compliance Matrix: (Units=1/GPa)
#
#
# Indices 1 2 3 4 5 6 
#
# 1 0.015373 -0.001372 -0.004235 0.000000 0.000000 0.000000
# 2 -0.001372 0.013366 -0.001960 0.000000 0.000000 0.000000
# 3 -0.004235 -0.001960 0.007846 0.000000 0.000000 0.000000
# 4 0.000000 0.000000 0.000000 0.021735 0.000000 0.000000
# 5 0.000000 0.000000 0.000000 0.000000 0.044936 0.000000
# 6 0.000000 0.000000 0.000000 0.000000 0.000000 0.010900
#
#
# Mechanical properties :
#
#
# Convention : Reuss Voigt Hill
#
# Bulk Modulus (GPa) = 46.62131 55.38375 51.00253
# Shear Modulus (GPa) = 36.64579 47.31056 41.97818
#
# Velocity S-wave (km/s) = 4.06150 4.61480 4.34696
# Velocity P-wave (km/s) = 6.55595 7.30245 6.93924
#
# Compressibility (1/GPa) = 0.02144942
#
# Stress axis : x y z
#
# Youngs Moduli (GPa) = 65.04882 74.81906 127.45318
#
# Poissons Ratio (x) = 0.10268 0.53977
# Poissons Ratio (y) = 0.08927 0.24984
# Poissons Ratio (z) = 0.27548 0.14666
#
# Static dielectric constant tensor:
#      x y z
#    x 1.482880 0.000000 0.000000 
#    y 0.000000 1.848870 0.000000 
#    z 0.000000 0.000000 1.818020 
# 
# From -- ./inp_files/13956.got.cif
#   From: 2010.05.17/outbox.cif.g08.bks.cpg/sg60_7_cif.got.tgz:13956.got - 2010.06.03 14:59:27.
