data_PCOD9458365
_publ_section_title
;
Structure prediction by ZEFSAII (Michael W. Deem and Ramdas Pophale) SiO2 
 PCOD9458365
Probable space group: P B C N
;
_chemical_formula_sum "Si O2"
_cell_formula_units_Z 48
_cell_length_a 12.632204
_cell_length_b 8.263971
_cell_length_c 19.887155
_cell_angle_alpha 90.000000
_cell_angle_beta 90.000000
_cell_angle_gamma 90.000000
_cell_volume 2076.063216
_symmetry_space_group_name_H-M "P B C N"
_symmetry_group_IT_number 60
_symmetry_cell_setting 'orthorhombic'
loop_
_space_group_symop_operation_xyz
x,y,z
1/2-x,1/2-y,1/2+z
1/2+x,1/2-y,-z
-x,y,1/2-z
-x,-y,-z
1/2+x,1/2+y,1/2-z
1/2-x,1/2+y,z
x,-y,1/2+z
loop_
_atom_site_type_symbol
_atom_site_label
_atom_site_fract_x
_atom_site_fract_y
_atom_site_fract_z
Si Si1 0.775841 0.089533 0.717095
Si Si2 0.450444 0.512753 0.606544
Si Si3 0.852499 0.870432 0.530642
Si Si4 0.530828 0.811114 0.678802
Si Si5 0.113196 0.216224 0.217848
Si Si6 0.143484 0.480702 0.415982
O O1 0.857102 0.228419 0.695727
O O2 0.699358 0.143358 0.777649
O O3 0.699999 0.071141 0.653325
O O4 0.838762 0.928855 0.736453
O O5 0.382875 0.568330 0.543020
O O6 0.568927 0.470228 0.580332
O O7 0.456849 0.659913 0.659436
O O8 0.405339 0.357089 0.644458
O O9 0.876848 0.681287 0.542183
O O10 0.730172 0.907226 0.547225
O O11 0.500000 0.887839 0.750000
O O12 0.543219 0.922168 0.613116
O O13 0.000000 0.256172 0.250000
#
# Coordination Sequence:
#
# PCOD9458365 Si02
#       6
#     8   8   8   8   8   8
#     4  12  21  39  68  94 125 174 212 272 345 396
#     4  11  23  43  64  91 133 175 222 272 340 394
#     4  11  24  41  66  90 129 185 218 270 326 413
#     4  12  23  41  69  96 132 172 219 285 341 401
#     4  12  23  41  66  98 133 167 219 286 336 398
#     4  12  22  41  66  96 127 171 229 264 337 410
#
# _framework density 23.120684000000001
#
# number of rings (size 3 to 8) (size 9 to 14) (size 15 to 20)
#    0.000    0.333    8.333    1.000    0.000    4.000 
#    0.000    0.000    0.000    0.000    0.000    0.000 
#    0.000    0.000    0.000    0.000    0.000    0.000 
#
# Total GULP energy -268727.119919 kJ/mol
# GULP energy per Si atom -5598.481665 kJ/mol
# Density = 2.306806 g / cm^3
# Si number density = 23.120684 Si / 1000 Ang^3
#
#
#
# Elastic Constant Matrix: (Units=GPa)
#
#
# Indices 1 2 3 4 5 6 
#
# 1 52.2889 19.5642 14.6866 0.0000 0.0000 0.0000
# 2 19.5642 72.7981 0.5186 0.0000 0.0000 0.0000
# 3 14.6866 0.5186 77.5727 0.0000 0.0000 0.0000
# 4 0.0000 0.0000 0.0000 9.0837 0.0000 0.0000
# 5 0.0000 0.0000 0.0000 0.0000 30.7900 0.0000
# 6 0.0000 0.0000 0.0000 0.0000 0.0000 25.5624
#
#
#
# Elastic Compliance Matrix: (Units=1/GPa)
#
#
# Indices 1 2 3 4 5 6 
#
# 1 0.022572 -0.006036 -0.004233 0.000000 0.000000 0.000000
# 2 -0.006036 0.015351 0.001040 0.000000 0.000000 0.000000
# 3 -0.004233 0.001040 0.013686 0.000000 0.000000 0.000000
# 4 0.000000 0.000000 0.000000 0.110088 0.000000 0.000000
# 5 0.000000 0.000000 0.000000 0.000000 0.032478 0.000000
# 6 0.000000 0.000000 0.000000 0.000000 0.000000 0.039120
#
#
# Mechanical properties :
#
#
# Convention : Reuss Voigt Hill
#
# Bulk Modulus (GPa) = 30.16499 30.24428 30.20463
# Shear Modulus (GPa) = 19.02569 24.27990 21.65280
#
# Velocity S-wave (km/s) = 2.87171 3.24410 3.06357
# Velocity P-wave (km/s) = 4.90619 5.20977 5.06026
#
# Compressibility (1/GPa) = 0.03315101
#
# Stress axis : x y z
#
# Youngs Moduli (GPa) = 44.30289 65.14091 73.06940
#
# Poissons Ratio (x) = 0.39319 0.30931
# Poissons Ratio (y) = 0.26741 -0.07600
# Poissons Ratio (z) = 0.18754 -0.06776
#
# Static dielectric constant tensor:
#      x y z
#    x 1.874860 0.000000 0.000000 
#    y 0.000000 1.903840 0.000000 
#    z 0.000000 0.000000 1.856200 
# 
# From -- ./inp_files/20529.got.cif
#   From: 2010.05.17/outbox.cif.g08.bks.cpg/sg60_11_cif.got.tgz:20529.got - 2010.06.03 14:59:27.
