data_PCOD9458113
_publ_section_title
;
Structure prediction by ZEFSAII (Michael W. Deem and Ramdas Pophale) SiO2 
 PCOD9458113
Probable space group: P B C N
;
_chemical_formula_sum "Si O2"
_cell_formula_units_Z 32
_cell_length_a 14.662813
_cell_length_b 10.421006
_cell_length_c 8.108272
_cell_angle_alpha 90.000000
_cell_angle_beta 90.000000
_cell_angle_gamma 90.000000
_cell_volume 1238.954196
_symmetry_space_group_name_H-M "P B C N"
_symmetry_group_IT_number 60
_symmetry_cell_setting 'orthorhombic'
loop_
_space_group_symop_operation_xyz
x,y,z
1/2-x,1/2-y,1/2+z
1/2+x,1/2-y,-z
-x,y,1/2-z
-x,-y,-z
1/2+x,1/2+y,1/2-z
1/2-x,1/2+y,z
x,-y,1/2+z
loop_
_atom_site_type_symbol
_atom_site_label
_atom_site_fract_x
_atom_site_fract_y
_atom_site_fract_z
Si Si1 0.433510 0.206187 0.962796
Si Si2 0.707760 0.641190 0.844980
Si Si3 0.136861 0.242041 0.986980
Si Si4 0.865348 0.523867 0.254336
O O1 0.364732 0.321258 0.013845
O O2 0.533573 0.267159 0.953039
O O3 0.425518 0.105503 0.117052
O O4 0.405706 0.109943 0.815364
O O5 0.660034 0.651435 0.666871
O O6 0.768122 0.514101 0.832630
O O7 0.784018 0.751935 0.877732
O O8 0.144352 0.381548 0.899335
#
# Coordination Sequence:
#
# PCOD9458113 Si02
#       4
#     8   8   8   8
#     4  11  24  40  64  98 125 164 204 262 310 367
#     4  11  22  39  60  94 127 160 203 255 312 366
#     4  11  24  40  63  92 125 161 208 257 309 365
#     4  11  21  38  64  92 126 156 206 258 308 360
#
# _framework density 25.828233999999998
#
# number of rings (size 3 to 8) (size 9 to 14) (size 15 to 20)
#    0.000    1.000    5.000    3.750    3.500    0.000 
#    0.000    0.000    0.000   24.000    0.000    0.000 
#    0.000    0.000    0.000    0.000    0.000    0.000 
#
# Total GULP energy -178786.136562 kJ/mol
# GULP energy per Si atom -5587.066768 kJ/mol
# Density = 2.576945 g / cm^3
# Si number density = 25.828234 Si / 1000 Ang^3
#
#
#
# Elastic Constant Matrix: (Units=GPa)
#
#
# Indices 1 2 3 4 5 6 
#
# 1 157.7287 33.2501 13.0053 0.0000 0.0000 0.0000
# 2 33.2501 54.3069 2.0604 0.0000 0.0000 0.0000
# 3 13.0053 2.0604 52.6623 0.0000 0.0000 0.0000
# 4 0.0000 0.0000 0.0000 8.1682 0.0000 0.0000
# 5 0.0000 0.0000 0.0000 0.0000 43.6621 0.0000
# 6 0.0000 0.0000 0.0000 0.0000 0.0000 26.5840
#
#
#
# Elastic Compliance Matrix: (Units=1/GPa)
#
#
# Indices 1 2 3 4 5 6 
#
# 1 0.007421 -0.004481 -0.001657 0.000000 0.000000 0.000000
# 2 -0.004481 0.021147 0.000279 0.000000 0.000000 0.000000
# 3 -0.001657 0.000279 0.019387 0.000000 0.000000 0.000000
# 4 0.000000 0.000000 0.000000 0.122425 0.000000 0.000000
# 5 0.000000 0.000000 0.000000 0.000000 0.022903 0.000000
# 6 0.000000 0.000000 0.000000 0.000000 0.000000 0.037617
#
#
# Mechanical properties :
#
#
# Convention : Reuss Voigt Hill
#
# Bulk Modulus (GPa) = 27.59600 40.14772 33.87186
# Shear Modulus (GPa) = 19.63113 30.10834 24.86973
#
# Velocity S-wave (km/s) = 2.75992 3.41796 3.10641
# Velocity P-wave (km/s) = 4.56769 5.58162 5.09992
#
# Compressibility (1/GPa) = 0.03623714
#
# Stress axis : x y z
#
# Youngs Moduli (GPa) = 134.74816 47.28864 51.58019
#
# Poissons Ratio (x) = 0.21189 0.08549
# Poissons Ratio (y) = 0.60379 -0.01440
# Poissons Ratio (z) = 0.22333 -0.01320
#
# Static dielectric constant tensor:
#      x y z
#    x 2.085470 0.000000 0.000000 
#    y 0.000000 2.049300 0.000000 
#    z 0.000000 0.000000 2.130880 
# 
# From -- ./inp_files/4537.got.cif
#   From: 2010.05.17/outbox.cif.g08.bks.cpg/sg60_3_cif.got.tgz:4537.got - 2010.06.03 14:59:27.
