data_PCOD9458004
_publ_section_title
;
Structure prediction by ZEFSAII (Michael W. Deem and Ramdas Pophale) SiO2 
 PCOD9458004
Probable space group: P B C N
;
_chemical_formula_sum "Si O2"
_cell_formula_units_Z 56
_cell_length_a 12.205316
_cell_length_b 14.493254
_cell_length_c 12.246470
_cell_angle_alpha 90.000000
_cell_angle_beta 90.000000
_cell_angle_gamma 90.000000
_cell_volume 2166.336187
_symmetry_space_group_name_H-M "P B C N"
_symmetry_group_IT_number 60
_symmetry_cell_setting 'orthorhombic'
loop_
_space_group_symop_operation_xyz
x,y,z
1/2-x,1/2-y,1/2+z
1/2+x,1/2-y,-z
-x,y,1/2-z
-x,-y,-z
1/2+x,1/2+y,1/2-z
1/2-x,1/2+y,z
x,-y,1/2+z
loop_
_atom_site_type_symbol
_atom_site_label
_atom_site_fract_x
_atom_site_fract_y
_atom_site_fract_z
Si Si1 0.000000 0.850216 0.250000
Si Si2 0.240951 0.310388 0.878864
Si Si3 0.875382 0.658130 0.910175
Si Si4 0.000000 0.444685 0.250000
Si Si5 0.511028 0.674206 0.126565
Si Si6 0.324191 0.895363 0.431455
Si Si7 0.832022 0.286031 0.852666
Si Si8 0.401712 0.439228 0.454057
O O1 0.931207 0.782104 0.326200
O O2 0.930701 0.912932 0.169007
O O3 0.364146 0.344021 0.907194
O O4 0.263428 0.197937 0.880577
O O5 0.203936 0.336901 0.757853
O O6 0.146846 0.342707 0.961400
O O7 0.981949 0.717531 0.870557
O O8 0.769083 0.717042 0.875444
O O9 0.896616 0.568269 0.839180
O O10 0.910879 0.443564 0.146730
O O11 0.500000 0.638482 0.250000
O O12 0.419503 0.642397 0.041711
O O13 0.361236 0.852725 0.547689
O O14 0.224312 0.964862 0.457510
O O15 0.500000 0.500000 0.500000
#
# Coordination Sequence:
#
# PCOD9458004 Si02
#       8
#     4   8   8   4   8   8   8   8
#     4  12  24  40  59  94 133 174 218 288 338 400
#     4  11  19  31  53  89 126 162 209 271 348 412
#     4  11  18  29  53  85 126 164 201 260 345 414
#     4  12  20  34  57  90 127 170 210 276 354 418
#     4  12  19  36  59  85 125 169 212 265 332 400
#     4  11  21  36  58  92 127 176 218 278 347 406
#     4  11  20  34  58  92 137 163 212 280 350 416
#     4  12  26  42  60  89 137 184 234 271 325 415
#
# _framework density 25.850097000000002
#
# number of rings (size 3 to 8) (size 9 to 14) (size 15 to 20)
#    0.000    0.571    9.286    1.714    3.000    0.000 
#    0.000    0.000    0.000    0.000    0.000   10.000 
#    0.000    0.571    0.000    0.000    0.000    0.000 
#
# Total GULP energy -312036.004048 kJ/mol
# GULP energy per Si atom -5572.071501 kJ/mol
# Density = 2.579126 g / cm^3
# Si number density = 25.850097 Si / 1000 Ang^3
#
#
#
# Elastic Constant Matrix: (Units=GPa)
#
#
# Indices 1 2 3 4 5 6 
#
# 1 113.9281 18.1759 52.3830 0.0000 0.0000 0.0000
# 2 18.1759 43.8362 2.3794 0.0000 0.0000 0.0000
# 3 52.3830 2.3794 186.1668 0.0000 0.0000 0.0000
# 4 0.0000 0.0000 0.0000 -6.0857 0.0000 0.0000
# 5 0.0000 0.0000 0.0000 0.0000 65.5242 0.0000
# 6 0.0000 0.0000 0.0000 0.0000 0.0000 -12.0307
#
#
#
# Elastic Compliance Matrix: (Units=1/GPa)
#
#
# Indices 1 2 3 4 5 6 
#
# 1 0.010847 -0.004335 -0.002997 0.000000 0.000000 0.000000
# 2 -0.004335 0.024560 0.000906 0.000000 0.000000 0.000000
# 3 -0.002997 0.000906 0.006203 0.000000 0.000000 0.000000
# 4 0.000000 0.000000 0.000000 -0.164319 0.000000 0.000000
# 5 0.000000 0.000000 0.000000 0.000000 0.015262 0.000000
# 6 0.000000 0.000000 0.000000 0.000000 0.000000 -0.083120
#
#
# Mechanical properties :
#
#
# Convention : Reuss Voigt Hill
#
# Bulk Modulus (GPa) = 34.77159 54.42306 44.59733
# Shear Modulus (GPa) = -29.73882 27.54775 -1.09554
#
# Velocity S-wave (km/s) = -3.39548 3.26801 -0.65171
# Velocity P-wave (km/s) = 1.37549 5.94465 4.08943
#
# Compressibility (1/GPa) = 0.02875911
#
# Stress axis : x y z
#
# Youngs Moduli (GPa) = 92.19260 40.71597 161.20879
#
# Poissons Ratio (x) = 0.17650 0.48309
# Poissons Ratio (y) = 0.39964 -0.14602
# Poissons Ratio (z) = 0.27627 -0.03688
#
# Static dielectric constant tensor:
#      x y z
#    x 2.046820 0.000000 0.000000 
#    y 0.000000 2.502940 0.000000 
#    z 0.000000 0.000000 2.070350 
# 
# From -- ./inp_files/11233.got.cif
#   From: 2010.05.17/outbox.cif.g08.bks.cpg/sg60_6_cif.got.tgz:11233.got - 2010.06.03 14:59:27.
