data_PCOD9458101
_publ_section_title
;
Structure prediction by ZEFSAII (Michael W. Deem and Ramdas Pophale) SiO2 
 PCOD9458101
Probable space group: P B C N
;
_chemical_formula_sum "Si O2"
_cell_formula_units_Z 40
_cell_length_a 10.765455
_cell_length_b 8.343534
_cell_length_c 20.804673
_cell_angle_alpha 90.000000
_cell_angle_beta 90.000000
_cell_angle_gamma 90.000000
_cell_volume 1868.716086
_symmetry_space_group_name_H-M "P B C N"
_symmetry_group_IT_number 60
_symmetry_cell_setting 'orthorhombic'
loop_
_space_group_symop_operation_xyz
x,y,z
1/2-x,1/2-y,1/2+z
1/2+x,1/2-y,-z
-x,y,1/2-z
-x,-y,-z
1/2+x,1/2+y,1/2-z
1/2-x,1/2+y,z
x,-y,1/2+z
loop_
_atom_site_type_symbol
_atom_site_label
_atom_site_fract_x
_atom_site_fract_y
_atom_site_fract_z
Si Si1 0.832483 0.004476 0.059643
Si Si2 0.824155 0.743719 0.151416
Si Si3 0.928833 0.463550 0.432784
Si Si4 0.583851 0.926094 0.191388
Si Si5 0.194972 0.252110 0.532746
O O1 0.893902 0.883749 0.110945
O O2 0.742231 0.121098 0.100708
O O3 0.751943 0.884244 0.015863
O O4 0.890907 0.129053 0.008459
O O5 0.714625 0.834589 0.188890
O O6 0.896784 0.618121 0.194712
O O7 0.812830 0.344995 0.441328
O O8 0.876477 0.640496 0.415802
O O9 0.000000 0.500000 0.500000
O O10 0.016778 0.398581 0.377143
O O11 0.500000 0.870061 0.250000
#
# Coordination Sequence:
#
# PCOD9458101 Si02
#       5
#     8   8   8   8   8
#     4   8  13  30  55  80 114 150 175 228 281 318
#     4   9  18  37  60  82 112 150 200 228 266 364
#     4  11  21  37  59  85 118 156 191 237 295 334
#     4  11  24  41  62  83 114 156 188 235 294 336
#     4   9  18  31  54  90 122 142 190 250 280 330
#
# _framework density 21.405069999999998
#
# number of rings (size 3 to 8) (size 9 to 14) (size 15 to 20)
#    0.000    2.400    0.000    7.200    0.000    1.600 
#    0.000   26.000    0.000    0.000    0.000    0.000 
#    0.000    0.000    0.000    0.000    0.000    0.000 
#
# Total GULP energy -222807.245913 kJ/mol
# GULP energy per Si atom -5570.181148 kJ/mol
# Density = 2.135635 g / cm^3
# Si number density = 21.405070 Si / 1000 Ang^3
#
#
#
# Elastic Constant Matrix: (Units=GPa)
#
#
# Indices 1 2 3 4 5 6 
#
# 1 48.8576 7.1123 20.6603 0.0000 0.0000 0.0000
# 2 7.1123 98.4521 2.9043 0.0000 0.0000 0.0000
# 3 20.6603 2.9043 61.3698 0.0000 0.0000 0.0000
# 4 0.0000 0.0000 0.0000 19.2100 0.0000 0.0000
# 5 0.0000 0.0000 0.0000 0.0000 12.7154 0.0000
# 6 0.0000 0.0000 0.0000 0.0000 0.0000 42.7118
#
#
#
# Elastic Compliance Matrix: (Units=1/GPa)
#
#
# Indices 1 2 3 4 5 6 
#
# 1 0.024085 -0.001503 -0.008037 0.000000 0.000000 0.000000
# 2 -0.001503 0.010265 0.000020 0.000000 0.000000 0.000000
# 3 -0.008037 0.000020 0.018999 0.000000 0.000000 0.000000
# 4 0.000000 0.000000 0.000000 0.052056 0.000000 0.000000
# 5 0.000000 0.000000 0.000000 0.000000 0.078645 0.000000
# 6 0.000000 0.000000 0.000000 0.000000 0.000000 0.023413
#
#
# Mechanical properties :
#
#
# Convention : Reuss Voigt Hill
#
# Bulk Modulus (GPa) = 29.14604 30.00368 29.57486
# Shear Modulus (GPa) = 21.01369 26.79428 23.90399
#
# Velocity S-wave (km/s) = 3.13663 3.54188 3.34540
# Velocity P-wave (km/s) = 5.17339 5.54744 5.36367
#
# Compressibility (1/GPa) = 0.03430998
#
# Stress axis : x y z
#
# Youngs Moduli (GPa) = 41.51948 97.41659 52.63311
#
# Poissons Ratio (x) = 0.14640 0.42302
# Poissons Ratio (y) = 0.06240 -0.00106
# Poissons Ratio (z) = 0.33370 -0.00196
#
# Static dielectric constant tensor:
#      x y z
#    x 1.845300 0.000000 0.000000 
#    y 0.000000 1.847640 0.000000 
#    z 0.000000 0.000000 1.826780 
# 
# From -- ./inp_files/22534.got.cif
#   From: 2010.05.17/outbox.cif.g08.bks.cpg/sg60_12_cif.got.tgz:22534.got - 2010.06.03 14:59:27.
