data_PCOD9458278
_publ_section_title
;
Structure prediction by ZEFSAII (Michael W. Deem and Ramdas Pophale) SiO2 
 PCOD9458278
Probable space group: P B C N
;
_chemical_formula_sum "Si O2"
_cell_formula_units_Z 60
_cell_length_a 19.415637
_cell_length_b 12.266055
_cell_length_c 11.581369
_cell_angle_alpha 90.000000
_cell_angle_beta 90.000000
_cell_angle_gamma 90.000000
_cell_volume 2758.140914
_symmetry_space_group_name_H-M "P B C N"
_symmetry_group_IT_number 60
_symmetry_cell_setting 'orthorhombic'
loop_
_space_group_symop_operation_xyz
x,y,z
1/2-x,1/2-y,1/2+z
1/2+x,1/2-y,-z
-x,y,1/2-z
-x,-y,-z
1/2+x,1/2+y,1/2-z
1/2-x,1/2+y,z
x,-y,1/2+z
loop_
_atom_site_type_symbol
_atom_site_label
_atom_site_fract_x
_atom_site_fract_y
_atom_site_fract_z
Si Si1 0.631793 0.311900 0.213844
Si Si2 0.376567 0.923099 0.160710
Si Si3 0.534612 0.817397 0.540902
Si Si4 0.000000 0.465265 0.750000
Si Si5 0.778699 0.224046 0.286410
Si Si6 0.708101 0.900915 0.979115
Si Si7 0.320755 0.533094 0.381824
Si Si8 0.601540 0.714077 0.980540
O O1 0.588582 0.247768 0.119189
O O2 0.709290 0.267208 0.226477
O O3 0.635994 0.436366 0.174902
O O4 0.601394 0.294433 0.341313
O O5 0.429763 0.966900 0.255399
O O6 0.331675 0.822306 0.203261
O O7 0.327229 0.019100 0.114591
O O8 0.423996 0.883556 0.054634
O O9 0.476646 0.740099 0.484644
O O10 0.496454 0.895524 0.632956
O O11 0.760782 0.179516 0.413613
O O12 0.803490 0.121332 0.214644
O O13 0.649177 0.816577 0.019889
O O14 0.751764 0.977113 0.065168
O O15 0.363827 0.603009 0.474681
#
# Coordination Sequence:
#
# PCOD9458278 Si02
#       8
#     8   8   8   4   8   8   8   8
#     4  11  23  44  68  94 137 188 226 288 353 422
#     4  12  26  41  73 102 139 179 234 293 354 416
#     4  12  24  47  69 101 139 186 232 288 352 429
#     4  12  24  46  70 102 136 184 228 292 356 424
#     4  11  24  44  65 102 141 175 237 293 347 421
#     4  11  22  44  66 101 134 182 232 292 352 423
#     4  12  24  39  69  97 137 183 234 292 359 408
#     4  11  24  42  67  98 139 176 243 290 344 436
#
# _framework density 21.753782000000001
#
# number of rings (size 3 to 8) (size 9 to 14) (size 15 to 20)
#    0.000    0.533    2.667    6.800    1.867    1.600 
#    0.000    1.333    0.000    0.000    0.000    0.000 
#    0.000    0.000    0.000    0.000    0.000    0.000 
#
# Total GULP energy -335955.108878 kJ/mol
# GULP energy per Si atom -5599.251815 kJ/mol
# Density = 2.170427 g / cm^3
# Si number density = 21.753782 Si / 1000 Ang^3
#
#
#
# Elastic Constant Matrix: (Units=GPa)
#
#
# Indices 1 2 3 4 5 6 
#
# 1 82.3062 42.8753 10.3598 0.0000 0.0000 0.0000
# 2 42.8753 134.0991 19.2421 0.0000 0.0000 0.0000
# 3 10.3598 19.2421 43.7191 0.0000 0.0000 0.0000
# 4 0.0000 0.0000 0.0000 40.8711 0.0000 0.0000
# 5 0.0000 0.0000 0.0000 0.0000 -99.8649 0.0000
# 6 0.0000 0.0000 0.0000 0.0000 0.0000 39.0549
#
#
#
# Elastic Compliance Matrix: (Units=1/GPa)
#
#
# Indices 1 2 3 4 5 6 
#
# 1 0.014670 -0.004474 -0.001507 0.000000 0.000000 0.000000
# 2 -0.004474 0.009324 -0.003044 0.000000 0.000000 0.000000
# 3 -0.001507 -0.003044 0.024570 0.000000 0.000000 0.000000
# 4 0.000000 0.000000 0.000000 0.024467 0.000000 0.000000
# 5 0.000000 0.000000 0.000000 0.000000 -0.010014 0.000000
# 6 0.000000 0.000000 0.000000 0.000000 0.000000 0.025605
#
#
# Mechanical properties :
#
#
# Convention : Reuss Voigt Hill
#
# Bulk Modulus (GPa) = 32.77113 45.00875 38.88994
# Shear Modulus (GPa) = 42.79174 8.52202 25.65688
#
# Velocity S-wave (km/s) = 4.44001 1.98141 3.43800
# Velocity P-wave (km/s) = 6.43289 5.09604 5.80309
#
# Compressibility (1/GPa) = 0.03051467
#
# Stress axis : x y z
#
# Youngs Moduli (GPa) = 68.16553 107.24483 40.69990
#
# Poissons Ratio (x) = 0.47984 0.06134
# Poissons Ratio (y) = 0.30499 0.12388
# Poissons Ratio (z) = 0.10273 0.32643
#
# Static dielectric constant tensor:
#      x y z
#    x 1.809440 0.000000 0.000000 
#    y 0.000000 1.762440 0.000000 
#    z 0.000000 0.000000 1.814190 
# 
# From -- ./inp_files/12881.got.cif
#   From: 2010.05.17/outbox.cif.g08.bks.cpg/sg60_7_cif.got.tgz:12881.got - 2010.06.03 14:59:27.
