data_PCOD9458367
_publ_section_title
;
Structure prediction by ZEFSAII (Michael W. Deem and Ramdas Pophale) SiO2 
 PCOD9458367
Probable space group: P B C N
;
_chemical_formula_sum "Si O2"
_cell_formula_units_Z 40
_cell_length_a 23.766663
_cell_length_b 5.188033
_cell_length_c 13.524405
_cell_angle_alpha 90.000000
_cell_angle_beta 90.000000
_cell_angle_gamma 90.000000
_cell_volume 1667.589322
_symmetry_space_group_name_H-M "P B C N"
_symmetry_group_IT_number 60
_symmetry_cell_setting 'orthorhombic'
loop_
_space_group_symop_operation_xyz
x,y,z
1/2-x,1/2-y,1/2+z
1/2+x,1/2-y,-z
-x,y,1/2-z
-x,-y,-z
1/2+x,1/2+y,1/2-z
1/2-x,1/2+y,z
x,-y,1/2+z
loop_
_atom_site_type_symbol
_atom_site_label
_atom_site_fract_x
_atom_site_fract_y
_atom_site_fract_z
Si Si1 0.840210 0.832237 0.436835
Si Si2 0.509857 0.252524 0.567745
Si Si3 0.105891 0.662886 0.642601
Si Si4 0.785086 0.798202 0.234122
Si Si5 0.364756 0.663607 0.351259
O O1 0.885152 0.618837 0.401375
O O2 0.792787 0.805650 0.353329
O O3 0.828564 0.774697 0.550940
O O4 0.865321 0.119377 0.426276
O O5 0.500000 0.500000 0.500000
O O6 0.459562 0.233586 0.647457
O O7 0.571428 0.291862 0.612985
O O8 0.500000 0.000000 0.500000
O O9 0.136851 0.684330 0.747760
O O10 0.754900 0.537025 0.206226
O O11 0.844289 0.878232 0.183224
#
# Coordination Sequence:
#
# PCOD9458367 Si02
#       5
#     8   8   8   8   8
#     4  11  24  44  70  98 141 185 235 301 364 437
#     4  12  23  42  68 105 149 190 236 294 368 446
#     4  11  23  43  66 105 145 186 236 292 353 449
#     4  11  26  47  69 102 135 179 246 310 365 433
#     4  11  25  44  75 102 142 195 241 295 377 444
#
# _framework density 23.986720999999999
#
# number of rings (size 3 to 8) (size 9 to 14) (size 15 to 20)
#    0.000    0.800    4.000    3.000    0.000   11.200 
#    0.000    6.000    0.000    0.000    0.000    0.000 
#    0.000    0.000    0.000    0.000    0.000    0.000 
#
# Total GULP energy -223581.254394 kJ/mol
# GULP energy per Si atom -5589.531360 kJ/mol
# Density = 2.393213 g / cm^3
# Si number density = 23.986721 Si / 1000 Ang^3
#
#
#
# Elastic Constant Matrix: (Units=GPa)
#
#
# Indices 1 2 3 4 5 6 
#
# 1 98.6176 41.6367 26.2391 0.0000 0.0000 0.0000
# 2 41.6367 127.3748 30.5668 0.0000 0.0000 0.0000
# 3 26.2391 30.5668 163.5667 0.0000 0.0000 0.0000
# 4 0.0000 0.0000 0.0000 21.3413 0.0000 0.0000
# 5 0.0000 0.0000 0.0000 0.0000 50.5154 0.0000
# 6 0.0000 0.0000 0.0000 0.0000 0.0000 43.4627
#
#
#
# Elastic Compliance Matrix: (Units=1/GPa)
#
#
# Indices 1 2 3 4 5 6 
#
# 1 0.012002 -0.003624 -0.001248 0.000000 0.000000 0.000000
# 2 -0.003624 0.009314 -0.001159 0.000000 0.000000 0.000000
# 3 -0.001248 -0.001159 0.006531 0.000000 0.000000 0.000000
# 4 0.000000 0.000000 0.000000 0.046857 0.000000 0.000000
# 5 0.000000 0.000000 0.000000 0.000000 0.019796 0.000000
# 6 0.000000 0.000000 0.000000 0.000000 0.000000 0.023008
#
#
# Mechanical properties :
#
#
# Convention : Reuss Voigt Hill
#
# Bulk Modulus (GPa) = 63.35487 65.16047 64.25767
# Shear Modulus (GPa) = 37.08327 42.47166 39.77746
#
# Velocity S-wave (km/s) = 3.93618 4.21245 4.07666
# Velocity P-wave (km/s) = 6.86497 7.13329 7.00042
#
# Compressibility (1/GPa) = 0.01578411
#
# Stress axis : x y z
#
# Youngs Moduli (GPa) = 83.31764 107.37005 153.12614
#
# Poissons Ratio (x) = 0.38909 0.19113
# Poissons Ratio (y) = 0.30193 0.17750
# Poissons Ratio (z) = 0.10399 0.12446
#
# Static dielectric constant tensor:
#      x y z
#    x 1.987440 0.000000 0.000000 
#    y 0.000000 1.907300 0.000000 
#    z 0.000000 0.000000 1.895090 
# 
# From -- ./inp_files/17988.got.cif
#   From: 2010.05.17/outbox.cif.g08.bks.cpg/sg60_9_cif.got.tgz:17988.got - 2010.06.03 14:59:27.
