data_PCOD9458917
_publ_section_title
;
Structure prediction by ZEFSAII (Michael W. Deem and Ramdas Pophale) SiO2 
 PCOD9458917
Probable space group: P B C N
;
_chemical_formula_sum "Si O2"
_cell_formula_units_Z 40
_cell_length_a 9.000000
_cell_length_b 24.000000
_cell_length_c 9.000000
_cell_angle_alpha 90.000000
_cell_angle_beta 90.000000
_cell_angle_gamma 90.000000
_cell_volume 1944.000000
_symmetry_space_group_name_H-M "P B C N"
_symmetry_group_IT_number 60
_symmetry_cell_setting 'orthorhombic'
loop_
_space_group_symop_operation_xyz
x,y,z
1/2-x,1/2-y,1/2+z
1/2+x,1/2-y,-z
-x,y,1/2-z
-x,-y,-z
1/2+x,1/2+y,1/2-z
1/2-x,1/2+y,z
x,-y,1/2+z
loop_
_atom_site_type_symbol
_atom_site_label
_atom_site_fract_x
_atom_site_fract_y
_atom_site_fract_z
Si Si1 0.192086 0.551808 0.572656
Si Si2 0.203565 0.319694 0.571097
Si Si3 0.832858 0.436765 0.081329
Si Si4 0.982484 0.773306 0.076329
Si Si5 0.638088 0.638560 0.142263
O O1 0.221478 0.489087 0.515780
O O2 0.223764 0.558555 0.748614
O O3 0.278336 0.592473 0.458442
O O4 0.013192 0.561327 0.569134
O O5 0.212602 0.378165 0.487328
O O6 0.318140 0.278832 0.488300
O O7 0.251548 0.331751 0.740284
O O8 0.047208 0.288719 0.560575
O O9 0.000000 0.788537 0.250000
O O10 0.071950 0.816576 0.972642
O O11 0.500000 0.618817 0.250000
#
# Coordination Sequence:
#
# PCOD9458917 Si02
#       5
#     8   8   8   8   8
#     4  10  21  41  65  96 128 165 212 264 325 381
#     4  11  24  41  64  96 128 169 214 262 319 375
#     4  10  22  39  67  96 126 166 213 266 318 389
#     4  11  24  42  62  93 128 173 214 261 315 378
#     4  10  23  42  64  93 130 169 216 265 320 390
#
# _framework density 20.576132000000001
#
# number of rings (size 3 to 8) (size 9 to 14) (size 15 to 20)
#    0.000    1.600    0.000    3.600    5.600    1.600 
#    7.200   10.000    0.000    0.000    0.000    0.000 
#    0.000    0.000    0.000    0.000    0.000    0.000 
#
# Total GULP energy -223536.389908 kJ/mol
# GULP energy per Si atom -5588.409748 kJ/mol
# Density = 2.052930 g / cm^3
# Si number density = 20.576132 Si / 1000 Ang^3
#
#
#
# Elastic Constant Matrix: (Units=GPa)
#
#
# Indices 1 2 3 4 5 6 
#
# 1 53.8751 43.0596 34.6237 0.0000 0.0000 0.0000
# 2 43.0596 97.2542 65.9848 0.0000 0.0000 0.0000
# 3 34.6237 65.9848 185.1139 0.0000 0.0000 0.0000
# 4 0.0000 0.0000 0.0000 32.4045 0.0000 0.0000
# 5 0.0000 0.0000 0.0000 0.0000 40.8421 0.0000
# 6 0.0000 0.0000 0.0000 0.0000 0.0000 34.8738
#
#
#
# Elastic Compliance Matrix: (Units=1/GPa)
#
#
# Indices 1 2 3 4 5 6 
#
# 1 0.028900 -0.012040 -0.001114 0.000000 0.000000 0.000000
# 2 -0.012040 0.018578 -0.004370 0.000000 0.000000 0.000000
# 3 -0.001114 -0.004370 0.007168 0.000000 0.000000 0.000000
# 4 0.000000 0.000000 0.000000 0.030860 0.000000 0.000000
# 5 0.000000 0.000000 0.000000 0.000000 0.024485 0.000000
# 6 0.000000 0.000000 0.000000 0.000000 0.000000 0.028675
#
#
# Mechanical properties :
#
#
# Convention : Reuss Voigt Hill
#
# Bulk Modulus (GPa) = 51.02442 69.28660 60.15551
# Shear Modulus (GPa) = 27.73970 34.46243 31.10106
#
# Velocity S-wave (km/s) = 3.67570 4.09696 3.89203
# Velocity P-wave (km/s) = 6.54722 7.49176 7.03536
#
# Compressibility (1/GPa) = 0.01959846
#
# Stress axis : x y z
#
# Youngs Moduli (GPa) = 34.60180 53.82629 139.50428
#
# Poissons Ratio (x) = 0.64807 0.15538
# Poissons Ratio (y) = 0.41661 0.60968
# Poissons Ratio (z) = 0.03854 0.23524
#
# Static dielectric constant tensor:
#      x y z
#    x 1.776500 0.000000 0.000000 
#    y 0.000000 1.704940 0.000000 
#    z 0.000000 0.000000 1.697710 
# 
# From -- ./inp_files/3878.got.cif
#   From: 2010.05.17/outbox.ucp.g08.bks.cvg/sg60_2_cif.got.tgz:3878.got - 2010.06.11 16:26:41.
