data_PCOD9458654
_publ_section_title
;
Structure prediction by ZEFSAII (Michael W. Deem and Ramdas Pophale) SiO2 
 PCOD9458654
Probable space group: P B C N
;
_chemical_formula_sum "Si O2"
_cell_formula_units_Z 40
_cell_length_a 7.582587
_cell_length_b 10.302338
_cell_length_c 18.053741
_cell_angle_alpha 90.000000
_cell_angle_beta 90.000000
_cell_angle_gamma 90.000000
_cell_volume 1410.328895
_symmetry_space_group_name_H-M "P B C N"
_symmetry_group_IT_number 60
_symmetry_cell_setting 'orthorhombic'
loop_
_space_group_symop_operation_xyz
x,y,z
1/2-x,1/2-y,1/2+z
1/2+x,1/2-y,-z
-x,y,1/2-z
-x,-y,-z
1/2+x,1/2+y,1/2-z
1/2-x,1/2+y,z
x,-y,1/2+z
loop_
_atom_site_type_symbol
_atom_site_label
_atom_site_fract_x
_atom_site_fract_y
_atom_site_fract_z
Si Si1 0.440038 0.215186 0.454046
Si Si2 0.236975 0.614905 0.758575
Si Si3 0.106826 0.362197 0.407472
Si Si4 0.437567 0.516632 0.898723
Si Si5 0.737641 0.866916 0.843104
O O1 0.245593 0.247179 0.425325
O O2 0.451410 0.156431 0.535823
O O3 0.512793 0.367621 0.450153
O O4 0.579283 0.142495 0.401616
O O5 0.084192 0.640581 0.820007
O O6 0.603228 0.581782 0.682733
O O7 0.264265 0.738728 0.707093
O O8 0.210916 0.485577 0.712450
O O9 0.231304 0.487861 0.424410
O O10 0.578293 0.404451 0.884079
#
# Coordination Sequence:
#
# PCOD9458654 Si02
#       5
#     8   8   8   8   8
#     4   9  20  39  71  94 135 184 225 277 347 405
#     4   9  22  39  68  95 136 176 228 285 341 404
#     4   8  20  45  63  97 140 179 224 288 338 407
#     4   8  21  40  65  90 140 172 225 282 338 399
#     4  12  18  40  70  96 130 183 221 281 353 394
#
# _framework density 28.362179000000001
#
# number of rings (size 3 to 8) (size 9 to 14) (size 15 to 20)
#    2.400    0.000    2.000    0.600    2.800    0.800 
#   10.800    1.000   30.800    0.000    0.000    0.000 
#    0.000    0.000    0.000    0.000    0.000    0.000 
#
# Total GULP energy -223739.936347 kJ/mol
# GULP energy per Si atom -5593.498409 kJ/mol
# Density = 2.829763 g / cm^3
# Si number density = 28.362179 Si / 1000 Ang^3
#
#
#
# Elastic Constant Matrix: (Units=GPa)
#
#
# Indices 1 2 3 4 5 6 
#
# 1 165.7998 25.7770 45.7778 0.0000 0.0000 0.0000
# 2 25.7770 135.3618 31.9588 0.0000 0.0000 0.0000
# 3 45.7778 31.9588 169.9913 0.0000 0.0000 0.0000
# 4 0.0000 0.0000 0.0000 211.5354 0.0000 0.0000
# 5 0.0000 0.0000 0.0000 0.0000 52.3825 0.0000
# 6 0.0000 0.0000 0.0000 0.0000 0.0000 46.7332
#
#
#
# Elastic Compliance Matrix: (Units=1/GPa)
#
#
# Indices 1 2 3 4 5 6 
#
# 1 0.006614 -0.000878 -0.001616 0.000000 0.000000 0.000000
# 2 -0.000878 0.007847 -0.001239 0.000000 0.000000 0.000000
# 3 -0.001616 -0.001239 0.006551 0.000000 0.000000 0.000000
# 4 0.000000 0.000000 0.000000 0.004727 0.000000 0.000000
# 5 0.000000 0.000000 0.000000 0.000000 0.019090 0.000000
# 6 0.000000 0.000000 0.000000 0.000000 0.000000 0.021398
#
#
# Mechanical properties :
#
#
# Convention : Reuss Voigt Hill
#
# Bulk Modulus (GPa) = 73.82096 75.35337 74.58716
# Shear Modulus (GPa) = 63.93112 86.63951 75.28531
#
# Velocity S-wave (km/s) = 4.75288 5.53298 5.15770
# Velocity P-wave (km/s) = 7.49696 8.21246 7.86285
#
# Compressibility (1/GPa) = 0.01354629
#
# Stress axis : x y z
#
# Youngs Moduli (GPa) = 151.19283 127.43241 152.65389
#
# Poissons Ratio (x) = 0.11188 0.24670
# Poissons Ratio (y) = 0.13274 0.18912
# Poissons Ratio (z) = 0.24434 0.15787
#
# Static dielectric constant tensor:
#      x y z
#    x 2.417980 0.000000 0.000000 
#    y 0.000000 2.354190 0.000000 
#    z 0.000000 0.000000 2.288900 
# 
# From -- ./inp_files/15828.got.cif
#   From: 2010.05.17/outbox.cif.g08.bks.cpg/sg60_8_cif.got.tgz:15828.got - 2010.06.03 14:59:27.
