data_PCOD9458560
_publ_section_title
;
Structure prediction by ZEFSAII (Michael W. Deem and Ramdas Pophale) SiO2 
 PCOD9458560
Probable space group: P B C N
;
_chemical_formula_sum "Si O2"
_cell_formula_units_Z 36
_cell_length_a 9.033072
_cell_length_b 22.801417
_cell_length_c 7.991177
_cell_angle_alpha 90.000000
_cell_angle_beta 90.000000
_cell_angle_gamma 90.000000
_cell_volume 1645.917486
_symmetry_space_group_name_H-M "P B C N"
_symmetry_group_IT_number 60
_symmetry_cell_setting 'orthorhombic'
loop_
_space_group_symop_operation_xyz
x,y,z
1/2-x,1/2-y,1/2+z
1/2+x,1/2-y,-z
-x,y,1/2-z
-x,-y,-z
1/2+x,1/2+y,1/2-z
1/2-x,1/2+y,z
x,-y,1/2+z
loop_
_atom_site_type_symbol
_atom_site_label
_atom_site_fract_x
_atom_site_fract_y
_atom_site_fract_z
Si Si1 0.543111 0.291562 0.519871
Si Si2 0.666869 0.476428 0.534490
Si Si3 0.325826 0.077816 0.785809
Si Si4 0.764566 0.790287 0.185884
Si Si5 0.500000 0.602084 0.250000
O O1 0.392550 0.268012 0.439724
O O2 0.656674 0.294044 0.365081
O O3 0.629776 0.254006 0.658263
O O4 0.496822 0.354644 0.592202
O O5 0.500000 0.500000 0.500000
O O6 0.732721 0.438538 0.382465
O O7 0.772609 0.530104 0.579701
O O8 0.640651 0.437756 0.702784
O O9 0.500000 0.073243 0.750000
O O10 0.289487 0.143486 0.846590
#
# Coordination Sequence:
#
# PCOD9458560 Si02
#       5
#     8   8   8   8   4
#     4  11  25  44  71 106 143 191 252 305 378 452
#     4  12  24  45  74 107 144 200 250 300 370 466
#     4  12  27  46  72 109 153 191 248 320 385 442
#     4  11  26  45  71 104 145 192 246 315 379 453
#     4  12  22  40  76 100 140 188 252 290 366 456
#
# _framework density 21.872299000000002
#
# number of rings (size 3 to 8) (size 9 to 14) (size 15 to 20)
#    0.000    0.444    4.444    3.333    7.778    0.000 
#    0.000    0.000    0.000    0.000    0.000    0.000 
#    0.000    0.000    0.000    0.000    0.000    0.000 
#
# Total GULP energy -201142.103202 kJ/mol
# GULP energy per Si atom -5587.280644 kJ/mol
# Density = 2.182252 g / cm^3
# Si number density = 21.872299 Si / 1000 Ang^3
#
#
#
# Elastic Constant Matrix: (Units=GPa)
#
#
# Indices 1 2 3 4 5 6 
#
# 1 152.3666 51.7082 36.6764 0.0000 0.0000 0.0000
# 2 51.7082 86.1384 0.7154 0.0000 0.0000 0.0000
# 3 36.6764 0.7154 75.6647 0.0000 0.0000 0.0000
# 4 0.0000 0.0000 0.0000 32.3528 0.0000 0.0000
# 5 0.0000 0.0000 0.0000 0.0000 51.2005 0.0000
# 6 0.0000 0.0000 0.0000 0.0000 0.0000 28.9760
#
#
#
# Elastic Compliance Matrix: (Units=1/GPa)
#
#
# Indices 1 2 3 4 5 6 
#
# 1 0.009619 -0.005736 -0.004608 0.000000 0.000000 0.000000
# 2 -0.005736 0.015031 0.002638 0.000000 0.000000 0.000000
# 3 -0.004608 0.002638 0.015425 0.000000 0.000000 0.000000
# 4 0.000000 0.000000 0.000000 0.030909 0.000000 0.000000
# 5 0.000000 0.000000 0.000000 0.000000 0.019531 0.000000
# 6 0.000000 0.000000 0.000000 0.000000 0.000000 0.034511
#
#
# Mechanical properties :
#
#
# Convention : Reuss Voigt Hill
#
# Bulk Modulus (GPa) = 40.54737 54.70773 47.62755
# Shear Modulus (GPa) = 33.63404 37.51051 35.57228
#
# Velocity S-wave (km/s) = 3.92566 4.14572 4.03719
# Velocity P-wave (km/s) = 6.25510 6.92695 6.59958
#
# Compressibility (1/GPa) = 0.02466251
#
# Stress axis : x y z
#
# Youngs Moduli (GPa) = 103.96121 66.53123 64.82983
#
# Poissons Ratio (x) = 0.38162 0.29876
# Poissons Ratio (y) = 0.59631 -0.17104
# Poissons Ratio (z) = 0.47908 -0.17552
#
# Static dielectric constant tensor:
#      x y z
#    x 1.746080 0.000000 0.000000 
#    y 0.000000 1.810250 0.000000 
#    z 0.000000 0.000000 1.884790 
# 
# From -- ./inp_files/3715.got.cif
#   From: 2010.05.17/outbox.cif.g08.bks.cpg/sg60_2_cif.got.tgz:3715.got - 2010.06.03 14:59:27.
