data_PCOD9458388
_publ_section_title
;
Structure prediction by ZEFSAII (Michael W. Deem and Ramdas Pophale) SiO2 
 PCOD9458388
Probable space group: P B C N
;
_chemical_formula_sum "Si O2"
_cell_formula_units_Z 32
_cell_length_a 8.315961
_cell_length_b 9.929474
_cell_length_c 16.365815
_cell_angle_alpha 90.000000
_cell_angle_beta 90.000000
_cell_angle_gamma 90.000000
_cell_volume 1351.376382
_symmetry_space_group_name_H-M "P B C N"
_symmetry_group_IT_number 60
_symmetry_cell_setting 'orthorhombic'
loop_
_space_group_symop_operation_xyz
x,y,z
1/2-x,1/2-y,1/2+z
1/2+x,1/2-y,-z
-x,y,1/2-z
-x,-y,-z
1/2+x,1/2+y,1/2-z
1/2-x,1/2+y,z
x,-y,1/2+z
loop_
_atom_site_type_symbol
_atom_site_label
_atom_site_fract_x
_atom_site_fract_y
_atom_site_fract_z
Si Si1 0.407871 0.787073 0.020999
Si Si2 0.309659 0.076594 0.762167
Si Si3 0.765070 0.449122 0.049775
Si Si4 0.341373 0.663891 0.197697
O O1 0.581420 0.859267 0.020446
O O2 0.379150 0.732818 0.112323
O O3 0.383250 0.650989 0.968322
O O4 0.285407 0.905788 0.992882
O O5 0.500000 0.089802 0.750000
O O6 0.251112 0.974764 0.693387
O O7 0.274650 0.027395 0.853091
O O8 0.241501 0.225635 0.748763
O O9 0.500000 0.632127 0.250000
#
# Coordination Sequence:
#
# PCOD9458388 Si02
#       4
#     8   8   8   8
#     4  11  24  43  68  97 135 174 221 273 335 393
#     4  11  23  45  67  94 136 174 222 271 333 393
#     4  11  24  44  67 100 132 177 218 275 332 396
#     4  11  23  44  64  95 132 174 221 272 327 395
#
# _framework density 23.679559000000001
#
# number of rings (size 3 to 8) (size 9 to 14) (size 15 to 20)
#    0.000    1.000    5.000    3.000    3.500    2.000 
#    4.500    0.000    0.000    0.000    0.000    0.000 
#    0.000    0.000    0.000    0.000    0.000    0.000 
#
# Total GULP energy -178911.885106 kJ/mol
# GULP energy per Si atom -5590.996410 kJ/mol
# Density = 2.362566 g / cm^3
# Si number density = 23.679559 Si / 1000 Ang^3
#
#
#
# Elastic Constant Matrix: (Units=GPa)
#
#
# Indices 1 2 3 4 5 6 
#
# 1 21.6886 15.8720 -5.5488 0.0000 0.0000 0.0000
# 2 15.8720 108.3956 -3.3028 0.0000 0.0000 0.0000
# 3 -5.5488 -3.3028 91.5903 0.0000 0.0000 0.0000
# 4 0.0000 0.0000 0.0000 39.1602 0.0000 0.0000
# 5 0.0000 0.0000 0.0000 0.0000 23.0010 0.0000
# 6 0.0000 0.0000 0.0000 0.0000 0.0000 22.8942
#
#
#
# Elastic Compliance Matrix: (Units=1/GPa)
#
#
# Indices 1 2 3 4 5 6 
#
# 1 0.052400 -0.007584 0.002901 0.000000 0.000000 0.000000
# 2 -0.007584 0.010333 -0.000087 0.000000 0.000000 0.000000
# 3 0.002901 -0.000087 0.011091 0.000000 0.000000 0.000000
# 4 0.000000 0.000000 0.000000 0.025536 0.000000 0.000000
# 5 0.000000 0.000000 0.000000 0.000000 0.043476 0.000000
# 6 0.000000 0.000000 0.000000 0.000000 0.000000 0.043679
#
#
# Mechanical properties :
#
#
# Convention : Reuss Voigt Hill
#
# Bulk Modulus (GPa) = 15.55610 26.19059 20.87334
# Shear Modulus (GPa) = 22.99023 31.32135 27.15579
#
# Velocity S-wave (km/s) = 3.11929 3.64086 3.39012
# Velocity P-wave (km/s) = 4.42233 5.36274 4.91507
#
# Compressibility (1/GPa) = 0.06428348
#
# Stress axis : x y z
#
# Youngs Moduli (GPa) = 19.08412 96.77385 90.16477
#
# Poissons Ratio (x) = 0.73396 -0.26157
# Poissons Ratio (y) = 0.14474 0.00783
# Poissons Ratio (z) = -0.05536 0.00840
#
# Static dielectric constant tensor:
#      x y z
#    x 1.932420 0.000000 0.000000 
#    y 0.000000 1.891660 0.000000 
#    z 0.000000 0.000000 1.916060 
# 
# From -- ./inp_files/14322.got.cif
#   From: 2010.05.17/outbox.cif.g08.bks.cpg/sg60_8_cif.got.tgz:14322.got - 2010.06.03 14:59:27.
