data_PCOD9458068
_publ_section_title
;
Structure prediction by ZEFSAII (Michael W. Deem and Ramdas Pophale) SiO2 
 PCOD9458068
Probable space group: P B C N
;
_chemical_formula_sum "Si O2"
_cell_formula_units_Z 56
_cell_length_a 11.951561
_cell_length_b 8.860196
_cell_length_c 21.100332
_cell_angle_alpha 90.000000
_cell_angle_beta 90.000000
_cell_angle_gamma 90.000000
_cell_volume 2234.381106
_symmetry_space_group_name_H-M "P B C N"
_symmetry_group_IT_number 60
_symmetry_cell_setting 'orthorhombic'
loop_
_space_group_symop_operation_xyz
x,y,z
1/2-x,1/2-y,1/2+z
1/2+x,1/2-y,-z
-x,y,1/2-z
-x,-y,-z
1/2+x,1/2+y,1/2-z
1/2-x,1/2+y,z
x,-y,1/2+z
loop_
_atom_site_type_symbol
_atom_site_label
_atom_site_fract_x
_atom_site_fract_y
_atom_site_fract_z
Si Si1 0.809081 0.573309 0.405905
Si Si2 0.594703 0.399007 0.369722
Si Si3 0.686901 0.685841 0.743024
Si Si4 0.078139 0.662281 0.691800
Si Si5 0.903008 0.591531 0.533202
Si Si6 0.701956 0.941604 0.653282
Si Si7 0.931757 0.130767 0.102582
O O1 0.684979 0.528947 0.385432
O O2 0.858195 0.740004 0.394874
O O3 0.883388 0.459534 0.361757
O O4 0.806152 0.563565 0.482247
O O5 0.600337 0.374184 0.294424
O O6 0.478975 0.461284 0.397736
O O7 0.804089 0.724704 0.779960
O O8 0.645035 0.824933 0.701182
O O9 0.729679 0.557509 0.696337
O O10 0.001473 0.788123 0.658630
O O11 0.000000 0.604139 0.750000
O O12 0.873227 0.523715 0.601595
O O13 0.000000 0.500000 0.500000
O O14 0.944492 0.762930 0.541758
O O15 0.800523 0.857441 0.616124
#
# Coordination Sequence:
#
# PCOD9458068 Si02
#       7
#     8   8   8   8   8   8   8
#     4  11  26  47  74 110 152 208 252 317 382 470
#     4  11  26  47  77 113 150 197 258 319 399 461
#     4  11  23  43  76 112 154 190 245 322 385 466
#     4  11  20  44  76 109 154 198 250 311 395 450
#     4  12  28  50  75 105 152 208 264 314 382 464
#     4  12  25  47  73 112 151 198 252 316 384 454
#     4  12  26  48  75 109 149 201 254 326 383 458
#
# _framework density 25.062868999999999
#
# number of rings (size 3 to 8) (size 9 to 14) (size 15 to 20)
#    0.000    0.571    4.286    4.286    2.000    1.714 
#    2.571    0.000    0.000    0.000    0.000    0.000 
#    0.000    0.000    0.000    0.000    0.000    0.000 
#
# Total GULP energy -313394.978512 kJ/mol
# GULP energy per Si atom -5596.338902 kJ/mol
# Density = 2.500582 g / cm^3
# Si number density = 25.062869 Si / 1000 Ang^3
#
#
#
# Elastic Constant Matrix: (Units=GPa)
#
#
# Indices 1 2 3 4 5 6 
#
# 1 68.1105 -2.0415 -0.8263 0.0000 0.0000 0.0000
# 2 -2.0415 92.4450 30.4262 0.0000 0.0000 0.0000
# 3 -0.8263 30.4262 121.7850 0.0000 0.0000 0.0000
# 4 0.0000 0.0000 0.0000 43.6047 0.0000 0.0000
# 5 0.0000 0.0000 0.0000 0.0000 17.7045 0.0000
# 6 0.0000 0.0000 0.0000 0.0000 0.0000 39.9626
#
#
#
# Elastic Compliance Matrix: (Units=1/GPa)
#
#
# Indices 1 2 3 4 5 6 
#
# 1 0.014692 0.000318 0.000020 0.000000 0.000000 0.000000
# 2 0.000318 0.011793 -0.002944 0.000000 0.000000 0.000000
# 3 0.000020 -0.002944 0.008947 0.000000 0.000000 0.000000
# 4 0.000000 0.000000 0.000000 0.022933 0.000000 0.000000
# 5 0.000000 0.000000 0.000000 0.000000 0.056483 0.000000
# 6 0.000000 0.000000 0.000000 0.000000 0.000000 0.025023
#
#
# Mechanical properties :
#
#
# Convention : Reuss Voigt Hill
#
# Bulk Modulus (GPa) = 33.09104 37.49524 35.29314
# Shear Modulus (GPa) = 32.22541 37.23985 34.73263
#
# Velocity S-wave (km/s) = 3.58967 3.85886 3.72670
# Velocity P-wave (km/s) = 5.51479 5.90317 5.71228
#
# Compressibility (1/GPa) = 0.03021966
#
# Stress axis : x y z
#
# Youngs Moduli (GPa) = 68.06517 84.79407 111.77057
#
# Poissons Ratio (x) = -0.02694 -0.00227
# Poissons Ratio (y) = -0.02163 0.32908
# Poissons Ratio (z) = -0.00138 0.24965
#
# Static dielectric constant tensor:
#      x y z
#    x 2.266060 0.000000 0.000000 
#    y 0.000000 2.037600 0.000000 
#    z 0.000000 0.000000 2.325470 
# 
# From -- ./inp_files/22917.got.cif
#   From: 2010.05.17/outbox.cif.g08.bks.cpg/sg60_12_cif.got.tgz:22917.got - 2010.06.03 14:59:27.
