data_PCOD9458976
_publ_section_title
;
Structure prediction by ZEFSAII (Michael W. Deem and Ramdas Pophale) SiO2 
 PCOD9458976
Probable space group: P B C A
;
_chemical_formula_sum "Si O2"
_cell_formula_units_Z 64
_cell_length_a 5.547674
_cell_length_b 27.056841
_cell_length_c 19.800483
_cell_angle_alpha 90.000000
_cell_angle_beta 90.000000
_cell_angle_gamma 90.000000
_cell_volume 2972.102660
_symmetry_space_group_name_H-M "P B C A"
_symmetry_group_IT_number 61
_symmetry_cell_setting 'orthorhombic'
loop_
_space_group_symop_operation_xyz
x,y,z
1/2-x,-y,1/2+z
1/2+x,1/2-y,-z
-x,1/2+y,1/2-z
-x,-y,-z
1/2+x,y,1/2-z
1/2-x,1/2+y,z
x,1/2-y,1/2+z
loop_
_atom_site_type_symbol
_atom_site_label
_atom_site_fract_x
_atom_site_fract_y
_atom_site_fract_z
Si Si1 0.585148 0.926406 0.337213
Si Si2 0.746385 0.680895 0.207635
Si Si3 0.524692 0.940510 0.498337
Si Si4 0.238733 0.792939 0.293037
Si Si5 0.024403 0.940010 0.497663
Si Si6 0.416909 0.110084 0.851392
Si Si7 0.221838 0.463539 0.680799
Si Si8 0.223894 0.424704 0.835342
O O1 0.687473 0.978327 0.311634
O O2 0.548983 0.928790 0.418489
O O3 0.807753 0.889141 0.323892
O O4 0.308731 0.917196 0.314374
O O5 0.488609 0.676366 0.246231
O O6 0.741851 0.736686 0.179949
O O7 0.770320 0.634139 0.158833
O O8 0.274902 0.920429 0.525548
O O9 0.774626 0.921766 0.528371
O O10 0.500000 0.000000 0.500000
O O11 0.501968 0.798240 0.256530
O O12 0.187686 0.834346 0.349814
O O13 0.043965 0.920128 0.420721
O O14 0.000000 0.000000 0.500000
O O15 0.228809 0.436544 0.753250
O O16 0.474796 0.451430 0.645076
O O17 0.977021 0.448148 0.643067
#
# Coordination Sequence:
#
# PCOD9458976 Si02
#       8
#     8   8   8   8   8   8   8   8
#     4  10  19  30  43  60  89 119 144 179 215 258
#     4  10  16  30  49  60  74 101 149 194 226 256
#     4   8  14  25  41  59  78 108 141 169 205 249
#     4  10  21  33  45  62  82 118 160 184 219 263
#     4   8  14  25  44  61  77 108 142 173 217 253
#     4  10  19  33  42  60  92 119 147 188 214 257
#     4  10  18  28  41  61  79 108 146 180 219 255
#     4  10  17  30  43  59  77 103 145 191 224 255
#
# _framework density 21.533577000000001
#
# number of rings (size 3 to 8) (size 9 to 14) (size 15 to 20)
#    0.000    2.500    2.500    1.500    0.000    0.000 
#   13.500    0.000    0.000    0.000    0.000    0.000 
#    0.000    0.000    0.000   72.000    0.000   43.250 
#
# Total GULP energy -356433.420281 kJ/mol
# GULP energy per Si atom -5569.272192 kJ/mol
# Density = 2.148457 g / cm^3
# Si number density = 21.533577 Si / 1000 Ang^3
#
#
#
# Elastic Constant Matrix: (Units=GPa)
#
#
# Indices 1 2 3 4 5 6 
#
# 1 242.6982 26.0949 16.6720 0.0000 0.0000 0.0000
# 2 26.0949 133.3974 5.6282 0.0000 0.0000 0.0000
# 3 16.6720 5.6282 42.4660 0.0000 0.0000 0.0000
# 4 0.0000 0.0000 0.0000 18.1536 0.0000 0.0000
# 5 0.0000 0.0000 0.0000 0.0000 -96.0700 0.0000
# 6 0.0000 0.0000 0.0000 0.0000 0.0000 33.0257
#
#
#
# Elastic Compliance Matrix: (Units=1/GPa)
#
#
# Indices 1 2 3 4 5 6 
#
# 1 0.004313 -0.000777 -0.001590 0.000000 0.000000 0.000000
# 2 -0.000777 0.007678 -0.000713 0.000000 0.000000 0.000000
# 3 -0.001590 -0.000713 0.024267 0.000000 0.000000 0.000000
# 4 0.000000 0.000000 0.000000 0.055086 0.000000 0.000000
# 5 0.000000 0.000000 0.000000 0.000000 -0.010409 0.000000
# 6 0.000000 0.000000 0.000000 0.000000 0.000000 0.030279
#
#
# Mechanical properties :
#
#
# Convention : Reuss Voigt Hill
#
# Bulk Modulus (GPa) = 33.22361 57.26131 45.24246
# Shear Modulus (GPa) = 39.24433 15.69964 27.47198
#
# Velocity S-wave (km/s) = 4.27367 2.70307 3.57567
# Velocity P-wave (km/s) = 6.30988 6.03254 6.17277
#
# Compressibility (1/GPa) = 0.03009908
#
# Stress axis : x y z
#
# Youngs Moduli (GPa) = 231.85199 130.23564 41.20809
#
# Poissons Ratio (x) = 0.10114 0.06554
# Poissons Ratio (y) = 0.18006 0.02937
# Poissons Ratio (z) = 0.36873 0.09283
#
# Static dielectric constant tensor:
#      x y z
#    x 1.896270 0.000000 0.000000 
#    y 0.000000 1.707070 0.000000 
#    z 0.000000 0.000000 1.844630 
# 
# From -- ./inp_files/11312.got.cif
#   From: 2010.05.17/outbox.cif.g08.bks.cpg/sg61_6_cif.got.tgz:11312.got - 2010.06.03 15:17:17.
