data_PCOD9458350
_publ_section_title
;
Structure prediction by ZEFSAII (Michael W. Deem and Ramdas Pophale) SiO2 
 PCOD9458350
Probable space group: P B C N
;
_chemical_formula_sum "Si O2"
_cell_formula_units_Z 36
_cell_length_a 24.040883
_cell_length_b 6.867243
_cell_length_c 8.299524
_cell_angle_alpha 90.000000
_cell_angle_beta 90.000000
_cell_angle_gamma 90.000000
_cell_volume 1370.206475
_symmetry_space_group_name_H-M "P B C N"
_symmetry_group_IT_number 60
_symmetry_cell_setting 'orthorhombic'
loop_
_space_group_symop_operation_xyz
x,y,z
1/2-x,1/2-y,1/2+z
1/2+x,1/2-y,-z
-x,y,1/2-z
-x,-y,-z
1/2+x,1/2+y,1/2-z
1/2-x,1/2+y,z
x,-y,1/2+z
loop_
_atom_site_type_symbol
_atom_site_label
_atom_site_fract_x
_atom_site_fract_y
_atom_site_fract_z
Si Si1 0.198242 0.427128 0.167041
Si Si2 0.000000 0.637068 0.250000
Si Si3 0.073619 0.053446 0.941430
Si Si4 0.191181 0.203227 0.828046
Si Si5 0.418581 0.215515 0.755692
O O1 0.255622 0.414573 0.266119
O O2 0.181424 0.652702 0.176874
O O3 0.146532 0.329850 0.258386
O O4 0.202820 0.326589 0.992735
O O5 0.966039 0.786016 0.138330
O O6 0.952038 0.477054 0.295318
O O7 0.135992 0.088006 0.874057
O O8 0.060615 0.826022 0.914552
O O9 0.072981 0.114416 0.125984
#
# Coordination Sequence:
#
# PCOD9458350 Si02
#       5
#     8   4   8   8   8
#     4  11  23  42  67 100 137 182 229 285 347 411
#     4  12  24  48  72 100 138 184 238 284 346 406
#     4  11  26  45  70 102 139 182 231 286 346 412
#     4  11  23  42  67 100 137 182 229 285 347 411
#     4  11  26  45  70 102 139 182 231 286 346 412
#
# _framework density 26.273410999999999
#
# number of rings (size 3 to 8) (size 9 to 14) (size 15 to 20)
#    0.000    0.889    2.222    4.000    0.000   12.444 
#    0.000    0.000    0.000    0.000    0.000    0.000 
#    0.000    0.000    0.000    0.000    0.000    0.000 
#
# Total GULP energy -201454.939239 kJ/mol
# GULP energy per Si atom -5595.970534 kJ/mol
# Density = 2.621361 g / cm^3
# Si number density = 26.273411 Si / 1000 Ang^3
#
#
#
# Elastic Constant Matrix: (Units=GPa)
#
#
# Indices 1 2 3 4 5 6 
#
# 1 161.0411 29.7264 48.8381 0.0000 0.0000 0.0000
# 2 29.7264 92.8478 14.8068 0.0000 0.0000 0.0000
# 3 48.8381 14.8068 46.0749 0.0000 0.0000 0.0000
# 4 0.0000 0.0000 0.0000 28.5904 0.0000 0.0000
# 5 0.0000 0.0000 0.0000 0.0000 23.3099 0.0000
# 6 0.0000 0.0000 0.0000 0.0000 0.0000 46.3716
#
#
#
# Elastic Compliance Matrix: (Units=1/GPa)
#
#
# Indices 1 2 3 4 5 6 
#
# 1 0.009342 -0.001488 -0.009424 0.000000 0.000000 0.000000
# 2 -0.001488 0.011589 -0.002147 0.000000 0.000000 0.000000
# 3 -0.009424 -0.002147 0.032383 0.000000 0.000000 0.000000
# 4 0.000000 0.000000 0.000000 0.034977 0.000000 0.000000
# 5 0.000000 0.000000 0.000000 0.000000 0.042900 0.000000
# 6 0.000000 0.000000 0.000000 0.000000 0.000000 0.021565
#
#
# Mechanical properties :
#
#
# Convention : Reuss Voigt Hill
#
# Bulk Modulus (GPa) = 36.77030 54.07847 45.42438
# Shear Modulus (GPa) = 26.60410 33.42723 30.01566
#
# Velocity S-wave (km/s) = 3.18557 3.57078 3.38366
# Velocity P-wave (km/s) = 5.24939 6.13419 5.70896
#
# Compressibility (1/GPa) = 0.02719586
#
# Stress axis : x y z
#
# Youngs Moduli (GPa) = 107.03912 86.28774 30.88010
#
# Poissons Ratio (x) = 0.12841 0.29103
# Poissons Ratio (y) = 0.15929 0.06630
# Poissons Ratio (z) = 1.00878 0.18525
#
# Static dielectric constant tensor:
#      x y z
#    x 2.068920 0.000000 0.000000 
#    y 0.000000 2.043450 0.000000 
#    z 0.000000 0.000000 2.097840 
# 
# From -- ./inp_files/7171.got.cif
#   From: 2010.05.17/outbox.cif.g08.bks.cpg/sg60_4_cif.got.tgz:7171.got - 2010.06.03 14:59:27.
