data_PCOD9458760
_publ_section_title
;
Structure prediction by ZEFSAII (Michael W. Deem and Ramdas Pophale) SiO2 
 PCOD9458760
Probable space group: P B C N
;
_chemical_formula_sum "Si O2"
_cell_formula_units_Z 28
_cell_length_a 10.454198
_cell_length_b 20.783460
_cell_length_c 5.571715
_cell_angle_alpha 90.000000
_cell_angle_beta 90.000000
_cell_angle_gamma 90.000000
_cell_volume 1210.591067
_symmetry_space_group_name_H-M "P B C N"
_symmetry_group_IT_number 60
_symmetry_cell_setting 'orthorhombic'
loop_
_space_group_symop_operation_xyz
x,y,z
1/2-x,1/2-y,1/2+z
1/2+x,1/2-y,-z
-x,y,1/2-z
-x,-y,-z
1/2+x,1/2+y,1/2-z
1/2-x,1/2+y,z
x,-y,1/2+z
loop_
_atom_site_type_symbol
_atom_site_label
_atom_site_fract_x
_atom_site_fract_y
_atom_site_fract_z
Si Si1 0.500000 0.890156 0.750000
Si Si2 0.125557 0.300844 0.098184
Si Si3 0.370321 0.339930 0.400259
Si Si4 0.272285 0.961398 0.559154
O O1 0.604581 0.842061 0.639927
O O2 0.417259 0.933462 0.570244
O O3 0.253773 0.324161 0.221093
O O4 0.000000 0.316759 0.250000
O O5 0.122773 0.224729 0.057252
O O6 0.500000 0.347990 0.250000
O O7 0.329397 0.403338 0.542558
O O8 0.256828 0.001320 0.312055
#
# Coordination Sequence:
#
# PCOD9458760 Si02
#       4
#     4   8   8   8
#     4  12  24  50  80 114 146 198 278 332 380 442
#     4  12  24  48  78 116 151 194 263 333 396 452
#     4  12  26  47  76 116 159 202 255 323 402 471
#     4  12  28  49  78 112 160 215 260 314 380 474
#
# _framework density 23.129197999999999
#
# number of rings (size 3 to 8) (size 9 to 14) (size 15 to 20)
#    0.000    0.000    4.286    6.000    0.000    3.429 
#    0.000    0.000    0.000    0.000    0.000    0.000 
#    0.000    0.000    0.000    0.000    0.000    0.000 
#
# Total GULP energy -156833.861828 kJ/mol
# GULP energy per Si atom -5601.209351 kJ/mol
# Density = 2.307655 g / cm^3
# Si number density = 23.129198 Si / 1000 Ang^3
#
#
#
# Elastic Constant Matrix: (Units=GPa)
#
#
# Indices 1 2 3 4 5 6 
#
# 1 161.7515 49.9395 48.3616 0.0000 0.0000 0.0000
# 2 49.9395 155.0556 88.0640 0.0000 0.0000 0.0000
# 3 48.3616 88.0640 120.7349 0.0000 0.0000 0.0000
# 4 0.0000 0.0000 0.0000 94.7016 0.0000 0.0000
# 5 0.0000 0.0000 0.0000 0.0000 13.5864 0.0000
# 6 0.0000 0.0000 0.0000 0.0000 0.0000 44.6626
#
#
#
# Elastic Compliance Matrix: (Units=1/GPa)
#
#
# Indices 1 2 3 4 5 6 
#
# 1 0.007142 -0.001153 -0.002020 0.000000 0.000000 0.000000
# 2 -0.001153 0.011197 -0.007705 0.000000 0.000000 0.000000
# 3 -0.002020 -0.007705 0.014712 0.000000 0.000000 0.000000
# 4 0.000000 0.000000 0.000000 0.010559 0.000000 0.000000
# 5 0.000000 0.000000 0.000000 0.000000 0.073603 0.000000
# 6 0.000000 0.000000 0.000000 0.000000 0.000000 0.022390
#
#
# Mechanical properties :
#
#
# Convention : Reuss Voigt Hill
#
# Bulk Modulus (GPa) = 88.53654 90.03024 89.28339
# Shear Modulus (GPa) = 30.28023 47.33524 38.80774
#
# Velocity S-wave (km/s) = 3.62218 4.52880 4.10062
# Velocity P-wave (km/s) = 7.47368 8.14593 7.81703
#
# Compressibility (1/GPa) = 0.01129477
#
# Stress axis : x y z
#
# Youngs Moduli (GPa) = 140.01190 89.31134 67.97329
#
# Poissons Ratio (x) = 0.10300 0.13729
# Poissons Ratio (y) = 0.16147 0.52373
# Poissons Ratio (z) = 0.28279 0.68814
#
# Static dielectric constant tensor:
#      x y z
#    x 2.036120 0.000000 0.000000 
#    y 0.000000 1.862780 0.000000 
#    z 0.000000 0.000000 2.023720 
# 
# From -- ./inp_files/616.got.cif
#   From: 2010.05.17/outbox.cif.g08.bks.cpg/sg60_1_cif.got.tgz:616.got - 2010.06.03 14:59:27.
