data_PCOD9458573
_publ_section_title
;
Structure prediction by ZEFSAII (Michael W. Deem and Ramdas Pophale) SiO2 
 PCOD9458573
Probable space group: P B C N
;
_chemical_formula_sum "Si O2"
_cell_formula_units_Z 48
_cell_length_a 19.507433
_cell_length_b 8.877606
_cell_length_c 12.282901
_cell_angle_alpha 90.000000
_cell_angle_beta 90.000000
_cell_angle_gamma 90.000000
_cell_volume 2127.144249
_symmetry_space_group_name_H-M "P B C N"
_symmetry_group_IT_number 60
_symmetry_cell_setting 'orthorhombic'
loop_
_space_group_symop_operation_xyz
x,y,z
1/2-x,1/2-y,1/2+z
1/2+x,1/2-y,-z
-x,y,1/2-z
-x,-y,-z
1/2+x,1/2+y,1/2-z
1/2-x,1/2+y,z
x,-y,1/2+z
loop_
_atom_site_type_symbol
_atom_site_label
_atom_site_fract_x
_atom_site_fract_y
_atom_site_fract_z
Si Si1 0.421919 0.905229 0.779665
Si Si2 0.203398 0.052286 0.234061
Si Si3 0.263725 0.065994 0.948812
Si Si4 0.854636 0.714282 0.001689
Si Si5 0.182534 0.747081 0.119185
Si Si6 0.578971 0.250672 0.766100
O O1 0.500000 0.874112 0.750000
O O2 0.398397 0.830315 0.892331
O O3 0.377283 0.840302 0.680974
O O4 0.413607 0.085542 0.786421
O O5 0.254212 0.984067 0.324705
O O6 0.248265 0.176766 0.171989
O O7 0.099867 0.269442 0.106181
O O8 0.179896 0.918684 0.155026
O O9 0.298446 0.921777 0.007831
O O10 0.188349 0.135187 0.971854
O O11 0.364791 0.367704 0.777843
O O12 0.687552 0.799411 0.007110
O O13 0.500000 0.298375 0.750000
#
# Coordination Sequence:
#
# PCOD9458573 Si02
#       6
#     8   8   8   8   8   8
#     4  11  25  46  71 102 149 192 241 300 366 446
#     4  12  24  44  73 108 144 186 240 305 361 427
#     4  12  24  41  74 110 139 184 243 306 362 436
#     4  12  25  45  73 112 140 195 247 298 382 431
#     4  12  23  43  71 108 145 182 240 302 362 429
#     4  11  27  50  73 103 152 196 245 306 365 445
#
# _framework density 22.565465
#
# number of rings (size 3 to 8) (size 9 to 14) (size 15 to 20)
#    0.000    0.333    6.667    2.000    2.333    3.333 
#    0.000    0.833    0.000    0.000    0.000    0.000 
#    0.000    0.000    0.000    0.000    0.000    0.000 
#
# Total GULP energy -268379.437546 kJ/mol
# GULP energy per Si atom -5591.238282 kJ/mol
# Density = 2.251411 g / cm^3
# Si number density = 22.565465 Si / 1000 Ang^3
#
#
#
# Elastic Constant Matrix: (Units=GPa)
#
#
# Indices 1 2 3 4 5 6 
#
# 1 155.5763 47.4386 37.8824 0.0000 0.0000 0.0000
# 2 47.4386 105.6243 24.9403 0.0000 0.0000 0.0000
# 3 37.8824 24.9403 129.8177 0.0000 0.0000 0.0000
# 4 0.0000 0.0000 0.0000 39.5450 0.0000 0.0000
# 5 0.0000 0.0000 0.0000 0.0000 29.1748 0.0000
# 6 0.0000 0.0000 0.0000 0.0000 0.0000 36.0354
#
#
#
# Elastic Compliance Matrix: (Units=1/GPa)
#
#
# Indices 1 2 3 4 5 6 
#
# 1 0.007781 -0.003099 -0.001675 0.000000 0.000000 0.000000
# 2 -0.003099 0.011152 -0.001238 0.000000 0.000000 0.000000
# 3 -0.001675 -0.001238 0.008430 0.000000 0.000000 0.000000
# 4 0.000000 0.000000 0.000000 0.025288 0.000000 0.000000
# 5 0.000000 0.000000 0.000000 0.000000 0.034276 0.000000
# 6 0.000000 0.000000 0.000000 0.000000 0.000000 0.027750
#
#
# Mechanical properties :
#
#
# Convention : Reuss Voigt Hill
#
# Bulk Modulus (GPa) = 65.19880 67.94899 66.57390
# Shear Modulus (GPa) = 37.93249 39.66817 38.80033
#
# Velocity S-wave (km/s) = 4.10444 4.19730 4.15113
# Velocity P-wave (km/s) = 7.17062 7.32578 7.24862
#
# Compressibility (1/GPa) = 0.01533771
#
# Stress axis : x y z
#
# Youngs Moduli (GPa) = 128.52616 89.67267 118.62686
#
# Poissons Ratio (x) = 0.27789 0.19871
# Poissons Ratio (y) = 0.39829 0.14688
# Poissons Ratio (z) = 0.21529 0.11103
#
# Static dielectric constant tensor:
#      x y z
#    x 1.825110 0.000000 0.000000 
#    y 0.000000 1.860920 0.000000 
#    z 0.000000 0.000000 1.933880 
# 
# From -- ./inp_files/20799.got.cif
#   From: 2010.05.17/outbox.cif.g08.bks.cpg/sg60_11_cif.got.tgz:20799.got - 2010.06.03 14:59:27.
