data_PCOD9458725
_publ_section_title
;
Structure prediction by ZEFSAII (Michael W. Deem and Ramdas Pophale) SiO2 
 PCOD9458725
Probable space group: P B C N
;
_chemical_formula_sum "Si O2"
_cell_formula_units_Z 36
_cell_length_a 5.152616
_cell_length_b 14.851397
_cell_length_c 18.620061
_cell_angle_alpha 90.000000
_cell_angle_beta 90.000000
_cell_angle_gamma 90.000000
_cell_volume 1424.873091
_symmetry_space_group_name_H-M "P B C N"
_symmetry_group_IT_number 60
_symmetry_cell_setting 'orthorhombic'
loop_
_space_group_symop_operation_xyz
x,y,z
1/2-x,1/2-y,1/2+z
1/2+x,1/2-y,-z
-x,y,1/2-z
-x,-y,-z
1/2+x,1/2+y,1/2-z
1/2-x,1/2+y,z
x,-y,1/2+z
loop_
_atom_site_type_symbol
_atom_site_label
_atom_site_fract_x
_atom_site_fract_y
_atom_site_fract_z
Si Si1 0.944247 0.242363 0.545382
Si Si2 0.097451 0.945219 0.374039
Si Si3 0.500000 0.653714 0.750000
Si Si4 0.500000 0.009406 0.250000
Si Si5 0.802143 0.883006 0.868074
Si Si6 0.500000 0.727666 0.250000
O O1 0.179839 0.221239 0.489843
O O2 0.088539 0.321790 0.591408
O O3 0.864859 0.143854 0.577925
O O4 0.898875 0.906219 0.315415
O O5 0.332945 0.965947 0.317474
O O6 0.961271 0.034738 0.405691
O O7 0.257484 0.715754 0.760272
O O8 0.318060 0.074900 0.204164
O O9 0.999127 0.817961 0.828384
#
# Coordination Sequence:
#
# PCOD9458725 Si02
#       6
#     8   8   4   4   8   4
#     4  12  34  56  77 114 170 237 282 316 388 506
#     4  12  27  47  83 122 161 210 271 347 419 482
#     4  12  24  42  77 121 158 198 250 344 425 469
#     4  12  24  48  81 131 158 194 270 364 435 461
#     4  12  27  48  82 121 161 206 273 348 416 483
#     4  12  24  42  78 120 160 200 248 350 424 468
#
# _framework density 25.265409999999999
#
# number of rings (size 3 to 8) (size 9 to 14) (size 15 to 20)
#    0.000    0.000    6.667    1.333    9.333    1.778 
#    0.000    0.000    0.000    0.000    0.000    0.000 
#    0.000    0.000    0.000    0.000    0.000    0.000 
#
# Total GULP energy -200500.889340 kJ/mol
# GULP energy per Si atom -5569.469148 kJ/mol
# Density = 2.520790 g / cm^3
# Si number density = 25.265410 Si / 1000 Ang^3
#
#
#
# Elastic Constant Matrix: (Units=GPa)
#
#
# Indices 1 2 3 4 5 6 
#
# 1 123.0803 51.5243 28.6596 0.0000 0.0000 0.0000
# 2 51.5243 137.8532 39.4058 0.0000 0.0000 0.0000
# 3 28.6596 39.4058 78.6177 0.0000 0.0000 0.0000
# 4 0.0000 0.0000 0.0000 18.3738 0.0000 0.0000
# 5 0.0000 0.0000 0.0000 0.0000 38.7382 0.0000
# 6 0.0000 0.0000 0.0000 0.0000 0.0000 13.9173
#
#
#
# Elastic Compliance Matrix: (Units=1/GPa)
#
#
# Indices 1 2 3 4 5 6 
#
# 1 0.009907 -0.003117 -0.002049 0.000000 0.000000 0.000000
# 2 -0.003117 0.009448 -0.003599 0.000000 0.000000 0.000000
# 3 -0.002049 -0.003599 0.015271 0.000000 0.000000 0.000000
# 4 0.000000 0.000000 0.000000 0.054425 0.000000 0.000000
# 5 0.000000 0.000000 0.000000 0.000000 0.025814 0.000000
# 6 0.000000 0.000000 0.000000 0.000000 0.000000 0.071853
#
#
# Mechanical properties :
#
#
# Convention : Reuss Voigt Hill
#
# Bulk Modulus (GPa) = 58.49770 64.30342 61.40056
# Shear Modulus (GPa) = 23.81550 28.86996 26.34273
#
# Velocity S-wave (km/s) = 3.07353 3.38400 3.23250
# Velocity P-wave (km/s) = 5.98323 6.38554 6.18765
#
# Compressibility (1/GPa) = 0.01709469
#
# Stress axis : x y z
#
# Youngs Moduli (GPa) = 100.94099 105.84239 65.48408
#
# Poissons Ratio (x) = 0.32991 0.13418
# Poissons Ratio (y) = 0.31464 0.23570
# Poissons Ratio (z) = 0.20684 0.38096
#
# Static dielectric constant tensor:
#      x y z
#    x 1.974420 0.000000 0.000000 
#    y 0.000000 2.337140 0.000000 
#    z 0.000000 0.000000 2.229130 
# 
# From -- ./inp_files/21489.got.cif
#   From: 2010.05.17/outbox.cif.g08.bks.cpg/sg60_11_cif.got.tgz:21489.got - 2010.06.03 14:59:27.
