data_PCOD9458988
_publ_section_title
;
Structure prediction by ZEFSAII (Michael W. Deem and Ramdas Pophale) SiO2 
 PCOD9458988
Probable space group: P B C A
;
_chemical_formula_sum "Si O2"
_cell_formula_units_Z 64
_cell_length_a 8.406526
_cell_length_b 13.948790
_cell_length_c 24.385912
_cell_angle_alpha 90.000000
_cell_angle_beta 90.000000
_cell_angle_gamma 90.000000
_cell_volume 2859.513155
_symmetry_space_group_name_H-M "P B C A"
_symmetry_group_IT_number 61
_symmetry_cell_setting 'orthorhombic'
loop_
_space_group_symop_operation_xyz
x,y,z
1/2-x,-y,1/2+z
1/2+x,1/2-y,-z
-x,1/2+y,1/2-z
-x,-y,-z
1/2+x,y,1/2-z
1/2-x,1/2+y,z
x,1/2-y,1/2+z
loop_
_atom_site_type_symbol
_atom_site_label
_atom_site_fract_x
_atom_site_fract_y
_atom_site_fract_z
Si Si1 0.351675 0.579430 0.756209
Si Si2 0.697464 0.226728 0.563096
Si Si3 0.439487 0.707351 0.055084
Si Si4 0.698355 0.565872 0.629748
Si Si5 0.103987 0.062901 0.238250
Si Si6 0.837871 0.642532 0.859220
Si Si7 0.194018 0.442714 0.622117
Si Si8 0.450303 0.632398 0.353654
O O1 0.294914 0.601207 0.816889
O O2 0.534598 0.545936 0.754461
O O3 0.287162 0.470531 0.743894
O O4 0.318019 0.652109 0.706627
O O5 0.613443 0.238873 0.505075
O O6 0.722973 0.115100 0.577649
O O7 0.598440 0.275899 0.611791
O O8 0.873909 0.272676 0.561950
O O9 0.338940 0.767782 0.100607
O O10 0.389189 0.599085 0.068769
O O11 0.517709 0.603392 0.634088
O O12 0.674476 0.452203 0.630279
O O13 0.088164 0.089777 0.174935
O O14 0.064637 0.134740 0.287362
O O15 0.718232 0.557376 0.876473
O O16 0.372655 0.401178 0.629824
#
# Coordination Sequence:
#
# PCOD9458988 Si02
#       8
#     8   8   8   8   8   8   8   8
#     4  10  16  35  60  93 119 151 194 238 293 370
#     4  11  25  44  60  87 120 162 213 265 301 366
#     4  11  25  43  61  85 122 160 216 262 305 363
#     4   9  20  38  64  87 122 163 197 242 311 366
#     4  10  18  33  62  93 125 149 191 242 297 369
#     4   9  19  40  62  86 123 165 193 244 313 366
#     4  10  21  39  63  92 120 164 199 248 307 367
#     4  10  20  40  64  87 125 162 199 246 310 365
#
# _framework density 22.381433999999999
#
# number of rings (size 3 to 8) (size 9 to 14) (size 15 to 20)
#    0.000    2.000    5.000    0.750    3.500    2.000 
#    9.000    7.500    0.000    0.000    0.000    0.000 
#    0.000    0.000    0.000    0.000    0.000    0.000 
#
# Total GULP energy -356780.789930 kJ/mol
# GULP energy per Si atom -5574.699843 kJ/mol
# Density = 2.233049 g / cm^3
# Si number density = 22.381434 Si / 1000 Ang^3
#
#
#
# Elastic Constant Matrix: (Units=GPa)
#
#
# Indices 1 2 3 4 5 6 
#
# 1 16.7729 -5.7309 2.5063 0.0000 0.0000 0.0000
# 2 -5.7309 31.8095 11.5228 0.0000 0.0000 0.0000
# 3 2.5063 11.5228 69.1185 0.0000 0.0000 0.0000
# 4 0.0000 0.0000 0.0000 33.8070 0.0000 0.0000
# 5 0.0000 0.0000 0.0000 0.0000 28.2035 0.0000
# 6 0.0000 0.0000 0.0000 0.0000 0.0000 15.8734
#
#
#
# Elastic Compliance Matrix: (Units=1/GPa)
#
#
# Indices 1 2 3 4 5 6 
#
# 1 0.064863 0.013344 -0.004577 0.000000 0.000000 0.000000
# 2 0.013344 0.036203 -0.006519 0.000000 0.000000 0.000000
# 3 -0.004577 -0.006519 0.015721 0.000000 0.000000 0.000000
# 4 0.000000 0.000000 0.000000 0.029580 0.000000 0.000000
# 5 0.000000 0.000000 0.000000 0.000000 0.035457 0.000000
# 6 0.000000 0.000000 0.000000 0.000000 0.000000 0.062999
#
#
# Mechanical properties :
#
#
# Convention : Reuss Voigt Hill
#
# Bulk Modulus (GPa) = 8.24525 14.92195 11.58360
# Shear Modulus (GPa) = 17.80927 22.87029 20.33978
#
# Velocity S-wave (km/s) = 2.82390 3.20009 3.01787
# Velocity P-wave (km/s) = 3.78478 4.50951 4.16295
#
# Compressibility (1/GPa) = 0.12128190
#
# Stress axis : x y z
#
# Youngs Moduli (GPa) = 15.41715 27.62222 63.61041
#
# Poissons Ratio (x) = -0.36858 0.29112
# Poissons Ratio (y) = -0.20572 0.41469
# Poissons Ratio (z) = 0.07056 0.18008
#
# Static dielectric constant tensor:
#      x y z
#    x 1.824980 0.000000 0.000000 
#    y 0.000000 1.863490 0.000000 
#    z 0.000000 0.000000 1.826480 
# 
# From -- ./inp_files/10903.got.cif
#   From: 2010.05.17/outbox.cif.g08.bks.cpg/sg61_6_cif.got.tgz:10903.got - 2010.06.03 15:17:17.
