data_PCOD9458879
_publ_section_title
;
Structure prediction by ZEFSAII (Michael W. Deem and Ramdas Pophale) SiO2 
 PCOD9458879
Probable space group: P B C N
;
_chemical_formula_sum "Si O2"
_cell_formula_units_Z 48
_cell_length_a 9.000000
_cell_length_b 18.000000
_cell_length_c 15.000000
_cell_angle_alpha 90.000000
_cell_angle_beta 90.000000
_cell_angle_gamma 90.000000
_cell_volume 2430.000000
_symmetry_space_group_name_H-M "P B C N"
_symmetry_group_IT_number 60
_symmetry_cell_setting 'orthorhombic'
loop_
_space_group_symop_operation_xyz
x,y,z
1/2-x,1/2-y,1/2+z
1/2+x,1/2-y,-z
-x,y,1/2-z
-x,-y,-z
1/2+x,1/2+y,1/2-z
1/2-x,1/2+y,z
x,-y,1/2+z
loop_
_atom_site_type_symbol
_atom_site_label
_atom_site_fract_x
_atom_site_fract_y
_atom_site_fract_z
Si Si1 0.650973 0.428793 0.146690
Si Si2 0.706126 0.827692 0.476349
Si Si3 0.140494 0.974556 0.614888
Si Si4 0.160004 0.420528 0.204101
Si Si5 0.153924 0.527694 0.457651
Si Si6 0.943753 0.830786 0.983880
O O1 0.504769 0.480207 0.146043
O O2 0.704286 0.389621 0.236171
O O3 0.794776 0.480716 0.126433
O O4 0.628111 0.368729 0.070559
O O5 0.664552 0.872526 0.386341
O O6 0.645446 0.884158 0.552135
O O7 0.630435 0.748462 0.470533
O O8 0.881518 0.822273 0.495890
O O9 0.278212 0.996696 0.678383
O O10 0.203931 0.008617 0.521986
O O11 0.093609 0.890236 0.594706
O O12 0.000000 0.415535 0.250000
O O13 0.000000 0.500000 0.500000
#
# Coordination Sequence:
#
# PCOD9458879 Si02
#       6
#     8   8   8   8   8   8
#     4  11  19  40  67  86 121 170 219 263 320 378
#     4  11  24  41  61  97 133 164 217 258 331 387
#     4  10  20  40  63  88 121 162 218 258 308 381
#     4  11  24  40  64  95 128 164 213 276 325 377
#     4  10  19  35  62  91 120 158 211 264 298 370
#     4  11  23  40  64  96 124 172 213 266 317 389
#
# _framework density 19.753086
#
# number of rings (size 3 to 8) (size 9 to 14) (size 15 to 20)
#    0.000    1.333    5.000    3.500    7.000    0.000 
#    0.000    3.333    0.000    0.000    0.000    0.000 
#    0.000    0.000    0.000    0.000    0.000    0.000 
#
# Total GULP energy -267359.536684 kJ/mol
# GULP energy per Si atom -5569.990348 kJ/mol
# Density = 1.970813 g / cm^3
# Si number density = 19.753086 Si / 1000 Ang^3
#
#
#
# Elastic Constant Matrix: (Units=GPa)
#
#
# Indices 1 2 3 4 5 6 
#
# 1 126.0108 79.0786 32.5475 0.0000 0.0000 0.0000
# 2 79.0786 149.5334 27.9700 0.0000 0.0000 0.0000
# 3 32.5475 27.9700 47.0602 0.0000 0.0000 0.0000
# 4 0.0000 0.0000 0.0000 11.6260 0.0000 0.0000
# 5 0.0000 0.0000 0.0000 0.0000 37.5029 0.0000
# 6 0.0000 0.0000 0.0000 0.0000 0.0000 34.3576
#
#
#
# Elastic Compliance Matrix: (Units=1/GPa)
#
#
# Indices 1 2 3 4 5 6 
#
# 1 0.013046 -0.005863 -0.005538 0.000000 0.000000 0.000000
# 2 -0.005863 0.010159 -0.001983 0.000000 0.000000 0.000000
# 3 -0.005538 -0.001983 0.026258 0.000000 0.000000 0.000000
# 4 0.000000 0.000000 0.000000 0.086014 0.000000 0.000000
# 5 0.000000 0.000000 0.000000 0.000000 0.026665 0.000000
# 6 0.000000 0.000000 0.000000 0.000000 0.000000 0.029106
#
#
# Mechanical properties :
#
#
# Convention : Reuss Voigt Hill
#
# Bulk Modulus (GPa) = 44.06292 66.86630 55.46461
# Shear Modulus (GPa) = 22.16515 28.89787 25.53151
#
# Velocity S-wave (km/s) = 3.35343 3.82901 3.59908
# Velocity P-wave (km/s) = 6.11140 7.31252 6.73878
#
# Compressibility (1/GPa) = 0.02269482
#
# Stress axis : x y z
#
# Youngs Moduli (GPa) = 76.65387 98.43469 38.08373
#
# Poissons Ratio (x) = 0.57714 0.21090
# Poissons Ratio (y) = 0.44943 0.07552
# Poissons Ratio (z) = 0.42450 0.19519
#
# Static dielectric constant tensor:
#      x y z
#    x 1.696440 0.000000 0.000000 
#    y 0.000000 1.702690 0.000000 
#    z 0.000000 0.000000 1.913650 
# 
# From -- ./inp_files/15011.got.cif
#   From: 2010.05.17/outbox.ucp.g08.bks.cvg/sg60_8_cif.got.tgz:15011.got - 2010.06.11 16:26:41.
