data_PCOD9458451
_publ_section_title
;
Structure prediction by ZEFSAII (Michael W. Deem and Ramdas Pophale) SiO2 
 PCOD9458451
Probable space group: P B C N
;
_chemical_formula_sum "Si O2"
_cell_formula_units_Z 40
_cell_length_a 6.430219
_cell_length_b 22.787090
_cell_length_c 14.231020
_cell_angle_alpha 90.000000
_cell_angle_beta 90.000000
_cell_angle_gamma 90.000000
_cell_volume 2085.214139
_symmetry_space_group_name_H-M "P B C N"
_symmetry_group_IT_number 60
_symmetry_cell_setting 'orthorhombic'
loop_
_space_group_symop_operation_xyz
x,y,z
1/2-x,1/2-y,1/2+z
1/2+x,1/2-y,-z
-x,y,1/2-z
-x,-y,-z
1/2+x,1/2+y,1/2-z
1/2-x,1/2+y,z
x,-y,1/2+z
loop_
_atom_site_type_symbol
_atom_site_label
_atom_site_fract_x
_atom_site_fract_y
_atom_site_fract_z
Si Si1 0.511238 0.240731 0.150782
Si Si2 0.299285 0.456200 0.501023
Si Si3 0.826070 0.139205 0.170238
Si Si4 0.464350 0.974764 0.853001
Si Si5 0.847869 0.820901 0.978598
O O1 0.500000 0.277072 0.250000
O O2 0.665692 0.190716 0.189299
O O3 0.612959 0.278862 0.067071
O O4 0.317364 0.208641 0.095199
O O5 0.500000 0.500000 0.500000
O O6 0.147036 0.481286 0.422596
O O7 0.302977 0.386499 0.484257
O O8 0.187278 0.460068 0.602189
O O9 0.686739 0.081746 0.153863
O O10 0.000000 0.129652 0.250000
O O11 0.945246 0.163834 0.079724
O O12 0.500000 0.998903 0.750000
#
# Coordination Sequence:
#
# PCOD9458451 Si02
#       5
#     8   8   8   8   8
#     4  12  25  43  65  99 135 175 230 278 342 411
#     4  11  24  43  66  97 134 175 221 276 343 403
#     4  12  22  39  72  98 127 175 233 282 331 405
#     4  11  24  42  66  98 134 171 226 281 331 406
#     4  12  24  43  66  96 136 177 220 285 342 404
#
# _framework density 19.182683999999998
#
# number of rings (size 3 to 8) (size 9 to 14) (size 15 to 20)
#    0.000    0.400    8.000    1.800    0.000    0.000 
#    3.600    1.000    0.000    0.000    0.000    0.000 
#    0.000    0.000    0.000    0.000    0.000    0.000 
#
# Total GULP energy -222726.248055 kJ/mol
# GULP energy per Si atom -5568.156201 kJ/mol
# Density = 1.913902 g / cm^3
# Si number density = 19.182684 Si / 1000 Ang^3
#
#
#
# Elastic Constant Matrix: (Units=GPa)
#
#
# Indices 1 2 3 4 5 6 
#
# 1 78.0065 23.8028 40.9629 0.0000 0.0000 0.0000
# 2 23.8028 75.2139 37.4625 0.0000 0.0000 0.0000
# 3 40.9629 37.4625 137.2546 0.0000 0.0000 0.0000
# 4 0.0000 0.0000 0.0000 31.4546 0.0000 0.0000
# 5 0.0000 0.0000 0.0000 0.0000 43.2717 0.0000
# 6 0.0000 0.0000 0.0000 0.0000 0.0000 34.7551
#
#
#
# Elastic Compliance Matrix: (Units=1/GPa)
#
#
# Indices 1 2 3 4 5 6 
#
# 1 0.015790 -0.003067 -0.003875 0.000000 0.000000 0.000000
# 2 -0.003067 0.015983 -0.003447 0.000000 0.000000 0.000000
# 3 -0.003875 -0.003447 0.009383 0.000000 0.000000 0.000000
# 4 0.000000 0.000000 0.000000 0.031792 0.000000 0.000000
# 5 0.000000 0.000000 0.000000 0.000000 0.023110 0.000000
# 6 0.000000 0.000000 0.000000 0.000000 0.000000 0.028773
#
#
# Mechanical properties :
#
#
# Convention : Reuss Voigt Hill
#
# Bulk Modulus (GPa) = 49.07349 54.99236 52.03293
# Shear Modulus (GPa) = 32.80790 34.44606 33.62698
#
# Velocity S-wave (km/s) = 4.14005 4.24215 4.19141
# Velocity P-wave (km/s) = 6.96355 7.26116 7.11391
#
# Compressibility (1/GPa) = 0.02037760
#
# Stress axis : x y z
#
# Youngs Moduli (GPa) = 63.32974 62.56686 106.57330
#
# Poissons Ratio (x) = 0.19188 0.41302
# Poissons Ratio (y) = 0.19422 0.36737
# Poissons Ratio (z) = 0.24543 0.21568
#
# Static dielectric constant tensor:
#      x y z
#    x 1.793630 0.000000 0.000000 
#    y 0.000000 1.782760 0.000000 
#    z 0.000000 0.000000 1.715250 
# 
# From -- ./inp_files/9060.got.cif
#   From: 2010.05.17/outbox.cif.g08.bks.cpg/sg60_5_cif.got.tgz:9060.got - 2010.06.03 14:59:27.
