data_PCOD9458189
_publ_section_title
;
Structure prediction by ZEFSAII (Michael W. Deem and Ramdas Pophale) SiO2 
 PCOD9458189
Probable space group: P B C N
;
_chemical_formula_sum "Si O2"
_cell_formula_units_Z 56
_cell_length_a 25.270762
_cell_length_b 14.051780
_cell_length_c 7.915758
_cell_angle_alpha 90.000000
_cell_angle_beta 90.000000
_cell_angle_gamma 90.000000
_cell_volume 2810.879239
_symmetry_space_group_name_H-M "P B C N"
_symmetry_group_IT_number 60
_symmetry_cell_setting 'orthorhombic'
loop_
_space_group_symop_operation_xyz
x,y,z
1/2-x,1/2-y,1/2+z
1/2+x,1/2-y,-z
-x,y,1/2-z
-x,-y,-z
1/2+x,1/2+y,1/2-z
1/2-x,1/2+y,z
x,-y,1/2+z
loop_
_atom_site_type_symbol
_atom_site_label
_atom_site_fract_x
_atom_site_fract_y
_atom_site_fract_z
Si Si1 0.999077 0.887553 0.951322
Si Si2 0.304150 0.157572 0.125355
Si Si3 0.116851 0.137314 0.926034
Si Si4 0.736977 0.045628 0.841368
Si Si5 0.678006 0.450205 0.593817
Si Si6 0.389535 0.305142 0.039775
Si Si7 0.703655 0.218074 0.981194
O O1 0.000000 0.883055 0.750000
O O2 0.943694 0.852316 0.025146
O O3 0.048165 0.823951 0.016805
O O4 0.000000 0.000000 0.000000
O O5 0.358688 0.204896 0.059545
O O6 0.299235 0.173629 0.328512
O O7 0.296081 0.044871 0.093179
O O8 0.253474 0.211294 0.045467
O O9 0.122411 0.146325 0.722854
O O10 0.152609 0.214934 0.015988
O O11 0.141051 0.034834 0.974475
O O12 0.779761 0.000545 0.715442
O O13 0.779438 0.093063 0.966728
O O14 0.700518 0.138537 0.831739
O O15 0.637733 0.363794 0.614383
#
# Coordination Sequence:
#
# PCOD9458189 Si02
#       7
#     8   8   8   8   8   8   8
#     4  12  26  40  60  87 118 158 201 247 305 358
#     4  11  22  37  58  87 119 158 199 242 296 355
#     4  11  23  39  60  87 119 159 201 246 296 358
#     4  12  22  37  55  90 124 159 195 237 296 354
#     4  12  21  35  59  86 123 157 193 239 290 358
#     4  11  23  40  60  86 119 160 200 247 296 353
#     4  11  23  37  58  86 120 159 199 242 297 356
#
# _framework density 19.922592000000002
#
# number of rings (size 3 to 8) (size 9 to 14) (size 15 to 20)
#    0.000    0.571    7.143    2.143    2.000    1.143 
#    0.000    0.000    0.000    0.857    0.000    0.000 
#    0.000    0.000    0.000    0.000    0.000    0.000 
#
# Total GULP energy -311972.881767 kJ/mol
# GULP energy per Si atom -5570.944317 kJ/mol
# Density = 1.987725 g / cm^3
# Si number density = 19.922592 Si / 1000 Ang^3
#
#
#
# Elastic Constant Matrix: (Units=GPa)
#
#
# Indices 1 2 3 4 5 6 
#
# 1 150.8502 64.3457 23.9207 0.0000 0.0000 0.0000
# 2 64.3457 110.0439 17.1365 0.0000 0.0000 0.0000
# 3 23.9207 17.1365 53.3960 0.0000 0.0000 0.0000
# 4 0.0000 0.0000 0.0000 22.5941 0.0000 0.0000
# 5 0.0000 0.0000 0.0000 0.0000 30.7053 0.0000
# 6 0.0000 0.0000 0.0000 0.0000 0.0000 31.4482
#
#
#
# Elastic Compliance Matrix: (Units=1/GPa)
#
#
# Indices 1 2 3 4 5 6 
#
# 1 0.009139 -0.004954 -0.002504 0.000000 0.000000 0.000000
# 2 -0.004954 0.012251 -0.001712 0.000000 0.000000 0.000000
# 3 -0.002504 -0.001712 0.020399 0.000000 0.000000 0.000000
# 4 0.000000 0.000000 0.000000 0.044259 0.000000 0.000000
# 5 0.000000 0.000000 0.000000 0.000000 0.032568 0.000000
# 6 0.000000 0.000000 0.000000 0.000000 0.000000 0.031798
#
#
# Mechanical properties :
#
#
# Convention : Reuss Voigt Hill
#
# Bulk Modulus (GPa) = 42.64752 58.34401 50.49577
# Shear Modulus (GPa) = 28.31698 30.87532 29.59615
#
# Velocity S-wave (km/s) = 3.77417 3.94098 3.85847
# Velocity P-wave (km/s) = 6.35968 7.07512 6.72692
#
# Compressibility (1/GPa) = 0.02344802
#
# Stress axis : x y z
#
# Youngs Moduli (GPa) = 109.41633 81.62791 49.02091
#
# Poissons Ratio (x) = 0.40439 0.12277
# Poissons Ratio (y) = 0.54206 0.08394
# Poissons Ratio (z) = 0.27402 0.13977
#
# Static dielectric constant tensor:
#      x y z
#    x 1.777790 0.000000 0.000000 
#    y 0.000000 1.792640 0.000000 
#    z 0.000000 0.000000 1.899700 
# 
# From -- ./inp_files/7430.got.cif
#   From: 2010.05.17/outbox.cif.g08.bks.cpg/sg60_4_cif.got.tgz:7430.got - 2010.06.03 14:59:27.
