data_PCOD9458160
_publ_section_title
;
Structure prediction by ZEFSAII (Michael W. Deem and Ramdas Pophale) SiO2 
 PCOD9458160
Probable space group: P B C N
;
_chemical_formula_sum "Si O2"
_cell_formula_units_Z 60
_cell_length_a 5.423555
_cell_length_b 18.215903
_cell_length_c 28.451450
_cell_angle_alpha 90.000000
_cell_angle_beta 90.000000
_cell_angle_gamma 90.000000
_cell_volume 2810.859631
_symmetry_space_group_name_H-M "P B C N"
_symmetry_group_IT_number 60
_symmetry_cell_setting 'orthorhombic'
loop_
_space_group_symop_operation_xyz
x,y,z
1/2-x,1/2-y,1/2+z
1/2+x,1/2-y,-z
-x,y,1/2-z
-x,-y,-z
1/2+x,1/2+y,1/2-z
1/2-x,1/2+y,z
x,-y,1/2+z
loop_
_atom_site_type_symbol
_atom_site_label
_atom_site_fract_x
_atom_site_fract_y
_atom_site_fract_z
Si Si1 0.000000 0.569209 0.750000
Si Si2 0.638848 0.879373 0.882071
Si Si3 0.388002 0.457449 0.702948
Si Si4 0.989104 0.056047 0.457101
Si Si5 0.936849 0.356305 0.155591
Si Si6 0.137389 0.202377 0.507672
Si Si7 0.238930 0.501938 0.369453
Si Si8 0.070682 0.793035 0.114766
O O1 0.818336 0.513474 0.777832
O O2 0.898902 0.623450 0.709947
O O3 0.594633 0.794461 0.888847
O O4 0.742327 0.915008 0.930426
O O5 0.810921 0.899881 0.837338
O O6 0.393196 0.920492 0.866747
O O7 0.500000 0.422208 0.750000
O O8 0.588488 0.506357 0.675633
O O9 0.122613 0.131518 0.473595
O O10 0.110335 0.007838 0.416401
O O11 0.000000 0.000000 0.500000
O O12 0.947553 0.434980 0.129201
O O13 0.696278 0.315640 0.134873
O O14 0.197952 0.318573 0.146093
O O15 0.397103 0.245863 0.502536
O O16 0.106828 0.177417 0.561772
#
# Coordination Sequence:
#
# PCOD9458160 Si02
#       8
#     4   8   8   8   8   8   8   8
#     4  12  24  46  72 112 138 190 242 318 368 444
#     4  11  25  47  70 106 146 194 237 312 367 444
#     4  11  21  42  77 104 138 188 245 298 375 434
#     4  11  26  43  70 108 142 189 252 309 354 434
#     4  12  27  47  76 108 144 196 244 310 369 448
#     4  12  25  48  74 104 148 202 240 296 372 445
#     4  11  24  43  75 100 145 189 250 304 360 433
#     4  12  28  48  73 107 156 195 244 297 384 442
#
# _framework density 21.345783999999998
#
# number of rings (size 3 to 8) (size 9 to 14) (size 15 to 20)
#    0.000    0.533    4.000    3.200    7.467    0.533 
#    1.200    1.333    0.000    0.000    0.000    0.000 
#    0.000    0.000    0.000    0.000    0.000    0.000 
#
# Total GULP energy -335015.097690 kJ/mol
# GULP energy per Si atom -5583.584962 kJ/mol
# Density = 2.129720 g / cm^3
# Si number density = 21.345784 Si / 1000 Ang^3
#
#
#
# Elastic Constant Matrix: (Units=GPa)
#
#
# Indices 1 2 3 4 5 6 
#
# 1 77.9426 14.6434 28.7904 0.0000 0.0000 0.0000
# 2 14.6434 68.7424 26.1297 0.0000 0.0000 0.0000
# 3 28.7904 26.1297 123.1663 0.0000 0.0000 0.0000
# 4 0.0000 0.0000 0.0000 21.8569 0.0000 0.0000
# 5 0.0000 0.0000 0.0000 0.0000 45.8900 0.0000
# 6 0.0000 0.0000 0.0000 0.0000 0.0000 29.7541
#
#
#
# Elastic Compliance Matrix: (Units=1/GPa)
#
#
# Indices 1 2 3 4 5 6 
#
# 1 0.014273 -0.001928 -0.002927 0.000000 0.000000 0.000000
# 2 -0.001928 0.016083 -0.002961 0.000000 0.000000 0.000000
# 3 -0.002927 -0.002961 0.009432 0.000000 0.000000 0.000000
# 4 0.000000 0.000000 0.000000 0.045752 0.000000 0.000000
# 5 0.000000 0.000000 0.000000 0.000000 0.021791 0.000000
# 6 0.000000 0.000000 0.000000 0.000000 0.000000 0.033609
#
#
# Mechanical properties :
#
#
# Convention : Reuss Voigt Hill
#
# Bulk Modulus (GPa) = 41.39906 45.44205 43.42056
# Shear Modulus (GPa) = 30.37186 32.85270 31.61228
#
# Velocity S-wave (km/s) = 3.77616 3.92736 3.85250
# Velocity P-wave (km/s) = 6.20074 6.47304 6.33835
#
# Compressibility (1/GPa) = 0.02415514
#
# Stress axis : x y z
#
# Youngs Moduli (GPa) = 70.05999 62.17589 106.02554
#
# Poissons Ratio (x) = 0.11986 0.31039
# Poissons Ratio (y) = 0.13506 0.31399
# Poissons Ratio (z) = 0.20510 0.18413
#
# Static dielectric constant tensor:
#      x y z
#    x 1.901950 0.000000 0.000000 
#    y 0.000000 1.754620 0.000000 
#    z 0.000000 0.000000 1.860290 
# 
# From -- ./inp_files/24982.got.cif
#   From: 2010.05.17/outbox.cif.g08.bks.cpg/sg60_13_cif.got.tgz:24982.got - 2010.06.03 14:59:27.
