data_PCOD9458797
_publ_section_title
;
Structure prediction by ZEFSAII (Michael W. Deem and Ramdas Pophale) SiO2 
 PCOD9458797
Probable space group: P B C N
;
_chemical_formula_sum "Si O2"
_cell_formula_units_Z 20
_cell_length_a 6.802587
_cell_length_b 5.144525
_cell_length_c 21.437529
_cell_angle_alpha 90.000000
_cell_angle_beta 90.000000
_cell_angle_gamma 90.000000
_cell_volume 750.229456
_symmetry_space_group_name_H-M "P B C N"
_symmetry_group_IT_number 60
_symmetry_cell_setting 'orthorhombic'
loop_
_space_group_symop_operation_xyz
x,y,z
1/2-x,1/2-y,1/2+z
1/2+x,1/2-y,-z
-x,y,1/2-z
-x,-y,-z
1/2+x,1/2+y,1/2-z
1/2-x,1/2+y,z
x,-y,1/2+z
loop_
_atom_site_type_symbol
_atom_site_label
_atom_site_fract_x
_atom_site_fract_y
_atom_site_fract_z
Si Si1 0.430377 0.623803 0.688649
Si Si2 0.120711 0.949157 0.937197
Si Si3 0.000000 0.390845 0.250000
O O1 0.500000 0.447526 0.750000
O O2 0.485905 0.511762 0.622495
O O3 0.574490 0.876204 0.699911
O O4 0.297906 0.151996 0.703023
O O5 0.298048 0.157231 0.935909
O O6 0.000000 0.000000 0.000000
#
# Coordination Sequence:
#
# PCOD9458797 Si02
#       3
#     8   8   4
#     4   8  16  36  63  91 123 162 222 280 339 391
#     4  12  26  45  70 101 144 191 236 286 350 424
#     4   6  14  28  62  86 116 146 218 270 330 378
#
# _framework density 26.658508999999999
#
# number of rings (size 3 to 8) (size 9 to 14) (size 15 to 20)
#    2.400    0.000    0.000    3.600    0.000    0.000 
#    0.000    4.000    0.000    0.000    0.000    0.000 
#    0.000    0.000    0.000    0.000    0.000    0.000 
#
# Total GULP energy -111400.201095 kJ/mol
# GULP energy per Si atom -5570.010055 kJ/mol
# Density = 2.659783 g / cm^3
# Si number density = 26.658509 Si / 1000 Ang^3
#
#
#
# Elastic Constant Matrix: (Units=GPa)
#
#
# Indices 1 2 3 4 5 6 
#
# 1 112.6380 0.3317 85.0377 0.0000 0.0000 0.0000
# 2 0.3317 157.3223 37.8191 0.0000 0.0000 0.0000
# 3 85.0377 37.8191 238.1065 0.0000 0.0000 0.0000
# 4 0.0000 0.0000 0.0000 45.2723 0.0000 0.0000
# 5 0.0000 0.0000 0.0000 0.0000 72.2377 0.0000
# 6 0.0000 0.0000 0.0000 0.0000 0.0000 49.3020
#
#
#
# Elastic Compliance Matrix: (Units=1/GPa)
#
#
# Indices 1 2 3 4 5 6 
#
# 1 0.012327 0.001073 -0.004573 0.000000 0.000000 0.000000
# 2 0.001073 0.006702 -0.001448 0.000000 0.000000 0.000000
# 3 -0.004573 -0.001448 0.006063 0.000000 0.000000 0.000000
# 4 0.000000 0.000000 0.000000 0.022089 0.000000 0.000000
# 5 0.000000 0.000000 0.000000 0.000000 0.013843 0.000000
# 6 0.000000 0.000000 0.000000 0.000000 0.000000 0.020283
#
#
# Mechanical properties :
#
#
# Convention : Reuss Voigt Hill
#
# Bulk Modulus (GPa) = 65.80104 83.82707 74.81406
# Shear Modulus (GPa) = 51.93813 59.02098 55.47955
#
# Velocity S-wave (km/s) = 4.41872 4.71038 4.56688
# Velocity P-wave (km/s) = 7.12530 7.81643 7.47886
#
# Compressibility (1/GPa) = 0.01519733
#
# Stress axis : x y z
#
# Youngs Moduli (GPa) = 81.12042 149.20541 164.93462
#
# Poissons Ratio (x) = -0.16015 0.75426
# Poissons Ratio (y) = -0.08707 0.23880
# Poissons Ratio (z) = 0.37097 0.21603
#
# Static dielectric constant tensor:
#      x y z
#    x 1.993670 0.000000 0.000000 
#    y 0.000000 2.925420 0.000000 
#    z 0.000000 0.000000 2.095010 
# 
# From -- ./inp_files/23794.got.cif
#   From: 2010.05.17/outbox.cif.g08.bks.cpg/sg60_12_cif.got.tgz:23794.got - 2010.06.03 14:59:27.
