data_PCOD9458055
_publ_section_title
;
Structure prediction by ZEFSAII (Michael W. Deem and Ramdas Pophale) SiO2 
 PCOD9458055
Probable space group: P B C N
;
_chemical_formula_sum "Si O2"
_cell_formula_units_Z 60
_cell_length_a 11.398637
_cell_length_b 17.009882
_cell_length_c 14.852945
_cell_angle_alpha 90.000000
_cell_angle_beta 90.000000
_cell_angle_gamma 90.000000
_cell_volume 2879.829639
_symmetry_space_group_name_H-M "P B C N"
_symmetry_group_IT_number 60
_symmetry_cell_setting 'orthorhombic'
loop_
_space_group_symop_operation_xyz
x,y,z
1/2-x,1/2-y,1/2+z
1/2+x,1/2-y,-z
-x,y,1/2-z
-x,-y,-z
1/2+x,1/2+y,1/2-z
1/2-x,1/2+y,z
x,-y,1/2+z
loop_
_atom_site_type_symbol
_atom_site_label
_atom_site_fract_x
_atom_site_fract_y
_atom_site_fract_z
Si Si1 0.500000 0.231582 0.250000
Si Si2 0.272628 0.433630 0.520346
Si Si3 0.690018 0.897171 0.485174
Si Si4 0.881289 0.336351 0.304334
Si Si5 0.435885 0.346773 0.658105
Si Si6 0.703393 0.670095 0.655548
Si Si7 0.964204 0.356935 0.921870
Si Si8 0.371606 0.721338 0.459003
O O1 0.411234 0.285418 0.307806
O O2 0.561127 0.174244 0.322079
O O3 0.270550 0.526637 0.508743
O O4 0.343453 0.401566 0.606785
O O5 0.313439 0.389212 0.428593
O O6 0.136541 0.413077 0.540621
O O7 0.617721 0.888944 0.393388
O O8 0.594831 0.890503 0.565070
O O9 0.775125 0.822149 0.482383
O O10 0.883056 0.241844 0.325977
O O11 0.770938 0.361533 0.243345
O O12 0.000000 0.349953 0.250000
O O13 0.500000 0.373068 0.750000
O O14 0.542472 0.337921 0.588813
O O15 0.797181 0.732226 0.615538
O O16 0.950943 0.280495 0.984903
#
# Coordination Sequence:
#
# PCOD9458055 Si02
#       8
#     4   8   8   8   8   8   8   8
#     4  12  22  38  70 104 126 164 246 284 320 380
#     4  11  26  43  64  98 146 182 214 272 363 424
#     4  12  24  44  65  99 138 181 216 277 358 416
#     4  11  20  40  71  96 122 173 234 279 325 393
#     4  11  21  41  71  95 128 176 230 279 335 402
#     4  11  21  41  65 101 131 172 228 287 327 394
#     4  11  23  40  69  97 133 174 228 285 336 398
#     4  11  21  40  71  91 127 177 230 276 331 400
#
# _framework density 20.834565000000001
#
# number of rings (size 3 to 8) (size 9 to 14) (size 15 to 20)
#    0.000    0.800    5.333    5.200    0.000    0.533 
#    6.000    0.000    1.467    0.000    0.000    0.000 
#    0.000    0.000    0.000    0.000    0.000    0.000 
#
# Total GULP energy -335072.673400 kJ/mol
# GULP energy per Si atom -5584.544557 kJ/mol
# Density = 2.078714 g / cm^3
# Si number density = 20.834565 Si / 1000 Ang^3
#
#
#
# Elastic Constant Matrix: (Units=GPa)
#
#
# Indices 1 2 3 4 5 6 
#
# 1 44.3356 7.6621 17.1311 0.0000 0.0000 0.0000
# 2 7.6621 37.0187 20.0737 0.0000 0.0000 0.0000
# 3 17.1311 20.0737 78.4199 0.0000 0.0000 0.0000
# 4 0.0000 0.0000 0.0000 -20.7143 0.0000 0.0000
# 5 0.0000 0.0000 0.0000 0.0000 34.6250 0.0000
# 6 0.0000 0.0000 0.0000 0.0000 0.0000 -20.7974
#
#
#
# Elastic Compliance Matrix: (Units=1/GPa)
#
#
# Indices 1 2 3 4 5 6 
#
# 1 0.024841 -0.002553 -0.004773 0.000000 0.000000 0.000000
# 2 -0.002553 0.031630 -0.007539 0.000000 0.000000 0.000000
# 3 -0.004773 -0.007539 0.015724 0.000000 0.000000 0.000000
# 4 0.000000 0.000000 0.000000 -0.048276 0.000000 0.000000
# 5 0.000000 0.000000 0.000000 0.000000 0.028881 0.000000
# 6 0.000000 0.000000 0.000000 0.000000 0.000000 -0.048083
#
#
# Mechanical properties :
#
#
# Convention : Reuss Voigt Hill
#
# Bulk Modulus (GPa) = 23.54893 27.72312 25.63603
# Shear Modulus (GPa) = 102.87659 6.28314 54.57986
#
# Velocity S-wave (km/s) = 7.03456 1.73847 5.12383
# Velocity P-wave (km/s) = 8.79246 4.16712 6.88013
#
# Compressibility (1/GPa) = 0.04246477
#
# Stress axis : x y z
#
# Youngs Moduli (GPa) = 40.25647 31.61574 63.59595
#
# Poissons Ratio (x) = 0.08073 0.30354
# Poissons Ratio (y) = 0.10279 0.47943
# Poissons Ratio (z) = 0.19214 0.23834
#
# Static dielectric constant tensor:
#      x y z
#    x 2.977530 0.000000 0.000000 
#    y 0.000000 1.763570 0.000000 
#    z 0.000000 0.000000 1.802790 
# 
# From -- ./inp_files/16346.got.cif
#   From: 2010.05.17/outbox.cif.g08.bks.cpg/sg60_9_cif.got.tgz:16346.got - 2010.06.03 14:59:27.
