data_PCOD9458613
_publ_section_title
;
Structure prediction by ZEFSAII (Michael W. Deem and Ramdas Pophale) SiO2 
 PCOD9458613
Probable space group: P B C N
;
_chemical_formula_sum "Si O2"
_cell_formula_units_Z 48
_cell_length_a 14.795810
_cell_length_b 8.060136
_cell_length_c 17.460628
_cell_angle_alpha 90.000000
_cell_angle_beta 90.000000
_cell_angle_gamma 90.000000
_cell_volume 2082.288858
_symmetry_space_group_name_H-M "P B C N"
_symmetry_group_IT_number 60
_symmetry_cell_setting 'orthorhombic'
loop_
_space_group_symop_operation_xyz
x,y,z
1/2-x,1/2-y,1/2+z
1/2+x,1/2-y,-z
-x,y,1/2-z
-x,-y,-z
1/2+x,1/2+y,1/2-z
1/2-x,1/2+y,z
x,-y,1/2+z
loop_
_atom_site_type_symbol
_atom_site_label
_atom_site_fract_x
_atom_site_fract_y
_atom_site_fract_z
Si Si1 0.721683 0.338377 0.091038
Si Si2 0.441575 0.278587 0.320884
Si Si3 0.763295 0.598267 0.976690
Si Si4 0.091002 0.724309 0.643591
Si Si5 0.433791 0.575760 0.565228
Si Si6 0.898954 0.396475 0.184237
O O1 0.641472 0.389902 0.147826
O O2 0.812903 0.340926 0.136879
O O3 0.733456 0.416220 0.006673
O O4 0.697315 0.157301 0.058976
O O5 0.500000 0.344555 0.250000
O O6 0.510214 0.283635 0.391327
O O7 0.407183 0.094467 0.300458
O O8 0.835275 0.629791 0.909852
O O9 0.661183 0.655853 0.958185
O O10 0.088780 0.917464 0.619541
O O11 0.109149 0.692448 0.733264
O O12 0.988702 0.655867 0.637770
O O13 0.500000 0.500000 0.500000
#
# Coordination Sequence:
#
# PCOD9458613 Si02
#       6
#     8   8   8   8   8   8
#     4  12  26  46  72 107 149 195 246 309 373 445
#     4  12  27  47  72 109 148 195 246 302 373 446
#     4  12  25  46  73 110 146 193 251 306 374 444
#     4  11  26  47  71 108 145 195 244 305 378 444
#     4  12  26  47  74 110 148 190 249 308 375 442
#     4  11  27  48  73 105 153 194 246 305 380 451
#
# _framework density 23.051556999999999
#
# number of rings (size 3 to 8) (size 9 to 14) (size 15 to 20)
#    0.000    0.333    6.667    1.000    7.000    2.000 
#    0.000    0.000    0.000    0.000    0.000    0.000 
#    0.000    0.000    0.000    0.000    0.000    0.000 
#
# Total GULP energy -267663.185367 kJ/mol
# GULP energy per Si atom -5576.316362 kJ/mol
# Density = 2.299909 g / cm^3
# Si number density = 23.051557 Si / 1000 Ang^3
#
#
#
# Elastic Constant Matrix: (Units=GPa)
#
#
# Indices 1 2 3 4 5 6 
#
# 1 172.0229 -3.7227 78.1744 0.0000 0.0000 0.0000
# 2 -3.7227 42.3364 24.9557 0.0000 0.0000 0.0000
# 3 78.1744 24.9557 121.3509 0.0000 0.0000 0.0000
# 4 0.0000 0.0000 0.0000 23.0851 0.0000 0.0000
# 5 0.0000 0.0000 0.0000 0.0000 56.2874 0.0000
# 6 0.0000 0.0000 0.0000 0.0000 0.0000 22.3950
#
#
#
# Elastic Compliance Matrix: (Units=1/GPa)
#
#
# Indices 1 2 3 4 5 6 
#
# 1 0.008999 0.004789 -0.006782 0.000000 0.000000 0.000000
# 2 0.004789 0.029427 -0.009137 0.000000 0.000000 0.000000
# 3 -0.006782 -0.009137 0.014488 0.000000 0.000000 0.000000
# 4 0.000000 0.000000 0.000000 0.043318 0.000000 0.000000
# 5 0.000000 0.000000 0.000000 0.000000 0.017766 0.000000
# 6 0.000000 0.000000 0.000000 0.000000 0.000000 0.044653
#
#
# Mechanical properties :
#
#
# Convention : Reuss Voigt Hill
#
# Bulk Modulus (GPa) = 32.62101 59.39166 46.00634
# Shear Modulus (GPa) = 26.16038 36.10703 31.13371
#
# Velocity S-wave (km/s) = 3.37243 3.96202 3.67905
# Velocity P-wave (km/s) = 5.41723 6.83745 6.16835
#
# Compressibility (1/GPa) = 0.03065509
#
# Stress axis : x y z
#
# Youngs Moduli (GPa) = 111.12638 33.98219 69.02084
#
# Poissons Ratio (x) = -0.16274 0.46809
# Poissons Ratio (y) = -0.53217 0.63062
# Poissons Ratio (z) = 0.75364 0.31048
#
# Static dielectric constant tensor:
#      x y z
#    x 1.911680 0.000000 0.000000 
#    y 0.000000 2.254740 0.000000 
#    z 0.000000 0.000000 1.884670 
# 
# From -- ./inp_files/20526.got.cif
#   From: 2010.05.17/outbox.cif.g08.bks.cpg/sg60_11_cif.got.tgz:20526.got - 2010.06.03 14:59:27.
