data_PCOD9458576
_publ_section_title
;
Structure prediction by ZEFSAII (Michael W. Deem and Ramdas Pophale) SiO2 
 PCOD9458576
Probable space group: P B C N
;
_chemical_formula_sum "Si O2"
_cell_formula_units_Z 32
_cell_length_a 8.416969
_cell_length_b 16.390083
_cell_length_c 10.029791
_cell_angle_alpha 90.000000
_cell_angle_beta 90.000000
_cell_angle_gamma 90.000000
_cell_volume 1383.658017
_symmetry_space_group_name_H-M "P B C N"
_symmetry_group_IT_number 60
_symmetry_cell_setting 'orthorhombic'
loop_
_space_group_symop_operation_xyz
x,y,z
1/2-x,1/2-y,1/2+z
1/2+x,1/2-y,-z
-x,y,1/2-z
-x,-y,-z
1/2+x,1/2+y,1/2-z
1/2-x,1/2+y,z
x,-y,1/2+z
loop_
_atom_site_type_symbol
_atom_site_label
_atom_site_fract_x
_atom_site_fract_y
_atom_site_fract_z
Si Si1 0.906846 0.333301 0.615802
Si Si2 0.359110 0.440797 0.547920
Si Si3 0.663112 0.012573 0.696201
Si Si4 0.953414 0.226337 0.107424
O O1 0.889733 0.430609 0.617203
O O2 0.729389 0.299359 0.607179
O O3 0.000000 0.311213 0.750000
O O4 0.007835 0.293222 0.500892
O O5 0.500000 0.500000 0.500000
O O6 0.252359 0.434475 0.414561
O O7 0.269952 0.480302 0.677550
O O8 0.437519 0.354462 0.585135
O O9 0.500000 0.049600 0.750000
O O10 0.000000 0.259238 0.250000
#
# Coordination Sequence:
#
# PCOD9458576 Si02
#       4
#     8   8   8   8
#     4  11  25  46  73 106 144 187 240 299 358 428
#     4  12  23  47  76 105 147 191 238 299 366 430
#     4  11  25  47  72 108 147 189 240 301 359 430
#     4  12  24  47  73 105 145 189 240 299 360 431
#
# _framework density 23.127102000000001
#
# number of rings (size 3 to 8) (size 9 to 14) (size 15 to 20)
#    0.000    0.500    5.000    3.000    3.500    2.000 
#    4.500    0.000    0.000    0.000    0.000    0.000 
#    0.000    0.000    0.000    0.000    0.000    0.000 
#
# Total GULP energy -179366.236923 kJ/mol
# GULP energy per Si atom -5605.194904 kJ/mol
# Density = 2.307446 g / cm^3
# Si number density = 23.127102 Si / 1000 Ang^3
#
#
#
# Elastic Constant Matrix: (Units=GPa)
#
#
# Indices 1 2 3 4 5 6 
#
# 1 166.1011 50.6148 66.8875 0.0000 0.0000 0.0000
# 2 50.6148 84.3234 62.9499 0.0000 0.0000 0.0000
# 3 66.8875 62.9499 154.6353 0.0000 0.0000 0.0000
# 4 0.0000 0.0000 0.0000 -60.1734 0.0000 0.0000
# 5 0.0000 0.0000 0.0000 0.0000 58.7709 0.0000
# 6 0.0000 0.0000 0.0000 0.0000 0.0000 46.8782
#
#
#
# Elastic Compliance Matrix: (Units=1/GPa)
#
#
# Indices 1 2 3 4 5 6 
#
# 1 0.007822 -0.003116 -0.002115 0.000000 0.000000 0.000000
# 2 -0.003116 0.018278 -0.006093 0.000000 0.000000 0.000000
# 3 -0.002115 -0.006093 0.009862 0.000000 0.000000 0.000000
# 4 0.000000 0.000000 0.000000 -0.016619 0.000000 0.000000
# 5 0.000000 0.000000 0.000000 0.000000 0.017015 0.000000
# 6 0.000000 0.000000 0.000000 0.000000 0.000000 0.021332
#
#
# Mechanical properties :
#
#
# Convention : Reuss Voigt Hill
#
# Bulk Modulus (GPa) = 75.10851 85.10715 80.10783
# Shear Modulus (GPa) = 58.97939 24.06897 41.52418
#
# Velocity S-wave (km/s) = 5.05546 3.22953 4.24190
# Velocity P-wave (km/s) = 8.16234 7.12644 7.66191
#
# Compressibility (1/GPa) = 0.01331407
#
# Stress axis : x y z
#
# Youngs Moduli (GPa) = 127.85167 54.71033 101.40098
#
# Poissons Ratio (x) = 0.17049 0.21443
# Poissons Ratio (y) = 0.39841 0.61782
# Poissons Ratio (z) = 0.27036 0.33334
#
# Static dielectric constant tensor:
#      x y z
#    x 2.238960 0.000000 0.000000 
#    y 0.000000 1.835010 0.000000 
#    z 0.000000 0.000000 1.844000 
# 
# From -- ./inp_files/3619.got.cif
#   From: 2010.05.17/outbox.cif.g08.bks.cpg/sg60_2_cif.got.tgz:3619.got - 2010.06.03 14:59:27.
