data_PCOD9458593
_publ_section_title
;
Structure prediction by ZEFSAII (Michael W. Deem and Ramdas Pophale) SiO2 
 PCOD9458593
Probable space group: P B C N
;
_chemical_formula_sum "Si O2"
_cell_formula_units_Z 64
_cell_length_a 9.239562
_cell_length_b 10.484927
_cell_length_c 30.272965
_cell_angle_alpha 90.000000
_cell_angle_beta 90.000000
_cell_angle_gamma 90.000000
_cell_volume 2932.727786
_symmetry_space_group_name_H-M "P B C N"
_symmetry_group_IT_number 60
_symmetry_cell_setting 'orthorhombic'
loop_
_space_group_symop_operation_xyz
x,y,z
1/2-x,1/2-y,1/2+z
1/2+x,1/2-y,-z
-x,y,1/2-z
-x,-y,-z
1/2+x,1/2+y,1/2-z
1/2-x,1/2+y,z
x,-y,1/2+z
loop_
_atom_site_type_symbol
_atom_site_label
_atom_site_fract_x
_atom_site_fract_y
_atom_site_fract_z
Si Si1 0.881097 0.029972 0.462855
Si Si2 0.301522 0.694293 0.855043
Si Si3 0.920181 0.368168 0.995914
Si Si4 0.795157 0.757402 0.843874
Si Si5 0.143324 0.457957 0.807194
Si Si6 0.040846 0.767053 0.910401
Si Si7 0.428543 0.292252 0.085864
Si Si8 0.199632 0.497968 0.704915
O O1 0.747465 0.106294 0.483370
O O2 0.965108 0.103121 0.424549
O O3 0.834082 0.899547 0.439202
O O4 0.000000 0.000000 0.500000
O O5 0.224416 0.566223 0.836689
O O6 0.330620 0.809250 0.820212
O O7 0.197649 0.765508 0.889715
O O8 0.444384 0.658758 0.882674
O O9 0.986012 0.291286 0.954670
O O10 0.944323 0.302809 0.042789
O O11 0.000000 0.500000 0.000000
O O12 0.675971 0.782815 0.881516
O O13 0.755043 0.636703 0.813289
O O14 0.937455 0.718091 0.871169
O O15 0.799076 0.886537 0.815695
O O16 0.199102 0.485276 0.757672
O O17 0.969427 0.477154 0.808316
#
# Coordination Sequence:
#
# PCOD9458593 Si02
#       8
#     8   8   8   8   8   8   8   8
#     4  12  25  45  65  98 137 184 245 288 346 417
#     4  12  26  46  76 108 147 187 238 303 364 432
#     4  12  29  43  69  98 141 192 234 295 350 412
#     4  12  24  47  74 107 140 194 240 297 358 438
#     4  11  25  49  73 112 145 187 233 303 373 437
#     4  12  26  44  71 102 144 186 239 294 357 416
#     4  12  26  45  71 100 143 186 242 291 351 429
#     4  11  25  48  77 106 148 185 238 299 371 442
#
# _framework density 21.822686999999998
#
# number of rings (size 3 to 8) (size 9 to 14) (size 15 to 20)
#    0.000    0.250    5.000    3.750    5.250    0.000 
#    0.000    1.250    0.000    0.000    0.000    0.000 
#    0.000    0.000    0.000    0.000    0.000    0.000 
#
# Total GULP energy -357575.518978 kJ/mol
# GULP energy per Si atom -5587.117484 kJ/mol
# Density = 2.177302 g / cm^3
# Si number density = 21.822687 Si / 1000 Ang^3
#
#
#
# Elastic Constant Matrix: (Units=GPa)
#
#
# Indices 1 2 3 4 5 6 
#
# 1 57.8243 -12.3022 8.9870 0.0000 0.0000 0.0000
# 2 -12.3022 102.0932 31.4326 0.0000 0.0000 0.0000
# 3 8.9870 31.4326 101.4960 0.0000 0.0000 0.0000
# 4 0.0000 0.0000 0.0000 29.2349 0.0000 0.0000
# 5 0.0000 0.0000 0.0000 0.0000 31.7298 0.0000
# 6 0.0000 0.0000 0.0000 0.0000 0.0000 30.2315
#
#
#
# Elastic Compliance Matrix: (Units=1/GPa)
#
#
# Indices 1 2 3 4 5 6 
#
# 1 0.018327 0.002993 -0.002550 0.000000 0.000000 0.000000
# 2 0.002993 0.011316 -0.003770 0.000000 0.000000 0.000000
# 3 -0.002550 -0.003770 0.011246 0.000000 0.000000 0.000000
# 4 0.000000 0.000000 0.000000 0.034206 0.000000 0.000000
# 5 0.000000 0.000000 0.000000 0.000000 0.031516 0.000000
# 6 0.000000 0.000000 0.000000 0.000000 0.000000 0.033078
#
#
# Mechanical properties :
#
#
# Convention : Reuss Voigt Hill
#
# Bulk Modulus (GPa) = 29.20818 35.29425 32.25122
# Shear Modulus (GPa) = 31.69508 33.79232 32.74370
#
# Velocity S-wave (km/s) = 3.81516 3.93936 3.87776
# Velocity P-wave (km/s) = 5.72893 6.07451 5.90425
#
# Compressibility (1/GPa) = 0.03423699
#
# Stress axis : x y z
#
# Youngs Moduli (GPa) = 54.56457 88.36826 88.92199
#
# Poissons Ratio (x) = -0.26452 0.22673
# Poissons Ratio (y) = -0.16334 0.33520
# Poissons Ratio (z) = 0.13913 0.33312
#
# Static dielectric constant tensor:
#      x y z
#    x 1.763540 0.000000 0.000000 
#    y 0.000000 2.084670 0.000000 
#    z 0.000000 0.000000 1.813350 
# 
# From -- ./inp_files/26022.got.cif
#   From: 2010.05.17/outbox.cif.g08.bks.cpg/sg60_14_cif.got.tgz:26022.got - 2010.06.03 14:59:27.
