data_PCOD9458257
_publ_section_title
;
Structure prediction by ZEFSAII (Michael W. Deem and Ramdas Pophale) SiO2 
 PCOD9458257
Probable space group: P B C N
;
_chemical_formula_sum "Si O2"
_cell_formula_units_Z 32
_cell_length_a 25.829849
_cell_length_b 7.220847
_cell_length_c 7.950138
_cell_angle_alpha 90.000000
_cell_angle_beta 90.000000
_cell_angle_gamma 90.000000
_cell_volume 1482.807171
_symmetry_space_group_name_H-M "P B C N"
_symmetry_group_IT_number 60
_symmetry_cell_setting 'orthorhombic'
loop_
_space_group_symop_operation_xyz
x,y,z
1/2-x,1/2-y,1/2+z
1/2+x,1/2-y,-z
-x,y,1/2-z
-x,-y,-z
1/2+x,1/2+y,1/2-z
1/2-x,1/2+y,z
x,-y,1/2+z
loop_
_atom_site_type_symbol
_atom_site_label
_atom_site_fract_x
_atom_site_fract_y
_atom_site_fract_z
Si Si1 0.811907 0.271557 0.854923
Si Si2 0.384842 0.117378 0.641718
Si Si3 0.460352 0.906123 0.873592
Si Si4 0.301901 0.370842 0.529258
O O1 0.857205 0.418652 0.887915
O O2 0.807606 0.217489 0.656792
O O3 0.757667 0.360304 0.913312
O O4 0.818972 0.082761 0.957652
O O5 0.427490 0.067148 0.780376
O O6 0.417305 0.195617 0.483102
O O7 0.337048 0.254882 0.660090
O O8 0.500000 0.801321 0.750000
O O9 0.500000 0.000000 0.000000
#
# Coordination Sequence:
#
# PCOD9458257 Si02
#       4
#     8   8   8   8
#     4  12  26  40  63  96 137 175 215 256 318 393
#     4  11  22  42  68  94 132 171 211 265 329 373
#     4   9  20  40  70  96 116 167 225 271 322 377
#     4  12  26  40  63  96 137 176 213 259 316 395
#
# _framework density 21.580690000000001
#
# number of rings (size 3 to 8) (size 9 to 14) (size 15 to 20)
#    0.000    1.000    5.000    1.500    7.000    0.000 
#    0.000    0.000    0.000   30.000    0.000    0.000 
#    0.000    0.000    0.000    0.000    0.000    0.000 
#
# Total GULP energy -178528.352442 kJ/mol
# GULP energy per Si atom -5579.011014 kJ/mol
# Density = 2.153157 g / cm^3
# Si number density = 21.580690 Si / 1000 Ang^3
#
#
#
# Elastic Constant Matrix: (Units=GPa)
#
#
# Indices 1 2 3 4 5 6 
#
# 1 132.2075 23.7317 45.9742 0.0000 0.0000 0.0000
# 2 23.7317 91.5434 7.3893 0.0000 0.0000 0.0000
# 3 45.9742 7.3893 71.1161 0.0000 0.0000 0.0000
# 4 0.0000 0.0000 0.0000 18.5937 0.0000 0.0000
# 5 0.0000 0.0000 0.0000 0.0000 38.2296 0.0000
# 6 0.0000 0.0000 0.0000 0.0000 0.0000 3.0856
#
#
#
# Elastic Compliance Matrix: (Units=1/GPa)
#
#
# Indices 1 2 3 4 5 6 
#
# 1 0.010149 -0.002119 -0.006341 0.000000 0.000000 0.000000
# 2 -0.002119 0.011459 0.000179 0.000000 0.000000 0.000000
# 3 -0.006341 0.000179 0.018142 0.000000 0.000000 0.000000
# 4 0.000000 0.000000 0.000000 0.053782 0.000000 0.000000
# 5 0.000000 0.000000 0.000000 0.000000 0.026158 0.000000
# 6 0.000000 0.000000 0.000000 0.000000 0.000000 0.324085
#
#
# Mechanical properties :
#
#
# Convention : Reuss Voigt Hill
#
# Bulk Modulus (GPa) = 43.12492 49.89528 46.51010
# Shear Modulus (GPa) = 10.68225 26.49989 18.59107
#
# Velocity S-wave (km/s) = 2.22725 3.50801 2.93826
# Velocity P-wave (km/s) = 5.16146 6.29116 5.75410
#
# Compressibility (1/GPa) = 0.02318845
#
# Stress axis : x y z
#
# Youngs Moduli (GPa) = 98.52875 87.26999 55.12035
#
# Poissons Ratio (x) = 0.18495 0.34952
# Poissons Ratio (y) = 0.20881 -0.00989
# Poissons Ratio (z) = 0.62477 -0.01566
#
# Static dielectric constant tensor:
#      x y z
#    x 1.758620 0.000000 0.000000 
#    y 0.000000 1.738400 0.000000 
#    z 0.000000 0.000000 1.927590 
# 
# From -- ./inp_files/7693.got.cif
#   From: 2010.05.17/outbox.cif.g08.bks.cpg/sg60_4_cif.got.tgz:7693.got - 2010.06.03 14:59:27.
