data_PCOD9458643
_publ_section_title
;
Structure prediction by ZEFSAII (Michael W. Deem and Ramdas Pophale) SiO2 
 PCOD9458643
Probable space group: P B C N
;
_chemical_formula_sum "Si O2"
_cell_formula_units_Z 24
_cell_length_a 7.139124
_cell_length_b 10.955928
_cell_length_c 9.772803
_cell_angle_alpha 90.000000
_cell_angle_beta 90.000000
_cell_angle_gamma 90.000000
_cell_volume 764.386906
_symmetry_space_group_name_H-M "P B C N"
_symmetry_group_IT_number 60
_symmetry_cell_setting 'orthorhombic'
loop_
_space_group_symop_operation_xyz
x,y,z
1/2-x,1/2-y,1/2+z
1/2+x,1/2-y,-z
-x,y,1/2-z
-x,-y,-z
1/2+x,1/2+y,1/2-z
1/2-x,1/2+y,z
x,-y,1/2+z
loop_
_atom_site_type_symbol
_atom_site_label
_atom_site_fract_x
_atom_site_fract_y
_atom_site_fract_z
Si Si1 0.000000 0.713176 0.250000
Si Si2 0.538262 0.620895 0.519674
Si Si3 0.152337 0.488102 0.380676
Si Si4 0.000000 0.271850 0.250000
O O1 0.075007 0.798397 0.129847
O O2 0.156371 0.615372 0.297373
O O3 0.744837 0.646702 0.616133
O O4 0.641932 0.479542 0.525660
O O5 0.554726 0.697231 0.379398
O O6 0.000000 0.416886 0.250000
O O7 0.000000 0.500000 0.500000
#
# Coordination Sequence:
#
# PCOD9458643 Si02
#       4
#     4   8   8   4
#     4  11  27  52  78 120 169 211 272 336 416 509
#     4  12  29  51  81 121 163 214 276 346 417 490
#     4  11  27  49  82 115 162 222 269 342 419 489
#     4  11  27  48  80 118 161 211 280 336 408 495
#
# _framework density 31.397711000000001
#
# number of rings (size 3 to 8) (size 9 to 14) (size 15 to 20)
#    0.000    0.667    3.333    1.000    9.333    8.000 
#    0.000    0.000    0.000    0.000    0.000    0.000 
#    0.000    0.000    0.000    0.000    0.000    0.000 
#
# Total GULP energy -133670.475832 kJ/mol
# GULP energy per Si atom -5569.603160 kJ/mol
# Density = 3.132625 g / cm^3
# Si number density = 31.397711 Si / 1000 Ang^3
#
#
#
# Elastic Constant Matrix: (Units=GPa)
#
#
# Indices 1 2 3 4 5 6 
#
# 1 253.8408 56.5559 74.0456 0.0000 0.0000 0.0000
# 2 56.5559 388.7518 193.8342 0.0000 0.0000 0.0000
# 3 74.0456 193.8342 343.6959 0.0000 0.0000 0.0000
# 4 0.0000 0.0000 0.0000 69.9774 0.0000 0.0000
# 5 0.0000 0.0000 0.0000 0.0000 50.3177 0.0000
# 6 0.0000 0.0000 0.0000 0.0000 0.0000 45.4614
#
#
#
# Elastic Compliance Matrix: (Units=1/GPa)
#
#
# Indices 1 2 3 4 5 6 
#
# 1 0.004218 -0.000223 -0.000783 0.000000 0.000000 0.000000
# 2 -0.000223 0.003590 -0.001977 0.000000 0.000000 0.000000
# 3 -0.000783 -0.001977 0.004193 0.000000 0.000000 0.000000
# 4 0.000000 0.000000 0.000000 0.014290 0.000000 0.000000
# 5 0.000000 0.000000 0.000000 0.000000 0.019874 0.000000
# 6 0.000000 0.000000 0.000000 0.000000 0.000000 0.021997
#
#
# Mechanical properties :
#
#
# Convention : Reuss Voigt Hill
#
# Bulk Modulus (GPa) = 165.68830 181.68442 173.68636
# Shear Modulus (GPa) = 65.66919 77.27482 71.47201
#
# Velocity S-wave (km/s) = 4.57828 4.96639 4.77628
# Velocity P-wave (km/s) = 8.99072 9.53299 9.26582
#
# Compressibility (1/GPa) = 0.00603543
#
# Stress axis : x y z
#
# Youngs Moduli (GPa) = 237.10503 278.51478 238.49111
#
# Poissons Ratio (x) = 0.06220 0.18666
# Poissons Ratio (y) = 0.05295 0.47145
# Poissons Ratio (z) = 0.18558 0.55057
#
# Static dielectric constant tensor:
#      x y z
#    x 1.789840 0.000000 0.000000 
#    y 0.000000 2.293230 0.000000 
#    z 0.000000 0.000000 2.529660 
# 
# From -- ./inp_files/3324.got.cif
#   From: 2010.05.17/outbox.cif.g08.bks.cpg/sg60_2_cif.got.tgz:3324.got - 2010.06.03 14:59:27.
