data_PCOD9458156
_publ_section_title
;
Structure prediction by ZEFSAII (Michael W. Deem and Ramdas Pophale) SiO2 
 PCOD9458156
Probable space group: P B C N
;
_chemical_formula_sum "Si O2"
_cell_formula_units_Z 48
_cell_length_a 10.886702
_cell_length_b 20.174195
_cell_length_c 11.920148
_cell_angle_alpha 90.000000
_cell_angle_beta 90.000000
_cell_angle_gamma 90.000000
_cell_volume 2618.027458
_symmetry_space_group_name_H-M "P B C N"
_symmetry_group_IT_number 60
_symmetry_cell_setting 'orthorhombic'
loop_
_space_group_symop_operation_xyz
x,y,z
1/2-x,1/2-y,1/2+z
1/2+x,1/2-y,-z
-x,y,1/2-z
-x,-y,-z
1/2+x,1/2+y,1/2-z
1/2-x,1/2+y,z
x,-y,1/2+z
loop_
_atom_site_type_symbol
_atom_site_label
_atom_site_fract_x
_atom_site_fract_y
_atom_site_fract_z
Si Si1 0.461935 0.273653 0.073096
Si Si2 0.688484 0.931568 0.706605
Si Si3 0.050121 0.614946 0.073763
Si Si4 0.877846 0.580121 0.674504
Si Si5 0.886110 0.172527 0.166223
Si Si6 0.704495 0.294161 0.212041
O O1 0.451112 0.194255 0.059316
O O2 0.597868 0.289925 0.118402
O O3 0.365528 0.293808 0.169400
O O4 0.431706 0.309728 0.957838
O O5 0.581982 0.907179 0.621331
O O6 0.645513 0.906261 0.829256
O O7 0.814540 0.896742 0.673428
O O8 0.686702 0.010687 0.702862
O O9 0.082357 0.582282 0.955542
O O10 0.788802 0.641748 0.697283
O O11 0.000000 0.585577 0.750000
O O12 0.788861 0.229253 0.201422
O O13 0.000000 0.173874 0.250000
#
# Coordination Sequence:
#
# PCOD9458156 Si02
#       6
#     8   8   8   8   8   8
#     4  11  24  43  69  94 133 173 215 274 335 380
#     4  11  24  44  65  96 136 167 215 272 335 387
#     4  11  21  42  70  93 131 168 212 280 333 375
#     4  12  26  40  70 102 126 170 228 272 318 392
#     4  12  26  40  69 100 127 175 222 264 328 394
#     4  11  24  43  64  98 131 170 217 275 325 380
#
# _framework density 18.334413000000001
#
# number of rings (size 3 to 8) (size 9 to 14) (size 15 to 20)
#    0.000    0.667    6.667    2.000    7.000    0.000 
#    3.000    0.833    0.000    0.000    0.000    0.000 
#    0.000    0.000    0.000    0.000    0.000    0.000 
#
# Total GULP energy -268494.111998 kJ/mol
# GULP energy per Si atom -5593.627333 kJ/mol
# Density = 1.829268 g / cm^3
# Si number density = 18.334413 Si / 1000 Ang^3
#
#
#
# Elastic Constant Matrix: (Units=GPa)
#
#
# Indices 1 2 3 4 5 6 
#
# 1 102.0355 63.9208 55.7995 0.0000 0.0000 0.0000
# 2 63.9208 120.2699 57.6528 0.0000 0.0000 0.0000
# 3 55.7995 57.6528 109.1075 0.0000 0.0000 0.0000
# 4 0.0000 0.0000 0.0000 0.3521 0.0000 0.0000
# 5 0.0000 0.0000 0.0000 0.0000 9.4858 0.0000
# 6 0.0000 0.0000 0.0000 0.0000 0.0000 40.8534
#
#
#
# Elastic Compliance Matrix: (Units=1/GPa)
#
#
# Indices 1 2 3 4 5 6 
#
# 1 0.016585 -0.006360 -0.005122 0.000000 0.000000 0.000000
# 2 -0.006360 0.013574 -0.003920 0.000000 0.000000 0.000000
# 3 -0.005122 -0.003920 0.013856 0.000000 0.000000 0.000000
# 4 0.000000 0.000000 0.000000 2.840422 0.000000 0.000000
# 5 0.000000 0.000000 0.000000 0.000000 0.105420 0.000000
# 6 0.000000 0.000000 0.000000 0.000000 0.000000 0.024478
#
#
# Mechanical properties :
#
#
# Convention : Reuss Voigt Hill
#
# Bulk Modulus (GPa) = 75.68566 76.23991 75.96279
# Shear Modulus (GPa) = 1.63959 20.40758 11.02358
#
# Velocity S-wave (km/s) = 0.94668 3.33990 2.45470
# Velocity P-wave (km/s) = 6.52420 7.51974 7.03959
#
# Compressibility (1/GPa) = 0.01321254
#
# Stress axis : x y z
#
# Youngs Moduli (GPa) = 60.29409 73.67166 72.17160
#
# Poissons Ratio (x) = 0.46853 0.36963
# Poissons Ratio (y) = 0.38345 0.28291
# Poissons Ratio (z) = 0.30880 0.28879
#
# Static dielectric constant tensor:
#      x y z
#    x 1.605950 0.000000 0.000000 
#    y 0.000000 1.616410 0.000000 
#    z 0.000000 0.000000 1.614170 
# 
# From -- ./inp_files/10989.got.cif
#   From: 2010.05.17/outbox.cif.g08.bks.cpg/sg60_6_cif.got.tgz:10989.got - 2010.06.03 14:59:27.
