data_PCOD9458914
_publ_section_title
;
Structure prediction by ZEFSAII (Michael W. Deem and Ramdas Pophale) SiO2 
 PCOD9458914
Probable space group: P B C N
;
_chemical_formula_sum "Si O2"
_cell_formula_units_Z 64
_cell_length_a 24.000000
_cell_length_b 9.000000
_cell_length_c 15.000000
_cell_angle_alpha 90.000000
_cell_angle_beta 90.000000
_cell_angle_gamma 90.000000
_cell_volume 3240.000000
_symmetry_space_group_name_H-M "P B C N"
_symmetry_group_IT_number 60
_symmetry_cell_setting 'orthorhombic'
loop_
_space_group_symop_operation_xyz
x,y,z
1/2-x,1/2-y,1/2+z
1/2+x,1/2-y,-z
-x,y,1/2-z
-x,-y,-z
1/2+x,1/2+y,1/2-z
1/2-x,1/2+y,z
x,-y,1/2+z
loop_
_atom_site_type_symbol
_atom_site_label
_atom_site_fract_x
_atom_site_fract_y
_atom_site_fract_z
Si Si1 0.293101 0.883817 0.216213
Si Si2 0.930523 0.199555 0.991748
Si Si3 0.204135 0.565646 0.928475
Si Si4 0.818879 0.087258 0.064376
Si Si5 0.618961 0.002689 0.926004
Si Si6 0.047284 0.969831 0.176504
Si Si7 0.514541 0.192814 0.852462
Si Si8 0.324516 0.467432 0.725785
O O1 0.301272 0.936995 0.319995
O O2 0.336016 0.970224 0.152161
O O3 0.308432 0.707113 0.203021
O O4 0.228276 0.928843 0.197499
O O5 0.880412 0.088443 0.021290
O O6 0.963356 0.272104 0.077293
O O7 0.903453 0.336134 0.937686
O O8 0.965581 0.111945 0.917124
O O9 0.264572 0.508570 0.961974
O O10 0.199074 0.741041 0.946929
O O11 0.155131 0.478192 0.981751
O O12 0.827238 0.042409 0.167121
O O13 0.563632 0.099205 0.901591
O O14 0.000000 0.921708 0.250000
O O15 0.038431 0.144828 0.166019
O O16 0.114757 0.966539 0.196603
O O17 0.500000 0.134810 0.750000
#
# Coordination Sequence:
#
# PCOD9458914 Si02
#       8
#     8   8   8   8   8   8   8   8
#     4  10  22  40  65  97 132 171 213 266 335 389
#     4  11  25  42  64  97 132 169 219 278 316 388
#     4   9  21  37  60  94 131 162 213 261 322 391
#     4   9  19  39  61  89 129 170 209 263 320 380
#     4  11  24  40  66  97 129 168 217 269 329 398
#     4  11  24  43  66  97 133 177 221 268 326 391
#     4  11  24  45  71  90 122 176 223 264 327 388
#     4  10  21  40  66  94 131 174 215 267 325 392
#
# _framework density 19.753086
#
# number of rings (size 3 to 8) (size 9 to 14) (size 15 to 20)
#    0.000    1.750    1.250    2.250    7.000    2.500 
#    2.250    0.000    0.000    0.000    0.000    0.000 
#    0.000    0.000    0.000    0.000    0.000    0.000 
#
# Total GULP energy -356559.135880 kJ/mol
# GULP energy per Si atom -5571.236498 kJ/mol
# Density = 1.970813 g / cm^3
# Si number density = 19.753086 Si / 1000 Ang^3
#
#
#
# Elastic Constant Matrix: (Units=GPa)
#
#
# Indices 1 2 3 4 5 6 
#
# 1 130.4918 18.2230 43.9255 0.0000 0.0000 0.0000
# 2 18.2230 22.1821 21.9888 0.0000 0.0000 0.0000
# 3 43.9255 21.9888 87.9744 0.0000 0.0000 0.0000
# 4 0.0000 0.0000 0.0000 28.5212 0.0000 0.0000
# 5 0.0000 0.0000 0.0000 0.0000 51.4095 0.0000
# 6 0.0000 0.0000 0.0000 0.0000 0.0000 40.9646
#
#
#
# Elastic Compliance Matrix: (Units=1/GPa)
#
#
# Indices 1 2 3 4 5 6 
#
# 1 0.009486 -0.004118 -0.003707 0.000000 0.000000 0.000000
# 2 -0.004118 0.061718 -0.013370 0.000000 0.000000 0.000000
# 3 -0.003707 -0.013370 0.016560 0.000000 0.000000 0.000000
# 4 0.000000 0.000000 0.000000 0.035062 0.000000 0.000000
# 5 0.000000 0.000000 0.000000 0.000000 0.019452 0.000000
# 6 0.000000 0.000000 0.000000 0.000000 0.000000 0.024411
#
#
# Mechanical properties :
#
#
# Convention : Reuss Voigt Hill
#
# Bulk Modulus (GPa) = 22.03941 45.43587 33.73764
# Shear Modulus (GPa) = 22.30117 34.61312 28.45715
#
# Velocity S-wave (km/s) = 3.36370 4.19058 3.79970
# Velocity P-wave (km/s) = 5.12520 6.81663 6.03051
#
# Compressibility (1/GPa) = 0.04537327
#
# Stress axis : x y z
#
# Youngs Moduli (GPa) = 105.41501 16.20276 60.38788
#
# Poissons Ratio (x) = 0.06673 0.22387
# Poissons Ratio (y) = 0.43413 0.80737
# Poissons Ratio (z) = 0.39079 0.21663
#
# Static dielectric constant tensor:
#      x y z
#    x 1.735630 0.000000 0.000000 
#    y 0.000000 1.687540 0.000000 
#    z 0.000000 0.000000 1.741790 
# 
# From -- ./inp_files/17953.got.cif
#   From: 2010.05.17/outbox.ucp.g08.bks.cvg/sg60_9_cif.got.tgz:17953.got - 2010.06.11 16:26:41.
