data_PCOD9458209
_publ_section_title
;
Structure prediction by ZEFSAII (Michael W. Deem and Ramdas Pophale) SiO2 
 PCOD9458209
Probable space group: P B C N
;
_chemical_formula_sum "Si O2"
_cell_formula_units_Z 56
_cell_length_a 23.678801
_cell_length_b 13.811878
_cell_length_c 8.380703
_cell_angle_alpha 90.000000
_cell_angle_beta 90.000000
_cell_angle_gamma 90.000000
_cell_volume 2740.898110
_symmetry_space_group_name_H-M "P B C N"
_symmetry_group_IT_number 60
_symmetry_cell_setting 'orthorhombic'
loop_
_space_group_symop_operation_xyz
x,y,z
1/2-x,1/2-y,1/2+z
1/2+x,1/2-y,-z
-x,y,1/2-z
-x,-y,-z
1/2+x,1/2+y,1/2-z
1/2-x,1/2+y,z
x,-y,1/2+z
loop_
_atom_site_type_symbol
_atom_site_label
_atom_site_fract_x
_atom_site_fract_y
_atom_site_fract_z
Si Si1 0.113110 0.642501 0.461715
Si Si2 0.994546 0.610849 0.560315
Si Si3 0.217213 0.964006 0.799536
Si Si4 0.628436 0.199514 0.529422
Si Si5 0.302559 0.645559 0.634126
Si Si6 0.840924 0.467388 0.833222
Si Si7 0.187653 0.767489 0.650532
O O1 0.131111 0.562649 0.595106
O O2 0.120556 0.587940 0.294952
O O3 0.156901 0.729547 0.491033
O O4 0.048178 0.667264 0.488943
O O5 0.935145 0.660850 0.521469
O O6 0.000000 0.608892 0.750000
O O7 0.000000 0.500000 0.500000
O O8 0.281975 0.983757 0.752982
O O9 0.196137 0.881026 0.677418
O O10 0.187427 0.066393 0.770337
O O11 0.212117 0.916924 0.973998
O O12 0.645128 0.286076 0.410459
O O13 0.666231 0.107991 0.477420
O O14 0.647482 0.233999 0.703520
O O15 0.248209 0.714018 0.665388
#
# Coordination Sequence:
#
# PCOD9458209 Si02
#       7
#     8   8   8   8   8   8   8
#     4  12  23  36  58  91 126 166 205 252 311 374
#     4  12  24  40  62  91 128 169 207 259 315 381
#     4  11  23  36  60  88 125 163 202 252 315 371
#     4  11  25  40  59  89 129 165 208 258 314 378
#     4  11  24  39  61  89 125 167 205 261 312 376
#     4  12  21  35  58  91 127 163 201 252 306 381
#     4  11  22  39  59  90 123 162 207 250 319 372
#
# _framework density 20.431258
#
# number of rings (size 3 to 8) (size 9 to 14) (size 15 to 20)
#    0.000    0.571    7.143    1.714    2.000    1.143 
#    0.000    0.000    0.000    0.857    0.000    0.000 
#    0.000    0.000    0.000    0.000    0.000    0.000 
#
# Total GULP energy -313387.304364 kJ/mol
# GULP energy per Si atom -5596.201864 kJ/mol
# Density = 2.038476 g / cm^3
# Si number density = 20.431258 Si / 1000 Ang^3
#
#
#
# Elastic Constant Matrix: (Units=GPa)
#
#
# Indices 1 2 3 4 5 6 
#
# 1 108.3287 44.8370 30.7173 0.0000 0.0000 0.0000
# 2 44.8370 106.4138 16.5961 0.0000 0.0000 0.0000
# 3 30.7173 16.5961 52.3070 0.0000 0.0000 0.0000
# 4 0.0000 0.0000 0.0000 25.5958 0.0000 0.0000
# 5 0.0000 0.0000 0.0000 0.0000 26.7878 0.0000
# 6 0.0000 0.0000 0.0000 0.0000 0.0000 33.8564
#
#
#
# Elastic Compliance Matrix: (Units=1/GPa)
#
#
# Indices 1 2 3 4 5 6 
#
# 1 0.012801 -0.004441 -0.006109 0.000000 0.000000 0.000000
# 2 -0.004441 0.011427 -0.001018 0.000000 0.000000 0.000000
# 3 -0.006109 -0.001018 0.023028 0.000000 0.000000 0.000000
# 4 0.000000 0.000000 0.000000 0.039069 0.000000 0.000000
# 5 0.000000 0.000000 0.000000 0.000000 0.037330 0.000000
# 6 0.000000 0.000000 0.000000 0.000000 0.000000 0.029536
#
#
# Mechanical properties :
#
#
# Convention : Reuss Voigt Hill
#
# Bulk Modulus (GPa) = 41.45577 50.15004 45.80290
# Shear Modulus (GPa) = 27.11967 28.90794 28.01380
#
# Velocity S-wave (km/s) = 3.64725 3.76558 3.70689
# Velocity P-wave (km/s) = 6.17017 6.59584 6.38655
#
# Compressibility (1/GPa) = 0.02412210
#
# Stress axis : x y z
#
# Youngs Moduli (GPa) = 78.11597 87.51023 43.42536
#
# Poissons Ratio (x) = 0.38865 0.26527
# Poissons Ratio (y) = 0.34693 0.04419
# Poissons Ratio (z) = 0.47718 0.08905
#
# Static dielectric constant tensor:
#      x y z
#    x 1.731210 0.000000 0.000000 
#    y 0.000000 1.748070 0.000000 
#    z 0.000000 0.000000 1.820350 
# 
# From -- ./inp_files/7434.got.cif
#   From: 2010.05.17/outbox.cif.g08.bks.cpg/sg60_4_cif.got.tgz:7434.got - 2010.06.03 14:59:27.
