data_PCOD9458522
_publ_section_title
;
Structure prediction by ZEFSAII (Michael W. Deem and Ramdas Pophale) SiO2 
 PCOD9458522
Probable space group: P B C N
;
_chemical_formula_sum "Si O2"
_cell_formula_units_Z 32
_cell_length_a 12.218685
_cell_length_b 6.954580
_cell_length_c 10.233195
_cell_angle_alpha 90.000000
_cell_angle_beta 90.000000
_cell_angle_gamma 90.000000
_cell_volume 869.574160
_symmetry_space_group_name_H-M "P B C N"
_symmetry_group_IT_number 60
_symmetry_cell_setting 'orthorhombic'
loop_
_space_group_symop_operation_xyz
x,y,z
1/2-x,1/2-y,1/2+z
1/2+x,1/2-y,-z
-x,y,1/2-z
-x,-y,-z
1/2+x,1/2+y,1/2-z
1/2-x,1/2+y,z
x,-y,1/2+z
loop_
_atom_site_type_symbol
_atom_site_label
_atom_site_fract_x
_atom_site_fract_y
_atom_site_fract_z
Si Si1 0.740814 0.772721 0.267026
Si Si2 0.772779 0.022697 0.068033
Si Si3 0.440359 0.055177 0.608027
Si Si4 0.031941 0.124746 0.596587
O O1 0.616834 0.752320 0.318261
O O2 0.844391 0.805605 0.358266
O O3 0.747953 0.773589 0.102578
O O4 0.758995 0.526817 0.227561
O O5 0.909885 0.002463 0.037713
O O6 0.677315 0.023174 0.964278
O O7 0.500000 0.992973 0.750000
O O8 0.497648 0.838310 0.524466
O O9 0.000000 0.094192 0.750000
#
# Coordination Sequence:
#
# PCOD9458522 Si02
#       4
#     8   8   8   8
#     4  11  24  47  71  97 140 188 236 293 361 425
#     4  11  24  47  71  97 140 188 236 293 361 425
#     4  11  26  44  69 103 143 179 236 298 358 427
#     4  11  26  44  69 105 139 183 235 298 358 429
#
# _framework density 36.799619999999997
#
# number of rings (size 3 to 8) (size 9 to 14) (size 15 to 20)
#    0.000    1.000    5.000    0.000    7.000    2.000 
#    0.000    0.000    0.000    0.000    0.000    0.000 
#    0.000    0.000    0.000    0.000    0.000    0.000 
#
# Total GULP energy -178355.307420 kJ/mol
# GULP energy per Si atom -5573.603357 kJ/mol
# Density = 3.671586 g / cm^3
# Si number density = 36.799620 Si / 1000 Ang^3
#
#
#
# Elastic Constant Matrix: (Units=GPa)
#
#
# Indices 1 2 3 4 5 6 
#
# 1 449.5584 110.7437 244.5714 0.0000 0.0000 0.0000
# 2 110.7437 359.8084 176.0507 0.0000 0.0000 0.0000
# 3 244.5714 176.0507 451.6013 0.0000 0.0000 0.0000
# 4 0.0000 0.0000 0.0000 111.6625 0.0000 0.0000
# 5 0.0000 0.0000 0.0000 0.0000 110.3472 0.0000
# 6 0.0000 0.0000 0.0000 0.0000 0.0000 115.7475
#
#
#
# Elastic Compliance Matrix: (Units=1/GPa)
#
#
# Indices 1 2 3 4 5 6 
#
# 1 0.003162 -0.000167 -0.001647 0.000000 0.000000 0.000000
# 2 -0.000167 0.003443 -0.001252 0.000000 0.000000 0.000000
# 3 -0.001647 -0.001252 0.003594 0.000000 0.000000 0.000000
# 4 0.000000 0.000000 0.000000 0.008956 0.000000 0.000000
# 5 0.000000 0.000000 0.000000 0.000000 0.009062 0.000000
# 6 0.000000 0.000000 0.000000 0.000000 0.000000 0.008639
#
#
# Mechanical properties :
#
#
# Convention : Reuss Voigt Hill
#
# Bulk Modulus (GPa) = 245.87297 258.18885 252.03091
# Shear Modulus (GPa) = 112.75453 116.19159 114.47306
#
# Velocity S-wave (km/s) = 5.54136 5.62518 5.58343
# Velocity P-wave (km/s) = 10.38755 10.60676 10.49773
#
# Compressibility (1/GPa) = 0.00406714
#
# Stress axis : x y z
#
# Youngs Moduli (GPa) = 316.29251 290.42951 278.21952
#
# Poissons Ratio (x) = 0.04857 0.45824
# Poissons Ratio (y) = 0.05289 0.34825
# Poissons Ratio (z) = 0.52095 0.36353
#
# Static dielectric constant tensor:
#      x y z
#    x 2.830400 0.000000 0.000000 
#    y 0.000000 4.309630 0.000000 
#    z 0.000000 0.000000 3.070730 
# 
# From -- ./inp_files/6481.got.cif
#   From: 2010.05.17/outbox.cif.g08.bks.cpg/sg60_4_cif.got.tgz:6481.got - 2010.06.03 14:59:27.
