data_PCOD9458220
_publ_section_title
;
Structure prediction by ZEFSAII (Michael W. Deem and Ramdas Pophale) SiO2 
 PCOD9458220
Probable space group: P B C N
;
_chemical_formula_sum "Si O2"
_cell_formula_units_Z 40
_cell_length_a 12.077701
_cell_length_b 18.211817
_cell_length_c 9.975283
_cell_angle_alpha 90.000000
_cell_angle_beta 90.000000
_cell_angle_gamma 90.000000
_cell_volume 2194.132130
_symmetry_space_group_name_H-M "P B C N"
_symmetry_group_IT_number 60
_symmetry_cell_setting 'orthorhombic'
loop_
_space_group_symop_operation_xyz
x,y,z
1/2-x,1/2-y,1/2+z
1/2+x,1/2-y,-z
-x,y,1/2-z
-x,-y,-z
1/2+x,1/2+y,1/2-z
1/2-x,1/2+y,z
x,-y,1/2+z
loop_
_atom_site_type_symbol
_atom_site_label
_atom_site_fract_x
_atom_site_fract_y
_atom_site_fract_z
Si Si1 0.710454 0.637124 0.461157
Si Si2 0.677424 0.346327 0.280049
Si Si3 0.921558 0.998749 0.871763
Si Si4 0.906714 0.720567 0.863336
Si Si5 0.943310 0.302068 0.881033
O O1 0.680373 0.648237 0.618106
O O2 0.674666 0.558334 0.406698
O O3 0.643542 0.697910 0.376358
O O4 0.839228 0.653425 0.437743
O O5 0.626353 0.421325 0.336436
O O6 0.802598 0.331469 0.330175
O O7 0.605539 0.277321 0.333874
O O8 0.000000 0.973887 0.750000
O O9 0.000000 0.000000 0.000000
O O10 0.000000 0.716260 0.750000
O O11 0.965438 0.704635 0.004098
O O12 0.000000 0.335948 0.750000
#
# Coordination Sequence:
#
# PCOD9458220 Si02
#       5
#     8   8   8   8   8
#     4  11  23  40  63  94 123 161 208 250 304 370
#     4  11  23  41  62  93 127 158 205 256 302 364
#     4  12  24  41  65  90 125 162 202 254 311 361
#     4  11  22  39  66  91 121 162 203 252 309 357
#     4  11  22  40  66  91 124 160 204 257 305 355
#
# _framework density 18.230443000000001
#
# number of rings (size 3 to 8) (size 9 to 14) (size 15 to 20)
#    0.000    0.800    6.000    2.400    0.000    1.600 
#    0.000    2.000    0.000    0.000    0.000    0.000 
#    0.000    0.000    0.000    0.000    0.000    0.000 
#
# Total GULP energy -223526.976767 kJ/mol
# GULP energy per Si atom -5588.174419 kJ/mol
# Density = 1.818895 g / cm^3
# Si number density = 18.230443 Si / 1000 Ang^3
#
#
#
# Elastic Constant Matrix: (Units=GPa)
#
#
# Indices 1 2 3 4 5 6 
#
# 1 104.2188 33.2700 33.2235 0.0000 0.0000 0.0000
# 2 33.2700 87.2130 22.0588 0.0000 0.0000 0.0000
# 3 33.2235 22.0588 121.1715 0.0000 0.0000 0.0000
# 4 0.0000 0.0000 0.0000 22.6663 0.0000 0.0000
# 5 0.0000 0.0000 0.0000 0.0000 48.4187 0.0000
# 6 0.0000 0.0000 0.0000 0.0000 0.0000 23.9840
#
#
#
# Elastic Compliance Matrix: (Units=1/GPa)
#
#
# Indices 1 2 3 4 5 6 
#
# 1 0.011601 -0.003796 -0.002490 0.000000 0.000000 0.000000
# 2 -0.003796 0.013262 -0.001374 0.000000 0.000000 0.000000
# 3 -0.002490 -0.001374 0.009185 0.000000 0.000000 0.000000
# 4 0.000000 0.000000 0.000000 0.044118 0.000000 0.000000
# 5 0.000000 0.000000 0.000000 0.000000 0.020653 0.000000
# 6 0.000000 0.000000 0.000000 0.000000 0.000000 0.041694
#
#
# Mechanical properties :
#
#
# Convention : Reuss Voigt Hill
#
# Bulk Modulus (GPa) = 53.39083 54.41200 53.90141
# Shear Modulus (GPa) = 30.84999 33.95054 32.40027
#
# Velocity S-wave (km/s) = 4.11813 4.32012 4.22033
# Velocity P-wave (km/s) = 7.20848 7.40244 7.30610
#
# Compressibility (1/GPa) = 0.01872981
#
# Stress axis : x y z
#
# Youngs Moduli (GPa) = 86.20255 75.40603 108.86777
#
# Poissons Ratio (x) = 0.28622 0.27105
# Poissons Ratio (y) = 0.32719 0.14953
# Poissons Ratio (z) = 0.21462 0.10357
#
# Static dielectric constant tensor:
#      x y z
#    x 1.626030 0.000000 0.000000 
#    y 0.000000 1.607000 0.000000 
#    z 0.000000 0.000000 1.616270 
# 
# From -- ./inp_files/4753.got.cif
#   From: 2010.05.17/outbox.cif.g08.bks.cpg/sg60_3_cif.got.tgz:4753.got - 2010.06.03 14:59:27.
