data_PCOD9458231
_publ_section_title
;
Structure prediction by ZEFSAII (Michael W. Deem and Ramdas Pophale) SiO2 
 PCOD9458231
Probable space group: P B C N
;
_chemical_formula_sum "Si O2"
_cell_formula_units_Z 60
_cell_length_a 9.692720
_cell_length_b 16.376531
_cell_length_c 16.486385
_cell_angle_alpha 90.000000
_cell_angle_beta 90.000000
_cell_angle_gamma 90.000000
_cell_volume 2616.935486
_symmetry_space_group_name_H-M "P B C N"
_symmetry_group_IT_number 60
_symmetry_cell_setting 'orthorhombic'
loop_
_space_group_symop_operation_xyz
x,y,z
1/2-x,1/2-y,1/2+z
1/2+x,1/2-y,-z
-x,y,1/2-z
-x,-y,-z
1/2+x,1/2+y,1/2-z
1/2-x,1/2+y,z
x,-y,1/2+z
loop_
_atom_site_type_symbol
_atom_site_label
_atom_site_fract_x
_atom_site_fract_y
_atom_site_fract_z
Si Si1 0.647401 0.316260 0.446498
Si Si2 0.725540 0.138564 0.719760
Si Si3 0.378483 0.081301 0.109340
Si Si4 0.396277 0.503656 0.075719
Si Si5 0.085870 0.294227 0.977627
Si Si6 0.500000 0.533460 0.750000
Si Si7 0.846219 0.714692 0.281538
Si Si8 0.523528 0.900275 0.369529
O O1 0.661759 0.410793 0.424975
O O2 0.490014 0.291721 0.466756
O O3 0.748676 0.293308 0.520845
O O4 0.678750 0.262077 0.366632
O O5 0.868628 0.091316 0.730896
O O6 0.750481 0.235935 0.720007
O O7 0.639374 0.108261 0.644046
O O8 0.621215 0.116930 0.792669
O O9 0.335949 0.119422 0.196969
O O10 0.230907 0.066821 0.065790
O O11 0.445933 0.993022 0.108069
O O12 0.497776 0.142763 0.077850
O O13 0.464674 0.513655 0.165614
O O14 0.500000 0.500000 0.000000
O O15 0.059758 0.332464 0.065389
O O16 0.000000 0.729022 0.250000
#
# Coordination Sequence:
#
# PCOD9458231 Si02
#       8
#     8   8   8   8   8   4   8   8
#     4  11  24  44  69 102 139 192 241 303 373 446
#     4  11  22  40  72  96 134 189 238 293 368 442
#     4  11  25  43  68 102 144 186 242 311 365 452
#     4  12  27  44  73 110 148 194 249 310 389 443
#     4  11  24  43  72  97 146 181 244 306 369 450
#     4  12  22  46  70  96 148 184 242 300 366 448
#     4  11  22  42  68  97 139 184 242 299 363 442
#     4  11  23  42  70 100 135 186 243 295 374 435
#
# _framework density 22.927579999999999
#
# number of rings (size 3 to 8) (size 9 to 14) (size 15 to 20)
#    0.000    0.800    6.000    0.400    7.467    2.133 
#    0.000    4.000    0.000    0.000    0.000    0.000 
#    0.000    0.000    0.000    0.000    0.000    0.000 
#
# Total GULP energy -334701.680254 kJ/mol
# GULP energy per Si atom -5578.361338 kJ/mol
# Density = 2.287540 g / cm^3
# Si number density = 22.927580 Si / 1000 Ang^3
#
#
#
# Elastic Constant Matrix: (Units=GPa)
#
#
# Indices 1 2 3 4 5 6 
#
# 1 98.0683 13.1138 24.2716 0.0000 0.0000 0.0000
# 2 13.1138 36.3143 3.5965 0.0000 0.0000 0.0000
# 3 24.2716 3.5965 63.4127 0.0000 0.0000 0.0000
# 4 0.0000 0.0000 0.0000 26.6524 0.0000 0.0000
# 5 0.0000 0.0000 0.0000 0.0000 45.2940 0.0000
# 6 0.0000 0.0000 0.0000 0.0000 0.0000 54.2861
#
#
#
# Elastic Compliance Matrix: (Units=1/GPa)
#
#
# Indices 1 2 3 4 5 6 
#
# 1 0.011770 -0.003826 -0.004288 0.000000 0.000000 0.000000
# 2 -0.003826 0.028936 -0.000177 0.000000 0.000000 0.000000
# 3 -0.004288 -0.000177 0.017421 0.000000 0.000000 0.000000
# 4 0.000000 0.000000 0.000000 0.037520 0.000000 0.000000
# 5 0.000000 0.000000 0.000000 0.000000 0.022078 0.000000
# 6 0.000000 0.000000 0.000000 0.000000 0.000000 0.018421
#
#
# Mechanical properties :
#
#
# Convention : Reuss Voigt Hill
#
# Bulk Modulus (GPa) = 24.06955 31.08433 27.57694
# Shear Modulus (GPa) = 30.01634 35.70073 32.85854
#
# Velocity S-wave (km/s) = 3.62219 3.95030 3.78980
# Velocity P-wave (km/s) = 5.29287 5.86460 5.58606
#
# Compressibility (1/GPa) = 0.04154627
#
# Stress axis : x y z
#
# Youngs Moduli (GPa) = 84.96315 34.55852 57.40196
#
# Poissons Ratio (x) = 0.13221 0.24614
# Poissons Ratio (y) = 0.32504 0.01015
# Poissons Ratio (z) = 0.36432 0.00611
#
# Static dielectric constant tensor:
#      x y z
#    x 1.962640 0.000000 0.000000 
#    y 0.000000 1.858200 0.000000 
#    z 0.000000 0.000000 1.975420 
# 
# From -- ./inp_files/19564.got.cif
#   From: 2010.05.17/outbox.cif.g08.bks.cpg/sg60_10_cif.got.tgz:19564.got - 2010.06.03 14:59:27.
