data_PCOD9458869
_publ_section_title
;
Structure prediction by ZEFSAII (Michael W. Deem and Ramdas Pophale) SiO2 
 PCOD9458869
Probable space group: P B C N
;
_chemical_formula_sum "Si O2"
_cell_formula_units_Z 32
_cell_length_a 8.548852
_cell_length_b 10.982507
_cell_length_c 13.783701
_cell_angle_alpha 90.000000
_cell_angle_beta 90.000000
_cell_angle_gamma 90.000000
_cell_volume 1294.121734
_symmetry_space_group_name_H-M "P B C N"
_symmetry_group_IT_number 60
_symmetry_cell_setting 'orthorhombic'
loop_
_space_group_symop_operation_xyz
x,y,z
1/2-x,1/2-y,1/2+z
1/2+x,1/2-y,-z
-x,y,1/2-z
-x,-y,-z
1/2+x,1/2+y,1/2-z
1/2-x,1/2+y,z
x,-y,1/2+z
loop_
_atom_site_type_symbol
_atom_site_label
_atom_site_fract_x
_atom_site_fract_y
_atom_site_fract_z
Si Si1 0.329983 0.681940 0.703274
Si Si2 0.833526 0.438839 0.798707
Si Si3 0.114127 0.163116 0.472062
Si Si4 0.240837 0.091488 0.989302
O O1 0.500000 0.682214 0.750000
O O2 0.246987 0.560592 0.734324
O O3 0.250449 0.810989 0.725717
O O4 0.350417 0.672159 0.587392
O O5 0.844861 0.439729 0.916063
O O6 0.000000 0.434547 0.750000
O O7 0.178150 0.293959 0.435238
O O8 0.927767 0.139631 0.469413
O O9 0.200551 0.038303 0.439073
#
# Coordination Sequence:
#
# PCOD9458869 Si02
#       4
#     8   8   8   8
#     4   9  18  34  52  74 104 135 173 216 257 308
#     4   9  18  34  54  75 102 135 173 216 260 312
#     4   9  18  34  53  76 107 140 175 219 265 313
#     4   9  18  34  53  76 106 138 175 218 264 313
#
# _framework density 24.727194999999998
#
# number of rings (size 3 to 8) (size 9 to 14) (size 15 to 20)
#    0.000    3.000    0.000    0.000    0.000    2.000 
#    0.000   30.000    0.000    0.000    0.000    0.000 
#    0.000    0.000    0.000    0.000    0.000    0.000 
#
# Total GULP energy -178776.585823 kJ/mol
# GULP energy per Si atom -5586.768307 kJ/mol
# Density = 2.467091 g / cm^3
# Si number density = 24.727195 Si / 1000 Ang^3
#
#
#
# Elastic Constant Matrix: (Units=GPa)
#
#
# Indices 1 2 3 4 5 6 
#
# 1 54.5505 53.2323 4.3010 0.0000 0.0000 0.0000
# 2 53.2323 242.4782 20.9519 0.0000 0.0000 0.0000
# 3 4.3010 20.9519 70.7036 0.0000 0.0000 0.0000
# 4 0.0000 0.0000 0.0000 24.8806 0.0000 0.0000
# 5 0.0000 0.0000 0.0000 0.0000 30.9538 0.0000
# 6 0.0000 0.0000 0.0000 0.0000 0.0000 49.0620
#
#
#
# Elastic Compliance Matrix: (Units=1/GPa)
#
#
# Indices 1 2 3 4 5 6 
#
# 1 0.023330 -0.005131 0.000101 0.000000 0.000000 0.000000
# 2 -0.005131 0.005361 -0.001276 0.000000 0.000000 0.000000
# 3 0.000101 -0.001276 0.014516 0.000000 0.000000 0.000000
# 4 0.000000 0.000000 0.000000 0.040192 0.000000 0.000000
# 5 0.000000 0.000000 0.000000 0.000000 0.032306 0.000000
# 6 0.000000 0.000000 0.000000 0.000000 0.000000 0.020382
#
#
# Mechanical properties :
#
#
# Convention : Reuss Voigt Hill
#
# Bulk Modulus (GPa) = 32.68520 58.30029 45.49274
# Shear Modulus (GPa) = 31.46691 40.26241 35.86466
#
# Velocity S-wave (km/s) = 3.57117 4.03955 3.81256
# Velocity P-wave (km/s) = 5.50012 6.73691 6.14969
#
# Compressibility (1/GPa) = 0.03059489
#
# Stress axis : x y z
#
# Youngs Moduli (GPa) = 42.86291 186.54268 68.89107
#
# Poissons Ratio (x) = 0.95706 -0.00697
# Poissons Ratio (y) = 0.21991 0.08794
# Poissons Ratio (z) = -0.00434 0.23812
#
# Static dielectric constant tensor:
#      x y z
#    x 1.914340 0.000000 0.000000 
#    y 0.000000 2.060040 0.000000 
#    z 0.000000 0.000000 1.943750 
# 
# From -- ./inp_files/14323.got.cif
#   From: 2010.05.17/outbox.cif.g08.bks.cpg/sg60_8_cif.got.tgz:14323.got - 2010.06.03 14:59:27.
