data_PCOD9458198
_publ_section_title
;
Structure prediction by ZEFSAII (Michael W. Deem and Ramdas Pophale) SiO2 
 PCOD9458198
Probable space group: P B C N
;
_chemical_formula_sum "Si O2"
_cell_formula_units_Z 60
_cell_length_a 11.051138
_cell_length_b 15.051957
_cell_length_c 17.935979
_cell_angle_alpha 90.000000
_cell_angle_beta 90.000000
_cell_angle_gamma 90.000000
_cell_volume 2983.493238
_symmetry_space_group_name_H-M "P B C N"
_symmetry_group_IT_number 60
_symmetry_cell_setting 'orthorhombic'
loop_
_space_group_symop_operation_xyz
x,y,z
1/2-x,1/2-y,1/2+z
1/2+x,1/2-y,-z
-x,y,1/2-z
-x,-y,-z
1/2+x,1/2+y,1/2-z
1/2-x,1/2+y,z
x,-y,1/2+z
loop_
_atom_site_type_symbol
_atom_site_label
_atom_site_fract_x
_atom_site_fract_y
_atom_site_fract_z
Si Si1 0.153093 0.044962 0.905038
Si Si2 0.104069 0.741590 0.187717
Si Si3 0.122173 0.459413 0.698883
Si Si4 0.000000 0.248877 0.250000
Si Si5 0.928404 0.160728 0.957537
Si Si6 0.241797 0.000097 0.559469
Si Si7 0.488830 0.381078 0.613850
Si Si8 0.726826 0.127847 0.731095
O O1 0.207408 0.112746 0.846377
O O2 0.035317 0.092581 0.937605
O O3 0.096377 0.953575 0.872347
O O4 0.246041 0.027485 0.972549
O O5 0.156178 0.643610 0.198425
O O6 0.067549 0.759798 0.102010
O O7 0.194212 0.818782 0.210233
O O8 0.000000 0.749037 0.250000
O O9 0.140293 0.488703 0.611818
O O10 0.207995 0.528726 0.739346
O O11 0.000000 0.465670 0.750000
O O12 0.965737 0.184012 0.317790
O O13 0.105993 0.314966 0.275630
O O14 0.807938 0.101307 0.945704
O O15 0.958971 0.176597 0.044035
O O16 0.133375 0.937144 0.593717
#
# Coordination Sequence:
#
# PCOD9458198 Si02
#       8
#     8   8   8   4   8   8   8   8
#     4   9  20  36  65  95 117 158 209 274 314 365
#     4  11  22  37  67  94 117 163 213 261 314 375
#     4  11  24  40  59  87 130 170 208 250 311 389
#     4  12  26  40  54  90 132 174 200 258 314 384
#     4   9  17  38  64  98 119 147 207 278 320 367
#     4   9  18  39  64  90 123 157 206 270 326 360
#     4   9  21  37  66  96 120 151 218 267 322 365
#     4  12  24  40  61  89 131 164 214 253 312 382
#
# _framework density 20.110652999999999
#
# number of rings (size 3 to 8) (size 9 to 14) (size 15 to 20)
#    0.000    1.867    3.333    2.400    3.733    1.067 
#    0.000    0.667    5.867    0.000    0.000    0.000 
#    0.000    0.000    0.000    0.000    0.000    0.000 
#
# Total GULP energy -334126.271293 kJ/mol
# GULP energy per Si atom -5568.771188 kJ/mol
# Density = 2.006488 g / cm^3
# Si number density = 20.110653 Si / 1000 Ang^3
#
#
#
# Elastic Constant Matrix: (Units=GPa)
#
#
# Indices 1 2 3 4 5 6 
#
# 1 35.3354 7.1805 5.3127 0.0000 0.0000 0.0000
# 2 7.1805 69.4490 20.3255 0.0000 0.0000 0.0000
# 3 5.3127 20.3255 41.3199 0.0000 0.0000 0.0000
# 4 0.0000 0.0000 0.0000 -1.7180 0.0000 0.0000
# 5 0.0000 0.0000 0.0000 0.0000 17.1402 0.0000
# 6 0.0000 0.0000 0.0000 0.0000 0.0000 40.0753
#
#
#
# Elastic Compliance Matrix: (Units=1/GPa)
#
#
# Indices 1 2 3 4 5 6 
#
# 1 0.029153 -0.002240 -0.002647 0.000000 0.000000 0.000000
# 2 -0.002240 0.016993 -0.008071 0.000000 0.000000 0.000000
# 3 -0.002647 -0.008071 0.028512 0.000000 0.000000 0.000000
# 4 0.000000 0.000000 0.000000 -0.582074 0.000000 0.000000
# 5 0.000000 0.000000 0.000000 0.000000 0.058342 0.000000
# 6 0.000000 0.000000 0.000000 0.000000 0.000000 0.024953
#
#
# Mechanical properties :
#
#
# Convention : Reuss Voigt Hill
#
# Bulk Modulus (GPa) = 20.51558 23.52685 22.02121
# Shear Modulus (GPa) = -13.09041 18.65188 2.78074
#
# Velocity S-wave (km/s) = -2.55408 3.04873 1.17717
# Velocity P-wave (km/s) = 1.23521 4.91092 3.58070
#
# Compressibility (1/GPa) = 0.04874345
#
# Stress axis : x y z
#
# Youngs Moduli (GPa) = 34.30145 58.84883 35.07320
#
# Poissons Ratio (x) = 0.13180 0.09283
# Poissons Ratio (y) = 0.07682 0.28307
# Poissons Ratio (z) = 0.09079 0.47496
#
# Static dielectric constant tensor:
#      x y z
#    x 1.727410 0.000000 0.000000 
#    y 0.000000 1.687430 0.000000 
#    z 0.000000 0.000000 1.800350 
# 
# From -- ./inp_files/20177.got.cif
#   From: 2010.05.17/outbox.cif.g08.bks.cpg/sg60_11_cif.got.tgz:20177.got - 2010.06.03 14:59:27.
