data_PCOD9458526
_publ_section_title
;
Structure prediction by ZEFSAII (Michael W. Deem and Ramdas Pophale) SiO2 
 PCOD9458526
Probable space group: P B C N
;
_chemical_formula_sum "Si O2"
_cell_formula_units_Z 56
_cell_length_a 14.497048
_cell_length_b 11.666369
_cell_length_c 13.423187
_cell_angle_alpha 90.000000
_cell_angle_beta 90.000000
_cell_angle_gamma 90.000000
_cell_volume 2270.235581
_symmetry_space_group_name_H-M "P B C N"
_symmetry_group_IT_number 60
_symmetry_cell_setting 'orthorhombic'
loop_
_space_group_symop_operation_xyz
x,y,z
1/2-x,1/2-y,1/2+z
1/2+x,1/2-y,-z
-x,y,1/2-z
-x,-y,-z
1/2+x,1/2+y,1/2-z
1/2-x,1/2+y,z
x,-y,1/2+z
loop_
_atom_site_type_symbol
_atom_site_label
_atom_site_fract_x
_atom_site_fract_y
_atom_site_fract_z
Si Si1 0.101130 0.934843 0.626005
Si Si2 0.505559 0.688940 0.540021
Si Si3 0.000000 0.736392 0.750000
Si Si4 0.302950 0.254500 0.034193
Si Si5 0.000000 0.871538 0.250000
Si Si6 0.387687 0.898198 0.028238
Si Si7 0.808308 0.558495 0.323559
Si Si8 0.647903 0.920172 0.134923
O O1 0.062914 0.908706 0.516389
O O2 0.065234 0.823119 0.686788
O O3 0.209404 0.951540 0.624100
O O4 0.064483 0.041604 0.688963
O O5 0.396730 0.673753 0.519118
O O6 0.535857 0.699333 0.655682
O O7 0.532836 0.807637 0.488487
O O8 0.072949 0.657657 0.808708
O O9 0.208781 0.326257 0.034499
O O10 0.298253 0.164757 0.941468
O O11 0.325411 0.189925 0.140688
O O12 0.393196 0.984394 0.937058
O O13 0.384718 0.980069 0.123635
O O14 0.798692 0.500705 0.215398
#
# Coordination Sequence:
#
# PCOD9458526 Si02
#       8
#     8   8   4   8   4   8   8   8
#     4  11  24  48  73 105 150 193 248 304 371 451
#     4  12  25  49  73 103 151 193 253 303 377 446
#     4  11  24  47  74 112 138 205 238 307 378 446
#     4  11  26  47  70 106 144 194 237 312 371 437
#     4  11  28  39  78 108 138 197 248 303 370 454
#     4  11  27  46  69 108 148 190 243 315 370 438
#     4  11  26  44  72 104 146 192 239 303 372 445
#     4  11  27  42  74 104 143 184 251 295 372 449
#
# _framework density 24.667045000000002
#
# number of rings (size 3 to 8) (size 9 to 14) (size 15 to 20)
#    0.000    0.857    2.857    2.143    8.000    1.143 
#    0.000    0.000    0.000    0.000    0.000    0.000 
#    0.000    0.000    0.000    0.000    0.000    0.000 
#
# Total GULP energy -312811.878396 kJ/mol
# GULP energy per Si atom -5585.926400 kJ/mol
# Density = 2.461090 g / cm^3
# Si number density = 24.667045 Si / 1000 Ang^3
#
#
#
# Elastic Constant Matrix: (Units=GPa)
#
#
# Indices 1 2 3 4 5 6 
#
# 1 61.5936 3.2212 3.6915 0.0000 0.0000 0.0000
# 2 3.2212 96.2085 11.2257 0.0000 0.0000 0.0000
# 3 3.6915 11.2257 108.1964 0.0000 0.0000 0.0000
# 4 0.0000 0.0000 0.0000 37.6756 0.0000 0.0000
# 5 0.0000 0.0000 0.0000 0.0000 26.8538 0.0000
# 6 0.0000 0.0000 0.0000 0.0000 0.0000 27.7269
#
#
#
# Elastic Compliance Matrix: (Units=1/GPa)
#
#
# Indices 1 2 3 4 5 6 
#
# 1 0.016291 -0.000486 -0.000505 0.000000 0.000000 0.000000
# 2 -0.000486 0.010536 -0.001077 0.000000 0.000000 0.000000
# 3 -0.000505 -0.001077 0.009371 0.000000 0.000000 0.000000
# 4 0.000000 0.000000 0.000000 0.026542 0.000000 0.000000
# 5 0.000000 0.000000 0.000000 0.000000 0.037239 0.000000
# 6 0.000000 0.000000 0.000000 0.000000 0.000000 0.036066
#
#
# Mechanical properties :
#
#
# Convention : Reuss Voigt Hill
#
# Bulk Modulus (GPa) = 31.18976 33.58613 32.38795
# Shear Modulus (GPa) = 33.14117 34.97526 34.05821
#
# Velocity S-wave (km/s) = 3.66941 3.76958 3.71983
# Velocity P-wave (km/s) = 5.53394 5.70891 5.62211
#
# Compressibility (1/GPa) = 0.03206181
#
# Stress axis : x y z
#
# Youngs Moduli (GPa) = 61.38285 94.91276 106.70774
#
# Poissons Ratio (x) = 0.04617 0.05393
# Poissons Ratio (y) = 0.02986 0.11488
# Poissons Ratio (z) = 0.03102 0.10218
#
# Static dielectric constant tensor:
#      x y z
#    x 1.955110 0.000000 0.000000 
#    y 0.000000 2.059430 0.000000 
#    z 0.000000 0.000000 2.085050 
# 
# From -- ./inp_files/16903.got.cif
#   From: 2010.05.17/outbox.cif.g08.bks.cpg/sg60_9_cif.got.tgz:16903.got - 2010.06.03 14:59:27.
