data_PCOD9458265
_publ_section_title
;
Structure prediction by ZEFSAII (Michael W. Deem and Ramdas Pophale) SiO2 
 PCOD9458265
Probable space group: P B C N
;
_chemical_formula_sum "Si O2"
_cell_formula_units_Z 24
_cell_length_a 5.472446
_cell_length_b 18.726102
_cell_length_c 8.746216
_cell_angle_alpha 90.000000
_cell_angle_beta 90.000000
_cell_angle_gamma 90.000000
_cell_volume 896.291067
_symmetry_space_group_name_H-M "P B C N"
_symmetry_group_IT_number 60
_symmetry_cell_setting 'orthorhombic'
loop_
_space_group_symop_operation_xyz
x,y,z
1/2-x,1/2-y,1/2+z
1/2+x,1/2-y,-z
-x,y,1/2-z
-x,-y,-z
1/2+x,1/2+y,1/2-z
1/2-x,1/2+y,z
x,-y,1/2+z
loop_
_atom_site_type_symbol
_atom_site_label
_atom_site_fract_x
_atom_site_fract_y
_atom_site_fract_z
Si Si1 0.483699 0.230743 0.081982
Si Si2 0.192554 0.903642 0.645210
Si Si3 0.169650 0.534341 0.867708
O O1 0.500000 0.264177 0.250000
O O2 0.418420 0.147244 0.104839
O O3 0.741977 0.240222 0.000818
O O4 0.124148 0.928107 0.471932
O O5 0.000000 0.860511 0.750000
O O6 0.241529 0.970006 0.759394
O O7 0.000000 0.579093 0.750000
O O8 0.000000 0.500000 0.000000
#
# Coordination Sequence:
#
# PCOD9458265 Si02
#       3
#     8   8   8
#     4  12  27  49  76 108 147 199 253 309 368 439
#     4  11  22  42  70 104 145 186 239 305 372 443
#     4   9  19  35  62  98 138 183 227 288 365 434
#
# _framework density 26.777016
#
# number of rings (size 3 to 8) (size 9 to 14) (size 15 to 20)
#    0.000    1.333    0.000    7.000    0.000    2.667 
#    0.000    5.000    0.000    0.000    0.000    0.000 
#    0.000    0.000    0.000    0.000    0.000    0.000 
#
# Total GULP energy -133970.405255 kJ/mol
# GULP energy per Si atom -5582.100219 kJ/mol
# Density = 2.671607 g / cm^3
# Si number density = 26.777016 Si / 1000 Ang^3
#
#
#
# Elastic Constant Matrix: (Units=GPa)
#
#
# Indices 1 2 3 4 5 6 
#
# 1 159.6948 29.1076 108.2460 0.0000 0.0000 0.0000
# 2 29.1076 76.5879 49.5932 0.0000 0.0000 0.0000
# 3 108.2460 49.5932 266.7353 0.0000 0.0000 0.0000
# 4 0.0000 0.0000 0.0000 42.6915 0.0000 0.0000
# 5 0.0000 0.0000 0.0000 0.0000 79.7481 0.0000
# 6 0.0000 0.0000 0.0000 0.0000 0.0000 -407.9438
#
#
#
# Elastic Compliance Matrix: (Units=1/GPa)
#
#
# Indices 1 2 3 4 5 6 
#
# 1 0.008728 -0.001164 -0.003326 0.000000 0.000000 0.000000
# 2 -0.001164 0.014999 -0.002316 0.000000 0.000000 0.000000
# 3 -0.003326 -0.002316 0.005529 0.000000 0.000000 0.000000
# 4 0.000000 0.000000 0.000000 0.023424 0.000000 0.000000
# 5 0.000000 0.000000 0.000000 0.000000 0.012539 0.000000
# 6 0.000000 0.000000 0.000000 0.000000 0.000000 -0.002451
#
#
# Mechanical properties :
#
#
# Convention : Reuss Voigt Hill
#
# Bulk Modulus (GPa) = 63.91825 97.43464 80.67645
# Shear Modulus (GPa) = 61.27760 -36.02943 12.62409
#
# Velocity S-wave (km/s) = 4.78895 -3.67213 2.17365
# Velocity P-wave (km/s) = 7.38249 4.29965 6.04103
#
# Compressibility (1/GPa) = 0.01564498
#
# Stress axis : x y z
#
# Youngs Moduli (GPa) = 114.56908 66.67037 180.85189
#
# Poissons Ratio (x) = 0.07759 0.60147
# Poissons Ratio (y) = 0.13333 0.41894
# Poissons Ratio (z) = 0.38103 0.15444
#
# Static dielectric constant tensor:
#      x y z
#    x 2.601610 0.000000 0.000000 
#    y 0.000000 2.273110 0.000000 
#    z 0.000000 0.000000 2.160490 
# 
# From -- ./inp_files/2893.got.cif
#   From: 2010.05.17/outbox.cif.g08.bks.cpg/sg60_2_cif.got.tgz:2893.got - 2010.06.03 14:59:27.
