data_PCOD9458107
_publ_section_title
;
Structure prediction by ZEFSAII (Michael W. Deem and Ramdas Pophale) SiO2 
 PCOD9458107
Probable space group: P B C N
;
_chemical_formula_sum "Si O2"
_cell_formula_units_Z 52
_cell_length_a 7.614965
_cell_length_b 19.548779
_cell_length_c 18.974688
_cell_angle_alpha 90.000000
_cell_angle_beta 90.000000
_cell_angle_gamma 90.000000
_cell_volume 2824.634063
_symmetry_space_group_name_H-M "P B C N"
_symmetry_group_IT_number 60
_symmetry_cell_setting 'orthorhombic'
loop_
_space_group_symop_operation_xyz
x,y,z
1/2-x,1/2-y,1/2+z
1/2+x,1/2-y,-z
-x,y,1/2-z
-x,-y,-z
1/2+x,1/2+y,1/2-z
1/2-x,1/2+y,z
x,-y,1/2+z
loop_
_atom_site_type_symbol
_atom_site_label
_atom_site_fract_x
_atom_site_fract_y
_atom_site_fract_z
Si Si1 0.515041 0.531506 0.078722
Si Si2 0.500000 0.027825 0.750000
Si Si3 0.390859 0.970121 0.605953
Si Si4 0.688205 0.690003 0.573430
Si Si5 0.976511 0.391970 0.479695
Si Si6 0.853038 0.825697 0.527818
Si Si7 0.643864 0.582621 0.688536
O O1 0.316273 0.541973 0.103466
O O2 0.609450 0.477998 0.131012
O O3 0.500000 0.500000 0.000000
O O4 0.605949 0.604854 0.070207
O O5 0.334360 0.072308 0.776162
O O6 0.448112 0.980391 0.685055
O O7 0.491785 0.913782 0.560534
O O8 0.432300 0.041160 0.565543
O O9 0.781660 0.763711 0.575189
O O10 0.524702 0.691629 0.518967
O O11 0.630290 0.653837 0.645841
O O12 0.808859 0.343277 0.475859
O O13 0.157771 0.359487 0.454929
O O14 0.500000 0.577743 0.750000
#
# Coordination Sequence:
#
# PCOD9458107 Si02
#       7
#     8   4   8   8   8   8   8
#     4  12  21  40  71 103 127 166 231 296 330 386
#     4  12  24  38  62  98 132 172 212 270 340 412
#     4  11  21  37  64  98 128 164 215 282 342 381
#     4  12  24  41  65 100 131 176 221 277 342 404
#     4  11  21  38  64  95 130 166 218 277 329 390
#     4  12  24  39  66  98 132 167 222 288 335 391
#     4  12  25  43  69  98 136 178 227 277 345 414
#
# _framework density 18.409464
#
# number of rings (size 3 to 8) (size 9 to 14) (size 15 to 20)
#    0.000    0.308    9.231    0.923    0.000    0.000 
#    0.000    0.000    8.462    0.000    0.000    0.000 
#    0.000    0.000    0.000    0.000    0.000    0.000 
#
# Total GULP energy -290498.292520 kJ/mol
# GULP energy per Si atom -5586.505625 kJ/mol
# Density = 1.836756 g / cm^3
# Si number density = 18.409464 Si / 1000 Ang^3
#
#
#
# Elastic Constant Matrix: (Units=GPa)
#
#
# Indices 1 2 3 4 5 6 
#
# 1 135.0192 30.6324 32.7267 0.0000 0.0000 0.0000
# 2 30.6324 96.4522 36.4419 0.0000 0.0000 0.0000
# 3 32.7267 36.4419 108.8631 0.0000 0.0000 0.0000
# 4 0.0000 0.0000 0.0000 20.8206 0.0000 0.0000
# 5 0.0000 0.0000 0.0000 0.0000 30.0032 0.0000
# 6 0.0000 0.0000 0.0000 0.0000 0.0000 33.8891
#
#
#
# Elastic Compliance Matrix: (Units=1/GPa)
#
#
# Indices 1 2 3 4 5 6 
#
# 1 0.008293 -0.001937 -0.001845 0.000000 0.000000 0.000000
# 2 -0.001937 0.012321 -0.003542 0.000000 0.000000 0.000000
# 3 -0.001845 -0.003542 0.010926 0.000000 0.000000 0.000000
# 4 0.000000 0.000000 0.000000 0.048029 0.000000 0.000000
# 5 0.000000 0.000000 0.000000 0.000000 0.033330 0.000000
# 6 0.000000 0.000000 0.000000 0.000000 0.000000 0.029508
#
#
# Mechanical properties :
#
#
# Convention : Reuss Voigt Hill
#
# Bulk Modulus (GPa) = 59.19679 59.99295 59.59487
# Shear Modulus (GPa) = 30.73403 32.97814 31.85608
#
# Velocity S-wave (km/s) = 4.09035 4.23705 4.16434
# Velocity P-wave (km/s) = 7.38467 7.52301 7.45416
#
# Compressibility (1/GPa) = 0.01689281
#
# Stress axis : x y z
#
# Youngs Moduli (GPa) = 120.58530 81.16025 91.52316
#
# Poissons Ratio (x) = 0.15719 0.16883
# Poissons Ratio (y) = 0.23355 0.32420
# Poissons Ratio (z) = 0.22244 0.28750
#
# Static dielectric constant tensor:
#      x y z
#    x 1.669570 0.000000 0.000000 
#    y 0.000000 1.650280 0.000000 
#    z 0.000000 0.000000 1.636710 
# 
# From -- ./inp_files/19514.got.cif
#   From: 2010.05.17/outbox.cif.g08.bks.cpg/sg60_10_cif.got.tgz:19514.got - 2010.06.03 14:59:27.
