data_PCOD9458102
_publ_section_title
;
Structure prediction by ZEFSAII (Michael W. Deem and Ramdas Pophale) SiO2 
 PCOD9458102
Probable space group: P B C N
;
_chemical_formula_sum "Si O2"
_cell_formula_units_Z 48
_cell_length_a 13.456065
_cell_length_b 20.174727
_cell_length_c 7.746006
_cell_angle_alpha 90.000000
_cell_angle_beta 90.000000
_cell_angle_gamma 90.000000
_cell_volume 2102.827133
_symmetry_space_group_name_H-M "P B C N"
_symmetry_group_IT_number 60
_symmetry_cell_setting 'orthorhombic'
loop_
_space_group_symop_operation_xyz
x,y,z
1/2-x,1/2-y,1/2+z
1/2+x,1/2-y,-z
-x,y,1/2-z
-x,-y,-z
1/2+x,1/2+y,1/2-z
1/2-x,1/2+y,z
x,-y,1/2+z
loop_
_atom_site_type_symbol
_atom_site_label
_atom_site_fract_x
_atom_site_fract_y
_atom_site_fract_z
Si Si1 0.862422 0.173152 0.586111
Si Si2 0.546546 0.738641 0.057317
Si Si3 0.034719 0.390708 0.451366
Si Si4 0.332076 0.078577 0.425117
Si Si5 0.265625 0.058355 0.815509
Si Si6 0.748889 0.709297 0.230384
O O1 0.977174 0.189749 0.551850
O O2 0.832589 0.098287 0.631763
O O3 0.803582 0.192937 0.410728
O O4 0.814531 0.224254 0.722838
O O5 0.500000 0.740834 0.250000
O O6 0.538780 0.814090 0.991362
O O7 0.658385 0.718226 0.095876
O O8 0.145408 0.418851 0.444008
O O9 0.000000 0.391754 0.250000
O O10 0.951379 0.429777 0.558851
O O11 0.293179 0.079728 0.621789
O O12 0.313156 0.148070 0.334892
O O13 0.272274 0.020581 0.329510
#
# Coordination Sequence:
#
# PCOD9458102 Si02
#       6
#     8   8   8   8   8   8
#     4  11  21  37  60  85 114 151 191 233 281 335
#     4   9  18  35  58  84 114 148 186 231 282 333
#     4   9  17  33  57  84 117 151 182 228 285 340
#     4  11  22  38  58  84 118 153 191 233 284 340
#     4  11  22  38  58  84 118 153 191 233 284 340
#     4  11  21  37  60  85 114 151 191 233 281 335
#
# _framework density 22.826412999999999
#
# number of rings (size 3 to 8) (size 9 to 14) (size 15 to 20)
#    0.000    1.667    3.333    2.500    0.000    0.000 
#    0.000    8.333    0.000    0.000    0.000    0.000 
#    0.000    0.000    0.000    0.000    0.000    0.000 
#
# Total GULP energy -268616.125280 kJ/mol
# GULP energy per Si atom -5596.169277 kJ/mol
# Density = 2.277446 g / cm^3
# Si number density = 22.826413 Si / 1000 Ang^3
#
#
#
# Elastic Constant Matrix: (Units=GPa)
#
#
# Indices 1 2 3 4 5 6 
#
# 1 52.8176 9.9693 -1.5380 0.0000 0.0000 0.0000
# 2 9.9693 94.2851 4.6421 0.0000 0.0000 0.0000
# 3 -1.5380 4.6421 89.7174 0.0000 0.0000 0.0000
# 4 0.0000 0.0000 0.0000 -15.3263 0.0000 0.0000
# 5 0.0000 0.0000 0.0000 0.0000 14.3445 0.0000
# 6 0.0000 0.0000 0.0000 0.0000 0.0000 34.6338
#
#
#
# Elastic Compliance Matrix: (Units=1/GPa)
#
#
# Indices 1 2 3 4 5 6 
#
# 1 0.019336 -0.002066 0.000438 0.000000 0.000000 0.000000
# 2 -0.002066 0.010854 -0.000597 0.000000 0.000000 0.000000
# 3 0.000438 -0.000597 0.011185 0.000000 0.000000 0.000000
# 4 0.000000 0.000000 0.000000 -0.065247 0.000000 0.000000
# 5 0.000000 0.000000 0.000000 0.000000 0.069713 0.000000
# 6 0.000000 0.000000 0.000000 0.000000 0.000000 0.028874
#
#
# Mechanical properties :
#
#
# Convention : Reuss Voigt Hill
#
# Bulk Modulus (GPa) = 27.08200 29.21853 28.15026
# Shear Modulus (GPa) = 54.66189 21.64684 38.15436
#
# Velocity S-wave (km/s) = 4.89885 3.08283 4.09283
# Velocity P-wave (km/s) = 6.62483 5.04974 5.89017
#
# Compressibility (1/GPa) = 0.03692490
#
# Stress axis : x y z
#
# Youngs Moduli (GPa) = 51.71746 92.13208 89.40933
#
# Poissons Ratio (x) = 0.19035 -0.03919
# Poissons Ratio (y) = 0.10685 0.05338
# Poissons Ratio (z) = -0.02267 0.05500
#
# Static dielectric constant tensor:
#      x y z
#    x 1.841220 0.000000 0.000000 
#    y 0.000000 1.825740 0.000000 
#    z 0.000000 0.000000 1.900310 
# 
# From -- ./inp_files/5909.got.cif
#   From: 2010.05.17/outbox.cif.g08.bks.cpg/sg60_3_cif.got.tgz:5909.got - 2010.06.03 14:59:27.
