data_PCOD9458918
_publ_section_title
;
Structure prediction by ZEFSAII (Michael W. Deem and Ramdas Pophale) SiO2 
 PCOD9458918
Probable space group: P B C N
;
_chemical_formula_sum "Si O2"
_cell_formula_units_Z 64
_cell_length_a 15.000000
_cell_length_b 24.000000
_cell_length_c 9.000000
_cell_angle_alpha 90.000000
_cell_angle_beta 90.000000
_cell_angle_gamma 90.000000
_cell_volume 3240.000000
_symmetry_space_group_name_H-M "P B C N"
_symmetry_group_IT_number 60
_symmetry_cell_setting 'orthorhombic'
loop_
_space_group_symop_operation_xyz
x,y,z
1/2-x,1/2-y,1/2+z
1/2+x,1/2-y,-z
-x,y,1/2-z
-x,-y,-z
1/2+x,1/2+y,1/2-z
1/2-x,1/2+y,z
x,-y,1/2+z
loop_
_atom_site_type_symbol
_atom_site_label
_atom_site_fract_x
_atom_site_fract_y
_atom_site_fract_z
Si Si1 0.431421 0.393036 0.877435
Si Si2 0.337294 0.004505 0.007078
Si Si3 0.650006 0.721430 0.995593
Si Si4 0.926082 0.103180 0.633004
Si Si5 0.317720 0.715758 0.860872
Si Si6 0.519656 0.791566 0.573949
Si Si7 0.503112 0.920434 0.569031
Si Si8 0.193931 0.996909 0.765360
O O1 0.500000 0.373014 0.750000
O O2 0.365845 0.442553 0.814516
O O3 0.372086 0.340928 0.939859
O O4 0.505128 0.413736 0.000281
O O5 0.244070 0.005108 0.104888
O O6 0.404652 0.056940 0.023474
O O7 0.413451 0.955046 0.003378
O O8 0.287470 0.001730 0.852016
O O9 0.677427 0.717200 0.820237
O O10 0.557265 0.755156 0.000778
O O11 0.723295 0.759541 0.081540
O O12 0.856099 0.153520 0.597613
O O13 0.869994 0.050788 0.701066
O O14 0.000000 0.126010 0.750000
O O15 0.387556 0.759095 0.934289
O O16 0.500000 0.792751 0.750000
O O17 0.517512 0.855952 0.526886
O O18 0.500000 0.926513 0.750000
#
# Coordination Sequence:
#
# PCOD9458918 Si02
#       8
#     8   8   8   8   8   8   8   8
#     4  12  26  46  68  97 136 180 224 283 345 406
#     4  11  24  42  64 102 132 174 226 283 331 409
#     4  11  25  43  70 102 134 176 225 276 337 403
#     4  12  23  47  69  94 139 178 222 286 348 399
#     4  11  24  42  70  99 134 178 224 277 335 401
#     4   9  20  42  67  94 130 174 218 270 335 402
#     4  10  21  41  68  92 141 178 216 273 349 398
#     4  12  26  41  69  99 130 174 236 278 338 406
#
# _framework density 19.753086
#
# number of rings (size 3 to 8) (size 9 to 14) (size 15 to 20)
#    0.000    1.000    3.750    2.625    5.250    1.000 
#    0.000    0.000    2.750    0.000    0.000    0.000 
#    0.000    0.000    0.000    0.000    0.000    0.000 
#
# Total GULP energy -356546.891517 kJ/mol
# GULP energy per Si atom -5571.045180 kJ/mol
# Density = 1.970813 g / cm^3
# Si number density = 19.753086 Si / 1000 Ang^3
#
#
#
# Elastic Constant Matrix: (Units=GPa)
#
#
# Indices 1 2 3 4 5 6 
#
# 1 130.5120 49.6433 13.0252 0.0000 0.0000 0.0000
# 2 49.6433 158.2370 6.0663 0.0000 0.0000 0.0000
# 3 13.0252 6.0663 35.4319 0.0000 0.0000 0.0000
# 4 0.0000 0.0000 0.0000 26.5120 0.0000 0.0000
# 5 0.0000 0.0000 0.0000 0.0000 53.0777 0.0000
# 6 0.0000 0.0000 0.0000 0.0000 0.0000 64.9957
#
#
#
# Elastic Compliance Matrix: (Units=1/GPa)
#
#
# Indices 1 2 3 4 5 6 
#
# 1 0.008975 -0.002707 -0.002836 0.000000 0.000000 0.000000
# 2 -0.002707 0.007178 -0.000234 0.000000 0.000000 0.000000
# 3 -0.002836 -0.000234 0.029306 0.000000 0.000000 0.000000
# 4 0.000000 0.000000 0.000000 0.037719 0.000000 0.000000
# 5 0.000000 0.000000 0.000000 0.000000 0.018840 0.000000
# 6 0.000000 0.000000 0.000000 0.000000 0.000000 0.015386
#
#
# Mechanical properties :
#
#
# Convention : Reuss Voigt Hill
#
# Bulk Modulus (GPa) = 29.49401 51.29450 40.39425
# Shear Modulus (GPa) = 35.64868 45.94685 40.79776
#
# Velocity S-wave (km/s) = 4.25280 4.82816 4.54958
# Velocity P-wave (km/s) = 6.25131 7.55683 6.93486
#
# Compressibility (1/GPa) = 0.03390519
#
# Stress axis : x y z
#
# Youngs Moduli (GPa) = 111.42334 139.31783 34.12314
#
# Poissons Ratio (x) = 0.37712 0.09677
# Poissons Ratio (y) = 0.30161 0.00798
# Poissons Ratio (z) = 0.31597 0.03258
#
# Static dielectric constant tensor:
#      x y z
#    x 1.658650 0.000000 0.000000 
#    y 0.000000 1.710030 0.000000 
#    z 0.000000 0.000000 1.769100 
# 
# From -- ./inp_files/6309.got.cif
#   From: 2010.05.17/outbox.ucp.g08.bks.cvg/sg60_4_cif.got.tgz:6309.got - 2010.06.11 16:26:41.
