data_PCOD9458325
_publ_section_title
;
Structure prediction by ZEFSAII (Michael W. Deem and Ramdas Pophale) SiO2 
 PCOD9458325
Probable space group: P B C N
;
_chemical_formula_sum "Si O2"
_cell_formula_units_Z 60
_cell_length_a 6.058700
_cell_length_b 18.408567
_cell_length_c 26.624796
_cell_angle_alpha 90.000000
_cell_angle_beta 90.000000
_cell_angle_gamma 90.000000
_cell_volume 2969.516345
_symmetry_space_group_name_H-M "P B C N"
_symmetry_group_IT_number 60
_symmetry_cell_setting 'orthorhombic'
loop_
_space_group_symop_operation_xyz
x,y,z
1/2-x,1/2-y,1/2+z
1/2+x,1/2-y,-z
-x,y,1/2-z
-x,-y,-z
1/2+x,1/2+y,1/2-z
1/2-x,1/2+y,z
x,-y,1/2+z
loop_
_atom_site_type_symbol
_atom_site_label
_atom_site_fract_x
_atom_site_fract_y
_atom_site_fract_z
Si Si1 0.876964 0.649376 0.698752
Si Si2 0.500000 0.564628 0.750000
Si Si3 0.393324 0.000348 0.195811
Si Si4 0.746472 0.501363 0.972681
Si Si5 0.149462 0.278380 0.950766
Si Si6 0.801949 0.163154 0.944005
Si Si7 0.166775 0.385463 0.611637
Si Si8 0.971130 0.239967 0.376657
O O1 0.645664 0.617134 0.715635
O O2 0.878106 0.718030 0.662834
O O3 0.000000 0.670919 0.750000
O O4 0.004893 0.577349 0.679122
O O5 0.357306 0.515992 0.712008
O O6 0.500000 0.018811 0.250000
O O7 0.427177 0.060784 0.153892
O O8 0.730144 0.577860 0.943909
O O9 0.743001 0.435567 0.933326
O O10 0.500000 0.500000 0.000000
O O11 0.000000 0.500000 0.000000
O O12 0.384986 0.278505 0.925019
O O13 0.045196 0.197677 0.950738
O O14 0.000562 0.331124 0.916505
O O15 0.171310 0.308663 0.006683
O O16 0.706464 0.200756 0.894599
O O17 0.347830 0.333607 0.637760
#
# Coordination Sequence:
#
# PCOD9458325 Si02
#       8
#     8   4   8   8   8   8   8   8
#     4   9  20  41  67  95 124 161 219 272 331 410
#     4   8  18  38  70  88 122 164 210 272 342 394
#     4   9  20  43  68  94 127 168 220 279 341 412
#     4  12  27  44  69 101 137 183 231 285 344 410
#     4  11  23  40  65  90 127 176 216 275 329 403
#     4  11  23  41  65  90 131 172 225 269 334 402
#     4  11  25  43  61  99 137 169 230 275 345 412
#     4  11  24  40  65  94 130 177 216 277 340 405
#
# _framework density 20.205311999999999
#
# number of rings (size 3 to 8) (size 9 to 14) (size 15 to 20)
#    0.000    1.867    2.667    1.600    3.733    7.467 
#    3.600    0.000    0.000    0.000    0.000    0.000 
#    0.000    0.000    0.000    0.000    0.000    0.000 
#
# Total GULP energy -334261.623629 kJ/mol
# GULP energy per Si atom -5571.027060 kJ/mol
# Density = 2.015932 g / cm^3
# Si number density = 20.205312 Si / 1000 Ang^3
#
#
#
# Elastic Constant Matrix: (Units=GPa)
#
#
# Indices 1 2 3 4 5 6 
#
# 1 52.4580 8.1384 2.3789 0.0000 0.0000 0.0000
# 2 8.1384 104.7642 23.4131 0.0000 0.0000 0.0000
# 3 2.3789 23.4131 58.9648 0.0000 0.0000 0.0000
# 4 0.0000 0.0000 0.0000 40.7111 0.0000 0.0000
# 5 0.0000 0.0000 0.0000 0.0000 3.6203 0.0000
# 6 0.0000 0.0000 0.0000 0.0000 0.0000 -151.6481
#
#
#
# Elastic Compliance Matrix: (Units=1/GPa)
#
#
# Indices 1 2 3 4 5 6 
#
# 1 0.019298 -0.001454 -0.000201 0.000000 0.000000 0.000000
# 2 -0.001454 0.010584 -0.004144 0.000000 0.000000 0.000000
# 3 -0.000201 -0.004144 0.018613 0.000000 0.000000 0.000000
# 4 0.000000 0.000000 0.000000 0.024563 0.000000 0.000000
# 5 0.000000 0.000000 0.000000 0.000000 0.276223 0.000000
# 6 0.000000 0.000000 0.000000 0.000000 0.000000 -0.006594
#
#
# Mechanical properties :
#
#
# Convention : Reuss Voigt Hill
#
# Bulk Modulus (GPa) = 27.10314 31.56086 29.33200
# Shear Modulus (GPa) = 13.63942 -9.31290 2.16326
#
# Velocity S-wave (km/s) = 2.60097 -2.14922 1.03584
# Velocity P-wave (km/s) = 4.73952 3.08142 3.99739
#
# Compressibility (1/GPa) = 0.03689610
#
# Stress axis : x y z
#
# Youngs Moduli (GPa) = 51.82000 94.47931 53.72627
#
# Poissons Ratio (x) = 0.13738 0.01081
# Poissons Ratio (y) = 0.07535 0.22264
# Poissons Ratio (z) = 0.01042 0.39153
#
# Static dielectric constant tensor:
#      x y z
#    x 1.815600 0.000000 0.000000 
#    y 0.000000 1.698970 0.000000 
#    z 0.000000 0.000000 1.726570 
# 
# From -- ./inp_files/24990.got.cif
#   From: 2010.05.17/outbox.cif.g08.bks.cpg/sg60_13_cif.got.tgz:24990.got - 2010.06.03 14:59:27.
