data_PCOD9458279
_publ_section_title
;
Structure prediction by ZEFSAII (Michael W. Deem and Ramdas Pophale) SiO2 
 PCOD9458279
Probable space group: P B C N
;
_chemical_formula_sum "Si O2"
_cell_formula_units_Z 32
_cell_length_a 13.665922
_cell_length_b 9.399411
_cell_length_c 8.841379
_cell_angle_alpha 90.000000
_cell_angle_beta 90.000000
_cell_angle_gamma 90.000000
_cell_volume 1135.689434
_symmetry_space_group_name_H-M "P B C N"
_symmetry_group_IT_number 60
_symmetry_cell_setting 'orthorhombic'
loop_
_space_group_symop_operation_xyz
x,y,z
1/2-x,1/2-y,1/2+z
1/2+x,1/2-y,-z
-x,y,1/2-z
-x,-y,-z
1/2+x,1/2+y,1/2-z
1/2-x,1/2+y,z
x,-y,1/2+z
loop_
_atom_site_type_symbol
_atom_site_label
_atom_site_fract_x
_atom_site_fract_y
_atom_site_fract_z
Si Si1 0.605719 0.968741 0.684218
Si Si2 0.443165 0.646579 0.904764
Si Si3 0.726324 0.362144 0.886079
Si Si4 0.869580 0.772716 0.577007
O O1 0.500000 0.003015 0.750000
O O2 0.592721 0.809027 0.623249
O O3 0.695417 0.960732 0.800047
O O4 0.621483 0.100574 0.575346
O O5 0.500000 0.602135 0.750000
O O6 0.345195 0.580291 0.980154
O O7 0.529981 0.656846 0.026101
O O8 0.658564 0.314757 0.745578
O O9 0.784061 0.223665 0.951586
#
# Coordination Sequence:
#
# PCOD9458279 Si02
#       4
#     8   8   8   8
#     4  11  23  40  68 104 134 171 228 285 342 394
#     4  11  22  44  68 103 137 176 228 284 346 401
#     4  12  24  40  68 103 138 181 222 288 339 407
#     4  12  24  42  69 101 142 175 229 281 343 404
#
# _framework density 28.176715999999999
#
# number of rings (size 3 to 8) (size 9 to 14) (size 15 to 20)
#    0.000    0.500    7.500    3.000    3.500    0.000 
#    0.000    0.000    0.000   24.000    0.000    0.000 
#    0.000    0.000    0.000    0.000    0.000    0.000 
#
# Total GULP energy -179319.347437 kJ/mol
# GULP energy per Si atom -5603.729607 kJ/mol
# Density = 2.811259 g / cm^3
# Si number density = 28.176716 Si / 1000 Ang^3
#
#
#
# Elastic Constant Matrix: (Units=GPa)
#
#
# Indices 1 2 3 4 5 6 
#
# 1 214.9688 32.8516 76.1599 0.0000 0.0000 0.0000
# 2 32.8516 67.2230 14.1587 0.0000 0.0000 0.0000
# 3 76.1599 14.1587 126.1036 0.0000 0.0000 0.0000
# 4 0.0000 0.0000 0.0000 43.1519 0.0000 0.0000
# 5 0.0000 0.0000 0.0000 0.0000 78.8749 0.0000
# 6 0.0000 0.0000 0.0000 0.0000 0.0000 25.4178
#
#
#
# Elastic Compliance Matrix: (Units=1/GPa)
#
#
# Indices 1 2 3 4 5 6 
#
# 1 0.006251 -0.002314 -0.003515 0.000000 0.000000 0.000000
# 2 -0.002314 0.016093 -0.000409 0.000000 0.000000 0.000000
# 3 -0.003515 -0.000409 0.010099 0.000000 0.000000 0.000000
# 4 0.000000 0.000000 0.000000 0.023174 0.000000 0.000000
# 5 0.000000 0.000000 0.000000 0.000000 0.012678 0.000000
# 6 0.000000 0.000000 0.000000 0.000000 0.000000 0.039342
#
#
# Mechanical properties :
#
#
# Convention : Reuss Voigt Hill
#
# Bulk Modulus (GPa) = 50.08708 72.73731 61.41219
# Shear Modulus (GPa) = 39.44129 48.49728 43.96929
#
# Velocity S-wave (km/s) = 3.74543 4.15321 3.95458
# Velocity P-wave (km/s) = 6.04309 6.99068 6.53409
#
# Compressibility (1/GPa) = 0.01996523
#
# Stress axis : x y z
#
# Youngs Moduli (GPa) = 159.97510 62.13856 99.01933
#
# Poissons Ratio (x) = 0.14381 0.34809
# Poissons Ratio (y) = 0.37025 0.04051
# Poissons Ratio (z) = 0.56238 0.02542
#
# Static dielectric constant tensor:
#      x y z
#    x 2.260330 0.000000 0.000000 
#    y 0.000000 2.282810 0.000000 
#    z 0.000000 0.000000 2.233760 
# 
# From -- ./inp_files/4554.got.cif
#   From: 2010.05.17/outbox.cif.g08.bks.cpg/sg60_3_cif.got.tgz:4554.got - 2010.06.03 14:59:27.
