data_PCOD9458059
_publ_section_title
;
Structure prediction by ZEFSAII (Michael W. Deem and Ramdas Pophale) SiO2 
 PCOD9458059
Probable space group: P B C N
;
_chemical_formula_sum "Si O2"
_cell_formula_units_Z 64
_cell_length_a 10.052806
_cell_length_b 21.906564
_cell_length_c 14.902514
_cell_angle_alpha 90.000000
_cell_angle_beta 90.000000
_cell_angle_gamma 90.000000
_cell_volume 3281.867966
_symmetry_space_group_name_H-M "P B C N"
_symmetry_group_IT_number 60
_symmetry_cell_setting 'orthorhombic'
loop_
_space_group_symop_operation_xyz
x,y,z
1/2-x,1/2-y,1/2+z
1/2+x,1/2-y,-z
-x,y,1/2-z
-x,-y,-z
1/2+x,1/2+y,1/2-z
1/2-x,1/2+y,z
x,-y,1/2+z
loop_
_atom_site_type_symbol
_atom_site_label
_atom_site_fract_x
_atom_site_fract_y
_atom_site_fract_z
Si Si1 0.740908 0.621038 0.093199
Si Si2 0.736144 0.623615 0.467805
Si Si3 0.475411 0.683756 0.535906
Si Si4 0.642019 0.181198 0.794464
Si Si5 0.623347 0.395380 0.311935
Si Si6 0.153708 0.012906 0.523024
Si Si7 0.842149 0.177561 0.273329
Si Si8 0.478529 0.823960 0.007668
O O1 0.725342 0.637150 0.196645
O O2 0.629416 0.661049 0.039447
O O3 0.712176 0.552974 0.058497
O O4 0.885835 0.640723 0.061615
O O5 0.612249 0.646952 0.526413
O O6 0.728113 0.550662 0.463572
O O7 0.702003 0.652392 0.370104
O O8 0.875296 0.646626 0.507853
O O9 0.417620 0.664883 0.631440
O O10 0.502206 0.754290 0.521940
O O11 0.500000 0.172382 0.750000
O O12 0.744256 0.128876 0.764243
O O13 0.689165 0.249982 0.770937
O O14 0.605795 0.176482 0.900100
O O15 0.500000 0.413840 0.250000
O O16 0.655913 0.446245 0.386672
O O17 0.000000 0.000000 0.500000
O O18 0.000000 0.172999 0.250000
#
# Coordination Sequence:
#
# PCOD9458059 Si02
#       8
#     8   8   8   8   8   8   8   8
#     4  11  23  42  66  92 136 175 216 281 325 392
#     4  12  24  39  71  97 126 183 225 263 334 401
#     4  11  20  42  65  95 128 170 224 265 333 394
#     4  11  23  41  64  96 137 170 213 279 347 398
#     4  11  25  41  64  99 127 168 222 283 324 387
#     4  11  22  45  67  93 129 177 234 266 320 403
#     4  11  21  41  66  99 127 171 228 273 329 397
#     4  12  24  41  65  98 140 170 212 279 346 398
#
# _framework density 19.501089
#
# number of rings (size 3 to 8) (size 9 to 14) (size 15 to 20)
#    0.000    0.750    7.500    2.250    3.500    2.500 
#    0.000    0.000    0.000    0.000    0.000    0.000 
#    0.000    0.000    0.000    0.000    0.000    0.000 
#
# Total GULP energy -357551.226877 kJ/mol
# GULP energy per Si atom -5586.737920 kJ/mol
# Density = 1.945670 g / cm^3
# Si number density = 19.501089 Si / 1000 Ang^3
#
#
#
# Elastic Constant Matrix: (Units=GPa)
#
#
# Indices 1 2 3 4 5 6 
#
# 1 80.3748 34.0688 -4.0117 0.0000 0.0000 0.0000
# 2 34.0688 117.4296 3.8232 0.0000 0.0000 0.0000
# 3 -4.0117 3.8232 33.0385 0.0000 0.0000 0.0000
# 4 0.0000 0.0000 0.0000 17.0918 0.0000 0.0000
# 5 0.0000 0.0000 0.0000 0.0000 22.1084 0.0000
# 6 0.0000 0.0000 0.0000 0.0000 0.0000 -567.0599
#
#
#
# Elastic Compliance Matrix: (Units=1/GPa)
#
#
# Indices 1 2 3 4 5 6 
#
# 1 0.014348 -0.004235 0.002232 0.000000 0.000000 0.000000
# 2 -0.004235 0.009798 -0.001648 0.000000 0.000000 0.000000
# 3 0.002232 -0.001648 0.030729 0.000000 0.000000 0.000000
# 4 0.000000 0.000000 0.000000 0.058507 0.000000 0.000000
# 5 0.000000 0.000000 0.000000 0.000000 0.045232 0.000000
# 6 0.000000 0.000000 0.000000 0.000000 0.000000 -0.001763
#
#
# Mechanical properties :
#
#
# Convention : Reuss Voigt Hill
#
# Bulk Modulus (GPa) = 21.02003 33.17816 27.09909
# Shear Modulus (GPa) = 27.77591 -92.44110 -32.33259
#
# Velocity S-wave (km/s) = 3.77812 -6.89246 -4.07626
# Velocity P-wave (km/s) = 5.46210 6.80374 2.86848
#
# Compressibility (1/GPa) = 0.04757367
#
# Stress axis : x y z
#
# Youngs Moduli (GPa) = 69.69398 102.05960 32.54206
#
# Poissons Ratio (x) = 0.43227 -0.07265
# Poissons Ratio (y) = 0.29519 0.05363
# Poissons Ratio (z) = -0.15558 0.16821
#
# Static dielectric constant tensor:
#      x y z
#    x 1.694040 0.000000 0.000000 
#    y 0.000000 1.658790 0.000000 
#    z 0.000000 0.000000 1.671930 
# 
# From -- ./inp_files/15431.got.cif
#   From: 2010.05.17/outbox.cif.g08.bks.cpg/sg60_8_cif.got.tgz:15431.got - 2010.06.03 14:59:27.
