data_PCOD9458446
_publ_section_title
;
Structure prediction by ZEFSAII (Michael W. Deem and Ramdas Pophale) SiO2 
 PCOD9458446
Probable space group: P B C N
;
_chemical_formula_sum "Si O2"
_cell_formula_units_Z 40
_cell_length_a 6.555950
_cell_length_b 10.565450
_cell_length_c 26.073912
_cell_angle_alpha 90.000000
_cell_angle_beta 90.000000
_cell_angle_gamma 90.000000
_cell_volume 1806.050240
_symmetry_space_group_name_H-M "P B C N"
_symmetry_group_IT_number 60
_symmetry_cell_setting 'orthorhombic'
loop_
_space_group_symop_operation_xyz
x,y,z
1/2-x,1/2-y,1/2+z
1/2+x,1/2-y,-z
-x,y,1/2-z
-x,-y,-z
1/2+x,1/2+y,1/2-z
1/2-x,1/2+y,z
x,-y,1/2+z
loop_
_atom_site_type_symbol
_atom_site_label
_atom_site_fract_x
_atom_site_fract_y
_atom_site_fract_z
Si Si1 0.300533 0.080978 0.516248
Si Si2 0.820460 0.719519 0.880413
Si Si3 0.567584 0.226978 0.191438
Si Si4 0.550619 0.567538 0.076000
Si Si5 0.668042 0.049799 0.653689
O O1 0.313825 0.190172 0.558721
O O2 0.200528 0.134528 0.464380
O O3 0.500000 0.000000 0.500000
O O4 0.137657 0.988489 0.544076
O O5 0.615679 0.743627 0.848913
O O6 0.960896 0.843782 0.879875
O O7 0.942293 0.599513 0.858640
O O8 0.500000 0.221910 0.250000
O O9 0.726485 0.341789 0.186822
O O10 0.653966 0.089256 0.177095
O O11 0.693305 0.462409 0.102532
#
# Coordination Sequence:
#
# PCOD9458446 Si02
#       5
#     8   8   8   8   8
#     4  11  24  41  68 108 158 206 249 305 374 459
#     4  12  26  45  75 107 154 197 260 315 384 463
#     4  12  31  50  80 110 148 200 262 330 397 462
#     4  11  25  42  70 110 149 201 250 302 377 459
#     4  12  26  52  75 110 152 198 252 324 390 458
#
# _framework density 22.147777999999999
#
# number of rings (size 3 to 8) (size 9 to 14) (size 15 to 20)
#    0.000    0.400    6.000    1.200    5.600    0.000 
#    0.000    0.000    0.000    0.000    0.000    0.000 
#    0.000    0.000    0.000    0.000    0.000    0.000 
#
# Total GULP energy -223517.695457 kJ/mol
# GULP energy per Si atom -5587.942386 kJ/mol
# Density = 2.209737 g / cm^3
# Si number density = 22.147778 Si / 1000 Ang^3
#
#
#
# Elastic Constant Matrix: (Units=GPa)
#
#
# Indices 1 2 3 4 5 6 
#
# 1 71.4432 56.6569 31.2936 0.0000 0.0000 0.0000
# 2 56.6569 118.6322 32.6214 0.0000 0.0000 0.0000
# 3 31.2936 32.6214 81.5797 0.0000 0.0000 0.0000
# 4 0.0000 0.0000 0.0000 22.0095 0.0000 0.0000
# 5 0.0000 0.0000 0.0000 0.0000 33.9128 0.0000
# 6 0.0000 0.0000 0.0000 0.0000 0.0000 43.7765
#
#
#
# Elastic Compliance Matrix: (Units=1/GPa)
#
#
# Indices 1 2 3 4 5 6 
#
# 1 0.024400 -0.010201 -0.005281 0.000000 0.000000 0.000000
# 2 -0.010201 0.013736 -0.001579 0.000000 0.000000 0.000000
# 3 -0.005281 -0.001579 0.014915 0.000000 0.000000 0.000000
# 4 0.000000 0.000000 0.000000 0.045435 0.000000 0.000000
# 5 0.000000 0.000000 0.000000 0.000000 0.029487 0.000000
# 6 0.000000 0.000000 0.000000 0.000000 0.000000 0.022843
#
#
# Mechanical properties :
#
#
# Convention : Reuss Voigt Hill
#
# Bulk Modulus (GPa) = 52.83010 56.97763 54.90387
# Shear Modulus (GPa) = 26.14413 30.01198 28.07805
#
# Velocity S-wave (km/s) = 3.43948 3.68513 3.56442
# Velocity P-wave (km/s) = 6.29910 6.62487 6.46404
#
# Compressibility (1/GPa) = 0.01892860
#
# Stress axis : x y z
#
# Youngs Moduli (GPa) = 40.98390 72.80390 67.04600
#
# Poissons Ratio (x) = 0.74267 0.35404
# Poissons Ratio (y) = 0.41807 0.10589
# Poissons Ratio (z) = 0.21642 0.11499
#
# Static dielectric constant tensor:
#      x y z
#    x 1.861230 0.000000 0.000000 
#    y 0.000000 1.869670 0.000000 
#    z 0.000000 0.000000 1.859710 
# 
# From -- ./inp_files/24760.got.cif
#   From: 2010.05.17/outbox.cif.g08.bks.cpg/sg60_13_cif.got.tgz:24760.got - 2010.06.03 14:59:27.
