data_PCOD9458687
_publ_section_title
;
Structure prediction by ZEFSAII (Michael W. Deem and Ramdas Pophale) SiO2 
 PCOD9458687
Probable space group: P B C N
;
_chemical_formula_sum "Si O2"
_cell_formula_units_Z 40
_cell_length_a 7.914403
_cell_length_b 25.920628
_cell_length_c 8.792582
_cell_angle_alpha 90.000000
_cell_angle_beta 90.000000
_cell_angle_gamma 90.000000
_cell_volume 1803.765630
_symmetry_space_group_name_H-M "P B C N"
_symmetry_group_IT_number 60
_symmetry_cell_setting 'orthorhombic'
loop_
_space_group_symop_operation_xyz
x,y,z
1/2-x,1/2-y,1/2+z
1/2+x,1/2-y,-z
-x,y,1/2-z
-x,-y,-z
1/2+x,1/2+y,1/2-z
1/2-x,1/2+y,z
x,-y,1/2+z
loop_
_atom_site_type_symbol
_atom_site_label
_atom_site_fract_x
_atom_site_fract_y
_atom_site_fract_z
Si Si1 0.377167 0.020076 0.868573
Si Si2 0.728855 0.799483 0.672261
Si Si3 0.767131 0.089261 0.164829
Si Si4 0.404772 0.706842 0.010941
Si Si5 0.405340 0.595056 0.996113
O O1 0.500000 0.048512 0.750000
O O2 0.314226 0.965663 0.803644
O O3 0.216520 0.053670 0.918759
O O4 0.500000 0.000000 0.000000
O O5 0.664193 0.857863 0.637945
O O6 0.770789 0.790002 0.849477
O O7 0.617711 0.755144 0.598161
O O8 0.911363 0.796298 0.588584
O O9 0.850472 0.101390 0.327887
O O10 0.897528 0.081309 0.023470
O O11 0.382938 0.651849 0.926946
#
# Coordination Sequence:
#
# PCOD9458687 Si02
#       5
#     8   8   8   8   8
#     4  12  23  38  57  88 118 145 193 246 295 342
#     4   9  19  37  59  83 110 149 189 234 278 342
#     4   9  19  39  62  79 113 161 196 227 293 363
#     4   9  19  37  58  84 113 145 190 231 285 339
#     4   9  19  39  61  81 114 157 196 235 287 358
#
# _framework density 22.175832
#
# number of rings (size 3 to 8) (size 9 to 14) (size 15 to 20)
#    0.000    2.400    2.000    3.000    0.000    2.400 
#    7.200    0.000    0.000    0.000    0.000    0.000 
#    0.000    0.000    0.000    0.000    0.000    0.000 
#
# Total GULP energy -223020.669937 kJ/mol
# GULP energy per Si atom -5575.516748 kJ/mol
# Density = 2.212536 g / cm^3
# Si number density = 22.175832 Si / 1000 Ang^3
#
#
#
# Elastic Constant Matrix: (Units=GPa)
#
#
# Indices 1 2 3 4 5 6 
#
# 1 66.6209 38.9461 15.9270 0.0000 0.0000 0.0000
# 2 38.9461 139.7957 19.1161 0.0000 0.0000 0.0000
# 3 15.9270 19.1161 41.9718 0.0000 0.0000 0.0000
# 4 0.0000 0.0000 0.0000 225.4860 0.0000 0.0000
# 5 0.0000 0.0000 0.0000 0.0000 34.2800 0.0000
# 6 0.0000 0.0000 0.0000 0.0000 0.0000 16.9947
#
#
#
# Elastic Compliance Matrix: (Units=1/GPa)
#
#
# Indices 1 2 3 4 5 6 
#
# 1 0.018898 -0.004569 -0.005090 0.000000 0.000000 0.000000
# 2 -0.004569 0.008733 -0.002244 0.000000 0.000000 0.000000
# 3 -0.005090 -0.002244 0.026779 0.000000 0.000000 0.000000
# 4 0.000000 0.000000 0.000000 0.004435 0.000000 0.000000
# 5 0.000000 0.000000 0.000000 0.000000 0.029172 0.000000
# 6 0.000000 0.000000 0.000000 0.000000 0.000000 0.058842
#
#
# Mechanical properties :
#
#
# Convention : Reuss Voigt Hill
#
# Bulk Modulus (GPa) = 32.67512 44.04076 38.35794
# Shear Modulus (GPa) = 27.64481 66.97875 47.31178
#
# Velocity S-wave (km/s) = 3.53458 5.50173 4.62398
# Velocity P-wave (km/s) = 5.60573 7.76284 6.77074
#
# Compressibility (1/GPa) = 0.03060433
#
# Stress axis : x y z
#
# Youngs Moduli (GPa) = 52.91519 114.50891 37.34259
#
# Poissons Ratio (x) = 0.52317 0.19009
# Poissons Ratio (y) = 0.24176 0.08379
# Poissons Ratio (z) = 0.26936 0.25692
#
# Static dielectric constant tensor:
#      x y z
#    x 1.887170 0.000000 0.000000 
#    y 0.000000 1.973880 0.000000 
#    z 0.000000 0.000000 1.806830 
# 
# From -- ./inp_files/3800.got.cif
#   From: 2010.05.17/outbox.cif.g08.bks.cpg/sg60_2_cif.got.tgz:3800.got - 2010.06.03 14:59:27.
