data_PCOD9458577
_publ_section_title
;
Structure prediction by ZEFSAII (Michael W. Deem and Ramdas Pophale) SiO2 
 PCOD9458577
Probable space group: P B C N
;
_chemical_formula_sum "Si O2"
_cell_formula_units_Z 20
_cell_length_a 4.298546
_cell_length_b 6.160620
_cell_length_c 21.293905
_cell_angle_alpha 90.000000
_cell_angle_beta 90.000000
_cell_angle_gamma 90.000000
_cell_volume 563.898984
_symmetry_space_group_name_H-M "P B C N"
_symmetry_group_IT_number 60
_symmetry_cell_setting 'orthorhombic'
loop_
_space_group_symop_operation_xyz
x,y,z
1/2-x,1/2-y,1/2+z
1/2+x,1/2-y,-z
-x,y,1/2-z
-x,-y,-z
1/2+x,1/2+y,1/2-z
1/2-x,1/2+y,z
x,-y,1/2+z
loop_
_atom_site_type_symbol
_atom_site_label
_atom_site_fract_x
_atom_site_fract_y
_atom_site_fract_z
Si Si1 0.021519 0.220813 0.648590
Si Si2 0.000000 0.518907 0.750000
Si Si3 0.516053 0.246570 0.549592
O O1 0.267834 0.340121 0.600937
O O2 0.822970 0.370378 0.697609
O O3 0.763479 0.137906 0.598263
O O4 0.249402 0.115478 0.701072
O O5 0.760797 0.354330 0.499792
#
# Coordination Sequence:
#
# PCOD9458577 Si02
#       3
#     8   4   8
#     4  11  25  46  74 108 149 193 246 306 370 441
#     4  12  28  48  76 114 152 196 244 306 376 444
#     4   9  21  46  72 104 145 197 248 302 364 437
#
# _framework density 35.467350000000003
#
# number of rings (size 3 to 8) (size 9 to 14) (size 15 to 20)
#    0.000    1.600    0.000    2.400    0.000   14.400 
#    0.000   40.000    0.000    0.000    0.000    0.000 
#    0.000    0.000    0.000    0.000    0.000    0.000 
#
# Total GULP energy -111542.105616 kJ/mol
# GULP energy per Si atom -5577.105281 kJ/mol
# Density = 3.538662 g / cm^3
# Si number density = 35.467350 Si / 1000 Ang^3
#
#
#
# Elastic Constant Matrix: (Units=GPa)
#
#
# Indices 1 2 3 4 5 6 
#
# 1 399.1368 91.9037 181.5515 0.0000 0.0000 0.0000
# 2 91.9037 58.1173 131.3101 0.0000 0.0000 0.0000
# 3 181.5515 131.3101 536.3688 0.0000 0.0000 0.0000
# 4 0.0000 0.0000 0.0000 85.8110 0.0000 0.0000
# 5 0.0000 0.0000 0.0000 0.0000 52.3598 0.0000
# 6 0.0000 0.0000 0.0000 0.0000 0.0000 48.9590
#
#
#
# Elastic Compliance Matrix: (Units=1/GPa)
#
#
# Indices 1 2 3 4 5 6 
#
# 1 0.003985 -0.007281 0.000434 0.000000 0.000000 0.000000
# 2 -0.007281 0.051810 -0.010219 0.000000 0.000000 0.000000
# 3 0.000434 -0.010219 0.004219 0.000000 0.000000 0.000000
# 4 0.000000 0.000000 0.000000 0.011654 0.000000 0.000000
# 5 0.000000 0.000000 0.000000 0.000000 0.019099 0.000000
# 6 0.000000 0.000000 0.000000 0.000000 0.000000 0.020425
#
#
# Mechanical properties :
#
#
# Convention : Reuss Voigt Hill
#
# Bulk Modulus (GPa) = 38.63885 200.35039 119.49462
# Shear Modulus (GPa) = 32.47777 76.68313 54.58045
#
# Velocity S-wave (km/s) = 3.02935 4.65486 3.92713
# Velocity P-wave (km/s) = 4.81184 9.24671 7.37073
#
# Compressibility (1/GPa) = 0.02588069
#
# Stress axis : x y z
#
# Youngs Moduli (GPa) = 250.96399 19.30131 237.00397
#
# Poissons Ratio (x) = 0.14054 -0.10282
# Poissons Ratio (y) = 1.82733 2.42199
# Poissons Ratio (z) = -0.10887 0.19724
#
# Static dielectric constant tensor:
#      x y z
#    x 2.630960 0.000000 0.000000 
#    y 0.000000 4.527260 0.000000 
#    z 0.000000 0.000000 2.489740 
# 
# From -- ./inp_files/18268.got.cif
#   From: 2010.05.17/outbox.cif.g08.bks.cpg/sg60_10_cif.got.tgz:18268.got - 2010.06.03 14:59:27.
