data_PCOD9458103
_publ_section_title
;
Structure prediction by ZEFSAII (Michael W. Deem and Ramdas Pophale) SiO2 
 PCOD9458103
Probable space group: P B C N
;
_chemical_formula_sum "Si O2"
_cell_formula_units_Z 64
_cell_length_a 18.508139
_cell_length_b 14.454257
_cell_length_c 12.904541
_cell_angle_alpha 90.000000
_cell_angle_beta 90.000000
_cell_angle_gamma 90.000000
_cell_volume 3452.240845
_symmetry_space_group_name_H-M "P B C N"
_symmetry_group_IT_number 60
_symmetry_cell_setting 'orthorhombic'
loop_
_space_group_symop_operation_xyz
x,y,z
1/2-x,1/2-y,1/2+z
1/2+x,1/2-y,-z
-x,y,1/2-z
-x,-y,-z
1/2+x,1/2+y,1/2-z
1/2-x,1/2+y,z
x,-y,1/2+z
loop_
_atom_site_type_symbol
_atom_site_label
_atom_site_fract_x
_atom_site_fract_y
_atom_site_fract_z
Si Si1 0.190594 0.208483 0.484555
Si Si2 0.811375 0.151475 0.230839
Si Si3 0.955525 0.064147 0.650016
Si Si4 0.700656 0.899412 0.361425
Si Si5 0.468847 0.365006 0.944626
Si Si6 0.063967 0.275258 0.182912
Si Si7 0.226368 0.398646 0.562347
Si Si8 0.293600 0.560950 0.839130
O O1 0.221340 0.208586 0.366365
O O2 0.244644 0.152090 0.559244
O O3 0.112576 0.161537 0.475504
O O4 0.179044 0.311907 0.526234
O O5 0.888551 0.199852 0.252525
O O6 0.774150 0.143544 0.343474
O O7 0.805547 0.046968 0.189314
O O8 0.874396 0.099142 0.666788
O O9 0.000000 0.089921 0.750000
O O10 0.989758 0.104586 0.547229
O O11 0.962619 0.953505 0.631134
O O12 0.624605 0.845937 0.357028
O O13 0.738856 0.900943 0.248013
O O14 0.692189 0.006212 0.396313
O O15 0.517837 0.283638 0.898496
O O16 0.000000 0.321461 0.250000
O O17 0.268758 0.426523 0.457473
#
# Coordination Sequence:
#
# PCOD9458103 Si02
#       8
#     8   8   8   8   8   8   8   8
#     4  12  22  42  64  93 130 167 215 270 322 385
#     4  11  21  39  65  96 124 167 211 270 320 378
#     4  11  21  37  60  94 132 163 199 267 331 391
#     4  11  25  42  65  98 124 171 219 271 318 389
#     4  11  23  37  62  93 129 168 210 258 329 391
#     4  12  22  41  65  93 128 172 222 261 322 393
#     4  11  24  40  66  96 129 165 221 269 320 373
#     4  11  21  39  64  92 132 163 214 265 325 380
#
# _framework density 18.538682999999999
#
# number of rings (size 3 to 8) (size 9 to 14) (size 15 to 20)
#    0.000    0.750    5.000    3.375    0.000    4.000 
#    0.000    0.625    0.000    0.000    0.000    0.000 
#    0.000    0.000    0.000    0.000    0.000    0.000 
#
# Total GULP energy -356913.889085 kJ/mol
# GULP energy per Si atom -5576.779517 kJ/mol
# Density = 1.849649 g / cm^3
# Si number density = 18.538683 Si / 1000 Ang^3
#
#
#
# Elastic Constant Matrix: (Units=GPa)
#
#
# Indices 1 2 3 4 5 6 
#
# 1 103.6284 35.9561 36.7837 0.0000 0.0000 0.0000
# 2 35.9561 80.8110 24.5919 0.0000 0.0000 0.0000
# 3 36.7837 24.5919 112.7809 0.0000 0.0000 0.0000
# 4 0.0000 0.0000 0.0000 28.4801 0.0000 0.0000
# 5 0.0000 0.0000 0.0000 0.0000 29.7508 0.0000
# 6 0.0000 0.0000 0.0000 0.0000 0.0000 70.9962
#
#
#
# Elastic Compliance Matrix: (Units=1/GPa)
#
#
# Indices 1 2 3 4 5 6 
#
# 1 0.012302 -0.004555 -0.003019 0.000000 0.000000 0.000000
# 2 -0.004555 0.014941 -0.001772 0.000000 0.000000 0.000000
# 3 -0.003019 -0.001772 0.010238 0.000000 0.000000 0.000000
# 4 0.000000 0.000000 0.000000 0.035112 0.000000 0.000000
# 5 0.000000 0.000000 0.000000 0.000000 0.033613 0.000000
# 6 0.000000 0.000000 0.000000 0.000000 0.000000 0.014085
#
#
# Mechanical properties :
#
#
# Convention : Reuss Voigt Hill
#
# Bulk Modulus (GPa) = 53.22563 54.65375 53.93969
# Shear Modulus (GPa) = 34.42452 39.17133 36.79792
#
# Velocity S-wave (km/s) = 4.31385 4.60167 4.46008
# Velocity P-wave (km/s) = 7.32020 7.60123 7.46204
#
# Compressibility (1/GPa) = 0.01878794
#
# Stress axis : x y z
#
# Youngs Moduli (GPa) = 81.28805 66.93210 97.67659
#
# Poissons Ratio (x) = 0.30487 0.29490
# Poissons Ratio (y) = 0.37026 0.17310
# Poissons Ratio (z) = 0.24542 0.11862
#
# Static dielectric constant tensor:
#      x y z
#    x 1.631860 0.000000 0.000000 
#    y 0.000000 1.663210 0.000000 
#    z 0.000000 0.000000 1.675070 
# 
# From -- ./inp_files/12555.got.cif
#   From: 2010.05.17/outbox.cif.g08.bks.cpg/sg60_7_cif.got.tgz:12555.got - 2010.06.03 14:59:27.
