data_PCOD9458667
_publ_section_title
;
Structure prediction by ZEFSAII (Michael W. Deem and Ramdas Pophale) SiO2 
 PCOD9458667
Probable space group: P B C N
;
_chemical_formula_sum "Si O2"
_cell_formula_units_Z 64
_cell_length_a 8.869142
_cell_length_b 19.212086
_cell_length_c 20.582902
_cell_angle_alpha 90.000000
_cell_angle_beta 90.000000
_cell_angle_gamma 90.000000
_cell_volume 3507.217799
_symmetry_space_group_name_H-M "P B C N"
_symmetry_group_IT_number 60
_symmetry_cell_setting 'orthorhombic'
loop_
_space_group_symop_operation_xyz
x,y,z
1/2-x,1/2-y,1/2+z
1/2+x,1/2-y,-z
-x,y,1/2-z
-x,-y,-z
1/2+x,1/2+y,1/2-z
1/2-x,1/2+y,z
x,-y,1/2+z
loop_
_atom_site_type_symbol
_atom_site_label
_atom_site_fract_x
_atom_site_fract_y
_atom_site_fract_z
Si Si1 0.410394 0.284760 0.433066
Si Si2 0.755636 0.919382 0.285591
Si Si3 0.744364 0.580618 0.285591
Si Si4 0.912945 0.918836 0.650377
Si Si5 0.412053 0.213578 0.684277
Si Si6 0.912053 0.286422 0.815723
Si Si7 0.589606 0.284760 0.566934
Si Si8 0.412945 0.581164 0.849623
O O1 0.497111 0.240415 0.377705
O O2 0.500000 0.285744 0.500000
O O3 0.250000 0.250000 0.443768
O O4 0.390660 0.362586 0.405190
O O5 0.629148 0.868015 0.312451
O O6 0.802080 0.902889 0.211070
O O7 0.914449 0.911787 0.323985
O O8 0.710838 1.000000 0.289099
O O9 0.697921 0.597111 0.211070
O O10 0.585551 0.588213 0.323985
O O11 0.870852 0.631985 0.312451
O O12 0.890660 0.862586 0.594810
O O13 0.891429 0.000000 0.632617
O O14 0.500000 0.232769 0.750000
O O15 0.250000 0.250000 0.684939
O O16 0.502889 0.240415 0.622295
O O17 0.000000 0.267232 0.750000
#
# Coordination Sequence:
#
# PCOD9458667 Si02
#       8
#     8   8   8   8   8   8   8   8
#     4  12  26  42  61  88 123 161 206 253 307 365
#     4   9  18  34  61  93 122 154 198 250 300 354
#     4   9  18  34  61  93 122 154 198 250 300 354
#     4   9  18  37  63  90 120 158 205 248 296 363
#     4  12  22  36  61  90 124 160 200 250 304 359
#     4  12  22  36  61  90 124 160 200 250 304 359
#     4  12  26  42  61  88 123 161 206 253 307 365
#     4   9  18  37  63  90 120 158 205 248 296 363
#
# _framework density 18.248082
#
# number of rings (size 3 to 8) (size 9 to 14) (size 15 to 20)
#    0.000    1.500    2.500    6.000    0.000    1.000 
#    0.000    1.250    0.000    1.500    0.000    0.000 
#    0.000    0.000    0.000    0.000    0.000    0.000 
#
# Total GULP energy -357671.180650 kJ/mol
# GULP energy per Si atom -5588.612198 kJ/mol
# Density = 1.820655 g / cm^3
# Si number density = 18.248082 Si / 1000 Ang^3
#
#
#
# Elastic Constant Matrix: (Units=GPa)
#
#
# Indices 1 2 3 4 5 6 
#
# 1 58.6841 47.8111 30.5989 0.0000 0.0000 0.0000
# 2 47.8111 125.9508 79.5278 0.0000 0.0000 0.0000
# 3 30.5989 79.5278 110.9644 0.0000 0.0000 0.0000
# 4 0.0000 0.0000 0.0000 -9.8719 0.0000 0.0000
# 5 0.0000 0.0000 0.0000 0.0000 28.6881 0.0000
# 6 0.0000 0.0000 0.0000 0.0000 0.0000 -43.3282
#
#
#
# Elastic Compliance Matrix: (Units=1/GPa)
#
#
# Indices 1 2 3 4 5 6 
#
# 1 0.024672 -0.009260 -0.000167 0.000000 0.000000 0.000000
# 2 -0.009260 0.017978 -0.010331 0.000000 0.000000 0.000000
# 3 -0.000167 -0.010331 0.016462 0.000000 0.000000 0.000000
# 4 0.000000 0.000000 0.000000 -0.101298 0.000000 0.000000
# 5 0.000000 0.000000 0.000000 0.000000 0.034858 0.000000
# 6 0.000000 0.000000 0.000000 0.000000 0.000000 -0.023080
#
#
# Mechanical properties :
#
#
# Convention : Reuss Voigt Hill
#
# Bulk Modulus (GPa) = 51.03110 67.94167 59.48638
# Shear Modulus (GPa) = 319.67194 4.27504 161.97349
#
# Velocity S-wave (km/s) = 13.24996 1.53226 9.43158
# Velocity P-wave (km/s) = 16.18974 6.35952 12.29942
#
# Compressibility (1/GPa) = 0.01959590
#
# Stress axis : x y z
#
# Youngs Moduli (GPa) = 40.53220 55.62272 60.74484
#
# Poissons Ratio (x) = 0.51508 0.01012
# Poissons Ratio (y) = 0.37534 0.62758
# Poissons Ratio (z) = 0.00675 0.57466
#
# Static dielectric constant tensor:
#      x y z
#    x 1.622210 0.000000 0.000000 
#    y 0.000000 1.664850 0.000000 
#    z 0.000000 0.000000 1.480590 
# 
# From -- ./inp_files/19673.got.cif
#   From: 2010.05.17/outbox.cif.g08.bks.cpg/sg60_10_cif.got.tgz:19673.got - 2010.06.03 14:59:27.
