data_PCOD9458609
_publ_section_title
;
Structure prediction by ZEFSAII (Michael W. Deem and Ramdas Pophale) SiO2 
 PCOD9458609
Probable space group: P B C N
;
_chemical_formula_sum "Si O2"
_cell_formula_units_Z 24
_cell_length_a 4.720312
_cell_length_b 22.397483
_cell_length_c 8.638472
_cell_angle_alpha 90.000000
_cell_angle_beta 90.000000
_cell_angle_gamma 90.000000
_cell_volume 913.286106
_symmetry_space_group_name_H-M "P B C N"
_symmetry_group_IT_number 60
_symmetry_cell_setting 'orthorhombic'
loop_
_space_group_symop_operation_xyz
x,y,z
1/2-x,1/2-y,1/2+z
1/2+x,1/2-y,-z
-x,y,1/2-z
-x,-y,-z
1/2+x,1/2+y,1/2-z
1/2-x,1/2+y,z
x,-y,1/2+z
loop_
_atom_site_type_symbol
_atom_site_label
_atom_site_fract_x
_atom_site_fract_y
_atom_site_fract_z
Si Si1 0.500000 0.702029 0.250000
Si Si2 0.404018 0.378778 0.003417
Si Si3 0.000000 0.974665 0.250000
Si Si4 0.000000 0.214870 0.750000
Si Si5 0.500000 0.063677 0.250000
O O1 0.601983 0.657613 0.384661
O O2 0.244819 0.741975 0.313296
O O3 0.544764 0.431205 0.103491
O O4 0.338515 0.328303 0.130566
O O5 0.149844 0.402392 0.894795
O O6 0.747173 0.017907 0.297812
#
# Coordination Sequence:
#
# PCOD9458609 Si02
#       5
#     4   8   4   4   4
#     4  12  25  45  71 104 141 189 247 312 380 454
#     4  11  26  46  73 106 145 196 251 313 384 457
#     4  11  27  46  71 106 149 196 253 317 386 458
#     4  11  27  46  71 104 145 190 247 313 382 454
#     4  12  25  45  73 108 147 197 255 318 382 460
#
# _framework density 26.278728000000001
#
# number of rings (size 3 to 8) (size 9 to 14) (size 15 to 20)
#    0.000    0.667    0.000    6.000    0.000   16.000 
#    0.000    0.000    0.000    0.000    0.000    0.000 
#    0.000    0.000    0.000    0.000    0.000    0.000 
#
# Total GULP energy -134258.450804 kJ/mol
# GULP energy per Si atom -5594.102117 kJ/mol
# Density = 2.621892 g / cm^3
# Si number density = 26.278728 Si / 1000 Ang^3
#
#
#
# Elastic Constant Matrix: (Units=GPa)
#
#
# Indices 1 2 3 4 5 6 
#
# 1 84.4298 51.8908 29.5139 0.0000 0.0000 0.0000
# 2 51.8908 172.5063 97.0221 0.0000 0.0000 0.0000
# 3 29.5139 97.0221 174.6909 0.0000 0.0000 0.0000
# 4 0.0000 0.0000 0.0000 22.7232 0.0000 0.0000
# 5 0.0000 0.0000 0.0000 0.0000 37.3629 0.0000
# 6 0.0000 0.0000 0.0000 0.0000 0.0000 363.1828
#
#
#
# Elastic Compliance Matrix: (Units=1/GPa)
#
#
# Indices 1 2 3 4 5 6 
#
# 1 0.014531 -0.004349 -0.000040 0.000000 0.000000 0.000000
# 2 -0.004349 0.009732 -0.004670 0.000000 0.000000 0.000000
# 3 -0.000040 -0.004670 0.008325 0.000000 0.000000 0.000000
# 4 0.000000 0.000000 0.000000 0.044008 0.000000 0.000000
# 5 0.000000 0.000000 0.000000 0.000000 0.026765 0.000000
# 6 0.000000 0.000000 0.000000 0.000000 0.000000 0.002753
#
#
# Mechanical properties :
#
#
# Convention : Reuss Voigt Hill
#
# Bulk Modulus (GPa) = 69.10771 87.60897 78.35834
# Shear Modulus (GPa) = 38.74364 101.53378 70.13871
#
# Velocity S-wave (km/s) = 3.84387 6.22263 5.17187
# Velocity P-wave (km/s) = 6.78642 9.22165 8.09612
#
# Compressibility (1/GPa) = 0.01447016
#
# Stress axis : x y z
#
# Youngs Moduli (GPa) = 68.81985 102.75824 120.12150
#
# Poissons Ratio (x) = 0.44685 0.00478
# Poissons Ratio (y) = 0.29926 0.56099
# Poissons Ratio (z) = 0.00274 0.47990
#
# Static dielectric constant tensor:
#      x y z
#    x 1.984420 0.000000 0.000000 
#    y 0.000000 2.040620 0.000000 
#    z 0.000000 0.000000 2.102970 
# 
# From -- ./inp_files/2921.got.cif
#   From: 2010.05.17/outbox.cif.g08.bks.cpg/sg60_2_cif.got.tgz:2921.got - 2010.06.03 14:59:27.
