data_PCOD9458436
_publ_section_title
;
Structure prediction by ZEFSAII (Michael W. Deem and Ramdas Pophale) SiO2 
 PCOD9458436
Probable space group: P B C N
;
_chemical_formula_sum "Si O2"
_cell_formula_units_Z 32
_cell_length_a 7.338629
_cell_length_b 14.647875
_cell_length_c 10.516954
_cell_angle_alpha 90.000000
_cell_angle_beta 90.000000
_cell_angle_gamma 90.000000
_cell_volume 1130.523338
_symmetry_space_group_name_H-M "P B C N"
_symmetry_group_IT_number 60
_symmetry_cell_setting 'orthorhombic'
loop_
_space_group_symop_operation_xyz
x,y,z
1/2-x,1/2-y,1/2+z
1/2+x,1/2-y,-z
-x,y,1/2-z
-x,-y,-z
1/2+x,1/2+y,1/2-z
1/2-x,1/2+y,z
x,-y,1/2+z
loop_
_atom_site_type_symbol
_atom_site_label
_atom_site_fract_x
_atom_site_fract_y
_atom_site_fract_z
Si Si1 0.176695 0.442130 0.164134
Si Si2 0.264007 0.407747 0.908478
Si Si3 0.705504 0.771904 0.196024
Si Si4 0.832776 0.095990 0.500530
O O1 0.272596 0.536257 0.122542
O O2 0.000000 0.459252 0.250000
O O3 0.281708 0.352282 0.214465
O O4 0.116975 0.410036 0.021266
O O5 0.215776 0.329294 0.810218
O O6 0.459568 0.378889 0.968855
O O7 0.308160 0.515642 0.890342
O O8 0.500000 0.763292 0.250000
O O9 0.234369 0.684284 0.943989
#
# Coordination Sequence:
#
# PCOD9458436 Si02
#       4
#     8   8   8   8
#     4   9  21  42  70 105 137 186 238 299 364 423
#     4   9  22  46  71 100 144 191 241 302 352 452
#     4  11  24  39  71 102 143 188 244 292 368 422
#     4   9  22  46  68  97 146 189 245 298 357 446
#
# _framework density 28.305474
#
# number of rings (size 3 to 8) (size 9 to 14) (size 15 to 20)
#    1.500    1.000    0.000    0.000    7.000    7.000 
#    0.000    2.500    0.000    0.000    0.000    0.000 
#    0.000    0.000    0.000    0.000    0.000    0.000 
#
# Total GULP energy -178300.793902 kJ/mol
# GULP energy per Si atom -5571.899809 kJ/mol
# Density = 2.824105 g / cm^3
# Si number density = 28.305474 Si / 1000 Ang^3
#
#
#
# Elastic Constant Matrix: (Units=GPa)
#
#
# Indices 1 2 3 4 5 6 
#
# 1 105.2739 12.7555 24.7399 0.0000 0.0000 0.0000
# 2 12.7555 208.3447 87.0149 0.0000 0.0000 0.0000
# 3 24.7399 87.0149 73.8079 0.0000 0.0000 0.0000
# 4 0.0000 0.0000 0.0000 63.9642 0.0000 0.0000
# 5 0.0000 0.0000 0.0000 0.0000 54.0131 0.0000
# 6 0.0000 0.0000 0.0000 0.0000 0.0000 16.2460
#
#
#
# Elastic Compliance Matrix: (Units=1/GPa)
#
#
# Indices 1 2 3 4 5 6 
#
# 1 0.010589 0.001643 -0.005487 0.000000 0.000000 0.000000
# 2 0.001643 0.009710 -0.011999 0.000000 0.000000 0.000000
# 3 -0.005487 -0.011999 0.029534 0.000000 0.000000 0.000000
# 4 0.000000 0.000000 0.000000 0.015634 0.000000 0.000000
# 5 0.000000 0.000000 0.000000 0.000000 0.018514 0.000000
# 6 0.000000 0.000000 0.000000 0.000000 0.000000 0.061554
#
#
# Mechanical properties :
#
#
# Convention : Reuss Voigt Hill
#
# Bulk Modulus (GPa) = 55.10006 70.71634 62.90820
# Shear Modulus (GPa) = 27.28233 44.37241 35.82737
#
# Velocity S-wave (km/s) = 3.10797 3.96362 3.56158
# Velocity P-wave (km/s) = 5.69102 6.78119 6.25989
#
# Compressibility (1/GPa) = 0.01814880
#
# Stress axis : x y z
#
# Youngs Moduli (GPa) = 94.43464 102.98241 33.85981
#
# Poissons Ratio (x) = -0.16922 0.18578
# Poissons Ratio (y) = -0.15518 0.40627
# Poissons Ratio (z) = 0.51813 1.23566
#
# Static dielectric constant tensor:
#      x y z
#    x 2.209260 0.000000 0.000000 
#    y 0.000000 2.122790 0.000000 
#    z 0.000000 0.000000 2.554440 
# 
# From -- ./inp_files/9684.got.cif
#   From: 2010.05.17/outbox.cif.g08.bks.cpg/sg60_5_cif.got.tgz:9684.got - 2010.06.03 14:59:27.
