data_PCOD9458718
_publ_section_title
;
Structure prediction by ZEFSAII (Michael W. Deem and Ramdas Pophale) SiO2 
 PCOD9458718
Probable space group: P B C N
;
_chemical_formula_sum "Si O2"
_cell_formula_units_Z 20
_cell_length_a 14.068705
_cell_length_b 7.497556
_cell_length_c 7.020893
_cell_angle_alpha 90.000000
_cell_angle_beta 90.000000
_cell_angle_gamma 90.000000
_cell_volume 740.570138
_symmetry_space_group_name_H-M "P B C N"
_symmetry_group_IT_number 60
_symmetry_cell_setting 'orthorhombic'
loop_
_space_group_symop_operation_xyz
x,y,z
1/2-x,1/2-y,1/2+z
1/2+x,1/2-y,-z
-x,y,1/2-z
-x,-y,-z
1/2+x,1/2+y,1/2-z
1/2-x,1/2+y,z
x,-y,1/2+z
loop_
_atom_site_type_symbol
_atom_site_label
_atom_site_fract_x
_atom_site_fract_y
_atom_site_fract_z
Si Si1 0.000000 0.681772 0.250000
Si Si2 0.866253 0.151811 0.068464
Si Si3 0.851171 0.257880 0.493066
O O1 0.943067 0.783999 0.416985
O O2 0.086740 0.605629 0.379678
O O3 0.881785 0.235787 0.275600
O O4 0.759906 0.199316 0.000398
O O5 0.866343 0.937996 0.082873
#
# Coordination Sequence:
#
# PCOD9458718 Si02
#       3
#     4   8   8
#     4  12  24  40  72  94 132 170 228 254 328 382
#     4  12  24  43  69  97 133 170 217 270 323 384
#     4  12  24  43  69  97 133 170 217 270 323 384
#
# _framework density 27.006219000000002
#
# number of rings (size 3 to 8) (size 9 to 14) (size 15 to 20)
#    0.000    0.000    8.000    2.400    0.000    0.000 
#    0.000    2.000    0.000    0.000    0.000    0.000 
#    0.000    0.000    0.000    0.000    0.000    0.000 
#
# Total GULP energy -112131.604766 kJ/mol
# GULP energy per Si atom -5606.580238 kJ/mol
# Density = 2.694475 g / cm^3
# Si number density = 27.006219 Si / 1000 Ang^3
#
#
#
# Elastic Constant Matrix: (Units=GPa)
#
#
# Indices 1 2 3 4 5 6 
#
# 1 209.4129 15.7546 72.2133 0.0000 0.0000 0.0000
# 2 15.7546 102.4491 48.8376 0.0000 0.0000 0.0000
# 3 72.2133 48.8376 224.9113 0.0000 0.0000 0.0000
# 4 0.0000 0.0000 0.0000 59.7187 0.0000 0.0000
# 5 0.0000 0.0000 0.0000 0.0000 58.8120 0.0000
# 6 0.0000 0.0000 0.0000 0.0000 0.0000 22.3784
#
#
#
# Elastic Compliance Matrix: (Units=1/GPa)
#
#
# Indices 1 2 3 4 5 6 
#
# 1 0.005370 -0.000004 -0.001723 0.000000 0.000000 0.000000
# 2 -0.000004 0.010888 -0.002363 0.000000 0.000000 0.000000
# 3 -0.001723 -0.002363 0.005513 0.000000 0.000000 0.000000
# 4 0.000000 0.000000 0.000000 0.016745 0.000000 0.000000
# 5 0.000000 0.000000 0.000000 0.000000 0.017003 0.000000
# 6 0.000000 0.000000 0.000000 0.000000 0.000000 0.044686
#
#
# Mechanical properties :
#
#
# Convention : Reuss Voigt Hill
#
# Bulk Modulus (GPa) = 73.58550 90.04268 81.81409
# Shear Modulus (GPa) = 44.28099 54.84634 49.56366
#
# Velocity S-wave (km/s) = 4.05366 4.51142 4.28865
# Velocity P-wave (km/s) = 7.01544 7.78145 7.40835
#
# Compressibility (1/GPa) = 0.01358963
#
# Stress axis : x y z
#
# Youngs Moduli (GPa) = 186.22696 91.84438 181.40481
#
# Poissons Ratio (x) = 0.00040 0.31259
# Poissons Ratio (y) = 0.00081 0.42863
# Poissons Ratio (z) = 0.32090 0.21701
#
# Static dielectric constant tensor:
#      x y z
#    x 2.078310 0.000000 0.000000 
#    y 0.000000 2.095690 0.000000 
#    z 0.000000 0.000000 2.049620 
# 
# From -- ./inp_files/4349.got.cif
#   From: 2010.05.17/outbox.cif.g08.bks.cpg/sg60_3_cif.got.tgz:4349.got - 2010.06.03 14:59:27.
