data_PCOD9458165
_publ_section_title
;
Structure prediction by ZEFSAII (Michael W. Deem and Ramdas Pophale) SiO2 
 PCOD9458165
Probable space group: P B C N
;
_chemical_formula_sum "Si O2"
_cell_formula_units_Z 64
_cell_length_a 15.645264
_cell_length_b 11.134478
_cell_length_c 17.050282
_cell_angle_alpha 90.000000
_cell_angle_beta 90.000000
_cell_angle_gamma 90.000000
_cell_volume 2970.190630
_symmetry_space_group_name_H-M "P B C N"
_symmetry_group_IT_number 60
_symmetry_cell_setting 'orthorhombic'
loop_
_space_group_symop_operation_xyz
x,y,z
1/2-x,1/2-y,1/2+z
1/2+x,1/2-y,-z
-x,y,1/2-z
-x,-y,-z
1/2+x,1/2+y,1/2-z
1/2-x,1/2+y,z
x,-y,1/2+z
loop_
_atom_site_type_symbol
_atom_site_label
_atom_site_fract_x
_atom_site_fract_y
_atom_site_fract_z
Si Si1 0.249529 0.977531 0.171627
Si Si2 0.686924 0.666174 0.955545
Si Si3 0.424620 0.019507 0.398855
Si Si4 0.814977 0.253286 0.591330
Si Si5 0.416499 0.373139 0.698597
Si Si6 0.835370 0.659109 0.702295
Si Si7 0.415808 0.424864 0.519470
Si Si8 0.391916 0.090827 0.067201
O O1 0.232153 0.850814 0.128178
O O2 0.307567 0.952112 0.245214
O O3 0.159419 0.029463 0.199286
O O4 0.305192 0.058621 0.112736
O O5 0.653122 0.532256 0.971557
O O6 0.614604 0.768061 0.952606
O O7 0.753653 0.705279 0.020576
O O8 0.365493 0.131945 0.376641
O O9 0.522050 0.058870 0.387068
O O10 0.404428 0.894864 0.356699
O O11 0.401180 0.989964 0.489393
O O12 0.749338 0.201232 0.655593
O O13 0.881558 0.161601 0.549477
O O14 0.500000 0.408316 0.750000
O O15 0.377739 0.258569 0.742889
O O16 0.430538 0.359810 0.604112
O O17 0.500000 0.500000 0.500000
#
# Coordination Sequence:
#
# PCOD9458165 Si02
#       8
#     8   8   8   8   8   8   8   8
#     4  11  24  46  70  97 141 194 235 296 381 441
#     4  11  21  43  68  98 134 189 236 295 361 445
#     4  11  25  40  68 105 141 182 236 305 356 448
#     4  12  23  43  71 107 145 188 248 305 369 448
#     4  11  28  45  72 107 148 191 248 311 376 453
#     4  12  26  43  71 101 143 191 241 301 377 444
#     4  11  26  44  75 105 143 194 246 308 371 449
#     4  11  23  43  67 103 141 183 239 292 368 443
#
# _framework density 21.547438
#
# number of rings (size 3 to 8) (size 9 to 14) (size 15 to 20)
#    0.000    0.750    2.500    5.250    5.250    1.000 
#    0.000    0.000    0.000    0.000    0.000    0.000 
#    0.000    0.000    0.000    0.000    0.000    0.000 
#
# Total GULP energy -357533.049524 kJ/mol
# GULP energy per Si atom -5586.453899 kJ/mol
# Density = 2.149840 g / cm^3
# Si number density = 21.547438 Si / 1000 Ang^3
#
#
#
# Elastic Constant Matrix: (Units=GPa)
#
#
# Indices 1 2 3 4 5 6 
#
# 1 89.4156 30.0195 46.0161 0.0000 0.0000 0.0000
# 2 30.0195 87.1936 37.8778 0.0000 0.0000 0.0000
# 3 46.0161 37.8778 74.1863 0.0000 0.0000 0.0000
# 4 0.0000 0.0000 0.0000 27.8095 0.0000 0.0000
# 5 0.0000 0.0000 0.0000 0.0000 27.5714 0.0000
# 6 0.0000 0.0000 0.0000 0.0000 0.0000 37.5729
#
#
#
# Elastic Compliance Matrix: (Units=1/GPa)
#
#
# Indices 1 2 3 4 5 6 
#
# 1 0.016599 -0.001596 -0.009481 0.000000 0.000000 0.000000
# 2 -0.001596 0.014891 -0.006613 0.000000 0.000000 0.000000
# 3 -0.009481 -0.006613 0.022737 0.000000 0.000000 0.000000
# 4 0.000000 0.000000 0.000000 0.035959 0.000000 0.000000
# 5 0.000000 0.000000 0.000000 0.000000 0.036270 0.000000
# 6 0.000000 0.000000 0.000000 0.000000 0.000000 0.026615
#
#
# Mechanical properties :
#
#
# Convention : Reuss Voigt Hill
#
# Bulk Modulus (GPa) = 53.05998 53.18025 53.12012
# Shear Modulus (GPa) = 25.67628 27.71621 26.69625
#
# Velocity S-wave (km/s) = 3.45572 3.59038 3.52369
# Velocity P-wave (km/s) = 6.37188 6.47471 6.42350
#
# Compressibility (1/GPa) = 0.01884660
#
# Stress axis : x y z
#
# Youngs Moduli (GPa) = 60.24542 67.15468 43.98152
#
# Poissons Ratio (x) = 0.10719 0.41699
# Poissons Ratio (y) = 0.09616 0.29085
# Poissons Ratio (z) = 0.57118 0.44409
#
# Static dielectric constant tensor:
#      x y z
#    x 1.812280 0.000000 0.000000 
#    y 0.000000 1.768620 0.000000 
#    z 0.000000 0.000000 1.851500 
# 
# From -- ./inp_files/20666.got.cif
#   From: 2010.05.17/outbox.cif.g08.bks.cpg/sg60_11_cif.got.tgz:20666.got - 2010.06.03 14:59:27.
