data_PCOD9458213
_publ_section_title
;
Structure prediction by ZEFSAII (Michael W. Deem and Ramdas Pophale) SiO2 
 PCOD9458213
Probable space group: P B C N
;
_chemical_formula_sum "Si O2"
_cell_formula_units_Z 64
_cell_length_a 14.139147
_cell_length_b 17.248612
_cell_length_c 12.155508
_cell_angle_alpha 90.000000
_cell_angle_beta 90.000000
_cell_angle_gamma 90.000000
_cell_volume 2964.493321
_symmetry_space_group_name_H-M "P B C N"
_symmetry_group_IT_number 60
_symmetry_cell_setting 'orthorhombic'
loop_
_space_group_symop_operation_xyz
x,y,z
1/2-x,1/2-y,1/2+z
1/2+x,1/2-y,-z
-x,y,1/2-z
-x,-y,-z
1/2+x,1/2+y,1/2-z
1/2-x,1/2+y,z
x,-y,1/2+z
loop_
_atom_site_type_symbol
_atom_site_label
_atom_site_fract_x
_atom_site_fract_y
_atom_site_fract_z
Si Si1 0.176373 0.416771 0.634929
Si Si2 0.440866 0.932646 0.148411
Si Si3 0.812364 0.848652 0.453886
Si Si4 0.476281 0.873384 0.918010
Si Si5 0.219412 0.625152 0.769148
Si Si6 0.779679 0.453606 0.634646
Si Si7 0.517725 0.303496 0.118038
Si Si8 0.286218 0.693177 0.970481
O O1 0.138176 0.504214 0.611272
O O2 0.237238 0.417263 0.745026
O O3 0.232258 0.369628 0.544732
O O4 0.073556 0.378160 0.648560
O O5 0.500000 0.966886 0.250000
O O6 0.381113 0.866995 0.209401
O O7 0.496750 0.900162 0.044403
O O8 0.792495 0.878441 0.330617
O O9 0.786980 0.914964 0.543029
O O10 0.740259 0.776512 0.476280
O O11 0.920803 0.820208 0.447676
O O12 0.387533 0.927081 0.889770
O O13 0.449900 0.785082 0.902042
O O14 0.222472 0.545410 0.839912
O O15 0.238908 0.695125 0.850024
O O16 0.500000 0.316482 0.250000
O O17 0.609582 0.340851 0.059580
#
# Coordination Sequence:
#
# PCOD9458213 Si02
#       8
#     8   8   8   8   8   8   8   8
#     4  11  23  39  67 100 143 186 230 287 363 432
#     4  11  22  39  63 107 148 182 233 294 364 426
#     4  12  26  47  73 106 138 188 246 296 360 432
#     4  12  21  39  67 105 143 188 231 288 354 442
#     4  11  24  44  69 100 144 187 235 301 355 421
#     4  11  24  44  72 102 146 188 241 292 357 430
#     4  12  25  46  70 100 140 186 242 289 357 431
#     4  12  25  43  74 101 137 190 237 296 359 428
#
# _framework density 21.588849
#
# number of rings (size 3 to 8) (size 9 to 14) (size 15 to 20)
#    0.000    0.500    5.000    4.500    3.500    0.000 
#    0.000    1.250    5.500    0.000    0.000    0.000 
#    0.000    0.000    0.000    0.000    0.000    0.000 
#
# Total GULP energy -356890.844105 kJ/mol
# GULP energy per Si atom -5576.419439 kJ/mol
# Density = 2.153971 g / cm^3
# Si number density = 21.588849 Si / 1000 Ang^3
#
#
#
# Elastic Constant Matrix: (Units=GPa)
#
#
# Indices 1 2 3 4 5 6 
#
# 1 112.9055 22.1108 23.4414 0.0000 0.0000 0.0000
# 2 22.1108 49.0461 43.9072 0.0000 0.0000 0.0000
# 3 23.4414 43.9072 97.1665 0.0000 0.0000 0.0000
# 4 0.0000 0.0000 0.0000 38.7196 0.0000 0.0000
# 5 0.0000 0.0000 0.0000 0.0000 36.6364 0.0000
# 6 0.0000 0.0000 0.0000 0.0000 0.0000 27.2777
#
#
#
# Elastic Compliance Matrix: (Units=1/GPa)
#
#
# Indices 1 2 3 4 5 6 
#
# 1 0.009736 -0.003840 -0.000614 0.000000 0.000000 0.000000
# 2 -0.003840 0.035755 -0.015230 0.000000 0.000000 0.000000
# 3 -0.000614 -0.015230 0.017322 0.000000 0.000000 0.000000
# 4 0.000000 0.000000 0.000000 0.025827 0.000000 0.000000
# 5 0.000000 0.000000 0.000000 0.000000 0.027295 0.000000
# 6 0.000000 0.000000 0.000000 0.000000 0.000000 0.036660
#
#
# Mechanical properties :
#
#
# Convention : Reuss Voigt Hill
#
# Bulk Modulus (GPa) = 42.65296 48.67076 45.66186
# Shear Modulus (GPa) = 25.02785 31.83731 28.43258
#
# Velocity S-wave (km/s) = 3.40854 3.84436 3.63299
# Velocity P-wave (km/s) = 5.94059 6.50376 6.22854
#
# Compressibility (1/GPa) = 0.02344503
#
# Stress axis : x y z
#
# Youngs Moduli (GPa) = 102.70772 27.96850 57.73056
#
# Poissons Ratio (x) = 0.10740 0.03543
# Poissons Ratio (y) = 0.39438 0.87925
# Poissons Ratio (z) = 0.06304 0.42597
#
# Static dielectric constant tensor:
#      x y z
#    x 1.862750 0.000000 0.000000 
#    y 0.000000 1.862210 0.000000 
#    z 0.000000 0.000000 1.844320 
# 
# From -- ./inp_files/12149.got.cif
#   From: 2010.05.17/outbox.cif.g08.bks.cpg/sg60_7_cif.got.tgz:12149.got - 2010.06.03 14:59:27.
