data_PCOD9458409
_publ_section_title
;
Structure prediction by ZEFSAII (Michael W. Deem and Ramdas Pophale) SiO2 
 PCOD9458409
Probable space group: P B C N
;
_chemical_formula_sum "Si O2"
_cell_formula_units_Z 32
_cell_length_a 12.339308
_cell_length_b 12.781523
_cell_length_c 6.354340
_cell_angle_alpha 90.000000
_cell_angle_beta 90.000000
_cell_angle_gamma 90.000000
_cell_volume 1002.175680
_symmetry_space_group_name_H-M "P B C N"
_symmetry_group_IT_number 60
_symmetry_cell_setting 'orthorhombic'
loop_
_space_group_symop_operation_xyz
x,y,z
1/2-x,1/2-y,1/2+z
1/2+x,1/2-y,-z
-x,y,1/2-z
-x,-y,-z
1/2+x,1/2+y,1/2-z
1/2-x,1/2+y,z
x,-y,1/2+z
loop_
_atom_site_type_symbol
_atom_site_label
_atom_site_fract_x
_atom_site_fract_y
_atom_site_fract_z
Si Si1 0.600708 0.304761 0.390982
Si Si2 0.199147 0.024506 0.016189
Si Si3 0.154454 0.753048 0.652961
Si Si4 0.375439 0.981477 0.231844
O O1 0.500000 0.272734 0.250000
O O2 0.614235 0.428639 0.436324
O O3 0.714685 0.255175 0.311148
O O4 0.593331 0.265445 0.628162
O O5 0.143116 0.139069 0.021234
O O6 0.346628 0.048678 0.997507
O O7 0.239110 0.986188 0.771732
O O8 0.131528 0.631786 0.604155
O O9 0.500000 0.012313 0.250000
#
# Coordination Sequence:
#
# PCOD9458409 Si02
#       4
#     8   8   8   8
#     4  11  26  46  76 108 147 202 246 306 382 437
#     4  11  23  46  70 104 155 188 247 314 361 450
#     4  11  24  47  69 108 154 190 252 313 357 450
#     4  11  24  43  72 108 143 199 245 310 373 431
#
# _framework density 31.930530999999998
#
# number of rings (size 3 to 8) (size 9 to 14) (size 15 to 20)
#    0.000    1.000    5.000    0.750    0.000    7.000 
#    0.000    0.000    0.000    0.000    0.000    0.000 
#    0.000    0.000    0.000    0.000    0.000    0.000 
#
# Total GULP energy -178849.508934 kJ/mol
# GULP energy per Si atom -5589.047154 kJ/mol
# Density = 3.185786 g / cm^3
# Si number density = 31.930531 Si / 1000 Ang^3
#
#
#
# Elastic Constant Matrix: (Units=GPa)
#
#
# Indices 1 2 3 4 5 6 
#
# 1 169.2029 20.1229 80.7694 0.0000 0.0000 0.0000
# 2 20.1229 256.5148 38.2791 0.0000 0.0000 0.0000
# 3 80.7694 38.2791 192.1667 0.0000 0.0000 0.0000
# 4 0.0000 0.0000 0.0000 80.1101 0.0000 0.0000
# 5 0.0000 0.0000 0.0000 0.0000 115.6031 0.0000
# 6 0.0000 0.0000 0.0000 0.0000 0.0000 31.1939
#
#
#
# Elastic Compliance Matrix: (Units=1/GPa)
#
#
# Indices 1 2 3 4 5 6 
#
# 1 0.007397 -0.000120 -0.003085 0.000000 0.000000 0.000000
# 2 -0.000120 0.004020 -0.000750 0.000000 0.000000 0.000000
# 3 -0.003085 -0.000750 0.006650 0.000000 0.000000 0.000000
# 4 0.000000 0.000000 0.000000 0.012483 0.000000 0.000000
# 5 0.000000 0.000000 0.000000 0.000000 0.008650 0.000000
# 6 0.000000 0.000000 0.000000 0.000000 0.000000 0.032058
#
#
# Mechanical properties :
#
#
# Convention : Reuss Voigt Hill
#
# Bulk Modulus (GPa) = 98.46352 99.58081 99.02216
# Shear Modulus (GPa) = 60.56671 77.29561 68.93116
#
# Velocity S-wave (km/s) = 4.35998 4.92544 4.65131
# Velocity P-wave (km/s) = 7.49998 7.97503 7.74115
#
# Compressibility (1/GPa) = 0.01015605
#
# Stress axis : x y z
#
# Youngs Moduli (GPa) = 135.18947 248.76933 150.37599
#
# Poissons Ratio (x) = 0.02982 0.46393
# Poissons Ratio (y) = 0.01621 0.11283
# Poissons Ratio (z) = 0.41708 0.18666
#
# Static dielectric constant tensor:
#      x y z
#    x 2.470580 0.000000 0.000000 
#    y 0.000000 2.212690 0.000000 
#    z 0.000000 0.000000 2.680280 
# 
# From -- ./inp_files/4533.got.cif
#   From: 2010.05.17/outbox.cif.g08.bks.cpg/sg60_3_cif.got.tgz:4533.got - 2010.06.03 14:59:27.
