data_PCOD9458056
_publ_section_title
;
Structure prediction by ZEFSAII (Michael W. Deem and Ramdas Pophale) SiO2 
 PCOD9458056
Probable space group: P B C N
;
_chemical_formula_sum "Si O2"
_cell_formula_units_Z 56
_cell_length_a 27.414436
_cell_length_b 16.226902
_cell_length_c 5.282305
_cell_angle_alpha 90.000000
_cell_angle_beta 90.000000
_cell_angle_gamma 90.000000
_cell_volume 2349.840597
_symmetry_space_group_name_H-M "P B C N"
_symmetry_group_IT_number 60
_symmetry_cell_setting 'orthorhombic'
loop_
_space_group_symop_operation_xyz
x,y,z
1/2-x,1/2-y,1/2+z
1/2+x,1/2-y,-z
-x,y,1/2-z
-x,-y,-z
1/2+x,1/2+y,1/2-z
1/2-x,1/2+y,z
x,-y,1/2+z
loop_
_atom_site_type_symbol
_atom_site_label
_atom_site_fract_x
_atom_site_fract_y
_atom_site_fract_z
Si Si1 0.823521 0.947721 0.609354
Si Si2 0.390657 0.298489 0.730130
Si Si3 0.264519 0.879332 0.143113
Si Si4 0.342353 0.150977 0.981116
Si Si5 0.000000 0.666178 0.250000
Si Si6 0.000000 0.777242 0.750000
Si Si7 0.810548 0.772611 0.141997
Si Si8 0.407052 0.948677 0.823888
O O1 0.856782 0.134515 0.126483
O O2 0.834442 0.998618 0.861662
O O3 0.765485 0.925578 0.575273
O O4 0.383882 0.205040 0.840851
O O5 0.447378 0.322020 0.732944
O O6 0.364882 0.291777 0.455321
O O7 0.310430 0.909893 0.307045
O O8 0.220830 0.854683 0.334108
O O9 0.286751 0.792830 0.047204
O O10 0.309869 0.224234 0.094770
O O11 0.361531 0.104787 0.229098
O O12 0.997458 0.721976 0.498506
O O13 0.953577 0.607771 0.223814
O O14 0.408127 0.020629 0.611279
#
# Coordination Sequence:
#
# PCOD9458056 Si02
#       8
#     8   8   8   8   4   4   8   8
#     4  12  28  46  70 102 150 195 233 294 375 441
#     4  11  25  46  72 108 139 181 248 308 357 428
#     4  11  22  39  69 102 137 188 242 292 353 429
#     4  11  24  41  72 100 144 188 246 299 346 417
#     4  12  24  47  74 105 138 190 240 290 362 429
#     4  12  26  45  84 111 128 178 254 314 350 429
#     4  11  20  40  72 103 137 184 235 309 352 407
#     4  12  27  45  65 101 151 193 229 289 357 428
#
# _framework density 23.831403000000002
#
# number of rings (size 3 to 8) (size 9 to 14) (size 15 to 20)
#    0.000    0.571    4.286    3.857    6.000    1.143 
#    0.000    0.714    0.000    0.000    0.000    0.000 
#    0.000    0.000    0.000    0.000    0.000    0.000 
#
# Total GULP energy -313128.933423 kJ/mol
# GULP energy per Si atom -5591.588097 kJ/mol
# Density = 2.377716 g / cm^3
# Si number density = 23.831403 Si / 1000 Ang^3
#
#
#
# Elastic Constant Matrix: (Units=GPa)
#
#
# Indices 1 2 3 4 5 6 
#
# 1 141.2909 30.0538 25.1790 0.0000 0.0000 0.0000
# 2 30.0538 79.6384 30.7179 0.0000 0.0000 0.0000
# 3 25.1790 30.7179 104.4658 0.0000 0.0000 0.0000
# 4 0.0000 0.0000 0.0000 42.5029 0.0000 0.0000
# 5 0.0000 0.0000 0.0000 0.0000 33.9407 0.0000
# 6 0.0000 0.0000 0.0000 0.0000 0.0000 39.7487
#
#
#
# Elastic Compliance Matrix: (Units=1/GPa)
#
#
# Indices 1 2 3 4 5 6 
#
# 1 0.007815 -0.002507 -0.001146 0.000000 0.000000 0.000000
# 2 -0.002507 0.014967 -0.003797 0.000000 0.000000 0.000000
# 3 -0.001146 -0.003797 0.010965 0.000000 0.000000 0.000000
# 4 0.000000 0.000000 0.000000 0.023528 0.000000 0.000000
# 5 0.000000 0.000000 0.000000 0.000000 0.029463 0.000000
# 6 0.000000 0.000000 0.000000 0.000000 0.000000 0.025158
#
#
# Mechanical properties :
#
#
# Convention : Reuss Voigt Hill
#
# Bulk Modulus (GPa) = 53.05862 55.25517 54.15690
# Shear Modulus (GPa) = 37.57139 39.20142 38.38640
#
# Velocity S-wave (km/s) = 3.97489 4.06020 4.01777
# Velocity P-wave (km/s) = 6.58626 6.72432 6.65565
#
# Compressibility (1/GPa) = 0.01884708
#
# Stress axis : x y z
#
# Youngs Moduli (GPa) = 127.95607 66.81198 91.19683
#
# Poissons Ratio (x) = 0.16750 0.10455
# Poissons Ratio (y) = 0.32080 0.34626
# Poissons Ratio (z) = 0.14670 0.25368
#
# Static dielectric constant tensor:
#      x y z
#    x 1.942920 0.000000 0.000000 
#    y 0.000000 1.959410 0.000000 
#    z 0.000000 0.000000 1.955190 
# 
# From -- ./inp_files/2710.got.cif
#   From: 2010.05.17/outbox.cif.g08.bks.cpg/sg60_2_cif.got.tgz:2710.got - 2010.06.03 14:59:27.
