data_PCOD9458214
_publ_section_title
;
Structure prediction by ZEFSAII (Michael W. Deem and Ramdas Pophale) SiO2 
 PCOD9458214
Probable space group: P B C N
;
_chemical_formula_sum "Si O2"
_cell_formula_units_Z 48
_cell_length_a 31.808132
_cell_length_b 8.365419
_cell_length_c 7.779467
_cell_angle_alpha 90.000000
_cell_angle_beta 90.000000
_cell_angle_gamma 90.000000
_cell_volume 2070.025552
_symmetry_space_group_name_H-M "P B C N"
_symmetry_group_IT_number 60
_symmetry_cell_setting 'orthorhombic'
loop_
_space_group_symop_operation_xyz
x,y,z
1/2-x,1/2-y,1/2+z
1/2+x,1/2-y,-z
-x,y,1/2-z
-x,-y,-z
1/2+x,1/2+y,1/2-z
1/2-x,1/2+y,z
x,-y,1/2+z
loop_
_atom_site_type_symbol
_atom_site_label
_atom_site_fract_x
_atom_site_fract_y
_atom_site_fract_z
Si Si1 0.873780 0.925797 0.836491
Si Si2 0.210327 0.425225 0.911380
Si Si3 0.127453 0.253666 0.799914
Si Si4 0.955436 0.591399 0.340705
Si Si5 0.291088 0.255515 0.775900
Si Si6 0.545198 0.745838 0.214818
O O1 0.833761 0.854403 0.737445
O O2 0.916916 0.874325 0.744909
O O3 0.868612 0.115635 0.842161
O O4 0.874968 0.843827 0.022169
O O5 0.168018 0.365242 0.817436
O O6 0.251994 0.370101 0.811444
O O7 0.208419 0.616126 0.917573
O O8 0.212495 0.339864 0.095905
O O9 0.085140 0.349508 0.763003
O O10 0.953981 0.674040 0.526522
O O11 0.952226 0.398505 0.343463
O O12 0.000000 0.628599 0.250000
O O13 0.500000 0.667408 0.250000
#
# Coordination Sequence:
#
# PCOD9458214 Si02
#       6
#     8   8   8   8   8   8
#     4  11  24  41  61  89 122 159 201 248 299 355
#     4  11  24  41  64  91 123 159 200 247 298 355
#     4  11  24  41  61  89 122 159 201 248 299 355
#     4  11  22  39  63  90 121 158 200 248 299 357
#     4  11  24  41  64  91 123 159 200 247 298 355
#     4  11  22  39  63  90 121 158 200 248 299 357
#
# _framework density 23.188120000000001
#
# number of rings (size 3 to 8) (size 9 to 14) (size 15 to 20)
#    0.000    1.000    0.000    8.000    0.000   11.333 
#    0.000    3.333    0.000    0.000    0.000    0.000 
#    0.000    0.000    0.000    0.000    0.000    0.000 
#
# Total GULP energy -269031.149959 kJ/mol
# GULP energy per Si atom -5604.815624 kJ/mol
# Density = 2.313534 g / cm^3
# Si number density = 23.188120 Si / 1000 Ang^3
#
#
#
# Elastic Constant Matrix: (Units=GPa)
#
#
# Indices 1 2 3 4 5 6 
#
# 1 151.3302 36.7979 17.1779 0.0000 0.0000 0.0000
# 2 36.7979 54.0877 -23.5265 0.0000 0.0000 0.0000
# 3 17.1779 -23.5265 69.4334 0.0000 0.0000 0.0000
# 4 0.0000 0.0000 0.0000 -198.7756 0.0000 0.0000
# 5 0.0000 0.0000 0.0000 0.0000 25.4125 0.0000
# 6 0.0000 0.0000 0.0000 0.0000 0.0000 41.4975
#
#
#
# Elastic Compliance Matrix: (Units=1/GPa)
#
#
# Indices 1 2 3 4 5 6 
#
# 1 0.009286 -0.008581 -0.005205 0.000000 0.000000 0.000000
# 2 -0.008581 0.029615 0.012158 0.000000 0.000000 0.000000
# 3 -0.005205 0.012158 0.019809 0.000000 0.000000 0.000000
# 4 0.000000 0.000000 0.000000 -0.005031 0.000000 0.000000
# 5 0.000000 0.000000 0.000000 0.000000 0.039351 0.000000
# 6 0.000000 0.000000 0.000000 0.000000 0.000000 0.024098
#
#
# Mechanical properties :
#
#
# Convention : Reuss Voigt Hill
#
# Bulk Modulus (GPa) = 18.03343 37.30554 27.66949
# Shear Modulus (GPa) = 36.00520 -10.07965 12.96277
#
# Velocity S-wave (km/s) = 3.94476 -2.08718 2.36694
# Velocity P-wave (km/s) = 5.34248 3.21165 4.40776
#
# Compressibility (1/GPa) = 0.05545258
#
# Stress axis : x y z
#
# Youngs Moduli (GPa) = 107.69443 33.76690 50.48108
#
# Poissons Ratio (x) = 0.28976 0.26275
# Poissons Ratio (y) = 0.92415 -0.61373
# Poissons Ratio (z) = 0.56054 -0.41052
#
# Static dielectric constant tensor:
#      x y z
#    x 1.814200 0.000000 0.000000 
#    y 0.000000 1.809960 0.000000 
#    z 0.000000 0.000000 1.926470 
# 
# From -- ./inp_files/8377.got.cif
#   From: 2010.05.17/outbox.cif.g08.bks.cpg/sg60_5_cif.got.tgz:8377.got - 2010.06.03 14:59:27.
