data_PCOD9458300
_publ_section_title
;
Structure prediction by ZEFSAII (Michael W. Deem and Ramdas Pophale) SiO2 
 PCOD9458300
Probable space group: P B C N
;
_chemical_formula_sum "Si O2"
_cell_formula_units_Z 40
_cell_length_a 15.639126
_cell_length_b 7.771139
_cell_length_c 14.581840
_cell_angle_alpha 90.000000
_cell_angle_beta 90.000000
_cell_angle_gamma 90.000000
_cell_volume 1772.186747
_symmetry_space_group_name_H-M "P B C N"
_symmetry_group_IT_number 60
_symmetry_cell_setting 'orthorhombic'
loop_
_space_group_symop_operation_xyz
x,y,z
1/2-x,1/2-y,1/2+z
1/2+x,1/2-y,-z
-x,y,1/2-z
-x,-y,-z
1/2+x,1/2+y,1/2-z
1/2-x,1/2+y,z
x,-y,1/2+z
loop_
_atom_site_type_symbol
_atom_site_label
_atom_site_fract_x
_atom_site_fract_y
_atom_site_fract_z
Si Si1 0.420869 0.939835 0.813331
Si Si2 0.230667 0.607599 0.726440
Si Si3 0.151793 0.901768 0.605380
Si Si4 0.967375 0.168125 0.146474
Si Si5 0.162209 0.870303 0.403107
O O1 0.500000 0.886200 0.750000
O O2 0.339100 0.959328 0.745824
O O3 0.442732 0.129351 0.854757
O O4 0.397821 0.796034 0.887541
O O5 0.176844 0.750474 0.674604
O O6 0.310067 0.562030 0.660852
O O7 0.263988 0.647615 0.827821
O O8 0.194837 0.882671 0.506497
O O9 0.050730 0.886072 0.588520
O O10 0.000000 0.133006 0.250000
O O11 0.889846 0.043670 0.120926
#
# Coordination Sequence:
#
# PCOD9458300 Si02
#       5
#     8   8   8   8   8
#     4  11  24  45  75 100 141 189 232 292 355 413
#     4  12  24  47  68 103 148 176 236 302 343 420
#     4  12  27  45  73 107 140 187 240 292 358 423
#     4  11  22  49  72 103 148 182 235 301 344 423
#     4  12  27  45  76 104 139 196 233 285 369 424
#
# _framework density 22.570982999999998
#
# number of rings (size 3 to 8) (size 9 to 14) (size 15 to 20)
#    0.000    0.400    8.000    1.200    2.800    0.800 
#    0.000    0.000    0.000    0.000    0.000    0.000 
#    0.000    0.000    0.000    0.000    0.000    0.000 
#
# Total GULP energy -223651.035209 kJ/mol
# GULP energy per Si atom -5591.275880 kJ/mol
# Density = 2.251961 g / cm^3
# Si number density = 22.570983 Si / 1000 Ang^3
#
#
#
# Elastic Constant Matrix: (Units=GPa)
#
#
# Indices 1 2 3 4 5 6 
#
# 1 86.1342 10.8395 25.8113 0.0000 0.0000 0.0000
# 2 10.8395 57.9621 3.3302 0.0000 0.0000 0.0000
# 3 25.8113 3.3302 125.8083 0.0000 0.0000 0.0000
# 4 0.0000 0.0000 0.0000 4.1111 0.0000 0.0000
# 5 0.0000 0.0000 0.0000 0.0000 27.4925 0.0000
# 6 0.0000 0.0000 0.0000 0.0000 0.0000 15.8679
#
#
#
# Elastic Compliance Matrix: (Units=1/GPa)
#
#
# Indices 1 2 3 4 5 6 
#
# 1 0.012649 -0.002220 -0.002536 0.000000 0.000000 0.000000
# 2 -0.002220 0.017668 -0.000012 0.000000 0.000000 0.000000
# 3 -0.002536 -0.000012 0.008469 0.000000 0.000000 0.000000
# 4 0.000000 0.000000 0.000000 0.243243 0.000000 0.000000
# 5 0.000000 0.000000 0.000000 0.000000 0.036374 0.000000
# 6 0.000000 0.000000 0.000000 0.000000 0.000000 0.063021
#
#
# Mechanical properties :
#
#
# Convention : Reuss Voigt Hill
#
# Bulk Modulus (GPa) = 34.18800 38.87409 36.53105
# Shear Modulus (GPa) = 12.47783 24.82254 18.65018
#
# Velocity S-wave (km/s) = 2.35378 3.31985 2.87764
# Velocity P-wave (km/s) = 4.75045 5.65293 5.22123
#
# Compressibility (1/GPa) = 0.02925003
#
# Stress axis : x y z
#
# Youngs Moduli (GPa) = 79.05636 56.59794 118.07347
#
# Poissons Ratio (x) = 0.12564 0.29948
# Poissons Ratio (y) = 0.17549 0.00145
# Poissons Ratio (z) = 0.20052 0.00069
#
# Static dielectric constant tensor:
#      x y z
#    x 1.898220 0.000000 0.000000 
#    y 0.000000 1.892700 0.000000 
#    z 0.000000 0.000000 1.805760 
# 
# From -- ./inp_files/16602.got.cif
#   From: 2010.05.17/outbox.cif.g08.bks.cpg/sg60_9_cif.got.tgz:16602.got - 2010.06.03 14:59:27.
