data_PCOD9458756
_publ_section_title
;
Structure prediction by ZEFSAII (Michael W. Deem and Ramdas Pophale) SiO2 
 PCOD9458756
Probable space group: P B C N
;
_chemical_formula_sum "Si O2"
_cell_formula_units_Z 32
_cell_length_a 8.661116
_cell_length_b 15.136337
_cell_length_c 11.565115
_cell_angle_alpha 90.000000
_cell_angle_beta 90.000000
_cell_angle_gamma 90.000000
_cell_volume 1516.158480
_symmetry_space_group_name_H-M "P B C N"
_symmetry_group_IT_number 60
_symmetry_cell_setting 'orthorhombic'
loop_
_space_group_symop_operation_xyz
x,y,z
1/2-x,1/2-y,1/2+z
1/2+x,1/2-y,-z
-x,y,1/2-z
-x,-y,-z
1/2+x,1/2+y,1/2-z
1/2-x,1/2+y,z
x,-y,1/2+z
loop_
_atom_site_type_symbol
_atom_site_label
_atom_site_fract_x
_atom_site_fract_y
_atom_site_fract_z
Si Si1 0.288337 0.851654 0.586483
Si Si2 0.500000 0.000000 0.500000
Si Si3 0.452016 0.674780 0.520809
Si Si4 0.500000 0.561182 0.750000
Si Si5 0.257042 0.922506 0.833133
O O1 0.402607 0.774922 0.544597
O O2 0.283713 0.858604 0.724447
O O3 0.118052 0.829931 0.539674
O O4 0.343206 0.943436 0.531255
O O5 0.415155 0.040174 0.384019
O O6 0.456585 0.621160 0.640553
O O7 0.329256 0.629504 0.435476
O O8 0.642585 0.498815 0.713492
#
# Coordination Sequence:
#
# PCOD9458756 Si02
#       5
#     8   4   8   4   8
#     4  12  27  47  75 112 151 200 256 322 385 473
#     4  12  26  44  74 108 146 194 258 308 382 466
#     4  12  27  47  75 112 152 198 255 321 391 462
#     4  12  24  48  78 106 150 206 248 324 394 460
#     4  12  25  50  77 109 152 204 253 318 390 467
#
# _framework density 21.105972000000001
#
# number of rings (size 3 to 8) (size 9 to 14) (size 15 to 20)
#    0.000    0.000    5.000    4.500    7.000    0.000 
#    0.000    2.500    0.000    0.000    0.000    0.000 
#    0.000    0.000    0.000    0.000    0.000    0.000 
#
# Total GULP energy -178277.032165 kJ/mol
# GULP energy per Si atom -5571.157255 kJ/mol
# Density = 2.105793 g / cm^3
# Si number density = 21.105972 Si / 1000 Ang^3
#
#
#
# Elastic Constant Matrix: (Units=GPa)
#
#
# Indices 1 2 3 4 5 6 
#
# 1 82.1880 7.9450 45.7040 0.0000 0.0000 0.0000
# 2 7.9450 27.6239 44.6579 0.0000 0.0000 0.0000
# 3 45.7040 44.6579 180.3818 0.0000 0.0000 0.0000
# 4 0.0000 0.0000 0.0000 38.6348 0.0000 0.0000
# 5 0.0000 0.0000 0.0000 0.0000 57.0460 0.0000
# 6 0.0000 0.0000 0.0000 0.0000 0.0000 34.2392
#
#
#
# Elastic Compliance Matrix: (Units=1/GPa)
#
#
# Indices 1 2 3 4 5 6 
#
# 1 0.014302 0.002909 -0.004344 0.000000 0.000000 0.000000
# 2 0.002909 0.060950 -0.015827 0.000000 0.000000 0.000000
# 3 -0.004344 -0.015827 0.010563 0.000000 0.000000 0.000000
# 4 0.000000 0.000000 0.000000 0.025883 0.000000 0.000000
# 5 0.000000 0.000000 0.000000 0.000000 0.017530 0.000000
# 6 0.000000 0.000000 0.000000 0.000000 0.000000 0.029206
#
#
# Mechanical properties :
#
#
# Convention : Reuss Voigt Hill
#
# Bulk Modulus (GPa) = 19.49647 54.08973 36.79310
# Shear Modulus (GPa) = 23.80342 38.77644 31.28993
#
# Velocity S-wave (km/s) = 3.36192 4.29094 3.85452
# Velocity P-wave (km/s) = 4.93229 7.08751 6.10575
#
# Compressibility (1/GPa) = 0.05129134
#
# Stress axis : x y z
#
# Youngs Moduli (GPa) = 69.92224 16.40689 94.67266
#
# Poissons Ratio (x) = -0.04773 0.41125
# Poissons Ratio (y) = -0.20341 1.49836
# Poissons Ratio (z) = 0.30373 0.25967
#
# Static dielectric constant tensor:
#      x y z
#    x 1.741970 0.000000 0.000000 
#    y 0.000000 1.766540 0.000000 
#    z 0.000000 0.000000 1.722230 
# 
# From -- ./inp_files/9556.got.cif
#   From: 2010.05.17/outbox.cif.g08.bks.cpg/sg60_5_cif.got.tgz:9556.got - 2010.06.03 14:59:27.
