data_PCOD9458251
_publ_section_title
;
Structure prediction by ZEFSAII (Michael W. Deem and Ramdas Pophale) SiO2 
 PCOD9458251
Probable space group: P B C N
;
_chemical_formula_sum "Si O2"
_cell_formula_units_Z 40
_cell_length_a 8.729107
_cell_length_b 14.138994
_cell_length_c 13.870035
_cell_angle_alpha 90.000000
_cell_angle_beta 90.000000
_cell_angle_gamma 90.000000
_cell_volume 1711.850698
_symmetry_space_group_name_H-M "P B C N"
_symmetry_group_IT_number 60
_symmetry_cell_setting 'orthorhombic'
loop_
_space_group_symop_operation_xyz
x,y,z
1/2-x,1/2-y,1/2+z
1/2+x,1/2-y,-z
-x,y,1/2-z
-x,-y,-z
1/2+x,1/2+y,1/2-z
1/2-x,1/2+y,z
x,-y,1/2+z
loop_
_atom_site_type_symbol
_atom_site_label
_atom_site_fract_x
_atom_site_fract_y
_atom_site_fract_z
Si Si1 0.738488 0.083607 0.199414
Si Si2 0.332417 0.647116 0.584272
Si Si3 0.859793 0.261100 0.577867
Si Si4 0.445145 0.541066 0.148890
Si Si5 0.169131 0.635963 0.784805
O O1 0.621253 0.157860 0.158456
O O2 0.808804 0.103525 0.305932
O O3 0.675919 0.977235 0.197235
O O4 0.893190 0.091483 0.131291
O O5 0.198695 0.686397 0.517192
O O6 0.486839 0.703336 0.563421
O O7 0.376546 0.535354 0.578053
O O8 0.278510 0.658392 0.694567
O O9 0.732211 0.190417 0.622287
O O10 0.500000 0.488739 0.250000
O O11 0.000000 0.662961 0.750000
#
# Coordination Sequence:
#
# PCOD9458251 Si02
#       5
#     8   8   8   8   8
#     4   8  19  38  64  88 120 169 219 255 321 383
#     4  11  22  42  63  95 136 167 212 277 318 380
#     4  12  23  40  67  98 128 178 216 262 329 396
#     4   7  15  39  61  86 121 166 211 264 321 365
#     4  11  23  43  64  93 132 168 214 279 327 379
#
# _framework density 23.366524999999999
#
# number of rings (size 3 to 8) (size 9 to 14) (size 15 to 20)
#    1.200    0.800    2.000    1.800    2.800    2.400 
#    0.000    6.000    0.000    0.000    0.000    0.000 
#    0.000    0.000    0.000    0.000    0.000    0.000 
#
# Total GULP energy -223161.803686 kJ/mol
# GULP energy per Si atom -5579.045092 kJ/mol
# Density = 2.331334 g / cm^3
# Si number density = 23.366525 Si / 1000 Ang^3
#
#
#
# Elastic Constant Matrix: (Units=GPa)
#
#
# Indices 1 2 3 4 5 6 
#
# 1 62.6945 -0.3016 3.4598 0.0000 0.0000 0.0000
# 2 -0.3016 73.2658 10.0592 0.0000 0.0000 0.0000
# 3 3.4598 10.0592 43.0355 0.0000 0.0000 0.0000
# 4 0.0000 0.0000 0.0000 23.1116 0.0000 0.0000
# 5 0.0000 0.0000 0.0000 0.0000 33.9447 0.0000
# 6 0.0000 0.0000 0.0000 0.0000 0.0000 8.6189
#
#
#
# Elastic Compliance Matrix: (Units=1/GPa)
#
#
# Indices 1 2 3 4 5 6 
#
# 1 0.016026 0.000251 -0.001347 0.000000 0.000000 0.000000
# 2 0.000251 0.014105 -0.003317 0.000000 0.000000 0.000000
# 3 -0.001347 -0.003317 0.024120 0.000000 0.000000 0.000000
# 4 0.000000 0.000000 0.000000 0.043268 0.000000 0.000000
# 5 0.000000 0.000000 0.000000 0.000000 0.029460 0.000000
# 6 0.000000 0.000000 0.000000 0.000000 0.000000 0.116024
#
#
# Mechanical properties :
#
#
# Convention : Reuss Voigt Hill
#
# Bulk Modulus (GPa) = 22.01432 22.82562 22.41997
# Shear Modulus (GPa) = 18.72859 24.18694 21.45776
#
# Velocity S-wave (km/s) = 2.83417 3.22080 3.03365
# Velocity P-wave (km/s) = 4.48908 4.86016 4.67830
#
# Compressibility (1/GPa) = 0.04542497
#
# Stress axis : x y z
#
# Youngs Moduli (GPa) = 62.39899 70.89475 41.45890
#
# Poissons Ratio (x) = -0.01779 0.05585
# Poissons Ratio (y) = -0.01566 0.13753
# Poissons Ratio (z) = 0.08405 0.23517
#
# Static dielectric constant tensor:
#      x y z
#    x 1.957370 0.000000 0.000000 
#    y 0.000000 1.890920 0.000000 
#    z 0.000000 0.000000 1.950240 
# 
# From -- ./inp_files/14694.got.cif
#   From: 2010.05.17/outbox.cif.g08.bks.cpg/sg60_8_cif.got.tgz:14694.got - 2010.06.03 14:59:27.
