data_PCOD9458519
_publ_section_title
;
Structure prediction by ZEFSAII (Michael W. Deem and Ramdas Pophale) SiO2 
 PCOD9458519
Probable space group: P B C N
;
_chemical_formula_sum "Si O2"
_cell_formula_units_Z 40
_cell_length_a 11.222407
_cell_length_b 13.441304
_cell_length_c 12.803043
_cell_angle_alpha 90.000000
_cell_angle_beta 90.000000
_cell_angle_gamma 90.000000
_cell_volume 1931.259454
_symmetry_space_group_name_H-M "P B C N"
_symmetry_group_IT_number 60
_symmetry_cell_setting 'orthorhombic'
loop_
_space_group_symop_operation_xyz
x,y,z
1/2-x,1/2-y,1/2+z
1/2+x,1/2-y,-z
-x,y,1/2-z
-x,-y,-z
1/2+x,1/2+y,1/2-z
1/2-x,1/2+y,z
x,-y,1/2+z
loop_
_atom_site_type_symbol
_atom_site_label
_atom_site_fract_x
_atom_site_fract_y
_atom_site_fract_z
Si Si1 0.151560 0.671206 0.854087
Si Si2 0.132795 0.799178 0.218525
Si Si3 0.342681 0.886105 0.584938
Si Si4 0.000000 0.497406 0.250000
Si Si5 0.000000 0.157113 0.250000
Si Si6 0.896066 0.998491 0.912548
O O1 0.289763 0.678782 0.821726
O O2 0.088025 0.769834 0.811693
O O3 0.101806 0.575297 0.793484
O O4 0.117944 0.657477 0.974209
O O5 0.193258 0.709393 0.154704
O O6 0.000000 0.768827 0.250000
O O7 0.119570 0.895936 0.145272
O O8 0.235080 0.960615 0.555052
O O9 0.442264 0.941357 0.654516
O O10 0.935132 0.083962 0.329250
O O11 0.000000 0.000000 0.000000
#
# Coordination Sequence:
#
# PCOD9458519 Si02
#       6
#     8   8   8   4   4   8
#     4  11  25  45  69 104 139 191 238 296 371 431
#     4  12  24  45  69 103 144 181 244 298 356 446
#     4  12  25  45  72 103 141 191 237 302 364 433
#     4  11  24  49  70 100 146 181 246 301 354 438
#     4  11  24  47  68  98 150 177 234 301 354 432
#     4  12  25  44  71 104 139 191 238 296 367 433
#
# _framework density 20.711872
#
# number of rings (size 3 to 8) (size 9 to 14) (size 15 to 20)
#    0.000    0.400    6.000    3.000    0.000    0.000 
#    3.600    0.000    0.000    0.000    0.000    0.000 
#    0.000    0.000    0.000    0.000    0.000    0.000 
#
# Total GULP energy -223511.848989 kJ/mol
# GULP energy per Si atom -5587.796225 kJ/mol
# Density = 2.066473 g / cm^3
# Si number density = 20.711872 Si / 1000 Ang^3
#
#
#
# Elastic Constant Matrix: (Units=GPa)
#
#
# Indices 1 2 3 4 5 6 
#
# 1 83.3198 8.1437 7.2785 0.0000 0.0000 0.0000
# 2 8.1437 94.3216 10.7043 0.0000 0.0000 0.0000
# 3 7.2785 10.7043 80.4463 0.0000 0.0000 0.0000
# 4 0.0000 0.0000 0.0000 70.6045 0.0000 0.0000
# 5 0.0000 0.0000 0.0000 0.0000 40.5405 0.0000
# 6 0.0000 0.0000 0.0000 0.0000 0.0000 -52.4397
#
#
#
# Elastic Compliance Matrix: (Units=1/GPa)
#
#
# Indices 1 2 3 4 5 6 
#
# 1 0.012179 -0.000941 -0.000977 0.000000 0.000000 0.000000
# 2 -0.000941 0.010837 -0.001357 0.000000 0.000000 0.000000
# 3 -0.000977 -0.001357 0.012700 0.000000 0.000000 0.000000
# 4 0.000000 0.000000 0.000000 0.014163 0.000000 0.000000
# 5 0.000000 0.000000 0.000000 0.000000 0.024667 0.000000
# 6 0.000000 0.000000 0.000000 0.000000 0.000000 -0.019070
#
#
# Mechanical properties :
#
#
# Convention : Reuss Voigt Hill
#
# Bulk Modulus (GPa) = 34.28498 34.48231 34.38365
# Shear Modulus (GPa) = 69.68857 27.20514 48.44685
#
# Velocity S-wave (km/s) = 5.80687 3.62816 4.84166
# Velocity P-wave (km/s) = 7.84531 5.85116 6.92044
#
# Compressibility (1/GPa) = 0.02916729
#
# Stress axis : x y z
#
# Youngs Moduli (GPa) = 82.10705 92.27448 78.74280
#
# Poissons Ratio (x) = 0.08680 0.07691
# Poissons Ratio (y) = 0.07724 0.10685
# Poissons Ratio (z) = 0.08020 0.12521
#
# Static dielectric constant tensor:
#      x y z
#    x 1.781750 0.000000 0.000000 
#    y 0.000000 1.717420 0.000000 
#    z 0.000000 0.000000 1.731850 
# 
# From -- ./inp_files/10880.got.cif
#   From: 2010.05.17/outbox.cif.g08.bks.cpg/sg60_6_cif.got.tgz:10880.got - 2010.06.03 14:59:27.
