data_PCOD9458961
_publ_section_title
;
Structure prediction by ZEFSAII (Michael W. Deem and Ramdas Pophale) SiO2 
 PCOD9458961
Probable space group: P B C N
;
_chemical_formula_sum "Si O2"
_cell_formula_units_Z 64
_cell_length_a 15.000000
_cell_length_b 18.000000
_cell_length_c 12.000000
_cell_angle_alpha 90.000000
_cell_angle_beta 90.000000
_cell_angle_gamma 90.000000
_cell_volume 3240.000000
_symmetry_space_group_name_H-M "P B C N"
_symmetry_group_IT_number 60
_symmetry_cell_setting 'orthorhombic'
loop_
_space_group_symop_operation_xyz
x,y,z
1/2-x,1/2-y,1/2+z
1/2+x,1/2-y,-z
-x,y,1/2-z
-x,-y,-z
1/2+x,1/2+y,1/2-z
1/2-x,1/2+y,z
x,-y,1/2+z
loop_
_atom_site_type_symbol
_atom_site_label
_atom_site_fract_x
_atom_site_fract_y
_atom_site_fract_z
Si Si1 0.318845 0.641234 0.306345
Si Si2 0.857220 0.325790 0.549257
Si Si3 0.925750 0.064393 0.996033
Si Si4 0.266166 0.494295 0.658048
Si Si5 0.555409 0.677447 0.631770
Si Si6 0.242343 0.605461 0.853191
Si Si7 0.390545 0.004956 0.493028
Si Si8 0.395247 0.792093 0.215671
O O1 0.239802 0.675701 0.386831
O O2 0.381656 0.592373 0.388531
O O3 0.282241 0.588929 0.205326
O O4 0.374942 0.706894 0.248628
O O5 0.922619 0.264111 0.604430
O O6 0.878935 0.413496 0.561714
O O7 0.868973 0.308412 0.415014
O O8 0.983630 0.134061 0.946658
O O9 0.842216 0.028320 0.925373
O O10 0.000000 0.000000 0.000000
O O11 0.273028 0.543967 0.766682
O O12 0.166338 0.506428 0.608504
O O13 0.500000 0.672594 0.750000
O O14 0.658204 0.641721 0.617090
O O15 0.171395 0.559861 0.933649
O O16 0.176744 0.662749 0.790259
O O17 0.500000 0.000000 0.500000
O O18 0.500000 0.809167 0.250000
#
# Coordination Sequence:
#
# PCOD9458961 Si02
#       8
#     8   8   8   8   8   8   8   8
#     4  12  27  46  75 109 150 198 246 312 386 459
#     4  12  26  50  67 108 151 188 250 312 374 457
#     4  12  26  45  74 110 153 190 256 312 376 459
#     4  12  24  46  73 105 146 189 246 314 367 440
#     4  12  27  47  76 111 148 198 244 314 392 452
#     4  12  24  48  73 104 146 193 246 307 370 442
#     4  12  27  47  74 107 144 198 254 302 376 452
#     4  12  27  48  75 104 147 199 245 305 382 451
#
# _framework density 19.753086
#
# number of rings (size 3 to 8) (size 9 to 14) (size 15 to 20)
#    0.000    0.000    6.250    3.000    5.250    1.000 
#    0.000    0.000    0.000    0.000    0.000    0.000 
#    0.000    0.000    0.000    0.000    0.000    0.000 
#
# Total GULP energy -356474.066275 kJ/mol
# GULP energy per Si atom -5569.907286 kJ/mol
# Density = 1.970813 g / cm^3
# Si number density = 19.753086 Si / 1000 Ang^3
#
#
#
# Elastic Constant Matrix: (Units=GPa)
#
#
# Indices 1 2 3 4 5 6 
#
# 1 164.8316 26.6985 28.5708 0.0000 0.0000 0.0000
# 2 26.6985 101.6275 18.6387 0.0000 0.0000 0.0000
# 3 28.5708 18.6387 53.4576 0.0000 0.0000 0.0000
# 4 0.0000 0.0000 0.0000 48.1718 0.0000 0.0000
# 5 0.0000 0.0000 0.0000 0.0000 35.6411 0.0000
# 6 0.0000 0.0000 0.0000 0.0000 0.0000 55.1934
#
#
#
# Elastic Compliance Matrix: (Units=1/GPa)
#
#
# Indices 1 2 3 4 5 6 
#
# 1 0.006820 -0.001200 -0.003227 0.000000 0.000000 0.000000
# 2 -0.001200 0.010723 -0.003097 0.000000 0.000000 0.000000
# 3 -0.003227 -0.003097 0.021511 0.000000 0.000000 0.000000
# 4 0.000000 0.000000 0.000000 0.020759 0.000000 0.000000
# 5 0.000000 0.000000 0.000000 0.000000 0.028057 0.000000
# 6 0.000000 0.000000 0.000000 0.000000 0.000000 0.018118
#
#
# Mechanical properties :
#
#
# Convention : Reuss Voigt Hill
#
# Bulk Modulus (GPa) = 41.65612 51.97031 46.81321
# Shear Modulus (GPa) = 38.74772 44.20185 41.47479
#
# Velocity S-wave (km/s) = 4.43380 4.73559 4.58718
# Velocity P-wave (km/s) = 6.88082 7.50121 7.19770
#
# Compressibility (1/GPa) = 0.02400608
#
# Stress axis : x y z
#
# Youngs Moduli (GPa) = 146.61704 93.25591 46.48788
#
# Poissons Ratio (x) = 0.11191 0.15001
# Poissons Ratio (y) = 0.17594 0.14399
# Poissons Ratio (z) = 0.47311 0.28885
#
# Static dielectric constant tensor:
#      x y z
#    x 1.687100 0.000000 0.000000 
#    y 0.000000 1.767070 0.000000 
#    z 0.000000 0.000000 1.749310 
# 
# From -- ./inp_files/12132.got.cif
#   From: 2010.05.17/outbox.ucp.g08.bks.cvg/sg60_7_cif.got.tgz:12132.got - 2010.06.11 16:26:41.
