data_PCOD9458611
_publ_section_title
;
Structure prediction by ZEFSAII (Michael W. Deem and Ramdas Pophale) SiO2 
 PCOD9458611
Probable space group: P B C N
;
_chemical_formula_sum "Si O2"
_cell_formula_units_Z 40
_cell_length_a 8.626984
_cell_length_b 17.210656
_cell_length_c 11.371632
_cell_angle_alpha 90.000000
_cell_angle_beta 90.000000
_cell_angle_gamma 90.000000
_cell_volume 1688.415046
_symmetry_space_group_name_H-M "P B C N"
_symmetry_group_IT_number 60
_symmetry_cell_setting 'orthorhombic'
loop_
_space_group_symop_operation_xyz
x,y,z
1/2-x,1/2-y,1/2+z
1/2+x,1/2-y,-z
-x,y,1/2-z
-x,-y,-z
1/2+x,1/2+y,1/2-z
1/2-x,1/2+y,z
x,-y,1/2+z
loop_
_atom_site_type_symbol
_atom_site_label
_atom_site_fract_x
_atom_site_fract_y
_atom_site_fract_z
Si Si1 0.583950 0.414589 0.995510
Si Si2 0.771208 0.848202 0.423358
Si Si3 0.176082 0.434891 0.299896
Si Si4 0.130786 0.614141 0.347755
Si Si5 0.343495 0.699631 0.198254
O O1 0.443272 0.356986 0.026636
O O2 0.733058 0.406857 0.081741
O O3 0.500000 0.500000 0.000000
O O4 0.634155 0.382781 0.867826
O O5 0.774159 0.901805 0.307765
O O6 0.635051 0.879403 0.510957
O O7 0.734864 0.760846 0.386780
O O8 0.182145 0.526950 0.319887
O O9 0.000000 0.418601 0.250000
O O10 0.247223 0.681956 0.313815
O O11 0.000000 0.627913 0.250000
O O12 0.500000 0.733841 0.250000
#
# Coordination Sequence:
#
# PCOD9458611 Si02
#       5
#     8   8   8   8   8
#     4  12  25  50  79 109 156 211 265 325 403 493
#     4  12  27  45  75 108 150 203 262 321 414 469
#     4  11  26  46  75 108 146 198 261 326 387 481
#     4  11  27  45  72 109 150 196 257 322 398 476
#     4  12  27  47  74 107 155 195 260 329 400 481
#
# _framework density 23.690857000000001
#
# number of rings (size 3 to 8) (size 9 to 14) (size 15 to 20)
#    0.000    0.400    4.000    2.400    8.400    1.600 
#    0.000    0.000    0.000    0.000    0.000    0.000 
#    0.000    0.000    0.000    0.000    0.000    0.000 
#
# Total GULP energy -223063.336460 kJ/mol
# GULP energy per Si atom -5576.583412 kJ/mol
# Density = 2.363694 g / cm^3
# Si number density = 23.690857 Si / 1000 Ang^3
#
#
#
# Elastic Constant Matrix: (Units=GPa)
#
#
# Indices 1 2 3 4 5 6 
#
# 1 86.9562 16.2475 14.9638 0.0000 0.0000 0.0000
# 2 16.2475 90.9131 25.5111 0.0000 0.0000 0.0000
# 3 14.9638 25.5111 97.6203 0.0000 0.0000 0.0000
# 4 0.0000 0.0000 0.0000 28.8441 0.0000 0.0000
# 5 0.0000 0.0000 0.0000 0.0000 40.0944 0.0000
# 6 0.0000 0.0000 0.0000 0.0000 0.0000 -2.1077
#
#
#
# Elastic Compliance Matrix: (Units=1/GPa)
#
#
# Indices 1 2 3 4 5 6 
#
# 1 0.012069 -0.001767 -0.001388 0.000000 0.000000 0.000000
# 2 -0.001767 0.012129 -0.002899 0.000000 0.000000 0.000000
# 3 -0.001388 -0.002899 0.011214 0.000000 0.000000 0.000000
# 4 0.000000 0.000000 0.000000 0.034669 0.000000 0.000000
# 5 0.000000 0.000000 0.000000 0.000000 0.024941 0.000000
# 6 0.000000 0.000000 0.000000 0.000000 0.000000 -0.474444
#
#
# Mechanical properties :
#
#
# Convention : Reuss Voigt Hill
#
# Bulk Modulus (GPa) = 42.91203 43.21495 43.06349
# Shear Modulus (GPa) = -13.90645 27.95062 7.02208
#
# Velocity S-wave (km/s) = -2.42543 3.43856 1.72351
# Velocity P-wave (km/s) = 3.21077 5.83487 4.70928
#
# Compressibility (1/GPa) = 0.02330349
#
# Stress axis : x y z
#
# Youngs Moduli (GPa) = 82.85586 82.44855 89.17368
#
# Poissons Ratio (x) = 0.14572 0.12379
# Poissons Ratio (y) = 0.14644 0.25849
# Poissons Ratio (z) = 0.11502 0.23899
#
# Static dielectric constant tensor:
#      x y z
#    x 1.993420 0.000000 0.000000 
#    y 0.000000 1.854130 0.000000 
#    z 0.000000 0.000000 -16.710130 
# 
# From -- ./inp_files/9749.got.cif
#   From: 2010.05.17/outbox.cif.g08.bks.cpg/sg60_5_cif.got.tgz:9749.got - 2010.06.03 14:59:27.
