data_PCOD9458644
_publ_section_title
;
Structure prediction by ZEFSAII (Michael W. Deem and Ramdas Pophale) SiO2 
 PCOD9458644
Probable space group: P B C N
;
_chemical_formula_sum "Si O2"
_cell_formula_units_Z 36
_cell_length_a 4.734397
_cell_length_b 13.783869
_cell_length_c 18.857252
_cell_angle_alpha 90.000000
_cell_angle_beta 90.000000
_cell_angle_gamma 90.000000
_cell_volume 1230.592360
_symmetry_space_group_name_H-M "P B C N"
_symmetry_group_IT_number 60
_symmetry_cell_setting 'orthorhombic'
loop_
_space_group_symop_operation_xyz
x,y,z
1/2-x,1/2-y,1/2+z
1/2+x,1/2-y,-z
-x,y,1/2-z
-x,-y,-z
1/2+x,1/2+y,1/2-z
1/2-x,1/2+y,z
x,-y,1/2+z
loop_
_atom_site_type_symbol
_atom_site_label
_atom_site_fract_x
_atom_site_fract_y
_atom_site_fract_z
Si Si1 0.077850 0.707823 0.588687
Si Si2 0.279592 0.458917 0.443011
Si Si3 0.121267 0.658059 0.380661
Si Si4 0.000000 0.892157 0.750000
Si Si5 0.173547 0.083429 0.685081
O O1 0.961726 0.619469 0.537804
O O2 0.844250 0.786826 0.569257
O O3 0.059160 0.645687 0.662939
O O4 0.338686 0.780077 0.608540
O O5 0.500000 0.500000 0.500000
O O6 0.123472 0.546407 0.402988
O O7 0.492536 0.410272 0.386694
O O8 0.286448 0.659994 0.304076
O O9 0.809207 0.969621 0.794950
O O10 0.000000 0.126137 0.750000
#
# Coordination Sequence:
#
# PCOD9458644 Si02
#       5
#     8   8   8   4   8
#     4  12  26  50  81 128 168 229 291 368 437 542
#     4  11  27  56  87 121 174 238 295 380 456 542
#     4  11  27  48  81 128 168 228 297 364 449 540
#     4   8  22  44  76 120 174 228 278 352 450 534
#     4   9  22  48  75 118 172 225 279 356 438 529
#
# _framework density 29.254203
#
# number of rings (size 3 to 8) (size 9 to 14) (size 15 to 20)
#    0.667    0.889    2.222    0.000    9.333    1.778 
#    8.000    0.000    0.000    0.000    0.000    0.000 
#    0.000    0.000    0.000    0.000    0.000    0.000 
#
# Total GULP energy -201060.136967 kJ/mol
# GULP energy per Si atom -5585.003805 kJ/mol
# Density = 2.918762 g / cm^3
# Si number density = 29.254203 Si / 1000 Ang^3
#
#
#
# Elastic Constant Matrix: (Units=GPa)
#
#
# Indices 1 2 3 4 5 6 
#
# 1 195.8139 95.4440 45.4771 0.0000 0.0000 0.0000
# 2 95.4440 235.5993 33.9488 0.0000 0.0000 0.0000
# 3 45.4771 33.9488 110.8926 0.0000 0.0000 0.0000
# 4 0.0000 0.0000 0.0000 33.3223 0.0000 0.0000
# 5 0.0000 0.0000 0.0000 0.0000 65.5002 0.0000
# 6 0.0000 0.0000 0.0000 0.0000 0.0000 59.3997
#
#
#
# Elastic Compliance Matrix: (Units=1/GPa)
#
#
# Indices 1 2 3 4 5 6 
#
# 1 0.006773 -0.002452 -0.002027 0.000000 0.000000 0.000000
# 2 -0.002452 0.005328 -0.000626 0.000000 0.000000 0.000000
# 3 -0.002027 -0.000626 0.010041 0.000000 0.000000 0.000000
# 4 0.000000 0.000000 0.000000 0.030010 0.000000 0.000000
# 5 0.000000 0.000000 0.000000 0.000000 0.015267 0.000000
# 6 0.000000 0.000000 0.000000 0.000000 0.000000 0.016835
#
#
# Mechanical properties :
#
#
# Convention : Reuss Voigt Hill
#
# Bulk Modulus (GPa) = 83.80408 99.11617 91.46012
# Shear Modulus (GPa) = 50.79290 56.14016 53.46653
#
# Velocity S-wave (km/s) = 4.17137 4.38544 4.27974
# Velocity P-wave (km/s) = 7.20482 7.71993 7.46682
#
# Compressibility (1/GPa) = 0.01193259
#
# Stress axis : x y z
#
# Youngs Moduli (GPa) = 147.65410 187.69419 99.59651
#
# Poissons Ratio (x) = 0.46015 0.20187
# Poissons Ratio (y) = 0.36199 0.06231
# Poissons Ratio (z) = 0.29928 0.11743
#
# Static dielectric constant tensor:
#      x y z
#    x 2.653610 0.000000 0.000000 
#    y 0.000000 2.238050 0.000000 
#    z 0.000000 0.000000 2.368850 
# 
# From -- ./inp_files/21479.got.cif
#   From: 2010.05.17/outbox.cif.g08.bks.cpg/sg60_11_cif.got.tgz:21479.got - 2010.06.03 14:59:27.
