data_PCOD9458456
_publ_section_title
;
Structure prediction by ZEFSAII (Michael W. Deem and Ramdas Pophale) SiO2 
 PCOD9458456
Probable space group: P B C N
;
_chemical_formula_sum "Si O2"
_cell_formula_units_Z 32
_cell_length_a 24.749943
_cell_length_b 4.829146
_cell_length_c 9.891586
_cell_angle_alpha 90.000000
_cell_angle_beta 90.000000
_cell_angle_gamma 90.000000
_cell_volume 1182.253123
_symmetry_space_group_name_H-M "P B C N"
_symmetry_group_IT_number 60
_symmetry_cell_setting 'orthorhombic'
loop_
_space_group_symop_operation_xyz
x,y,z
1/2-x,1/2-y,1/2+z
1/2+x,1/2-y,-z
-x,y,1/2-z
-x,-y,-z
1/2+x,1/2+y,1/2-z
1/2-x,1/2+y,z
x,-y,1/2+z
loop_
_atom_site_type_symbol
_atom_site_label
_atom_site_fract_x
_atom_site_fract_y
_atom_site_fract_z
Si Si1 0.370166 0.985502 0.219467
Si Si2 0.213645 0.679921 0.413569
Si Si3 0.968973 0.304739 0.608788
Si Si4 0.115725 0.990039 0.049137
O O1 0.311707 0.091022 0.268146
O O2 0.380631 0.170464 0.086740
O O3 0.417048 0.044725 0.325518
O O4 0.377333 0.662702 0.188495
O O5 0.236100 0.377633 0.449075
O O6 0.164470 0.863252 0.470226
O O7 0.940861 0.061578 0.521578
O O8 0.000000 0.225739 0.750000
O O9 0.000000 0.500000 0.500000
#
# Coordination Sequence:
#
# PCOD9458456 Si02
#       4
#     8   8   8   8
#     4  11  25  46  72 106 149 194 250 308 368 451
#     4  11  24  42  70 108 146 196 245 303 375 442
#     4  11  24  50  76 111 147 201 247 313 371 447
#     4  11  25  46  71 107 148 194 250 309 369 449
#
# _framework density 27.066960000000002
#
# number of rings (size 3 to 8) (size 9 to 14) (size 15 to 20)
#    0.000    1.000    2.500    3.000    0.000   13.000 
#    4.500    0.000    0.000    0.000    0.000    0.000 
#    0.000    0.000    0.000    0.000    0.000    0.000 
#
# Total GULP energy -178682.667098 kJ/mol
# GULP energy per Si atom -5583.833347 kJ/mol
# Density = 2.700535 g / cm^3
# Si number density = 27.066960 Si / 1000 Ang^3
#
#
#
# Elastic Constant Matrix: (Units=GPa)
#
#
# Indices 1 2 3 4 5 6 
#
# 1 111.5156 28.8261 45.0472 0.0000 0.0000 0.0000
# 2 28.8261 137.3316 14.6163 0.0000 0.0000 0.0000
# 3 45.0472 14.6163 91.1702 0.0000 0.0000 0.0000
# 4 0.0000 0.0000 0.0000 44.1830 0.0000 0.0000
# 5 0.0000 0.0000 0.0000 0.0000 47.6369 0.0000
# 6 0.0000 0.0000 0.0000 0.0000 0.0000 35.2943
#
#
#
# Elastic Compliance Matrix: (Units=1/GPa)
#
#
# Indices 1 2 3 4 5 6 
#
# 1 0.011655 -0.001865 -0.005460 0.000000 0.000000 0.000000
# 2 -0.001865 0.007707 -0.000314 0.000000 0.000000 0.000000
# 3 -0.005460 -0.000314 0.013716 0.000000 0.000000 0.000000
# 4 0.000000 0.000000 0.000000 0.022633 0.000000 0.000000
# 5 0.000000 0.000000 0.000000 0.000000 0.020992 0.000000
# 6 0.000000 0.000000 0.000000 0.000000 0.000000 0.028333
#
#
# Mechanical properties :
#
#
# Convention : Reuss Voigt Hill
#
# Bulk Modulus (GPa) = 56.17885 57.44407 56.81146
# Shear Modulus (GPa) = 39.60468 42.19134 40.89801
#
# Velocity S-wave (km/s) = 3.82934 3.95242 3.89137
# Velocity P-wave (km/s) = 6.35235 6.48828 6.42068
#
# Compressibility (1/GPa) = 0.01780029
#
# Stress axis : x y z
#
# Youngs Moduli (GPa) = 85.80016 129.75918 72.90513
#
# Poissons Ratio (x) = 0.24204 0.39804
# Poissons Ratio (y) = 0.16004 0.02288
# Poissons Ratio (z) = 0.46844 0.04073
#
# Static dielectric constant tensor:
#      x y z
#    x 2.225960 0.000000 0.000000 
#    y 0.000000 2.020580 0.000000 
#    z 0.000000 0.000000 2.209950 
# 
# From -- ./inp_files/12967.got.cif
#   From: 2010.05.17/outbox.cif.g08.bks.cpg/sg60_7_cif.got.tgz:12967.got - 2010.06.03 14:59:27.
