data_PCOD9458647
_publ_section_title
;
Structure prediction by ZEFSAII (Michael W. Deem and Ramdas Pophale) SiO2 
 PCOD9458647
Probable space group: P B C N
;
_chemical_formula_sum "Si O2"
_cell_formula_units_Z 48
_cell_length_a 7.098034
_cell_length_b 24.019716
_cell_length_c 11.266092
_cell_angle_alpha 90.000000
_cell_angle_beta 90.000000
_cell_angle_gamma 90.000000
_cell_volume 1920.787129
_symmetry_space_group_name_H-M "P B C N"
_symmetry_group_IT_number 60
_symmetry_cell_setting 'orthorhombic'
loop_
_space_group_symop_operation_xyz
x,y,z
1/2-x,1/2-y,1/2+z
1/2+x,1/2-y,-z
-x,y,1/2-z
-x,-y,-z
1/2+x,1/2+y,1/2-z
1/2-x,1/2+y,z
x,-y,1/2+z
loop_
_atom_site_type_symbol
_atom_site_label
_atom_site_fract_x
_atom_site_fract_y
_atom_site_fract_z
Si Si1 0.762682 0.828286 0.031395
Si Si2 0.110882 0.003300 0.376180
Si Si3 0.351638 0.798981 0.990254
Si Si4 0.006424 0.531089 0.874413
Si Si5 0.779203 0.129748 0.788667
Si Si6 0.085147 0.874722 0.877721
O O1 0.853050 0.767172 0.015128
O O2 0.557766 0.824804 0.972923
O O3 0.913510 0.869246 0.971057
O O4 0.710404 0.841762 0.167445
O O5 0.189603 0.066200 0.388054
O O6 0.000000 0.001319 0.250000
O O7 0.269998 0.955917 0.375054
O O8 0.000000 0.000000 0.500000
O O9 0.250518 0.823778 0.108625
O O10 0.721124 0.676973 0.111640
O O11 0.149744 0.579057 0.653084
O O12 0.000000 0.496434 0.750000
O O13 0.000000 0.500000 0.000000
O O14 0.000000 0.118777 0.750000
O O15 0.000000 0.874377 0.750000
#
# Coordination Sequence:
#
# PCOD9458647 Si02
#       6
#     8   8   8   8   8   8
#     4  12  26  47  80 120 163 214 268 335 416 501
#     4  11  27  52  81 114 160 212 275 344 418 491
#     4  12  25  47  79 120 159 211 270 330 413 499
#     4  12  28  49  80 120 159 218 278 347 418 499
#     4  12  27  51  84 119 166 216 280 344 417 501
#     4  11  27  51  76 114 163 207 268 341 408 490
#
# _framework density 24.989754000000001
#
# number of rings (size 3 to 8) (size 9 to 14) (size 15 to 20)
#    0.000    0.333    3.333    3.500    7.000    2.667 
#    6.000    0.000    0.000    0.000    0.000    0.000 
#    0.000    0.000    0.000    0.000    0.000    0.000 
#
# Total GULP energy -267844.899731 kJ/mol
# GULP energy per Si atom -5580.102078 kJ/mol
# Density = 2.493288 g / cm^3
# Si number density = 24.989754 Si / 1000 Ang^3
#
#
#
# Elastic Constant Matrix: (Units=GPa)
#
#
# Indices 1 2 3 4 5 6 
#
# 1 142.3691 37.0567 19.4438 0.0000 0.0000 0.0000
# 2 37.0567 129.4725 48.0179 0.0000 0.0000 0.0000
# 3 19.4438 48.0179 153.6398 0.0000 0.0000 0.0000
# 4 0.0000 0.0000 0.0000 32.1321 0.0000 0.0000
# 5 0.0000 0.0000 0.0000 0.0000 40.0449 0.0000
# 6 0.0000 0.0000 0.0000 0.0000 0.0000 27.3754
#
#
#
# Elastic Compliance Matrix: (Units=1/GPa)
#
#
# Indices 1 2 3 4 5 6 
#
# 1 0.007603 -0.002058 -0.000319 0.000000 0.000000 0.000000
# 2 -0.002058 0.009293 -0.002644 0.000000 0.000000 0.000000
# 3 -0.000319 -0.002644 0.007375 0.000000 0.000000 0.000000
# 4 0.000000 0.000000 0.000000 0.031122 0.000000 0.000000
# 5 0.000000 0.000000 0.000000 0.000000 0.024972 0.000000
# 6 0.000000 0.000000 0.000000 0.000000 0.000000 0.036529
#
#
# Mechanical properties :
#
#
# Convention : Reuss Voigt Hill
#
# Bulk Modulus (GPa) = 70.27382 70.50200 70.38791
# Shear Modulus (GPa) = 37.97092 41.30800 39.63946
#
# Velocity S-wave (km/s) = 3.90225 4.07012 3.98707
# Velocity P-wave (km/s) = 6.96316 7.09658 7.03018
#
# Compressibility (1/GPa) = 0.01423005
#
# Stress axis : x y z
#
# Youngs Moduli (GPa) = 131.52372 107.60535 135.58465
#
# Poissons Ratio (x) = 0.22143 0.04326
# Poissons Ratio (y) = 0.27065 0.35849
# Poissons Ratio (z) = 0.04197 0.28451
#
# Static dielectric constant tensor:
#      x y z
#    x 2.134780 0.000000 0.000000 
#    y 0.000000 2.062550 0.000000 
#    z 0.000000 0.000000 2.101490 
# 
# From -- ./inp_files/10115.got.cif
#   From: 2010.05.17/outbox.cif.g08.bks.cpg/sg60_6_cif.got.tgz:10115.got - 2010.06.03 14:59:27.
