data_PCOD9458027
_publ_section_title
;
Structure prediction by ZEFSAII (Michael W. Deem and Ramdas Pophale) SiO2 
 PCOD9458027
Probable space group: P B C N
;
_chemical_formula_sum "Si O2"
_cell_formula_units_Z 48
_cell_length_a 9.141826
_cell_length_b 17.453562
_cell_length_c 15.068205
_cell_angle_alpha 90.000000
_cell_angle_beta 90.000000
_cell_angle_gamma 90.000000
_cell_volume 2404.244018
_symmetry_space_group_name_H-M "P B C N"
_symmetry_group_IT_number 60
_symmetry_cell_setting 'orthorhombic'
loop_
_space_group_symop_operation_xyz
x,y,z
1/2-x,1/2-y,1/2+z
1/2+x,1/2-y,-z
-x,y,1/2-z
-x,-y,-z
1/2+x,1/2+y,1/2-z
1/2-x,1/2+y,z
x,-y,1/2+z
loop_
_atom_site_type_symbol
_atom_site_label
_atom_site_fract_x
_atom_site_fract_y
_atom_site_fract_z
Si Si1 0.596307 0.888544 0.537009
Si Si2 0.336547 0.203471 0.284833
Si Si3 0.189470 0.825217 0.413095
Si Si4 0.223045 0.539861 0.024123
Si Si5 0.467652 0.257616 0.967303
Si Si6 0.594112 0.376491 0.831350
O O1 0.654248 0.850555 0.627488
O O2 0.438869 0.930045 0.552738
O O3 0.560794 0.820983 0.467561
O O4 0.706501 0.951369 0.499221
O O5 0.500000 0.207193 0.250000
O O6 0.290231 0.288428 0.317153
O O7 0.229023 0.168370 0.213038
O O8 0.230138 0.911448 0.436827
O O9 0.028228 0.803825 0.447905
O O10 0.304160 0.774681 0.472017
O O11 0.338986 0.563186 0.099358
O O12 0.498961 0.313538 0.885268
O O13 0.500000 0.409175 0.750000
#
# Coordination Sequence:
#
# PCOD9458027 Si02
#       6
#     8   8   8   8   8   8
#     4   9  18  35  58  81 108 148 197 228 283 351
#     4  11  20  34  56  85 110 148 193 241 284 333
#     4   9  18  32  54  81 107 139 187 227 278 337
#     4   9  18  35  58  81 110 149 189 235 282 351
#     4   9  18  32  54  81 104 142 183 230 275 341
#     4  11  20  34  56  83 115 147 190 242 292 332
#
# _framework density 19.964694999999999
#
# number of rings (size 3 to 8) (size 9 to 14) (size 15 to 20)
#    0.000    2.333    3.333    0.000    2.333    0.000 
#    0.000    2.500    0.000    2.000    0.000    0.000 
#    0.000    0.000    0.000    0.000    0.000    0.000 
#
# Total GULP energy -267559.482716 kJ/mol
# GULP energy per Si atom -5574.155890 kJ/mol
# Density = 1.991925 g / cm^3
# Si number density = 19.964695 Si / 1000 Ang^3
#
#
#
# Elastic Constant Matrix: (Units=GPa)
#
#
# Indices 1 2 3 4 5 6 
#
# 1 57.0523 12.2371 7.0077 0.0000 0.0000 0.0000
# 2 12.2371 81.1592 32.3743 0.0000 0.0000 0.0000
# 3 7.0077 32.3743 63.8904 0.0000 0.0000 0.0000
# 4 0.0000 0.0000 0.0000 12.1076 0.0000 0.0000
# 5 0.0000 0.0000 0.0000 0.0000 25.7675 0.0000
# 6 0.0000 0.0000 0.0000 0.0000 0.0000 21.4089
#
#
#
# Elastic Compliance Matrix: (Units=1/GPa)
#
#
# Indices 1 2 3 4 5 6 
#
# 1 0.018143 -0.002434 -0.000757 0.000000 0.000000 0.000000
# 2 -0.002434 0.015769 -0.007724 0.000000 0.000000 0.000000
# 3 -0.000757 -0.007724 0.019649 0.000000 0.000000 0.000000
# 4 0.000000 0.000000 0.000000 0.082593 0.000000 0.000000
# 5 0.000000 0.000000 0.000000 0.000000 0.038809 0.000000
# 6 0.000000 0.000000 0.000000 0.000000 0.000000 0.046710
#
#
# Mechanical properties :
#
#
# Convention : Reuss Voigt Hill
#
# Bulk Modulus (GPa) = 31.51353 33.92667 32.72010
# Shear Modulus (GPa) = 19.67906 21.88899 20.78402
#
# Velocity S-wave (km/s) = 3.14298 3.31476 3.23001
# Velocity P-wave (km/s) = 5.38424 5.62854 5.50774
#
# Compressibility (1/GPa) = 0.03173240
#
# Stress axis : x y z
#
# Youngs Moduli (GPa) = 55.11853 63.41405 50.89442
#
# Poissons Ratio (x) = 0.15433 0.03852
# Poissons Ratio (y) = 0.13414 0.39309
# Poissons Ratio (z) = 0.04171 0.48979
#
# Static dielectric constant tensor:
#      x y z
#    x 1.743820 0.000000 0.000000 
#    y 0.000000 1.706660 0.000000 
#    z 0.000000 0.000000 1.721970 
# 
# From -- ./inp_files/15000.got.cif
#   From: 2010.05.17/outbox.cif.g08.bks.cpg/sg60_8_cif.got.tgz:15000.got - 2010.06.03 14:59:27.
