data_PCOD9458000
_publ_section_title
;
Structure prediction by ZEFSAII (Michael W. Deem and Ramdas Pophale) SiO2 
 PCOD9458000
Probable space group: P B C N
;
_chemical_formula_sum "Si O2"
_cell_formula_units_Z 28
_cell_length_a 7.345855
_cell_length_b 9.074028
_cell_length_c 16.653027
_cell_angle_alpha 90.000000
_cell_angle_beta 90.000000
_cell_angle_gamma 90.000000
_cell_volume 1110.032394
_symmetry_space_group_name_H-M "P B C N"
_symmetry_group_IT_number 60
_symmetry_cell_setting 'orthorhombic'
loop_
_space_group_symop_operation_xyz
x,y,z
1/2-x,1/2-y,1/2+z
1/2+x,1/2-y,-z
-x,y,1/2-z
-x,-y,-z
1/2+x,1/2+y,1/2-z
1/2-x,1/2+y,z
x,-y,1/2+z
loop_
_atom_site_type_symbol
_atom_site_label
_atom_site_fract_x
_atom_site_fract_y
_atom_site_fract_z
Si Si1 0.106190 0.664116 0.021195
Si Si2 0.500000 0.711082 0.750000
Si Si3 0.258946 0.840612 0.890488
Si Si4 0.398735 0.528113 0.612881
O O1 0.253609 0.586208 0.078176
O O2 0.906348 0.603861 0.043049
O O3 0.085466 0.835300 0.051734
O O4 0.169130 0.694634 0.930577
O O5 0.377680 0.803881 0.812005
O O6 0.365293 0.608218 0.697527
O O7 0.409138 0.447097 0.876263
#
# Coordination Sequence:
#
# PCOD9458000 Si02
#       4
#     8   4   8   8
#     4  11  25  46  79 114 145 203 256 314 381 443
#     4  10  28  44  74 112 156 202 246 318 396 438
#     4  11  24  48  74 115 150 199 257 313 378 455
#     4  11  26  48  75 115 155 193 261 313 379 462
#
# _framework density 25.224489999999999
#
# number of rings (size 3 to 8) (size 9 to 14) (size 15 to 20)
#    0.000    1.143    2.857    0.857   12.000    5.714 
#    0.000    5.714    0.000    0.000    0.000    0.000 
#    0.000    0.000    0.000    0.000    0.000    0.000 
#
# Total GULP energy -156772.646901 kJ/mol
# GULP energy per Si atom -5599.023104 kJ/mol
# Density = 2.516708 g / cm^3
# Si number density = 25.224490 Si / 1000 Ang^3
#
#
#
# Elastic Constant Matrix: (Units=GPa)
#
#
# Indices 1 2 3 4 5 6 
#
# 1 168.5241 46.7264 47.8898 0.0000 0.0000 0.0000
# 2 46.7264 67.0214 1.0841 0.0000 0.0000 0.0000
# 3 47.8898 1.0841 124.1972 0.0000 0.0000 0.0000
# 4 0.0000 0.0000 0.0000 32.1700 0.0000 0.0000
# 5 0.0000 0.0000 0.0000 0.0000 51.4471 0.0000
# 6 0.0000 0.0000 0.0000 0.0000 0.0000 60.2399
#
#
#
# Elastic Compliance Matrix: (Units=1/GPa)
#
#
# Indices 1 2 3 4 5 6 
#
# 1 0.008471 -0.005854 -0.003215 0.000000 0.000000 0.000000
# 2 -0.005854 0.018968 0.002092 0.000000 0.000000 0.000000
# 3 -0.003215 0.002092 0.009273 0.000000 0.000000 0.000000
# 4 0.000000 0.000000 0.000000 0.031085 0.000000 0.000000
# 5 0.000000 0.000000 0.000000 0.000000 0.019437 0.000000
# 6 0.000000 0.000000 0.000000 0.000000 0.000000 0.016600
#
#
# Mechanical properties :
#
#
# Convention : Reuss Voigt Hill
#
# Bulk Modulus (GPa) = 43.94199 61.23816 52.59008
# Shear Modulus (GPa) = 39.88068 46.37422 43.12745
#
# Velocity S-wave (km/s) = 3.98053 4.29238 4.13939
# Velocity P-wave (km/s) = 6.21163 6.99257 6.61364
#
# Compressibility (1/GPa) = 0.02275727
#
# Stress axis : x y z
#
# Youngs Moduli (GPa) = 118.05678 52.72103 107.83792
#
# Poissons Ratio (x) = 0.30860 0.34671
# Poissons Ratio (y) = 0.69105 -0.22555
# Poissons Ratio (z) = 0.37956 -0.11027
#
# Static dielectric constant tensor:
#      x y z
#    x 1.981120 0.000000 0.000000 
#    y 0.000000 2.208680 0.000000 
#    z 0.000000 0.000000 2.059460 
# 
# From -- ./inp_files/14256.got.cif
#   From: 2010.05.17/outbox.cif.g08.bks.cpg/sg60_8_cif.got.tgz:14256.got - 2010.06.03 14:59:27.
