data_PCOD9458047
_publ_section_title
;
Structure prediction by ZEFSAII (Michael W. Deem and Ramdas Pophale) SiO2 
 PCOD9458047
Probable space group: P B C N
;
_chemical_formula_sum "Si O2"
_cell_formula_units_Z 48
_cell_length_a 11.489732
_cell_length_b 13.924084
_cell_length_c 14.881332
_cell_angle_alpha 90.000000
_cell_angle_beta 90.000000
_cell_angle_gamma 90.000000
_cell_volume 2380.774922
_symmetry_space_group_name_H-M "P B C N"
_symmetry_group_IT_number 60
_symmetry_cell_setting 'orthorhombic'
loop_
_space_group_symop_operation_xyz
x,y,z
1/2-x,1/2-y,1/2+z
1/2+x,1/2-y,-z
-x,y,1/2-z
-x,-y,-z
1/2+x,1/2+y,1/2-z
1/2-x,1/2+y,z
x,-y,1/2+z
loop_
_atom_site_type_symbol
_atom_site_label
_atom_site_fract_x
_atom_site_fract_y
_atom_site_fract_z
Si Si1 0.785464 0.848075 0.614277
Si Si2 0.864502 0.256095 0.775931
Si Si3 0.137866 0.520212 0.848205
Si Si4 0.385938 0.958951 0.641541
Si Si5 0.781372 0.357725 0.415452
Si Si6 0.527356 0.786496 0.145805
O O1 0.705505 0.789786 0.686530
O O2 0.750076 0.959038 0.626751
O O3 0.764826 0.823843 0.510787
O O4 0.916752 0.816799 0.632833
O O5 0.858104 0.348518 0.842439
O O6 0.800549 0.172522 0.831749
O O7 0.000000 0.239392 0.750000
O O8 0.125696 0.507897 0.740480
O O9 0.121690 0.630137 0.876593
O O10 0.021133 0.468226 0.885867
O O11 0.305422 0.027428 0.582542
O O12 0.907702 0.309378 0.402964
O O13 0.500000 0.798138 0.250000
#
# Coordination Sequence:
#
# PCOD9458047 Si02
#       6
#     8   8   8   8   8   8
#     4  11  23  35  62  97 121 162 214 262 316 370
#     4  11  21  40  64  90 127 167 208 264 313 373
#     4   9  16  35  60  89 113 156 212 252 302 365
#     4   9  16  35  61  86 117 155 210 253 301 364
#     4  11  24  37  63  96 126 166 212 261 319 375
#     4  11  20  40  64  88 125 172 209 258 316 378
#
# _framework density 20.161501999999999
#
# number of rings (size 3 to 8) (size 9 to 14) (size 15 to 20)
#    0.000    1.667    8.333    0.000    2.333    4.000 
#    0.000    0.000   11.000    2.000    0.000    0.000 
#    0.000    0.000    0.000    0.000    0.000    0.000 
#
# Total GULP energy -267630.476996 kJ/mol
# GULP energy per Si atom -5575.634937 kJ/mol
# Density = 2.011561 g / cm^3
# Si number density = 20.161502 Si / 1000 Ang^3
#
#
#
# Elastic Constant Matrix: (Units=GPa)
#
#
# Indices 1 2 3 4 5 6 
#
# 1 72.5598 43.9073 9.4133 0.0000 0.0000 0.0000
# 2 43.9073 73.9908 5.7873 0.0000 0.0000 0.0000
# 3 9.4133 5.7873 58.9871 0.0000 0.0000 0.0000
# 4 0.0000 0.0000 0.0000 18.5942 0.0000 0.0000
# 5 0.0000 0.0000 0.0000 0.0000 9.7653 0.0000
# 6 0.0000 0.0000 0.0000 0.0000 0.0000 18.5412
#
#
#
# Elastic Compliance Matrix: (Units=1/GPa)
#
#
# Indices 1 2 3 4 5 6 
#
# 1 0.021789 -0.012756 -0.002226 0.000000 0.000000 0.000000
# 2 -0.012756 0.021087 -0.000033 0.000000 0.000000 0.000000
# 3 -0.002226 -0.000033 0.017311 0.000000 0.000000 0.000000
# 4 0.000000 0.000000 0.000000 0.053780 0.000000 0.000000
# 5 0.000000 0.000000 0.000000 0.000000 0.102403 0.000000
# 6 0.000000 0.000000 0.000000 0.000000 0.000000 0.053934
#
#
# Mechanical properties :
#
#
# Convention : Reuss Voigt Hill
#
# Bulk Modulus (GPa) = 33.15861 35.97262 34.56562
# Shear Modulus (GPa) = 16.10884 19.14211 17.62547
#
# Velocity S-wave (km/s) = 2.82971 3.08464 2.95992
# Velocity P-wave (km/s) = 5.21138 5.52880 5.37244
#
# Compressibility (1/GPa) = 0.03015808
#
# Stress axis : x y z
#
# Youngs Moduli (GPa) = 45.89374 47.42151 57.76569
#
# Poissons Ratio (x) = 0.60491 0.12857
# Poissons Ratio (y) = 0.58543 0.00192
# Poissons Ratio (z) = 0.10214 0.00158
#
# Static dielectric constant tensor:
#      x y z
#    x 1.709430 0.000000 0.000000 
#    y 0.000000 1.749020 0.000000 
#    z 0.000000 0.000000 1.744800 
# 
# From -- ./inp_files/16050.got.cif
#   From: 2010.05.17/outbox.cif.g08.bks.cpg/sg60_9_cif.got.tgz:16050.got - 2010.06.03 14:59:27.
