data_PCOD9458284
_publ_section_title
;
Structure prediction by ZEFSAII (Michael W. Deem and Ramdas Pophale) SiO2 
 PCOD9458284
Probable space group: P B C N
;
_chemical_formula_sum "Si O2"
_cell_formula_units_Z 40
_cell_length_a 10.982417
_cell_length_b 9.186433
_cell_length_c 13.073791
_cell_angle_alpha 90.000000
_cell_angle_beta 90.000000
_cell_angle_gamma 90.000000
_cell_volume 1319.004811
_symmetry_space_group_name_H-M "P B C N"
_symmetry_group_IT_number 60
_symmetry_cell_setting 'orthorhombic'
loop_
_space_group_symop_operation_xyz
x,y,z
1/2-x,1/2-y,1/2+z
1/2+x,1/2-y,-z
-x,y,1/2-z
-x,-y,-z
1/2+x,1/2+y,1/2-z
1/2-x,1/2+y,z
x,-y,1/2+z
loop_
_atom_site_type_symbol
_atom_site_label
_atom_site_fract_x
_atom_site_fract_y
_atom_site_fract_z
Si Si1 0.000000 0.039894 0.250000
Si Si2 0.750657 0.292724 0.750000
Si Si3 0.000000 0.583203 0.250000
Si Si4 0.638592 0.864981 0.423294
Si Si5 0.138592 0.635019 0.923294
Si Si6 0.500000 0.681459 0.932881
O O1 1.000000 0.954639 0.141503
O O2 0.119598 0.134791 0.250000
O O3 0.742288 0.183154 0.845725
O O4 0.742288 0.183154 0.654275
O O5 0.848633 0.422473 0.750000
O O6 0.000000 0.690301 0.350766
O O7 0.500000 0.899236 0.371076
O O8 0.659838 0.000000 0.500000
O O9 0.609022 0.720350 0.489042
O O10 0.109022 0.779650 0.989042
#
# Coordination Sequence:
#
# PCOD9458284 Si02
#       6
#     4   8   4   8   8   8
#     4  11  22  44  79 120 147 220 262 329 400 477
#     4  12  24  46  79 114 160 212 266 331 401 485
#     4  11  28  48  69 112 173 200 270 325 398 475
#     4   9  20  44  80 119 149 204 269 338 393 470
#     4   9  20  44  80 119 149 204 269 338 393 470
#     4   9  22  47  69 115 156 197 256 333 395 466
#
# _framework density 30.325896
#
# number of rings (size 3 to 8) (size 9 to 14) (size 15 to 20)
#    1.200    0.800    2.000    0.000    0.000    8.000 
#   14.400    1.000    0.000    0.000    0.000    2.800 
#    0.000    0.000    0.000    0.000    0.000    0.000 
#
# Total GULP energy -223518.032581 kJ/mol
# GULP energy per Si atom -5587.950815 kJ/mol
# Density = 3.025687 g / cm^3
# Si number density = 30.325896 Si / 1000 Ang^3
#
#
#
# Elastic Constant Matrix: (Units=GPa)
#
#
# Indices 1 2 3 4 5 6 
#
# 1 178.4009 49.4677 17.3473 0.0000 0.0000 0.0000
# 2 49.4677 136.4281 10.1884 0.0000 0.0000 0.0000
# 3 17.3473 10.1884 101.1360 0.0000 0.0000 0.0000
# 4 0.0000 0.0000 0.0000 173.4567 0.0000 0.0000
# 5 0.0000 0.0000 0.0000 0.0000 61.0059 0.0000
# 6 0.0000 0.0000 0.0000 0.0000 0.0000 53.5987
#
#
#
# Elastic Compliance Matrix: (Units=1/GPa)
#
#
# Indices 1 2 3 4 5 6 
#
# 1 0.006305 -0.002222 -0.000858 0.000000 0.000000 0.000000
# 2 -0.002222 0.008169 -0.000442 0.000000 0.000000 0.000000
# 3 -0.000858 -0.000442 0.010079 0.000000 0.000000 0.000000
# 4 0.000000 0.000000 0.000000 0.005765 0.000000 0.000000
# 5 0.000000 0.000000 0.000000 0.000000 0.016392 0.000000
# 6 0.000000 0.000000 0.000000 0.000000 0.000000 0.018657
#
#
# Mechanical properties :
#
#
# Convention : Reuss Voigt Hill
#
# Bulk Modulus (GPa) = 57.11056 63.33022 60.22039
# Shear Modulus (GPa) = 63.90076 80.20969 72.05523
#
# Velocity S-wave (km/s) = 4.59533 5.14846 4.87974
# Velocity P-wave (km/s) = 6.85779 7.50138 7.18680
#
# Compressibility (1/GPa) = 0.01750990
#
# Stress axis : x y z
#
# Youngs Moduli (GPa) = 158.60724 122.42062 99.21350
#
# Poissons Ratio (x) = 0.27203 0.08509
# Poissons Ratio (y) = 0.35243 0.04383
# Poissons Ratio (z) = 0.13602 0.05408
#
# Static dielectric constant tensor:
#      x y z
#    x 2.521320 0.000000 0.000000 
#    y 0.000000 2.522340 0.000000 
#    z 0.000000 0.000000 2.522060 
# 
# From -- ./inp_files/15109.got.cif
#   From: 2010.05.17/outbox.cif.g08.bks.cpg/sg60_8_cif.got.tgz:15109.got - 2010.06.03 14:59:27.
