data_PCOD9458581
_publ_section_title
;
Structure prediction by ZEFSAII (Michael W. Deem and Ramdas Pophale) SiO2 
 PCOD9458581
Probable space group: P B C N
;
_chemical_formula_sum "Si O2"
_cell_formula_units_Z 40
_cell_length_a 11.811978
_cell_length_b 17.926968
_cell_length_c 8.577556
_cell_angle_alpha 90.000000
_cell_angle_beta 90.000000
_cell_angle_gamma 90.000000
_cell_volume 1816.322801
_symmetry_space_group_name_H-M "P B C N"
_symmetry_group_IT_number 60
_symmetry_cell_setting 'orthorhombic'
loop_
_space_group_symop_operation_xyz
x,y,z
1/2-x,1/2-y,1/2+z
1/2+x,1/2-y,-z
-x,y,1/2-z
-x,-y,-z
1/2+x,1/2+y,1/2-z
1/2-x,1/2+y,z
x,-y,1/2+z
loop_
_atom_site_type_symbol
_atom_site_label
_atom_site_fract_x
_atom_site_fract_y
_atom_site_fract_z
Si Si1 0.039425 0.421864 0.425415
Si Si2 0.974379 0.122774 0.565270
Si Si3 0.769570 0.037838 0.435906
Si Si4 0.286739 0.607428 0.404921
Si Si5 0.919165 0.287610 0.598023
O O1 0.171835 0.418971 0.469842
O O2 0.000000 0.427911 0.250000
O O3 0.000000 0.500000 0.500000
O O4 0.981201 0.347942 0.490933
O O5 0.890405 0.058355 0.509464
O O6 0.914456 0.202839 0.541585
O O7 0.000000 0.113335 0.750000
O O8 0.086937 0.125872 0.459815
O O9 0.774813 0.062211 0.256670
O O10 0.746346 0.950302 0.461120
O O11 0.206031 0.678445 0.383229
O O12 0.000000 0.286078 0.750000
#
# Coordination Sequence:
#
# PCOD9458581 Si02
#       5
#     8   8   8   8   8
#     4  12  24  41  69 105 140 180 236 291 355 414
#     4  11  28  46  69 102 145 190 237 292 359 430
#     4  12  25  45  73 105 139 187 240 294 358 422
#     4  12  25  45  75 100 145 185 239 298 353 434
#     4  11  25  47  69 105 142 184 233 293 358 429
#
# _framework density 22.022517000000001
#
# number of rings (size 3 to 8) (size 9 to 14) (size 15 to 20)
#    0.000    0.400    4.000    4.200    5.600    1.600 
#    0.000    0.000    0.000    0.000    0.000    0.000 
#    0.000    0.000    0.000    0.000    0.000    0.000 
#
# Total GULP energy -223753.896717 kJ/mol
# GULP energy per Si atom -5593.847418 kJ/mol
# Density = 2.197239 g / cm^3
# Si number density = 22.022517 Si / 1000 Ang^3
#
#
#
# Elastic Constant Matrix: (Units=GPa)
#
#
# Indices 1 2 3 4 5 6 
#
# 1 137.4531 4.1859 24.4463 0.0000 0.0000 0.0000
# 2 4.1859 67.9251 5.2200 0.0000 0.0000 0.0000
# 3 24.4463 5.2200 100.2641 0.0000 0.0000 0.0000
# 4 0.0000 0.0000 0.0000 21.5004 0.0000 0.0000
# 5 0.0000 0.0000 0.0000 0.0000 35.3846 0.0000
# 6 0.0000 0.0000 0.0000 0.0000 0.0000 29.5113
#
#
#
# Elastic Compliance Matrix: (Units=1/GPa)
#
#
# Indices 1 2 3 4 5 6 
#
# 1 0.007612 -0.000328 -0.001839 0.000000 0.000000 0.000000
# 2 -0.000328 0.014795 -0.000690 0.000000 0.000000 0.000000
# 3 -0.001839 -0.000690 0.010458 0.000000 0.000000 0.000000
# 4 0.000000 0.000000 0.000000 0.046511 0.000000 0.000000
# 5 0.000000 0.000000 0.000000 0.000000 0.028261 0.000000
# 6 0.000000 0.000000 0.000000 0.000000 0.000000 0.033885
#
#
# Mechanical properties :
#
#
# Convention : Reuss Voigt Hill
#
# Bulk Modulus (GPa) = 36.83051 41.48296 39.15673
# Shear Modulus (GPa) = 31.99239 35.39861 33.69550
#
# Velocity S-wave (km/s) = 3.81558 4.01357 3.91583
# Velocity P-wave (km/s) = 6.01431 6.35262 6.18578
#
# Compressibility (1/GPa) = 0.02715140
#
# Stress axis : x y z
#
# Youngs Moduli (GPa) = 131.36717 67.58879 95.62086
#
# Poissons Ratio (x) = 0.02215 0.17584
# Poissons Ratio (y) = 0.04306 0.06601
# Poissons Ratio (z) = 0.24158 0.04666
#
# Static dielectric constant tensor:
#      x y z
#    x 3.482940 0.000000 0.000000 
#    y 0.000000 1.722820 0.000000 
#    z 0.000000 0.000000 1.759870 
# 
# From -- ./inp_files/4719.got.cif
#   From: 2010.05.17/outbox.cif.g08.bks.cpg/sg60_3_cif.got.tgz:4719.got - 2010.06.03 14:59:27.
