data_PCOD9458637
_publ_section_title
;
Structure prediction by ZEFSAII (Michael W. Deem and Ramdas Pophale) SiO2 
 PCOD9458637
Probable space group: P B C N
;
_chemical_formula_sum "Si O2"
_cell_formula_units_Z 32
_cell_length_a 6.450033
_cell_length_b 13.060645
_cell_length_c 15.773655
_cell_angle_alpha 90.000000
_cell_angle_beta 90.000000
_cell_angle_gamma 90.000000
_cell_volume 1328.797797
_symmetry_space_group_name_H-M "P B C N"
_symmetry_group_IT_number 60
_symmetry_cell_setting 'orthorhombic'
loop_
_space_group_symop_operation_xyz
x,y,z
1/2-x,1/2-y,1/2+z
1/2+x,1/2-y,-z
-x,y,1/2-z
-x,-y,-z
1/2+x,1/2+y,1/2-z
1/2-x,1/2+y,z
x,-y,1/2+z
loop_
_atom_site_type_symbol
_atom_site_label
_atom_site_fract_x
_atom_site_fract_y
_atom_site_fract_z
Si Si1 0.519271 0.447151 0.135127
Si Si2 0.607132 0.109215 0.520359
Si Si3 0.262672 0.075971 0.224153
Si Si4 0.260861 0.763870 0.125263
O O1 0.668950 0.423109 0.057766
O O2 0.662017 0.510321 0.200249
O O3 0.312676 0.517138 0.138898
O O4 0.417609 0.339576 0.157127
O O5 0.653875 0.191588 0.446255
O O6 0.454491 0.172816 0.585465
O O7 0.500000 0.000000 0.500000
O O8 0.500000 0.078675 0.250000
O O9 0.188478 0.189736 0.203246
#
# Coordination Sequence:
#
# PCOD9458637 Si02
#       4
#     8   8   8   8
#     4  11  26  50  77 114 163 213 265 340 409 493
#     4  12  27  49  82 120 161 211 278 339 419 497
#     4  11  27  50  75 114 162 211 276 335 409 497
#     4  12  26  48  82 117 162 215 265 341 422 491
#
# _framework density 24.081918999999999
#
# number of rings (size 3 to 8) (size 9 to 14) (size 15 to 20)
#    0.000    0.500    2.500    4.500    7.000    6.000 
#    4.500    0.000    0.000    0.000    0.000    0.000 
#    0.000    0.000    0.000    0.000    0.000    0.000 
#
# Total GULP energy -178405.219713 kJ/mol
# GULP energy per Si atom -5575.163116 kJ/mol
# Density = 2.402711 g / cm^3
# Si number density = 24.081919 Si / 1000 Ang^3
#
#
#
# Elastic Constant Matrix: (Units=GPa)
#
#
# Indices 1 2 3 4 5 6 
#
# 1 156.7439 84.5714 75.0614 0.0000 0.0000 0.0000
# 2 84.5714 195.5370 64.0978 0.0000 0.0000 0.0000
# 3 75.0614 64.0978 77.1001 0.0000 0.0000 0.0000
# 4 0.0000 0.0000 0.0000 28.8245 0.0000 0.0000
# 5 0.0000 0.0000 0.0000 0.0000 64.3567 0.0000
# 6 0.0000 0.0000 0.0000 0.0000 0.0000 42.3247
#
#
#
# Elastic Compliance Matrix: (Units=1/GPa)
#
#
# Indices 1 2 3 4 5 6 
#
# 1 0.012467 -0.001943 -0.010522 0.000000 0.000000 0.000000
# 2 -0.001943 0.007333 -0.004205 0.000000 0.000000 0.000000
# 3 -0.010522 -0.004205 0.026709 0.000000 0.000000 0.000000
# 4 0.000000 0.000000 0.000000 0.034693 0.000000 0.000000
# 5 0.000000 0.000000 0.000000 0.000000 0.015538 0.000000
# 6 0.000000 0.000000 0.000000 0.000000 0.000000 0.023627
#
#
# Mechanical properties :
#
#
# Convention : Reuss Voigt Hill
#
# Bulk Modulus (GPa) = 75.92963 97.42690 86.67827
# Shear Modulus (GPa) = 31.62632 40.81119 36.21875
#
# Velocity S-wave (km/s) = 3.62785 4.12112 3.88233
# Velocity P-wave (km/s) = 7.01046 7.94916 7.49452
#
# Compressibility (1/GPa) = 0.01317009
#
# Stress axis : x y z
#
# Youngs Moduli (GPa) = 80.21242 136.37504 37.43987
#
# Poissons Ratio (x) = 0.26496 0.39394
# Poissons Ratio (y) = 0.15584 0.15742
# Poissons Ratio (z) = 0.84400 0.57340
#
# Static dielectric constant tensor:
#      x y z
#    x 1.976620 0.000000 0.000000 
#    y 0.000000 1.938870 0.000000 
#    z 0.000000 0.000000 2.090470 
# 
# From -- ./inp_files/21400.got.cif
#   From: 2010.05.17/outbox.cif.g08.bks.cpg/sg60_11_cif.got.tgz:21400.got - 2010.06.03 14:59:27.
