data_PCOD9458462
_publ_section_title
;
Structure prediction by ZEFSAII (Michael W. Deem and Ramdas Pophale) SiO2 
 PCOD9458462
Probable space group: P B C N
;
_chemical_formula_sum "Si O2"
_cell_formula_units_Z 32
_cell_length_a 10.977387
_cell_length_b 14.387044
_cell_length_c 8.714040
_cell_angle_alpha 90.000000
_cell_angle_beta 90.000000
_cell_angle_gamma 90.000000
_cell_volume 1376.227070
_symmetry_space_group_name_H-M "P B C N"
_symmetry_group_IT_number 60
_symmetry_cell_setting 'orthorhombic'
loop_
_space_group_symop_operation_xyz
x,y,z
1/2-x,1/2-y,1/2+z
1/2+x,1/2-y,-z
-x,y,1/2-z
-x,-y,-z
1/2+x,1/2+y,1/2-z
1/2-x,1/2+y,z
x,-y,1/2+z
loop_
_atom_site_type_symbol
_atom_site_label
_atom_site_fract_x
_atom_site_fract_y
_atom_site_fract_z
Si Si1 0.368494 0.215277 0.334243
Si Si2 0.100936 0.918417 0.384287
Si Si3 0.797245 0.065689 0.306284
Si Si4 0.919991 0.571915 0.900652
O O1 0.500000 0.212532 0.250000
O O2 0.327719 0.321603 0.356638
O O3 0.273128 0.159408 0.231516
O O4 0.386513 0.159987 0.494021
O O5 0.096015 0.919936 0.569066
O O6 0.000000 0.911605 0.250000
O O7 0.158774 0.017511 0.348030
O O8 0.698783 0.988681 0.360232
O O9 0.000000 0.595534 0.750000
O O10 0.000000 0.500000 0.000000
#
# Coordination Sequence:
#
# PCOD9458462 Si02
#       4
#     8   8   8   8
#     4  11  24  43  66 106 137 170 235 296 345 412
#     4  11  27  45  65  97 143 186 234 283 344 422
#     4  12  22  43  70  93 138 183 224 284 349 412
#     4  12  20  39  68 102 133 164 222 295 354 394
#
# _framework density 23.251977
#
# number of rings (size 3 to 8) (size 9 to 14) (size 15 to 20)
#    0.000    0.500    7.500    0.750    3.500    0.000 
#    0.000    6.250    0.000    0.000    0.000    0.000 
#    0.000    0.000    0.000    0.000    0.000    0.000 
#
# Total GULP energy -178573.900746 kJ/mol
# GULP energy per Si atom -5580.434398 kJ/mol
# Density = 2.319905 g / cm^3
# Si number density = 23.251977 Si / 1000 Ang^3
#
#
#
# Elastic Constant Matrix: (Units=GPa)
#
#
# Indices 1 2 3 4 5 6 
#
# 1 63.4742 13.2886 29.4825 0.0000 0.0000 0.0000
# 2 13.2886 102.4767 22.0464 0.0000 0.0000 0.0000
# 3 29.4825 22.0464 132.6072 0.0000 0.0000 0.0000
# 4 0.0000 0.0000 0.0000 -44.7183 0.0000 0.0000
# 5 0.0000 0.0000 0.0000 0.0000 37.5411 0.0000
# 6 0.0000 0.0000 0.0000 0.0000 0.0000 -2.8529
#
#
#
# Elastic Compliance Matrix: (Units=1/GPa)
#
#
# Indices 1 2 3 4 5 6 
#
# 1 0.017791 -0.001510 -0.003704 0.000000 0.000000 0.000000
# 2 -0.001510 0.010248 -0.001368 0.000000 0.000000 0.000000
# 3 -0.003704 -0.001368 0.008592 0.000000 0.000000 0.000000
# 4 0.000000 0.000000 0.000000 -0.022362 0.000000 0.000000
# 5 0.000000 0.000000 0.000000 0.000000 0.026637 0.000000
# 6 0.000000 0.000000 0.000000 0.000000 0.000000 -0.350516
#
#
# Mechanical properties :
#
#
# Convention : Reuss Voigt Hill
#
# Bulk Modulus (GPa) = 42.61395 47.57702 45.09549
# Shear Modulus (GPa) = -17.32374 13.57667 -1.87354
#
# Velocity S-wave (km/s) = -2.73251 2.41901 -0.89861
# Velocity P-wave (km/s) = 2.90023 5.32053 4.28482
#
# Compressibility (1/GPa) = 0.02346649
#
# Stress axis : x y z
#
# Youngs Moduli (GPa) = 56.20750 97.57556 116.38567
#
# Poissons Ratio (x) = 0.14735 0.43114
# Poissons Ratio (y) = 0.08488 0.15923
# Poissons Ratio (z) = 0.20822 0.13349
#
# Static dielectric constant tensor:
#      x y z
#    x -7.789190 0.000000 0.000000 
#    y 0.000000 1.827560 0.000000 
#    z 0.000000 0.000000 1.885340 
# 
# From -- ./inp_files/4505.got.cif
#   From: 2010.05.17/outbox.cif.g08.bks.cpg/sg60_3_cif.got.tgz:4505.got - 2010.06.03 14:59:27.
