data_PCOD9458645
_publ_section_title
;
Structure prediction by ZEFSAII (Michael W. Deem and Ramdas Pophale) SiO2 
 PCOD9458645
Probable space group: P B C N
;
_chemical_formula_sum "Si O2"
_cell_formula_units_Z 40
_cell_length_a 17.667856
_cell_length_b 7.735923
_cell_length_c 11.008613
_cell_angle_alpha 90.000000
_cell_angle_beta 90.000000
_cell_angle_gamma 90.000000
_cell_volume 1504.626110
_symmetry_space_group_name_H-M "P B C N"
_symmetry_group_IT_number 60
_symmetry_cell_setting 'orthorhombic'
loop_
_space_group_symop_operation_xyz
x,y,z
1/2-x,1/2-y,1/2+z
1/2+x,1/2-y,-z
-x,y,1/2-z
-x,-y,-z
1/2+x,1/2+y,1/2-z
1/2-x,1/2+y,z
x,-y,1/2+z
loop_
_atom_site_type_symbol
_atom_site_label
_atom_site_fract_x
_atom_site_fract_y
_atom_site_fract_z
Si Si1 0.480282 0.618521 0.613644
Si Si2 0.170273 0.133560 0.242557
Si Si3 0.562625 0.826515 0.437464
Si Si4 0.165931 0.741702 0.213316
Si Si5 0.607354 0.064345 0.613568
O O1 0.500000 0.561578 0.750000
O O2 0.500000 0.500000 0.500000
O O3 0.537323 0.768419 0.572823
O O4 0.396856 0.695683 0.617306
O O5 0.104969 0.187118 0.145092
O O6 0.249058 0.188910 0.181406
O O7 0.152720 0.260774 0.354555
O O8 0.172828 0.932110 0.280309
O O9 0.618399 0.978832 0.480455
O O10 0.482127 0.882177 0.380781
O O11 0.135599 0.574362 0.286306
#
# Coordination Sequence:
#
# PCOD9458645 Si02
#       5
#     8   8   8   8   8
#     4  12  27  51  84 126 172 229 295 359 432 525
#     4  12  27  53  78 120 168 225 288 357 445 519
#     4  11  27  48  82 119 164 225 289 354 433 527
#     4  12  27  52  81 118 171 219 289 358 439 517
#     4  11  27  49  81 119 163 221 288 353 430 527
#
# _framework density 26.584678
#
# number of rings (size 3 to 8) (size 9 to 14) (size 15 to 20)
#    0.000    0.400    6.000    0.600   11.200    0.000 
#   10.800    3.000    0.000    0.000    0.000    0.000 
#    0.000    0.000    0.000    0.000    0.000    0.000 
#
# Total GULP energy -223395.135965 kJ/mol
# GULP energy per Si atom -5584.878399 kJ/mol
# Density = 2.652417 g / cm^3
# Si number density = 26.584678 Si / 1000 Ang^3
#
#
#
# Elastic Constant Matrix: (Units=GPa)
#
#
# Indices 1 2 3 4 5 6 
#
# 1 164.0534 27.2162 54.7078 0.0000 0.0000 0.0000
# 2 27.2162 151.0711 51.3189 0.0000 0.0000 0.0000
# 3 54.7078 51.3189 118.3061 0.0000 0.0000 0.0000
# 4 0.0000 0.0000 0.0000 47.7236 0.0000 0.0000
# 5 0.0000 0.0000 0.0000 0.0000 29.0630 0.0000
# 6 0.0000 0.0000 0.0000 0.0000 0.0000 43.6353
#
#
#
# Elastic Compliance Matrix: (Units=1/GPa)
#
#
# Indices 1 2 3 4 5 6 
#
# 1 0.007212 -0.000195 -0.003250 0.000000 0.000000 0.000000
# 2 -0.000195 0.007769 -0.003280 0.000000 0.000000 0.000000
# 3 -0.003250 -0.003280 0.011378 0.000000 0.000000 0.000000
# 4 0.000000 0.000000 0.000000 0.020954 0.000000 0.000000
# 5 0.000000 0.000000 0.000000 0.000000 0.034408 0.000000
# 6 0.000000 0.000000 0.000000 0.000000 0.000000 0.022917
#
#
# Mechanical properties :
#
#
# Convention : Reuss Voigt Hill
#
# Bulk Modulus (GPa) = 77.46743 77.76849 77.61796
# Shear Modulus (GPa) = 40.85264 44.09689 42.47477
#
# Velocity S-wave (km/s) = 3.92433 4.07717 4.00148
# Velocity P-wave (km/s) = 7.05244 7.17503 7.11400
#
# Compressibility (1/GPa) = 0.01290865
#
# Stress axis : x y z
#
# Youngs Moduli (GPa) = 138.66083 128.72241 87.88637
#
# Poissons Ratio (x) = 0.02512 0.28566
# Poissons Ratio (y) = 0.02706 0.28824
# Poissons Ratio (z) = 0.45069 0.42217
#
# Static dielectric constant tensor:
#      x y z
#    x 2.117340 0.000000 0.000000 
#    y 0.000000 2.632210 0.000000 
#    z 0.000000 0.000000 2.092570 
# 
# From -- ./inp_files/12762.got.cif
#   From: 2010.05.17/outbox.cif.g08.bks.cpg/sg60_7_cif.got.tgz:12762.got - 2010.06.03 14:59:27.
