data_PCOD9458913
_publ_section_title
;
Structure prediction by ZEFSAII (Michael W. Deem and Ramdas Pophale) SiO2 
 PCOD9458913
Probable space group: P B C N
;
_chemical_formula_sum "Si O2"
_cell_formula_units_Z 64
_cell_length_a 9.000000
_cell_length_b 15.000000
_cell_length_c 24.000000
_cell_angle_alpha 90.000000
_cell_angle_beta 90.000000
_cell_angle_gamma 90.000000
_cell_volume 3240.000000
_symmetry_space_group_name_H-M "P B C N"
_symmetry_group_IT_number 60
_symmetry_cell_setting 'orthorhombic'
loop_
_space_group_symop_operation_xyz
x,y,z
1/2-x,1/2-y,1/2+z
1/2+x,1/2-y,-z
-x,y,1/2-z
-x,-y,-z
1/2+x,1/2+y,1/2-z
1/2-x,1/2+y,z
x,-y,1/2+z
loop_
_atom_site_type_symbol
_atom_site_label
_atom_site_fract_x
_atom_site_fract_y
_atom_site_fract_z
Si Si1 0.362382 0.173155 0.007334
Si Si2 0.828886 0.344000 0.761196
Si Si3 0.932891 0.691449 0.904913
Si Si4 0.428342 0.307861 0.427165
Si Si5 0.337393 0.572072 0.635965
Si Si6 0.717605 0.211802 0.671300
Si Si7 0.233154 0.873414 0.612634
Si Si8 0.681600 0.946586 0.246170
O O1 0.482464 0.156207 0.959356
O O2 0.205678 0.175361 0.972262
O O3 0.439319 0.258245 0.038997
O O4 0.343870 0.108990 0.060710
O O5 0.729182 0.278421 0.723785
O O6 0.799578 0.342067 0.827765
O O7 0.806606 0.446458 0.741733
O O8 0.000000 0.319056 0.750000
O O9 0.803769 0.621971 0.891376
O O10 0.862495 0.790202 0.909795
O O11 0.056665 0.705485 0.857224
O O12 0.517343 0.383710 0.392146
O O13 0.336728 0.260558 0.376400
O O14 0.345772 0.466619 0.624385
O O15 0.286029 0.580126 0.701007
O O16 0.741618 0.112336 0.695375
O O17 0.500000 0.929002 0.250000
#
# Coordination Sequence:
#
# PCOD9458913 Si02
#       8
#     8   8   8   8   8   8   8   8
#     4  11  22  43  65  91 126 168 216 271 316 378
#     4  10  23  39  63  99 130 169 217 265 321 392
#     4  11  23  43  64  92 127 166 215 262 320 383
#     4  11  23  41  66  95 128 168 219 272 323 382
#     4  11  23  40  65  95 128 168 212 263 325 390
#     4  11  24  38  68  94 125 179 211 259 330 390
#     4  11  23  40  68  91 129 170 211 268 323 381
#     4  10  21  40  62  94 136 166 211 269 318 390
#
# _framework density 19.753086
#
# number of rings (size 3 to 8) (size 9 to 14) (size 15 to 20)
#    0.000    1.250    3.750    1.500    1.750    2.000 
#    0.000    2.500    0.000    0.000    0.000    0.000 
#    0.000    0.000    0.000    0.000    0.000    0.000 
#
# Total GULP energy -356408.545184 kJ/mol
# GULP energy per Si atom -5568.883518 kJ/mol
# Density = 1.970813 g / cm^3
# Si number density = 19.753086 Si / 1000 Ang^3
#
#
#
# Elastic Constant Matrix: (Units=GPa)
#
#
# Indices 1 2 3 4 5 6 
#
# 1 69.0582 9.7933 44.3620 0.0000 0.0000 0.0000
# 2 9.7933 29.6541 30.7096 0.0000 0.0000 0.0000
# 3 44.3620 30.7096 105.0539 0.0000 0.0000 0.0000
# 4 0.0000 0.0000 0.0000 20.2951 0.0000 0.0000
# 5 0.0000 0.0000 0.0000 0.0000 35.4327 0.0000
# 6 0.0000 0.0000 0.0000 0.0000 0.0000 20.4601
#
#
#
# Elastic Compliance Matrix: (Units=1/GPa)
#
#
# Indices 1 2 3 4 5 6 
#
# 1 0.020065 0.003081 -0.009374 0.000000 0.000000 0.000000
# 2 0.003081 0.048836 -0.015577 0.000000 0.000000 0.000000
# 3 -0.009374 -0.015577 0.018031 0.000000 0.000000 0.000000
# 4 0.000000 0.000000 0.000000 0.049273 0.000000 0.000000
# 5 0.000000 0.000000 0.000000 0.000000 0.028223 0.000000
# 6 0.000000 0.000000 0.000000 0.000000 0.000000 0.048876
#
#
# Mechanical properties :
#
#
# Convention : Reuss Voigt Hill
#
# Bulk Modulus (GPa) = 23.15221 41.49954 32.32588
# Shear Modulus (GPa) = 18.42031 23.16434 20.79232
#
# Velocity S-wave (km/s) = 3.05705 3.42818 3.24792
# Velocity P-wave (km/s) = 4.92006 6.06008 5.51958
#
# Compressibility (1/GPa) = 0.04319241
#
# Stress axis : x y z
#
# Youngs Moduli (GPa) = 49.83770 20.47674 55.46114
#
# Poissons Ratio (x) = -0.06308 0.51987
# Poissons Ratio (y) = -0.15354 0.86391
# Poissons Ratio (z) = 0.46716 0.31896
#
# Static dielectric constant tensor:
#      x y z
#    x 1.735040 0.000000 0.000000 
#    y 0.000000 1.682320 0.000000 
#    z 0.000000 0.000000 1.741110 
# 
# From -- ./inp_files/24067.got.cif
#   From: 2010.05.17/outbox.ucp.g08.bks.cvg/sg60_13_cif.got.tgz:24067.got - 2010.06.11 16:26:41.
