data_PCOD9458943
_publ_section_title
;
Structure prediction by ZEFSAII (Michael W. Deem and Ramdas Pophale) SiO2 
 PCOD9458943
Probable space group: P B C N
;
_chemical_formula_sum "Si O2"
_cell_formula_units_Z 48
_cell_length_a 15.000000
_cell_length_b 18.000000
_cell_length_c 9.000000
_cell_angle_alpha 90.000000
_cell_angle_beta 90.000000
_cell_angle_gamma 90.000000
_cell_volume 2430.000000
_symmetry_space_group_name_H-M "P B C N"
_symmetry_group_IT_number 60
_symmetry_cell_setting 'orthorhombic'
loop_
_space_group_symop_operation_xyz
x,y,z
1/2-x,1/2-y,1/2+z
1/2+x,1/2-y,-z
-x,y,1/2-z
-x,-y,-z
1/2+x,1/2+y,1/2-z
1/2-x,1/2+y,z
x,-y,1/2+z
loop_
_atom_site_type_symbol
_atom_site_label
_atom_site_fract_x
_atom_site_fract_y
_atom_site_fract_z
Si Si1 0.732318 0.798355 0.314658
Si Si2 0.268456 0.151408 0.349699
Si Si3 0.363936 0.051005 0.136179
Si Si4 0.102373 0.898730 0.244249
Si Si5 0.412957 0.904377 0.319651
Si Si6 0.820161 0.993133 0.513312
O O1 0.710536 0.812204 0.489101
O O2 0.725438 0.714748 0.254246
O O3 0.832021 0.830032 0.289042
O O4 0.670047 0.851593 0.215649
O O5 0.349016 0.116824 0.253975
O O6 0.209740 0.077974 0.387045
O O7 0.398984 0.980156 0.226199
O O8 0.420093 0.076475 0.993313
O O9 0.269380 0.025134 0.063802
O O10 0.000000 0.876439 0.250000
O O11 0.134821 0.942519 0.390785
O O12 0.117341 0.958387 0.112388
O O13 0.500000 0.867413 0.250000
#
# Coordination Sequence:
#
# PCOD9458943 Si02
#       6
#     8   8   8   8   8   8
#     4  11  23  42  60  91 131 164 212 254 323 392
#     4  11  22  39  70  89 123 177 204 261 328 371
#     4  12  19  41  66  92 122 166 218 263 312 370
#     4  11  22  38  63  92 125 162 208 258 315 372
#     4  12  23  39  64  94 130 168 214 264 315 377
#     4  11  19  39  66  90 121 162 214 261 306 368
#
# _framework density 19.753086
#
# number of rings (size 3 to 8) (size 9 to 14) (size 15 to 20)
#    0.000    0.667    8.333    2.000    0.000    0.000 
#    0.000    6.667    0.000    0.000    0.000    0.000 
#    0.000    0.000    0.000    0.000    0.000    0.000 
#
# Total GULP energy -268219.008718 kJ/mol
# GULP energy per Si atom -5587.896015 kJ/mol
# Density = 1.970813 g / cm^3
# Si number density = 19.753086 Si / 1000 Ang^3
#
#
#
# Elastic Constant Matrix: (Units=GPa)
#
#
# Indices 1 2 3 4 5 6 
#
# 1 60.1448 -5.3733 11.5555 0.0000 0.0000 0.0000
# 2 -5.3733 56.1827 9.9832 0.0000 0.0000 0.0000
# 3 11.5555 9.9832 81.9838 0.0000 0.0000 0.0000
# 4 0.0000 0.0000 0.0000 42.0406 0.0000 0.0000
# 5 0.0000 0.0000 0.0000 0.0000 27.3030 0.0000
# 6 0.0000 0.0000 0.0000 0.0000 0.0000 2.6714
#
#
#
# Elastic Compliance Matrix: (Units=1/GPa)
#
#
# Indices 1 2 3 4 5 6 
#
# 1 0.017337 0.002139 -0.002704 0.000000 0.000000 0.000000
# 2 0.002139 0.018457 -0.002549 0.000000 0.000000 0.000000
# 3 -0.002704 -0.002549 0.012889 0.000000 0.000000 0.000000
# 4 0.000000 0.000000 0.000000 0.023787 0.000000 0.000000
# 5 0.000000 0.000000 0.000000 0.000000 0.036626 0.000000
# 6 0.000000 0.000000 0.000000 0.000000 0.000000 0.374342
#
#
# Mechanical properties :
#
#
# Convention : Reuss Voigt Hill
#
# Bulk Modulus (GPa) = 23.55491 25.62690 24.59091
# Shear Modulus (GPa) = 9.92422 26.54605 18.23514
#
# Velocity S-wave (km/s) = 2.24389 3.66989 3.04164
# Velocity P-wave (km/s) = 4.32018 5.56411 4.98113
#
# Compressibility (1/GPa) = 0.04245400
#
# Stress axis : x y z
#
# Youngs Moduli (GPa) = 57.67971 54.18135 77.58530
#
# Poissons Ratio (x) = -0.11587 0.20980
# Poissons Ratio (y) = -0.12335 0.19776
# Poissons Ratio (z) = 0.15597 0.13810
#
# Static dielectric constant tensor:
#      x y z
#    x 1.715420 0.000000 0.000000 
#    y 0.000000 1.672820 0.000000 
#    z 0.000000 0.000000 1.715200 
# 
# From -- ./inp_files/5883.got.cif
#   From: 2010.05.17/outbox.ucp.g08.bks.cvg/sg60_3_cif.got.tgz:5883.got - 2010.06.11 16:26:41.
