data_PCOD9458911
_publ_section_title
;
Structure prediction by ZEFSAII (Michael W. Deem and Ramdas Pophale) SiO2 
 PCOD9458911
Probable space group: P B C N
;
_chemical_formula_sum "Si O2"
_cell_formula_units_Z 64
_cell_length_a 15.000000
_cell_length_b 24.000000
_cell_length_c 9.000000
_cell_angle_alpha 90.000000
_cell_angle_beta 90.000000
_cell_angle_gamma 90.000000
_cell_volume 3240.000000
_symmetry_space_group_name_H-M "P B C N"
_symmetry_group_IT_number 60
_symmetry_cell_setting 'orthorhombic'
loop_
_space_group_symop_operation_xyz
x,y,z
1/2-x,1/2-y,1/2+z
1/2+x,1/2-y,-z
-x,y,1/2-z
-x,-y,-z
1/2+x,1/2+y,1/2-z
1/2-x,1/2+y,z
x,-y,1/2+z
loop_
_atom_site_type_symbol
_atom_site_label
_atom_site_fract_x
_atom_site_fract_y
_atom_site_fract_z
Si Si1 0.355160 0.240582 0.055996
Si Si2 0.464306 0.286312 0.580873
Si Si3 0.148261 0.983538 0.989752
Si Si4 0.482116 0.584827 0.071262
Si Si5 0.599372 0.093633 0.687281
Si Si6 0.595120 0.879715 0.838455
Si Si7 0.312366 0.790747 0.213534
Si Si8 0.717060 0.013302 0.264874
O O1 0.363212 0.182920 0.151248
O O2 0.286228 0.281042 0.143805
O O3 0.456512 0.262310 0.023985
O O4 0.318356 0.230476 0.886359
O O5 0.500000 0.287942 0.750000
O O6 0.450958 0.351641 0.540269
O O7 0.378716 0.245734 0.605352
O O8 0.193131 0.977651 0.829771
O O9 0.075801 0.933782 0.006572
O O10 0.090990 0.040047 0.015687
O O11 0.237770 0.988785 0.086765
O O12 0.500000 0.579228 0.250000
O O13 0.500000 0.088093 0.750000
O O14 0.585601 0.106756 0.513430
O O15 0.650507 0.145661 0.768392
O O16 0.653967 0.036249 0.704888
O O17 0.500000 0.880084 0.750000
O O18 0.661035 0.929053 0.779421
#
# Coordination Sequence:
#
# PCOD9458911 Si02
#       8
#     8   8   8   8   8   8   8   8
#     4  10  23  42  66  98 128 169 215 264 322 385
#     4   9  20  40  66  95 128 171 213 262 324 384
#     4  11  24  41  63  99 130 173 216 268 317 389
#     4  10  21  39  66  94 138 171 211 266 329 378
#     4  11  25  44  65  95 132 166 213 272 324 382
#     4  11  26  45  66  94 133 169 212 271 324 386
#     4  10  22  41  66  93 131 169 213 266 321 380
#     4  12  25  42  66  94 128 169 223 263 323 383
#
# _framework density 19.753086
#
# number of rings (size 3 to 8) (size 9 to 14) (size 15 to 20)
#    0.000    1.500    2.500    2.250    5.250    4.000 
#    0.000    0.000    2.750    0.000    0.000    0.000 
#    0.000    0.000    0.000    0.000    0.000    0.000 
#
# Total GULP energy -357008.472829 kJ/mol
# GULP energy per Si atom -5578.257388 kJ/mol
# Density = 1.970813 g / cm^3
# Si number density = 19.753086 Si / 1000 Ang^3
#
#
#
# Elastic Constant Matrix: (Units=GPa)
#
#
# Indices 1 2 3 4 5 6 
#
# 1 116.2228 57.5649 34.7079 0.0000 0.0000 0.0000
# 2 57.5649 120.9910 28.6478 0.0000 0.0000 0.0000
# 3 34.7079 28.6478 48.3866 0.0000 0.0000 0.0000
# 4 0.0000 0.0000 0.0000 32.5457 0.0000 0.0000
# 5 0.0000 0.0000 0.0000 0.0000 48.1328 0.0000
# 6 0.0000 0.0000 0.0000 0.0000 0.0000 31.0006
#
#
#
# Elastic Compliance Matrix: (Units=1/GPa)
#
#
# Indices 1 2 3 4 5 6 
#
# 1 0.012795 -0.004553 -0.006482 0.000000 0.000000 0.000000
# 2 -0.004553 0.011233 -0.003385 0.000000 0.000000 0.000000
# 3 -0.006482 -0.003385 0.027321 0.000000 0.000000 0.000000
# 4 0.000000 0.000000 0.000000 0.030726 0.000000 0.000000
# 5 0.000000 0.000000 0.000000 0.000000 0.020776 0.000000
# 6 0.000000 0.000000 0.000000 0.000000 0.000000 0.032257
#
#
# Mechanical properties :
#
#
# Convention : Reuss Voigt Hill
#
# Bulk Modulus (GPa) = 44.42741 58.60462 51.51602
# Shear Modulus (GPa) = 29.16304 33.31449 31.23876
#
# Velocity S-wave (km/s) = 3.84654 4.11121 3.98107
# Velocity P-wave (km/s) = 6.50138 7.22974 6.87521
#
# Compressibility (1/GPa) = 0.02250863
#
# Stress axis : x y z
#
# Youngs Moduli (GPa) = 78.15579 89.02686 36.60230
#
# Poissons Ratio (x) = 0.40531 0.23727
# Poissons Ratio (y) = 0.35582 0.12389
# Poissons Ratio (z) = 0.50664 0.30133
#
# Static dielectric constant tensor:
#      x y z
#    x 1.683210 0.000000 0.000000 
#    y 0.000000 1.698460 0.000000 
#    z 0.000000 0.000000 1.752700 
# 
# From -- ./inp_files/6299.got.cif
#   From: 2010.05.17/outbox.ucp.g08.bks.cvg/sg60_4_cif.got.tgz:6299.got - 2010.06.11 16:26:41.
