data_PCOD9458788
_publ_section_title
;
Structure prediction by ZEFSAII (Michael W. Deem and Ramdas Pophale) SiO2 
 PCOD9458788
Probable space group: P B C N
;
_chemical_formula_sum "Si O2"
_cell_formula_units_Z 36
_cell_length_a 5.369125
_cell_length_b 23.420625
_cell_length_c 11.132244
_cell_angle_alpha 90.000000
_cell_angle_beta 90.000000
_cell_angle_gamma 90.000000
_cell_volume 1399.860349
_symmetry_space_group_name_H-M "P B C N"
_symmetry_group_IT_number 60
_symmetry_cell_setting 'orthorhombic'
loop_
_space_group_symop_operation_xyz
x,y,z
1/2-x,1/2-y,1/2+z
1/2+x,1/2-y,-z
-x,y,1/2-z
-x,-y,-z
1/2+x,1/2+y,1/2-z
1/2-x,1/2+y,z
x,-y,1/2+z
loop_
_atom_site_type_symbol
_atom_site_label
_atom_site_fract_x
_atom_site_fract_y
_atom_site_fract_z
Si Si1 0.899460 0.252001 0.070994
Si Si2 0.500000 0.657558 0.250000
Si Si3 0.631889 0.082210 0.373664
Si Si4 0.617020 0.525008 0.878633
Si Si5 0.596729 0.125229 0.878636
O O1 0.041335 0.307958 0.120843
O O2 0.844794 0.203075 0.169449
O O3 0.129001 0.231143 0.984149
O O4 0.390026 0.614642 0.150911
O O5 0.500000 0.100160 0.250000
O O6 0.527014 0.103465 0.498752
O O7 0.634927 0.013759 0.375463
O O8 0.500000 0.510942 0.750000
O O9 0.639099 0.593186 0.886258
O O10 0.500000 0.500000 0.000000
O O11 0.500000 0.103397 0.750000
#
# Coordination Sequence:
#
# PCOD9458788 Si02
#       5
#     8   4   8   8   8
#     4  12  28  49  77 114 160 208 265 325 397 473
#     4  12  26  48  78 112 148 210 266 316 396 486
#     4  12  25  49  77 105 152 202 260 314 393 480
#     4  12  26  45  74 113 150 201 257 322 398 469
#     4  12  26  48  73 113 156 202 257 331 396 466
#
# _framework density 25.716850999999998
#
# number of rings (size 3 to 8) (size 9 to 14) (size 15 to 20)
#    0.000    0.000    4.444    5.333    3.111    1.778 
#    0.000    0.000    0.000    0.000    0.000    0.000 
#    0.000    0.000    0.000    0.000    0.000    0.000 
#
# Total GULP energy -200744.211116 kJ/mol
# GULP energy per Si atom -5576.228087 kJ/mol
# Density = 2.565832 g / cm^3
# Si number density = 25.716851 Si / 1000 Ang^3
#
#
#
# Elastic Constant Matrix: (Units=GPa)
#
#
# Indices 1 2 3 4 5 6 
#
# 1 34.6450 6.0814 32.6867 0.0000 0.0000 0.0000
# 2 6.0814 134.7380 40.2743 0.0000 0.0000 0.0000
# 3 32.6867 40.2743 199.3121 0.0000 0.0000 0.0000
# 4 0.0000 0.0000 0.0000 43.5554 0.0000 0.0000
# 5 0.0000 0.0000 0.0000 0.0000 37.6135 0.0000
# 6 0.0000 0.0000 0.0000 0.0000 0.0000 31.2142
#
#
#
# Elastic Compliance Matrix: (Units=1/GPa)
#
#
# Indices 1 2 3 4 5 6 
#
# 1 0.034150 0.000141 -0.005629 0.000000 0.000000 0.000000
# 2 0.000141 0.007899 -0.001619 0.000000 0.000000 0.000000
# 3 -0.005629 -0.001619 0.006268 0.000000 0.000000 0.000000
# 4 0.000000 0.000000 0.000000 0.022959 0.000000 0.000000
# 5 0.000000 0.000000 0.000000 0.000000 0.026586 0.000000
# 6 0.000000 0.000000 0.000000 0.000000 0.000000 0.032037
#
#
# Mechanical properties :
#
#
# Convention : Reuss Voigt Hill
#
# Bulk Modulus (GPa) = 29.32301 58.53108 43.92705
# Shear Modulus (GPa) = 32.15811 41.78679 36.97245
#
# Velocity S-wave (km/s) = 3.54003 4.03535 3.79578
# Velocity P-wave (km/s) = 5.30435 6.67243 6.02733
#
# Compressibility (1/GPa) = 0.03410291
#
# Stress axis : x y z
#
# Youngs Moduli (GPa) = 29.28231 126.59052 159.54971
#
# Poissons Ratio (x) = -0.01788 0.89812
# Poissons Ratio (y) = -0.00414 0.25837
# Poissons Ratio (z) = 0.16483 0.20500
#
# Static dielectric constant tensor:
#      x y z
#    x 2.165680 0.000000 0.000000 
#    y 0.000000 2.009730 0.000000 
#    z 0.000000 0.000000 2.037080 
# 
# From -- ./inp_files/8979.got.cif
#   From: 2010.05.17/outbox.cif.g08.bks.cpg/sg60_5_cif.got.tgz:8979.got - 2010.06.03 14:59:27.
