data_PCOD9458415
_publ_section_title
;
Structure prediction by ZEFSAII (Michael W. Deem and Ramdas Pophale) SiO2 
 PCOD9458415
Probable space group: P B C N
;
_chemical_formula_sum "Si O2"
_cell_formula_units_Z 48
_cell_length_a 9.438055
_cell_length_b 8.982803
_cell_length_c 23.809514
_cell_angle_alpha 90.000000
_cell_angle_beta 90.000000
_cell_angle_gamma 90.000000
_cell_volume 2018.575091
_symmetry_space_group_name_H-M "P B C N"
_symmetry_group_IT_number 60
_symmetry_cell_setting 'orthorhombic'
loop_
_space_group_symop_operation_xyz
x,y,z
1/2-x,1/2-y,1/2+z
1/2+x,1/2-y,-z
-x,y,1/2-z
-x,-y,-z
1/2+x,1/2+y,1/2-z
1/2-x,1/2+y,z
x,-y,1/2+z
loop_
_atom_site_type_symbol
_atom_site_label
_atom_site_fract_x
_atom_site_fract_y
_atom_site_fract_z
Si Si1 0.353056 0.459705 0.167743
Si Si2 0.868355 0.887481 0.005200
Si Si3 0.067901 0.506397 0.856085
Si Si4 0.342728 0.082658 0.558992
Si Si5 0.629168 0.217400 0.788621
Si Si6 0.643840 0.325079 0.136174
O O1 0.273513 0.412047 0.109677
O O2 0.282394 0.362501 0.218224
O O3 0.334474 0.635511 0.175899
O O4 0.517485 0.424737 0.159947
O O5 0.864388 0.829828 0.068502
O O6 0.876048 0.746627 0.963820
O O7 0.729407 0.980973 0.988173
O O8 0.000000 0.000000 0.000000
O O9 0.118511 0.341804 0.843500
O O10 0.201434 0.613956 0.851130
O O11 0.985264 0.512691 0.915335
O O12 0.951913 0.575933 0.815361
O O13 0.500000 0.275263 0.750000
#
# Coordination Sequence:
#
# PCOD9458415 Si02
#       6
#     8   8   8   8   8   8
#     4  11  23  46  76 103 150 193 240 310 389 447
#     4  12  26  40  68 102 143 195 264 297 350 444
#     4  11  26  44  69 100 146 190 244 306 385 434
#     4  11  24  44  67  98 146 201 244 310 369 427
#     4  11  26  49  78 109 138 189 245 306 384 471
#     4  12  25  42  67 104 144 196 244 305 361 436
#
# _framework density 23.779150000000001
#
# number of rings (size 3 to 8) (size 9 to 14) (size 15 to 20)
#    0.000    0.667    1.667    7.000    4.667    4.000 
#    0.000    1.667    0.000    0.000    0.000    0.000 
#    0.000    0.000    0.000    0.000    0.000    0.000 
#
# Total GULP energy -268414.406416 kJ/mol
# GULP energy per Si atom -5591.966800 kJ/mol
# Density = 2.372503 g / cm^3
# Si number density = 23.779150 Si / 1000 Ang^3
#
#
#
# Elastic Constant Matrix: (Units=GPa)
#
#
# Indices 1 2 3 4 5 6 
#
# 1 120.4118 10.7588 2.2589 0.0000 0.0000 0.0000
# 2 10.7588 143.4988 0.3496 0.0000 0.0000 0.0000
# 3 2.2589 0.3496 39.5798 0.0000 0.0000 0.0000
# 4 0.0000 0.0000 0.0000 27.8342 0.0000 0.0000
# 5 0.0000 0.0000 0.0000 0.0000 42.7676 0.0000
# 6 0.0000 0.0000 0.0000 0.0000 0.0000 41.4133
#
#
#
# Elastic Compliance Matrix: (Units=1/GPa)
#
#
# Indices 1 2 3 4 5 6 
#
# 1 0.008370 -0.000626 -0.000472 0.000000 0.000000 0.000000
# 2 -0.000626 0.007016 -0.000026 0.000000 0.000000 0.000000
# 3 -0.000472 -0.000026 0.025293 0.000000 0.000000 0.000000
# 4 0.000000 0.000000 0.000000 0.035927 0.000000 0.000000
# 5 0.000000 0.000000 0.000000 0.000000 0.023382 0.000000
# 6 0.000000 0.000000 0.000000 0.000000 0.000000 0.024147
#
#
# Mechanical properties :
#
#
# Convention : Reuss Voigt Hill
#
# Bulk Modulus (GPa) = 26.02233 36.69166 31.35700
# Shear Modulus (GPa) = 35.92136 41.74456 38.83296
#
# Velocity S-wave (km/s) = 3.89089 4.19443 4.04551
# Velocity P-wave (km/s) = 5.58144 6.23869 5.91920
#
# Compressibility (1/GPa) = 0.03842853
#
# Stress axis : x y z
#
# Youngs Moduli (GPa) = 119.47924 142.53695 39.53727
#
# Poissons Ratio (x) = 0.08928 0.01867
# Poissons Ratio (y) = 0.07484 0.00104
# Poissons Ratio (z) = 0.05641 0.00374
#
# Static dielectric constant tensor:
#      x y z
#    x 1.674760 0.000000 0.000000 
#    y 0.000000 1.855820 0.000000 
#    z 0.000000 0.000000 2.056020 
# 
# From -- ./inp_files/25954.got.cif
#   From: 2010.05.17/outbox.cif.g08.bks.cpg/sg60_13_cif.got.tgz:25954.got - 2010.06.03 14:59:27.
