data_PCOD9458066
_publ_section_title
;
Structure prediction by ZEFSAII (Michael W. Deem and Ramdas Pophale) SiO2 
 PCOD9458066
Probable space group: P B C N
;
_chemical_formula_sum "Si O2"
_cell_formula_units_Z 48
_cell_length_a 9.094762
_cell_length_b 8.775048
_cell_length_c 31.075577
_cell_angle_alpha 90.000000
_cell_angle_beta 90.000000
_cell_angle_gamma 90.000000
_cell_volume 2480.047738
_symmetry_space_group_name_H-M "P B C N"
_symmetry_group_IT_number 60
_symmetry_cell_setting 'orthorhombic'
loop_
_space_group_symop_operation_xyz
x,y,z
1/2-x,1/2-y,1/2+z
1/2+x,1/2-y,-z
-x,y,1/2-z
-x,-y,-z
1/2+x,1/2+y,1/2-z
1/2-x,1/2+y,z
x,-y,1/2+z
loop_
_atom_site_type_symbol
_atom_site_label
_atom_site_fract_x
_atom_site_fract_y
_atom_site_fract_z
Si Si1 0.189234 0.306537 0.082078
Si Si2 0.799072 0.665605 0.328136
Si Si3 0.552587 0.556605 0.797180
Si Si4 0.455733 0.013543 0.376997
Si Si5 0.348056 0.644008 0.877411
Si Si6 0.546995 0.504404 0.950837
O O1 0.261591 0.256151 0.127719
O O2 0.322711 0.372999 0.054807
O O3 0.068905 0.439343 0.089137
O O4 0.111919 0.158610 0.062994
O O5 0.850692 0.789752 0.294106
O O6 0.655955 0.574639 0.315418
O O7 0.934673 0.551304 0.337393
O O8 0.500000 0.515223 0.750000
O O9 0.430561 0.594334 0.833367
O O10 0.382579 0.178001 0.386309
O O11 0.322997 0.895337 0.371595
O O12 0.419098 0.551622 0.917288
O O13 0.500000 0.500000 0.000000
#
# Coordination Sequence:
#
# PCOD9458066 Si02
#       6
#     8   8   8   8   8   8
#     4  12  20  46  70  92 132 192 225 275 350 415
#     4  11  20  44  70  91 133 188 225 270 347 409
#     4  11  24  41  68 100 134 176 234 279 340 412
#     4  11  22  39  74  90 133 184 225 277 348 403
#     4  11  23  42  62 103 134 175 230 289 337 402
#     4  12  25  42  69 101 136 179 238 283 340 413
#
# _framework density 19.354465999999999
#
# number of rings (size 3 to 8) (size 9 to 14) (size 15 to 20)
#    0.000    0.667    8.333    1.000    0.000    5.333 
#    0.000    3.333    0.000    0.000    0.000    0.000 
#    0.000    0.000    0.000    0.000    0.000    0.000 
#
# Total GULP energy -268082.779916 kJ/mol
# GULP energy per Si atom -5585.057915 kJ/mol
# Density = 1.931041 g / cm^3
# Si number density = 19.354466 Si / 1000 Ang^3
#
#
#
# Elastic Constant Matrix: (Units=GPa)
#
#
# Indices 1 2 3 4 5 6 
#
# 1 90.9389 10.2935 17.0749 0.0000 0.0000 0.0000
# 2 10.2935 47.4648 3.7433 0.0000 0.0000 0.0000
# 3 17.0749 3.7433 61.9523 0.0000 0.0000 0.0000
# 4 0.0000 0.0000 0.0000 24.8281 0.0000 0.0000
# 5 0.0000 0.0000 0.0000 0.0000 25.3382 0.0000
# 6 0.0000 0.0000 0.0000 0.0000 0.0000 42.7059
#
#
#
# Elastic Compliance Matrix: (Units=1/GPa)
#
#
# Indices 1 2 3 4 5 6 
#
# 1 0.011846 -0.002323 -0.003125 0.000000 0.000000 0.000000
# 2 -0.002323 0.021624 -0.000666 0.000000 0.000000 0.000000
# 3 -0.003125 -0.000666 0.017043 0.000000 0.000000 0.000000
# 4 0.000000 0.000000 0.000000 0.040277 0.000000 0.000000
# 5 0.000000 0.000000 0.000000 0.000000 0.039466 0.000000
# 6 0.000000 0.000000 0.000000 0.000000 0.000000 0.023416
#
#
# Mechanical properties :
#
#
# Convention : Reuss Voigt Hill
#
# Bulk Modulus (GPa) = 26.11914 29.17551 27.64732
# Shear Modulus (GPa) = 27.98587 29.85739 28.92163
#
# Velocity S-wave (km/s) = 3.80671 3.93193 3.86983
# Velocity P-wave (km/s) = 5.73113 5.97666 5.85518
#
# Compressibility (1/GPa) = 0.03828610
#
# Stress axis : x y z
#
# Youngs Moduli (GPa) = 84.41687 46.24390 58.67546
#
# Poissons Ratio (x) = 0.10740 0.18334
# Poissons Ratio (y) = 0.19606 0.03910
# Poissons Ratio (z) = 0.26377 0.03082
#
# Static dielectric constant tensor:
#      x y z
#    x 1.689380 0.000000 0.000000 
#    y 0.000000 1.705480 0.000000 
#    z 0.000000 0.000000 1.706220 
# 
# From -- ./inp_files/25901.got.cif
#   From: 2010.05.17/outbox.cif.g08.bks.cpg/sg60_13_cif.got.tgz:25901.got - 2010.06.03 14:59:27.
