data_PCOD9458824
_publ_section_title
;
Structure prediction by ZEFSAII (Michael W. Deem and Ramdas Pophale) SiO2 
 PCOD9458824
Probable space group: P B C N
;
_chemical_formula_sum "Si O2"
_cell_formula_units_Z 36
_cell_length_a 8.652700
_cell_length_b 19.223305
_cell_length_c 9.109402
_cell_angle_alpha 90.000000
_cell_angle_beta 90.000000
_cell_angle_gamma 90.000000
_cell_volume 1515.198637
_symmetry_space_group_name_H-M "P B C N"
_symmetry_group_IT_number 60
_symmetry_cell_setting 'orthorhombic'
loop_
_space_group_symop_operation_xyz
x,y,z
1/2-x,1/2-y,1/2+z
1/2+x,1/2-y,-z
-x,y,1/2-z
-x,-y,-z
1/2+x,1/2+y,1/2-z
1/2-x,1/2+y,z
x,-y,1/2+z
loop_
_atom_site_type_symbol
_atom_site_label
_atom_site_fract_x
_atom_site_fract_y
_atom_site_fract_z
Si Si1 0.276448 0.950672 0.057556
Si Si2 0.959274 0.690635 0.907807
Si Si3 0.328332 0.916400 0.725804
Si Si4 0.000000 0.089350 0.750000
Si Si5 0.807684 0.171900 0.503738
O O1 0.361239 0.879670 0.105948
O O2 0.113657 0.952144 0.142434
O O3 0.359837 0.019587 0.115022
O O4 0.270448 0.945323 0.882272
O O5 0.868872 0.749810 0.994227
O O6 0.000000 0.721249 0.750000
O O7 0.125364 0.672741 0.969992
O O8 0.500000 0.883088 0.750000
O O9 0.195971 0.869227 0.651135
O O10 0.897331 0.134374 0.635758
#
# Coordination Sequence:
#
# PCOD9458824 Si02
#       5
#     8   8   8   4   8
#     4  12  27  49  80 112 153 200 256 319 379 461
#     4  12  27  48  77 111 154 202 254 312 387 451
#     4  12  27  49  82 113 150 200 260 316 392 451
#     4  12  28  50  74 114 158 202 258 312 384 454
#     4  12  29  48  78 113 154 203 253 319 380 463
#
# _framework density 23.759260999999999
#
# number of rings (size 3 to 8) (size 9 to 14) (size 15 to 20)
#    0.000    0.000    4.444    4.000    6.222    3.556 
#    2.000    0.000    0.000    0.000    0.000    0.000 
#    0.000    0.000    0.000    0.000    0.000    0.000 
#
# Total GULP energy -201520.015360 kJ/mol
# GULP energy per Si atom -5597.778204 kJ/mol
# Density = 2.370518 g / cm^3
# Si number density = 23.759261 Si / 1000 Ang^3
#
#
#
# Elastic Constant Matrix: (Units=GPa)
#
#
# Indices 1 2 3 4 5 6 
#
# 1 105.6239 29.6187 41.6554 0.0000 0.0000 0.0000
# 2 29.6187 77.4367 14.3900 0.0000 0.0000 0.0000
# 3 41.6554 14.3900 107.9419 0.0000 0.0000 0.0000
# 4 0.0000 0.0000 0.0000 110.9556 0.0000 0.0000
# 5 0.0000 0.0000 0.0000 0.0000 40.3515 0.0000
# 6 0.0000 0.0000 0.0000 0.0000 0.0000 121.6818
#
#
#
# Elastic Compliance Matrix: (Units=1/GPa)
#
#
# Indices 1 2 3 4 5 6 
#
# 1 0.012213 -0.003892 -0.004194 0.000000 0.000000 0.000000
# 2 -0.003892 0.014482 -0.000429 0.000000 0.000000 0.000000
# 3 -0.004194 -0.000429 0.010940 0.000000 0.000000 0.000000
# 4 0.000000 0.000000 0.000000 0.009013 0.000000 0.000000
# 5 0.000000 0.000000 0.000000 0.000000 0.024782 0.000000
# 6 0.000000 0.000000 0.000000 0.000000 0.000000 0.008218
#
#
# Mechanical properties :
#
#
# Convention : Reuss Voigt Hill
#
# Bulk Modulus (GPa) = 48.53125 51.37009 49.95067
# Shear Modulus (GPa) = 48.28761 68.28701 58.28731
#
# Velocity S-wave (km/s) = 4.51307 5.36690 4.95840
# Velocity P-wave (km/s) = 6.90128 7.75067 7.33827
#
# Compressibility (1/GPa) = 0.02060528
#
# Stress axis : x y z
#
# Youngs Moduli (GPa) = 81.87987 69.05097 91.40788
#
# Poissons Ratio (x) = 0.26874 0.38339
# Poissons Ratio (y) = 0.31867 0.03919
# Poissons Ratio (z) = 0.34342 0.02960
#
# Static dielectric constant tensor:
#      x y z
#    x 1.843060 0.000000 0.000000 
#    y 0.000000 1.850600 0.000000 
#    z 0.000000 0.000000 2.163620 
# 
# From -- ./inp_files/3682.got.cif
#   From: 2010.05.17/outbox.cif.g08.bks.cpg/sg60_2_cif.got.tgz:3682.got - 2010.06.03 14:59:27.
