data_PCOD9458347
_publ_section_title
;
Structure prediction by ZEFSAII (Michael W. Deem and Ramdas Pophale) SiO2 
 PCOD9458347
Probable space group: P B C N
;
_chemical_formula_sum "Si O2"
_cell_formula_units_Z 32
_cell_length_a 8.999431
_cell_length_b 15.560564
_cell_length_c 10.185683
_cell_angle_alpha 90.000000
_cell_angle_beta 90.000000
_cell_angle_gamma 90.000000
_cell_volume 1426.364566
_symmetry_space_group_name_H-M "P B C N"
_symmetry_group_IT_number 60
_symmetry_cell_setting 'orthorhombic'
loop_
_space_group_symop_operation_xyz
x,y,z
1/2-x,1/2-y,1/2+z
1/2+x,1/2-y,-z
-x,y,1/2-z
-x,-y,-z
1/2+x,1/2+y,1/2-z
1/2-x,1/2+y,z
x,-y,1/2+z
loop_
_atom_site_type_symbol
_atom_site_label
_atom_site_fract_x
_atom_site_fract_y
_atom_site_fract_z
Si Si1 0.624194 0.586107 0.642280
Si Si2 0.854535 0.090692 0.034328
Si Si3 0.439391 0.929569 0.099470
Si Si4 0.112475 0.723002 0.869811
O O1 0.500000 0.601499 0.750000
O O2 0.673894 0.486127 0.637770
O O3 0.527674 0.591837 0.507506
O O4 0.750168 0.657924 0.652643
O O5 0.827324 0.187234 0.080591
O O6 0.738079 0.071335 0.916843
O O7 0.500000 0.940569 0.250000
O O8 0.504217 0.838683 0.046110
O O9 0.500000 0.000000 0.000000
O O10 0.000000 0.742966 0.750000
#
# Coordination Sequence:
#
# PCOD9458347 Si02
#       4
#     8   8   8   8
#     4  11  23  42  66  97 138 185 240 307 369 439
#     4  11  24  42  69  99 141 191 243 303 380 441
#     4  11  23  45  71 105 146 193 247 308 371 448
#     4  11  23  44  69 101 144 189 250 305 366 447
#
# _framework density 22.434659
#
# number of rings (size 3 to 8) (size 9 to 14) (size 15 to 20)
#    0.000    1.000    2.500    5.250    0.000    0.000 
#    0.000    8.750    0.000    0.000    0.000    0.000 
#    0.000    0.000    0.000    0.000    0.000    0.000 
#
# Total GULP energy -178371.629241 kJ/mol
# GULP energy per Si atom -5574.113414 kJ/mol
# Density = 2.238360 g / cm^3
# Si number density = 22.434659 Si / 1000 Ang^3
#
#
#
# Elastic Constant Matrix: (Units=GPa)
#
#
# Indices 1 2 3 4 5 6 
#
# 1 148.7881 38.3595 34.2759 0.0000 0.0000 0.0000
# 2 38.3595 165.4608 46.3219 0.0000 0.0000 0.0000
# 3 34.2759 46.3219 59.5556 0.0000 0.0000 0.0000
# 4 0.0000 0.0000 0.0000 19.9699 0.0000 0.0000
# 5 0.0000 0.0000 0.0000 0.0000 34.5184 0.0000
# 6 0.0000 0.0000 0.0000 0.0000 0.0000 38.2297
#
#
#
# Elastic Compliance Matrix: (Units=1/GPa)
#
#
# Indices 1 2 3 4 5 6 
#
# 1 0.007812 -0.000706 -0.003947 0.000000 0.000000 0.000000
# 2 -0.000706 0.007790 -0.005652 0.000000 0.000000 0.000000
# 3 -0.003947 -0.005652 0.023459 0.000000 0.000000 0.000000
# 4 0.000000 0.000000 0.000000 0.050075 0.000000 0.000000
# 5 0.000000 0.000000 0.000000 0.000000 0.028970 0.000000
# 6 0.000000 0.000000 0.000000 0.000000 0.000000 0.026158
#
#
# Mechanical properties :
#
#
# Convention : Reuss Voigt Hill
#
# Bulk Modulus (GPa) = 54.20042 67.96877 61.08459
# Shear Modulus (GPa) = 29.23542 35.53342 32.38442
#
# Velocity S-wave (km/s) = 3.61381 3.98409 3.80346
# Velocity P-wave (km/s) = 6.45171 7.17817 6.82461
#
# Compressibility (1/GPa) = 0.01845004
#
# Stress axis : x y z
#
# Youngs Moduli (GPa) = 128.00377 128.37135 42.62749
#
# Poissons Ratio (x) = 0.09065 0.16825
# Poissons Ratio (y) = 0.09039 0.24095
# Poissons Ratio (z) = 0.50522 0.72562
#
# Static dielectric constant tensor:
#      x y z
#    x 1.904810 0.000000 0.000000 
#    y 0.000000 1.852590 0.000000 
#    z 0.000000 0.000000 1.941350 
# 
# From -- ./inp_files/9582.got.cif
#   From: 2010.05.17/outbox.cif.g08.bks.cpg/sg60_5_cif.got.tgz:9582.got - 2010.06.03 14:59:27.
