data_PCOD9458168
_publ_section_title
;
Structure prediction by ZEFSAII (Michael W. Deem and Ramdas Pophale) SiO2 
 PCOD9458168
Probable space group: P B C N
;
_chemical_formula_sum "Si O2"
_cell_formula_units_Z 40
_cell_length_a 6.327871
_cell_length_b 14.939052
_cell_length_c 18.003024
_cell_angle_alpha 90.000000
_cell_angle_beta 90.000000
_cell_angle_gamma 90.000000
_cell_volume 1701.868956
_symmetry_space_group_name_H-M "P B C N"
_symmetry_group_IT_number 60
_symmetry_cell_setting 'orthorhombic'
loop_
_space_group_symop_operation_xyz
x,y,z
1/2-x,1/2-y,1/2+z
1/2+x,1/2-y,-z
-x,y,1/2-z
-x,-y,-z
1/2+x,1/2+y,1/2-z
1/2-x,1/2+y,z
x,-y,1/2+z
loop_
_atom_site_type_symbol
_atom_site_label
_atom_site_fract_x
_atom_site_fract_y
_atom_site_fract_z
Si Si1 0.257668 0.178761 0.929586
Si Si2 0.648966 0.918636 0.378241
Si Si3 0.387128 0.744919 0.674764
Si Si4 0.596508 0.370013 0.524520
Si Si5 0.903791 0.086875 0.332328
O O1 0.409512 0.115125 0.882317
O O2 0.378142 0.262764 0.965402
O O3 0.075404 0.227693 0.882603
O O4 0.135799 0.118599 0.989255
O O5 0.768897 0.849616 0.324022
O O6 0.738749 0.903081 0.462542
O O7 0.723182 0.014472 0.350309
O O8 0.500000 0.771635 0.750000
O O9 0.210435 0.817746 0.657162
O O10 0.587192 0.416151 0.604793
O O11 0.000000 0.078396 0.250000
#
# Coordination Sequence:
#
# PCOD9458168 Si02
#       5
#     8   8   8   8   8
#     4  11  21  43  74 103 141 191 245 294 371 427
#     4  11  25  45  75 102 146 186 245 307 364 436
#     4  11  25  46  69 101 146 196 239 300 367 437
#     4  11  21  43  73 105 139 187 244 300 360 435
#     4  12  26  48  71 109 148 192 246 303 374 443
#
# _framework density 23.503571999999998
#
# number of rings (size 3 to 8) (size 9 to 14) (size 15 to 20)
#    0.000    0.800    4.000    3.600    0.000    0.800 
#   18.000    0.000    0.000    0.000    0.000    0.000 
#    0.000    0.000    0.000    0.000    0.000    0.000 
#
# Total GULP energy -223767.167275 kJ/mol
# GULP energy per Si atom -5594.179182 kJ/mol
# Density = 2.345008 g / cm^3
# Si number density = 23.503572 Si / 1000 Ang^3
#
#
#
# Elastic Constant Matrix: (Units=GPa)
#
#
# Indices 1 2 3 4 5 6 
#
# 1 63.0212 -10.8599 36.3228 0.0000 0.0000 0.0000
# 2 -10.8599 59.3171 10.5504 0.0000 0.0000 0.0000
# 3 36.3228 10.5504 104.0810 0.0000 0.0000 0.0000
# 4 0.0000 0.0000 0.0000 19.9166 0.0000 0.0000
# 5 0.0000 0.0000 0.0000 0.0000 11.4291 0.0000
# 6 0.0000 0.0000 0.0000 0.0000 0.0000 22.4724
#
#
#
# Elastic Compliance Matrix: (Units=1/GPa)
#
#
# Indices 1 2 3 4 5 6 
#
# 1 0.021407 0.005344 -0.008012 0.000000 0.000000 0.000000
# 2 0.005344 0.018502 -0.003741 0.000000 0.000000 0.000000
# 3 -0.008012 -0.003741 0.012783 0.000000 0.000000 0.000000
# 4 0.000000 0.000000 0.000000 0.050209 0.000000 0.000000
# 5 0.000000 0.000000 0.000000 0.000000 0.087496 0.000000
# 6 0.000000 0.000000 0.000000 0.000000 0.000000 0.044499
#
#
# Mechanical properties :
#
#
# Convention : Reuss Voigt Hill
#
# Bulk Modulus (GPa) = 25.07847 33.16065 29.11956
# Shear Modulus (GPa) = 19.15672 23.45738 21.30705
#
# Velocity S-wave (km/s) = 2.85801 3.16260 3.01416
# Velocity P-wave (km/s) = 4.64588 5.24170 4.95276
#
# Compressibility (1/GPa) = 0.03987484
#
# Stress axis : x y z
#
# Youngs Moduli (GPa) = 46.71459 54.04734 78.22729
#
# Poissons Ratio (x) = -0.28884 0.62678
# Poissons Ratio (y) = -0.24966 0.29262
# Poissons Ratio (z) = 0.37429 0.20217
#
# Static dielectric constant tensor:
#      x y z
#    x 1.901390 0.000000 0.000000 
#    y 0.000000 1.858900 0.000000 
#    z 0.000000 0.000000 1.929630 
# 
# From -- ./inp_files/18537.got.cif
#   From: 2010.05.17/outbox.cif.g08.bks.cpg/sg60_10_cif.got.tgz:18537.got - 2010.06.03 14:59:27.
