data_PCOD9458594
_publ_section_title
;
Structure prediction by ZEFSAII (Michael W. Deem and Ramdas Pophale) SiO2 
 PCOD9458594
Probable space group: P B C N
;
_chemical_formula_sum "Si O2"
_cell_formula_units_Z 36
_cell_length_a 5.116480
_cell_length_b 18.028593
_cell_length_c 14.096458
_cell_angle_alpha 90.000000
_cell_angle_beta 90.000000
_cell_angle_gamma 90.000000
_cell_volume 1300.298666
_symmetry_space_group_name_H-M "P B C N"
_symmetry_group_IT_number 60
_symmetry_cell_setting 'orthorhombic'
loop_
_space_group_symop_operation_xyz
x,y,z
1/2-x,1/2-y,1/2+z
1/2+x,1/2-y,-z
-x,y,1/2-z
-x,-y,-z
1/2+x,1/2+y,1/2-z
1/2-x,1/2+y,z
x,-y,1/2+z
loop_
_atom_site_type_symbol
_atom_site_label
_atom_site_fract_x
_atom_site_fract_y
_atom_site_fract_z
Si Si1 0.445745 0.226080 0.991002
Si Si2 0.729461 0.955207 0.616003
Si Si3 0.000000 0.072048 0.750000
Si Si4 0.255773 0.793480 0.808066
Si Si5 0.832345 0.420922 0.414902
O O1 0.701764 0.233830 0.081994
O O2 0.190886 0.229291 0.061638
O O3 0.466761 0.141872 0.951198
O O4 0.725864 0.882074 0.678647
O O5 0.832046 0.931178 0.512055
O O6 0.453166 0.997729 0.603648
O O7 0.882156 0.018517 0.670466
O O8 0.212105 0.109965 0.682819
O O9 0.500000 0.765482 0.750000
O O10 0.000000 0.773912 0.750000
#
# Coordination Sequence:
#
# PCOD9458594 Si02
#       5
#     8   8   4   8   8
#     4  12  28  53  77 111 160 214 261 323 399 479
#     4  11  25  48  78 111 154 208 263 331 393 468
#     4  12  24  46  78 118 150 198 264 346 390 464
#     4  12  26  49  78 114 155 208 267 322 390 477
#     4  11  27  48  78 113 158 206 267 326 403 466
#
# _framework density 27.685945
#
# number of rings (size 3 to 8) (size 9 to 14) (size 15 to 20)
#    0.000    0.444    3.333    4.000    3.111    3.556 
#    4.000    0.000    0.000    0.000    0.000    0.000 
#    0.000    0.000    0.000    0.000    0.000    0.000 
#
# Total GULP energy -200966.846076 kJ/mol
# GULP energy per Si atom -5582.412391 kJ/mol
# Density = 2.762293 g / cm^3
# Si number density = 27.685945 Si / 1000 Ang^3
#
#
#
# Elastic Constant Matrix: (Units=GPa)
#
#
# Indices 1 2 3 4 5 6 
#
# 1 176.6346 14.8380 70.5570 0.0000 0.0000 0.0000
# 2 14.8380 103.1649 10.7628 0.0000 0.0000 0.0000
# 3 70.5570 10.7628 195.3959 0.0000 0.0000 0.0000
# 4 0.0000 0.0000 0.0000 38.5735 0.0000 0.0000
# 5 0.0000 0.0000 0.0000 0.0000 44.1993 0.0000
# 6 0.0000 0.0000 0.0000 0.0000 0.0000 34.2869
#
#
#
# Elastic Compliance Matrix: (Units=1/GPa)
#
#
# Indices 1 2 3 4 5 6 
#
# 1 0.006667 -0.000712 -0.002368 0.000000 0.000000 0.000000
# 2 -0.000712 0.009825 -0.000284 0.000000 0.000000 0.000000
# 3 -0.002368 -0.000284 0.005989 0.000000 0.000000 0.000000
# 4 0.000000 0.000000 0.000000 0.025925 0.000000 0.000000
# 5 0.000000 0.000000 0.000000 0.000000 0.022625 0.000000
# 6 0.000000 0.000000 0.000000 0.000000 0.000000 0.029166
#
#
# Mechanical properties :
#
#
# Convention : Reuss Voigt Hill
#
# Bulk Modulus (GPa) = 63.48197 74.16792 68.82495
# Shear Modulus (GPa) = 44.57298 48.68111 46.62704
#
# Velocity S-wave (km/s) = 4.01677 4.19780 4.10828
# Velocity P-wave (km/s) = 6.67021 7.09525 6.88601
#
# Compressibility (1/GPa) = 0.01575250
#
# Stress axis : x y z
#
# Youngs Moduli (GPa) = 149.98732 101.77861 166.98234
#
# Poissons Ratio (x) = 0.07245 0.39547
# Poissons Ratio (y) = 0.10677 0.04745
# Poissons Ratio (z) = 0.35522 0.02892
#
# Static dielectric constant tensor:
#      x y z
#    x 2.793630 0.000000 0.000000 
#    y 0.000000 2.061040 0.000000 
#    z 0.000000 0.000000 2.244400 
# 
# From -- ./inp_files/13725.got.cif
#   From: 2010.05.17/outbox.cif.g08.bks.cpg/sg60_7_cif.got.tgz:13725.got - 2010.06.03 14:59:27.
