data_PCOD9458679
_publ_section_title
;
Structure prediction by ZEFSAII (Michael W. Deem and Ramdas Pophale) SiO2 
 PCOD9458679
Probable space group: P B C N
;
_chemical_formula_sum "Si O2"
_cell_formula_units_Z 24
_cell_length_a 4.920213
_cell_length_b 17.914099
_cell_length_c 13.053663
_cell_angle_alpha 90.000000
_cell_angle_beta 90.000000
_cell_angle_gamma 90.000000
_cell_volume 1150.565296
_symmetry_space_group_name_H-M "P B C N"
_symmetry_group_IT_number 60
_symmetry_cell_setting 'orthorhombic'
loop_
_space_group_symop_operation_xyz
x,y,z
1/2-x,1/2-y,1/2+z
1/2+x,1/2-y,-z
-x,y,1/2-z
-x,-y,-z
1/2+x,1/2+y,1/2-z
1/2-x,1/2+y,z
x,-y,1/2+z
loop_
_atom_site_type_symbol
_atom_site_label
_atom_site_fract_x
_atom_site_fract_y
_atom_site_fract_z
Si Si1 0.757144 0.952374 0.458361
Si Si2 0.150263 0.210970 0.457104
Si Si3 0.500000 0.223571 0.750000
Si Si4 0.000000 0.111740 0.750000
O O1 0.755927 0.871228 0.511400
O O2 0.853816 0.936809 0.340178
O O3 0.500000 0.000000 0.500000
O O4 0.000000 0.000000 0.500000
O O5 0.420514 0.260804 0.464523
O O6 0.001879 0.223145 0.348820
O O7 0.249117 0.168121 0.772680
#
# Coordination Sequence:
#
# PCOD9458679 Si02
#       4
#     8   8   4   4
#     4  12  26  45  70 108 154 192 243 314 382 459
#     4  12  23  44  73 108 140 188 254 305 363 453
#     4  12  22  43  76 107 138 190 256 310 364 453
#     4  12  24  45  74 103 142 204 240 302 400 443
#
# _framework density 20.859313
#
# number of rings (size 3 to 8) (size 9 to 14) (size 15 to 20)
#    0.000    0.000    6.667    4.000    0.000    1.333 
#    0.000    3.333    0.000    0.000    0.000    0.000 
#    0.000    0.000    0.000    0.000    0.000    0.000 
#
# Total GULP energy -133635.501062 kJ/mol
# GULP energy per Si atom -5568.145878 kJ/mol
# Density = 2.081184 g / cm^3
# Si number density = 20.859313 Si / 1000 Ang^3
#
#
#
# Elastic Constant Matrix: (Units=GPa)
#
#
# Indices 1 2 3 4 5 6 
#
# 1 186.1567 68.1705 50.8817 0.0000 0.0000 0.0000
# 2 68.1705 140.5312 89.1215 0.0000 0.0000 0.0000
# 3 50.8817 89.1215 147.1643 0.0000 0.0000 0.0000
# 4 0.0000 0.0000 0.0000 50.3316 0.0000 0.0000
# 5 0.0000 0.0000 0.0000 0.0000 28.2146 0.0000
# 6 0.0000 0.0000 0.0000 0.0000 0.0000 89.6917
#
#
#
# Elastic Compliance Matrix: (Units=1/GPa)
#
#
# Indices 1 2 3 4 5 6 
#
# 1 0.006560 -0.002831 -0.000554 0.000000 0.000000 0.000000
# 2 -0.002831 0.012774 -0.006757 0.000000 0.000000 0.000000
# 3 -0.000554 -0.006757 0.011079 0.000000 0.000000 0.000000
# 4 0.000000 0.000000 0.000000 0.019868 0.000000 0.000000
# 5 0.000000 0.000000 0.000000 0.000000 0.035443 0.000000
# 6 0.000000 0.000000 0.000000 0.000000 0.000000 0.011149
#
#
# Mechanical properties :
#
#
# Convention : Reuss Voigt Hill
#
# Bulk Modulus (GPa) = 98.72490 98.91105 98.81797
# Shear Modulus (GPa) = 41.48224 51.35950 46.42087
#
# Velocity S-wave (km/s) = 4.46429 4.96742 4.72256
# Velocity P-wave (km/s) = 8.60260 8.96780 8.78710
#
# Compressibility (1/GPa) = 0.01012916
#
# Stress axis : x y z
#
# Youngs Moduli (GPa) = 152.44227 78.28095 90.26335
#
# Poissons Ratio (x) = 0.22162 0.04997
# Poissons Ratio (y) = 0.43157 0.60994
# Poissons Ratio (z) = 0.08439 0.52897
#
# Static dielectric constant tensor:
#      x y z
#    x 1.852670 0.000000 0.000000 
#    y 0.000000 1.687650 0.000000 
#    z 0.000000 0.000000 1.591910 
# 
# From -- ./inp_files/8689.got.cif
#   From: 2010.05.17/outbox.cif.g08.bks.cpg/sg60_5_cif.got.tgz:8689.got - 2010.06.03 14:59:27.
