data_PCOD9458078
_publ_section_title
;
Structure prediction by ZEFSAII (Michael W. Deem and Ramdas Pophale) SiO2 
 PCOD9458078
Probable space group: P B C N
;
_chemical_formula_sum "Si O2"
_cell_formula_units_Z 40
_cell_length_a 22.945524
_cell_length_b 9.615162
_cell_length_c 8.173581
_cell_angle_alpha 90.000000
_cell_angle_beta 90.000000
_cell_angle_gamma 90.000000
_cell_volume 1803.295740
_symmetry_space_group_name_H-M "P B C N"
_symmetry_group_IT_number 60
_symmetry_cell_setting 'orthorhombic'
loop_
_space_group_symop_operation_xyz
x,y,z
1/2-x,1/2-y,1/2+z
1/2+x,1/2-y,-z
-x,y,1/2-z
-x,-y,-z
1/2+x,1/2+y,1/2-z
1/2-x,1/2+y,z
x,-y,1/2+z
loop_
_atom_site_type_symbol
_atom_site_label
_atom_site_fract_x
_atom_site_fract_y
_atom_site_fract_z
Si Si1 0.423668 0.784702 0.904821
Si Si2 0.741037 0.074052 0.921085
Si Si3 0.306351 0.332956 0.382314
Si Si4 0.381939 0.952287 0.227477
Si Si5 0.025681 0.352635 0.432799
O O1 0.376542 0.663872 0.887182
O O2 0.401660 0.865235 0.069394
O O3 0.491056 0.750313 0.945000
O O4 0.412630 0.897893 0.759933
O O5 0.785854 0.149428 0.801806
O O6 0.716043 0.186134 0.048002
O O7 0.686279 0.030276 0.805792
O O8 0.774591 0.949648 0.009205
O O9 0.405760 0.867150 0.387664
O O10 0.000000 0.331112 0.250000
O O11 0.000000 0.500000 0.500000
#
# Coordination Sequence:
#
# PCOD9458078 Si02
#       5
#     8   8   8   8   8
#     4   9  17  29  47  73 103 135 166 212 268 318
#     4  11  21  35  52  78 106 143 178 219 269 322
#     4  11  22  35  53  77 112 144 180 221 269 331
#     4   9  16  28  47  71 101 131 168 214 258 308
#     4   8  14  25  43  69  97 127 162 210 264 305
#
# _framework density 22.181609000000002
#
# number of rings (size 3 to 8) (size 9 to 14) (size 15 to 20)
#    0.000    2.400    0.000    4.800    0.000    0.000 
#    0.000    0.000    0.000    0.000    0.000   50.400 
#    0.000    0.000    0.000    0.000    0.000    0.000 
#
# Total GULP energy -222684.629768 kJ/mol
# GULP energy per Si atom -5567.115744 kJ/mol
# Density = 2.213112 g / cm^3
# Si number density = 22.181609 Si / 1000 Ang^3
#
#
#
# Elastic Constant Matrix: (Units=GPa)
#
#
# Indices 1 2 3 4 5 6 
#
# 1 67.9680 12.4736 -14.6608 0.0000 0.0000 0.0000
# 2 12.4736 50.2340 8.3188 0.0000 0.0000 0.0000
# 3 -14.6608 8.3188 66.1072 0.0000 0.0000 0.0000
# 4 0.0000 0.0000 0.0000 31.0737 0.0000 0.0000
# 5 0.0000 0.0000 0.0000 0.0000 22.2419 0.0000
# 6 0.0000 0.0000 0.0000 0.0000 0.0000 26.7321
#
#
#
# Elastic Compliance Matrix: (Units=1/GPa)
#
#
# Indices 1 2 3 4 5 6 
#
# 1 0.016516 -0.004808 0.004268 0.000000 0.000000 0.000000
# 2 -0.004808 0.021730 -0.003801 0.000000 0.000000 0.000000
# 3 0.004268 -0.003801 0.016552 0.000000 0.000000 0.000000
# 4 0.000000 0.000000 0.000000 0.032182 0.000000 0.000000
# 5 0.000000 0.000000 0.000000 0.000000 0.044960 0.000000
# 6 0.000000 0.000000 0.000000 0.000000 0.000000 0.037408
#
#
# Mechanical properties :
#
#
# Convention : Reuss Voigt Hill
#
# Bulk Modulus (GPa) = 21.68445 21.84138 21.76292
# Shear Modulus (GPa) = 25.85304 27.88805 26.87054
#
# Velocity S-wave (km/s) = 3.41767 3.54963 3.48428
# Velocity P-wave (km/s) = 5.03697 5.16409 5.10093
#
# Compressibility (1/GPa) = 0.04611599
#
# Stress axis : x y z
#
# Youngs Moduli (GPa) = 60.54855 46.01922 60.41682
#
# Poissons Ratio (x) = 0.22125 -0.25784
# Poissons Ratio (y) = 0.29110 0.22963
# Poissons Ratio (z) = -0.25840 0.17491
#
# Static dielectric constant tensor:
#      x y z
#    x 2.054160 0.000000 0.000000 
#    y 0.000000 1.829300 0.000000 
#    z 0.000000 0.000000 1.875500 
# 
# From -- ./inp_files/7726.got.cif
#   From: 2010.05.17/outbox.cif.g08.bks.cpg/sg60_4_cif.got.tgz:7726.got - 2010.06.03 14:59:27.
