data_PCOD9458875
_publ_section_title
;
Structure prediction by ZEFSAII (Michael W. Deem and Ramdas Pophale) SiO2 
 PCOD9458875
Probable space group: P B C N
;
_chemical_formula_sum "Si O2"
_cell_formula_units_Z 48
_cell_length_a 15.000000
_cell_length_b 9.000000
_cell_length_c 18.000000
_cell_angle_alpha 90.000000
_cell_angle_beta 90.000000
_cell_angle_gamma 90.000000
_cell_volume 2430.000000
_symmetry_space_group_name_H-M "P B C N"
_symmetry_group_IT_number 60
_symmetry_cell_setting 'orthorhombic'
loop_
_space_group_symop_operation_xyz
x,y,z
1/2-x,1/2-y,1/2+z
1/2+x,1/2-y,-z
-x,y,1/2-z
-x,-y,-z
1/2+x,1/2+y,1/2-z
1/2-x,1/2+y,z
x,-y,1/2+z
loop_
_atom_site_type_symbol
_atom_site_label
_atom_site_fract_x
_atom_site_fract_y
_atom_site_fract_z
Si Si1 0.643260 0.691633 0.713362
Si Si2 0.526945 0.673255 0.859976
Si Si3 0.832216 0.868092 0.478812
Si Si4 0.961383 0.166254 0.117420
Si Si5 0.171568 0.158641 0.261667
Si Si6 0.656216 0.296731 0.916777
O O1 0.585819 0.715153 0.788429
O O2 0.573286 0.734260 0.648453
O O3 0.666166 0.516551 0.719683
O O4 0.734966 0.778300 0.709590
O O5 0.591435 0.708403 0.927707
O O6 0.504416 0.495880 0.862951
O O7 0.878053 0.851557 0.560047
O O8 0.734297 0.803214 0.455925
O O9 0.833207 0.041922 0.455655
O O10 0.913571 0.224201 0.192869
O O11 0.049541 0.246070 0.082134
O O12 0.172275 0.188423 0.172756
#
# Coordination Sequence:
#
# PCOD9458875 Si02
#       6
#     8   8   8   8   8   8
#     4  10  19  32  61  84 112 143 196 236 279 335
#     4   9  17  35  55  82 110 150 190 229 274 346
#     4  11  22  37  60  85 113 153 193 237 292 341
#     4  10  22  35  60  84 115 154 196 229 290 350
#     4  11  19  36  58  87 110 152 189 241 278 345
#     4  11  20  39  59  82 112 151 196 235 284 347
#
# _framework density 19.753086
#
# number of rings (size 3 to 8) (size 9 to 14) (size 15 to 20)
#    0.000    1.667    5.000    2.500    0.000    4.000 
#    0.000    2.500    3.667    0.000    0.000    0.000 
#    0.000    0.000    0.000    0.000    0.000    0.000 
#
# Total GULP energy -267273.410603 kJ/mol
# GULP energy per Si atom -5568.196054 kJ/mol
# Density = 1.970813 g / cm^3
# Si number density = 19.753086 Si / 1000 Ang^3
#
#
#
# Elastic Constant Matrix: (Units=GPa)
#
#
# Indices 1 2 3 4 5 6 
#
# 1 173.0381 25.8948 27.4713 0.0000 0.0000 0.0000
# 2 25.8948 18.6247 0.6057 0.0000 0.0000 0.0000
# 3 27.4713 0.6057 53.0556 0.0000 0.0000 0.0000
# 4 0.0000 0.0000 0.0000 11.5389 0.0000 0.0000
# 5 0.0000 0.0000 0.0000 0.0000 41.4685 0.0000
# 6 0.0000 0.0000 0.0000 0.0000 0.0000 39.6530
#
#
#
# Elastic Compliance Matrix: (Units=1/GPa)
#
#
# Indices 1 2 3 4 5 6 
#
# 1 0.008086 -0.011111 -0.004060 0.000000 0.000000 0.000000
# 2 -0.011111 0.068978 0.004965 0.000000 0.000000 0.000000
# 3 -0.004060 0.004965 0.020894 0.000000 0.000000 0.000000
# 4 0.000000 0.000000 0.000000 0.086663 0.000000 0.000000
# 5 0.000000 0.000000 0.000000 0.000000 0.024115 0.000000
# 6 0.000000 0.000000 0.000000 0.000000 0.000000 0.025219
#
#
# Mechanical properties :
#
#
# Convention : Reuss Voigt Hill
#
# Bulk Modulus (GPa) = 12.89532 39.18467 26.04000
# Shear Modulus (GPa) = 17.84341 31.24850 24.54596
#
# Velocity S-wave (km/s) = 3.00879 3.98170 3.52893
# Velocity P-wave (km/s) = 4.31426 6.40459 5.46039
#
# Compressibility (1/GPa) = 0.07754753
#
# Stress axis : x y z
#
# Youngs Moduli (GPa) = 123.66493 14.49729 47.86126
#
# Poissons Ratio (x) = 0.16108 0.19432
# Poissons Ratio (y) = 1.37402 -0.23765
# Poissons Ratio (z) = 0.50210 -0.07199
#
# Static dielectric constant tensor:
#      x y z
#    x 1.722050 0.000000 0.000000 
#    y 0.000000 1.698400 0.000000 
#    z 0.000000 0.000000 1.803270 
# 
# From -- ./inp_files/20467.got.cif
#   From: 2010.05.17/outbox.ucp.g08.bks.cvg/sg60_11_cif.got.tgz:20467.got - 2010.06.11 16:26:41.
