data_PCOD9458705
_publ_section_title
;
Structure prediction by ZEFSAII (Michael W. Deem and Ramdas Pophale) SiO2 
 PCOD9458705
Probable space group: P B C N
;
_chemical_formula_sum "Si O2"
_cell_formula_units_Z 40
_cell_length_a 7.949292
_cell_length_b 24.141486
_cell_length_c 8.868306
_cell_angle_alpha 90.000000
_cell_angle_beta 90.000000
_cell_angle_gamma 90.000000
_cell_volume 1701.896398
_symmetry_space_group_name_H-M "P B C N"
_symmetry_group_IT_number 60
_symmetry_cell_setting 'orthorhombic'
loop_
_space_group_symop_operation_xyz
x,y,z
1/2-x,1/2-y,1/2+z
1/2+x,1/2-y,-z
-x,y,1/2-z
-x,-y,-z
1/2+x,1/2+y,1/2-z
1/2-x,1/2+y,z
x,-y,1/2+z
loop_
_atom_site_type_symbol
_atom_site_label
_atom_site_fract_x
_atom_site_fract_y
_atom_site_fract_z
Si Si1 0.693886 0.363698 0.530302
Si Si2 0.810916 0.827750 0.025932
Si Si3 0.683596 0.914073 0.822338
Si Si4 0.625991 0.473935 0.378444
Si Si5 0.178755 0.724413 0.672231
O O1 0.507543 0.341512 0.494925
O O2 0.706780 0.378093 0.705202
O O3 0.721513 0.422006 0.446736
O O4 0.824370 0.319447 0.464994
O O5 0.707739 0.883157 0.981998
O O6 0.757127 0.780040 0.907131
O O7 0.783190 0.803776 0.192884
O O8 0.500000 0.913593 0.750000
O O9 0.754972 0.976126 0.827530
O O10 0.500000 0.453324 0.250000
O O11 0.500000 0.500000 0.500000
O O12 0.000000 0.735476 0.750000
#
# Coordination Sequence:
#
# PCOD9458705 Si02
#       5
#     8   8   8   8   8
#     4  12  26  46  73 100 141 191 235 282 354 426
#     4  12  24  46  70  98 138 188 232 282 357 427
#     4  12  26  44  70 102 140 181 233 300 347 406
#     4  12  23  46  73 101 137 188 233 280 345 429
#     4  12  26  42  69 103 139 178 235 298 347 415
#
# _framework density 23.503194000000001
#
# number of rings (size 3 to 8) (size 9 to 14) (size 15 to 20)
#    0.000    0.000    4.000    7.200    0.000    3.200 
#    0.000    0.000    0.000    0.000    0.000    0.000 
#    0.000    0.000    0.000    0.000    0.000    0.000 
#
# Total GULP energy -224076.933424 kJ/mol
# GULP energy per Si atom -5601.923336 kJ/mol
# Density = 2.344970 g / cm^3
# Si number density = 23.503194 Si / 1000 Ang^3
#
#
#
# Elastic Constant Matrix: (Units=GPa)
#
#
# Indices 1 2 3 4 5 6 
#
# 1 64.3148 -10.7757 -3.3264 0.0000 0.0000 0.0000
# 2 -10.7757 128.7249 20.8583 0.0000 0.0000 0.0000
# 3 -3.3264 20.8583 75.3735 0.0000 0.0000 0.0000
# 4 0.0000 0.0000 0.0000 48.5004 0.0000 0.0000
# 5 0.0000 0.0000 0.0000 0.0000 33.8822 0.0000
# 6 0.0000 0.0000 0.0000 0.0000 0.0000 37.0294
#
#
#
# Elastic Compliance Matrix: (Units=1/GPa)
#
#
# Indices 1 2 3 4 5 6 
#
# 1 0.015778 0.001265 0.000346 0.000000 0.000000 0.000000
# 2 0.001265 0.008235 -0.002223 0.000000 0.000000 0.000000
# 3 0.000346 -0.002223 0.013898 0.000000 0.000000 0.000000
# 4 0.000000 0.000000 0.000000 0.020618 0.000000 0.000000
# 5 0.000000 0.000000 0.000000 0.000000 0.029514 0.000000
# 6 0.000000 0.000000 0.000000 0.000000 0.000000 0.027006
#
#
# Mechanical properties :
#
#
# Convention : Reuss Voigt Hill
#
# Bulk Modulus (GPa) = 27.25778 31.32507 29.29142
# Shear Modulus (GPa) = 38.91010 41.32620 40.11815
#
# Velocity S-wave (km/s) = 4.07323 4.19779 4.13598
# Velocity P-wave (km/s) = 5.80898 6.07060 5.94123
#
# Compressibility (1/GPa) = 0.03668678
#
# Stress axis : x y z
#
# Youngs Moduli (GPa) = 63.37811 121.43914 71.95429
#
# Poissons Ratio (x) = -0.15358 -0.02492
# Poissons Ratio (y) = -0.08015 0.15995
# Poissons Ratio (z) = -0.02195 0.26995
#
# Static dielectric constant tensor:
#      x y z
#    x 1.879420 0.000000 0.000000 
#    y 0.000000 1.863480 0.000000 
#    z 0.000000 0.000000 2.345960 
# 
# From -- ./inp_files/3801.got.cif
#   From: 2010.05.17/outbox.cif.g08.bks.cpg/sg60_2_cif.got.tgz:3801.got - 2010.06.03 14:59:27.
