data_PCOD9458489
_publ_section_title
;
Structure prediction by ZEFSAII (Michael W. Deem and Ramdas Pophale) SiO2 
 PCOD9458489
Probable space group: P B C N
;
_chemical_formula_sum "Si O2"
_cell_formula_units_Z 20
_cell_length_a 7.993979
_cell_length_b 20.619978
_cell_length_c 5.386735
_cell_angle_alpha 90.000000
_cell_angle_beta 90.000000
_cell_angle_gamma 90.000000
_cell_volume 887.926079
_symmetry_space_group_name_H-M "P B C N"
_symmetry_group_IT_number 60
_symmetry_cell_setting 'orthorhombic'
loop_
_space_group_symop_operation_xyz
x,y,z
1/2-x,1/2-y,1/2+z
1/2+x,1/2-y,-z
-x,y,1/2-z
-x,-y,-z
1/2+x,1/2+y,1/2-z
1/2-x,1/2+y,z
x,-y,1/2+z
loop_
_atom_site_type_symbol
_atom_site_label
_atom_site_fract_x
_atom_site_fract_y
_atom_site_fract_z
Si Si1 0.000000 0.957562 0.750000
Si Si2 0.685428 0.862362 0.739206
Si Si3 0.895195 0.768605 0.002737
O O1 0.834143 0.913308 0.721052
O O2 0.000000 0.000000 0.500000
O O3 0.500000 0.892252 0.750000
O O4 0.665284 0.805303 0.534999
O O5 0.740418 0.817816 0.973555
O O6 0.000000 0.784080 0.250000
O O7 0.000000 0.777144 0.750000
#
# Coordination Sequence:
#
# PCOD9458489 Si02
#       3
#     4   8   8
#     4  12  32  52  72 102 156 212 252 302 354 454
#     4  11  25  46  78 111 148 195 248 310 379 452
#     4  11  24  44  75 119 156 183 234 329 401 443
#
# _framework density 22.524394999999998
#
# number of rings (size 3 to 8) (size 9 to 14) (size 15 to 20)
#    0.000    0.800    2.000    4.800    2.800    8.000 
#    0.000    0.000    0.000    0.000    0.000    0.000 
#    0.000    0.000    0.000    0.000    0.000    0.000 
#
# Total GULP energy -111716.473364 kJ/mol
# GULP energy per Si atom -5585.823668 kJ/mol
# Density = 2.247313 g / cm^3
# Si number density = 22.524395 Si / 1000 Ang^3
#
#
#
# Elastic Constant Matrix: (Units=GPa)
#
#
# Indices 1 2 3 4 5 6 
#
# 1 250.2697 91.3776 78.2959 0.0000 0.0000 0.0000
# 2 91.3776 123.6080 46.3225 0.0000 0.0000 0.0000
# 3 78.2959 46.3225 184.3204 0.0000 0.0000 0.0000
# 4 0.0000 0.0000 0.0000 37.8845 0.0000 0.0000
# 5 0.0000 0.0000 0.0000 0.0000 50.6549 0.0000
# 6 0.0000 0.0000 0.0000 0.0000 0.0000 18.8843
#
#
#
# Elastic Compliance Matrix: (Units=1/GPa)
#
#
# Indices 1 2 3 4 5 6 
#
# 1 0.005845 -0.003743 -0.001542 0.000000 0.000000 0.000000
# 2 -0.003743 0.011328 -0.001257 0.000000 0.000000 0.000000
# 3 -0.001542 -0.001257 0.006396 0.000000 0.000000 0.000000
# 4 0.000000 0.000000 0.000000 0.026396 0.000000 0.000000
# 5 0.000000 0.000000 0.000000 0.000000 0.019741 0.000000
# 6 0.000000 0.000000 0.000000 0.000000 0.000000 0.052954
#
#
# Mechanical properties :
#
#
# Convention : Reuss Voigt Hill
#
# Bulk Modulus (GPa) = 95.37277 110.02111 102.69694
# Shear Modulus (GPa) = 35.90936 44.29821 40.10379
#
# Velocity S-wave (km/s) = 3.99713 4.43953 4.22413
# Velocity P-wave (km/s) = 7.98352 8.67356 8.33568
#
# Compressibility (1/GPa) = 0.01048517
#
# Stress axis : x y z
#
# Youngs Moduli (GPa) = 171.09570 88.27656 156.34041
#
# Poissons Ratio (x) = 0.33040 0.24109
# Poissons Ratio (y) = 0.64038 0.19653
# Poissons Ratio (z) = 0.26385 0.11097
#
# Static dielectric constant tensor:
#      x y z
#    x 2.050060 0.000000 0.000000 
#    y 0.000000 1.828030 0.000000 
#    z 0.000000 0.000000 1.817770 
# 
# From -- ./inp_files/188.got.cif
#   From: 2010.05.17/outbox.cif.g08.bks.cpg/sg60_1_cif.got.tgz:188.got - 2010.06.03 14:59:27.
