data_PCOD9458464
_publ_section_title
;
Structure prediction by ZEFSAII (Michael W. Deem and Ramdas Pophale) SiO2 
 PCOD9458464
Probable space group: P B C N
;
_chemical_formula_sum "Si O2"
_cell_formula_units_Z 40
_cell_length_a 29.082569
_cell_length_b 4.954017
_cell_length_c 11.193348
_cell_angle_alpha 90.000000
_cell_angle_beta 90.000000
_cell_angle_gamma 90.000000
_cell_volume 1612.687671
_symmetry_space_group_name_H-M "P B C N"
_symmetry_group_IT_number 60
_symmetry_cell_setting 'orthorhombic'
loop_
_space_group_symop_operation_xyz
x,y,z
1/2-x,1/2-y,1/2+z
1/2+x,1/2-y,-z
-x,y,1/2-z
-x,-y,-z
1/2+x,1/2+y,1/2-z
1/2-x,1/2+y,z
x,-y,1/2+z
loop_
_atom_site_type_symbol
_atom_site_label
_atom_site_fract_x
_atom_site_fract_y
_atom_site_fract_z
Si Si1 0.040187 0.217195 0.404639
Si Si2 0.447125 0.598335 0.150177
Si Si3 0.279411 0.656444 0.236342
Si Si4 0.138871 0.261776 0.408487
Si Si5 0.649394 0.250231 0.946494
O O1 0.045626 0.014818 0.288631
O O2 0.087492 0.377785 0.385398
O O3 0.988029 0.313659 0.381535
O O4 0.044760 0.105737 0.539390
O O5 0.395285 0.701673 0.136271
O O6 0.263206 0.353849 0.258660
O O7 0.321501 0.776477 0.312199
O O8 0.301640 0.662405 0.105179
O O9 0.153485 0.438373 0.521675
O O10 0.137536 0.946376 0.442773
#
# Coordination Sequence:
#
# PCOD9458464 Si02
#       5
#     8   8   8   8   8
#     4   9  18  37  66 101 139 179 222 271 331 401
#     4   9  18  37  66 101 139 179 222 271 331 401
#     4  12  26  44  67  96 129 170 228 282 340 396
#     4  11  24  43  67  96 133 173 220 275 336 400
#     4  11  24  43  67  96 133 173 220 275 336 400
#
# _framework density 24.803315999999999
#
# number of rings (size 3 to 8) (size 9 to 14) (size 15 to 20)
#    0.000    1.600    2.000    2.400    0.000    5.600 
#    3.600    0.000    0.000    4.800    0.000    0.000 
#    0.000    0.000    0.000    0.000    0.000    0.000 
#
# Total GULP energy -222732.708885 kJ/mol
# GULP energy per Si atom -5568.317722 kJ/mol
# Density = 2.474686 g / cm^3
# Si number density = 24.803316 Si / 1000 Ang^3
#
#
#
# Elastic Constant Matrix: (Units=GPa)
#
#
# Indices 1 2 3 4 5 6 
#
# 1 110.4040 16.6615 -2.4716 0.0000 0.0000 0.0000
# 2 16.6615 68.1554 13.4314 0.0000 0.0000 0.0000
# 3 -2.4716 13.4314 69.6719 0.0000 0.0000 0.0000
# 4 0.0000 0.0000 0.0000 12.0110 0.0000 0.0000
# 5 0.0000 0.0000 0.0000 0.0000 27.4900 0.0000
# 6 0.0000 0.0000 0.0000 0.0000 0.0000 15.2429
#
#
#
# Elastic Compliance Matrix: (Units=1/GPa)
#
#
# Indices 1 2 3 4 5 6 
#
# 1 0.009449 -0.002470 0.000811 0.000000 0.000000 0.000000
# 2 -0.002470 0.015897 -0.003152 0.000000 0.000000 0.000000
# 3 0.000811 -0.003152 0.014989 0.000000 0.000000 0.000000
# 4 0.000000 0.000000 0.000000 0.083257 0.000000 0.000000
# 5 0.000000 0.000000 0.000000 0.000000 0.036377 0.000000
# 6 0.000000 0.000000 0.000000 0.000000 0.000000 0.065604
#
#
# Mechanical properties :
#
#
# Convention : Reuss Voigt Hill
#
# Bulk Modulus (GPa) = 32.55857 33.71934 33.13895
# Shear Modulus (GPa) = 20.37216 25.65612 23.01414
#
# Velocity S-wave (km/s) = 2.86903 3.21967 3.04939
# Velocity P-wave (km/s) = 4.91226 5.23888 5.07820
#
# Compressibility (1/GPa) = 0.03071388
#
# Stress axis : x y z
#
# Youngs Moduli (GPa) = 105.83673 62.90367 66.71351
#
# Poissons Ratio (x) = 0.15535 -0.05412
# Poissons Ratio (y) = 0.26139 0.21030
# Poissons Ratio (z) = -0.08586 0.19829
#
# Static dielectric constant tensor:
#      x y z
#    x 2.016000 0.000000 0.000000 
#    y 0.000000 1.912650 0.000000 
#    z 0.000000 0.000000 2.093400 
# 
# From -- ./inp_files/13202.got.cif
#   From: 2010.05.17/outbox.cif.g08.bks.cpg/sg60_7_cif.got.tgz:13202.got - 2010.06.03 14:59:27.
