data_PCOD9458674
_publ_section_title
;
Structure prediction by ZEFSAII (Michael W. Deem and Ramdas Pophale) SiO2 
 PCOD9458674
Probable space group: P B C N
;
_chemical_formula_sum "Si O2"
_cell_formula_units_Z 48
_cell_length_a 16.698739
_cell_length_b 8.699859
_cell_length_c 17.049073
_cell_angle_alpha 90.000000
_cell_angle_beta 90.000000
_cell_angle_gamma 90.000000
_cell_volume 2476.832633
_symmetry_space_group_name_H-M "P B C N"
_symmetry_group_IT_number 60
_symmetry_cell_setting 'orthorhombic'
loop_
_space_group_symop_operation_xyz
x,y,z
1/2-x,1/2-y,1/2+z
1/2+x,1/2-y,-z
-x,y,1/2-z
-x,-y,-z
1/2+x,1/2+y,1/2-z
1/2-x,1/2+y,z
x,-y,1/2+z
loop_
_atom_site_type_symbol
_atom_site_label
_atom_site_fract_x
_atom_site_fract_y
_atom_site_fract_z
Si Si1 0.158978 0.056878 0.355255
Si Si2 0.418712 0.915879 0.024975
Si Si3 0.987070 0.093896 0.419331
Si Si4 0.285725 0.249484 0.436810
Si Si5 0.295338 0.148292 0.097555
Si Si6 0.153859 0.954005 0.176100
O O1 0.227597 0.181672 0.370892
O O2 0.073324 0.121406 0.381198
O O3 0.179906 0.913309 0.411499
O O4 0.155567 0.996411 0.267045
O O5 0.443270 0.755086 0.064599
O O6 0.366267 0.029587 0.078285
O O7 0.358612 0.866319 0.954954
O O8 0.500000 0.000000 0.000000
O O9 0.931271 0.994542 0.362278
O O10 0.000000 0.000000 0.500000
O O11 0.234357 0.271577 0.516637
O O12 0.324555 0.278807 0.156825
O O13 0.220489 0.056795 0.132416
#
# Coordination Sequence:
#
# PCOD9458674 Si02
#       6
#     8   8   8   8   8   8
#     4  12  26  41  67 100 136 176 221 289 348 399
#     4  12  24  40  70 102 126 172 239 284 330 399
#     4  12  23  44  69  97 136 181 229 281 336 420
#     4  12  22  43  68  97 129 178 233 275 331 418
#     4  12  22  44  70  97 133 181 234 281 331 423
#     4  12  24  43  66  99 140 178 224 286 355 396
#
# _framework density 19.37959
#
# number of rings (size 3 to 8) (size 9 to 14) (size 15 to 20)
#    0.000    0.000    6.667    4.500    0.000    0.000 
#    0.000    0.000    3.667    0.000    0.000    0.000 
#    0.000    0.000    0.000    0.000    0.000    0.000 
#
# Total GULP energy -268625.543160 kJ/mol
# GULP energy per Si atom -5596.365483 kJ/mol
# Density = 1.933548 g / cm^3
# Si number density = 19.379590 Si / 1000 Ang^3
#
#
#
# Elastic Constant Matrix: (Units=GPa)
#
#
# Indices 1 2 3 4 5 6 
#
# 1 129.1011 27.1960 22.4844 0.0000 0.0000 0.0000
# 2 27.1960 68.2979 4.7978 0.0000 0.0000 0.0000
# 3 22.4844 4.7978 87.5862 0.0000 0.0000 0.0000
# 4 0.0000 0.0000 0.0000 32.2725 0.0000 0.0000
# 5 0.0000 0.0000 0.0000 0.0000 20.9230 0.0000
# 6 0.0000 0.0000 0.0000 0.0000 0.0000 50.0539
#
#
#
# Elastic Compliance Matrix: (Units=1/GPa)
#
#
# Indices 1 2 3 4 5 6 
#
# 1 0.008817 -0.003365 -0.002079 0.000000 0.000000 0.000000
# 2 -0.003365 0.015982 -0.000012 0.000000 0.000000 0.000000
# 3 -0.002079 -0.000012 0.011952 0.000000 0.000000 0.000000
# 4 0.000000 0.000000 0.000000 0.030986 0.000000 0.000000
# 5 0.000000 0.000000 0.000000 0.000000 0.047794 0.000000
# 6 0.000000 0.000000 0.000000 0.000000 0.000000 0.019978
#
#
# Mechanical properties :
#
#
# Convention : Reuss Voigt Hill
#
# Bulk Modulus (GPa) = 38.69997 43.77127 41.23562
# Shear Modulus (GPa) = 32.25100 36.01703 34.13401
#
# Velocity S-wave (km/s) = 4.08385 4.31571 4.20138
# Velocity P-wave (km/s) = 6.50000 6.88979 6.69773
#
# Compressibility (1/GPa) = 0.02583981
#
# Stress axis : x y z
#
# Youngs Moduli (GPa) = 113.42024 62.56885 83.67027
#
# Poissons Ratio (x) = 0.21053 0.17395
# Poissons Ratio (y) = 0.38163 0.00098
# Poissons Ratio (z) = 0.23581 0.00073
#
# Static dielectric constant tensor:
#      x y z
#    x 1.667180 0.000000 0.000000 
#    y 0.000000 1.672210 0.000000 
#    z 0.000000 0.000000 1.651860 
# 
# From -- ./inp_files/20488.got.cif
#   From: 2010.05.17/outbox.cif.g08.bks.cpg/sg60_11_cif.got.tgz:20488.got - 2010.06.03 14:59:27.
