data_PCOD9458086
_publ_section_title
;
Structure prediction by ZEFSAII (Michael W. Deem and Ramdas Pophale) SiO2 
 PCOD9458086
Probable space group: P B C N
;
_chemical_formula_sum "Si O2"
_cell_formula_units_Z 32
_cell_length_a 17.800980
_cell_length_b 7.273546
_cell_length_c 8.654539
_cell_angle_alpha 90.000000
_cell_angle_beta 90.000000
_cell_angle_gamma 90.000000
_cell_volume 1120.557228
_symmetry_space_group_name_H-M "P B C N"
_symmetry_group_IT_number 60
_symmetry_cell_setting 'orthorhombic'
loop_
_space_group_symop_operation_xyz
x,y,z
1/2-x,1/2-y,1/2+z
1/2+x,1/2-y,-z
-x,y,1/2-z
-x,-y,-z
1/2+x,1/2+y,1/2-z
1/2-x,1/2+y,z
x,-y,1/2+z
loop_
_atom_site_type_symbol
_atom_site_label
_atom_site_fract_x
_atom_site_fract_y
_atom_site_fract_z
Si Si1 0.750333 0.671796 0.172859
Si Si2 0.161175 0.053493 0.627475
Si Si3 0.404013 0.972869 0.820720
Si Si4 0.466868 0.763654 0.537109
O O1 0.695355 0.639640 0.320526
O O2 0.809690 0.829696 0.223870
O O3 0.815617 0.513745 0.155706
O O4 0.702267 0.645229 0.018646
O O5 0.072800 0.075371 0.590452
O O6 0.421327 0.910916 0.646762
O O7 0.448784 0.812373 0.916257
O O8 0.442412 0.163734 0.871198
#
# Coordination Sequence:
#
# PCOD9458086 Si02
#       4
#     8   8   8   8
#     4  11  21  36  58  84 117 152 195 244 299 359
#     4  11  22  36  58  89 119 153 197 250 304 357
#     4   9  17  32  54  80 110 146 188 233 284 350
#     4   9  18  32  54  82 112 143 190 243 289 341
#
# _framework density 28.557219
#
# number of rings (size 3 to 8) (size 9 to 14) (size 15 to 20)
#    0.000    2.000    0.000    6.000    0.000    0.000 
#    0.000    0.000    0.000   37.500    0.000    0.000 
#    0.000    0.000    0.000    0.000    0.000    0.000 
#
# Total GULP energy -178637.186442 kJ/mol
# GULP energy per Si atom -5582.412076 kJ/mol
# Density = 2.849222 g / cm^3
# Si number density = 28.557219 Si / 1000 Ang^3
#
#
#
# Elastic Constant Matrix: (Units=GPa)
#
#
# Indices 1 2 3 4 5 6 
#
# 1 177.3583 -8.8620 23.5897 0.0000 0.0000 0.0000
# 2 -8.8620 43.2746 0.9963 0.0000 0.0000 0.0000
# 3 23.5897 0.9963 93.6073 0.0000 0.0000 0.0000
# 4 0.0000 0.0000 0.0000 45.0411 0.0000 0.0000
# 5 0.0000 0.0000 0.0000 0.0000 38.1236 0.0000
# 6 0.0000 0.0000 0.0000 0.0000 0.0000 43.5760
#
#
#
# Elastic Compliance Matrix: (Units=1/GPa)
#
#
# Indices 1 2 3 4 5 6 
#
# 1 0.005900 0.001243 -0.001500 0.000000 0.000000 0.000000
# 2 0.001243 0.023376 -0.000562 0.000000 0.000000 0.000000
# 3 -0.001500 -0.000562 0.011067 0.000000 0.000000 0.000000
# 4 0.000000 0.000000 0.000000 0.022202 0.000000 0.000000
# 5 0.000000 0.000000 0.000000 0.000000 0.026230 0.000000
# 6 0.000000 0.000000 0.000000 0.000000 0.000000 0.022948
#
#
# Mechanical properties :
#
#
# Convention : Reuss Voigt Hill
#
# Bulk Modulus (GPa) = 25.83716 38.40982 32.12349
# Shear Modulus (GPa) = 39.59982 45.24923 42.42452
#
# Velocity S-wave (km/s) = 3.72786 3.98491 3.85853
# Velocity P-wave (km/s) = 5.25323 5.88660 5.57891
#
# Compressibility (1/GPa) = 0.03870395
#
# Stress axis : x y z
#
# Youngs Moduli (GPa) = 169.49399 42.77954 90.35927
#
# Poissons Ratio (x) = -0.05316 0.13554
# Poissons Ratio (y) = -0.21064 0.05078
# Poissons Ratio (z) = 0.25425 0.02404
#
# Static dielectric constant tensor:
#      x y z
#    x 2.187690 0.000000 0.000000 
#    y 0.000000 2.891120 0.000000 
#    z 0.000000 0.000000 2.145980 
# 
# From -- ./inp_files/6478.got.cif
#   From: 2010.05.17/outbox.cif.g08.bks.cpg/sg60_4_cif.got.tgz:6478.got - 2010.06.03 14:59:27.
