data_PCOD9458828
_publ_section_title
;
Structure prediction by ZEFSAII (Michael W. Deem and Ramdas Pophale) SiO2 
 PCOD9458828
Probable space group: P B C N
;
_chemical_formula_sum "Si O2"
_cell_formula_units_Z 32
_cell_length_a 7.457182
_cell_length_b 10.413701
_cell_length_c 17.832353
_cell_angle_alpha 90.000000
_cell_angle_beta 90.000000
_cell_angle_gamma 90.000000
_cell_volume 1384.804605
_symmetry_space_group_name_H-M "P B C N"
_symmetry_group_IT_number 60
_symmetry_cell_setting 'orthorhombic'
loop_
_space_group_symop_operation_xyz
x,y,z
1/2-x,1/2-y,1/2+z
1/2+x,1/2-y,-z
-x,y,1/2-z
-x,-y,-z
1/2+x,1/2+y,1/2-z
1/2-x,1/2+y,z
x,-y,1/2+z
loop_
_atom_site_type_symbol
_atom_site_label
_atom_site_fract_x
_atom_site_fract_y
_atom_site_fract_z
Si Si1 0.327173 0.864853 0.834352
Si Si2 0.713462 0.116750 0.754563
Si Si3 0.323962 0.771487 0.607808
Si Si4 0.959162 0.865263 0.537746
O O1 0.297457 0.724916 0.799320
O O2 0.539075 0.870817 0.852616
O O3 0.213503 0.874748 0.909715
O O4 0.257148 0.975917 0.779275
O O5 0.500000 0.138187 0.750000
O O6 0.790812 0.151432 0.836185
O O7 0.129204 0.824526 0.587264
O O8 0.417892 0.731037 0.530370
O O9 0.000000 0.000000 0.500000
#
# Coordination Sequence:
#
# PCOD9458828 Si02
#       4
#     8   8   8   8
#     4  12  28  51  79 117 154 207 261 323 390 467
#     4  12  27  49  81 113 156 207 260 321 391 463
#     4  12  27  52  76 117 152 206 260 324 392 467
#     4  12  28  47  81 112 158 204 258 323 397 465
#
# _framework density 23.107953999999999
#
# number of rings (size 3 to 8) (size 9 to 14) (size 15 to 20)
#    0.000    0.000    5.000    3.750    7.000    3.000 
#    0.000    0.000    0.000    0.000    0.000    0.000 
#    0.000    0.000    0.000    0.000    0.000    0.000 
#
# Total GULP energy -179355.767082 kJ/mol
# GULP energy per Si atom -5604.867721 kJ/mol
# Density = 2.305536 g / cm^3
# Si number density = 23.107954 Si / 1000 Ang^3
#
#
#
# Elastic Constant Matrix: (Units=GPa)
#
#
# Indices 1 2 3 4 5 6 
#
# 1 117.3840 28.2371 37.3615 0.0000 0.0000 0.0000
# 2 28.2371 105.4505 47.5495 0.0000 0.0000 0.0000
# 3 37.3615 47.5495 116.9952 0.0000 0.0000 0.0000
# 4 0.0000 0.0000 0.0000 43.1137 0.0000 0.0000
# 5 0.0000 0.0000 0.0000 0.0000 43.4276 0.0000
# 6 0.0000 0.0000 0.0000 0.0000 0.0000 27.5662
#
#
#
# Elastic Compliance Matrix: (Units=1/GPa)
#
#
# Indices 1 2 3 4 5 6 
#
# 1 0.009664 -0.001465 -0.002491 0.000000 0.000000 0.000000
# 2 -0.001465 0.011833 -0.004341 0.000000 0.000000 0.000000
# 3 -0.002491 -0.004341 0.011107 0.000000 0.000000 0.000000
# 4 0.000000 0.000000 0.000000 0.023194 0.000000 0.000000
# 5 0.000000 0.000000 0.000000 0.000000 0.023027 0.000000
# 6 0.000000 0.000000 0.000000 0.000000 0.000000 0.036276
#
#
# Mechanical properties :
#
#
# Convention : Reuss Voigt Hill
#
# Bulk Modulus (GPa) = 62.45945 62.90290 62.68118
# Shear Modulus (GPa) = 36.48757 37.93359 37.21058
#
# Velocity S-wave (km/s) = 3.97798 4.05604 4.01720
# Velocity P-wave (km/s) = 6.94170 7.01539 6.97864
#
# Compressibility (1/GPa) = 0.01601039
#
# Stress axis : x y z
#
# Youngs Moduli (GPa) = 103.47472 84.50971 90.03098
#
# Poissons Ratio (x) = 0.12378 0.22426
# Poissons Ratio (y) = 0.15155 0.39087
# Poissons Ratio (z) = 0.25775 0.36690
#
# Static dielectric constant tensor:
#      x y z
#    x 1.856160 0.000000 0.000000 
#    y 0.000000 1.930030 0.000000 
#    z 0.000000 0.000000 1.850660 
# 
# From -- ./inp_files/14423.got.cif
#   From: 2010.05.17/outbox.cif.g08.bks.cpg/sg60_8_cif.got.tgz:14423.got - 2010.06.03 14:59:27.
