data_PCOD9458708
_publ_section_title
;
Structure prediction by ZEFSAII (Michael W. Deem and Ramdas Pophale) SiO2 
 PCOD9458708
Probable space group: P B C N
;
_chemical_formula_sum "Si O2"
_cell_formula_units_Z 36
_cell_length_a 7.532390
_cell_length_b 14.792829
_cell_length_c 13.964563
_cell_angle_alpha 90.000000
_cell_angle_beta 90.000000
_cell_angle_gamma 90.000000
_cell_volume 1556.006421
_symmetry_space_group_name_H-M "P B C N"
_symmetry_group_IT_number 60
_symmetry_cell_setting 'orthorhombic'
loop_
_space_group_symop_operation_xyz
x,y,z
1/2-x,1/2-y,1/2+z
1/2+x,1/2-y,-z
-x,y,1/2-z
-x,-y,-z
1/2+x,1/2+y,1/2-z
1/2-x,1/2+y,z
x,-y,1/2+z
loop_
_atom_site_type_symbol
_atom_site_label
_atom_site_fract_x
_atom_site_fract_y
_atom_site_fract_z
Si Si1 0.788844 0.032119 0.268826
Si Si2 0.810511 0.047953 0.489633
Si Si3 0.603446 0.206607 0.552591
Si Si4 0.000000 0.376652 0.250000
Si Si5 0.321783 0.125982 0.416168
O O1 0.772305 0.060825 0.378275
O O2 0.705205 0.104832 0.195539
O O3 0.000000 0.019818 0.250000
O O4 0.672715 0.941498 0.255284
O O5 0.774847 0.140810 0.544629
O O6 0.683327 0.971920 0.534912
O O7 0.000000 0.000000 0.500000
O O8 0.509236 0.181402 0.652729
O O9 0.487034 0.177980 0.461543
O O10 0.657931 0.310366 0.553651
#
# Coordination Sequence:
#
# PCOD9458708 Si02
#       5
#     8   8   8   4   8
#     4  12  25  44  78 107 144 196 253 308 370 450
#     4  12  23  47  75 102 145 195 247 305 378 442
#     4  12  27  45  74 107 150 194 248 313 371 454
#     4  12  24  48  76 108 146 198 248 308 378 450
#     4  12  26  45  71 110 145 196 248 307 378 436
#
# _framework density 23.136150000000001
#
# number of rings (size 3 to 8) (size 9 to 14) (size 15 to 20)
#    0.000    0.000    6.667    3.333    1.556    0.000 
#    0.000    0.000    0.000    0.000    0.000    0.000 
#    0.000    0.000    0.000    0.000    0.000    0.000 
#
# Total GULP energy -201476.424118 kJ/mol
# GULP energy per Si atom -5596.567337 kJ/mol
# Density = 2.308349 g / cm^3
# Si number density = 23.136150 Si / 1000 Ang^3
#
#
#
# Elastic Constant Matrix: (Units=GPa)
#
#
# Indices 1 2 3 4 5 6 
#
# 1 79.9666 21.2376 37.1820 0.0000 0.0000 0.0000
# 2 21.2376 88.5152 26.1383 0.0000 0.0000 0.0000
# 3 37.1820 26.1383 176.3587 0.0000 0.0000 0.0000
# 4 0.0000 0.0000 0.0000 20.9663 0.0000 0.0000
# 5 0.0000 0.0000 0.0000 0.0000 27.6192 0.0000
# 6 0.0000 0.0000 0.0000 0.0000 0.0000 40.8204
#
#
#
# Elastic Compliance Matrix: (Units=1/GPa)
#
#
# Indices 1 2 3 4 5 6 
#
# 1 0.014450 -0.002685 -0.002649 0.000000 0.000000 0.000000
# 2 -0.002685 0.012313 -0.001259 0.000000 0.000000 0.000000
# 3 -0.002649 -0.001259 0.006415 0.000000 0.000000 0.000000
# 4 0.000000 0.000000 0.000000 0.047696 0.000000 0.000000
# 5 0.000000 0.000000 0.000000 0.000000 0.036207 0.000000
# 6 0.000000 0.000000 0.000000 0.000000 0.000000 0.024498
#
#
# Mechanical properties :
#
#
# Convention : Reuss Voigt Hill
#
# Bulk Modulus (GPa) = 50.01552 57.10624 53.56088
# Shear Modulus (GPa) = 30.97366 35.23337 33.10352
#
# Velocity S-wave (km/s) = 3.66287 3.90663 3.78671
# Velocity P-wave (km/s) = 6.28917 6.71456 6.50534
#
# Compressibility (1/GPa) = 0.01999379
#
# Stress axis : x y z
#
# Youngs Moduli (GPa) = 69.20533 81.21212 155.87867
#
# Poissons Ratio (x) = 0.21804 0.41285
# Poissons Ratio (y) = 0.18581 0.19624
# Poissons Ratio (z) = 0.18329 0.10224
#
# Static dielectric constant tensor:
#      x y z
#    x 1.915660 0.000000 0.000000 
#    y 0.000000 1.816560 0.000000 
#    z 0.000000 0.000000 1.835080 
# 
# From -- ./inp_files/14557.got.cif
#   From: 2010.05.17/outbox.cif.g08.bks.cpg/sg60_8_cif.got.tgz:14557.got - 2010.06.03 14:59:27.
