data_PCOD9458337
_publ_section_title
;
Structure prediction by ZEFSAII (Michael W. Deem and Ramdas Pophale) SiO2 
 PCOD9458337
Probable space group: P B C N
;
_chemical_formula_sum "Si O2"
_cell_formula_units_Z 64
_cell_length_a 18.662943
_cell_length_b 16.968132
_cell_length_c 9.328556
_cell_angle_alpha 90.000000
_cell_angle_beta 90.000000
_cell_angle_gamma 90.000000
_cell_volume 2954.123086
_symmetry_space_group_name_H-M "P B C N"
_symmetry_group_IT_number 60
_symmetry_cell_setting 'orthorhombic'
loop_
_space_group_symop_operation_xyz
x,y,z
1/2-x,1/2-y,1/2+z
1/2+x,1/2-y,-z
-x,y,1/2-z
-x,-y,-z
1/2+x,1/2+y,1/2-z
1/2-x,1/2+y,z
x,-y,1/2+z
loop_
_atom_site_type_symbol
_atom_site_label
_atom_site_fract_x
_atom_site_fract_y
_atom_site_fract_z
Si Si1 0.685631 0.687916 0.010902
Si Si2 0.212013 0.915981 0.728261
Si Si3 0.051450 0.721044 0.639063
Si Si4 0.882654 0.420999 0.173746
Si Si5 0.546516 0.764994 0.872313
Si Si6 0.880813 0.579242 0.328412
Si Si7 0.317181 0.691711 0.989564
Si Si8 0.284465 0.408424 0.248259
O O1 0.609913 0.718040 0.952043
O O2 0.744565 0.757121 0.998381
O O3 0.713226 0.614345 0.917683
O O4 0.684125 0.653660 0.170288
O O5 0.298290 0.914987 0.721976
O O6 0.190076 0.891607 0.569482
O O7 0.187433 0.003268 0.769583
O O8 0.078975 0.649528 0.739508
O O9 0.119325 0.762644 0.566592
O O10 0.000000 0.768668 0.750000
O O11 0.003218 0.702624 0.500598
O O12 0.908141 0.501902 0.247664
O O13 0.797950 0.408225 0.202156
O O14 0.888387 0.426884 0.001409
O O15 0.500000 0.721370 0.750000
O O16 0.581324 0.839294 0.791087
O O17 0.324858 0.663604 0.826583
#
# Coordination Sequence:
#
# PCOD9458337 Si02
#       8
#     8   8   8   8   8   8   8   8
#     4  12  24  43  71  99 136 180 236 292 340 418
#     4  11  24  40  71 100 138 173 226 298 351 404
#     4  12  26  44  67  97 144 185 230 289 349 420
#     4  11  24  43  67 103 142 186 228 278 348 437
#     4  12  27  45  66 102 144 186 236 287 352 419
#     4  11  25  43  67 102 144 184 231 275 352 434
#     4  12  23  42  72  98 130 184 232 286 349 407
#     4  11  23  41  67 104 134 169 232 291 353 409
#
# _framework density 21.664635000000001
#
# number of rings (size 3 to 8) (size 9 to 14) (size 15 to 20)
#    0.000    0.500    5.000    3.000    8.750    1.000 
#    0.000    0.000    0.000   15.000    0.000    0.000 
#    0.000    0.000    0.000    0.000    0.000    0.000 
#
# Total GULP energy -357586.353481 kJ/mol
# GULP energy per Si atom -5587.286773 kJ/mol
# Density = 2.161533 g / cm^3
# Si number density = 21.664635 Si / 1000 Ang^3
#
#
#
# Elastic Constant Matrix: (Units=GPa)
#
#
# Indices 1 2 3 4 5 6 
#
# 1 66.8951 35.3689 24.4850 0.0000 0.0000 0.0000
# 2 35.3689 91.3401 20.5154 0.0000 0.0000 0.0000
# 3 24.4850 20.5154 91.6032 0.0000 0.0000 0.0000
# 4 0.0000 0.0000 0.0000 40.3934 0.0000 0.0000
# 5 0.0000 0.0000 0.0000 0.0000 36.7622 0.0000
# 6 0.0000 0.0000 0.0000 0.0000 0.0000 13.8809
#
#
#
# Elastic Compliance Matrix: (Units=1/GPa)
#
#
# Indices 1 2 3 4 5 6 
#
# 1 0.019978 -0.006883 -0.003799 0.000000 0.000000 0.000000
# 2 -0.006883 0.013899 -0.001273 0.000000 0.000000 0.000000
# 3 -0.003799 -0.001273 0.012217 0.000000 0.000000 0.000000
# 4 0.000000 0.000000 0.000000 0.024757 0.000000 0.000000
# 5 0.000000 0.000000 0.000000 0.000000 0.027202 0.000000
# 6 0.000000 0.000000 0.000000 0.000000 0.000000 0.072042
#
#
# Mechanical properties :
#
#
# Convention : Reuss Voigt Hill
#
# Bulk Modulus (GPa) = 45.07449 45.61966 45.34707
# Shear Modulus (GPa) = 24.82637 29.50525 27.16581
#
# Velocity S-wave (km/s) = 3.38885 3.69441 3.54492
# Velocity P-wave (km/s) = 6.01358 6.26906 6.14265
#
# Compressibility (1/GPa) = 0.02218550
#
# Stress axis : x y z
#
# Youngs Moduli (GPa) = 50.05443 71.94643 81.85240
#
# Poissons Ratio (x) = 0.49520 0.31092
# Poissons Ratio (y) = 0.34452 0.10421
# Poissons Ratio (z) = 0.19014 0.09160
#
# Static dielectric constant tensor:
#      x y z
#    x 1.815730 0.000000 0.000000 
#    y 0.000000 1.783070 0.000000 
#    z 0.000000 0.000000 1.763340 
# 
# From -- ./inp_files/7569.got.cif
#   From: 2010.05.17/outbox.cif.g08.bks.cpg/sg60_4_cif.got.tgz:7569.got - 2010.06.03 14:59:27.
