data_PCOD9458395
_publ_section_title
;
Structure prediction by ZEFSAII (Michael W. Deem and Ramdas Pophale) SiO2 
 PCOD9458395
Probable space group: P B C N
;
_chemical_formula_sum "Si O2"
_cell_formula_units_Z 64
_cell_length_a 12.013290
_cell_length_b 8.631111
_cell_length_c 27.280268
_cell_angle_alpha 90.000000
_cell_angle_beta 90.000000
_cell_angle_gamma 90.000000
_cell_volume 2828.637505
_symmetry_space_group_name_H-M "P B C N"
_symmetry_group_IT_number 60
_symmetry_cell_setting 'orthorhombic'
loop_
_space_group_symop_operation_xyz
x,y,z
1/2-x,1/2-y,1/2+z
1/2+x,1/2-y,-z
-x,y,1/2-z
-x,-y,-z
1/2+x,1/2+y,1/2-z
1/2-x,1/2+y,z
x,-y,1/2+z
loop_
_atom_site_type_symbol
_atom_site_label
_atom_site_fract_x
_atom_site_fract_y
_atom_site_fract_z
Si Si1 0.236420 0.353185 0.204759
Si Si2 0.766612 0.238240 0.956325
Si Si3 0.574823 0.392169 0.374767
Si Si4 0.626926 0.126725 0.239010
Si Si5 0.367600 0.488880 0.489555
Si Si6 0.084594 0.748158 0.619169
Si Si7 0.152931 0.775725 0.394303
Si Si8 0.134839 0.549742 0.864391
O O1 0.342180 0.390447 0.170825
O O2 0.285758 0.264567 0.251709
O O3 0.166298 0.501447 0.220535
O O4 0.156176 0.255898 0.169130
O O5 0.867259 0.211560 0.917598
O O6 0.715451 0.402800 0.971823
O O7 0.660694 0.178104 0.924456
O O8 0.814623 0.159373 0.005702
O O9 0.558117 0.571224 0.390396
O O10 0.456269 0.318913 0.362860
O O11 0.500000 0.172485 0.250000
O O12 0.634569 0.038619 0.187498
O O13 0.500000 0.500000 0.500000
O O14 0.359175 0.383461 0.441861
O O15 0.977034 0.643949 0.626196
O O16 0.150171 0.592028 0.402602
O O17 0.264802 0.830300 0.368555
#
# Coordination Sequence:
#
# PCOD9458395 Si02
#       8
#     8   8   8   8   8   8   8   8
#     4  11  24  42  72 105 141 180 239 297 354 437
#     4  11  24  42  75 103 144 187 240 305 360 439
#     4  11  23  44  74 103 145 186 244 299 371 429
#     4  12  24  46  69 106 143 187 245 297 359 443
#     4  12  25  47  71 109 149 189 250 304 362 440
#     4  11  23  44  72 108 139 190 241 302 373 426
#     4  12  26  47  69 103 146 193 237 301 371 444
#     4  12  27  46  71 102 148 192 240 299 375 437
#
# _framework density 22.625734000000001
#
# number of rings (size 3 to 8) (size 9 to 14) (size 15 to 20)
#    0.000    0.500    5.000    3.000    1.750    1.000 
#    0.000    2.500    0.000    0.000    0.000    0.000 
#    0.000    0.000    0.000    0.000    0.000    0.000 
#
# Total GULP energy -357544.794354 kJ/mol
# GULP energy per Si atom -5586.637412 kJ/mol
# Density = 2.257424 g / cm^3
# Si number density = 22.625734 Si / 1000 Ang^3
#
#
#
# Elastic Constant Matrix: (Units=GPa)
#
#
# Indices 1 2 3 4 5 6 
#
# 1 161.6078 56.7939 10.2277 0.0000 0.0000 0.0000
# 2 56.7939 82.7650 -7.8286 0.0000 0.0000 0.0000
# 3 10.2277 -7.8286 43.1074 0.0000 0.0000 0.0000
# 4 0.0000 0.0000 0.0000 26.8433 0.0000 0.0000
# 5 0.0000 0.0000 0.0000 0.0000 31.8760 0.0000
# 6 0.0000 0.0000 0.0000 0.0000 0.0000 43.6791
#
#
#
# Elastic Compliance Matrix: (Units=1/GPa)
#
#
# Indices 1 2 3 4 5 6 
#
# 1 0.008555 -0.006168 -0.003150 0.000000 0.000000 0.000000
# 2 -0.006168 0.016741 0.004504 0.000000 0.000000 0.000000
# 3 -0.003150 0.004504 0.024763 0.000000 0.000000 0.000000
# 4 0.000000 0.000000 0.000000 0.037253 0.000000 0.000000
# 5 0.000000 0.000000 0.000000 0.000000 0.031372 0.000000
# 6 0.000000 0.000000 0.000000 0.000000 0.000000 0.022894
#
#
# Mechanical properties :
#
#
# Convention : Reuss Voigt Hill
#
# Bulk Modulus (GPa) = 24.73396 45.09623 34.91509
# Shear Modulus (GPa) = 30.36114 35.69884 33.02999
#
# Velocity S-wave (km/s) = 3.66715 3.97646 3.82493
# Velocity P-wave (km/s) = 5.37458 6.40762 5.91370
#
# Compressibility (1/GPa) = 0.04043025
#
# Stress axis : x y z
#
# Youngs Moduli (GPa) = 116.89147 59.73279 40.38256
#
# Poissons Ratio (x) = 0.36846 0.12720
# Poissons Ratio (y) = 0.72103 -0.18188
# Poissons Ratio (z) = 0.36821 -0.26903
#
# Static dielectric constant tensor:
#      x y z
#    x 1.790750 0.000000 0.000000 
#    y 0.000000 1.874170 0.000000 
#    z 0.000000 0.000000 1.921790 
# 
# From -- ./inp_files/26097.got.cif
#   From: 2010.05.17/outbox.cif.g08.bks.cpg/sg60_14_cif.got.tgz:26097.got - 2010.06.03 14:59:27.
