data_PCOD9458709
_publ_section_title
;
Structure prediction by ZEFSAII (Michael W. Deem and Ramdas Pophale) SiO2 
 PCOD9458709
Probable space group: P B C N
;
_chemical_formula_sum "Si O2"
_cell_formula_units_Z 44
_cell_length_a 12.999058
_cell_length_b 9.104639
_cell_length_c 17.294981
_cell_angle_alpha 90.000000
_cell_angle_beta 90.000000
_cell_angle_gamma 90.000000
_cell_volume 2046.890929
_symmetry_space_group_name_H-M "P B C N"
_symmetry_group_IT_number 60
_symmetry_cell_setting 'orthorhombic'
loop_
_space_group_symop_operation_xyz
x,y,z
1/2-x,1/2-y,1/2+z
1/2+x,1/2-y,-z
-x,y,1/2-z
-x,-y,-z
1/2+x,1/2+y,1/2-z
1/2-x,1/2+y,z
x,-y,1/2+z
loop_
_atom_site_type_symbol
_atom_site_label
_atom_site_fract_x
_atom_site_fract_y
_atom_site_fract_z
Si Si1 0.230978 0.919078 0.955914
Si Si2 0.668199 0.952366 0.199143
Si Si3 0.452939 0.701791 0.364794
Si Si4 0.823607 0.253552 0.795023
Si Si5 0.500000 0.546020 0.750000
Si Si6 0.177015 0.190652 0.061692
O O1 0.133480 0.821712 0.929881
O O2 0.279349 0.991409 0.879769
O O3 0.313894 0.818263 0.998443
O O4 0.193278 0.040135 0.016239
O O5 0.569778 0.856017 0.175966
O O6 0.743378 0.837990 0.242394
O O7 0.650842 0.093342 0.252951
O O8 0.439500 0.565354 0.305833
O O9 0.567906 0.693968 0.396153
O O10 0.767246 0.285474 0.875587
O O11 0.923595 0.149811 0.798203
#
# Coordination Sequence:
#
# PCOD9458709 Si02
#       6
#     8   8   8   8   4   8
#     4  12  24  48  70 104 145 193 234 298 374 439
#     4  12  23  47  75  99 146 193 239 300 362 439
#     4  12  25  47  75 103 148 193 244 299 377 432
#     4  12  25  46  72 109 144 188 253 304 361 435
#     4  12  26  46  78 108 138 202 246 310 364 426
#     4  12  27  44  72 107 147 187 244 306 365 438
#
# _framework density 21.496016000000001
#
# number of rings (size 3 to 8) (size 9 to 14) (size 15 to 20)
#    0.000    0.000    5.455    4.909    0.000    4.364 
#    0.000    0.000    0.000    0.000    0.000    0.000 
#    0.000    0.000    0.000    0.000    0.000    0.000 
#
# Total GULP energy -246483.650055 kJ/mol
# GULP energy per Si atom -5601.901138 kJ/mol
# Density = 2.144709 g / cm^3
# Si number density = 21.496016 Si / 1000 Ang^3
#
#
#
# Elastic Constant Matrix: (Units=GPa)
#
#
# Indices 1 2 3 4 5 6 
#
# 1 50.0648 17.0898 19.5408 0.0000 0.0000 0.0000
# 2 17.0898 132.0826 37.8270 0.0000 0.0000 0.0000
# 3 19.5408 37.8270 98.1685 0.0000 0.0000 0.0000
# 4 0.0000 0.0000 0.0000 40.7615 0.0000 0.0000
# 5 0.0000 0.0000 0.0000 0.0000 30.9581 0.0000
# 6 0.0000 0.0000 0.0000 0.0000 0.0000 40.0995
#
#
#
# Elastic Compliance Matrix: (Units=1/GPa)
#
#
# Indices 1 2 3 4 5 6 
#
# 1 0.022028 -0.001792 -0.003694 0.000000 0.000000 0.000000
# 2 -0.001792 0.008656 -0.002979 0.000000 0.000000 0.000000
# 3 -0.003694 -0.002979 0.012070 0.000000 0.000000 0.000000
# 4 0.000000 0.000000 0.000000 0.024533 0.000000 0.000000
# 5 0.000000 0.000000 0.000000 0.000000 0.032302 0.000000
# 6 0.000000 0.000000 0.000000 0.000000 0.000000 0.024938
#
#
# Mechanical properties :
#
#
# Convention : Reuss Voigt Hill
#
# Bulk Modulus (GPa) = 38.72448 47.69237 43.20843
# Shear Modulus (GPa) = 33.31919 36.08769 34.70344
#
# Velocity S-wave (km/s) = 3.94130 4.10177 4.02233
# Velocity P-wave (km/s) = 6.22620 6.68337 6.45883
#
# Compressibility (1/GPa) = 0.02582346
#
# Stress axis : x y z
#
# Youngs Moduli (GPa) = 45.39736 115.52744 82.85246
#
# Poissons Ratio (x) = 0.20704 0.30607
# Poissons Ratio (y) = 0.08136 0.24679
# Poissons Ratio (z) = 0.16770 0.34411
#
# Static dielectric constant tensor:
#      x y z
#    x 1.778720 0.000000 0.000000 
#    y 0.000000 1.764430 0.000000 
#    z 0.000000 0.000000 1.776820 
# 
# From -- ./inp_files/20449.got.cif
#   From: 2010.05.17/outbox.cif.g08.bks.cpg/sg60_11_cif.got.tgz:20449.got - 2010.06.03 14:59:27.
