data_PCOD9458175
_publ_section_title
;
Structure prediction by ZEFSAII (Michael W. Deem and Ramdas Pophale) SiO2 
 PCOD9458175
Probable space group: P B C N
;
_chemical_formula_sum "Si O2"
_cell_formula_units_Z 44
_cell_length_a 13.541432
_cell_length_b 8.948311
_cell_length_c 14.330649
_cell_angle_alpha 90.000000
_cell_angle_beta 90.000000
_cell_angle_gamma 90.000000
_cell_volume 1736.486942
_symmetry_space_group_name_H-M "P B C N"
_symmetry_group_IT_number 60
_symmetry_cell_setting 'orthorhombic'
loop_
_space_group_symop_operation_xyz
x,y,z
1/2-x,1/2-y,1/2+z
1/2+x,1/2-y,-z
-x,y,1/2-z
-x,-y,-z
1/2+x,1/2+y,1/2-z
1/2-x,1/2+y,z
x,-y,1/2+z
loop_
_atom_site_type_symbol
_atom_site_label
_atom_site_fract_x
_atom_site_fract_y
_atom_site_fract_z
Si Si1 0.974592 0.425362 0.399566
Si Si2 0.171873 0.341773 0.678193
Si Si3 0.000000 0.117366 0.750000
Si Si4 0.043213 0.900554 0.917351
Si Si5 0.323769 0.044262 0.367343
Si Si6 0.757286 0.265843 0.017122
O O1 0.977367 0.247076 0.398427
O O2 0.070233 0.478608 0.340105
O O3 0.000000 0.500000 0.500000
O O4 0.879191 0.510313 0.363636
O O5 0.224263 0.389565 0.773967
O O6 0.238187 0.284053 0.593285
O O7 0.086022 0.222576 0.705596
O O8 0.954719 0.008778 0.671520
O O9 0.146438 0.829891 0.952224
O O10 0.000000 0.000000 0.000000
O O11 0.334813 0.179777 0.439988
O O12 0.268767 0.917248 0.425033
#
# Coordination Sequence:
#
# PCOD9458175 Si02
#       6
#     8   8   4   8   8   8
#     4  11  21  45  75 102 139 187 242 295 359 431
#     4  12  24  47  76 104 136 199 237 291 371 425
#     4  12  24  40  74 110 138 174 246 302 346 430
#     4  11  24  42  70 112 141 182 239 302 356 423
#     4  11  26  44  71  98 149 184 241 293 360 437
#     4  11  27  48  67 105 145 189 234 297 370 424
#
# _framework density 25.338515000000001
#
# number of rings (size 3 to 8) (size 9 to 14) (size 15 to 20)
#    0.000    0.727    7.273    0.000    7.636    1.455 
#    0.000    0.000    0.000    0.000    0.000    0.000 
#    0.000    0.000    0.000    0.000    0.000    0.000 
#
# Total GULP energy -246598.845289 kJ/mol
# GULP energy per Si atom -5604.519211 kJ/mol
# Density = 2.528084 g / cm^3
# Si number density = 25.338515 Si / 1000 Ang^3
#
#
#
# Elastic Constant Matrix: (Units=GPa)
#
#
# Indices 1 2 3 4 5 6 
#
# 1 53.9812 42.0529 30.8225 0.0000 0.0000 0.0000
# 2 42.0529 173.6038 70.1908 0.0000 0.0000 0.0000
# 3 30.8225 70.1908 199.3552 0.0000 0.0000 0.0000
# 4 0.0000 0.0000 0.0000 49.4390 0.0000 0.0000
# 5 0.0000 0.0000 0.0000 0.0000 30.1408 0.0000
# 6 0.0000 0.0000 0.0000 0.0000 0.0000 36.7316
#
#
#
# Elastic Compliance Matrix: (Units=1/GPa)
#
#
# Indices 1 2 3 4 5 6 
#
# 1 0.023432 -0.004910 -0.001894 0.000000 0.000000 0.000000
# 2 -0.004910 0.007745 -0.001968 0.000000 0.000000 0.000000
# 3 -0.001894 -0.001968 0.006002 0.000000 0.000000 0.000000
# 4 0.000000 0.000000 0.000000 0.020227 0.000000 0.000000
# 5 0.000000 0.000000 0.000000 0.000000 0.033178 0.000000
# 6 0.000000 0.000000 0.000000 0.000000 0.000000 0.027225
#
#
# Mechanical properties :
#
#
# Convention : Reuss Voigt Hill
#
# Bulk Modulus (GPa) = 50.93022 79.23029 65.08025
# Shear Modulus (GPa) = 35.23688 42.18720 38.71204
#
# Velocity S-wave (km/s) = 3.73318 4.08480 3.91294
# Velocity P-wave (km/s) = 6.22300 7.32011 6.79374
#
# Compressibility (1/GPa) = 0.01963471
#
# Stress axis : x y z
#
# Youngs Moduli (GPa) = 42.67746 129.11047 166.61493
#
# Poissons Ratio (x) = 0.63396 0.31556
# Poissons Ratio (y) = 0.20955 0.32788
# Poissons Ratio (z) = 0.08083 0.25407
#
# Static dielectric constant tensor:
#      x y z
#    x 2.096660 0.000000 0.000000 
#    y 0.000000 2.005210 0.000000 
#    z 0.000000 0.000000 2.021880 
# 
# From -- ./inp_files/17279.got.cif
#   From: 2010.05.17/outbox.cif.g08.bks.cpg/sg60_9_cif.got.tgz:17279.got - 2010.06.03 14:59:27.
