data_PCOD9458854
_publ_section_title
;
Structure prediction by ZEFSAII (Michael W. Deem and Ramdas Pophale) SiO2 
 PCOD9458854
Probable space group: P B C N
;
_chemical_formula_sum "Si O2"
_cell_formula_units_Z 64
_cell_length_a 7.577941
_cell_length_b 41.634921
_cell_length_c 10.377302
_cell_angle_alpha 90.000000
_cell_angle_beta 90.000000
_cell_angle_gamma 90.000000
_cell_volume 3274.111161
_symmetry_space_group_name_H-M "P B C N"
_symmetry_group_IT_number 60
_symmetry_cell_setting 'orthorhombic'
loop_
_space_group_symop_operation_xyz
x,y,z
1/2-x,1/2-y,1/2+z
1/2+x,1/2-y,-z
-x,y,1/2-z
-x,-y,-z
1/2+x,1/2+y,1/2-z
1/2-x,1/2+y,z
x,-y,1/2+z
loop_
_atom_site_type_symbol
_atom_site_label
_atom_site_fract_x
_atom_site_fract_y
_atom_site_fract_z
Si Si1 0.715643 0.150729 0.397539
Si Si2 0.711267 0.776667 0.894379
Si Si3 0.288355 0.474626 0.395972
Si Si4 0.284357 0.150729 0.397539
Si Si5 0.712082 0.098909 0.603762
Si Si6 0.788355 0.025374 0.895972
Si Si7 0.788734 0.723333 0.105621
Si Si8 0.712082 0.901091 0.396238
O O1 0.772922 0.187243 0.427773
O O2 0.500000 0.150316 0.399749
O O3 0.767695 0.143490 0.250000
O O4 0.778225 0.124747 0.500805
O O5 0.776775 0.768551 0.750000
O O6 0.500000 0.778721 0.886560
O O7 0.750000 0.750000 0.000000
O O8 0.252340 0.437783 0.433206
O O9 0.500000 0.478414 0.390456
O O10 0.220044 0.479477 0.250000
O O11 0.219597 0.500000 0.500000
O O12 0.227078 0.187243 0.427773
O O13 0.221775 0.124747 0.500805
O O14 0.500000 0.101943 0.608037
O O15 0.778520 0.104052 0.750000
O O16 0.752340 0.062217 0.933206
#
# Coordination Sequence:
#
# PCOD9458854 Si02
#       8
#     8   8   8   8   8   8   8   8
#     4   8  15  29  47  66  90 119 149 183 224 268
#     4   9  18  32  49  70  96 125 158 195 234 278
#     4   9  18  32  47  63  87 118 147 176 215 262
#     4   8  15  29  47  66  90 119 149 183 224 268
#     4   9  17  29  46  68  90 112 144 184 221 260
#     4   9  18  32  47  63  87 118 147 176 215 262
#     4   9  18  32  49  70  96 125 158 195 234 278
#     4   9  17  29  46  68  90 112 144 184 221 260
#
# _framework density 19.547291000000001
#
# number of rings (size 3 to 8) (size 9 to 14) (size 15 to 20)
#    0.000    3.250    0.000    1.500    0.000    3.000 
#    0.000    3.750    0.000    4.500    0.000    0.000 
#    0.000    0.000    0.000    0.000    0.000    0.000 
#
# Total GULP energy -356798.198811 kJ/mol
# GULP energy per Si atom -5574.971856 kJ/mol
# Density = 1.950280 g / cm^3
# Si number density = 19.547291 Si / 1000 Ang^3
#
#
#
# Elastic Constant Matrix: (Units=GPa)
#
#
# Indices 1 2 3 4 5 6 
#
# 1 41.9183 2.4469 5.4463 0.0000 0.0000 0.0000
# 2 2.4469 194.9656 164.9570 0.0000 0.0000 0.0000
# 3 5.4463 164.9570 165.4710 0.0000 0.0000 0.0000
# 4 0.0000 0.0000 0.0000 43.8471 0.0000 0.0000
# 5 0.0000 0.0000 0.0000 0.0000 8.1480 0.0000
# 6 0.0000 0.0000 0.0000 0.0000 0.0000 18.2048
#
#
#
# Elastic Compliance Matrix: (Units=1/GPa)
#
#
# Indices 1 2 3 4 5 6 
#
# 1 0.024127 0.002358 -0.003144 0.000000 0.000000 0.000000
# 2 0.002358 0.032995 -0.032970 0.000000 0.000000 0.000000
# 3 -0.003144 -0.032970 0.039014 0.000000 0.000000 0.000000
# 4 0.000000 0.000000 0.000000 0.022807 0.000000 0.000000
# 5 0.000000 0.000000 0.000000 0.000000 0.122729 0.000000
# 6 0.000000 0.000000 0.000000 0.000000 0.000000 0.054931
#
#
# Mechanical properties :
#
#
# Convention : Reuss Voigt Hill
#
# Bulk Modulus (GPa) = 34.93742 83.11725 59.02733
# Shear Modulus (GPa) = 13.38128 29.34030 21.36079
#
# Velocity S-wave (km/s) = 2.61925 3.87847 3.30930
# Velocity P-wave (km/s) = 5.20186 7.91644 6.69811
#
# Compressibility (1/GPa) = 0.02862261
#
# Stress axis : x y z
#
# Youngs Moduli (GPa) = 41.44762 30.30792 25.63167
#
# Poissons Ratio (x) = -0.07145 0.08060
# Poissons Ratio (y) = -0.09772 0.84507
# Poissons Ratio (z) = 0.13033 0.99925
#
# Static dielectric constant tensor:
#      x y z
#    x 1.752020 0.000000 0.000000 
#    y 0.000000 1.653230 0.000000 
#    z 0.000000 0.000000 1.692360 
# 
# From -- ./inp_files/10368.got.cif
#   From: 2010.05.17/outbox.cif.g08.bks.cpg/sg60_6_cif.got.tgz:10368.got - 2010.06.03 14:59:27.
