data_PCOD9458491
_publ_section_title
;
Structure prediction by ZEFSAII (Michael W. Deem and Ramdas Pophale) SiO2 
 PCOD9458491
Probable space group: P B C N
;
_chemical_formula_sum "Si O2"
_cell_formula_units_Z 48
_cell_length_a 6.059266
_cell_length_b 13.378493
_cell_length_c 26.205861
_cell_angle_alpha 90.000000
_cell_angle_beta 90.000000
_cell_angle_gamma 90.000000
_cell_volume 2124.347927
_symmetry_space_group_name_H-M "P B C N"
_symmetry_group_IT_number 60
_symmetry_cell_setting 'orthorhombic'
loop_
_space_group_symop_operation_xyz
x,y,z
1/2-x,1/2-y,1/2+z
1/2+x,1/2-y,-z
-x,y,1/2-z
-x,-y,-z
1/2+x,1/2+y,1/2-z
1/2-x,1/2+y,z
x,-y,1/2+z
loop_
_atom_site_type_symbol
_atom_site_label
_atom_site_fract_x
_atom_site_fract_y
_atom_site_fract_z
Si Si1 0.112716 0.345710 0.137680
Si Si2 0.250641 0.725211 0.225235
Si Si3 0.966959 0.899063 0.968740
Si Si4 0.275758 0.672093 0.375187
Si Si5 0.028425 0.456141 0.691599
Si Si6 0.613698 0.244336 0.447562
O O1 0.911214 0.268470 0.142465
O O2 0.267382 0.313683 0.184402
O O3 0.053719 0.458691 0.149439
O O4 0.222311 0.315879 0.084484
O O5 0.500000 0.732564 0.250000
O O6 0.235866 0.619109 0.195284
O O7 0.000000 0.726798 0.250000
O O8 0.717544 0.863207 0.960524
O O9 0.082461 0.896685 0.913660
O O10 0.057395 0.806083 0.002174
O O11 0.000000 0.000000 0.000000
O O12 0.177855 0.609543 0.328354
O O13 0.084339 0.718731 0.410067
O O14 0.000000 0.495183 0.750000
#
# Coordination Sequence:
#
# PCOD9458491 Si02
#       6
#     8   8   8   8   8   8
#     4  11  25  44  71 100 145 193 243 305 385 451
#     4  11  24  46  71 104 150 194 254 322 378 446
#     4  11  26  43  74 103 141 190 238 313 381 459
#     4  11  25  48  70 102 154 186 252 316 373 458
#     4  11  25  46  71 106 139 198 251 310 379 454
#     4  11  24  45  65 105 140 186 244 299 378 452
#
# _framework density 22.59517
#
# number of rings (size 3 to 8) (size 9 to 14) (size 15 to 20)
#    0.000    1.000    3.333    2.500    4.667    1.333 
#    6.000    0.000    0.000    0.000    0.000    0.000 
#    0.000    0.000    0.000    0.000    0.000    0.000 
#
# Total GULP energy -267823.158813 kJ/mol
# GULP energy per Si atom -5579.649142 kJ/mol
# Density = 2.254374 g / cm^3
# Si number density = 22.595170 Si / 1000 Ang^3
#
#
#
# Elastic Constant Matrix: (Units=GPa)
#
#
# Indices 1 2 3 4 5 6 
#
# 1 80.1673 13.6240 38.9203 0.0000 0.0000 0.0000
# 2 13.6240 29.6647 4.2309 0.0000 0.0000 0.0000
# 3 38.9203 4.2309 87.5397 0.0000 0.0000 0.0000
# 4 0.0000 0.0000 0.0000 46.4483 0.0000 0.0000
# 5 0.0000 0.0000 0.0000 0.0000 38.8035 0.0000
# 6 0.0000 0.0000 0.0000 0.0000 0.0000 11.9820
#
#
#
# Elastic Compliance Matrix: (Units=1/GPa)
#
#
# Indices 1 2 3 4 5 6 
#
# 1 0.017187 -0.006851 -0.007310 0.000000 0.000000 0.000000
# 2 -0.006851 0.036675 0.001273 0.000000 0.000000 0.000000
# 3 -0.007310 0.001273 0.014612 0.000000 0.000000 0.000000
# 4 0.000000 0.000000 0.000000 0.021529 0.000000 0.000000
# 5 0.000000 0.000000 0.000000 0.000000 0.025771 0.000000
# 6 0.000000 0.000000 0.000000 0.000000 0.000000 0.083459
#
#
# Mechanical properties :
#
#
# Convention : Reuss Voigt Hill
#
# Bulk Modulus (GPa) = 23.42011 34.54692 28.98352
# Shear Modulus (GPa) = 20.89938 28.81986 24.85962
#
# Velocity S-wave (km/s) = 3.04460 3.57527 3.32055
# Velocity P-wave (km/s) = 4.76938 5.68912 5.24944
#
# Compressibility (1/GPa) = 0.04269834
#
# Stress axis : x y z
#
# Youngs Moduli (GPa) = 58.18249 27.26664 68.43671
#
# Poissons Ratio (x) = 0.18680 0.50030
# Poissons Ratio (y) = 0.39860 -0.08715
# Poissons Ratio (z) = 0.42534 -0.03472
#
# Static dielectric constant tensor:
#      x y z
#    x 1.944630 0.000000 0.000000 
#    y 0.000000 1.833300 0.000000 
#    z 0.000000 0.000000 1.900670 
# 
# From -- ./inp_files/24845.got.cif
#   From: 2010.05.17/outbox.cif.g08.bks.cpg/sg60_13_cif.got.tgz:24845.got - 2010.06.03 14:59:27.
