data_PCOD9458827
_publ_section_title
;
Structure prediction by ZEFSAII (Michael W. Deem and Ramdas Pophale) SiO2 
 PCOD9458827
Probable space group: P B C N
;
_chemical_formula_sum "Si O2"
_cell_formula_units_Z 20
_cell_length_a 5.322143
_cell_length_b 19.449325
_cell_length_c 8.010092
_cell_angle_alpha 90.000000
_cell_angle_beta 90.000000
_cell_angle_gamma 90.000000
_cell_volume 829.141355
_symmetry_space_group_name_H-M "P B C N"
_symmetry_group_IT_number 60
_symmetry_cell_setting 'orthorhombic'
loop_
_space_group_symop_operation_xyz
x,y,z
1/2-x,1/2-y,1/2+z
1/2+x,1/2-y,-z
-x,y,1/2-z
-x,-y,-z
1/2+x,1/2+y,1/2-z
1/2-x,1/2+y,z
x,-y,1/2+z
loop_
_atom_site_type_symbol
_atom_site_label
_atom_site_fract_x
_atom_site_fract_y
_atom_site_fract_z
Si Si1 0.581238 0.775696 0.573890
Si Si2 0.500000 0.458658 0.250000
Si Si3 0.814855 0.089227 0.105458
O O1 0.362289 0.749576 0.456152
O O2 0.500000 0.746897 0.750000
O O3 0.588187 0.858511 0.580970
O O4 0.574123 0.419060 0.418174
O O5 0.286766 0.512542 0.318299
O O6 0.000000 0.119972 0.250000
#
# Coordination Sequence:
#
# PCOD9458827 Si02
#       3
#     8   4   8
#     4  12  27  49  75 109 150 199 252 311 376 448
#     4   8  18  38  74 112 150 194 250 304 388 442
#     4   9  18  41  71 107 154 188 251 309 372 445
#
# _framework density 24.121338000000002
#
# number of rings (size 3 to 8) (size 9 to 14) (size 15 to 20)
#    1.200    0.800    0.000    3.600    2.800    0.000 
#    7.200    2.000    0.000    0.000    0.000    0.000 
#    0.000    0.000    0.000    0.000    0.000    0.000 
#
# Total GULP energy -111463.604727 kJ/mol
# GULP energy per Si atom -5573.180236 kJ/mol
# Density = 2.406644 g / cm^3
# Si number density = 24.121338 Si / 1000 Ang^3
#
#
#
# Elastic Constant Matrix: (Units=GPa)
#
#
# Indices 1 2 3 4 5 6 
#
# 1 65.7112 46.4829 39.4995 0.0000 0.0000 0.0000
# 2 46.4829 81.7523 49.3338 0.0000 0.0000 0.0000
# 3 39.4995 49.3338 197.3770 0.0000 0.0000 0.0000
# 4 0.0000 0.0000 0.0000 20.4697 0.0000 0.0000
# 5 0.0000 0.0000 0.0000 0.0000 40.1920 0.0000
# 6 0.0000 0.0000 0.0000 0.0000 0.0000 155.5349
#
#
#
# Elastic Compliance Matrix: (Units=1/GPa)
#
#
# Indices 1 2 3 4 5 6 
#
# 1 0.025974 -0.013698 -0.001774 0.000000 0.000000 0.000000
# 2 -0.013698 0.021628 -0.002665 0.000000 0.000000 0.000000
# 3 -0.001774 -0.002665 0.006088 0.000000 0.000000 0.000000
# 4 0.000000 0.000000 0.000000 0.048853 0.000000 0.000000
# 5 0.000000 0.000000 0.000000 0.000000 0.024881 0.000000
# 6 0.000000 0.000000 0.000000 0.000000 0.000000 0.006429
#
#
# Mechanical properties :
#
#
# Convention : Reuss Voigt Hill
#
# Bulk Modulus (GPa) = 57.41650 68.38587 62.90119
# Shear Modulus (GPa) = 28.42007 57.20760 42.81384
#
# Velocity S-wave (km/s) = 3.43623 4.87525 4.21757
# Velocity P-wave (km/s) = 6.29273 7.75262 7.06051
#
# Compressibility (1/GPa) = 0.01741660
#
# Stress axis : x y z
#
# Youngs Moduli (GPa) = 38.49975 46.23546 164.26931
#
# Poissons Ratio (x) = 0.63332 0.29146
# Poissons Ratio (y) = 0.52736 0.43773
# Poissons Ratio (z) = 0.06831 0.12321
#
# Static dielectric constant tensor:
#      x y z
#    x 1.536490 0.000000 0.000000 
#    y 0.000000 1.942120 0.000000 
#    z 0.000000 0.000000 1.931470 
# 
# From -- ./inp_files/2827.got.cif
#   From: 2010.05.17/outbox.cif.g08.bks.cpg/sg60_2_cif.got.tgz:2827.got - 2010.06.03 14:59:27.
