data_PCOD9458841
_publ_section_title
;
Structure prediction by ZEFSAII (Michael W. Deem and Ramdas Pophale) SiO2 
 PCOD9458841
Probable space group: P B C N
;
_chemical_formula_sum "Si O2"
_cell_formula_units_Z 24
_cell_length_a 18.333787
_cell_length_b 4.893115
_cell_length_c 9.779452
_cell_angle_alpha 90.000000
_cell_angle_beta 90.000000
_cell_angle_gamma 90.000000
_cell_volume 877.308069
_symmetry_space_group_name_H-M "P B C N"
_symmetry_group_IT_number 60
_symmetry_cell_setting 'orthorhombic'
loop_
_space_group_symop_operation_xyz
x,y,z
1/2-x,1/2-y,1/2+z
1/2+x,1/2-y,-z
-x,y,1/2-z
-x,-y,-z
1/2+x,1/2+y,1/2-z
1/2-x,1/2+y,z
x,-y,1/2+z
loop_
_atom_site_type_symbol
_atom_site_label
_atom_site_fract_x
_atom_site_fract_y
_atom_site_fract_z
Si Si1 0.425229 0.147163 0.541618
Si Si2 0.197774 0.260649 0.592406
Si Si3 0.580295 0.546455 0.715064
O O1 0.420522 0.266721 0.696198
O O2 0.417272 0.416518 0.447115
O O3 0.500000 0.000000 0.500000
O O4 0.361473 0.933580 0.507442
O O5 0.266915 0.462153 0.579599
O O6 0.149523 0.214940 0.729528
O O7 0.500000 0.664981 0.750000
#
# Coordination Sequence:
#
# PCOD9458841 Si02
#       3
#     8   8   8
#     4  12  29  53  89 128 172 229 298 360 437 527
#     4  12  28  54  80 126 174 226 285 365 437 514
#     4  12  28  52  88 124 172 226 294 354 436 522
#
# _framework density 27.356411000000001
#
# number of rings (size 3 to 8) (size 9 to 14) (size 15 to 20)
#    0.000    0.000    6.667    1.000    4.667    2.667 
#    0.000    0.000    0.000    0.000    0.000    0.000 
#    0.000    0.000    0.000    0.000    0.000    0.000 
#
# Total GULP energy -133927.128433 kJ/mol
# GULP energy per Si atom -5580.297018 kJ/mol
# Density = 2.729415 g / cm^3
# Si number density = 27.356411 Si / 1000 Ang^3
#
#
#
# Elastic Constant Matrix: (Units=GPa)
#
#
# Indices 1 2 3 4 5 6 
#
# 1 173.6802 35.2885 17.3217 0.0000 0.0000 0.0000
# 2 35.2885 199.7765 44.8515 0.0000 0.0000 0.0000
# 3 17.3217 44.8515 44.0243 0.0000 0.0000 0.0000
# 4 0.0000 0.0000 0.0000 24.1887 0.0000 0.0000
# 5 0.0000 0.0000 0.0000 0.0000 45.6599 0.0000
# 6 0.0000 0.0000 0.0000 0.0000 0.0000 48.2360
#
#
#
# Elastic Compliance Matrix: (Units=1/GPa)
#
#
# Indices 1 2 3 4 5 6 
#
# 1 0.006066 -0.000695 -0.001679 0.000000 0.000000 0.000000
# 2 -0.000695 0.006570 -0.006420 0.000000 0.000000 0.000000
# 3 -0.001679 -0.006420 0.029916 0.000000 0.000000 0.000000
# 4 0.000000 0.000000 0.000000 0.041342 0.000000 0.000000
# 5 0.000000 0.000000 0.000000 0.000000 0.021901 0.000000
# 6 0.000000 0.000000 0.000000 0.000000 0.000000 0.020731
#
#
# Mechanical properties :
#
#
# Convention : Reuss Voigt Hill
#
# Bulk Modulus (GPa) = 40.05667 68.04494 54.05080
# Shear Modulus (GPa) = 32.80102 44.95155 38.87628
#
# Velocity S-wave (km/s) = 3.46645 4.05802 3.77384
# Velocity P-wave (km/s) = 5.54040 6.84720 6.22817
#
# Compressibility (1/GPa) = 0.02496463
#
# Stress axis : x y z
#
# Youngs Moduli (GPa) = 164.84501 152.21714 33.42715
#
# Poissons Ratio (x) = 0.10572 0.05613
# Poissons Ratio (y) = 0.11449 0.21459
# Poissons Ratio (z) = 0.27682 0.97719
#
# Static dielectric constant tensor:
#      x y z
#    x 2.119210 0.000000 0.000000 
#    y 0.000000 2.185800 0.000000 
#    z 0.000000 0.000000 2.190310 
# 
# From -- ./inp_files/12660.got.cif
#   From: 2010.05.17/outbox.cif.g08.bks.cpg/sg60_7_cif.got.tgz:12660.got - 2010.06.03 14:59:27.
