data_PCOD9458389
_publ_section_title
;
Structure prediction by ZEFSAII (Michael W. Deem and Ramdas Pophale) SiO2 
 PCOD9458389
Probable space group: P B C N
;
_chemical_formula_sum "Si O2"
_cell_formula_units_Z 56
_cell_length_a 5.276993
_cell_length_b 13.901712
_cell_length_c 29.443018
_cell_angle_alpha 90.000000
_cell_angle_beta 90.000000
_cell_angle_gamma 90.000000
_cell_volume 2159.917333
_symmetry_space_group_name_H-M "P B C N"
_symmetry_group_IT_number 60
_symmetry_cell_setting 'orthorhombic'
loop_
_space_group_symop_operation_xyz
x,y,z
1/2-x,1/2-y,1/2+z
1/2+x,1/2-y,-z
-x,y,1/2-z
-x,-y,-z
1/2+x,1/2+y,1/2-z
1/2-x,1/2+y,z
x,-y,1/2+z
loop_
_atom_site_type_symbol
_atom_site_label
_atom_site_fract_x
_atom_site_fract_y
_atom_site_fract_z
Si Si1 0.386497 0.665324 0.700152
Si Si2 0.623938 0.688916 0.990290
Si Si3 0.663661 0.790988 0.627242
Si Si4 0.693542 0.509007 0.353051
Si Si5 0.454854 0.669331 0.199687
Si Si6 0.781195 0.044436 0.067729
Si Si7 0.524278 0.130280 0.913542
O O1 0.500000 0.688181 0.750000
O O2 0.496630 0.713998 0.654112
O O3 0.415890 0.554101 0.688564
O O4 0.115795 0.718396 0.702011
O O5 0.722279 0.659259 0.940473
O O6 0.357550 0.743142 0.993234
O O7 0.617776 0.597297 0.023264
O O8 0.594526 0.875300 0.591608
O O9 0.802272 0.843391 0.668957
O O10 0.875343 0.725253 0.601317
O O11 0.753266 0.609730 0.328857
O O12 0.503400 0.525199 0.395409
O O13 0.911915 0.439025 0.371310
O O14 0.500000 0.634827 0.250000
O O15 0.643638 0.944093 0.056924
#
# Coordination Sequence:
#
# PCOD9458389 Si02
#       7
#     8   8   8   8   8   8   8
#     4  12  23  41  69  98 141 190 240 304 370 446
#     4  12  30  50  80 116 155 202 257 323 391 473
#     4  11  23  44  69 104 141 191 245 303 377 453
#     4  11  26  42  72 104 144 190 253 306 380 460
#     4  11  23  44  65 102 142 190 245 307 374 452
#     4  11  26  47  73 106 146 192 248 314 379 456
#     4  12  25  46  76 105 149 196 249 315 386 469
#
# _framework density 25.926917
#
# number of rings (size 3 to 8) (size 9 to 14) (size 15 to 20)
#    0.000    0.571    5.714    1.714    6.000    0.571 
#    0.000    0.714    0.000    0.000    0.000    0.000 
#    0.000    0.000    0.000    0.000    0.000    0.000 
#
# Total GULP energy -313185.513607 kJ/mol
# GULP energy per Si atom -5592.598457 kJ/mol
# Density = 2.586791 g / cm^3
# Si number density = 25.926917 Si / 1000 Ang^3
#
#
#
# Elastic Constant Matrix: (Units=GPa)
#
#
# Indices 1 2 3 4 5 6 
#
# 1 58.3634 10.8327 14.9156 0.0000 0.0000 0.0000
# 2 10.8327 119.6176 30.8590 0.0000 0.0000 0.0000
# 3 14.9156 30.8590 126.9730 0.0000 0.0000 0.0000
# 4 0.0000 0.0000 0.0000 48.0035 0.0000 0.0000
# 5 0.0000 0.0000 0.0000 0.0000 38.4829 0.0000
# 6 0.0000 0.0000 0.0000 0.0000 0.0000 36.5891
#
#
#
# Elastic Compliance Matrix: (Units=1/GPa)
#
#
# Indices 1 2 3 4 5 6 
#
# 1 0.017810 -0.001145 -0.001814 0.000000 0.000000 0.000000
# 2 -0.001145 0.008993 -0.002051 0.000000 0.000000 0.000000
# 3 -0.001814 -0.002051 0.008587 0.000000 0.000000 0.000000
# 4 0.000000 0.000000 0.000000 0.020832 0.000000 0.000000
# 5 0.000000 0.000000 0.000000 0.000000 0.025986 0.000000
# 6 0.000000 0.000000 0.000000 0.000000 0.000000 0.027331
#
#
# Mechanical properties :
#
#
# Convention : Reuss Voigt Hill
#
# Bulk Modulus (GPa) = 39.41615 46.46318 42.93967
# Shear Modulus (GPa) = 39.05800 41.17154 40.11477
#
# Velocity S-wave (km/s) = 3.88553 3.98928 3.93775
# Velocity P-wave (km/s) = 5.94690 6.25930 6.10510
#
# Compressibility (1/GPa) = 0.02537031
#
# Stress axis : x y z
#
# Youngs Moduli (GPa) = 56.14787 111.20009 116.45164
#
# Poissons Ratio (x) = 0.12732 0.21123
# Poissons Ratio (y) = 0.06429 0.23885
# Poissons Ratio (z) = 0.10185 0.22808
#
# Static dielectric constant tensor:
#      x y z
#    x 2.179370 0.000000 0.000000 
#    y 0.000000 2.073540 0.000000 
#    z 0.000000 0.000000 2.058390 
# 
# From -- ./inp_files/25688.got.cif
#   From: 2010.05.17/outbox.cif.g08.bks.cpg/sg60_13_cif.got.tgz:25688.got - 2010.06.03 14:59:27.
