data_PCOD9458082
_publ_section_title
;
Structure prediction by ZEFSAII (Michael W. Deem and Ramdas Pophale) SiO2 
 PCOD9458082
Probable space group: P B C N
;
_chemical_formula_sum "Si O2"
_cell_formula_units_Z 64
_cell_length_a 28.568030
_cell_length_b 9.138907
_cell_length_c 11.279871
_cell_angle_alpha 90.000000
_cell_angle_beta 90.000000
_cell_angle_gamma 90.000000
_cell_volume 2944.955143
_symmetry_space_group_name_H-M "P B C N"
_symmetry_group_IT_number 60
_symmetry_cell_setting 'orthorhombic'
loop_
_space_group_symop_operation_xyz
x,y,z
1/2-x,1/2-y,1/2+z
1/2+x,1/2-y,-z
-x,y,1/2-z
-x,-y,-z
1/2+x,1/2+y,1/2-z
1/2-x,1/2+y,z
x,-y,1/2+z
loop_
_atom_site_type_symbol
_atom_site_label
_atom_site_fract_x
_atom_site_fract_y
_atom_site_fract_z
Si Si1 0.376085 0.316030 0.103333
Si Si2 0.479324 0.800379 0.623495
Si Si3 0.660390 0.617660 0.303517
Si Si4 0.767911 0.922951 0.592411
Si Si5 0.993082 0.365977 0.123692
Si Si6 0.747684 0.176859 0.438662
Si Si7 0.616428 0.843541 0.144536
Si Si8 0.319076 0.104840 0.260646
O O1 0.431173 0.285821 0.114760
O O2 0.361328 0.484421 0.121727
O O3 0.352682 0.230617 0.213239
O O4 0.366737 0.234643 0.977030
O O5 0.500000 0.758480 0.750000
O O6 0.505127 0.779866 0.496610
O O7 0.478350 0.980310 0.626745
O O8 0.690365 0.571999 0.186346
O O9 0.701396 0.694569 0.380027
O O10 0.621389 0.726452 0.251263
O O11 0.775775 0.830611 0.472170
O O12 0.720817 0.854228 0.646542
O O13 0.753556 0.083924 0.556402
O O14 0.936807 0.395239 0.121608
O O15 0.000000 0.289415 0.250000
O O16 0.714036 0.080262 0.354433
O O17 0.650091 0.974710 0.185934
#
# Coordination Sequence:
#
# PCOD9458082 Si02
#       8
#     8   8   8   8   8   8   8   8
#     4  11  23  40  63  93 130 165 210 271 330 394
#     4   9  18  36  62  91 123 159 202 260 331 398
#     4  11  23  39  58  84 125 172 210 258 322 380
#     4  11  22  37  56  82 121 165 212 260 308 367
#     4   9  18  36  62  91 123 156 198 265 330 388
#     4  11  22  37  56  82 121 165 212 260 308 367
#     4  11  23  40  63  93 126 160 214 271 322 392
#     4  11  21  35  60  88 117 164 216 265 315 372
#
# _framework density 21.732078999999999
#
# number of rings (size 3 to 8) (size 9 to 14) (size 15 to 20)
#    0.000    1.500    0.000    6.750    0.000    4.000 
#    0.000    5.625    0.000    3.000    0.000    0.000 
#    0.000    0.000    0.000    0.000    0.000    0.000 
#
# Total GULP energy -356749.104142 kJ/mol
# GULP energy per Si atom -5574.204752 kJ/mol
# Density = 2.168262 g / cm^3
# Si number density = 21.732079 Si / 1000 Ang^3
#
#
#
# Elastic Constant Matrix: (Units=GPa)
#
#
# Indices 1 2 3 4 5 6 
#
# 1 59.8686 23.7418 13.3407 0.0000 0.0000 0.0000
# 2 23.7418 76.4556 21.6796 0.0000 0.0000 0.0000
# 3 13.3407 21.6796 110.6579 0.0000 0.0000 0.0000
# 4 0.0000 0.0000 0.0000 30.6466 0.0000 0.0000
# 5 0.0000 0.0000 0.0000 0.0000 20.6011 0.0000
# 6 0.0000 0.0000 0.0000 0.0000 0.0000 23.7200
#
#
#
# Elastic Compliance Matrix: (Units=1/GPa)
#
#
# Indices 1 2 3 4 5 6 
#
# 1 0.019202 -0.005618 -0.001214 0.000000 0.000000 0.000000
# 2 -0.005618 0.015493 -0.002358 0.000000 0.000000 0.000000
# 3 -0.001214 -0.002358 0.009645 0.000000 0.000000 0.000000
# 4 0.000000 0.000000 0.000000 0.032630 0.000000 0.000000
# 5 0.000000 0.000000 0.000000 0.000000 0.048541 0.000000
# 6 0.000000 0.000000 0.000000 0.000000 0.000000 0.042159
#
#
# Mechanical properties :
#
#
# Convention : Reuss Voigt Hill
#
# Bulk Modulus (GPa) = 38.52271 40.50067 39.51169
# Shear Modulus (GPa) = 25.68007 27.54156 26.61081
#
# Velocity S-wave (km/s) = 3.44127 3.56381 3.50307
# Velocity P-wave (km/s) = 5.79262 5.96751 5.88071
#
# Compressibility (1/GPa) = 0.02595871
#
# Stress axis : x y z
#
# Youngs Moduli (GPa) = 52.07818 64.54615 103.67860
#
# Poissons Ratio (x) = 0.36265 0.12589
# Poissons Ratio (y) = 0.29260 0.24447
# Poissons Ratio (z) = 0.06323 0.15219
#
# Static dielectric constant tensor:
#      x y z
#    x 1.834140 0.000000 0.000000 
#    y 0.000000 1.756430 0.000000 
#    z 0.000000 0.000000 1.894710 
# 
# From -- ./inp_files/13408.got.cif
#   From: 2010.05.17/outbox.cif.g08.bks.cpg/sg60_7_cif.got.tgz:13408.got - 2010.06.03 14:59:27.
