data_PCOD9458873
_publ_section_title
;
Structure prediction by ZEFSAII (Michael W. Deem and Ramdas Pophale) SiO2 
 PCOD9458873
Probable space group: P B C N
;
_chemical_formula_sum "Si O2"
_cell_formula_units_Z 40
_cell_length_a 9.000000
_cell_length_b 18.000000
_cell_length_c 12.000000
_cell_angle_alpha 90.000000
_cell_angle_beta 90.000000
_cell_angle_gamma 90.000000
_cell_volume 1944.000000
_symmetry_space_group_name_H-M "P B C N"
_symmetry_group_IT_number 60
_symmetry_cell_setting 'orthorhombic'
loop_
_space_group_symop_operation_xyz
x,y,z
1/2-x,1/2-y,1/2+z
1/2+x,1/2-y,-z
-x,y,1/2-z
-x,-y,-z
1/2+x,1/2+y,1/2-z
1/2-x,1/2+y,z
x,-y,1/2+z
loop_
_atom_site_type_symbol
_atom_site_label
_atom_site_fract_x
_atom_site_fract_y
_atom_site_fract_z
Si Si1 0.999342 0.763952 0.439163
Si Si2 0.000000 0.487482 0.750000
Si Si3 0.786124 0.596125 0.626701
Si Si4 0.179029 0.231510 0.346392
Si Si5 0.215493 0.367308 0.635912
Si Si6 0.000000 0.114163 0.750000
O O1 0.953022 0.785419 0.565132
O O2 0.895677 0.697624 0.399813
O O3 0.967178 0.831384 0.354481
O O4 0.165295 0.732713 0.416702
O O5 0.918445 0.539458 0.657222
O O6 0.875751 0.434279 0.806523
O O7 0.831044 0.678788 0.674028
O O8 0.741112 0.604528 0.493361
O O9 0.643594 0.572042 0.702180
O O10 0.193239 0.176112 0.238787
#
# Coordination Sequence:
#
# PCOD9458873 Si02
#       6
#     8   4   8   8   8   4
#     4  10  18  37  66  93 125 175 214 285 327 391
#     4  12  23  44  70 101 140 176 238 278 343 424
#     4  10  24  40  66  99 132 182 225 282 342 412
#     4  10  20  39  65  96 132 168 234 278 336 398
#     4  11  20  43  67  97 134 179 230 279 341 405
#     4  10  19  44  58  91 136 166 216 280 347 378
#
# _framework density 20.576132000000001
#
# number of rings (size 3 to 8) (size 9 to 14) (size 15 to 20)
#    0.000    1.600    6.000    0.600    0.000    3.200 
#   10.800    1.000    8.800    0.000    0.000    0.000 
#    0.000    0.000    0.000    0.000    0.000    0.000 
#
# Total GULP energy -222738.305184 kJ/mol
# GULP energy per Si atom -5568.457630 kJ/mol
# Density = 2.052930 g / cm^3
# Si number density = 20.576132 Si / 1000 Ang^3
#
#
#
# Elastic Constant Matrix: (Units=GPa)
#
#
# Indices 1 2 3 4 5 6 
#
# 1 71.6733 16.5360 66.9088 0.0000 0.0000 0.0000
# 2 16.5360 80.9606 45.1204 0.0000 0.0000 0.0000
# 3 66.9088 45.1204 162.1725 0.0000 0.0000 0.0000
# 4 0.0000 0.0000 0.0000 28.4515 0.0000 0.0000
# 5 0.0000 0.0000 0.0000 0.0000 52.6714 0.0000
# 6 0.0000 0.0000 0.0000 0.0000 0.0000 34.6353
#
#
#
# Elastic Compliance Matrix: (Units=1/GPa)
#
#
# Indices 1 2 3 4 5 6 
#
# 1 0.022725 0.000691 -0.009568 0.000000 0.000000 0.000000
# 2 0.000691 0.014639 -0.004358 0.000000 0.000000 0.000000
# 3 -0.009568 -0.004358 0.011326 0.000000 0.000000 0.000000
# 4 0.000000 0.000000 0.000000 0.035148 0.000000 0.000000
# 5 0.000000 0.000000 0.000000 0.000000 0.018986 0.000000
# 6 0.000000 0.000000 0.000000 0.000000 0.000000 0.028872
#
#
# Mechanical properties :
#
#
# Convention : Reuss Voigt Hill
#
# Bulk Modulus (GPa) = 45.00424 63.54854 54.27639
# Shear Modulus (GPa) = 30.19819 35.56772 32.88296
#
# Velocity S-wave (km/s) = 3.83512 4.16214 4.00198
# Velocity P-wave (km/s) = 6.44441 7.35184 6.91303
#
# Compressibility (1/GPa) = 0.02222013
#
# Stress axis : x y z
#
# Youngs Moduli (GPa) = 44.00495 68.30890 88.28997
#
# Poissons Ratio (x) = -0.04719 0.84475
# Poissons Ratio (y) = -0.03040 0.38477
# Poissons Ratio (z) = 0.42104 0.29770
#
# Static dielectric constant tensor:
#      x y z
#    x 1.836080 0.000000 0.000000 
#    y 0.000000 1.730970 0.000000 
#    z 0.000000 0.000000 1.778340 
# 
# From -- ./inp_files/9820.got.cif
#   From: 2010.05.17/outbox.ucp.g08.bks.cvg/sg60_5_cif.got.tgz:9820.got - 2010.06.11 16:26:41.
