data_PCOD9458238
_publ_section_title
;
Structure prediction by ZEFSAII (Michael W. Deem and Ramdas Pophale) SiO2 
 PCOD9458238
Probable space group: P B C N
;
_chemical_formula_sum "Si O2"
_cell_formula_units_Z 56
_cell_length_a 23.333817
_cell_length_b 18.001040
_cell_length_c 5.924859
_cell_angle_alpha 90.000000
_cell_angle_beta 90.000000
_cell_angle_gamma 90.000000
_cell_volume 2488.636141
_symmetry_space_group_name_H-M "P B C N"
_symmetry_group_IT_number 60
_symmetry_cell_setting 'orthorhombic'
loop_
_space_group_symop_operation_xyz
x,y,z
1/2-x,1/2-y,1/2+z
1/2+x,1/2-y,-z
-x,y,1/2-z
-x,-y,-z
1/2+x,1/2+y,1/2-z
1/2-x,1/2+y,z
x,-y,1/2+z
loop_
_atom_site_type_symbol
_atom_site_label
_atom_site_fract_x
_atom_site_fract_y
_atom_site_fract_z
Si Si1 0.127019 0.335779 0.733796
Si Si2 0.704545 0.804515 0.367012
Si Si3 0.920933 0.466931 0.259363
Si Si4 0.500000 0.175115 0.750000
Si Si5 0.315395 0.527258 0.485671
Si Si6 0.326672 0.703370 0.482727
Si Si7 0.000000 0.687523 0.250000
Si Si8 0.801012 0.559115 0.596051
O O1 0.134134 0.249825 0.653708
O O2 0.161287 0.388746 0.568323
O O3 0.060598 0.354520 0.748359
O O4 0.162347 0.342879 0.959340
O O5 0.760800 0.770186 0.477155
O O6 0.664729 0.741823 0.257402
O O7 0.730074 0.872323 0.222393
O O8 0.937801 0.498220 0.510526
O O9 0.851789 0.473797 0.249571
O O10 0.946678 0.383340 0.249778
O O11 0.499617 0.219166 0.510375
O O12 0.337081 0.501066 0.735997
O O13 0.326602 0.615505 0.476911
O O14 0.248977 0.496374 0.482807
#
# Coordination Sequence:
#
# PCOD9458238 Si02
#       8
#     8   8   8   4   8   8   4   8
#     4  11  25  44  71  98 138 188 237 288 347 410
#     4  11  22  41  65  94 137 173 230 280 355 407
#     4  12  25  39  60  88 126 179 234 279 335 391
#     4  12  24  47  62  88 128 177 240 292 332 380
#     4  12  26  41  64  97 138 175 222 275 346 422
#     4  11  24  40  64 100 135 180 226 287 350 420
#     4  12  26  47  72  96 134 185 244 292 338 404
#     4  11  24  41  62  96 130 185 227 286 340 413
#
# _framework density 22.502286000000002
#
# number of rings (size 3 to 8) (size 9 to 14) (size 15 to 20)
#    0.000    0.571    4.286    3.857    8.000    0.000 
#    0.000    0.000    0.000    0.000    0.000    1.000 
#    0.000    0.000    0.000    0.000    0.000    0.000 
#
# Total GULP energy -311891.488319 kJ/mol
# GULP energy per Si atom -5569.490863 kJ/mol
# Density = 2.245107 g / cm^3
# Si number density = 22.502286 Si / 1000 Ang^3
#
#
#
# Elastic Constant Matrix: (Units=GPa)
#
#
# Indices 1 2 3 4 5 6 
#
# 1 50.0594 3.0914 3.8493 0.0000 0.0000 0.0000
# 2 3.0914 147.8036 41.8566 0.0000 0.0000 0.0000
# 3 3.8493 41.8566 152.8669 0.0000 0.0000 0.0000
# 4 0.0000 0.0000 0.0000 6.1058 0.0000 0.0000
# 5 0.0000 0.0000 0.0000 0.0000 17.5968 0.0000
# 6 0.0000 0.0000 0.0000 0.0000 0.0000 0.4613
#
#
#
# Elastic Compliance Matrix: (Units=1/GPa)
#
#
# Indices 1 2 3 4 5 6 
#
# 1 0.020027 -0.000299 -0.000422 0.000000 0.000000 0.000000
# 2 -0.000299 0.007339 -0.002002 0.000000 0.000000 0.000000
# 3 -0.000422 -0.002002 0.007100 0.000000 0.000000 0.000000
# 4 0.000000 0.000000 0.000000 0.163780 0.000000 0.000000
# 5 0.000000 0.000000 0.000000 0.000000 0.056829 0.000000
# 6 0.000000 0.000000 0.000000 0.000000 0.000000 2.167599
#
#
# Mechanical properties :
#
#
# Convention : Reuss Voigt Hill
#
# Bulk Modulus (GPa) = 34.45965 49.81382 42.13674
# Shear Modulus (GPa) = 2.05103 24.96163 13.50633
#
# Velocity S-wave (km/s) = 0.95575 3.33422 2.45260
# Velocity P-wave (km/s) = 4.07002 6.08342 5.17557
#
# Compressibility (1/GPa) = 0.02901944
#
# Stress axis : x y z
#
# Youngs Moduli (GPa) = 49.93204 136.25979 140.83669
#
# Poissons Ratio (x) = 0.04078 0.05948
# Poissons Ratio (y) = 0.01494 0.28195
# Poissons Ratio (z) = 0.02109 0.27278
#
# Static dielectric constant tensor:
#      x y z
#    x 1.847050 0.000000 0.000000 
#    y 0.000000 1.853370 0.000000 
#    z 0.000000 0.000000 2.110960 
# 
# From -- ./inp_files/2403.got.cif
#   From: 2010.05.17/outbox.cif.g08.bks.cpg/sg60_2_cif.got.tgz:2403.got - 2010.06.03 14:59:27.
