data_PCOD9458342
_publ_section_title
;
Structure prediction by ZEFSAII (Michael W. Deem and Ramdas Pophale) SiO2 
 PCOD9458342
Probable space group: P B C N
;
_chemical_formula_sum "Si O2"
_cell_formula_units_Z 40
_cell_length_a 12.388049
_cell_length_b 16.232718
_cell_length_c 8.470097
_cell_angle_alpha 90.000000
_cell_angle_beta 90.000000
_cell_angle_gamma 90.000000
_cell_volume 1703.266256
_symmetry_space_group_name_H-M "P B C N"
_symmetry_group_IT_number 60
_symmetry_cell_setting 'orthorhombic'
loop_
_space_group_symop_operation_xyz
x,y,z
1/2-x,1/2-y,1/2+z
1/2+x,1/2-y,-z
-x,y,1/2-z
-x,-y,-z
1/2+x,1/2+y,1/2-z
1/2-x,1/2+y,z
x,-y,1/2+z
loop_
_atom_site_type_symbol
_atom_site_label
_atom_site_fract_x
_atom_site_fract_y
_atom_site_fract_z
Si Si1 0.104483 0.936618 0.343802
Si Si2 0.544098 0.118212 0.921815
Si Si3 0.849213 0.235273 0.550734
Si Si4 0.749666 0.017947 0.912335
Si Si5 0.839417 0.342788 0.868153
O O1 0.084110 0.848745 0.423929
O O2 0.155346 0.002011 0.463074
O O3 0.000000 0.965801 0.250000
O O4 0.202135 0.922707 0.220237
O O5 0.500000 0.093674 0.750000
O O6 0.637844 0.055124 0.973560
O O7 0.599896 0.207590 0.916202
O O8 0.450207 0.129209 0.049850
O O9 0.850939 0.288939 0.710835
O O10 0.730667 0.208363 0.495047
O O11 0.724915 0.927905 0.840914
#
# Coordination Sequence:
#
# PCOD9458342 Si02
#       5
#     8   8   8   8   8
#     4  11  23  43  65  93 131 175 223 279 336 398
#     4  12  24  42  68  99 136 177 223 281 339 400
#     4  11  24  42  66  96 133 177 227 275 332 407
#     4  11  24  41  66  97 132 173 227 277 335 407
#     4  11  23  42  65  97 136 178 223 280 337 396
#
# _framework density 23.484290999999999
#
# number of rings (size 3 to 8) (size 9 to 14) (size 15 to 20)
#    0.000    0.800    0.000    9.000    0.000    1.600 
#    0.000   12.000    0.000    0.000    0.000    0.000 
#    0.000    0.000    0.000    0.000    0.000    0.000 
#
# Total GULP energy -223861.558895 kJ/mol
# GULP energy per Si atom -5596.538972 kJ/mol
# Density = 2.343084 g / cm^3
# Si number density = 23.484291 Si / 1000 Ang^3
#
#
#
# Elastic Constant Matrix: (Units=GPa)
#
#
# Indices 1 2 3 4 5 6 
#
# 1 85.1263 19.7675 27.4348 0.0000 0.0000 0.0000
# 2 19.7675 85.2241 17.0639 0.0000 0.0000 0.0000
# 3 27.4348 17.0639 80.7327 0.0000 0.0000 0.0000
# 4 0.0000 0.0000 0.0000 35.1993 0.0000 0.0000
# 5 0.0000 0.0000 0.0000 0.0000 39.6892 0.0000
# 6 0.0000 0.0000 0.0000 0.0000 0.0000 34.9267
#
#
#
# Elastic Compliance Matrix: (Units=1/GPa)
#
#
# Indices 1 2 3 4 5 6 
#
# 1 0.013622 -0.002331 -0.004136 0.000000 0.000000 0.000000
# 2 -0.002331 0.012651 -0.001882 0.000000 0.000000 0.000000
# 3 -0.004136 -0.001882 0.014190 0.000000 0.000000 0.000000
# 4 0.000000 0.000000 0.000000 0.028410 0.000000 0.000000
# 5 0.000000 0.000000 0.000000 0.000000 0.025196 0.000000
# 6 0.000000 0.000000 0.000000 0.000000 0.000000 0.028631
#
#
# Mechanical properties :
#
#
# Convention : Reuss Voigt Hill
#
# Bulk Modulus (GPa) = 42.08010 42.17951 42.12981
# Shear Modulus (GPa) = 33.93980 34.41749 34.17864
#
# Velocity S-wave (km/s) = 3.80572 3.83241 3.81909
# Velocity P-wave (km/s) = 6.10480 6.13049 6.11766
#
# Compressibility (1/GPa) = 0.02376420
#
# Stress axis : x y z
#
# Youngs Moduli (GPa) = 73.41259 79.04329 70.47283
#
# Poissons Ratio (x) = 0.18428 0.29149
# Poissons Ratio (y) = 0.17115 0.13261
# Poissons Ratio (z) = 0.30365 0.14874
#
# Static dielectric constant tensor:
#      x y z
#    x 1.894050 0.000000 0.000000 
#    y 0.000000 1.876540 0.000000 
#    z 0.000000 0.000000 1.911310 
# 
# From -- ./inp_files/4726.got.cif
#   From: 2010.05.17/outbox.cif.g08.bks.cpg/sg60_3_cif.got.tgz:4726.got - 2010.06.03 14:59:27.
