data_PCOD9458651
_publ_section_title
;
Structure prediction by ZEFSAII (Michael W. Deem and Ramdas Pophale) SiO2 
 PCOD9458651
Probable space group: P B C N
;
_chemical_formula_sum "Si O2"
_cell_formula_units_Z 24
_cell_length_a 4.885950
_cell_length_b 10.945846
_cell_length_c 15.884141
_cell_angle_alpha 90.000000
_cell_angle_beta 90.000000
_cell_angle_gamma 90.000000
_cell_volume 849.497462
_symmetry_space_group_name_H-M "P B C N"
_symmetry_group_IT_number 60
_symmetry_cell_setting 'orthorhombic'
loop_
_space_group_symop_operation_xyz
x,y,z
1/2-x,1/2-y,1/2+z
1/2+x,1/2-y,-z
-x,y,1/2-z
-x,-y,-z
1/2+x,1/2+y,1/2-z
1/2-x,1/2+y,z
x,-y,1/2+z
loop_
_atom_site_type_symbol
_atom_site_label
_atom_site_fract_x
_atom_site_fract_y
_atom_site_fract_z
Si Si1 0.999443 0.879182 0.897187
Si Si2 0.243007 0.061789 0.692874
Si Si3 0.835571 0.372784 0.068596
O O1 0.195669 0.763280 0.894695
O O2 0.811761 0.917259 0.819142
O O3 0.789711 0.861807 0.975169
O O4 0.180511 0.003794 0.902555
O O5 0.500000 0.085808 0.750000
O O6 0.347490 0.105497 0.599501
O O7 0.000000 0.114794 0.750000
#
# Coordination Sequence:
#
# PCOD9458651 Si02
#       3
#     8   8   8
#     4  11  28  49  83 119 161 213 276 339 406 482
#     4  12  27  52  77 120 166 214 265 336 412 493
#     4  11  28  50  82 120 159 212 275 338 402 481
#
# _framework density 28.251999999999999
#
# number of rings (size 3 to 8) (size 9 to 14) (size 15 to 20)
#    0.000    0.667    3.333    1.000   14.000    2.667 
#    0.000    0.000    0.000    0.000    0.000    0.000 
#    0.000    0.000    0.000    0.000    0.000    0.000 
#
# Total GULP energy -133773.122627 kJ/mol
# GULP energy per Si atom -5573.880109 kJ/mol
# Density = 2.818770 g / cm^3
# Si number density = 28.252000 Si / 1000 Ang^3
#
#
#
# Elastic Constant Matrix: (Units=GPa)
#
#
# Indices 1 2 3 4 5 6 
#
# 1 201.3224 62.6261 64.1406 0.0000 0.0000 0.0000
# 2 62.6261 199.1068 45.5354 0.0000 0.0000 0.0000
# 3 64.1406 45.5354 101.4892 0.0000 0.0000 0.0000
# 4 0.0000 0.0000 0.0000 37.2539 0.0000 0.0000
# 5 0.0000 0.0000 0.0000 0.0000 69.2317 0.0000
# 6 0.0000 0.0000 0.0000 0.0000 0.0000 55.7765
#
#
#
# Elastic Compliance Matrix: (Units=1/GPa)
#
#
# Indices 1 2 3 4 5 6 
#
# 1 0.006478 -0.001227 -0.003543 0.000000 0.000000 0.000000
# 2 -0.001227 0.005829 -0.001840 0.000000 0.000000 0.000000
# 3 -0.003543 -0.001840 0.012918 0.000000 0.000000 0.000000
# 4 0.000000 0.000000 0.000000 0.026843 0.000000 0.000000
# 5 0.000000 0.000000 0.000000 0.000000 0.014444 0.000000
# 6 0.000000 0.000000 0.000000 0.000000 0.000000 0.017929
#
#
# Mechanical properties :
#
#
# Convention : Reuss Voigt Hill
#
# Bulk Modulus (GPa) = 83.30252 94.05807 88.68029
# Shear Modulus (GPa) = 49.18209 54.42683 51.80446
#
# Velocity S-wave (km/s) = 4.17686 4.39393 4.28677
# Velocity P-wave (km/s) = 7.26712 7.68810 7.48057
#
# Compressibility (1/GPa) = 0.01200444
#
# Stress axis : x y z
#
# Youngs Moduli (GPa) = 154.37379 171.55079 77.41058
#
# Poissons Ratio (x) = 0.21052 0.27429
# Poissons Ratio (y) = 0.18944 0.14242
# Poissons Ratio (z) = 0.54700 0.31563
#
# Static dielectric constant tensor:
#      x y z
#    x 2.453940 0.000000 0.000000 
#    y 0.000000 2.235920 0.000000 
#    z 0.000000 0.000000 2.455920 
# 
# From -- ./inp_files/18313.got.cif
#   From: 2010.05.17/outbox.cif.g08.bks.cpg/sg60_10_cif.got.tgz:18313.got - 2010.06.03 14:59:27.
