data_PCOD9458002
_publ_section_title
;
Structure prediction by ZEFSAII (Michael W. Deem and Ramdas Pophale) SiO2 
 PCOD9458002
Probable space group: P B C N
;
_chemical_formula_sum "Si O2"
_cell_formula_units_Z 28
_cell_length_a 9.586883
_cell_length_b 15.483904
_cell_length_c 7.508224
_cell_angle_alpha 90.000000
_cell_angle_beta 90.000000
_cell_angle_gamma 90.000000
_cell_volume 1114.538610
_symmetry_space_group_name_H-M "P B C N"
_symmetry_group_IT_number 60
_symmetry_cell_setting 'orthorhombic'
loop_
_space_group_symop_operation_xyz
x,y,z
1/2-x,1/2-y,1/2+z
1/2+x,1/2-y,-z
-x,y,1/2-z
-x,-y,-z
1/2+x,1/2+y,1/2-z
1/2-x,1/2+y,z
x,-y,1/2+z
loop_
_atom_site_type_symbol
_atom_site_label
_atom_site_fract_x
_atom_site_fract_y
_atom_site_fract_z
Si Si1 0.806834 0.407083 0.795891
Si Si2 0.622112 0.099947 0.891823
Si Si3 0.500000 0.362567 0.750000
Si Si4 0.884013 0.777569 0.399355
O O1 0.883760 0.388411 0.606913
O O2 0.855277 0.497229 0.874354
O O3 0.639966 0.417419 0.775152
O O4 0.825921 0.319677 0.907468
O O5 0.500000 0.119856 0.750000
O O6 0.757318 0.158280 0.851180
O O7 0.541713 0.304886 0.581439
O O8 0.000000 0.784609 0.250000
#
# Coordination Sequence:
#
# PCOD9458002 Si02
#       4
#     8   8   4   8
#     4  11  27  49  80 118 159 212 265 331 404 473
#     4  11  27  49  81 117 162 205 268 330 396 488
#     4  10  28  48  78 114 158 206 272 324 402 476
#     4  11  28  50  78 113 156 214 265 328 405 466
#
# _framework density 25.122502000000001
#
# number of rings (size 3 to 8) (size 9 to 14) (size 15 to 20)
#    0.000    1.143    0.000    1.714   16.000    4.571 
#    0.000    0.000    0.000    0.000    0.000    0.000 
#    0.000    0.000    0.000    0.000    0.000    0.000 
#
# Total GULP energy -157031.748461 kJ/mol
# GULP energy per Si atom -5608.276731 kJ/mol
# Density = 2.506532 g / cm^3
# Si number density = 25.122502 Si / 1000 Ang^3
#
#
#
# Elastic Constant Matrix: (Units=GPa)
#
#
# Indices 1 2 3 4 5 6 
#
# 1 160.4487 57.3138 55.7040 0.0000 0.0000 0.0000
# 2 57.3138 129.2763 21.0966 0.0000 0.0000 0.0000
# 3 55.7040 21.0966 127.8140 0.0000 0.0000 0.0000
# 4 0.0000 0.0000 0.0000 39.5394 0.0000 0.0000
# 5 0.0000 0.0000 0.0000 0.0000 52.2706 0.0000
# 6 0.0000 0.0000 0.0000 0.0000 0.0000 25.1258
#
#
#
# Elastic Compliance Matrix: (Units=1/GPa)
#
#
# Indices 1 2 3 4 5 6 
#
# 1 0.008492 -0.003248 -0.003165 0.000000 0.000000 0.000000
# 2 -0.003248 0.009192 -0.000102 0.000000 0.000000 0.000000
# 3 -0.003165 -0.000102 0.009220 0.000000 0.000000 0.000000
# 4 0.000000 0.000000 0.000000 0.025291 0.000000 0.000000
# 5 0.000000 0.000000 0.000000 0.000000 0.019131 0.000000
# 6 0.000000 0.000000 0.000000 0.000000 0.000000 0.039800
#
#
# Mechanical properties :
#
#
# Convention : Reuss Voigt Hill
#
# Bulk Modulus (GPa) = 72.07446 76.19641 74.13544
# Shear Modulus (GPa) = 38.82614 42.28212 40.55413
#
# Velocity S-wave (km/s) = 3.93551 4.10693 4.02214
# Velocity P-wave (km/s) = 7.02869 7.27221 7.15149
#
# Compressibility (1/GPa) = 0.01387454
#
# Stress axis : x y z
#
# Youngs Moduli (GPa) = 117.76478 108.78996 108.46166
#
# Poissons Ratio (x) = 0.35337 0.34324
# Poissons Ratio (y) = 0.38253 0.01102
# Poissons Ratio (z) = 0.37268 0.01105
#
# Static dielectric constant tensor:
#      x y z
#    x 2.025380 0.000000 0.000000 
#    y 0.000000 1.923580 0.000000 
#    z 0.000000 0.000000 1.913800 
# 
# From -- ./inp_files/3453.got.cif
#   From: 2010.05.17/outbox.cif.g08.bks.cpg/sg60_2_cif.got.tgz:3453.got - 2010.06.03 14:59:27.
