data_PCOD9458739
_publ_section_title
;
Structure prediction by ZEFSAII (Michael W. Deem and Ramdas Pophale) SiO2 
 PCOD9458739
Probable space group: P B C N
;
_chemical_formula_sum "Si O2"
_cell_formula_units_Z 60
_cell_length_a 11.524697
_cell_length_b 12.188590
_cell_length_c 19.006816
_cell_angle_alpha 90.000000
_cell_angle_beta 90.000000
_cell_angle_gamma 90.000000
_cell_volume 2669.883768
_symmetry_space_group_name_H-M "P B C N"
_symmetry_group_IT_number 60
_symmetry_cell_setting 'orthorhombic'
loop_
_space_group_symop_operation_xyz
x,y,z
1/2-x,1/2-y,1/2+z
1/2+x,1/2-y,-z
-x,y,1/2-z
-x,-y,-z
1/2+x,1/2+y,1/2-z
1/2-x,1/2+y,z
x,-y,1/2+z
loop_
_atom_site_type_symbol
_atom_site_label
_atom_site_fract_x
_atom_site_fract_y
_atom_site_fract_z
Si Si1 0.945468 0.380067 0.012077
Si Si2 0.500000 0.018089 0.750000
Si Si3 0.178015 0.898809 0.108284
Si Si4 0.918661 0.691310 0.857173
Si Si5 0.883737 0.919599 0.783989
Si Si6 0.949726 0.791920 0.097730
Si Si7 0.294628 0.522741 0.966388
Si Si8 0.693659 0.886060 0.665674
O O1 0.808524 0.398688 0.004751
O O2 0.978665 0.335271 0.088793
O O3 0.000000 0.500000 0.000000
O O4 0.006494 0.297486 0.958595
O O5 0.424270 0.100025 0.703107
O O6 0.582925 0.946995 0.700120
O O7 0.295078 0.828803 0.106501
O O8 0.069152 0.827481 0.133791
O O9 0.180227 0.000375 0.161830
O O10 0.162420 0.946035 0.029666
O O11 0.925036 0.811736 0.825624
O O12 0.795441 0.885522 0.722755
O O13 0.000000 0.970519 0.750000
O O14 0.894573 0.899389 0.062947
O O15 0.852189 0.733594 0.144308
O O16 0.239699 0.450672 0.903194
#
# Coordination Sequence:
#
# PCOD9458739 Si02
#       8
#     8   4   8   8   8   8   8   8
#     4  12  24  46  75 108 145 193 255 311 374 456
#     4  12  24  50  70 106 144 198 258 294 374 466
#     4  12  28  49  76 109 154 193 254 320 384 453
#     4  12  25  45  74 105 143 201 244 307 375 450
#     4  12  29  47  73 109 154 196 251 311 386 459
#     4  12  29  46  77 112 149 199 250 321 388 451
#     4  12  27  50  78 108 152 200 259 320 384 459
#     4  12  28  49  76 110 150 207 257 318 379 469
#
# _framework density 22.472887
#
# number of rings (size 3 to 8) (size 9 to 14) (size 15 to 20)
#    0.000    0.000    6.000    2.000   11.200    1.067 
#    0.000    0.000    0.000    0.000    0.000    0.000 
#    0.000    0.000    0.000    0.000    0.000    0.000 
#
# Total GULP energy -336119.096449 kJ/mol
# GULP energy per Si atom -5601.984941 kJ/mol
# Density = 2.242174 g / cm^3
# Si number density = 22.472887 Si / 1000 Ang^3
#
#
#
# Elastic Constant Matrix: (Units=GPa)
#
#
# Indices 1 2 3 4 5 6 
#
# 1 78.1682 9.0693 -1.7833 0.0000 0.0000 0.0000
# 2 9.0693 53.3416 26.6005 0.0000 0.0000 0.0000
# 3 -1.7833 26.6005 85.9251 0.0000 0.0000 0.0000
# 4 0.0000 0.0000 0.0000 12.1176 0.0000 0.0000
# 5 0.0000 0.0000 0.0000 0.0000 31.3191 0.0000
# 6 0.0000 0.0000 0.0000 0.0000 0.0000 374.2500
#
#
#
# Elastic Compliance Matrix: (Units=1/GPa)
#
#
# Indices 1 2 3 4 5 6 
#
# 1 0.013144 -0.002804 0.001141 0.000000 0.000000 0.000000
# 2 -0.002804 0.022768 -0.007107 0.000000 0.000000 0.000000
# 3 0.001141 -0.007107 0.013862 0.000000 0.000000 0.000000
# 4 0.000000 0.000000 0.000000 0.082524 0.000000 0.000000
# 5 0.000000 0.000000 0.000000 0.000000 0.031929 0.000000
# 6 0.000000 0.000000 0.000000 0.000000 0.000000 0.002672
#
#
# Mechanical properties :
#
#
# Convention : Reuss Voigt Hill
#
# Bulk Modulus (GPa) = 31.02246 31.68975 31.35610
# Shear Modulus (GPa) = 25.61694 95.77392 60.69543
#
# Velocity S-wave (km/s) = 3.37991 6.53529 5.20259
# Velocity P-wave (km/s) = 5.39130 8.43082 7.07618
#
# Compressibility (1/GPa) = 0.03223471
#
# Stress axis : x y z
#
# Youngs Moduli (GPa) = 76.07894 43.92184 72.14093
#
# Poissons Ratio (x) = 0.12314 -0.08230
# Poissons Ratio (y) = 0.21330 0.51267
# Poissons Ratio (z) = -0.08679 0.31213
#
# Static dielectric constant tensor:
#      x y z
#    x 1.788030 0.000000 0.000000 
#    y 0.000000 1.811130 0.000000 
#    z 0.000000 0.000000 1.826020 
# 
# From -- ./inp_files/22680.got.cif
#   From: 2010.05.17/outbox.cif.g08.bks.cpg/sg60_12_cif.got.tgz:22680.got - 2010.06.03 14:59:27.
