data_PCOD9458131
_publ_section_title
;
Structure prediction by ZEFSAII (Michael W. Deem and Ramdas Pophale) SiO2 
 PCOD9458131
Probable space group: P B C N
;
_chemical_formula_sum "Si O2"
_cell_formula_units_Z 60
_cell_length_a 14.891570
_cell_length_b 14.335995
_cell_length_c 14.226691
_cell_angle_alpha 90.000000
_cell_angle_beta 90.000000
_cell_angle_gamma 90.000000
_cell_volume 3037.191858
_symmetry_space_group_name_H-M "P B C N"
_symmetry_group_IT_number 60
_symmetry_cell_setting 'orthorhombic'
loop_
_space_group_symop_operation_xyz
x,y,z
1/2-x,1/2-y,1/2+z
1/2+x,1/2-y,-z
-x,y,1/2-z
-x,-y,-z
1/2+x,1/2+y,1/2-z
1/2-x,1/2+y,z
x,-y,1/2+z
loop_
_atom_site_type_symbol
_atom_site_label
_atom_site_fract_x
_atom_site_fract_y
_atom_site_fract_z
Si Si1 0.998585 0.929326 0.863459
Si Si2 0.782218 0.685494 0.894368
Si Si3 0.954945 0.414565 0.943026
Si Si4 0.766032 0.622973 0.499153
Si Si5 0.141319 0.645939 0.800324
Si Si6 0.019683 0.274243 0.083781
Si Si7 0.135622 0.043618 0.521352
Si Si8 0.000000 0.488383 0.750000
O O1 0.954632 0.832026 0.897739
O O2 0.000000 0.932632 0.750000
O O3 0.943951 0.017295 0.905640
O O4 0.092083 0.924262 0.922303
O O5 0.794616 0.686369 0.781074
O O6 0.887561 0.667887 0.917648
O O7 0.708803 0.612429 0.932510
O O8 0.755714 0.781552 0.945549
O O9 0.991135 0.424540 0.839933
O O10 0.848529 0.425924 0.945587
O O11 0.000000 0.500000 0.000000
O O12 0.973333 0.313760 0.990002
O O13 0.800601 0.634127 0.605808
O O14 0.684246 0.553061 0.499298
O O15 0.088681 0.553129 0.764651
O O16 0.055084 0.705379 0.836250
#
# Coordination Sequence:
#
# PCOD9458131 Si02
#       8
#     8   8   8   8   8   8   8   4
#     4  11  25  46  72  92 131 191 233 265 351 428
#     4  12  23  42  67 100 135 171 226 288 336 406
#     4  11  21  40  64  98 135 172 220 282 345 408
#     4  11  24  42  63  99 137 168 224 286 338 398
#     4  11  22  39  69  96 134 181 224 272 349 417
#     4  11  21  42  68  96 137 180 224 273 339 430
#     4  11  25  43  66 102 132 172 226 294 333 400
#     4  12  20  38  68  98 126 186 216 268 352 424
#
# _framework density 19.755091
#
# number of rings (size 3 to 8) (size 9 to 14) (size 15 to 20)
#    0.000    0.800    5.333    4.000    1.867    0.000 
#    2.400    0.000    7.333    0.000    0.000    0.000 
#    0.000    0.000    0.000    0.000    0.000    0.000 
#
# Total GULP energy -334331.448760 kJ/mol
# GULP energy per Si atom -5572.190813 kJ/mol
# Density = 1.971013 g / cm^3
# Si number density = 19.755091 Si / 1000 Ang^3
#
#
#
# Elastic Constant Matrix: (Units=GPa)
#
#
# Indices 1 2 3 4 5 6 
#
# 1 101.1701 28.8557 51.7506 0.0000 0.0000 0.0000
# 2 28.8557 76.4409 57.4714 0.0000 0.0000 0.0000
# 3 51.7506 57.4714 170.2273 0.0000 0.0000 0.0000
# 4 0.0000 0.0000 0.0000 24.6703 0.0000 0.0000
# 5 0.0000 0.0000 0.0000 0.0000 38.5741 0.0000
# 6 0.0000 0.0000 0.0000 0.0000 0.0000 31.0574
#
#
#
# Elastic Compliance Matrix: (Units=1/GPa)
#
#
# Indices 1 2 3 4 5 6 
#
# 1 0.012024 -0.002400 -0.002845 0.000000 0.000000 0.000000
# 2 -0.002400 0.018011 -0.005351 0.000000 0.000000 0.000000
# 3 -0.002845 -0.005351 0.008546 0.000000 0.000000 0.000000
# 4 0.000000 0.000000 0.000000 0.040535 0.000000 0.000000
# 5 0.000000 0.000000 0.000000 0.000000 0.025924 0.000000
# 6 0.000000 0.000000 0.000000 0.000000 0.000000 0.032198
#
#
# Mechanical properties :
#
#
# Convention : Reuss Voigt Hill
#
# Bulk Modulus (GPa) = 57.50819 69.33264 63.42041
# Shear Modulus (GPa) = 30.44548 32.84438 31.64493
#
# Velocity S-wave (km/s) = 3.93000 4.08190 4.00667
# Velocity P-wave (km/s) = 7.05457 7.57549 7.31967
#
# Compressibility (1/GPa) = 0.01738883
#
# Stress axis : x y z
#
# Youngs Moduli (GPa) = 83.16536 55.52084 117.01158
#
# Poissons Ratio (x) = 0.13324 0.33293
# Poissons Ratio (y) = 0.19959 0.62616
# Poissons Ratio (z) = 0.23663 0.29711
#
# Static dielectric constant tensor:
#      x y z
#    x 1.712200 0.000000 0.000000 
#    y 0.000000 1.733870 0.000000 
#    z 0.000000 0.000000 1.711010 
# 
# From -- ./inp_files/17006.got.cif
#   From: 2010.05.17/outbox.cif.g08.bks.cpg/sg60_9_cif.got.tgz:17006.got - 2010.06.03 14:59:27.
