data_PCOD9458040
_publ_section_title
;
Structure prediction by ZEFSAII (Michael W. Deem and Ramdas Pophale) SiO2 
 PCOD9458040
Probable space group: P B C N
;
_chemical_formula_sum "Si O2"
_cell_formula_units_Z 32
_cell_length_a 7.596488
_cell_length_b 9.987645
_cell_length_c 19.981009
_cell_angle_alpha 90.000000
_cell_angle_beta 90.000000
_cell_angle_gamma 90.000000
_cell_volume 1515.979641
_symmetry_space_group_name_H-M "P B C N"
_symmetry_group_IT_number 60
_symmetry_cell_setting 'orthorhombic'
loop_
_space_group_symop_operation_xyz
x,y,z
1/2-x,1/2-y,1/2+z
1/2+x,1/2-y,-z
-x,y,1/2-z
-x,-y,-z
1/2+x,1/2+y,1/2-z
1/2-x,1/2+y,z
x,-y,1/2+z
loop_
_atom_site_type_symbol
_atom_site_label
_atom_site_fract_x
_atom_site_fract_y
_atom_site_fract_z
Si Si1 0.228627 0.253625 0.889078
Si Si2 0.058089 0.325608 0.020687
Si Si3 0.432876 0.502708 0.824654
Si Si4 0.341532 0.460608 0.552159
O O1 0.311011 0.381930 0.852375
O O2 0.075096 0.296228 0.941116
O O3 0.166386 0.142454 0.837001
O O4 0.378497 0.187702 0.937332
O O5 0.832855 0.539434 0.967508
O O6 0.165763 0.199052 0.051350
O O7 0.500000 0.482777 0.750000
O O8 0.597238 0.505507 0.875146
O O9 0.500000 0.500000 0.500000
#
# Coordination Sequence:
#
# PCOD9458040 Si02
#       4
#     8   8   8   8
#     4  11  22  41  67  98 129 176 220 275 331 384
#     4  11  20  38  68  96 126 164 226 273 322 373
#     4  11  25  43  62  93 140 169 215 272 329 403
#     4  11  21  40  61  98 129 168 220 276 315 381
#
# _framework density 21.108463
#
# number of rings (size 3 to 8) (size 9 to 14) (size 15 to 20)
#    0.000    1.000    7.500    0.000    0.000   10.000 
#    0.000    1.250    0.000    0.000    0.000    0.000 
#    0.000    0.000    0.000    0.000    0.000    0.000 
#
# Total GULP energy -178846.717978 kJ/mol
# GULP energy per Si atom -5588.959937 kJ/mol
# Density = 2.106042 g / cm^3
# Si number density = 21.108463 Si / 1000 Ang^3
#
#
#
# Elastic Constant Matrix: (Units=GPa)
#
#
# Indices 1 2 3 4 5 6 
#
# 1 77.9018 2.7039 32.6844 0.0000 0.0000 0.0000
# 2 2.7039 92.5782 14.7027 0.0000 0.0000 0.0000
# 3 32.6844 14.7027 150.4994 0.0000 0.0000 0.0000
# 4 0.0000 0.0000 0.0000 26.5620 0.0000 0.0000
# 5 0.0000 0.0000 0.0000 0.0000 33.4394 0.0000
# 6 0.0000 0.0000 0.0000 0.0000 0.0000 29.1073
#
#
#
# Elastic Compliance Matrix: (Units=1/GPa)
#
#
# Indices 1 2 3 4 5 6 
#
# 1 0.014124 0.000076 -0.003075 0.000000 0.000000 0.000000
# 2 0.000076 0.010972 -0.001088 0.000000 0.000000 0.000000
# 3 -0.003075 -0.001088 0.007419 0.000000 0.000000 0.000000
# 4 0.000000 0.000000 0.000000 0.037648 0.000000 0.000000
# 5 0.000000 0.000000 0.000000 0.000000 0.029905 0.000000
# 6 0.000000 0.000000 0.000000 0.000000 0.000000 0.034356
#
#
# Mechanical properties :
#
#
# Convention : Reuss Voigt Hill
#
# Bulk Modulus (GPa) = 41.08407 46.79569 43.93988
# Shear Modulus (GPa) = 33.17599 35.88098 34.52848
#
# Velocity S-wave (km/s) = 3.96876 4.12738 4.04885
# Velocity P-wave (km/s) = 6.36451 6.70306 6.53598
#
# Compressibility (1/GPa) = 0.02434033
#
# Stress axis : x y z
#
# Youngs Moduli (GPa) = 70.80102 91.13851 134.79578
#
# Poissons Ratio (x) = -0.00691 0.41447
# Poissons Ratio (y) = -0.00537 0.14671
# Poissons Ratio (z) = 0.21770 0.09919
#
# Static dielectric constant tensor:
#      x y z
#    x 1.849010 0.000000 0.000000 
#    y 0.000000 1.818100 0.000000 
#    z 0.000000 0.000000 1.709160 
# 
# From -- ./inp_files/18952.got.cif
#   From: 2010.05.17/outbox.cif.g08.bks.cpg/sg60_10_cif.got.tgz:18952.got - 2010.06.03 14:59:27.
