data_PCOD9458587
_publ_section_title
;
Structure prediction by ZEFSAII (Michael W. Deem and Ramdas Pophale) SiO2 
 PCOD9458587
Probable space group: P B C N
;
_chemical_formula_sum "Si O2"
_cell_formula_units_Z 48
_cell_length_a 4.863129
_cell_length_b 16.444058
_cell_length_c 25.842940
_cell_angle_alpha 90.000000
_cell_angle_beta 90.000000
_cell_angle_gamma 90.000000
_cell_volume 2066.648937
_symmetry_space_group_name_H-M "P B C N"
_symmetry_group_IT_number 60
_symmetry_cell_setting 'orthorhombic'
loop_
_space_group_symop_operation_xyz
x,y,z
1/2-x,1/2-y,1/2+z
1/2+x,1/2-y,-z
-x,y,1/2-z
-x,-y,-z
1/2+x,1/2+y,1/2-z
1/2-x,1/2+y,z
x,-y,1/2+z
loop_
_atom_site_type_symbol
_atom_site_label
_atom_site_fract_x
_atom_site_fract_y
_atom_site_fract_z
Si Si1 0.965761 0.690701 0.506236
Si Si2 0.686216 0.545576 0.849147
Si Si3 0.823585 0.531033 0.198213
Si Si4 0.601999 0.442508 0.953496
Si Si5 0.736607 0.173604 0.117570
Si Si6 0.224562 0.712501 0.613703
O O1 0.851735 0.610505 0.477606
O O2 0.691265 0.744616 0.514545
O O3 0.952481 0.718519 0.395429
O O4 0.104318 0.671187 0.561510
O O5 0.486635 0.502004 0.807752
O O6 0.663447 0.498220 0.903658
O O7 0.634679 0.640751 0.854765
O O8 0.998807 0.536390 0.831688
O O9 0.827216 0.611938 0.163749
O O10 0.000000 0.545059 0.250000
O O11 0.382627 0.378208 0.928805
O O12 0.500000 0.500000 0.000000
O O13 0.962605 0.239378 0.135464
#
# Coordination Sequence:
#
# PCOD9458587 Si02
#       6
#     8   8   8   8   8   8
#     4  12  28  42  65 100 147 204 246 288 355 424
#     4  11  27  45  74 109 143 189 240 305 355 437
#     4  11  25  51  79 106 140 184 241 302 382 434
#     4  11  28  45  70 106 149 196 254 288 358 434
#     4  11  25  48  71 105 145 194 246 304 354 443
#     4  12  26  45  70 103 151 190 241 295 367 419
#
# _framework density 23.226004
#
# number of rings (size 3 to 8) (size 9 to 14) (size 15 to 20)
#    0.000    0.667    1.667    4.500   11.667    0.667 
#    0.000    3.333    0.000    0.000    0.000    0.000 
#    0.000    0.000    0.000    0.000    0.000    0.000 
#
# Total GULP energy -268225.300202 kJ/mol
# GULP energy per Si atom -5588.027088 kJ/mol
# Density = 2.317314 g / cm^3
# Si number density = 23.226004 Si / 1000 Ang^3
#
#
#
# Elastic Constant Matrix: (Units=GPa)
#
#
# Indices 1 2 3 4 5 6 
#
# 1 145.8682 47.5118 24.9545 0.0000 0.0000 0.0000
# 2 47.5118 132.1513 42.2516 0.0000 0.0000 0.0000
# 3 24.9545 42.2516 104.1068 0.0000 0.0000 0.0000
# 4 0.0000 0.0000 0.0000 8.4973 0.0000 0.0000
# 5 0.0000 0.0000 0.0000 0.0000 28.9293 0.0000
# 6 0.0000 0.0000 0.0000 0.0000 0.0000 44.7091
#
#
#
# Elastic Compliance Matrix: (Units=1/GPa)
#
#
# Indices 1 2 3 4 5 6 
#
# 1 0.007829 -0.002545 -0.000844 0.000000 0.000000 0.000000
# 2 -0.002545 0.009523 -0.003255 0.000000 0.000000 0.000000
# 3 -0.000844 -0.003255 0.011129 0.000000 0.000000 0.000000
# 4 0.000000 0.000000 0.000000 0.117685 0.000000 0.000000
# 5 0.000000 0.000000 0.000000 0.000000 0.034567 0.000000
# 6 0.000000 0.000000 0.000000 0.000000 0.000000 0.022367
#
#
# Mechanical properties :
#
#
# Convention : Reuss Voigt Hill
#
# Bulk Modulus (GPa) = 65.81805 67.95134 66.88470
# Shear Modulus (GPa) = 22.57848 34.25436 28.41642
#
# Velocity S-wave (km/s) = 3.12127 3.84452 3.50161
# Velocity P-wave (km/s) = 6.43346 7.00194 6.72371
#
# Compressibility (1/GPa) = 0.01519340
#
# Stress axis : x y z
#
# Youngs Moduli (GPa) = 127.73417 105.01288 89.85780
#
# Poissons Ratio (x) = 0.26725 0.07582
# Poissons Ratio (y) = 0.32507 0.29246
# Poissons Ratio (z) = 0.10777 0.34179
#
# Static dielectric constant tensor:
#      x y z
#    x 1.867380 0.000000 0.000000 
#    y 0.000000 1.839610 0.000000 
#    z 0.000000 0.000000 1.996510 
# 
# From -- ./inp_files/23631.got.cif
#   From: 2010.05.17/outbox.cif.g08.bks.cpg/sg60_12_cif.got.tgz:23631.got - 2010.06.03 14:59:27.
