data_PCOD9458863
_publ_section_title
;
Structure prediction by ZEFSAII (Michael W. Deem and Ramdas Pophale) SiO2 
 PCOD9458863
Probable space group: P B C N
;
_chemical_formula_sum "Si O2"
_cell_formula_units_Z 64
_cell_length_a 7.246371
_cell_length_b 23.476985
_cell_length_c 16.798761
_cell_angle_alpha 90.000000
_cell_angle_beta 90.000000
_cell_angle_gamma 90.000000
_cell_volume 2857.854665
_symmetry_space_group_name_H-M "P B C N"
_symmetry_group_IT_number 60
_symmetry_cell_setting 'orthorhombic'
loop_
_space_group_symop_operation_xyz
x,y,z
1/2-x,1/2-y,1/2+z
1/2+x,1/2-y,-z
-x,y,1/2-z
-x,-y,-z
1/2+x,1/2+y,1/2-z
1/2-x,1/2+y,z
x,-y,1/2+z
loop_
_atom_site_type_symbol
_atom_site_label
_atom_site_fract_x
_atom_site_fract_y
_atom_site_fract_z
Si Si1 0.855205 0.669981 0.938644
Si Si2 0.260444 0.970298 0.423853
Si Si3 0.708685 0.285154 0.883963
Si Si4 0.709740 0.957533 0.419547
Si Si5 0.723729 0.855546 0.737590
Si Si6 0.224120 0.513264 0.249857
Si Si7 0.150444 0.273074 0.899438
Si Si8 0.715794 0.344298 0.043692
O O1 0.860432 0.720550 0.874455
O O2 0.757909 0.610792 0.918564
O O3 0.062510 0.653910 0.961868
O O4 0.780629 0.704581 0.014867
O O5 0.485555 0.965681 0.421984
O O6 0.167557 0.909420 0.441906
O O7 0.221395 0.013309 0.497829
O O8 0.210920 0.985105 0.332619
O O9 0.677385 0.324562 0.809513
O O10 0.930916 0.280710 0.892426
O O11 0.638812 0.318072 0.962112
O O12 0.775468 0.986914 0.336706
O O13 0.500000 0.856525 0.750000
O O14 0.778402 0.921049 0.738805
O O15 0.746133 0.815111 0.662006
O O16 0.000000 0.510159 0.250000
O O17 0.179060 0.205348 0.892131
#
# Coordination Sequence:
#
# PCOD9458863 Si02
#       8
#     8   8   8   8   8   8   8   8
#     4   9  17  29  45  66  90 114 143 179 220 262
#     4   9  16  26  41  62  88 114 140 177 221 258
#     4   9  17  29  45  64  87 116 147 179 214 256
#     4   9  16  26  41  62  88 114 140 177 221 258
#     4   9  16  27  43  63  87 115 148 181 214 256
#     4   9  16  25  40  63  87 111 142 179 218 260
#     4   9  17  29  45  64  87 116 147 179 214 256
#     4   9  17  29  45  66  90 114 143 179 220 262
#
# _framework density 22.394421000000001
#
# number of rings (size 3 to 8) (size 9 to 14) (size 15 to 20)
#    0.000    3.000    0.000    1.500    0.000    7.000 
#    0.000    1.875    0.000    0.750    0.000    3.500 
#    0.000    0.000    0.000    0.000    0.000    0.000 
#
# Total GULP energy -356840.240669 kJ/mol
# GULP energy per Si atom -5575.628760 kJ/mol
# Density = 2.234345 g / cm^3
# Si number density = 22.394421 Si / 1000 Ang^3
#
#
#
# Elastic Constant Matrix: (Units=GPa)
#
#
# Indices 1 2 3 4 5 6 
#
# 1 59.0147 -32.5310 -18.2278 0.0000 0.0000 0.0000
# 2 -32.5310 176.6226 63.7426 0.0000 0.0000 0.0000
# 3 -18.2278 63.7426 105.5476 0.0000 0.0000 0.0000
# 4 0.0000 0.0000 0.0000 33.2813 0.0000 0.0000
# 5 0.0000 0.0000 0.0000 0.0000 -0.7906 0.0000
# 6 0.0000 0.0000 0.0000 0.0000 0.0000 11.4453
#
#
#
# Elastic Compliance Matrix: (Units=1/GPa)
#
#
# Indices 1 2 3 4 5 6 
#
# 1 0.019043 0.002967 0.001497 0.000000 0.000000 0.000000
# 2 0.002967 0.007702 -0.004139 0.000000 0.000000 0.000000
# 3 0.001497 -0.004139 0.012233 0.000000 0.000000 0.000000
# 4 0.000000 0.000000 0.000000 0.030047 0.000000 0.000000
# 5 0.000000 0.000000 0.000000 0.000000 -1.264861 0.000000
# 6 0.000000 0.000000 0.000000 0.000000 0.000000 0.087372
#
#
# Mechanical properties :
#
#
# Convention : Reuss Voigt Hill
#
# Bulk Modulus (GPa) = 25.23518 40.79472 33.01495
# Shear Modulus (GPa) = -4.56244 30.66729 13.05242
#
# Velocity S-wave (km/s) = -1.42889 3.70458 2.41683
# Velocity P-wave (km/s) = 2.92757 6.04603 4.75001
#
# Compressibility (1/GPa) = 0.03962722
#
# Stress axis : x y z
#
# Youngs Moduli (GPa) = 52.51315 129.83534 81.74934
#
# Poissons Ratio (x) = -0.38525 -0.12235
# Poissons Ratio (y) = -0.15582 0.33836
# Poissons Ratio (z) = -0.07860 0.53739
#
# Static dielectric constant tensor:
#      x y z
#    x 1.909570 0.000000 0.000000 
#    y 0.000000 1.824720 0.000000 
#    z 0.000000 0.000000 1.833150 
# 
# From -- ./inp_files/19708.got.cif
#   From: 2010.05.17/outbox.cif.g08.bks.cpg/sg60_10_cif.got.tgz:19708.got - 2010.06.03 14:59:27.
