data_PCOD9458434
_publ_section_title
;
Structure prediction by ZEFSAII (Michael W. Deem and Ramdas Pophale) SiO2 
 PCOD9458434
Probable space group: P B C N
;
_chemical_formula_sum "Si O2"
_cell_formula_units_Z 36
_cell_length_a 28.578253
_cell_length_b 7.362540
_cell_length_c 7.159937
_cell_angle_alpha 90.000000
_cell_angle_beta 90.000000
_cell_angle_gamma 90.000000
_cell_volume 1506.511825
_symmetry_space_group_name_H-M "P B C N"
_symmetry_group_IT_number 60
_symmetry_cell_setting 'orthorhombic'
loop_
_space_group_symop_operation_xyz
x,y,z
1/2-x,1/2-y,1/2+z
1/2+x,1/2-y,-z
-x,y,1/2-z
-x,-y,-z
1/2+x,1/2+y,1/2-z
1/2-x,1/2+y,z
x,-y,1/2+z
loop_
_atom_site_type_symbol
_atom_site_label
_atom_site_fract_x
_atom_site_fract_y
_atom_site_fract_z
Si Si1 0.500000 0.351116 0.750000
Si Si2 0.566948 0.642983 0.953287
Si Si3 0.189212 0.672220 0.674897
Si Si4 0.204756 0.259113 0.596891
Si Si5 0.368239 0.648237 0.858948
O O1 0.534951 0.486002 0.860113
O O2 0.532712 0.252926 0.596674
O O3 0.594446 0.739855 0.784750
O O4 0.605633 0.530618 0.069087
O O5 0.191995 0.454652 0.681222
O O6 0.239785 0.732521 0.595260
O O7 0.187203 0.739570 0.886127
O O8 0.148575 0.739146 0.537837
O O9 0.177923 0.118845 0.730908
#
# Coordination Sequence:
#
# PCOD9458434 Si02
#       5
#     4   8   8   8   8
#     4   8  16  38  60  96 130 152 206 262 362 352
#     4   9  20  36  64  98 126 164 204 282 312 405
#     4  12  25  42  61  87 128 178 220 265 309 363
#     4  12  25  42  61  87 128 178 220 265 309 363
#     4  11  24  37  60  97 128 166 220 253 326 372
#
# _framework density 23.896262
#
# number of rings (size 3 to 8) (size 9 to 14) (size 15 to 20)
#    0.000    1.333    4.444    0.000    9.333    0.000 
#    0.000    0.000    0.000    0.000    0.000   77.778 
#    0.000    0.000    0.000    0.000    0.000    0.000 
#
# Total GULP energy -201265.025163 kJ/mol
# GULP energy per Si atom -5590.695143 kJ/mol
# Density = 2.384187 g / cm^3
# Si number density = 23.896262 Si / 1000 Ang^3
#
#
#
# Elastic Constant Matrix: (Units=GPa)
#
#
# Indices 1 2 3 4 5 6 
#
# 1 121.1809 28.6453 52.8097 0.0000 0.0000 0.0000
# 2 28.6453 56.3518 30.0911 0.0000 0.0000 0.0000
# 3 52.8097 30.0911 157.5099 0.0000 0.0000 0.0000
# 4 0.0000 0.0000 0.0000 -18.6898 0.0000 0.0000
# 5 0.0000 0.0000 0.0000 0.0000 71.0990 0.0000
# 6 0.0000 0.0000 0.0000 0.0000 0.0000 9.3653
#
#
#
# Elastic Compliance Matrix: (Units=1/GPa)
#
#
# Indices 1 2 3 4 5 6 
#
# 1 0.010344 -0.003793 -0.002744 0.000000 0.000000 0.000000
# 2 -0.003793 0.021153 -0.002769 0.000000 0.000000 0.000000
# 3 -0.002744 -0.002769 0.007798 0.000000 0.000000 0.000000
# 4 0.000000 0.000000 0.000000 -0.053505 0.000000 0.000000
# 5 0.000000 0.000000 0.000000 0.000000 0.014065 0.000000
# 6 0.000000 0.000000 0.000000 0.000000 0.000000 0.106777
#
#
# Mechanical properties :
#
#
# Convention : Reuss Voigt Hill
#
# Bulk Modulus (GPa) = 48.35004 62.01498 55.18251
# Shear Modulus (GPa) = 37.83907 27.25466 32.54686
#
# Velocity S-wave (km/s) = 3.98360 3.38085 3.69454
# Velocity P-wave (km/s) = 6.43708 6.42248 6.42979
#
# Compressibility (1/GPa) = 0.02068251
#
# Stress axis : x y z
#
# Youngs Moduli (GPa) = 96.67027 47.27534 128.24270
#
# Poissons Ratio (x) = 0.17933 0.35184
# Poissons Ratio (y) = 0.36670 0.35513
# Poissons Ratio (z) = 0.26522 0.13092
#
# Static dielectric constant tensor:
#      x y z
#    x 1.952830 0.000000 0.000000 
#    y 0.000000 1.899990 0.000000 
#    z 0.000000 0.000000 1.983300 
# 
# From -- ./inp_files/8069.got.cif
#   From: 2010.05.17/outbox.cif.g08.bks.cpg/sg60_5_cif.got.tgz:8069.got - 2010.06.03 14:59:27.
