data_PCOD9458777
_publ_section_title
;
Structure prediction by ZEFSAII (Michael W. Deem and Ramdas Pophale) SiO2 
 PCOD9458777
Probable space group: P B C N
;
_chemical_formula_sum "Si O2"
_cell_formula_units_Z 40
_cell_length_a 14.230028
_cell_length_b 9.129432
_cell_length_c 13.889480
_cell_angle_alpha 90.000000
_cell_angle_beta 90.000000
_cell_angle_gamma 90.000000
_cell_volume 1804.411139
_symmetry_space_group_name_H-M "P B C N"
_symmetry_group_IT_number 60
_symmetry_cell_setting 'orthorhombic'
loop_
_space_group_symop_operation_xyz
x,y,z
1/2-x,1/2-y,1/2+z
1/2+x,1/2-y,-z
-x,y,1/2-z
-x,-y,-z
1/2+x,1/2+y,1/2-z
1/2-x,1/2+y,z
x,-y,1/2+z
loop_
_atom_site_type_symbol
_atom_site_label
_atom_site_fract_x
_atom_site_fract_y
_atom_site_fract_z
Si Si1 0.140632 0.111931 0.058417
Si Si2 0.721335 0.266017 0.747041
Si Si3 0.958998 0.645181 0.047436
Si Si4 0.774238 0.488547 0.114767
Si Si5 0.920760 0.836307 0.319131
O O1 0.183159 0.205414 0.146723
O O2 0.110982 0.956648 0.103355
O O3 0.056394 0.210638 0.017596
O O4 0.215474 0.080324 0.973031
O O5 0.680297 0.135539 0.682665
O O6 0.710664 0.412869 0.684957
O O7 0.830510 0.222292 0.761953
O O8 0.854760 0.596154 0.077612
O O9 0.027799 0.698994 0.131107
O O10 0.000000 0.500000 0.000000
O O11 0.000000 0.904044 0.250000
#
# Coordination Sequence:
#
# PCOD9458777 Si02
#       5
#     8   8   8   8   8
#     4  12  27  48  75 104 145 196 238 294 365 435
#     4  12  26  46  77 104 141 195 244 290 356 442
#     4  12  28  44  71 106 147 184 238 305 360 421
#     4  12  25  49  74 106 142 191 245 292 353 441
#     4  12  25  46  69 105 148 183 238 304 361 420
#
# _framework density 22.167897
#
# number of rings (size 3 to 8) (size 9 to 14) (size 15 to 20)
#    0.000    0.000    6.000    3.000    5.600    1.600 
#    0.000    0.000    0.000    0.000    0.000    0.000 
#    0.000    0.000    0.000    0.000    0.000    0.000 
#
# Total GULP energy -223782.029159 kJ/mol
# GULP energy per Si atom -5594.550729 kJ/mol
# Density = 2.211744 g / cm^3
# Si number density = 22.167897 Si / 1000 Ang^3
#
#
#
# Elastic Constant Matrix: (Units=GPa)
#
#
# Indices 1 2 3 4 5 6 
#
# 1 53.6675 1.1541 21.7239 0.0000 0.0000 0.0000
# 2 1.1541 108.3699 38.5125 0.0000 0.0000 0.0000
# 3 21.7239 38.5125 110.6282 0.0000 0.0000 0.0000
# 4 0.0000 0.0000 0.0000 60.9392 0.0000 0.0000
# 5 0.0000 0.0000 0.0000 0.0000 27.7839 0.0000
# 6 0.0000 0.0000 0.0000 0.0000 0.0000 41.4604
#
#
#
# Elastic Compliance Matrix: (Units=1/GPa)
#
#
# Indices 1 2 3 4 5 6 
#
# 1 0.020421 0.001378 -0.004490 0.000000 0.000000 0.000000
# 2 0.001378 0.010623 -0.003969 0.000000 0.000000 0.000000
# 3 -0.004490 -0.003969 0.011303 0.000000 0.000000 0.000000
# 4 0.000000 0.000000 0.000000 0.016410 0.000000 0.000000
# 5 0.000000 0.000000 0.000000 0.000000 0.035992 0.000000
# 6 0.000000 0.000000 0.000000 0.000000 0.000000 0.024119
#
#
# Mechanical properties :
#
#
# Convention : Reuss Voigt Hill
#
# Bulk Modulus (GPa) = 35.47875 43.93851 39.70863
# Shear Modulus (GPa) = 35.10622 40.12170 37.61396
#
# Velocity S-wave (km/s) = 3.98383 4.25891 4.12366
# Velocity P-wave (km/s) = 6.09922 6.63688 6.37372
#
# Compressibility (1/GPa) = 0.02818589
#
# Stress axis : x y z
#
# Youngs Moduli (GPa) = 48.96916 94.13130 88.47500
#
# Poissons Ratio (x) = -0.12972 0.39724
# Poissons Ratio (y) = -0.06749 0.35115
# Poissons Ratio (z) = 0.21986 0.37360
#
# Static dielectric constant tensor:
#      x y z
#    x 1.812760 0.000000 0.000000 
#    y 0.000000 1.818420 0.000000 
#    z 0.000000 0.000000 1.875680 
# 
# From -- ./inp_files/12329.got.cif
#   From: 2010.05.17/outbox.cif.g08.bks.cpg/sg60_7_cif.got.tgz:12329.got - 2010.06.03 14:59:27.
