data_PCOD9458778
_publ_section_title
;
Structure prediction by ZEFSAII (Michael W. Deem and Ramdas Pophale) SiO2 
 PCOD9458778
Probable space group: P B C N
;
_chemical_formula_sum "Si O2"
_cell_formula_units_Z 40
_cell_length_a 6.661111
_cell_length_b 10.260711
_cell_length_c 26.358819
_cell_angle_alpha 90.000000
_cell_angle_beta 90.000000
_cell_angle_gamma 90.000000
_cell_volume 1801.565574
_symmetry_space_group_name_H-M "P B C N"
_symmetry_group_IT_number 60
_symmetry_cell_setting 'orthorhombic'
loop_
_space_group_symop_operation_xyz
x,y,z
1/2-x,1/2-y,1/2+z
1/2+x,1/2-y,-z
-x,y,1/2-z
-x,-y,-z
1/2+x,1/2+y,1/2-z
1/2-x,1/2+y,z
x,-y,1/2+z
loop_
_atom_site_type_symbol
_atom_site_label
_atom_site_fract_x
_atom_site_fract_y
_atom_site_fract_z
Si Si1 0.436338 0.885011 0.536497
Si Si2 0.193833 0.055972 0.849658
Si Si3 0.307416 0.774872 0.435398
Si Si4 0.532386 0.176002 0.190127
Si Si5 0.651844 0.374516 0.876157
O O1 0.352329 0.782648 0.495162
O O2 0.615221 0.818501 0.567419
O O3 0.273047 0.933129 0.576365
O O4 0.500000 0.000000 0.500000
O O5 0.243906 0.091025 0.908248
O O6 0.166252 0.196918 0.823608
O O7 0.357348 0.958068 0.826573
O O8 0.982606 0.980863 0.848064
O O9 0.495950 0.724178 0.403027
O O10 0.500000 0.173272 0.250000
O O11 0.318829 0.185377 0.160916
#
# Coordination Sequence:
#
# PCOD9458778 Si02
#       5
#     8   8   8   8   8
#     4  12  26  41  70 110 150 207 252 310 374 454
#     4  12  28  53  76 115 154 199 259 321 386 466
#     4  12  25  46  72 111 155 202 258 307 383 458
#     4  12  31  51  83 113 148 202 259 326 394 459
#     4  12  26  48  75 105 155 203 251 318 379 454
#
# _framework density 22.202911
#
# number of rings (size 3 to 8) (size 9 to 14) (size 15 to 20)
#    0.000    0.000    6.000    2.400   11.200    1.600 
#    0.000    0.000    0.000    0.000    0.000    0.000 
#    0.000    0.000    0.000    0.000    0.000    0.000 
#
# Total GULP energy -223788.230654 kJ/mol
# GULP energy per Si atom -5594.705766 kJ/mol
# Density = 2.215238 g / cm^3
# Si number density = 22.202911 Si / 1000 Ang^3
#
#
#
# Elastic Constant Matrix: (Units=GPa)
#
#
# Indices 1 2 3 4 5 6 
#
# 1 93.8401 10.7888 22.7889 0.0000 0.0000 0.0000
# 2 10.7888 75.5401 3.1999 0.0000 0.0000 0.0000
# 3 22.7889 3.1999 111.2444 0.0000 0.0000 0.0000
# 4 0.0000 0.0000 0.0000 34.1415 0.0000 0.0000
# 5 0.0000 0.0000 0.0000 0.0000 30.0611 0.0000
# 6 0.0000 0.0000 0.0000 0.0000 0.0000 35.6107
#
#
#
# Elastic Compliance Matrix: (Units=1/GPa)
#
#
# Indices 1 2 3 4 5 6 
#
# 1 0.011388 -0.001530 -0.002289 0.000000 0.000000 0.000000
# 2 -0.001530 0.013460 -0.000074 0.000000 0.000000 0.000000
# 3 -0.002289 -0.000074 0.009460 0.000000 0.000000 0.000000
# 4 0.000000 0.000000 0.000000 0.029290 0.000000 0.000000
# 5 0.000000 0.000000 0.000000 0.000000 0.033266 0.000000
# 6 0.000000 0.000000 0.000000 0.000000 0.000000 0.028081
#
#
# Mechanical properties :
#
#
# Convention : Reuss Voigt Hill
#
# Bulk Modulus (GPa) = 37.70251 39.35330 38.52790
# Shear Modulus (GPa) = 35.31809 36.21912 35.76861
#
# Velocity S-wave (km/s) = 3.99268 4.04329 4.01806
# Velocity P-wave (km/s) = 6.18652 6.28971 6.23833
#
# Compressibility (1/GPa) = 0.02652343
#
# Stress axis : x y z
#
# Youngs Moduli (GPa) = 87.81068 74.29657 105.70557
#
# Poissons Ratio (x) = 0.11364 0.24195
# Poissons Ratio (y) = 0.13431 0.00780
# Poissons Ratio (z) = 0.20099 0.00549
#
# Static dielectric constant tensor:
#      x y z
#    x 1.841900 0.000000 0.000000 
#    y 0.000000 1.854520 0.000000 
#    z 0.000000 0.000000 1.860430 
# 
# From -- ./inp_files/24757.got.cif
#   From: 2010.05.17/outbox.cif.g08.bks.cpg/sg60_13_cif.got.tgz:24757.got - 2010.06.03 14:59:27.
