data_PCOD9458989
_publ_section_title
;
Structure prediction by ZEFSAII (Michael W. Deem and Ramdas Pophale) SiO2 
 PCOD9458989
Probable space group: P B C A
;
_chemical_formula_sum "Si O2"
_cell_formula_units_Z 60
_cell_length_a 23.713406
_cell_length_b 5.009064
_cell_length_c 18.881302
_cell_angle_alpha 90.000000
_cell_angle_beta 90.000000
_cell_angle_gamma 90.000000
_cell_volume 2242.758216
_symmetry_space_group_name_H-M "P B C A"
_symmetry_group_IT_number 61
_symmetry_cell_setting 'orthorhombic'
loop_
_space_group_symop_operation_xyz
x,y,z
1/2-x,-y,1/2+z
1/2+x,1/2-y,-z
-x,1/2+y,1/2-z
-x,-y,-z
1/2+x,y,1/2-z
1/2-x,1/2+y,z
x,1/2-y,1/2+z
loop_
_atom_site_type_symbol
_atom_site_label
_atom_site_fract_x
_atom_site_fract_y
_atom_site_fract_z
Si Si1 0.209935 0.555704 0.876533
Si Si2 0.873921 0.652608 0.004792
Si Si3 0.786650 0.566797 0.279922
Si Si4 0.959605 0.286380 0.244974
Si Si5 0.710221 0.973239 0.437469
Si Si6 0.540796 0.958696 0.096133
Si Si7 0.500000 0.000000 0.500000
Si Si8 0.076609 0.730293 0.109000
O O1 0.238463 0.844201 0.885035
O O2 0.162310 0.495240 0.934044
O O3 0.188546 0.504467 0.796377
O O4 0.933626 0.695710 0.046520
O O5 0.839568 0.915734 0.985594
O O6 0.881565 0.453956 0.937686
O O7 0.769522 0.877832 0.280529
O O8 0.811729 0.502645 0.356831
O O9 0.933326 0.373375 0.170070
O O10 0.913836 0.277580 0.307560
O O11 0.006885 0.508209 0.266173
O O12 0.760369 0.190176 0.447112
O O13 0.479113 0.048708 0.115678
O O14 0.536045 0.726234 0.040716
O O15 0.451333 0.019109 0.568814
#
# Coordination Sequence:
#
# PCOD9458989 Si02
#       8
#     8   8   8   8   8   8   4   8
#     4  10  21  42  62  93 127 171 216 270 323 390
#     4  11  22  39  63  97 132 170 216 279 336 400
#     4   8  16  34  64  82 118 164 208 254 318 374
#     4  10  20  42  66  90 124 178 214 266 318 394
#     4  10  21  42  62  93 127 171 216 270 323 390
#     4  10  22  41  63  93 132 172 222 268 341 391
#     4  10  16  36  62  90 118 162 208 272 324 382
#     4  10  22  41  63  93 132 172 222 268 341 391
#
# _framework density 26.752772
#
# number of rings (size 3 to 8) (size 9 to 14) (size 15 to 20)
#    0.000    2.133    1.333    2.400    0.000    0.000 
#   19.200   13.333    0.000    0.000    0.000    0.000 
#    0.000    0.000    0.000    0.000    0.000    0.000 
#
# Total GULP energy -335107.763757 kJ/mol
# GULP energy per Si atom -5585.129396 kJ/mol
# Density = 2.669188 g / cm^3
# Si number density = 26.752772 Si / 1000 Ang^3
#
#
#
# Elastic Constant Matrix: (Units=GPa)
#
#
# Indices 1 2 3 4 5 6 
#
# 1 67.1152 3.8752 15.3504 0.0000 0.0000 0.0000
# 2 3.8752 99.9767 -15.1328 0.0000 0.0000 0.0000
# 3 15.3504 -15.1328 172.3631 0.0000 0.0000 0.0000
# 4 0.0000 0.0000 0.0000 36.2801 0.0000 0.0000
# 5 0.0000 0.0000 0.0000 0.0000 21.7408 0.0000
# 6 0.0000 0.0000 0.0000 0.0000 0.0000 24.2587
#
#
#
# Elastic Compliance Matrix: (Units=1/GPa)
#
#
# Indices 1 2 3 4 5 6 
#
# 1 0.015274 -0.000809 -0.001431 0.000000 0.000000 0.000000
# 2 -0.000809 0.010180 0.000966 0.000000 0.000000 0.000000
# 3 -0.001431 0.000966 0.006014 0.000000 0.000000 0.000000
# 4 0.000000 0.000000 0.000000 0.027563 0.000000 0.000000
# 5 0.000000 0.000000 0.000000 0.000000 0.045996 0.000000
# 6 0.000000 0.000000 0.000000 0.000000 0.000000 0.041222
#
#
# Mechanical properties :
#
#
# Convention : Reuss Voigt Hill
#
# Bulk Modulus (GPa) = 34.57897 38.62673 36.60285
# Shear Modulus (GPa) = 31.55811 38.81340 35.18575
#
# Velocity S-wave (km/s) = 3.43829 3.81309 3.63053
# Velocity P-wave (km/s) = 5.35872 5.81859 5.59338
#
# Compressibility (1/GPa) = 0.02891931
#
# Stress axis : x y z
#
# Youngs Moduli (GPa) = 65.47164 98.23319 166.27973
#
# Poissons Ratio (x) = 0.07944 0.23799
# Poissons Ratio (y) = 0.05294 -0.16059
# Poissons Ratio (z) = 0.09371 -0.09487
#
# Static dielectric constant tensor:
#      x y z
#    x 2.272890 0.000000 0.000000 
#    y 0.000000 2.190870 0.000000 
#    z 0.000000 0.000000 2.180180 
# 
# From -- ./inp_files/10643.got.cif
#   From: 2010.05.17/outbox.cif.g08.bks.cpg/sg61_6_cif.got.tgz:10643.got - 2010.06.03 15:17:17.
