data_PCOD9458625
_publ_section_title
;
Structure prediction by ZEFSAII (Michael W. Deem and Ramdas Pophale) SiO2 
 PCOD9458625
Probable space group: P B C N
;
_chemical_formula_sum "Si O2"
_cell_formula_units_Z 60
_cell_length_a 12.289248
_cell_length_b 8.682505
_cell_length_c 24.871364
_cell_angle_alpha 90.000000
_cell_angle_beta 90.000000
_cell_angle_gamma 90.000000
_cell_volume 2653.810782
_symmetry_space_group_name_H-M "P B C N"
_symmetry_group_IT_number 60
_symmetry_cell_setting 'orthorhombic'
loop_
_space_group_symop_operation_xyz
x,y,z
1/2-x,1/2-y,1/2+z
1/2+x,1/2-y,-z
-x,y,1/2-z
-x,-y,-z
1/2+x,1/2+y,1/2-z
1/2-x,1/2+y,z
x,-y,1/2+z
loop_
_atom_site_type_symbol
_atom_site_label
_atom_site_fract_x
_atom_site_fract_y
_atom_site_fract_z
Si Si1 0.191403 0.906864 0.224902
Si Si2 0.892137 0.088610 0.560553
Si Si3 0.707088 0.837028 0.389409
Si Si4 0.787826 0.389421 0.612698
Si Si5 0.872236 0.970099 0.937644
Si Si6 0.515331 0.067414 0.654842
Si Si7 0.648648 0.286903 0.715380
Si Si8 0.500000 0.825097 0.750000
O O1 0.220459 0.871121 0.163400
O O2 0.301671 0.864970 0.256774
O O3 0.103730 0.785034 0.245857
O O4 0.149894 0.075429 0.241454
O O5 0.849821 0.242844 0.588702
O O6 0.892966 0.102716 0.496164
O O7 0.808007 0.954143 0.575674
O O8 0.012591 0.041529 0.579966
O O9 0.675521 0.661035 0.399026
O O10 0.592072 0.921043 0.380752
O O11 0.779724 0.899488 0.438184
O O12 0.876654 0.523470 0.621964
O O13 0.729406 0.343984 0.668399
O O14 0.539457 0.226983 0.686552
O O15 0.501159 0.931853 0.697803
#
# Coordination Sequence:
#
# PCOD9458625 Si02
#       8
#     8   8   8   8   8   8   8   4
#     4  12  25  42  67 101 145 196 236 292 358 432
#     4  11  26  48  77 107 142 190 250 314 379 435
#     4  12  27  47  71 106 148 193 246 299 374 442
#     4  12  23  44  75 107 139 186 246 305 366 434
#     4  11  27  50  72 106 148 191 247 312 373 446
#     4  12  25  44  70 105 149 187 244 298 354 438
#     4  12  22  43  67 103 144 186 239 291 352 432
#     4  12  26  42  64 104 144 194 238 282 354 430
#
# _framework density 22.608996999999999
#
# number of rings (size 3 to 8) (size 9 to 14) (size 15 to 20)
#    0.000    0.267    4.000    4.800    3.733    2.667 
#    0.000    1.333    0.000    0.000    0.000    0.000 
#    0.000    0.000    0.000    0.000    0.000    0.000 
#
# Total GULP energy -336049.350277 kJ/mol
# GULP energy per Si atom -5600.822505 kJ/mol
# Density = 2.255754 g / cm^3
# Si number density = 22.608997 Si / 1000 Ang^3
#
#
#
# Elastic Constant Matrix: (Units=GPa)
#
#
# Indices 1 2 3 4 5 6 
#
# 1 141.5139 54.0354 19.9245 0.0000 0.0000 0.0000
# 2 54.0354 127.4293 28.7789 0.0000 0.0000 0.0000
# 3 19.9245 28.7789 55.8849 0.0000 0.0000 0.0000
# 4 0.0000 0.0000 0.0000 29.0168 0.0000 0.0000
# 5 0.0000 0.0000 0.0000 0.0000 27.6906 0.0000
# 6 0.0000 0.0000 0.0000 0.0000 0.0000 40.6381
#
#
#
# Elastic Compliance Matrix: (Units=1/GPa)
#
#
# Indices 1 2 3 4 5 6 
#
# 1 0.008518 -0.003311 -0.001332 0.000000 0.000000 0.000000
# 2 -0.003311 0.010168 -0.004055 0.000000 0.000000 0.000000
# 3 -0.001332 -0.004055 0.020457 0.000000 0.000000 0.000000
# 4 0.000000 0.000000 0.000000 0.034463 0.000000 0.000000
# 5 0.000000 0.000000 0.000000 0.000000 0.036113 0.000000
# 6 0.000000 0.000000 0.000000 0.000000 0.000000 0.024607
#
#
# Mechanical properties :
#
#
# Convention : Reuss Voigt Hill
#
# Bulk Modulus (GPa) = 45.98549 58.92286 52.45417
# Shear Modulus (GPa) = 31.45202 34.27504 32.86353
#
# Velocity S-wave (km/s) = 3.73383 3.89780 3.81669
# Velocity P-wave (km/s) = 6.24278 6.80995 6.53252
#
# Compressibility (1/GPa) = 0.02174599
#
# Stress axis : x y z
#
# Youngs Moduli (GPa) = 117.39341 98.35234 48.88274
#
# Poissons Ratio (x) = 0.32568 0.06510
# Poissons Ratio (y) = 0.38873 0.19824
# Poissons Ratio (z) = 0.15634 0.39885
#
# Static dielectric constant tensor:
#      x y z
#    x 1.854620 0.000000 0.000000 
#    y 0.000000 1.828130 0.000000 
#    z 0.000000 0.000000 1.862520 
# 
# From -- ./inp_files/25339.got.cif
#   From: 2010.05.17/outbox.cif.g08.bks.cpg/sg60_13_cif.got.tgz:25339.got - 2010.06.03 14:59:27.
