data_PCOD9458441
_publ_section_title
;
Structure prediction by ZEFSAII (Michael W. Deem and Ramdas Pophale) SiO2 
 PCOD9458441
Probable space group: P B C N
;
_chemical_formula_sum "Si O2"
_cell_formula_units_Z 40
_cell_length_a 23.830867
_cell_length_b 8.518876
_cell_length_c 8.380929
_cell_angle_alpha 90.000000
_cell_angle_beta 90.000000
_cell_angle_gamma 90.000000
_cell_volume 1701.430842
_symmetry_space_group_name_H-M "P B C N"
_symmetry_group_IT_number 60
_symmetry_cell_setting 'orthorhombic'
loop_
_space_group_symop_operation_xyz
x,y,z
1/2-x,1/2-y,1/2+z
1/2+x,1/2-y,-z
-x,y,1/2-z
-x,-y,-z
1/2+x,1/2+y,1/2-z
1/2-x,1/2+y,z
x,-y,1/2+z
loop_
_atom_site_type_symbol
_atom_site_label
_atom_site_fract_x
_atom_site_fract_y
_atom_site_fract_z
Si Si1 0.719290 0.852120 0.806658
Si Si2 0.982399 0.332084 0.067494
Si Si3 0.419001 0.657131 0.933789
Si Si4 0.882566 0.177369 0.932378
Si Si5 0.683807 0.183879 0.942316
O O1 0.681540 0.729159 0.908162
O O2 0.708200 0.823506 0.621308
O O3 0.783667 0.822545 0.851016
O O4 0.697815 0.023777 0.852625
O O5 0.000000 0.321517 0.250000
O O6 0.916954 0.303153 0.036333
O O7 0.000000 0.500000 0.000000
O O8 0.017151 0.195959 0.976028
O O9 0.407623 0.678078 0.746824
O O10 0.381420 0.780435 0.034019
O O11 0.395585 0.488704 0.987020
#
# Coordination Sequence:
#
# PCOD9458441 Si02
#       5
#     8   8   8   8   8
#     4  11  24  41  64  92 125 163 205 253 306 363
#     4  12  25  42  65  92 124 162 204 254 307 364
#     4  11  24  42  64  92 125 163 205 252 305 363
#     4  11  24  42  64  92 125 163 205 252 305 363
#     4  11  24  41  64  92 125 163 205 253 306 363
#
# _framework density 23.509625
#
# number of rings (size 3 to 8) (size 9 to 14) (size 15 to 20)
#    0.000    0.800    0.000    7.200    0.000   12.800 
#    0.000    0.000    0.000    0.000    0.000    0.000 
#    0.000    0.000    0.000    0.000    0.000    0.000 
#
# Total GULP energy -224202.583782 kJ/mol
# GULP energy per Si atom -5605.064595 kJ/mol
# Density = 2.345612 g / cm^3
# Si number density = 23.509625 Si / 1000 Ang^3
#
#
#
# Elastic Constant Matrix: (Units=GPa)
#
#
# Indices 1 2 3 4 5 6 
#
# 1 57.0189 -20.9457 2.9175 0.0000 0.0000 0.0000
# 2 -20.9457 82.2289 -20.1215 0.0000 0.0000 0.0000
# 3 2.9175 -20.1215 65.9945 0.0000 0.0000 0.0000
# 4 0.0000 0.0000 0.0000 18.3678 0.0000 0.0000
# 5 0.0000 0.0000 0.0000 0.0000 31.2027 0.0000
# 6 0.0000 0.0000 0.0000 0.0000 0.0000 37.4531
#
#
#
# Elastic Compliance Matrix: (Units=1/GPa)
#
#
# Indices 1 2 3 4 5 6 
#
# 1 0.019378 0.005108 0.000701 0.000000 0.000000 0.000000
# 2 0.005108 0.014488 0.004192 0.000000 0.000000 0.000000
# 3 0.000701 0.004192 0.016400 0.000000 0.000000 0.000000
# 4 0.000000 0.000000 0.000000 0.054443 0.000000 0.000000
# 5 0.000000 0.000000 0.000000 0.000000 0.032048 0.000000
# 6 0.000000 0.000000 0.000000 0.000000 0.000000 0.026700
#
#
# Mechanical properties :
#
#
# Convention : Reuss Voigt Hill
#
# Bulk Modulus (GPa) = 14.23173 14.32699 14.27936
# Shear Modulus (GPa) = 29.96163 33.63087 31.79625
#
# Velocity S-wave (km/s) = 3.57380 3.78632 3.68159
# Velocity P-wave (km/s) = 4.80585 5.02218 4.91520
#
# Compressibility (1/GPa) = 0.07026554
#
# Stress axis : x y z
#
# Youngs Moduli (GPa) = 51.60372 69.02323 60.97641
#
# Poissons Ratio (x) = -0.35254 -0.04272
# Poissons Ratio (y) = -0.26357 -0.25558
# Poissons Ratio (z) = -0.03615 -0.28931
#
# Static dielectric constant tensor:
#      x y z
#    x 1.829360 0.000000 0.000000 
#    y 0.000000 1.852300 0.000000 
#    z 0.000000 0.000000 1.813810 
# 
# From -- ./inp_files/7712.got.cif
#   From: 2010.05.17/outbox.cif.g08.bks.cpg/sg60_4_cif.got.tgz:7712.got - 2010.06.03 14:59:27.
