data_PCOD9458186
_publ_section_title
;
Structure prediction by ZEFSAII (Michael W. Deem and Ramdas Pophale) SiO2 
 PCOD9458186
Probable space group: P B C N
;
_chemical_formula_sum "Si O2"
_cell_formula_units_Z 56
_cell_length_a 15.164643
_cell_length_b 8.294597
_cell_length_c 20.713445
_cell_angle_alpha 90.000000
_cell_angle_beta 90.000000
_cell_angle_gamma 90.000000
_cell_volume 2605.432442
_symmetry_space_group_name_H-M "P B C N"
_symmetry_group_IT_number 60
_symmetry_cell_setting 'orthorhombic'
loop_
_space_group_symop_operation_xyz
x,y,z
1/2-x,1/2-y,1/2+z
1/2+x,1/2-y,-z
-x,y,1/2-z
-x,-y,-z
1/2+x,1/2+y,1/2-z
1/2-x,1/2+y,z
x,-y,1/2+z
loop_
_atom_site_type_symbol
_atom_site_label
_atom_site_fract_x
_atom_site_fract_y
_atom_site_fract_z
Si Si1 0.520881 0.350309 0.452863
Si Si2 0.884137 0.653115 0.975656
Si Si3 0.790810 0.227583 0.794767
Si Si4 0.491484 0.853027 0.155837
Si Si5 0.954299 0.018020 0.814213
Si Si6 0.294941 0.820141 0.556603
Si Si7 0.632528 0.971007 0.239816
O O1 0.500000 0.500000 0.500000
O O2 0.451050 0.208495 0.468572
O O3 0.509717 0.403689 0.379287
O O4 0.623701 0.300074 0.460016
O O5 0.950724 0.643671 0.914671
O O6 0.803341 0.779022 0.967645
O O7 0.831069 0.486059 0.972924
O O8 0.853804 0.073981 0.807056
O O9 0.786007 0.314500 0.864961
O O10 0.827411 0.351967 0.741890
O O11 0.701402 0.157951 0.767047
O O12 0.472625 0.671801 0.180180
O O13 0.590541 0.906161 0.173352
O O14 0.437926 0.973267 0.201809
O O15 0.000000 0.080810 0.750000
#
# Coordination Sequence:
#
# PCOD9458186 Si02
#       7
#     8   8   8   8   8   8   8
#     4  11  24  42  68  99 133 174 223 281 338 400
#     4  12  23  43  68  98 137 175 233 286 339 411
#     4  11  22  38  64  95 135 176 236 273 334 412
#     4  11  22  38  64  96 136 173 222 284 345 391
#     4  11  24  41  68  95 131 173 223 271 340 401
#     4  11  23  39  69 102 129 182 230 280 338 410
#     4  11  22  36  60  98 130 176 222 286 335 391
#
# _framework density 21.493552999999999
#
# number of rings (size 3 to 8) (size 9 to 14) (size 15 to 20)
#    0.000    0.857    5.714    2.143    4.000    0.000 
#    0.000    1.429    0.000    0.000    0.000    0.000 
#    0.000    0.000    0.000    0.000    0.000    0.000 
#
# Total GULP energy -312711.538931 kJ/mol
# GULP energy per Si atom -5584.134624 kJ/mol
# Density = 2.144463 g / cm^3
# Si number density = 21.493553 Si / 1000 Ang^3
#
#
#
# Elastic Constant Matrix: (Units=GPa)
#
#
# Indices 1 2 3 4 5 6 
#
# 1 120.3062 35.4899 48.3753 0.0000 0.0000 0.0000
# 2 35.4899 81.3838 18.5963 0.0000 0.0000 0.0000
# 3 48.3753 18.5963 86.6236 0.0000 0.0000 0.0000
# 4 0.0000 0.0000 0.0000 14.9333 0.0000 0.0000
# 5 0.0000 0.0000 0.0000 0.0000 33.2854 0.0000
# 6 0.0000 0.0000 0.0000 0.0000 0.0000 35.2834
#
#
#
# Elastic Compliance Matrix: (Units=1/GPa)
#
#
# Indices 1 2 3 4 5 6 
#
# 1 0.011744 -0.003810 -0.005741 0.000000 0.000000 0.000000
# 2 -0.003810 0.014157 -0.000912 0.000000 0.000000 0.000000
# 3 -0.005741 -0.000912 0.014946 0.000000 0.000000 0.000000
# 4 0.000000 0.000000 0.000000 0.066965 0.000000 0.000000
# 5 0.000000 0.000000 0.000000 0.000000 0.030043 0.000000
# 6 0.000000 0.000000 0.000000 0.000000 0.000000 0.028342
#
#
# Mechanical properties :
#
#
# Convention : Reuss Voigt Hill
#
# Bulk Modulus (GPa) = 50.19338 54.80407 52.49872
# Shear Modulus (GPa) = 25.80479 29.09056 27.44767
#
# Velocity S-wave (km/s) = 3.46870 3.68292 3.57742
# Velocity P-wave (km/s) = 6.28060 6.60595 6.44533
#
# Compressibility (1/GPa) = 0.01992295
#
# Stress axis : x y z
#
# Youngs Moduli (GPa) = 85.14717 70.63579 66.90796
#
# Poissons Ratio (x) = 0.26910 0.38411
# Poissons Ratio (y) = 0.32439 0.06100
# Poissons Ratio (z) = 0.48882 0.06440
#
# Static dielectric constant tensor:
#      x y z
#    x 1.819350 0.000000 0.000000 
#    y 0.000000 1.852890 0.000000 
#    z 0.000000 0.000000 1.767280 
# 
# From -- ./inp_files/22924.got.cif
#   From: 2010.05.17/outbox.cif.g08.bks.cpg/sg60_12_cif.got.tgz:22924.got - 2010.06.03 14:59:27.
