data_PCOD9458633
_publ_section_title
;
Structure prediction by ZEFSAII (Michael W. Deem and Ramdas Pophale) SiO2 
 PCOD9458633
Probable space group: P B C N
;
_chemical_formula_sum "Si O2"
_cell_formula_units_Z 20
_cell_length_a 5.384387
_cell_length_b 9.139193
_cell_length_c 14.192932
_cell_angle_alpha 90.000000
_cell_angle_beta 90.000000
_cell_angle_gamma 90.000000
_cell_volume 698.419309
_symmetry_space_group_name_H-M "P B C N"
_symmetry_group_IT_number 60
_symmetry_cell_setting 'orthorhombic'
loop_
_space_group_symop_operation_xyz
x,y,z
1/2-x,1/2-y,1/2+z
1/2+x,1/2-y,-z
-x,y,1/2-z
-x,-y,-z
1/2+x,1/2+y,1/2-z
1/2-x,1/2+y,z
x,-y,1/2+z
loop_
_atom_site_type_symbol
_atom_site_label
_atom_site_fract_x
_atom_site_fract_y
_atom_site_fract_z
Si Si1 0.500000 0.223378 0.250000
Si Si2 0.905301 0.830563 0.886210
Si Si3 0.239859 0.587138 0.906868
O O1 0.271527 0.136648 0.202165
O O2 0.583888 0.326649 0.164769
O O3 0.975081 0.658293 0.881554
O O4 0.772758 0.869482 0.984055
O O5 0.162837 0.922463 0.895372
#
# Coordination Sequence:
#
# PCOD9458633 Si02
#       3
#     4   8   8
#     4  12  26  48  80 120 164 220 276 338 416 506
#     4  11  26  52  82 119 168 217 275 346 419 494
#     4  11  26  49  79 122 165 215 274 348 414 501
#
# _framework density 28.636092000000001
#
# number of rings (size 3 to 8) (size 9 to 14) (size 15 to 20)
#    0.000    0.800    4.000    1.200    5.600    4.800 
#    0.000    0.000    0.000    2.400    0.000    0.000 
#    0.000    0.000    0.000    0.000    0.000    0.000 
#
# Total GULP energy -112090.648551 kJ/mol
# GULP energy per Si atom -5604.532428 kJ/mol
# Density = 2.857092 g / cm^3
# Si number density = 28.636092 Si / 1000 Ang^3
#
#
#
# Elastic Constant Matrix: (Units=GPa)
#
#
# Indices 1 2 3 4 5 6 
#
# 1 126.0125 59.3821 67.6755 0.0000 0.0000 0.0000
# 2 59.3821 139.4774 31.2723 0.0000 0.0000 0.0000
# 3 67.6755 31.2723 199.7569 0.0000 0.0000 0.0000
# 4 0.0000 0.0000 0.0000 34.7186 0.0000 0.0000
# 5 0.0000 0.0000 0.0000 0.0000 50.4183 0.0000
# 6 0.0000 0.0000 0.0000 0.0000 0.0000 41.0529
#
#
#
# Elastic Compliance Matrix: (Units=1/GPa)
#
#
# Indices 1 2 3 4 5 6 
#
# 1 0.011710 -0.004245 -0.003303 0.000000 0.000000 0.000000
# 2 -0.004245 0.008969 0.000034 0.000000 0.000000 0.000000
# 3 -0.003303 0.000034 0.006120 0.000000 0.000000 0.000000
# 4 0.000000 0.000000 0.000000 0.028803 0.000000 0.000000
# 5 0.000000 0.000000 0.000000 0.000000 0.019834 0.000000
# 6 0.000000 0.000000 0.000000 0.000000 0.000000 0.024359
#
#
# Mechanical properties :
#
#
# Convention : Reuss Voigt Hill
#
# Bulk Modulus (GPa) = 84.95015 86.87850 85.91432
# Shear Modulus (GPa) = 42.10687 45.69910 43.90299
#
# Velocity S-wave (km/s) = 3.83876 3.99915 3.91977
# Velocity P-wave (km/s) = 7.02694 7.19228 7.11009
#
# Compressibility (1/GPa) = 0.01177161
#
# Stress axis : x y z
#
# Youngs Moduli (GPa) = 85.39878 111.49187 163.40805
#
# Poissons Ratio (x) = 0.47327 0.53967
# Poissons Ratio (y) = 0.36251 -0.00555
# Poissons Ratio (z) = 0.28204 -0.00379
#
# Static dielectric constant tensor:
#      x y z
#    x 2.295860 0.000000 0.000000 
#    y 0.000000 2.157520 0.000000 
#    z 0.000000 0.000000 2.126980 
# 
# From -- ./inp_files/13430.got.cif
#   From: 2010.05.17/outbox.cif.g08.bks.cpg/sg60_7_cif.got.tgz:13430.got - 2010.06.03 14:59:27.
