data_PCOD9458882
_publ_section_title
;
Structure prediction by ZEFSAII (Michael W. Deem and Ramdas Pophale) SiO2 
 PCOD9458882
Probable space group: P B C N
;
_chemical_formula_sum "Si O2"
_cell_formula_units_Z 64
_cell_length_a 21.000000
_cell_length_b 9.000000
_cell_length_c 18.000000
_cell_angle_alpha 90.000000
_cell_angle_beta 90.000000
_cell_angle_gamma 90.000000
_cell_volume 3402.000000
_symmetry_space_group_name_H-M "P B C N"
_symmetry_group_IT_number 60
_symmetry_cell_setting 'orthorhombic'
loop_
_space_group_symop_operation_xyz
x,y,z
1/2-x,1/2-y,1/2+z
1/2+x,1/2-y,-z
-x,y,1/2-z
-x,-y,-z
1/2+x,1/2+y,1/2-z
1/2-x,1/2+y,z
x,-y,1/2+z
loop_
_atom_site_type_symbol
_atom_site_label
_atom_site_fract_x
_atom_site_fract_y
_atom_site_fract_z
Si Si1 0.187054 0.802164 0.962832
Si Si2 0.095547 0.234737 0.604919
Si Si3 0.369117 0.217151 0.802389
Si Si4 0.822687 0.845640 0.005833
Si Si5 0.924810 0.587042 0.244660
Si Si6 0.054506 0.198897 0.896915
Si Si7 0.372098 0.397508 0.652366
Si Si8 0.987551 0.897333 0.667535
O O1 0.167692 0.747322 0.879617
O O2 0.258947 0.744514 0.975160
O O3 0.184277 0.981952 0.968356
O O4 0.139796 0.746216 0.030843
O O5 0.096807 0.347222 0.675191
O O6 0.019804 0.234672 0.582221
O O7 0.117711 0.076141 0.641911
O O8 0.351882 0.327278 0.732229
O O9 0.441045 0.262332 0.822151
O O10 0.376896 0.047022 0.776499
O O11 0.887956 0.784697 0.044218
O O12 0.830169 0.845699 0.916561
O O13 0.926809 0.709832 0.177907
O O14 0.000000 0.541193 0.250000
O O15 0.047304 0.023667 0.878987
O O16 0.444731 0.344890 0.638497
O O17 0.000000 0.964387 0.750000
#
# Coordination Sequence:
#
# PCOD9458882 Si02
#       8
#     8   8   8   8   8   8   8   8
#     4  11  26  44  63  91 127 167 213 265 312 377
#     4   9  21  41  68  94 123 162 214 261 318 373
#     4  11  21  38  62  95 126 163 203 253 317 374
#     4  11  25  43  61  90 127 166 212 261 315 373
#     4  10  20  37  60  99 130 160 201 258 321 375
#     4  10  19  37  67  93 122 165 209 259 315 378
#     4   9  20  38  64  90 120 160 207 261 308 371
#     4   9  16  32  64  96 119 148 205 264 304 366
#
# _framework density 18.812463000000001
#
# number of rings (size 3 to 8) (size 9 to 14) (size 15 to 20)
#    0.000    2.000    1.250    3.750    3.500    2.500 
#    2.250    1.250    0.000    0.000    0.000    0.000 
#    0.000    0.000    0.000    0.000    0.000    0.000 
#
# Total GULP energy -356603.070872 kJ/mol
# GULP energy per Si atom -5571.922982 kJ/mol
# Density = 1.876965 g / cm^3
# Si number density = 18.812463 Si / 1000 Ang^3
#
#
#
# Elastic Constant Matrix: (Units=GPa)
#
#
# Indices 1 2 3 4 5 6 
#
# 1 90.9863 29.6119 66.8480 0.0000 0.0000 0.0000
# 2 29.6119 55.3392 40.4242 0.0000 0.0000 0.0000
# 3 66.8480 40.4242 138.3259 0.0000 0.0000 0.0000
# 4 0.0000 0.0000 0.0000 25.8137 0.0000 0.0000
# 5 0.0000 0.0000 0.0000 0.0000 31.3116 0.0000
# 6 0.0000 0.0000 0.0000 0.0000 0.0000 28.5231
#
#
#
# Elastic Compliance Matrix: (Units=1/GPa)
#
#
# Indices 1 2 3 4 5 6 
#
# 1 0.017747 -0.004108 -0.007376 0.000000 0.000000 0.000000
# 2 -0.004108 0.023926 -0.005007 0.000000 0.000000 0.000000
# 3 -0.007376 -0.005007 0.012257 0.000000 0.000000 0.000000
# 4 0.000000 0.000000 0.000000 0.038739 0.000000 0.000000
# 5 0.000000 0.000000 0.000000 0.000000 0.031937 0.000000
# 6 0.000000 0.000000 0.000000 0.000000 0.000000 0.035059
#
#
# Mechanical properties :
#
#
# Convention : Reuss Voigt Hill
#
# Bulk Modulus (GPa) = 47.73718 62.04662 54.89190
# Shear Modulus (GPa) = 25.04641 26.98084 26.01362
#
# Velocity S-wave (km/s) = 3.65276 3.79119 3.72262
# Velocity P-wave (km/s) = 6.57423 7.22616 6.90789
#
# Compressibility (1/GPa) = 0.02094803
#
# Stress axis : x y z
#
# Youngs Moduli (GPa) = 56.34836 41.79547 81.58688
#
# Poissons Ratio (x) = 0.17171 0.60176
# Poissons Ratio (y) = 0.23150 0.40848
# Poissons Ratio (z) = 0.41561 0.20926
#
# Static dielectric constant tensor:
#      x y z
#    x 1.648930 0.000000 0.000000 
#    y 0.000000 1.662530 0.000000 
#    z 0.000000 0.000000 1.669040 
# 
# From -- ./inp_files/21078.got.cif
#   From: 2010.05.17/outbox.ucp.g08.bks.cvg/sg60_11_cif.got.tgz:21078.got - 2010.06.11 16:26:41.
