data_PCOD9458694
_publ_section_title
;
Structure prediction by ZEFSAII (Michael W. Deem and Ramdas Pophale) SiO2 
 PCOD9458694
Probable space group: P B C N
;
_chemical_formula_sum "Si O2"
_cell_formula_units_Z 60
_cell_length_a 27.530214
_cell_length_b 6.579216
_cell_length_c 14.959217
_cell_angle_alpha 90.000000
_cell_angle_beta 90.000000
_cell_angle_gamma 90.000000
_cell_volume 2709.521455
_symmetry_space_group_name_H-M "P B C N"
_symmetry_group_IT_number 60
_symmetry_cell_setting 'orthorhombic'
loop_
_space_group_symop_operation_xyz
x,y,z
1/2-x,1/2-y,1/2+z
1/2+x,1/2-y,-z
-x,y,1/2-z
-x,-y,-z
1/2+x,1/2+y,1/2-z
1/2-x,1/2+y,z
x,-y,1/2+z
loop_
_atom_site_type_symbol
_atom_site_label
_atom_site_fract_x
_atom_site_fract_y
_atom_site_fract_z
Si Si1 0.769929 0.690456 0.646382
Si Si2 0.361631 0.323271 0.946613
Si Si3 0.150555 0.509798 0.101615
Si Si4 0.500000 0.768684 0.750000
Si Si5 0.538548 0.392123 0.646831
Si Si6 0.209782 0.853378 0.528028
Si Si7 0.739763 0.930100 0.787187
Si Si8 0.948066 0.648423 0.829659
O O1 0.755438 0.434351 0.669189
O O2 0.828250 0.724740 0.632728
O O3 0.751907 0.682991 0.543215
O O4 0.415309 0.381233 0.915955
O O5 0.330763 0.515277 0.978508
O O6 0.365620 0.178698 0.032006
O O7 0.183219 0.598461 0.182629
O O8 0.104725 0.376079 0.130450
O O9 0.186019 0.359598 0.050353
O O10 0.525739 0.618332 0.679640
O O11 0.465534 0.921702 0.695709
O O12 0.489864 0.270773 0.615713
O O13 0.553643 0.272257 0.737117
O O14 0.227745 0.947457 0.621364
O O15 0.759706 0.687531 0.761613
#
# Coordination Sequence:
#
# PCOD9458694 Si02
#       8
#     8   8   8   4   8   8   8   8
#     4  12  23  42  68  93 137 185 223 282 337 402
#     4  12  25  41  64  99 135 176 226 280 339 410
#     4  12  25  42  64  96 139 175 225 287 336 410
#     4   8  18  42  68  92 130 162 226 286 326 420
#     4   9  21  41  68  96 130 171 229 284 334 411
#     4  12  26  45  63 102 141 172 237 277 329 422
#     4  12  23  42  69  92 135 185 221 277 342 392
#     4   9  21  42  68  97 127 172 229 277 342 411
#
# _framework density 22.144133
#
# number of rings (size 3 to 8) (size 9 to 14) (size 15 to 20)
#    0.000    1.333    4.000    3.200    0.000    5.867 
#    0.000    1.333    0.000    0.000    0.000    0.000 
#    0.000    0.000    0.000    0.000    0.000    0.000 
#
# Total GULP energy -334886.902069 kJ/mol
# GULP energy per Si atom -5581.448368 kJ/mol
# Density = 2.209373 g / cm^3
# Si number density = 22.144133 Si / 1000 Ang^3
#
#
#
# Elastic Constant Matrix: (Units=GPa)
#
#
# Indices 1 2 3 4 5 6 
#
# 1 83.1020 3.2029 25.3002 0.0000 0.0000 0.0000
# 2 3.2029 108.5898 25.4320 0.0000 0.0000 0.0000
# 3 25.3002 25.4320 94.7506 0.0000 0.0000 0.0000
# 4 0.0000 0.0000 0.0000 37.2580 0.0000 0.0000
# 5 0.0000 0.0000 0.0000 0.0000 36.7682 0.0000
# 6 0.0000 0.0000 0.0000 0.0000 0.0000 10.5081
#
#
#
# Elastic Compliance Matrix: (Units=1/GPa)
#
#
# Indices 1 2 3 4 5 6 
#
# 1 0.013120 0.000463 -0.003627 0.000000 0.000000 0.000000
# 2 0.000463 0.009843 -0.002765 0.000000 0.000000 0.000000
# 3 -0.003627 -0.002765 0.012265 0.000000 0.000000 0.000000
# 4 0.000000 0.000000 0.000000 0.026840 0.000000 0.000000
# 5 0.000000 0.000000 0.000000 0.000000 0.027197 0.000000
# 6 0.000000 0.000000 0.000000 0.000000 0.000000 0.095165
#
#
# Mechanical properties :
#
#
# Convention : Reuss Voigt Hill
#
# Bulk Modulus (GPa) = 42.79510 43.81253 43.30382
# Shear Modulus (GPa) = 24.50025 32.40735 28.45380
#
# Velocity S-wave (km/s) = 3.32987 3.82969 3.58849
# Velocity P-wave (km/s) = 5.84394 6.27562 6.06363
#
# Compressibility (1/GPa) = 0.02336716
#
# Stress axis : x y z
#
# Youngs Moduli (GPa) = 76.21991 101.59502 81.53353
#
# Poissons Ratio (x) = -0.04699 0.29576
# Poissons Ratio (y) = -0.03526 0.22548
# Poissons Ratio (z) = 0.27648 0.28096
#
# Static dielectric constant tensor:
#      x y z
#    x 1.820360 0.000000 0.000000 
#    y 0.000000 1.938160 0.000000 
#    z 0.000000 0.000000 1.812900 
# 
# From -- ./inp_files/21270.got.cif
#   From: 2010.05.17/outbox.cif.g08.bks.cpg/sg60_11_cif.got.tgz:21270.got - 2010.06.03 14:59:27.
