data_PCOD9458036
_publ_section_title
;
Structure prediction by ZEFSAII (Michael W. Deem and Ramdas Pophale) SiO2 
 PCOD9458036
Probable space group: P B C N
;
_chemical_formula_sum "Si O2"
_cell_formula_units_Z 52
_cell_length_a 18.471955
_cell_length_b 7.830910
_cell_length_c 13.976554
_cell_angle_alpha 90.000000
_cell_angle_beta 90.000000
_cell_angle_gamma 90.000000
_cell_volume 2021.739524
_symmetry_space_group_name_H-M "P B C N"
_symmetry_group_IT_number 60
_symmetry_cell_setting 'orthorhombic'
loop_
_space_group_symop_operation_xyz
x,y,z
1/2-x,1/2-y,1/2+z
1/2+x,1/2-y,-z
-x,y,1/2-z
-x,-y,-z
1/2+x,1/2+y,1/2-z
1/2-x,1/2+y,z
x,-y,1/2+z
loop_
_atom_site_type_symbol
_atom_site_label
_atom_site_fract_x
_atom_site_fract_y
_atom_site_fract_z
Si Si1 0.234794 0.809781 0.566352
Si Si2 0.469440 0.337878 0.914387
Si Si3 0.605349 0.548249 0.916652
Si Si4 0.731266 0.761729 0.151146
Si Si5 0.000000 0.427309 0.250000
Si Si6 0.841329 0.514664 0.813050
Si Si7 0.867700 0.065831 0.696956
O O1 0.296857 0.855153 0.643411
O O2 0.269784 0.785777 0.462647
O O3 0.182041 0.663239 0.609426
O O4 0.184431 0.978341 0.558933
O O5 0.425526 0.308893 0.011896
O O6 0.469001 0.192106 0.835239
O O7 0.433885 0.508527 0.868287
O O8 0.448848 0.610483 0.066036
O O9 0.604823 0.578686 0.804219
O O10 0.692676 0.905904 0.215994
O O11 0.817896 0.775231 0.169349
O O12 0.927177 0.512521 0.294508
O O13 0.813404 0.904908 0.681768
#
# Coordination Sequence:
#
# PCOD9458036 Si02
#       7
#     8   8   8   8   4   8   8
#     4  12  24  41  69 105 130 185 238 296 348 433
#     4  11  20  37  62  98 129 172 228 279 336 409
#     4  11  21  36  63  95 127 167 228 281 331 398
#     4  12  23  39  66  97 136 174 229 287 351 408
#     4  12  22  44  70  96 140 200 222 292 368 436
#     4  12  25  45  71  98 142 180 241 292 362 425
#     4  12  22  40  62  96 131 174 218 285 343 407
#
# _framework density 25.720424999999999
#
# number of rings (size 3 to 8) (size 9 to 14) (size 15 to 20)
#    0.000    0.308    9.231    0.923    0.000    0.000 
#    0.000    0.769    0.000    4.615    0.000    0.000 
#    0.000    0.000    0.000    0.000    0.000    0.000 
#
# Total GULP energy -290973.570477 kJ/mol
# GULP energy per Si atom -5595.645586 kJ/mol
# Density = 2.566188 g / cm^3
# Si number density = 25.720425 Si / 1000 Ang^3
#
#
#
# Elastic Constant Matrix: (Units=GPa)
#
#
# Indices 1 2 3 4 5 6 
#
# 1 171.7254 9.5259 60.7825 0.0000 0.0000 0.0000
# 2 9.5259 52.0589 34.6913 0.0000 0.0000 0.0000
# 3 60.7825 34.6913 189.9505 0.0000 0.0000 0.0000
# 4 0.0000 0.0000 0.0000 1.6218 0.0000 0.0000
# 5 0.0000 0.0000 0.0000 0.0000 51.0721 0.0000
# 6 0.0000 0.0000 0.0000 0.0000 0.0000 44.5923
#
#
#
# Elastic Compliance Matrix: (Units=1/GPa)
#
#
# Indices 1 2 3 4 5 6 
#
# 1 0.006569 0.000226 -0.002143 0.000000 0.000000 0.000000
# 2 0.000226 0.021879 -0.004068 0.000000 0.000000 0.000000
# 3 -0.002143 -0.004068 0.006693 0.000000 0.000000 0.000000
# 4 0.000000 0.000000 0.000000 0.616593 0.000000 0.000000
# 5 0.000000 0.000000 0.000000 0.000000 0.019580 0.000000
# 6 0.000000 0.000000 0.000000 0.000000 0.000000 0.022425
#
#
# Mechanical properties :
#
#
# Convention : Reuss Voigt Hill
#
# Bulk Modulus (GPa) = 43.15805 69.30383 56.23094
# Shear Modulus (GPa) = 7.00836 40.03960 23.52398
#
# Velocity S-wave (km/s) = 1.65249 3.94981 3.02752
# Velocity P-wave (km/s) = 4.52295 6.91411 5.84218
#
# Compressibility (1/GPa) = 0.02317065
#
# Stress axis : x y z
#
# Youngs Moduli (GPa) = 152.22125 45.70685 149.40077
#
# Poissons Ratio (x) = -0.01034 0.32024
# Poissons Ratio (y) = -0.03445 0.60779
# Poissons Ratio (z) = 0.32628 0.18594
#
# Static dielectric constant tensor:
#      x y z
#    x 2.061480 0.000000 0.000000 
#    y 0.000000 2.154380 0.000000 
#    z 0.000000 0.000000 2.024220 
# 
# From -- ./inp_files/17782.got.cif
#   From: 2010.05.17/outbox.cif.g08.bks.cpg/sg60_9_cif.got.tgz:17782.got - 2010.06.03 14:59:27.
