data_PCOD9458474
_publ_section_title
;
Structure prediction by ZEFSAII (Michael W. Deem and Ramdas Pophale) SiO2 
 PCOD9458474
Probable space group: P B C N
;
_chemical_formula_sum "Si O2"
_cell_formula_units_Z 32
_cell_length_a 20.947430
_cell_length_b 7.512154
_cell_length_c 9.127618
_cell_angle_alpha 90.000000
_cell_angle_beta 90.000000
_cell_angle_gamma 90.000000
_cell_volume 1436.324890
_symmetry_space_group_name_H-M "P B C N"
_symmetry_group_IT_number 60
_symmetry_cell_setting 'orthorhombic'
loop_
_space_group_symop_operation_xyz
x,y,z
1/2-x,1/2-y,1/2+z
1/2+x,1/2-y,-z
-x,y,1/2-z
-x,-y,-z
1/2+x,1/2+y,1/2-z
1/2-x,1/2+y,z
x,-y,1/2+z
loop_
_atom_site_type_symbol
_atom_site_label
_atom_site_fract_x
_atom_site_fract_y
_atom_site_fract_z
Si Si1 0.691216 0.060533 0.291008
Si Si2 0.538445 0.635416 0.896736
Si Si3 0.333251 0.445886 0.271698
Si Si4 0.868162 0.701180 0.580508
O O1 0.677206 0.237180 0.193346
O O2 0.675498 0.114674 0.456011
O O3 0.764443 0.002803 0.288960
O O4 0.645550 0.907117 0.227717
O O5 0.500000 0.688403 0.750000
O O6 0.603670 0.552176 0.829702
O O7 0.500000 0.500000 0.000000
O O8 0.562356 0.790812 0.005823
O O9 0.348045 0.595347 0.390751
#
# Coordination Sequence:
#
# PCOD9458474 Si02
#       4
#     8   8   8   8
#     4  11  26  42  73 112 143 183 242 302 385 425
#     4  11  24  47  75 102 141 203 246 287 365 438
#     4  11  24  43  76 103 147 187 237 306 365 435
#     4  11  26  46  72 109 144 193 235 308 359 435
#
# _framework density 22.279083
#
# number of rings (size 3 to 8) (size 9 to 14) (size 15 to 20)
#    0.000    1.000    5.000    0.000    7.000    4.000 
#    0.000    5.000   11.000    0.000    0.000    0.000 
#    0.000    0.000    0.000    0.000    0.000    0.000 
#
# Total GULP energy -178524.529558 kJ/mol
# GULP energy per Si atom -5578.891549 kJ/mol
# Density = 2.222838 g / cm^3
# Si number density = 22.279083 Si / 1000 Ang^3
#
#
#
# Elastic Constant Matrix: (Units=GPa)
#
#
# Indices 1 2 3 4 5 6 
#
# 1 134.9711 33.8348 36.2010 0.0000 0.0000 0.0000
# 2 33.8348 78.4258 9.1827 0.0000 0.0000 0.0000
# 3 36.2010 9.1827 52.8033 0.0000 0.0000 0.0000
# 4 0.0000 0.0000 0.0000 14.5162 0.0000 0.0000
# 5 0.0000 0.0000 0.0000 0.0000 37.8021 0.0000
# 6 0.0000 0.0000 0.0000 0.0000 0.0000 17.3415
#
#
#
# Elastic Compliance Matrix: (Units=1/GPa)
#
#
# Indices 1 2 3 4 5 6 
#
# 1 0.009972 -0.003574 -0.006215 0.000000 0.000000 0.000000
# 2 -0.003574 0.014297 -0.000036 0.000000 0.000000 0.000000
# 3 -0.006215 -0.000036 0.023205 0.000000 0.000000 0.000000
# 4 0.000000 0.000000 0.000000 0.068888 0.000000 0.000000
# 5 0.000000 0.000000 0.000000 0.000000 0.026454 0.000000
# 6 0.000000 0.000000 0.000000 0.000000 0.000000 0.057665
#
#
# Mechanical properties :
#
#
# Convention : Reuss Voigt Hill
#
# Bulk Modulus (GPa) = 35.94009 47.18191 41.56100
# Shear Modulus (GPa) = 21.79534 26.39741 24.09637
#
# Velocity S-wave (km/s) = 3.13115 3.44590 3.29229
# Velocity P-wave (km/s) = 5.40730 6.08736 5.75738
#
# Compressibility (1/GPa) = 0.02782408
#
# Stress axis : x y z
#
# Youngs Moduli (GPa) = 100.28089 69.94378 43.09357
#
# Poissons Ratio (x) = 0.25001 0.26783
# Poissons Ratio (y) = 0.35845 0.00154
# Poissons Ratio (z) = 0.62325 0.00250
#
# Static dielectric constant tensor:
#      x y z
#    x 1.840910 0.000000 0.000000 
#    y 0.000000 1.849960 0.000000 
#    z 0.000000 0.000000 1.873160 
# 
# From -- ./inp_files/7136.got.cif
#   From: 2010.05.17/outbox.cif.g08.bks.cpg/sg60_4_cif.got.tgz:7136.got - 2010.06.03 14:59:27.
