data_PCOD9458541
_publ_section_title
;
Structure prediction by ZEFSAII (Michael W. Deem and Ramdas Pophale) SiO2 
 PCOD9458541
Probable space group: P B C N
;
_chemical_formula_sum "Si O2"
_cell_formula_units_Z 32
_cell_length_a 9.088236
_cell_length_b 13.533093
_cell_length_c 10.981129
_cell_angle_alpha 90.000000
_cell_angle_beta 90.000000
_cell_angle_gamma 90.000000
_cell_volume 1350.590392
_symmetry_space_group_name_H-M "P B C N"
_symmetry_group_IT_number 60
_symmetry_cell_setting 'orthorhombic'
loop_
_space_group_symop_operation_xyz
x,y,z
1/2-x,1/2-y,1/2+z
1/2+x,1/2-y,-z
-x,y,1/2-z
-x,-y,-z
1/2+x,1/2+y,1/2-z
1/2-x,1/2+y,z
x,-y,1/2+z
loop_
_atom_site_type_symbol
_atom_site_label
_atom_site_fract_x
_atom_site_fract_y
_atom_site_fract_z
Si Si1 0.732994 0.338127 0.728356
Si Si2 0.141610 0.860867 0.321582
Si Si3 0.537840 0.607062 0.440565
Si Si4 0.416769 0.997590 0.370294
O O1 0.778959 0.225792 0.751802
O O2 0.597758 0.349042 0.634771
O O3 0.676399 0.393908 0.849127
O O4 0.868999 0.392557 0.666698
O O5 0.074852 0.821458 0.447710
O O6 0.263702 0.937601 0.367124
O O7 0.000000 0.902980 0.250000
O O8 0.500000 0.500000 0.500000
O O9 0.500000 0.957461 0.250000
O O10 0.500000 0.000000 0.500000
#
# Coordination Sequence:
#
# PCOD9458541 Si02
#       4
#     8   8   8   8
#     4  11  27  46  75 112 150 198 261 315 395 468
#     4  12  28  46  79 106 153 204 257 314 394 471
#     4  11  24  49  77 109 152 201 256 323 393 473
#     4  12  28  47  74 111 152 198 256 327 391 460
#
# _framework density 23.693342999999999
#
# number of rings (size 3 to 8) (size 9 to 14) (size 15 to 20)
#    0.000    0.500    2.500    3.750   14.000    0.000 
#    0.000    0.000    0.000    0.000    0.000    0.000 
#    0.000    0.000    0.000    0.000    0.000    0.000 
#
# Total GULP energy -178818.920854 kJ/mol
# GULP energy per Si atom -5588.091277 kJ/mol
# Density = 2.363942 g / cm^3
# Si number density = 23.693343 Si / 1000 Ang^3
#
#
#
# Elastic Constant Matrix: (Units=GPa)
#
#
# Indices 1 2 3 4 5 6 
#
# 1 139.9209 39.4273 86.1555 0.0000 0.0000 0.0000
# 2 39.4273 89.9027 14.9382 0.0000 0.0000 0.0000
# 3 86.1555 14.9382 179.0098 0.0000 0.0000 0.0000
# 4 0.0000 0.0000 0.0000 28.8112 0.0000 0.0000
# 5 0.0000 0.0000 0.0000 0.0000 59.0691 0.0000
# 6 0.0000 0.0000 0.0000 0.0000 0.0000 32.7271
#
#
#
# Elastic Compliance Matrix: (Units=1/GPa)
#
#
# Indices 1 2 3 4 5 6 
#
# 1 0.011530 -0.004192 -0.005199 0.000000 0.000000 0.000000
# 2 -0.004192 0.012804 0.000949 0.000000 0.000000 0.000000
# 3 -0.005199 0.000949 0.008009 0.000000 0.000000 0.000000
# 4 0.000000 0.000000 0.000000 0.034709 0.000000 0.000000
# 5 0.000000 0.000000 0.000000 0.000000 0.016929 0.000000
# 6 0.000000 0.000000 0.000000 0.000000 0.000000 0.030556
#
#
# Mechanical properties :
#
#
# Convention : Reuss Voigt Hill
#
# Bulk Modulus (GPa) = 64.69028 76.65281 70.67155
# Shear Modulus (GPa) = 36.61005 42.00898 39.30951
#
# Velocity S-wave (km/s) = 3.93512 4.21530 4.07762
# Velocity P-wave (km/s) = 6.92887 7.49093 7.21538
#
# Compressibility (1/GPa) = 0.01545827
#
# Stress axis : x y z
#
# Youngs Moduli (GPa) = 86.73274 78.10039 124.85319
#
# Poissons Ratio (x) = 0.32743 0.64914
# Poissons Ratio (y) = 0.36363 -0.11852
# Poissons Ratio (z) = 0.45094 -0.07414
#
# Static dielectric constant tensor:
#      x y z
#    x 2.012870 0.000000 0.000000 
#    y 0.000000 1.927110 0.000000 
#    z 0.000000 0.000000 1.993590 
# 
# From -- ./inp_files/9586.got.cif
#   From: 2010.05.17/outbox.cif.g08.bks.cpg/sg60_5_cif.got.tgz:9586.got - 2010.06.03 14:59:27.
