data_PCOD9458041
_publ_section_title
;
Structure prediction by ZEFSAII (Michael W. Deem and Ramdas Pophale) SiO2 
 PCOD9458041
Probable space group: P B C N
;
_chemical_formula_sum "Si O2"
_cell_formula_units_Z 32
_cell_length_a 11.328323
_cell_length_b 18.600533
_cell_length_c 7.314814
_cell_angle_alpha 90.000000
_cell_angle_beta 90.000000
_cell_angle_gamma 90.000000
_cell_volume 1541.325274
_symmetry_space_group_name_H-M "P B C N"
_symmetry_group_IT_number 60
_symmetry_cell_setting 'orthorhombic'
loop_
_space_group_symop_operation_xyz
x,y,z
1/2-x,1/2-y,1/2+z
1/2+x,1/2-y,-z
-x,y,1/2-z
-x,-y,-z
1/2+x,1/2+y,1/2-z
1/2-x,1/2+y,z
x,-y,1/2+z
loop_
_atom_site_type_symbol
_atom_site_label
_atom_site_fract_x
_atom_site_fract_y
_atom_site_fract_z
Si Si1 0.000000 0.387423 0.750000
Si Si2 0.567191 0.778464 0.441307
Si Si3 0.500000 0.335700 0.250000
Si Si4 0.249456 0.608253 0.674215
Si Si5 0.637335 0.026954 0.485926
O O1 0.119050 0.430991 0.705787
O O2 0.987725 0.340725 0.568116
O O3 0.500000 0.766439 0.250000
O O4 0.552141 0.711649 0.579745
O O5 0.692586 0.815285 0.388780
O O6 0.611921 0.381278 0.311367
O O7 0.219707 0.540986 0.545647
O O8 0.184799 0.581189 0.860812
O O9 0.500000 0.000000 0.500000
#
# Coordination Sequence:
#
# PCOD9458041 Si02
#       5
#     4   8   4   8   8
#     4  11  20  38  70 112 120 169 236 290 344 379
#     4  11  23  45  70  94 139 181 238 285 332 417
#     4  11  32  44  64 106 144 195 220 276 374 413
#     4  12  24  45  70 105 143 177 235 291 349 420
#     4  12  20  39  75 105 131 175 233 296 341 396
#
# _framework density 20.761351999999999
#
# number of rings (size 3 to 8) (size 9 to 14) (size 15 to 20)
#    0.000    0.500    7.500    0.000    3.500    1.000 
#    4.500    0.000    0.000    0.000    0.000    0.000 
#    0.000    0.000    0.000    0.000    0.000    0.000 
#
# Total GULP energy -178252.004633 kJ/mol
# GULP energy per Si atom -5570.375145 kJ/mol
# Density = 2.071410 g / cm^3
# Si number density = 20.761352 Si / 1000 Ang^3
#
#
#
# Elastic Constant Matrix: (Units=GPa)
#
#
# Indices 1 2 3 4 5 6 
#
# 1 145.8705 50.9946 35.6986 0.0000 0.0000 0.0000
# 2 50.9946 77.1916 32.9689 0.0000 0.0000 0.0000
# 3 35.6986 32.9689 136.1004 0.0000 0.0000 0.0000
# 4 0.0000 0.0000 0.0000 19.8227 0.0000 0.0000
# 5 0.0000 0.0000 0.0000 0.0000 18.8443 0.0000
# 6 0.0000 0.0000 0.0000 0.0000 0.0000 -27.2971
#
#
#
# Elastic Compliance Matrix: (Units=1/GPa)
#
#
# Indices 1 2 3 4 5 6 
#
# 1 0.009042 -0.005533 -0.001031 0.000000 0.000000 0.000000
# 2 -0.005533 0.017835 -0.002869 0.000000 0.000000 0.000000
# 3 -0.001031 -0.002869 0.008313 0.000000 0.000000 0.000000
# 4 0.000000 0.000000 0.000000 0.050447 0.000000 0.000000
# 5 0.000000 0.000000 0.000000 0.000000 0.053066 0.000000
# 6 0.000000 0.000000 0.000000 0.000000 0.000000 -0.036634
#
#
# Mechanical properties :
#
#
# Convention : Reuss Voigt Hill
#
# Bulk Modulus (GPa) = 61.26114 66.49853 63.87983
# Shear Modulus (GPa) = 39.56382 18.24069 28.90226
#
# Velocity S-wave (km/s) = 4.37011 2.96732 3.73516
# Velocity P-wave (km/s) = 7.41857 6.62114 7.03117
#
# Compressibility (1/GPa) = 0.01632356
#
# Stress axis : x y z
#
# Youngs Moduli (GPa) = 110.59463 56.06845 120.29229
#
# Poissons Ratio (x) = 0.31022 0.12407
# Poissons Ratio (y) = 0.61190 0.34514
# Poissons Ratio (z) = 0.11407 0.16087
#
# Static dielectric constant tensor:
#      x y z
#    x 1.700190 0.000000 0.000000 
#    y 0.000000 1.874630 0.000000 
#    z 0.000000 0.000000 1.894020 
# 
# From -- ./inp_files/3649.got.cif
#   From: 2010.05.17/outbox.cif.g08.bks.cpg/sg60_2_cif.got.tgz:3649.got - 2010.06.03 14:59:27.
