data_PCOD9458754
_publ_section_title
;
Structure prediction by ZEFSAII (Michael W. Deem and Ramdas Pophale) SiO2 
 PCOD9458754
Probable space group: P B C N
;
_chemical_formula_sum "Si O2"
_cell_formula_units_Z 32
_cell_length_a 8.200661
_cell_length_b 11.352998
_cell_length_c 15.882242
_cell_angle_alpha 90.000000
_cell_angle_beta 90.000000
_cell_angle_gamma 90.000000
_cell_volume 1478.669891
_symmetry_space_group_name_H-M "P B C N"
_symmetry_group_IT_number 60
_symmetry_cell_setting 'orthorhombic'
loop_
_space_group_symop_operation_xyz
x,y,z
1/2-x,1/2-y,1/2+z
1/2+x,1/2-y,-z
-x,y,1/2-z
-x,-y,-z
1/2+x,1/2+y,1/2-z
1/2-x,1/2+y,z
x,-y,1/2+z
loop_
_atom_site_type_symbol
_atom_site_label
_atom_site_fract_x
_atom_site_fract_y
_atom_site_fract_z
Si Si1 0.428728 0.535618 0.090890
Si Si2 0.086611 0.736381 0.838740
Si Si3 0.920315 0.376944 0.979091
Si Si4 0.959559 0.794771 0.160990
O O1 0.542037 0.625937 0.143717
O O2 0.256559 0.596573 0.064494
O O3 0.434026 0.411809 0.142005
O O4 0.500000 0.500000 0.000000
O O5 0.268272 0.685480 0.830842
O O6 0.000000 0.705312 0.750000
O O7 0.051898 0.687455 0.931948
O O8 0.013781 0.297282 0.912618
O O9 0.000000 0.500000 0.000000
O O10 0.000000 0.738412 0.250000
#
# Coordination Sequence:
#
# PCOD9458754 Si02
#       4
#     8   8   8   8
#     4  12  24  48  77 104 147 193 250 304 365 439
#     4  12  26  47  73 108 148 191 244 305 367 441
#     4  12  27  46  77 105 148 196 247 298 372 438
#     4  12  28  47  76 109 148 195 247 306 372 434
#
# _framework density 21.641071
#
# number of rings (size 3 to 8) (size 9 to 14) (size 15 to 20)
#    0.000    0.000    5.000    3.750    7.000    1.000 
#    0.000    0.000    0.000    0.000    0.000    0.000 
#    0.000    0.000    0.000    0.000    0.000    0.000 
#
# Total GULP energy -178269.194788 kJ/mol
# GULP energy per Si atom -5570.912337 kJ/mol
# Density = 2.159182 g / cm^3
# Si number density = 21.641071 Si / 1000 Ang^3
#
#
#
# Elastic Constant Matrix: (Units=GPa)
#
#
# Indices 1 2 3 4 5 6 
#
# 1 48.2807 11.5142 35.8480 0.0000 0.0000 0.0000
# 2 11.5142 84.2818 29.6972 0.0000 0.0000 0.0000
# 3 35.8480 29.6972 200.2177 0.0000 0.0000 0.0000
# 4 0.0000 0.0000 0.0000 88.9078 0.0000 0.0000
# 5 0.0000 0.0000 0.0000 0.0000 44.2516 0.0000
# 6 0.0000 0.0000 0.0000 0.0000 0.0000 15.8765
#
#
#
# Elastic Compliance Matrix: (Units=1/GPa)
#
#
# Indices 1 2 3 4 5 6 
#
# 1 0.024165 -0.001875 -0.004049 0.000000 0.000000 0.000000
# 2 -0.001875 0.012665 -0.001543 0.000000 0.000000 0.000000
# 3 -0.004049 -0.001543 0.005948 0.000000 0.000000 0.000000
# 4 0.000000 0.000000 0.000000 0.011248 0.000000 0.000000
# 5 0.000000 0.000000 0.000000 0.000000 0.022598 0.000000
# 6 0.000000 0.000000 0.000000 0.000000 0.000000 0.062986
#
#
# Mechanical properties :
#
#
# Convention : Reuss Voigt Hill
#
# Bulk Modulus (GPa) = 35.91192 54.09990 45.00591
# Shear Modulus (GPa) = 30.52043 46.85523 38.68783
#
# Velocity S-wave (km/s) = 3.75947 4.65812 4.23271
# Velocity P-wave (km/s) = 5.95611 7.34736 6.68801
#
# Compressibility (1/GPa) = 0.02784591
#
# Stress axis : x y z
#
# Youngs Moduli (GPa) = 41.38147 78.95957 168.11563
#
# Poissons Ratio (x) = 0.14803 0.68064
# Poissons Ratio (y) = 0.07758 0.25937
# Poissons Ratio (z) = 0.16754 0.12182
#
# Static dielectric constant tensor:
#      x y z
#    x 1.890360 0.000000 0.000000 
#    y 0.000000 -0.455760 0.000000 
#    z 0.000000 0.000000 1.536440 
# 
# From -- ./inp_files/14326.got.cif
#   From: 2010.05.17/outbox.cif.g08.bks.cpg/sg60_8_cif.got.tgz:14326.got - 2010.06.03 14:59:27.
