data_PCOD9458566
_publ_section_title
;
Structure prediction by ZEFSAII (Michael W. Deem and Ramdas Pophale) SiO2 
 PCOD9458566
Probable space group: P B C N
;
_chemical_formula_sum "Si O2"
_cell_formula_units_Z 36
_cell_length_a 8.654324
_cell_length_b 23.204674
_cell_length_c 8.584012
_cell_angle_alpha 90.000000
_cell_angle_beta 90.000000
_cell_angle_gamma 90.000000
_cell_volume 1723.847875
_symmetry_space_group_name_H-M "P B C N"
_symmetry_group_IT_number 60
_symmetry_cell_setting 'orthorhombic'
loop_
_space_group_symop_operation_xyz
x,y,z
1/2-x,1/2-y,1/2+z
1/2+x,1/2-y,-z
-x,y,1/2-z
-x,-y,-z
1/2+x,1/2+y,1/2-z
1/2-x,1/2+y,z
x,-y,1/2+z
loop_
_atom_site_type_symbol
_atom_site_label
_atom_site_fract_x
_atom_site_fract_y
_atom_site_fract_z
Si Si1 0.171253 0.932426 0.684914
Si Si2 0.500000 0.891420 0.250000
Si Si3 0.921654 0.294920 0.497019
Si Si4 0.757523 0.301396 0.823102
Si Si5 0.663360 0.010118 0.584367
O O1 0.206930 0.866623 0.642996
O O2 0.206204 0.973054 0.538529
O O3 0.000000 0.937938 0.750000
O O4 0.289643 0.955012 0.816199
O O5 0.561071 0.851515 0.389903
O O6 0.365745 0.934154 0.307981
O O7 0.800049 0.298518 0.639974
O O8 0.869320 0.243337 0.384165
O O9 0.086479 0.287258 0.581059
O O10 0.500000 0.000000 0.500000
#
# Coordination Sequence:
#
# PCOD9458566 Si02
#       5
#     8   4   8   8   8
#     4  12  27  45  72 109 151 189 241 313 369 429
#     4  12  22  42  76 100 146 188 260 290 358 460
#     4  11  25  45  70 106 144 189 247 301 372 442
#     4  11  26  45  72 104 146 193 241 304 370 444
#     4  12  24  46  74 106 143 202 246 298 366 451
#
# _framework density 20.883513000000001
#
# number of rings (size 3 to 8) (size 9 to 14) (size 15 to 20)
#    0.000    0.444    4.444    3.333    7.778    0.000 
#    0.000    0.000    0.000    0.000    0.000    0.000 
#    0.000    0.000    0.000    0.000    0.000    0.000 
#
# Total GULP energy -201429.999050 kJ/mol
# GULP energy per Si atom -5595.277751 kJ/mol
# Density = 2.083598 g / cm^3
# Si number density = 20.883513 Si / 1000 Ang^3
#
#
#
# Elastic Constant Matrix: (Units=GPa)
#
#
# Indices 1 2 3 4 5 6 
#
# 1 84.3277 29.5030 37.4893 0.0000 0.0000 0.0000
# 2 29.5030 107.3516 26.9468 0.0000 0.0000 0.0000
# 3 37.4893 26.9468 94.7841 0.0000 0.0000 0.0000
# 4 0.0000 0.0000 0.0000 42.3251 0.0000 0.0000
# 5 0.0000 0.0000 0.0000 0.0000 50.9288 0.0000
# 6 0.0000 0.0000 0.0000 0.0000 0.0000 29.9995
#
#
#
# Elastic Compliance Matrix: (Units=1/GPa)
#
#
# Indices 1 2 3 4 5 6 
#
# 1 0.015166 -0.002867 -0.005183 0.000000 0.000000 0.000000
# 2 -0.002867 0.010573 -0.001872 0.000000 0.000000 0.000000
# 3 -0.005183 -0.001872 0.013133 0.000000 0.000000 0.000000
# 4 0.000000 0.000000 0.000000 0.023627 0.000000 0.000000
# 5 0.000000 0.000000 0.000000 0.000000 0.019635 0.000000
# 6 0.000000 0.000000 0.000000 0.000000 0.000000 0.033334
#
#
# Mechanical properties :
#
#
# Convention : Reuss Voigt Hill
#
# Bulk Modulus (GPa) = 52.55682 52.70463 52.63072
# Shear Modulus (GPa) = 35.29728 37.48565 36.39146
#
# Velocity S-wave (km/s) = 4.11566 4.24133 4.17897
# Velocity P-wave (km/s) = 6.91420 7.01978 6.96719
#
# Compressibility (1/GPa) = 0.01902703
#
# Stress axis : x y z
#
# Youngs Moduli (GPa) = 65.93755 94.58091 76.14619
#
# Poissons Ratio (x) = 0.27115 0.39470
# Poissons Ratio (y) = 0.18903 0.14254
# Poissons Ratio (z) = 0.34178 0.17705
#
# Static dielectric constant tensor:
#      x y z
#    x 1.726050 0.000000 0.000000 
#    y 0.000000 1.708810 0.000000 
#    z 0.000000 0.000000 1.793370 
# 
# From -- ./inp_files/3675.got.cif
#   From: 2010.05.17/outbox.cif.g08.bks.cpg/sg60_2_cif.got.tgz:3675.got - 2010.06.03 14:59:27.
