data_PCOD9458968
_publ_section_title
;
Structure prediction by ZEFSAII (Michael W. Deem and Ramdas Pophale) SiO2 
 PCOD9458968
Probable space group: P B C A
;
_chemical_formula_sum "Si O2"
_cell_formula_units_Z 64
_cell_length_a 22.415600
_cell_length_b 8.647735
_cell_length_c 13.572141
_cell_angle_alpha 90.000000
_cell_angle_beta 90.000000
_cell_angle_gamma 90.000000
_cell_volume 2630.880389
_symmetry_space_group_name_H-M "P B C A"
_symmetry_group_IT_number 61
_symmetry_cell_setting 'orthorhombic'
loop_
_space_group_symop_operation_xyz
x,y,z
1/2-x,-y,1/2+z
1/2+x,1/2-y,-z
-x,1/2+y,1/2-z
-x,-y,-z
1/2+x,y,1/2-z
1/2-x,1/2+y,z
x,1/2-y,1/2+z
loop_
_atom_site_type_symbol
_atom_site_label
_atom_site_fract_x
_atom_site_fract_y
_atom_site_fract_z
Si Si1 0.785032 0.377562 0.018688
Si Si2 0.542215 0.230430 0.006598
Si Si3 0.947130 0.917554 0.191852
Si Si4 0.828059 0.701139 0.994235
Si Si5 0.661986 0.226415 0.233638
Si Si6 0.459556 0.427071 0.358055
Si Si7 0.359177 0.201267 0.342133
Si Si8 0.243051 0.992676 0.768648
O O1 0.817981 0.521166 0.969462
O O2 0.729362 0.300569 0.965669
O O3 0.831051 0.245016 0.052082
O O4 0.758783 0.451348 0.119953
O O5 0.526090 0.353406 0.090314
O O6 0.607614 0.261897 0.961352
O O7 0.550306 0.069607 0.068174
O O8 0.492774 0.201596 0.924931
O O9 0.906331 0.781327 0.240870
O O10 0.996171 0.969841 0.269884
O O11 0.901455 0.053368 0.164488
O O12 0.831209 0.715753 0.114068
O O13 0.703096 0.367891 0.271246
O O14 0.694168 0.071024 0.271636
O O15 0.399324 0.350115 0.317764
O O16 0.302131 0.153663 0.276905
#
# Coordination Sequence:
#
# PCOD9458968 Si02
#       8
#     8   8   8   8   8   8   8   8
#     4  10  15  26  50  85 109 135 187 240 286 345
#     4  10  22  39  60  83 116 162 194 237 295 344
#     4  10  22  37  56  85 116 154 198 242 287 344
#     4   9  16  28  51  83 108 139 188 235 283 346
#     4   8  15  25  47  76 106 136 179 237 278 335
#     4  11  23  39  57  84 118 160 202 236 285 358
#     4  11  19  31  55  86 114 147 192 245 287 345
#     4   9  14  25  45  81 109 132 186 234 286 344
#
# _framework density 24.326456
#
# number of rings (size 3 to 8) (size 9 to 14) (size 15 to 20)
#    0.000    2.250    5.000    1.500    0.000    0.500 
#    0.000    0.000    0.000    3.000    0.000    0.000 
#    0.000    0.000    0.000    0.000    0.000    0.000 
#
# Total GULP energy -357366.870569 kJ/mol
# GULP energy per Si atom -5583.857353 kJ/mol
# Density = 2.427109 g / cm^3
# Si number density = 24.326456 Si / 1000 Ang^3
#
#
#
# Elastic Constant Matrix: (Units=GPa)
#
#
# Indices 1 2 3 4 5 6 
#
# 1 112.1190 39.5185 25.8994 0.0000 0.0000 0.0000
# 2 39.5185 52.2028 16.6834 0.0000 0.0000 0.0000
# 3 25.8994 16.6834 83.4066 0.0000 0.0000 0.0000
# 4 0.0000 0.0000 0.0000 10.0659 0.0000 0.0000
# 5 0.0000 0.0000 0.0000 0.0000 -10.4360 0.0000
# 6 0.0000 0.0000 0.0000 0.0000 0.0000 -17.0611
#
#
#
# Elastic Compliance Matrix: (Units=1/GPa)
#
#
# Indices 1 2 3 4 5 6 
#
# 1 0.012508 -0.008790 -0.002126 0.000000 0.000000 0.000000
# 2 -0.008790 0.026641 -0.002599 0.000000 0.000000 0.000000
# 3 -0.002126 -0.002599 0.013170 0.000000 0.000000 0.000000
# 4 0.000000 0.000000 0.000000 0.099345 0.000000 0.000000
# 5 0.000000 0.000000 0.000000 0.000000 -0.095822 0.000000
# 6 0.000000 0.000000 0.000000 0.000000 0.000000 -0.058613
#
#
# Mechanical properties :
#
#
# Convention : Reuss Voigt Hill
#
# Bulk Modulus (GPa) = 39.54353 45.77010 42.65681
# Shear Modulus (GPa) = 152.96091 7.55556 80.25824
#
# Velocity S-wave (km/s) = 7.93819 1.76427 5.75011
# Velocity P-wave (km/s) = 10.01552 4.79646 7.85228
#
# Compressibility (1/GPa) = 0.02528859
#
# Stress axis : x y z
#
# Youngs Moduli (GPa) = 79.94733 37.53657 75.93266
#
# Poissons Ratio (x) = 0.32993 0.16143
# Poissons Ratio (y) = 0.70270 0.19738
# Poissons Ratio (z) = 0.16996 0.09758
#
# Static dielectric constant tensor:
#      x y z
#    x 1.929890 0.000000 0.000000 
#    y 0.000000 1.977570 0.000000 
#    z 0.000000 0.000000 1.988860 
# 
# From -- ./inp_files/9785.got.cif
#   From: 2010.05.17/outbox.cif.g08.bks.cpg/sg61_5_cif.got.tgz:9785.got - 2010.06.03 15:17:17.
