data_PCOD9458089
_publ_section_title
;
Structure prediction by ZEFSAII (Michael W. Deem and Ramdas Pophale) SiO2 
 PCOD9458089
Probable space group: P B C N
;
_chemical_formula_sum "Si O2"
_cell_formula_units_Z 56
_cell_length_a 11.439935
_cell_length_b 23.101960
_cell_length_c 10.580391
_cell_angle_alpha 90.000000
_cell_angle_beta 90.000000
_cell_angle_gamma 90.000000
_cell_volume 2796.237797
_symmetry_space_group_name_H-M "P B C N"
_symmetry_group_IT_number 60
_symmetry_cell_setting 'orthorhombic'
loop_
_space_group_symop_operation_xyz
x,y,z
1/2-x,1/2-y,1/2+z
1/2+x,1/2-y,-z
-x,y,1/2-z
-x,-y,-z
1/2+x,1/2+y,1/2-z
1/2-x,1/2+y,z
x,-y,1/2+z
loop_
_atom_site_type_symbol
_atom_site_label
_atom_site_fract_x
_atom_site_fract_y
_atom_site_fract_z
Si Si1 0.873442 0.452983 0.300812
Si Si2 0.117245 0.768453 0.168103
Si Si3 0.192328 0.179014 0.110826
Si Si4 0.217470 0.341410 0.329212
Si Si5 0.318566 0.919509 0.693522
Si Si6 0.009790 0.733979 0.922913
Si Si7 0.947884 0.384349 0.550323
O O1 0.820002 0.406339 0.204037
O O2 0.802443 0.511897 0.313347
O O3 0.899977 0.420975 0.432529
O O4 0.000000 0.472239 0.250000
O O5 0.197111 0.711406 0.174525
O O6 0.197294 0.819481 0.219721
O O7 0.000000 0.763912 0.250000
O O8 0.084638 0.771936 0.021642
O O9 0.199968 0.115369 0.167643
O O10 0.083561 0.221010 0.130292
O O11 0.217336 0.170901 0.961366
O O12 0.099879 0.302535 0.337482
O O13 0.371556 0.899771 0.827692
O O14 0.418724 0.901435 0.589821
O O15 0.948326 0.682834 0.006193
#
# Coordination Sequence:
#
# PCOD9458089 Si02
#       7
#     8   8   8   8   8   8   8
#     4  12  22  37  61  93 134 167 224 284 324 383
#     4  11  21  38  62  93 127 169 209 269 330 397
#     4  11  23  38  63  92 132 170 209 262 334 404
#     4  11  24  38  62  96 129 169 219 270 335 393
#     4  11  23  36  60  90 131 173 216 263 333 392
#     4  11  22  40  64  94 136 165 212 269 331 407
#     4  11  21  36  58  90 125 171 203 269 336 388
#
# _framework density 20.026909
#
# number of rings (size 3 to 8) (size 9 to 14) (size 15 to 20)
#    0.000    0.857    7.143    2.143    2.000    0.000 
#    0.000    0.000    0.000    0.857    3.714    0.000 
#    0.000    0.143    0.000    0.000    0.000    0.000 
#
# Total GULP energy -312912.947521 kJ/mol
# GULP energy per Si atom -5587.731206 kJ/mol
# Density = 1.998133 g / cm^3
# Si number density = 20.026909 Si / 1000 Ang^3
#
#
#
# Elastic Constant Matrix: (Units=GPa)
#
#
# Indices 1 2 3 4 5 6 
#
# 1 73.0308 53.0364 18.1362 0.0000 0.0000 0.0000
# 2 53.0364 142.9942 33.3221 0.0000 0.0000 0.0000
# 3 18.1362 33.3221 57.3450 0.0000 0.0000 0.0000
# 4 0.0000 0.0000 0.0000 14.8776 0.0000 0.0000
# 5 0.0000 0.0000 0.0000 0.0000 19.5378 0.0000
# 6 0.0000 0.0000 0.0000 0.0000 0.0000 33.5245
#
#
#
# Elastic Compliance Matrix: (Units=1/GPa)
#
#
# Indices 1 2 3 4 5 6 
#
# 1 0.018980 -0.006524 -0.002212 0.000000 0.000000 0.000000
# 2 -0.006524 0.010331 -0.003940 0.000000 0.000000 0.000000
# 3 -0.002212 -0.003940 0.020427 0.000000 0.000000 0.000000
# 4 0.000000 0.000000 0.000000 0.067215 0.000000 0.000000
# 5 0.000000 0.000000 0.000000 0.000000 0.051183 0.000000
# 6 0.000000 0.000000 0.000000 0.000000 0.000000 0.029829
#
#
# Mechanical properties :
#
#
# Convention : Reuss Voigt Hill
#
# Bulk Modulus (GPa) = 41.00552 53.59550 47.30051
# Shear Modulus (GPa) = 21.60330 24.84633 23.22481
#
# Velocity S-wave (km/s) = 3.28794 3.52610 3.40910
# Velocity P-wave (km/s) = 5.91048 6.58769 6.25825
#
# Compressibility (1/GPa) = 0.02438696
#
# Stress axis : x y z
#
# Youngs Moduli (GPa) = 52.68652 96.79332 48.95441
#
# Poissons Ratio (x) = 0.63151 0.10827
# Poissons Ratio (y) = 0.34375 0.19288
# Poissons Ratio (z) = 0.11652 0.38136
#
# Static dielectric constant tensor:
#      x y z
#    x 1.713050 0.000000 0.000000 
#    y 0.000000 1.720970 0.000000 
#    z 0.000000 0.000000 1.789030 
# 
# From -- ./inp_files/11187.got.cif
#   From: 2010.05.17/outbox.cif.g08.bks.cpg/sg60_6_cif.got.tgz:11187.got - 2010.06.03 14:59:27.
