data_PCOD9458853
_publ_section_title
;
Structure prediction by ZEFSAII (Michael W. Deem and Ramdas Pophale) SiO2 
 PCOD9458853
Probable space group: P B C N
;
_chemical_formula_sum "Si O2"
_cell_formula_units_Z 52
_cell_length_a 7.808513
_cell_length_b 14.602986
_cell_length_c 19.465145
_cell_angle_alpha 90.000000
_cell_angle_beta 90.000000
_cell_angle_gamma 90.000000
_cell_volume 2219.563885
_symmetry_space_group_name_H-M "P B C N"
_symmetry_group_IT_number 60
_symmetry_cell_setting 'orthorhombic'
loop_
_space_group_symop_operation_xyz
x,y,z
1/2-x,1/2-y,1/2+z
1/2+x,1/2-y,-z
-x,y,1/2-z
-x,-y,-z
1/2+x,1/2+y,1/2-z
1/2-x,1/2+y,z
x,-y,1/2+z
loop_
_atom_site_type_symbol
_atom_site_label
_atom_site_fract_x
_atom_site_fract_y
_atom_site_fract_z
Si Si1 0.497611 0.660880 0.602891
Si Si2 0.500000 0.283735 0.250000
Si Si3 0.508442 0.115633 0.611844
Si Si4 0.695209 0.490120 0.445513
Si Si5 0.300401 0.268736 0.839232
Si Si6 0.381535 0.837399 0.543489
Si Si7 0.801190 0.558428 0.099643
O O1 0.453443 0.658847 0.683050
O O2 0.480678 0.560627 0.571866
O O3 0.680566 0.712650 0.604658
O O4 0.373963 0.731020 0.562051
O O5 0.328674 0.230470 0.274260
O O6 0.330633 0.060376 0.605618
O O7 0.533981 0.203693 0.660346
O O8 0.547358 0.146476 0.533056
O O9 0.648061 0.037993 0.633038
O O10 0.715391 0.599453 0.444422
O O11 0.755040 0.460129 0.520952
O O12 0.326888 0.372120 0.863390
O O13 0.521484 0.883209 0.594370
#
# Coordination Sequence:
#
# PCOD9458853 Si02
#       7
#     8   4   8   8   8   8   8
#     4   9  17  32  48  62  93 131 158 181 227 278
#     4   8  20  32  50  56  92 130 174 178 212 276
#     4   9  16  28  49  77  97 112 147 202 239 268
#     4   9  16  28  49  77  97 112 147 202 239 268
#     4   9  17  32  48  62  93 131 158 181 227 278
#     4   8  15  28  48  73  99 120 146 185 239 292
#     4   8  15  28  48  73  99 120 146 185 239 292
#
# _framework density 23.428027
#
# number of rings (size 3 to 8) (size 9 to 14) (size 15 to 20)
#    0.923    2.462    0.000    2.769    0.000    0.000 
#    0.000    6.923    0.000    0.000    0.000    0.000 
#    0.000    0.000    0.000    0.000    0.000    0.000 
#
# Total GULP energy -289591.474945 kJ/mol
# GULP energy per Si atom -5569.066826 kJ/mol
# Density = 2.337470 g / cm^3
# Si number density = 23.428027 Si / 1000 Ang^3
#
#
#
# Elastic Constant Matrix: (Units=GPa)
#
#
# Indices 1 2 3 4 5 6 
#
# 1 55.4076 15.1611 10.6566 0.0000 0.0000 0.0000
# 2 15.1611 94.5290 7.5783 0.0000 0.0000 0.0000
# 3 10.6566 7.5783 28.7776 0.0000 0.0000 0.0000
# 4 0.0000 0.0000 0.0000 4.4255 0.0000 0.0000
# 5 0.0000 0.0000 0.0000 0.0000 22.0018 0.0000
# 6 0.0000 0.0000 0.0000 0.0000 0.0000 26.6966
#
#
#
# Elastic Compliance Matrix: (Units=1/GPa)
#
#
# Indices 1 2 3 4 5 6 
#
# 1 0.020076 -0.002680 -0.006728 0.000000 0.000000 0.000000
# 2 -0.002680 0.011165 -0.001948 0.000000 0.000000 0.000000
# 3 -0.006728 -0.001948 0.037754 0.000000 0.000000 0.000000
# 4 0.000000 0.000000 0.000000 0.225965 0.000000 0.000000
# 5 0.000000 0.000000 0.000000 0.000000 0.045451 0.000000
# 6 0.000000 0.000000 0.000000 0.000000 0.000000 0.037458
#
#
# Mechanical properties :
#
#
# Convention : Reuss Voigt Hill
#
# Bulk Modulus (GPa) = 21.60693 27.27845 24.44269
# Shear Modulus (GPa) = 12.01902 20.31266 16.16584
#
# Velocity S-wave (km/s) = 2.26745 2.94772 2.62968
# Velocity P-wave (km/s) = 4.01221 4.82226 4.43576
#
# Compressibility (1/GPa) = 0.04628146
#
# Stress axis : x y z
#
# Youngs Moduli (GPa) = 49.81178 89.56725 26.48754
#
# Poissons Ratio (x) = 0.24008 0.17822
# Poissons Ratio (y) = 0.13352 0.05159
# Poissons Ratio (z) = 0.33515 0.17444
#
# Static dielectric constant tensor:
#      x y z
#    x 2.106560 0.000000 0.000000 
#    y 0.000000 1.914130 0.000000 
#    z 0.000000 0.000000 1.847120 
# 
# From -- ./inp_files/24332.got.cif
#   From: 2010.05.17/outbox.cif.g08.bks.cpg/sg60_13_cif.got.tgz:24332.got - 2010.06.03 14:59:27.
