data_PCOD9458700
_publ_section_title
;
Structure prediction by ZEFSAII (Michael W. Deem and Ramdas Pophale) SiO2 
 PCOD9458700
Probable space group: P B C N
;
_chemical_formula_sum "Si O2"
_cell_formula_units_Z 28
_cell_length_a 7.339307
_cell_length_b 20.787335
_cell_length_c 8.247813
_cell_angle_alpha 90.000000
_cell_angle_beta 90.000000
_cell_angle_gamma 90.000000
_cell_volume 1258.324566
_symmetry_space_group_name_H-M "P B C N"
_symmetry_group_IT_number 60
_symmetry_cell_setting 'orthorhombic'
loop_
_space_group_symop_operation_xyz
x,y,z
1/2-x,1/2-y,1/2+z
1/2+x,1/2-y,-z
-x,y,1/2-z
-x,-y,-z
1/2+x,1/2+y,1/2-z
1/2-x,1/2+y,z
x,-y,1/2+z
loop_
_atom_site_type_symbol
_atom_site_label
_atom_site_fract_x
_atom_site_fract_y
_atom_site_fract_z
Si Si1 0.437675 0.070155 0.560971
Si Si2 0.000000 0.652139 0.250000
Si Si3 0.667240 0.271537 0.848446
Si Si4 0.408915 0.349911 0.075551
O O1 0.500000 0.079254 0.750000
O O2 0.521217 0.114699 0.419072
O O3 0.221995 0.088565 0.546321
O O4 0.500000 0.000000 0.500000
O O5 0.819165 0.694147 0.241181
O O6 0.500000 0.242092 0.750000
O O7 0.776386 0.212025 0.920116
O O8 0.570419 0.326632 0.956550
O O9 0.500000 0.358359 0.250000
#
# Coordination Sequence:
#
# PCOD9458700 Si02
#       4
#     8   4   8   8
#     4  12  26  49  77 106 155 215 270 325 379 467
#     4  12  24  50  78 110 156 202 260 334 404 470
#     4  12  23  44  74 114 158 195 248 337 415 474
#     4  12  24  44  74 117 154 200 262 325 408 484
#
# _framework density 22.251809999999999
#
# number of rings (size 3 to 8) (size 9 to 14) (size 15 to 20)
#    0.000    0.000    5.714    6.000    0.000    0.000 
#    0.000    7.143    0.000    0.000    0.000    0.000 
#    0.000    0.000    0.000    0.000    0.000    0.000 
#
# Total GULP energy -156257.429605 kJ/mol
# GULP energy per Si atom -5580.622486 kJ/mol
# Density = 2.220116 g / cm^3
# Si number density = 22.251810 Si / 1000 Ang^3
#
#
#
# Elastic Constant Matrix: (Units=GPa)
#
#
# Indices 1 2 3 4 5 6 
#
# 1 163.1492 62.9029 47.3536 0.0000 0.0000 0.0000
# 2 62.9029 116.6628 46.0482 0.0000 0.0000 0.0000
# 3 47.3536 46.0482 135.4528 0.0000 0.0000 0.0000
# 4 0.0000 0.0000 0.0000 108.5900 0.0000 0.0000
# 5 0.0000 0.0000 0.0000 0.0000 51.3706 0.0000
# 6 0.0000 0.0000 0.0000 0.0000 0.0000 47.7844
#
#
#
# Elastic Compliance Matrix: (Units=1/GPa)
#
#
# Indices 1 2 3 4 5 6 
#
# 1 0.008006 -0.003710 -0.001538 0.000000 0.000000 0.000000
# 2 -0.003710 0.011619 -0.002653 0.000000 0.000000 0.000000
# 3 -0.001538 -0.002653 0.008822 0.000000 0.000000 0.000000
# 4 0.000000 0.000000 0.000000 0.009209 0.000000 0.000000
# 5 0.000000 0.000000 0.000000 0.000000 0.019466 0.000000
# 6 0.000000 0.000000 0.000000 0.000000 0.000000 0.020927
#
#
# Mechanical properties :
#
#
# Convention : Reuss Voigt Hill
#
# Bulk Modulus (GPa) = 79.07523 80.87494 79.97509
# Shear Modulus (GPa) = 50.98581 58.81302 54.89941
#
# Velocity S-wave (km/s) = 4.79196 5.14665 4.97247
# Velocity P-wave (km/s) = 8.13823 8.47004 8.30579
#
# Compressibility (1/GPa) = 0.01264618
#
# Stress axis : x y z
#
# Youngs Moduli (GPa) = 124.90656 86.06463 113.35098
#
# Poissons Ratio (x) = 0.31928 0.17430
# Poissons Ratio (y) = 0.46337 0.30073
# Poissons Ratio (z) = 0.19207 0.22834
#
# Static dielectric constant tensor:
#      x y z
#    x 1.776790 0.000000 0.000000 
#    y 0.000000 1.849360 0.000000 
#    z 0.000000 0.000000 1.988720 
# 
# From -- ./inp_files/3479.got.cif
#   From: 2010.05.17/outbox.cif.g08.bks.cpg/sg60_2_cif.got.tgz:3479.got - 2010.06.03 14:59:27.
