data_PCOD9458504
_publ_section_title
;
Structure prediction by ZEFSAII (Michael W. Deem and Ramdas Pophale) SiO2 
 PCOD9458504
Probable space group: P B C N
;
_chemical_formula_sum "Si O2"
_cell_formula_units_Z 28
_cell_length_a 7.676771
_cell_length_b 17.508403
_cell_length_c 8.661356
_cell_angle_alpha 90.000000
_cell_angle_beta 90.000000
_cell_angle_gamma 90.000000
_cell_volume 1164.155541
_symmetry_space_group_name_H-M "P B C N"
_symmetry_group_IT_number 60
_symmetry_cell_setting 'orthorhombic'
loop_
_space_group_symop_operation_xyz
x,y,z
1/2-x,1/2-y,1/2+z
1/2+x,1/2-y,-z
-x,y,1/2-z
-x,-y,-z
1/2+x,1/2+y,1/2-z
1/2-x,1/2+y,z
x,-y,1/2+z
loop_
_atom_site_type_symbol
_atom_site_label
_atom_site_fract_x
_atom_site_fract_y
_atom_site_fract_z
Si Si1 0.019921 0.082298 0.927771
Si Si2 0.079911 0.373636 0.417638
Si Si3 0.640904 0.697883 0.133477
Si Si4 0.000000 0.351871 0.750000
O O1 0.216819 0.110846 0.942371
O O2 0.000000 0.071898 0.750000
O O3 0.875948 0.142275 0.988217
O O4 0.000000 0.000000 0.000000
O O5 0.070534 0.281089 0.410879
O O6 0.005453 0.397769 0.586872
O O7 0.000000 0.400025 0.250000
O O8 0.500000 0.662419 0.250000
O O9 0.825510 0.697884 0.220339
#
# Coordination Sequence:
#
# PCOD9458504 Si02
#       4
#     8   8   8   4
#     4  12  27  49  75 106 157 202 249 313 390 452
#     4  11  26  46  77 116 147 200 255 319 378 454
#     4  11  24  45  74 113 150 192 252 312 379 444
#     4  12  24  42  76 104 156 186 258 306 374 440
#
# _framework density 24.051769
#
# number of rings (size 3 to 8) (size 9 to 14) (size 15 to 20)
#    0.000    0.571    2.857    4.286   12.000    0.000 
#    2.571    2.857    0.000    0.000    0.000    0.000 
#    0.000    0.000    0.000    0.000    0.000    0.000 
#
# Total GULP energy -156410.711209 kJ/mol
# GULP energy per Si atom -5586.096829 kJ/mol
# Density = 2.399703 g / cm^3
# Si number density = 24.051769 Si / 1000 Ang^3
#
#
#
# Elastic Constant Matrix: (Units=GPa)
#
#
# Indices 1 2 3 4 5 6 
#
# 1 105.6051 -6.7380 41.0191 0.0000 0.0000 0.0000
# 2 -6.7380 64.3277 30.5582 0.0000 0.0000 0.0000
# 3 41.0191 30.5582 211.2974 0.0000 0.0000 0.0000
# 4 0.0000 0.0000 0.0000 32.0716 0.0000 0.0000
# 5 0.0000 0.0000 0.0000 0.0000 38.5710 0.0000
# 6 0.0000 0.0000 0.0000 0.0000 0.0000 -40.0339
#
#
#
# Elastic Compliance Matrix: (Units=1/GPa)
#
#
# Indices 1 2 3 4 5 6 
#
# 1 0.010530 0.002227 -0.002366 0.000000 0.000000 0.000000
# 2 0.002227 0.017163 -0.002915 0.000000 0.000000 0.000000
# 3 -0.002366 -0.002915 0.005614 0.000000 0.000000 0.000000
# 4 0.000000 0.000000 0.000000 0.031180 0.000000 0.000000
# 5 0.000000 0.000000 0.000000 0.000000 0.025926 0.000000
# 6 0.000000 0.000000 0.000000 0.000000 0.000000 -0.024979
#
#
# Mechanical properties :
#
#
# Convention : Reuss Voigt Hill
#
# Bulk Modulus (GPa) = 36.76513 56.76765 46.76639
# Shear Modulus (GPa) = 62.02790 27.21448 44.62119
#
# Velocity S-wave (km/s) = 5.08383 3.36742 4.31189
# Velocity P-wave (km/s) = 7.05545 6.22679 6.65403
#
# Compressibility (1/GPa) = 0.02719969
#
# Stress axis : x y z
#
# Youngs Moduli (GPa) = 94.96246 58.26423 178.14031
#
# Poissons Ratio (x) = -0.12976 0.42155
# Poissons Ratio (y) = -0.21149 0.51919
# Poissons Ratio (z) = 0.22472 0.16981
#
# Static dielectric constant tensor:
#      x y z
#    x 1.849600 0.000000 0.000000 
#    y 0.000000 1.862190 0.000000 
#    z 0.000000 0.000000 2.111820 
# 
# From -- ./inp_files/3439.got.cif
#   From: 2010.05.17/outbox.cif.g08.bks.cpg/sg60_2_cif.got.tgz:3439.got - 2010.06.03 14:59:27.
