data_PCOD9458887
_publ_section_title
;
Structure prediction by ZEFSAII (Michael W. Deem and Ramdas Pophale) SiO2 
 PCOD9458887
Probable space group: P B C N
;
_chemical_formula_sum "Si O2"
_cell_formula_units_Z 48
_cell_length_a 12.000000
_cell_length_b 18.000000
_cell_length_c 12.000000
_cell_angle_alpha 90.000000
_cell_angle_beta 90.000000
_cell_angle_gamma 90.000000
_cell_volume 2592.000000
_symmetry_space_group_name_H-M "P B C N"
_symmetry_group_IT_number 60
_symmetry_cell_setting 'orthorhombic'
loop_
_space_group_symop_operation_xyz
x,y,z
1/2-x,1/2-y,1/2+z
1/2+x,1/2-y,-z
-x,y,1/2-z
-x,-y,-z
1/2+x,1/2+y,1/2-z
1/2-x,1/2+y,z
x,-y,1/2+z
loop_
_atom_site_type_symbol
_atom_site_label
_atom_site_fract_x
_atom_site_fract_y
_atom_site_fract_z
Si Si1 0.341008 0.636031 0.505743
Si Si2 0.545482 0.401252 0.861689
Si Si3 0.713548 0.639064 0.557090
Si Si4 0.626165 0.559451 0.768100
Si Si5 0.345402 0.198800 0.348597
Si Si6 0.601579 0.802062 0.910293
O O1 0.436886 0.589803 0.440902
O O2 0.317015 0.597512 0.624566
O O3 0.240346 0.648396 0.419086
O O4 0.384141 0.718278 0.541445
O O5 0.500000 0.358965 0.750000
O O6 0.601955 0.474929 0.808161
O O7 0.632593 0.367342 0.949364
O O8 0.689479 0.576253 0.651565
O O9 0.685622 0.716277 0.619832
O O10 0.835230 0.645985 0.500160
O O11 0.500000 0.591656 0.750000
O O12 0.343814 0.191316 0.213915
O O13 0.471001 0.183794 0.390804
#
# Coordination Sequence:
#
# PCOD9458887 Si02
#       6
#     8   8   8   8   8   8
#     4  11  20  35  56  87 119 152 204 246 302 367
#     4  11  23  34  56  90 118 154 204 250 296 358
#     4  11  21  37  57  89 122 158 203 245 302 369
#     4  11  21  36  59  83 123 164 192 249 313 347
#     4  10  20  37  61  85 120 160 192 250 306 371
#     4  10  20  37  59  84 120 163 194 243 311 369
#
# _framework density 18.518519000000001
#
# number of rings (size 3 to 8) (size 9 to 14) (size 15 to 20)
#    0.000    1.333    5.000    1.500    2.333    0.000 
#    0.000    0.833    0.000    1.000    8.667    0.000 
#    0.000    0.000    0.000    0.000    0.000    0.000 
#
# Total GULP energy -267688.287508 kJ/mol
# GULP energy per Si atom -5576.839323 kJ/mol
# Density = 1.847637 g / cm^3
# Si number density = 18.518519 Si / 1000 Ang^3
#
#
#
# Elastic Constant Matrix: (Units=GPa)
#
#
# Indices 1 2 3 4 5 6 
#
# 1 86.7818 17.2860 39.9775 0.0000 0.0000 0.0000
# 2 17.2860 36.9638 20.4177 0.0000 0.0000 0.0000
# 3 39.9775 20.4177 138.7642 0.0000 0.0000 0.0000
# 4 0.0000 0.0000 0.0000 36.1331 0.0000 0.0000
# 5 0.0000 0.0000 0.0000 0.0000 47.0611 0.0000
# 6 0.0000 0.0000 0.0000 0.0000 0.0000 21.6949
#
#
#
# Elastic Compliance Matrix: (Units=1/GPa)
#
#
# Indices 1 2 3 4 5 6 
#
# 1 0.013999 -0.004701 -0.003341 0.000000 0.000000 0.000000
# 2 -0.004701 0.031025 -0.003211 0.000000 0.000000 0.000000
# 3 -0.003341 -0.003211 0.008642 0.000000 0.000000 0.000000
# 4 0.000000 0.000000 0.000000 0.027675 0.000000 0.000000
# 5 0.000000 0.000000 0.000000 0.000000 0.021249 0.000000
# 6 0.000000 0.000000 0.000000 0.000000 0.000000 0.046094
#
#
# Mechanical properties :
#
#
# Convention : Reuss Voigt Hill
#
# Bulk Modulus (GPa) = 32.09264 46.43024 39.26144
# Shear Modulus (GPa) = 27.53665 33.29974 30.41819
#
# Velocity S-wave (km/s) = 3.86032 4.24510 4.05728
# Velocity P-wave (km/s) = 6.10222 7.01104 6.57235
#
# Compressibility (1/GPa) = 0.03115979
#
# Stress axis : x y z
#
# Youngs Moduli (GPa) = 71.43499 32.23175 115.72045
#
# Poissons Ratio (x) = 0.15152 0.38666
# Poissons Ratio (y) = 0.33580 0.37155
# Poissons Ratio (z) = 0.23869 0.10349
#
# Static dielectric constant tensor:
#      x y z
#    x 1.660930 0.000000 0.000000 
#    y 0.000000 1.680100 0.000000 
#    z 0.000000 0.000000 1.644550 
# 
# From -- ./inp_files/11002.got.cif
#   From: 2010.05.17/outbox.ucp.g08.bks.cvg/sg60_6_cif.got.tgz:11002.got - 2010.06.11 16:26:41.
