data_PCOD9458185
_publ_section_title
;
Structure prediction by ZEFSAII (Michael W. Deem and Ramdas Pophale) SiO2 
 PCOD9458185
Probable space group: P B C N
;
_chemical_formula_sum "Si O2"
_cell_formula_units_Z 48
_cell_length_a 7.718898
_cell_length_b 16.240831
_cell_length_c 14.766156
_cell_angle_alpha 90.000000
_cell_angle_beta 90.000000
_cell_angle_gamma 90.000000
_cell_volume 1851.104777
_symmetry_space_group_name_H-M "P B C N"
_symmetry_group_IT_number 60
_symmetry_cell_setting 'orthorhombic'
loop_
_space_group_symop_operation_xyz
x,y,z
1/2-x,1/2-y,1/2+z
1/2+x,1/2-y,-z
-x,y,1/2-z
-x,-y,-z
1/2+x,1/2+y,1/2-z
1/2-x,1/2+y,z
x,-y,1/2+z
loop_
_atom_site_type_symbol
_atom_site_label
_atom_site_fract_x
_atom_site_fract_y
_atom_site_fract_z
Si Si1 0.920771 0.733759 0.546714
Si Si2 0.393975 0.047966 0.920616
Si Si3 0.861381 0.908921 0.546731
Si Si4 0.700239 0.750384 0.857113
Si Si5 0.245690 0.418652 0.163921
Si Si6 0.855910 0.092448 0.317648
O O1 0.843242 0.642263 0.556536
O O2 0.815114 0.815309 0.576425
O O3 0.935025 0.748186 0.438874
O O4 0.107352 0.738339 0.595918
O O5 0.541430 0.064567 0.846517
O O6 0.241011 0.983282 0.906087
O O7 0.500000 0.000000 0.000000
O O8 0.822034 0.914493 0.439712
O O9 0.058609 0.914648 0.581978
O O10 0.698005 0.669097 0.795353
O O11 0.704373 0.841109 0.816203
O O12 0.313869 0.500276 0.209252
O O13 0.000000 0.125767 0.250000
#
# Coordination Sequence:
#
# PCOD9458185 Si02
#       6
#     8   8   8   8   8   8
#     4   9  17  29  51  82 103 127 169 217 269 308
#     4   9  16  29  51  78 102 128 168 220 264 306
#     4   9  18  33  54  80 105 134 177 224 264 309
#     4   9  18  33  54  78 106 136 172 222 269 315
#     4   9  18  34  57  79 101 137 182 222 261 308
#     4  11  22  36  52  77 112 146 175 213 271 328
#
# _framework density 25.93046
#
# number of rings (size 3 to 8) (size 9 to 14) (size 15 to 20)
#    0.000    2.667    0.000    3.500    0.000    2.667 
#    0.000    5.833    0.000    0.000    0.000    0.000 
#    0.000    0.000    0.000    0.000    0.000    0.000 
#
# Total GULP energy -267751.418774 kJ/mol
# GULP energy per Si atom -5578.154558 kJ/mol
# Density = 2.587144 g / cm^3
# Si number density = 25.930460 Si / 1000 Ang^3
#
#
#
# Elastic Constant Matrix: (Units=GPa)
#
#
# Indices 1 2 3 4 5 6 
#
# 1 35.7644 38.0438 0.0027 0.0000 0.0000 0.0000
# 2 38.0438 258.8985 12.7171 0.0000 0.0000 0.0000
# 3 0.0027 12.7171 69.7614 0.0000 0.0000 0.0000
# 4 0.0000 0.0000 0.0000 -12.7114 0.0000 0.0000
# 5 0.0000 0.0000 0.0000 0.0000 18.4277 0.0000
# 6 0.0000 0.0000 0.0000 0.0000 0.0000 41.1859
#
#
#
# Elastic Compliance Matrix: (Units=1/GPa)
#
#
# Indices 1 2 3 4 5 6 
#
# 1 0.033197 -0.004922 0.000896 0.000000 0.000000 0.000000
# 2 -0.004922 0.004627 -0.000843 0.000000 0.000000 0.000000
# 3 0.000896 -0.000843 0.014488 0.000000 0.000000 0.000000
# 4 0.000000 0.000000 0.000000 -0.078670 0.000000 0.000000
# 5 0.000000 0.000000 0.000000 0.000000 0.054266 0.000000
# 6 0.000000 0.000000 0.000000 0.000000 0.000000 0.024280
#
#
# Mechanical properties :
#
#
# Convention : Reuss Voigt Hill
#
# Bulk Modulus (GPa) = 23.48895 51.77238 37.63067
# Shear Modulus (GPa) = 65.68716 30.29116 47.98916
#
# Velocity S-wave (km/s) = 5.03856 3.42156 4.30663
# Velocity P-wave (km/s) = 6.55191 5.96813 6.26682
#
# Compressibility (1/GPa) = 0.04257321
#
# Stress axis : x y z
#
# Youngs Moduli (GPa) = 30.12364 216.11273 69.02136
#
# Poissons Ratio (x) = 1.06372 -0.06184
# Poissons Ratio (y) = 0.14827 0.05821
# Poissons Ratio (z) = -0.02699 0.18225
#
# Static dielectric constant tensor:
#      x y z
#    x 2.764910 0.000000 0.000000 
#    y 0.000000 2.139170 0.000000 
#    z 0.000000 0.000000 1.973540 
# 
# From -- ./inp_files/22078.got.cif
#   From: 2010.05.17/outbox.cif.g08.bks.cpg/sg60_12_cif.got.tgz:22078.got - 2010.06.03 14:59:27.
