data_PCOD9458100
_publ_section_title
;
Structure prediction by ZEFSAII (Michael W. Deem and Ramdas Pophale) SiO2 
 PCOD9458100
Probable space group: P B C N
;
_chemical_formula_sum "Si O2"
_cell_formula_units_Z 64
_cell_length_a 19.376517
_cell_length_b 18.839100
_cell_length_c 9.983444
_cell_angle_alpha 90.000000
_cell_angle_beta 90.000000
_cell_angle_gamma 90.000000
_cell_volume 3644.317876
_symmetry_space_group_name_H-M "P B C N"
_symmetry_group_IT_number 60
_symmetry_cell_setting 'orthorhombic'
loop_
_space_group_symop_operation_xyz
x,y,z
1/2-x,1/2-y,1/2+z
1/2+x,1/2-y,-z
-x,y,1/2-z
-x,-y,-z
1/2+x,1/2+y,1/2-z
1/2-x,1/2+y,z
x,-y,1/2+z
loop_
_atom_site_type_symbol
_atom_site_label
_atom_site_fract_x
_atom_site_fract_y
_atom_site_fract_z
Si Si1 0.921091 0.859779 0.210514
Si Si2 0.655695 0.501599 0.244204
Si Si3 0.422643 0.649987 0.291230
Si Si4 0.642886 0.711611 0.962735
Si Si5 0.356859 0.287283 0.542492
Si Si6 0.792779 0.647070 0.392127
Si Si7 0.246521 0.498965 0.504281
Si Si8 0.210983 0.651434 0.430840
O O1 0.902339 0.942511 0.222697
O O2 0.871657 0.820004 0.316693
O O3 0.901437 0.830903 0.064801
O O4 0.000000 0.846873 0.250000
O O5 0.624052 0.579322 0.220578
O O6 0.716623 0.487422 0.138150
O O7 0.690727 0.495588 0.389232
O O8 0.500000 0.631769 0.250000
O O9 0.415911 0.683539 0.437920
O O10 0.392949 0.706744 0.185676
O O11 0.713621 0.680415 0.025018
O O12 0.652906 0.795782 0.947830
O O13 0.282316 0.324810 0.560005
O O14 0.342672 0.208357 0.489131
O O15 0.798406 0.567877 0.448948
O O16 0.793501 0.647827 0.230364
O O17 0.206218 0.572930 0.492420
#
# Coordination Sequence:
#
# PCOD9458100 Si02
#       8
#     8   8   8   8   8   8   8   8
#     4  12  23  36  55  82 116 160 202 231 275 340
#     4  12  21  36  50  88 120 158 195 224 268 348
#     4  12  23  40  57  80 124 164 196 229 273 336
#     4  11  22  37  57  83 110 156 198 240 285 335
#     4  11  22  37  57  83 110 156 198 240 285 335
#     4  11  21  37  59  83 118 146 189 249 297 335
#     4  12  20  34  59  82 119 152 184 230 298 348
#     4  11  21  37  59  83 118 146 189 249 297 335
#
# _framework density 17.561585999999998
#
# number of rings (size 3 to 8) (size 9 to 14) (size 15 to 20)
#    0.000    0.500    8.750    1.125    0.000    1.000 
#    0.000    3.750    0.000    0.000    0.000    5.250 
#    0.000    0.000    0.000    0.000    0.000    0.000 
#
# Total GULP energy -357539.453117 kJ/mol
# GULP energy per Si atom -5586.553955 kJ/mol
# Density = 1.752162 g / cm^3
# Si number density = 17.561586 Si / 1000 Ang^3
#
#
#
# Elastic Constant Matrix: (Units=GPa)
#
#
# Indices 1 2 3 4 5 6 
#
# 1 21.4485 16.9714 -5.7625 0.0000 0.0000 0.0000
# 2 16.9714 137.1862 21.0286 0.0000 0.0000 0.0000
# 3 -5.7625 21.0286 55.2328 0.0000 0.0000 0.0000
# 4 0.0000 0.0000 0.0000 26.5782 0.0000 0.0000
# 5 0.0000 0.0000 0.0000 0.0000 19.9829 0.0000
# 6 0.0000 0.0000 0.0000 0.0000 0.0000 12.2162
#
#
#
# Elastic Compliance Matrix: (Units=1/GPa)
#
#
# Indices 1 2 3 4 5 6 
#
# 1 0.055544 -0.008241 0.008932 0.000000 0.000000 0.000000
# 2 -0.008241 0.008964 -0.004272 0.000000 0.000000 0.000000
# 3 0.008932 -0.004272 0.020664 0.000000 0.000000 0.000000
# 4 0.000000 0.000000 0.000000 0.037625 0.000000 0.000000
# 5 0.000000 0.000000 0.000000 0.000000 0.050043 0.000000
# 6 0.000000 0.000000 0.000000 0.000000 0.000000 0.081858
#
#
# Mechanical properties :
#
#
# Convention : Reuss Voigt Hill
#
# Bulk Modulus (GPa) = 12.81893 30.92696 21.87294
# Shear Modulus (GPa) = 17.36946 23.86412 20.61679
#
# Velocity S-wave (km/s) = 3.14834 3.69030 3.43004
# Velocity P-wave (km/s) = 4.53115 5.98386 5.30744
#
# Compressibility (1/GPa) = 0.07800961
#
# Stress axis : x y z
#
# Youngs Moduli (GPa) = 18.00388 111.56086 48.39392
#
# Poissons Ratio (x) = 0.91932 -0.43227
# Poissons Ratio (y) = 0.14836 0.20676
# Poissons Ratio (z) = -0.16082 0.47664
#
# Static dielectric constant tensor:
#      x y z
#    x 1.578810 0.000000 0.000000 
#    y 0.000000 1.611450 0.000000 
#    z 0.000000 0.000000 1.591470 
# 
# From -- ./inp_files/7558.got.cif
#   From: 2010.05.17/outbox.cif.g08.bks.cpg/sg60_4_cif.got.tgz:7558.got - 2010.06.03 14:59:27.
