data_PCOD9458895
_publ_section_title
;
Structure prediction by ZEFSAII (Michael W. Deem and Ramdas Pophale) SiO2 
 PCOD9458895
Probable space group: P B C N
;
_chemical_formula_sum "Si O2"
_cell_formula_units_Z 44
_cell_length_a 30.000000
_cell_length_b 9.000000
_cell_length_c 9.000000
_cell_angle_alpha 90.000000
_cell_angle_beta 90.000000
_cell_angle_gamma 90.000000
_cell_volume 2430.000000
_symmetry_space_group_name_H-M "P B C N"
_symmetry_group_IT_number 60
_symmetry_cell_setting 'orthorhombic'
loop_
_space_group_symop_operation_xyz
x,y,z
1/2-x,1/2-y,1/2+z
1/2+x,1/2-y,-z
-x,y,1/2-z
-x,-y,-z
1/2+x,1/2+y,1/2-z
1/2-x,1/2+y,z
x,-y,1/2+z
loop_
_atom_site_type_symbol
_atom_site_label
_atom_site_fract_x
_atom_site_fract_y
_atom_site_fract_z
Si Si1 0.321259 0.412348 0.183745
Si Si2 0.000000 0.486471 0.750000
Si Si3 0.071744 0.420705 0.001311
Si Si4 0.287365 0.915114 0.185722
Si Si5 0.340576 0.137095 0.995734
Si Si6 0.846471 0.803813 0.988011
O O1 0.266523 0.418105 0.189449
O O2 0.340335 0.304884 0.053980
O O3 0.341606 0.569636 0.135739
O O4 0.337754 0.361907 0.345867
O O5 0.036299 0.564663 0.638125
O O6 0.962951 0.411189 0.638409
O O7 0.109960 0.556267 0.989485
O O8 0.106317 0.283285 0.016988
O O9 0.312748 0.879461 0.341553
O O10 0.305673 0.804119 0.058708
O O11 0.309790 0.065471 0.125804
#
# Coordination Sequence:
#
# PCOD9458895 Si02
#       6
#     8   4   8   8   8   8
#     4  12  22  36  56  83 121 166 192 230 275 333
#     4  10  20  38  70  86 106 132 190 242 302 364
#     4  10  21  40  62  90 106 142 185 245 297 348
#     4  11  21  36  55  85 118 162 203 232 264 325
#     4  11  22  37  60  84 122 153 199 242 281 332
#     4  11  24  37  56  84 122 152 196 235 284 336
#
# _framework density 18.106995999999999
#
# number of rings (size 3 to 8) (size 9 to 14) (size 15 to 20)
#    0.000    1.091    0.000    9.818    0.000    0.000 
#    0.000    0.000    0.000   18.545    0.000    0.000 
#    0.000    0.000    0.000    0.000    0.000    0.000 
#
# Total GULP energy -245077.648585 kJ/mol
# GULP energy per Si atom -5569.946559 kJ/mol
# Density = 1.806578 g / cm^3
# Si number density = 18.106996 Si / 1000 Ang^3
#
#
#
# Elastic Constant Matrix: (Units=GPa)
#
#
# Indices 1 2 3 4 5 6 
#
# 1 186.3416 45.1372 52.0577 0.0000 0.0000 0.0000
# 2 45.1372 68.4076 12.7000 0.0000 0.0000 0.0000
# 3 52.0577 12.7000 122.0813 0.0000 0.0000 0.0000
# 4 0.0000 0.0000 0.0000 31.6911 0.0000 0.0000
# 5 0.0000 0.0000 0.0000 0.0000 44.9734 0.0000
# 6 0.0000 0.0000 0.0000 0.0000 0.0000 22.4410
#
#
#
# Elastic Compliance Matrix: (Units=1/GPa)
#
#
# Indices 1 2 3 4 5 6 
#
# 1 0.007111 -0.004210 -0.002594 0.000000 0.000000 0.000000
# 2 -0.004210 0.017399 -0.000015 0.000000 0.000000 0.000000
# 3 -0.002594 -0.000015 0.009299 0.000000 0.000000 0.000000
# 4 0.000000 0.000000 0.000000 0.031555 0.000000 0.000000
# 5 0.000000 0.000000 0.000000 0.000000 0.022235 0.000000
# 6 0.000000 0.000000 0.000000 0.000000 0.000000 0.044561
#
#
# Mechanical properties :
#
#
# Convention : Reuss Voigt Hill
#
# Bulk Modulus (GPa) = 49.57715 66.29113 57.93414
# Shear Modulus (GPa) = 32.78198 37.61683 35.19941
#
# Velocity S-wave (km/s) = 4.25957 4.56288 4.41383
# Velocity P-wave (km/s) = 7.18550 8.02808 7.61845
#
# Compressibility (1/GPa) = 0.02017058
#
# Stress axis : x y z
#
# Youngs Moduli (GPa) = 140.62416 57.47402 107.53798
#
# Poissons Ratio (x) = 0.24199 0.27899
# Poissons Ratio (y) = 0.59210 0.00157
# Poissons Ratio (z) = 0.36482 0.00084
#
# Static dielectric constant tensor:
#      x y z
#    x 1.569170 0.000000 0.000000 
#    y 0.000000 1.761510 0.000000 
#    z 0.000000 0.000000 1.652880 
# 
# From -- ./inp_files/8342.got.cif
#   From: 2010.05.17/outbox.ucp.g08.bks.cvg/sg60_5_cif.got.tgz:8342.got - 2010.06.11 16:26:41.
