data_PCOD9458984
_publ_section_title
;
Structure prediction by ZEFSAII (Michael W. Deem and Ramdas Pophale) SiO2 
 PCOD9458984
Probable space group: P B C A
;
_chemical_formula_sum "Si O2"
_cell_formula_units_Z 56
_cell_length_a 15.173842
_cell_length_b 8.608787
_cell_length_c 21.885446
_cell_angle_alpha 90.000000
_cell_angle_beta 90.000000
_cell_angle_gamma 90.000000
_cell_volume 2858.860220
_symmetry_space_group_name_H-M "P B C A"
_symmetry_group_IT_number 61
_symmetry_cell_setting 'orthorhombic'
loop_
_space_group_symop_operation_xyz
x,y,z
1/2-x,-y,1/2+z
1/2+x,1/2-y,-z
-x,1/2+y,1/2-z
-x,-y,-z
1/2+x,y,1/2-z
1/2-x,1/2+y,z
x,1/2-y,1/2+z
loop_
_atom_site_type_symbol
_atom_site_label
_atom_site_fract_x
_atom_site_fract_y
_atom_site_fract_z
Si Si1 0.945298 0.090226 0.153712
Si Si2 0.362858 0.523775 0.973168
Si Si3 0.298175 0.838886 0.927824
Si Si4 0.244165 0.729266 0.162009
Si Si5 0.312860 0.962843 0.250119
Si Si6 0.332221 0.120825 0.846738
Si Si7 0.372186 0.999995 0.608552
O O1 0.910787 0.044595 0.086157
O O2 0.891006 0.986201 0.201970
O O3 0.915543 0.268570 0.165321
O O4 0.047828 0.052232 0.151636
O O5 0.353420 0.708958 0.963176
O O6 0.267002 0.439446 0.970386
O O7 0.402520 0.484859 0.038714
O O8 0.236925 0.735208 0.882164
O O9 0.349090 0.968888 0.888196
O O10 0.196407 0.614774 0.208962
O O11 0.174382 0.845835 0.133005
O O12 0.296280 0.630438 0.112061
O O13 0.315232 0.822635 0.202653
O O14 0.222184 0.937670 0.288160
#
# Coordination Sequence:
#
# PCOD9458984 Si02
#       7
#     8   8   8   8   8   8   8
#     4  11  22  35  65  93 117 149 204 261 300 341
#     4  10  19  35  59  88 123 156 199 250 296 361
#     4   9  16  29  57  89 112 155 196 229 309 348
#     4  10  24  40  61  79 122 170 194 238 303 364
#     4  11  18  38  63  88 116 148 201 250 297 351
#     4  10  16  32  58  93 116 142 188 257 297 347
#     4  11  24  43  56  85 124 166 202 238 304 371
#
# _framework density 19.588225999999999
#
# number of rings (size 3 to 8) (size 9 to 14) (size 15 to 20)
#    0.000    1.714    5.714    1.286    0.000    1.143 
#    0.000    3.571    0.000    0.000    0.000    0.000 
#    0.000    0.000    0.000    0.000    0.000    0.000 
#
# Total GULP energy -312359.057849 kJ/mol
# GULP energy per Si atom -5577.840319 kJ/mol
# Density = 1.954364 g / cm^3
# Si number density = 19.588226 Si / 1000 Ang^3
#
#
#
# Elastic Constant Matrix: (Units=GPa)
#
#
# Indices 1 2 3 4 5 6 
#
# 1 49.2926 17.7103 -3.3019 0.0000 0.0000 0.0000
# 2 17.7103 90.1987 22.2831 0.0000 0.0000 0.0000
# 3 -3.3019 22.2831 67.1382 0.0000 0.0000 0.0000
# 4 0.0000 0.0000 0.0000 15.3925 0.0000 0.0000
# 5 0.0000 0.0000 0.0000 0.0000 9.9741 0.0000
# 6 0.0000 0.0000 0.0000 0.0000 0.0000 15.9396
#
#
#
# Elastic Compliance Matrix: (Units=1/GPa)
#
#
# Indices 1 2 3 4 5 6 
#
# 1 0.022292 -0.005063 0.002777 0.000000 0.000000 0.000000
# 2 -0.005063 0.013227 -0.004639 0.000000 0.000000 0.000000
# 3 0.002777 -0.004639 0.016571 0.000000 0.000000 0.000000
# 4 0.000000 0.000000 0.000000 0.064967 0.000000 0.000000
# 5 0.000000 0.000000 0.000000 0.000000 0.100260 0.000000
# 6 0.000000 0.000000 0.000000 0.000000 0.000000 0.062737
#
#
# Mechanical properties :
#
#
# Convention : Reuss Voigt Hill
#
# Bulk Modulus (GPa) = 26.15108 31.11251 28.63180
# Shear Modulus (GPa) = 16.30521 19.59042 17.94781
#
# Velocity S-wave (km/s) = 2.88826 3.16589 3.03025
# Velocity P-wave (km/s) = 4.94996 5.41124 5.18573
#
# Compressibility (1/GPa) = 0.03823934
#
# Stress axis : x y z
#
# Youngs Moduli (GPa) = 44.85892 75.60421 60.34683
#
# Poissons Ratio (x) = 0.38278 -0.16757
# Poissons Ratio (y) = 0.22712 0.27995
# Poissons Ratio (z) = -0.12456 0.35072
#
# Static dielectric constant tensor:
#      x y z
#    x 1.699660 0.000000 0.000000 
#    y 0.000000 1.700350 0.000000 
#    z 0.000000 0.000000 1.716670 
# 
# From -- ./inp_files/9012.got.cif
#   From: 2010.05.17/outbox.cif.g08.bks.cpg/sg61_5_cif.got.tgz:9012.got - 2010.06.03 15:17:17.
