data_PCOD9458484
_publ_section_title
;
Structure prediction by ZEFSAII (Michael W. Deem and Ramdas Pophale) SiO2 
 PCOD9458484
Probable space group: P B C N
;
_chemical_formula_sum "Si O2"
_cell_formula_units_Z 36
_cell_length_a 20.568551
_cell_length_b 7.189111
_cell_length_c 9.524303
_cell_angle_alpha 90.000000
_cell_angle_beta 90.000000
_cell_angle_gamma 90.000000
_cell_volume 1408.354839
_symmetry_space_group_name_H-M "P B C N"
_symmetry_group_IT_number 60
_symmetry_cell_setting 'orthorhombic'
loop_
_space_group_symop_operation_xyz
x,y,z
1/2-x,1/2-y,1/2+z
1/2+x,1/2-y,-z
-x,y,1/2-z
-x,-y,-z
1/2+x,1/2+y,1/2-z
1/2-x,1/2+y,z
x,-y,1/2+z
loop_
_atom_site_type_symbol
_atom_site_label
_atom_site_fract_x
_atom_site_fract_y
_atom_site_fract_z
Si Si1 0.000000 0.710576 0.250000
Si Si2 0.689294 0.995823 0.540607
Si Si3 0.331498 0.586652 0.864377
Si Si4 0.893264 0.403365 0.265819
Si Si5 0.085000 0.983296 0.615627
O O1 0.057240 0.563944 0.282337
O O2 0.032909 0.854688 0.140799
O O3 0.675742 0.806843 0.624152
O O4 0.656554 0.970695 0.388862
O O5 0.765695 0.021651 0.559648
O O6 0.650673 0.149152 0.631266
O O7 0.349917 0.532117 0.706816
O O8 0.393967 0.532969 0.955982
O O9 0.930434 0.224482 0.328934
#
# Coordination Sequence:
#
# PCOD9458484 Si02
#       5
#     4   8   8   8   8
#     4  12  26  48  68  96 144 184 230 276 332 402
#     4  11  24  44  72 105 136 173 226 283 345 405
#     4  11  24  44  72 105 136 173 226 283 345 405
#     4  11  26  46  69 104 136 181 226 280 340 401
#     4  11  26  46  69 104 136 181 226 280 340 401
#
# _framework density 25.56174
#
# number of rings (size 3 to 8) (size 9 to 14) (size 15 to 20)
#    0.000    0.889    2.222    3.333    6.222    5.333 
#    0.000    0.000    0.000    0.000    0.000    0.000 
#    0.000    0.000    0.000    0.000    0.000    0.000 
#
# Total GULP energy -201372.502584 kJ/mol
# GULP energy per Si atom -5593.680627 kJ/mol
# Density = 2.550356 g / cm^3
# Si number density = 25.561740 Si / 1000 Ang^3
#
#
#
# Elastic Constant Matrix: (Units=GPa)
#
#
# Indices 1 2 3 4 5 6 
#
# 1 156.0816 48.3185 5.8391 0.0000 0.0000 0.0000
# 2 48.3185 114.5692 24.4537 0.0000 0.0000 0.0000
# 3 5.8391 24.4537 57.1147 0.0000 0.0000 0.0000
# 4 0.0000 0.0000 0.0000 23.5471 0.0000 0.0000
# 5 0.0000 0.0000 0.0000 0.0000 17.4452 0.0000
# 6 0.0000 0.0000 0.0000 0.0000 0.0000 46.5264
#
#
#
# Elastic Compliance Matrix: (Units=1/GPa)
#
#
# Indices 1 2 3 4 5 6 
#
# 1 0.007390 -0.003253 0.000637 0.000000 0.000000 0.000000
# 2 -0.003253 0.011038 -0.004393 0.000000 0.000000 0.000000
# 3 0.000637 -0.004393 0.019324 0.000000 0.000000 0.000000
# 4 0.000000 0.000000 0.000000 0.042468 0.000000 0.000000
# 5 0.000000 0.000000 0.000000 0.000000 0.057322 0.000000
# 6 0.000000 0.000000 0.000000 0.000000 0.000000 0.021493
#
#
# Mechanical properties :
#
#
# Convention : Reuss Voigt Hill
#
# Bulk Modulus (GPa) = 42.13259 53.88757 48.01008
# Shear Modulus (GPa) = 27.62962 34.11402 30.87182
#
# Velocity S-wave (km/s) = 3.29127 3.65714 3.47902
# Velocity P-wave (km/s) = 5.56432 6.24180 5.91277
#
# Compressibility (1/GPa) = 0.02373460
#
# Stress axis : x y z
#
# Youngs Moduli (GPa) = 135.31800 90.59744 51.74783
#
# Poissons Ratio (x) = 0.29468 -0.03297
# Poissons Ratio (y) = 0.44014 0.22734
# Poissons Ratio (z) = -0.08621 0.39802
#
# Static dielectric constant tensor:
#      x y z
#    x 2.092550 0.000000 0.000000 
#    y 0.000000 2.052520 0.000000 
#    z 0.000000 0.000000 1.919780 
# 
# From -- ./inp_files/7197.got.cif
#   From: 2010.05.17/outbox.cif.g08.bks.cpg/sg60_4_cif.got.tgz:7197.got - 2010.06.03 14:59:27.
