data_PCOD9458607
_publ_section_title
;
Structure prediction by ZEFSAII (Michael W. Deem and Ramdas Pophale) SiO2 
 PCOD9458607
Probable space group: P B C N
;
_chemical_formula_sum "Si O2"
_cell_formula_units_Z 44
_cell_length_a 24.937763
_cell_length_b 8.851586
_cell_length_c 7.769084
_cell_angle_alpha 90.000000
_cell_angle_beta 90.000000
_cell_angle_gamma 90.000000
_cell_volume 1714.937921
_symmetry_space_group_name_H-M "P B C N"
_symmetry_group_IT_number 60
_symmetry_cell_setting 'orthorhombic'
loop_
_space_group_symop_operation_xyz
x,y,z
1/2-x,1/2-y,1/2+z
1/2+x,1/2-y,-z
-x,y,1/2-z
-x,-y,-z
1/2+x,1/2+y,1/2-z
1/2-x,1/2+y,z
x,-y,1/2+z
loop_
_atom_site_type_symbol
_atom_site_label
_atom_site_fract_x
_atom_site_fract_y
_atom_site_fract_z
Si Si1 0.405666 0.893987 0.745851
Si Si2 0.262421 0.756256 0.004203
Si Si3 0.419527 0.674975 0.429250
Si Si4 0.500000 0.136844 0.750000
Si Si5 0.615156 0.339214 0.964216
Si Si6 0.212395 0.529666 0.213256
O O1 0.400361 0.781730 0.583985
O O2 0.349133 0.977703 0.763264
O O3 0.451615 0.018058 0.721087
O O4 0.411387 0.789288 0.914831
O O5 0.321114 0.677551 0.994482
O O6 0.217884 0.633607 0.042211
O O7 0.263312 0.871341 0.165493
O O8 0.255188 0.874118 0.851032
O O9 0.478865 0.745521 0.394509
O O10 0.409701 0.502343 0.487568
O O11 0.393155 0.685032 0.239384
#
# Coordination Sequence:
#
# PCOD9458607 Si02
#       6
#     8   8   8   4   8   8
#     4  11  28  51  76 116 158 208 265 323 396 471
#     4  11  26  45  75 112 158 205 258 317 390 469
#     4  12  27  49  79 111 157 203 260 328 386 471
#     4  12  30  50  84 114 154 210 268 330 398 462
#     4  11  27  49  77 115 159 205 259 323 398 468
#     4  11  26  46  74 114 153 204 254 321 384 468
#
# _framework density 25.656907
#
# number of rings (size 3 to 8) (size 9 to 14) (size 15 to 20)
#    0.000    0.727    1.818    2.727   17.818    1.455 
#    0.000    0.000    0.000    0.000    0.000    0.000 
#    0.000    0.000    0.000    0.000    0.000    0.000 
#
# Total GULP energy -246338.855211 kJ/mol
# GULP energy per Si atom -5598.610346 kJ/mol
# Density = 2.559851 g / cm^3
# Si number density = 25.656907 Si / 1000 Ang^3
#
#
#
# Elastic Constant Matrix: (Units=GPa)
#
#
# Indices 1 2 3 4 5 6 
#
# 1 91.3273 70.2442 10.3046 0.0000 0.0000 0.0000
# 2 70.2442 213.8688 55.7610 0.0000 0.0000 0.0000
# 3 10.3046 55.7610 139.4183 0.0000 0.0000 0.0000
# 4 0.0000 0.0000 0.0000 52.5844 0.0000 0.0000
# 5 0.0000 0.0000 0.0000 0.0000 23.4275 0.0000
# 6 0.0000 0.0000 0.0000 0.0000 0.0000 43.2145
#
#
#
# Elastic Compliance Matrix: (Units=1/GPa)
#
#
# Indices 1 2 3 4 5 6 
#
# 1 0.014762 -0.005095 0.000947 0.000000 0.000000 0.000000
# 2 -0.005095 0.006979 -0.002415 0.000000 0.000000 0.000000
# 3 0.000947 -0.002415 0.008068 0.000000 0.000000 0.000000
# 4 0.000000 0.000000 0.000000 0.019017 0.000000 0.000000
# 5 0.000000 0.000000 0.000000 0.000000 0.042685 0.000000
# 6 0.000000 0.000000 0.000000 0.000000 0.000000 0.023140
#
#
# Mechanical properties :
#
#
# Convention : Reuss Voigt Hill
#
# Bulk Modulus (GPa) = 59.94166 79.69267 69.81717
# Shear Modulus (GPa) = 37.49851 44.39891 40.94871
#
# Velocity S-wave (km/s) = 3.82715 4.16442 3.99934
# Velocity P-wave (km/s) = 6.55309 7.36557 6.97117
#
# Compressibility (1/GPa) = 0.01668289
#
# Stress axis : x y z
#
# Youngs Moduli (GPa) = 67.74217 143.29004 123.94008
#
# Poissons Ratio (x) = 0.73011 -0.11735
# Poissons Ratio (y) = 0.34517 0.29927
# Poissons Ratio (z) = -0.06414 0.34599
#
# Static dielectric constant tensor:
#      x y z
#    x 2.025100 0.000000 0.000000 
#    y 0.000000 1.966260 0.000000 
#    z 0.000000 0.000000 2.203760 
# 
# From -- ./inp_files/8340.got.cif
#   From: 2010.05.17/outbox.cif.g08.bks.cpg/sg60_5_cif.got.tgz:8340.got - 2010.06.03 14:59:27.
