data_PCOD9458262
_publ_section_title
;
Structure prediction by ZEFSAII (Michael W. Deem and Ramdas Pophale) SiO2 
 PCOD9458262
Probable space group: P B C N
;
_chemical_formula_sum "Si O2"
_cell_formula_units_Z 40
_cell_length_a 11.846451
_cell_length_b 15.760166
_cell_length_c 9.915644
_cell_angle_alpha 90.000000
_cell_angle_beta 90.000000
_cell_angle_gamma 90.000000
_cell_volume 1851.270906
_symmetry_space_group_name_H-M "P B C N"
_symmetry_group_IT_number 60
_symmetry_cell_setting 'orthorhombic'
loop_
_space_group_symop_operation_xyz
x,y,z
1/2-x,1/2-y,1/2+z
1/2+x,1/2-y,-z
-x,y,1/2-z
-x,-y,-z
1/2+x,1/2+y,1/2-z
1/2-x,1/2+y,z
x,-y,1/2+z
loop_
_atom_site_type_symbol
_atom_site_label
_atom_site_fract_x
_atom_site_fract_y
_atom_site_fract_z
Si Si1 0.750635 0.641948 0.298583
Si Si2 0.081199 0.012877 0.627572
Si Si3 0.778390 0.596984 0.000561
Si Si4 0.603649 0.932724 0.023662
Si Si5 0.116545 0.305581 0.220829
O O1 0.655104 0.570882 0.333111
O O2 0.860341 0.614744 0.385252
O O3 0.706945 0.736332 0.325111
O O4 0.769195 0.646223 0.138505
O O5 0.000000 0.034588 0.750000
O O6 0.168120 0.088255 0.591628
O O7 0.000000 0.000000 0.500000
O O8 0.797816 0.501105 0.050199
O O9 0.878328 0.631403 0.906411
O O10 0.618001 0.866494 0.147285
O O11 0.500000 0.000000 0.000000
O O12 0.000000 0.256706 0.250000
#
# Coordination Sequence:
#
# PCOD9458262 Si02
#       5
#     8   8   8   8   8
#     4  11  25  43  68 101 145 181 237 304 370 436
#     4  11  22  42  69  98 129 180 238 295 360 438
#     4  11  24  42  69  99 137 185 245 298 360 445
#     4  11  23  45  72 101 137 191 244 296 362 450
#     4  12  25  44  68 101 144 188 237 304 375 432
#
# _framework density 21.606777000000001
#
# number of rings (size 3 to 8) (size 9 to 14) (size 15 to 20)
#    0.000    0.800    4.000    4.200    2.800    0.000 
#    0.000    0.000    0.000    0.000    0.000    0.000 
#    0.000    0.000    0.000    0.000    0.000    0.000 
#
# Total GULP energy -222728.326696 kJ/mol
# GULP energy per Si atom -5568.208167 kJ/mol
# Density = 2.155760 g / cm^3
# Si number density = 21.606777 Si / 1000 Ang^3
#
#
#
# Elastic Constant Matrix: (Units=GPa)
#
#
# Indices 1 2 3 4 5 6 
#
# 1 56.8596 29.5294 28.8749 0.0000 0.0000 0.0000
# 2 29.5294 87.6651 29.3248 0.0000 0.0000 0.0000
# 3 28.8749 29.3248 125.9046 0.0000 0.0000 0.0000
# 4 0.0000 0.0000 0.0000 31.6479 0.0000 0.0000
# 5 0.0000 0.0000 0.0000 0.0000 12.7285 0.0000
# 6 0.0000 0.0000 0.0000 0.0000 0.0000 34.5198
#
#
#
# Elastic Compliance Matrix: (Units=1/GPa)
#
#
# Indices 1 2 3 4 5 6 
#
# 1 0.022829 -0.006440 -0.003736 0.000000 0.000000 0.000000
# 2 -0.006440 0.014188 -0.001828 0.000000 0.000000 0.000000
# 3 -0.003736 -0.001828 0.009225 0.000000 0.000000 0.000000
# 4 0.000000 0.000000 0.000000 0.031598 0.000000 0.000000
# 5 0.000000 0.000000 0.000000 0.000000 0.078564 0.000000
# 6 0.000000 0.000000 0.000000 0.000000 0.000000 0.028969
#
#
# Mechanical properties :
#
#
# Convention : Reuss Voigt Hill
#
# Bulk Modulus (GPa) = 44.97423 49.54304 47.25864
# Shear Modulus (GPa) = 23.06380 27.95926 25.51153
#
# Velocity S-wave (km/s) = 3.27070 3.60113 3.43989
# Velocity P-wave (km/s) = 5.92650 6.34587 6.13976
#
# Compressibility (1/GPa) = 0.02223496
#
# Stress axis : x y z
#
# Youngs Moduli (GPa) = 43.80428 70.48363 108.40242
#
# Poissons Ratio (x) = 0.45392 0.40494
# Poissons Ratio (y) = 0.28211 0.19811
# Poissons Ratio (z) = 0.16363 0.12881
#
# Static dielectric constant tensor:
#      x y z
#    x 1.709890 0.000000 0.000000 
#    y 0.000000 1.811250 0.000000 
#    z 0.000000 0.000000 1.794710 
# 
# From -- ./inp_files/4739.got.cif
#   From: 2010.05.17/outbox.cif.g08.bks.cpg/sg60_3_cif.got.tgz:4739.got - 2010.06.03 14:59:27.
