data_PCOD9458188
_publ_section_title
;
Structure prediction by ZEFSAII (Michael W. Deem and Ramdas Pophale) SiO2 
 PCOD9458188
Probable space group: P B C N
;
_chemical_formula_sum "Si O2"
_cell_formula_units_Z 32
_cell_length_a 29.226496
_cell_length_b 4.583018
_cell_length_c 8.191479
_cell_angle_alpha 90.000000
_cell_angle_beta 90.000000
_cell_angle_gamma 90.000000
_cell_volume 1097.212219
_symmetry_space_group_name_H-M "P B C N"
_symmetry_group_IT_number 60
_symmetry_cell_setting 'orthorhombic'
loop_
_space_group_symop_operation_xyz
x,y,z
1/2-x,1/2-y,1/2+z
1/2+x,1/2-y,-z
-x,y,1/2-z
-x,-y,-z
1/2+x,1/2+y,1/2-z
1/2-x,1/2+y,z
x,-y,1/2+z
loop_
_atom_site_type_symbol
_atom_site_label
_atom_site_fract_x
_atom_site_fract_y
_atom_site_fract_z
Si Si1 0.095438 0.688407 0.854702
Si Si2 0.162390 0.635340 0.595286
Si Si3 0.717884 0.671008 0.704553
Si Si4 0.468291 0.195848 0.117536
O O1 0.135036 0.814048 0.736623
O O2 0.062296 0.510752 0.733620
O O3 0.123551 0.469751 0.968905
O O4 0.064973 0.860688 0.989198
O O5 0.197794 0.788998 0.475247
O O6 0.185485 0.345070 0.671145
O O7 0.733115 0.337719 0.717741
O O8 0.500000 0.362365 0.250000
O O9 0.500000 0.000000 0.000000
#
# Coordination Sequence:
#
# PCOD9458188 Si02
#       4
#     8   8   8   8
#     4   8  14  25  40  64 100 144 180 220 272 321
#     4   9  18  31  48  69 100 144 180 227 272 321
#     4  11  22  37  56  79 106 144 186 227 272 321
#     4   8  12  19  36  64 100 144 180 220 264 321
#
# _framework density 29.164819000000001
#
# number of rings (size 3 to 8) (size 9 to 14) (size 15 to 20)
#    0.000    3.000    0.000    1.500    0.000    0.000 
#    0.000    0.000    0.000    0.000    0.000    0.000 
#    0.000    0.000    0.000 7722.000    0.000    0.000 
#
# Total GULP energy -179154.095642 kJ/mol
# GULP energy per Si atom -5598.565489 kJ/mol
# Density = 2.909844 g / cm^3
# Si number density = 29.164819 Si / 1000 Ang^3
#
#
#
# Elastic Constant Matrix: (Units=GPa)
#
#
# Indices 1 2 3 4 5 6 
#
# 1 129.5440 29.4782 84.1058 0.0000 0.0000 0.0000
# 2 29.4782 103.0226 42.3917 0.0000 0.0000 0.0000
# 3 84.1058 42.3917 213.2816 0.0000 0.0000 0.0000
# 4 0.0000 0.0000 0.0000 17.9114 0.0000 0.0000
# 5 0.0000 0.0000 0.0000 0.0000 118.3953 0.0000
# 6 0.0000 0.0000 0.0000 0.0000 0.0000 20.9518
#
#
#
# Elastic Compliance Matrix: (Units=1/GPa)
#
#
# Indices 1 2 3 4 5 6 
#
# 1 0.010565 -0.001425 -0.003883 0.000000 0.000000 0.000000
# 2 -0.001425 0.010763 -0.001577 0.000000 0.000000 0.000000
# 3 -0.003883 -0.001577 0.006533 0.000000 0.000000 0.000000
# 4 0.000000 0.000000 0.000000 0.055830 0.000000 0.000000
# 5 0.000000 0.000000 0.000000 0.000000 0.008446 0.000000
# 6 0.000000 0.000000 0.000000 0.000000 0.000000 0.047729
#
#
# Mechanical properties :
#
#
# Convention : Reuss Voigt Hill
#
# Bulk Modulus (GPa) = 70.96875 84.19996 77.58436
# Shear Modulus (GPa) = 31.57879 50.77651 41.17765
#
# Velocity S-wave (km/s) = 3.29412 4.17708 3.76160
# Velocity P-wave (km/s) = 6.23336 7.22475 6.74729
#
# Compressibility (1/GPa) = 0.01409071
#
# Stress axis : x y z
#
# Youngs Moduli (GPa) = 94.65606 92.90708 153.06239
#
# Poissons Ratio (x) = 0.13241 0.59431
# Poissons Ratio (y) = 0.13490 0.24143
# Poissons Ratio (z) = 0.36753 0.14654
#
# Static dielectric constant tensor:
#      x y z
#    x 2.431240 0.000000 0.000000 
#    y 0.000000 2.112550 0.000000 
#    z 0.000000 0.000000 2.223430 
# 
# From -- ./inp_files/8276.got.cif
#   From: 2010.05.17/outbox.cif.g08.bks.cpg/sg60_5_cif.got.tgz:8276.got - 2010.06.03 14:59:27.
