data_PCOD9458260
_publ_section_title
;
Structure prediction by ZEFSAII (Michael W. Deem and Ramdas Pophale) SiO2 
 PCOD9458260
Probable space group: P B C N
;
_chemical_formula_sum "Si O2"
_cell_formula_units_Z 60
_cell_length_a 13.315634
_cell_length_b 21.403940
_cell_length_c 8.969161
_cell_angle_alpha 90.000000
_cell_angle_beta 90.000000
_cell_angle_gamma 90.000000
_cell_volume 2556.273949
_symmetry_space_group_name_H-M "P B C N"
_symmetry_group_IT_number 60
_symmetry_cell_setting 'orthorhombic'
loop_
_space_group_symop_operation_xyz
x,y,z
1/2-x,1/2-y,1/2+z
1/2+x,1/2-y,-z
-x,y,1/2-z
-x,-y,-z
1/2+x,1/2+y,1/2-z
1/2-x,1/2+y,z
x,-y,1/2+z
loop_
_atom_site_type_symbol
_atom_site_label
_atom_site_fract_x
_atom_site_fract_y
_atom_site_fract_z
Si Si1 0.116747 0.876280 0.985869
Si Si2 0.500000 0.458889 0.750000
Si Si3 0.903282 0.317293 0.656578
Si Si4 0.307528 0.702770 0.237207
Si Si5 0.891905 0.333349 0.310450
Si Si6 0.734937 0.922098 0.119682
Si Si7 0.911551 0.171773 0.568997
Si Si8 0.301991 0.507769 0.624381
O O1 0.155890 0.814635 0.903054
O O2 0.068892 0.917698 0.855234
O O3 0.022865 0.855548 0.084964
O O4 0.199202 0.921981 0.056336
O O5 0.421028 0.495258 0.645952
O O6 0.804414 0.324677 0.759083
O O7 0.898515 0.345797 0.488571
O O8 0.908108 0.242306 0.627153
O O9 0.000000 0.337434 0.750000
O O10 0.313528 0.776659 0.211579
O O11 0.378360 0.675907 0.106495
O O12 0.858428 0.387718 0.196064
O O13 0.000000 0.310276 0.250000
O O14 0.828961 0.874820 0.134617
O O15 0.756031 0.983861 0.214645
O O16 0.744830 0.951953 0.956843
#
# Coordination Sequence:
#
# PCOD9458260 Si02
#       8
#     8   4   8   8   8   8   8   8
#     4  12  21  38  65 101 142 185 228 277 356 419
#     4  12  20  40  58 104 136 188 226 288 352 422
#     4  11  26  43  69 108 138 186 235 281 345 432
#     4  11  22  42  69 102 144 183 229 281 352 429
#     4  11  26  48  72 101 142 186 233 292 357 418
#     4  12  25  46  66 102 134 191 232 292 354 417
#     4  11  23  38  67 101 146 183 218 287 351 421
#     4  12  25  40  68  96 145 181 240 290 353 422
#
# _framework density 23.471661000000001
#
# number of rings (size 3 to 8) (size 9 to 14) (size 15 to 20)
#    0.000    0.533    5.333    3.600    3.733    2.133 
#    0.000    0.667    0.000    0.800    0.000    0.000 
#    0.000    0.000    0.000    0.000    0.000    0.000 
#
# Total GULP energy -335320.202918 kJ/mol
# GULP energy per Si atom -5588.670049 kJ/mol
# Density = 2.341824 g / cm^3
# Si number density = 23.471661 Si / 1000 Ang^3
#
#
#
# Elastic Constant Matrix: (Units=GPa)
#
#
# Indices 1 2 3 4 5 6 
#
# 1 81.1725 -3.6381 21.7274 0.0000 0.0000 0.0000
# 2 -3.6381 60.2240 30.6957 0.0000 0.0000 0.0000
# 3 21.7274 30.6957 73.4413 0.0000 0.0000 0.0000
# 4 0.0000 0.0000 0.0000 18.1849 0.0000 0.0000
# 5 0.0000 0.0000 0.0000 0.0000 32.1313 0.0000
# 6 0.0000 0.0000 0.0000 0.0000 0.0000 24.7019
#
#
#
# Elastic Compliance Matrix: (Units=1/GPa)
#
#
# Indices 1 2 3 4 5 6 
#
# 1 0.014019 0.003762 -0.005720 0.000000 0.000000 0.000000
# 2 0.003762 0.022109 -0.010354 0.000000 0.000000 0.000000
# 3 -0.005720 -0.010354 0.019636 0.000000 0.000000 0.000000
# 4 0.000000 0.000000 0.000000 0.054991 0.000000 0.000000
# 5 0.000000 0.000000 0.000000 0.000000 0.031122 0.000000
# 6 0.000000 0.000000 0.000000 0.000000 0.000000 0.040483
#
#
# Mechanical properties :
#
#
# Convention : Reuss Voigt Hill
#
# Bulk Modulus (GPa) = 32.11169 34.71198 33.41184
# Shear Modulus (GPa) = 23.00289 26.07380 24.53834
#
# Velocity S-wave (km/s) = 3.13394 3.33658 3.23684
# Velocity P-wave (km/s) = 5.17747 5.44653 5.31370
#
# Compressibility (1/GPa) = 0.03114131
#
# Stress axis : x y z
#
# Youngs Moduli (GPa) = 71.33098 45.22994 50.92656
#
# Poissons Ratio (x) = -0.17017 0.29130
# Poissons Ratio (y) = -0.26837 0.52729
# Poissons Ratio (z) = 0.40802 0.46831
#
# Static dielectric constant tensor:
#      x y z
#    x 1.917200 0.000000 0.000000 
#    y 0.000000 1.877490 0.000000 
#    z 0.000000 0.000000 2.000290 
# 
# From -- ./inp_files/6279.got.cif
#   From: 2010.05.17/outbox.cif.g08.bks.cpg/sg60_4_cif.got.tgz:6279.got - 2010.06.03 14:59:27.
