data_PCOD9458896
_publ_section_title
;
Structure prediction by ZEFSAII (Michael W. Deem and Ramdas Pophale) SiO2 
 PCOD9458896
Probable space group: P B C N
;
_chemical_formula_sum "Si O2"
_cell_formula_units_Z 60
_cell_length_a 18.000000
_cell_length_b 18.000000
_cell_length_c 9.000000
_cell_angle_alpha 90.000000
_cell_angle_beta 90.000000
_cell_angle_gamma 90.000000
_cell_volume 2916.000000
_symmetry_space_group_name_H-M "P B C N"
_symmetry_group_IT_number 60
_symmetry_cell_setting 'orthorhombic'
loop_
_space_group_symop_operation_xyz
x,y,z
1/2-x,1/2-y,1/2+z
1/2+x,1/2-y,-z
-x,y,1/2-z
-x,-y,-z
1/2+x,1/2+y,1/2-z
1/2-x,1/2+y,z
x,-y,1/2+z
loop_
_atom_site_type_symbol
_atom_site_label
_atom_site_fract_x
_atom_site_fract_y
_atom_site_fract_z
Si Si1 0.189791 0.780036 0.336664
Si Si2 0.811393 0.987896 0.889383
Si Si3 0.803630 0.814871 0.814933
Si Si4 0.439499 0.264329 0.882692
Si Si5 0.427047 0.374336 0.158698
Si Si6 0.000000 0.514925 0.250000
Si Si7 0.577894 0.094265 0.512569
Si Si8 0.733159 0.069037 0.661710
O O1 0.223122 0.707429 0.254961
O O2 0.187635 0.780649 0.517432
O O3 0.115524 0.812798 0.261371
O O4 0.246295 0.846975 0.299050
O O5 0.820058 0.903553 0.826308
O O6 0.874556 0.052390 0.869572
O O7 0.737450 0.022653 0.812604
O O8 0.796519 0.970898 0.062236
O O9 0.861913 0.779703 0.700598
O O10 0.500000 0.268030 0.750000
O O11 0.439328 0.181504 0.955485
O O12 0.447206 0.329077 0.007651
O O13 0.500000 0.397766 0.250000
O O14 0.964185 0.458984 0.130377
O O15 0.945703 0.567436 0.348091
O O16 0.662475 0.076939 0.557097
#
# Coordination Sequence:
#
# PCOD9458896 Si02
#       8
#     8   8   8   8   8   4   8   8
#     4  10  22  40  67  98 137 175 235 291 355 421
#     4  10  23  41  69  99 133 176 234 287 360 426
#     4  11  22  43  66 102 136 181 232 302 351 432
#     4  12  25  43  68 101 140 186 241 290 361 437
#     4  11  25  46  69 102 142 190 238 302 365 447
#     4  10  24  42  64  92 144 178 230 290 360 436
#     4  11  22  43  64  98 136 184 229 295 356 432
#     4  10  20  40  63  97 127 168 224 285 349 418
#
# _framework density 20.576132000000001
#
# number of rings (size 3 to 8) (size 9 to 14) (size 15 to 20)
#    0.000    1.333    2.000    3.200    2.800    1.600 
#    2.400    7.333    0.000    0.000    0.000    0.000 
#    0.000    0.000    0.000    0.000    0.000    0.000 
#
# Total GULP energy -334779.214409 kJ/mol
# GULP energy per Si atom -5579.653573 kJ/mol
# Density = 2.052930 g / cm^3
# Si number density = 20.576132 Si / 1000 Ang^3
#
#
#
# Elastic Constant Matrix: (Units=GPa)
#
#
# Indices 1 2 3 4 5 6 
#
# 1 71.4819 26.8540 8.2867 0.0000 0.0000 0.0000
# 2 26.8540 134.4016 47.2059 0.0000 0.0000 0.0000
# 3 8.2867 47.2059 94.1107 0.0000 0.0000 0.0000
# 4 0.0000 0.0000 0.0000 39.2357 0.0000 0.0000
# 5 0.0000 0.0000 0.0000 0.0000 38.6312 0.0000
# 6 0.0000 0.0000 0.0000 0.0000 0.0000 16.3435
#
#
#
# Elastic Compliance Matrix: (Units=1/GPa)
#
#
# Indices 1 2 3 4 5 6 
#
# 1 0.015129 -0.003101 0.000223 0.000000 0.000000 0.000000
# 2 -0.003101 0.009667 -0.004576 0.000000 0.000000 0.000000
# 3 0.000223 -0.004576 0.012901 0.000000 0.000000 0.000000
# 4 0.000000 0.000000 0.000000 0.025487 0.000000 0.000000
# 5 0.000000 0.000000 0.000000 0.000000 0.025886 0.000000
# 6 0.000000 0.000000 0.000000 0.000000 0.000000 0.061187
#
#
# Mechanical properties :
#
#
# Convention : Reuss Voigt Hill
#
# Bulk Modulus (GPa) = 43.87933 51.63195 47.75564
# Shear Modulus (GPa) = 28.94172 33.35192 31.14682
#
# Velocity S-wave (km/s) = 3.75449 4.03041 3.89490
# Velocity P-wave (km/s) = 6.33771 6.84153 6.59444
#
# Compressibility (1/GPa) = 0.02278977
#
# Stress axis : x y z
#
# Youngs Moduli (GPa) = 66.09947 103.44181 77.51077
#
# Poissons Ratio (x) = 0.32080 -0.01732
# Poissons Ratio (y) = 0.20499 0.35469
# Poissons Ratio (z) = -0.01477 0.47335
#
# Static dielectric constant tensor:
#      x y z
#    x 1.838810 0.000000 0.000000 
#    y 0.000000 1.718080 0.000000 
#    z 0.000000 0.000000 1.726120 
# 
# From -- ./inp_files/6930.got.cif
#   From: 2010.05.17/outbox.ucp.g08.bks.cvg/sg60_4_cif.got.tgz:6930.got - 2010.06.11 16:26:41.
