data_PCOD9458412
_publ_section_title
;
Structure prediction by ZEFSAII (Michael W. Deem and Ramdas Pophale) SiO2 
 PCOD9458412
Probable space group: P B C N
;
_chemical_formula_sum "Si O2"
_cell_formula_units_Z 60
_cell_length_a 25.162675
_cell_length_b 8.450173
_cell_length_c 12.415633
_cell_angle_alpha 90.000000
_cell_angle_beta 90.000000
_cell_angle_gamma 90.000000
_cell_volume 2639.923094
_symmetry_space_group_name_H-M "P B C N"
_symmetry_group_IT_number 60
_symmetry_cell_setting 'orthorhombic'
loop_
_space_group_symop_operation_xyz
x,y,z
1/2-x,1/2-y,1/2+z
1/2+x,1/2-y,-z
-x,y,1/2-z
-x,-y,-z
1/2+x,1/2+y,1/2-z
1/2-x,1/2+y,z
x,-y,1/2+z
loop_
_atom_site_type_symbol
_atom_site_label
_atom_site_fract_x
_atom_site_fract_y
_atom_site_fract_z
Si Si1 0.903862 0.165124 0.229902
Si Si2 0.674787 0.232607 0.907632
Si Si3 0.062210 0.189603 0.725410
Si Si4 0.159853 0.665402 0.345739
Si Si5 0.500000 0.871549 0.250000
Si Si6 0.949562 0.567230 0.436169
Si Si7 0.220008 0.619283 0.139003
Si Si8 0.652387 0.845416 0.057580
O O1 0.878243 0.239870 0.337957
O O2 0.957832 0.255608 0.194344
O O3 0.865445 0.199359 0.129984
O O4 0.916326 0.985422 0.256215
O O5 0.717361 0.362381 0.869764
O O6 0.699343 0.060878 0.876349
O O7 0.667763 0.242602 0.036978
O O8 0.100869 0.297724 0.799583
O O9 0.061039 0.253127 0.603084
O O10 0.000000 0.193188 0.750000
O O11 0.198243 0.705259 0.245849
O O12 0.173641 0.480118 0.362770
O O13 0.462715 0.978956 0.175584
O O14 0.896224 0.550377 0.504694
O O15 0.000000 0.500000 0.500000
O O16 0.192809 0.701496 0.035105
#
# Coordination Sequence:
#
# PCOD9458412 Si02
#       8
#     8   8   8   8   4   8   8   8
#     4  12  26  46  67 107 154 190 244 303 376 448
#     4  11  28  46  74 107 142 193 245 311 379 447
#     4  12  26  45  71 110 152 189 243 307 373 440
#     4  11  24  48  74 103 146 190 245 305 364 455
#     4  12  22  44  70 100 146 194 246 294 364 450
#     4  12  23  41  76 104 138 198 250 298 360 443
#     4  11  25  46  76 106 140 187 251 305 375 446
#     4  11  23  46  72 103 139 198 246 299 366 452
#
# _framework density 22.727934999999999
#
# number of rings (size 3 to 8) (size 9 to 14) (size 15 to 20)
#    0.000    0.533    5.333    3.200    3.733    2.133 
#    0.000    2.000    0.000    0.000    0.000    0.000 
#    0.000    0.000    0.000    0.000    0.000    0.000 
#
# Total GULP energy -334776.738611 kJ/mol
# GULP energy per Si atom -5579.612310 kJ/mol
# Density = 2.267620 g / cm^3
# Si number density = 22.727935 Si / 1000 Ang^3
#
#
#
# Elastic Constant Matrix: (Units=GPa)
#
#
# Indices 1 2 3 4 5 6 
#
# 1 83.7832 7.0672 32.8697 0.0000 0.0000 0.0000
# 2 7.0672 60.8385 33.1720 0.0000 0.0000 0.0000
# 3 32.8697 33.1720 114.3728 0.0000 0.0000 0.0000
# 4 0.0000 0.0000 0.0000 17.5967 0.0000 0.0000
# 5 0.0000 0.0000 0.0000 0.0000 25.1084 0.0000
# 6 0.0000 0.0000 0.0000 0.0000 0.0000 24.4888
#
#
#
# Elastic Compliance Matrix: (Units=1/GPa)
#
#
# Indices 1 2 3 4 5 6 
#
# 1 0.013474 0.000649 -0.004060 0.000000 0.000000 0.000000
# 2 0.000649 0.019556 -0.005858 0.000000 0.000000 0.000000
# 3 -0.004060 -0.005858 0.011609 0.000000 0.000000 0.000000
# 4 0.000000 0.000000 0.000000 0.056829 0.000000 0.000000
# 5 0.000000 0.000000 0.000000 0.000000 0.039827 0.000000
# 6 0.000000 0.000000 0.000000 0.000000 0.000000 0.040835
#
#
# Mechanical properties :
#
#
# Convention : Reuss Voigt Hill
#
# Bulk Modulus (GPa) = 38.31549 45.02359 41.66954
# Shear Modulus (GPa) = 23.88120 25.83117 24.85618
#
# Velocity S-wave (km/s) = 3.24503 3.37492 3.31061
# Velocity P-wave (km/s) = 5.56195 5.91942 5.74347
#
# Compressibility (1/GPa) = 0.02609911
#
# Stress axis : x y z
#
# Youngs Moduli (GPa) = 74.21800 51.13570 86.13731
#
# Poissons Ratio (x) = -0.03318 0.34975
# Poissons Ratio (y) = -0.04815 0.50462
# Poissons Ratio (z) = 0.30136 0.29957
#
# Static dielectric constant tensor:
#      x y z
#    x 1.873000 0.000000 0.000000 
#    y 0.000000 1.918920 0.000000 
#    z 0.000000 0.000000 2.011450 
# 
# From -- ./inp_files/13289.got.cif
#   From: 2010.05.17/outbox.cif.g08.bks.cpg/sg60_7_cif.got.tgz:13289.got - 2010.06.03 14:59:27.
