data_PCOD9458377
_publ_section_title
;
Structure prediction by ZEFSAII (Michael W. Deem and Ramdas Pophale) SiO2 
 PCOD9458377
Probable space group: P B C N
;
_chemical_formula_sum "Si O2"
_cell_formula_units_Z 28
_cell_length_a 10.734341
_cell_length_b 10.663712
_cell_length_c 9.057177
_cell_angle_alpha 90.000000
_cell_angle_beta 90.000000
_cell_angle_gamma 90.000000
_cell_volume 1036.756221
_symmetry_space_group_name_H-M "P B C N"
_symmetry_group_IT_number 60
_symmetry_cell_setting 'orthorhombic'
loop_
_space_group_symop_operation_xyz
x,y,z
1/2-x,1/2-y,1/2+z
1/2+x,1/2-y,-z
-x,y,1/2-z
-x,-y,-z
1/2+x,1/2+y,1/2-z
1/2-x,1/2+y,z
x,-y,1/2+z
loop_
_atom_site_type_symbol
_atom_site_label
_atom_site_fract_x
_atom_site_fract_y
_atom_site_fract_z
Si Si1 0.624216 0.961643 0.176027
Si Si2 0.705150 0.254503 0.461178
Si Si3 0.000000 0.698192 0.250000
Si Si4 0.354605 0.403633 0.748109
O O1 0.500000 0.904777 0.250000
O O2 0.569044 0.100494 0.140096
O O3 0.745355 0.992379 0.276797
O O4 0.668595 0.872851 0.048340
O O5 0.601071 0.274132 0.336478
O O6 0.683099 0.356432 0.587694
O O7 0.326653 0.708145 0.129984
O O8 0.500000 0.438298 0.750000
#
# Coordination Sequence:
#
# PCOD9458377 Si02
#       4
#     8   8   4   8
#     4   9  21  43  70  97 127 178 230 270 320 402
#     4  11  23  43  70  97 134 181 227 275 325 409
#     4   8  20  36  68  96 114 168 230 274 304 380
#     4  11  27  40  68 104 139 174 220 282 349 388
#
# _framework density 27.007314999999998
#
# number of rings (size 3 to 8) (size 9 to 14) (size 15 to 20)
#    0.857    1.143    0.000    1.714    8.000    5.714 
#    0.000    1.429    3.143    0.000    0.000    0.000 
#    0.000    0.000    0.000    0.000    0.000    0.000 
#
# Total GULP energy -156348.607088 kJ/mol
# GULP energy per Si atom -5583.878825 kJ/mol
# Density = 2.694584 g / cm^3
# Si number density = 27.007315 Si / 1000 Ang^3
#
#
#
# Elastic Constant Matrix: (Units=GPa)
#
#
# Indices 1 2 3 4 5 6 
#
# 1 230.8411 46.2942 27.7658 0.0000 0.0000 0.0000
# 2 46.2942 56.4459 17.2104 0.0000 0.0000 0.0000
# 3 27.7658 17.2104 85.1823 0.0000 0.0000 0.0000
# 4 0.0000 0.0000 0.0000 29.5210 0.0000 0.0000
# 5 0.0000 0.0000 0.0000 0.0000 25.9916 0.0000
# 6 0.0000 0.0000 0.0000 0.0000 0.0000 96.9885
#
#
#
# Elastic Compliance Matrix: (Units=1/GPa)
#
#
# Indices 1 2 3 4 5 6 
#
# 1 0.005248 -0.004031 -0.000896 0.000000 0.000000 0.000000
# 2 -0.004031 0.021975 -0.003126 0.000000 0.000000 0.000000
# 3 -0.000896 -0.003126 0.012663 0.000000 0.000000 0.000000
# 4 0.000000 0.000000 0.000000 0.033874 0.000000 0.000000
# 5 0.000000 0.000000 0.000000 0.000000 0.038474 0.000000
# 6 0.000000 0.000000 0.000000 0.000000 0.000000 0.010310
#
#
# Mechanical properties :
#
#
# Convention : Reuss Voigt Hill
#
# Bulk Modulus (GPa) = 42.05184 61.66780 51.85982
# Shear Modulus (GPa) = 34.11138 49.24682 41.67910
#
# Velocity S-wave (km/s) = 3.55779 4.27483 3.93269
# Velocity P-wave (km/s) = 5.69925 6.87379 6.31389
#
# Compressibility (1/GPa) = 0.02378017
#
# Stress axis : x y z
#
# Youngs Moduli (GPa) = 190.54160 45.50567 78.96873
#
# Poissons Ratio (x) = 0.18344 0.07078
# Poissons Ratio (y) = 0.76808 0.24685
# Poissons Ratio (z) = 0.17077 0.14225
#
# Static dielectric constant tensor:
#      x y z
#    x 2.141430 0.000000 0.000000 
#    y 0.000000 2.174120 0.000000 
#    z 0.000000 0.000000 2.148610 
# 
# From -- ./inp_files/9419.got.cif
#   From: 2010.05.17/outbox.cif.g08.bks.cpg/sg60_5_cif.got.tgz:9419.got - 2010.06.03 14:59:27.
