data_PCOD9458139
_publ_section_title
;
Structure prediction by ZEFSAII (Michael W. Deem and Ramdas Pophale) SiO2 
 PCOD9458139
Probable space group: P B C N
;
_chemical_formula_sum "Si O2"
_cell_formula_units_Z 40
_cell_length_a 16.631659
_cell_length_b 14.079362
_cell_length_c 6.140966
_cell_angle_alpha 90.000000
_cell_angle_beta 90.000000
_cell_angle_gamma 90.000000
_cell_volume 1437.987929
_symmetry_space_group_name_H-M "P B C N"
_symmetry_group_IT_number 60
_symmetry_cell_setting 'orthorhombic'
loop_
_space_group_symop_operation_xyz
x,y,z
1/2-x,1/2-y,1/2+z
1/2+x,1/2-y,-z
-x,y,1/2-z
-x,-y,-z
1/2+x,1/2+y,1/2-z
1/2-x,1/2+y,z
x,-y,1/2+z
loop_
_atom_site_type_symbol
_atom_site_label
_atom_site_fract_x
_atom_site_fract_y
_atom_site_fract_z
Si Si1 0.605915 0.981243 0.403739
Si Si2 0.081493 0.891542 0.692410
Si Si3 0.067980 0.714047 0.409929
Si Si4 0.809181 0.194513 0.923619
Si Si5 0.260368 0.603190 0.970955
O O1 0.603767 0.868029 0.441585
O O2 0.574461 0.009828 0.651281
O O3 0.686456 0.048026 0.418509
O O4 0.044100 0.802964 0.557489
O O5 0.151810 0.934759 0.540745
O O6 0.000000 0.949072 0.750000
O O7 0.138536 0.849434 0.882449
O O8 0.128059 0.758957 0.239009
O O9 0.000000 0.674310 0.250000
O O10 0.752665 0.284626 0.973828
O O11 0.763463 0.112808 0.790128
#
# Coordination Sequence:
#
# PCOD9458139 Si02
#       5
#     8   8   8   8   8
#     4  12  28  45  67 103 149 197 242 292 365 443
#     4  11  23  42  74 105 142 186 247 310 366 427
#     4  11  24  42  68 104 151 192 233 295 377 455
#     4  11  21  41  66  98 134 182 245 301 355 426
#     4  11  24  39  68  99 136 191 246 299 353 431
#
# _framework density 27.816645000000001
#
# number of rings (size 3 to 8) (size 9 to 14) (size 15 to 20)
#    0.000    0.800    6.000    1.200    5.600    0.800 
#    0.000    0.000    0.000    1.200    0.000    0.000 
#    0.000    0.000    0.000    0.000    0.000    0.000 
#
# Total GULP energy -223358.021189 kJ/mol
# GULP energy per Si atom -5583.950530 kJ/mol
# Density = 2.775333 g / cm^3
# Si number density = 27.816645 Si / 1000 Ang^3
#
#
#
# Elastic Constant Matrix: (Units=GPa)
#
#
# Indices 1 2 3 4 5 6 
#
# 1 82.9938 -23.8071 45.7712 0.0000 0.0000 0.0000
# 2 -23.8071 89.6387 20.0713 0.0000 0.0000 0.0000
# 3 45.7712 20.0713 157.6897 0.0000 0.0000 0.0000
# 4 0.0000 0.0000 0.0000 12.2610 0.0000 0.0000
# 5 0.0000 0.0000 0.0000 0.0000 65.8587 0.0000
# 6 0.0000 0.0000 0.0000 0.0000 0.0000 21.0516
#
#
#
# Elastic Compliance Matrix: (Units=1/GPa)
#
#
# Indices 1 2 3 4 5 6 
#
# 1 0.016772 0.005707 -0.005595 0.000000 0.000000 0.000000
# 2 0.005707 0.013425 -0.003365 0.000000 0.000000 0.000000
# 3 -0.005595 -0.003365 0.008394 0.000000 0.000000 0.000000
# 4 0.000000 0.000000 0.000000 0.081560 0.000000 0.000000
# 5 0.000000 0.000000 0.000000 0.000000 0.015184 0.000000
# 6 0.000000 0.000000 0.000000 0.000000 0.000000 0.047502
#
#
# Mechanical properties :
#
#
# Convention : Reuss Voigt Hill
#
# Bulk Modulus (GPa) = 31.16730 46.04366 38.60548
# Shear Modulus (GPa) = 24.99536 39.05337 32.02436
#
# Velocity S-wave (km/s) = 3.00088 3.75101 3.39671
# Velocity P-wave (km/s) = 4.82036 5.94547 5.41223
#
# Compressibility (1/GPa) = 0.03208491
#
# Stress axis : x y z
#
# Youngs Moduli (GPa) = 59.62458 74.48689 119.13545
#
# Poissons Ratio (x) = -0.42510 0.66651
# Poissons Ratio (y) = -0.34028 0.40093
# Poissons Ratio (z) = 0.33357 0.25067
#
# Static dielectric constant tensor:
#      x y z
#    x 2.386540 0.000000 0.000000 
#    y 0.000000 2.101820 0.000000 
#    z 0.000000 0.000000 2.366060 
# 
# From -- ./inp_files/1632.got.cif
#   From: 2010.05.17/outbox.cif.g08.bks.cpg/sg60_1_cif.got.tgz:1632.got - 2010.06.03 14:59:27.
