data_PCOD9458309
_publ_section_title
;
Structure prediction by ZEFSAII (Michael W. Deem and Ramdas Pophale) SiO2 
 PCOD9458309
Probable space group: P B C N
;
_chemical_formula_sum "Si O2"
_cell_formula_units_Z 64
_cell_length_a 27.497478
_cell_length_b 13.002511
_cell_length_c 8.060803
_cell_angle_alpha 90.000000
_cell_angle_beta 90.000000
_cell_angle_gamma 90.000000
_cell_volume 2882.029359
_symmetry_space_group_name_H-M "P B C N"
_symmetry_group_IT_number 60
_symmetry_cell_setting 'orthorhombic'
loop_
_space_group_symop_operation_xyz
x,y,z
1/2-x,1/2-y,1/2+z
1/2+x,1/2-y,-z
-x,y,1/2-z
-x,-y,-z
1/2+x,1/2+y,1/2-z
1/2-x,1/2+y,z
x,-y,1/2+z
loop_
_atom_site_type_symbol
_atom_site_label
_atom_site_fract_x
_atom_site_fract_y
_atom_site_fract_z
Si Si1 0.632919 0.246775 0.822792
Si Si2 0.638574 0.450481 0.635820
Si Si3 0.555630 0.135317 0.306487
Si Si4 0.443523 0.912642 0.304960
Si Si5 0.306274 0.765415 0.853259
Si Si6 0.748177 0.941051 0.530138
Si Si7 0.219934 0.364633 0.337165
Si Si8 0.384669 0.659461 0.688906
O O1 0.631919 0.368853 0.786498
O O2 0.585698 0.176850 0.791253
O O3 0.673355 0.203847 0.694506
O O4 0.653352 0.223965 0.005213
O O5 0.695288 0.459529 0.576618
O O6 0.619722 0.563391 0.684959
O O7 0.609543 0.395032 0.487668
O O8 0.500000 0.140977 0.250000
O O9 0.559199 0.114140 0.502061
O O10 0.578778 0.247433 0.274829
O O11 0.576096 0.029425 0.224342
O O12 0.500000 0.912825 0.250000
O O13 0.265312 0.690042 0.922070
O O14 0.332784 0.718239 0.696156
O O15 0.274376 0.865612 0.831942
O O16 0.739654 0.897936 0.345850
O O17 0.712626 0.037410 0.550736
#
# Coordination Sequence:
#
# PCOD9458309 Si02
#       8
#     8   8   8   8   8   8   8   8
#     4  11  26  42  69 104 140 190 244 291 362 426
#     4  12  22  44  64  95 143 190 234 287 339 412
#     4  11  26  49  78 110 144 178 230 301 374 438
#     4  11  25  49  79 110 144 179 230 302 375 433
#     4  11  24  39  62  97 137 187 234 292 340 425
#     4  11  23  38  58  89 134 181 236 284 351 397
#     4  11  24  39  59  94 136 186 233 290 343 418
#     4  12  26  44  71 102 141 189 243 285 354 427
#
# _framework density 22.206575000000001
#
# number of rings (size 3 to 8) (size 9 to 14) (size 15 to 20)
#    0.000    0.750    5.000    2.250    7.000    2.000 
#    0.000    1.250    0.000    0.000    0.000    0.000 
#    0.000    0.000    0.000    0.000    0.000    0.000 
#
# Total GULP energy -357488.857675 kJ/mol
# GULP energy per Si atom -5585.763401 kJ/mol
# Density = 2.215603 g / cm^3
# Si number density = 22.206575 Si / 1000 Ang^3
#
#
#
# Elastic Constant Matrix: (Units=GPa)
#
#
# Indices 1 2 3 4 5 6 
#
# 1 68.5263 45.9474 22.6414 0.0000 0.0000 0.0000
# 2 45.9474 141.8236 36.5915 0.0000 0.0000 0.0000
# 3 22.6414 36.5915 74.3645 0.0000 0.0000 0.0000
# 4 0.0000 0.0000 0.0000 37.4192 0.0000 0.0000
# 5 0.0000 0.0000 0.0000 0.0000 25.9327 0.0000
# 6 0.0000 0.0000 0.0000 0.0000 0.0000 32.6142
#
#
#
# Elastic Compliance Matrix: (Units=1/GPa)
#
#
# Indices 1 2 3 4 5 6 
#
# 1 0.019287 -0.005422 -0.003204 0.000000 0.000000 0.000000
# 2 -0.005422 0.009600 -0.003073 0.000000 0.000000 0.000000
# 3 -0.003204 -0.003073 0.015935 0.000000 0.000000 0.000000
# 4 0.000000 0.000000 0.000000 0.026724 0.000000 0.000000
# 5 0.000000 0.000000 0.000000 0.000000 0.038561 0.000000
# 6 0.000000 0.000000 0.000000 0.000000 0.000000 0.030662
#
#
# Mechanical properties :
#
#
# Convention : Reuss Voigt Hill
#
# Bulk Modulus (GPa) = 46.67710 55.00832 50.84271
# Shear Modulus (GPa) = 29.18689 31.16214 30.17452
#
# Velocity S-wave (km/s) = 3.62931 3.75011 3.69020
# Velocity P-wave (km/s) = 6.21511 6.60122 6.41107
#
# Compressibility (1/GPa) = 0.02142378
#
# Stress axis : x y z
#
# Youngs Moduli (GPa) = 51.84837 104.16186 62.75455
#
# Poissons Ratio (x) = 0.56474 0.20109
# Poissons Ratio (y) = 0.28111 0.19286
# Poissons Ratio (z) = 0.16614 0.32011
#
# Static dielectric constant tensor:
#      x y z
#    x 1.800040 0.000000 0.000000 
#    y 0.000000 2.071380 0.000000 
#    z 0.000000 0.000000 1.865870 
# 
# From -- ./inp_files/8486.got.cif
#   From: 2010.05.17/outbox.cif.g08.bks.cpg/sg60_5_cif.got.tgz:8486.got - 2010.06.03 14:59:27.
