data_PCOD9458944
_publ_section_title
;
Structure prediction by ZEFSAII (Michael W. Deem and Ramdas Pophale) SiO2 
 PCOD9458944
Probable space group: P B C N
;
_chemical_formula_sum "Si O2"
_cell_formula_units_Z 64
_cell_length_a 30.000000
_cell_length_b 12.000000
_cell_length_c 9.000000
_cell_angle_alpha 90.000000
_cell_angle_beta 90.000000
_cell_angle_gamma 90.000000
_cell_volume 3240.000000
_symmetry_space_group_name_H-M "P B C N"
_symmetry_group_IT_number 60
_symmetry_cell_setting 'orthorhombic'
loop_
_space_group_symop_operation_xyz
x,y,z
1/2-x,1/2-y,1/2+z
1/2+x,1/2-y,-z
-x,y,1/2-z
-x,-y,-z
1/2+x,1/2+y,1/2-z
1/2-x,1/2+y,z
x,-y,1/2+z
loop_
_atom_site_type_symbol
_atom_site_label
_atom_site_fract_x
_atom_site_fract_y
_atom_site_fract_z
Si Si1 0.879605 0.696451 0.307255
Si Si2 0.312917 0.834250 0.458459
Si Si3 0.171047 0.733603 0.472618
Si Si4 0.276412 0.448114 0.577425
Si Si5 0.463996 0.096236 0.625117
Si Si6 0.473403 0.846471 0.597325
Si Si7 0.736609 0.363107 0.622283
Si Si8 0.368866 0.070504 0.713964
O O1 0.840460 0.730593 0.417229
O O2 0.928121 0.719765 0.375211
O O3 0.873990 0.561700 0.301686
O O4 0.869580 0.741307 0.143549
O O5 0.271135 0.899827 0.522701
O O6 0.292862 0.744220 0.346626
O O7 0.346725 0.911761 0.372281
O O8 0.187254 0.854983 0.530009
O O9 0.213431 0.680055 0.388455
O O10 0.159246 0.639810 0.594286
O O11 0.271665 0.452335 0.752461
O O12 0.279403 0.573166 0.522404
O O13 0.500000 0.079747 0.750000
O O14 0.487707 0.183332 0.517364
O O15 0.417470 0.124646 0.698021
O O16 0.458230 0.973234 0.551283
O O17 0.500000 0.850726 0.750000
#
# Coordination Sequence:
#
# PCOD9458944 Si02
#       8
#     8   8   8   8   8   8   8   8
#     4  11  20  32  53  78 107 149 175 214 256 311
#     4  11  23  36  52  79 108 136 185 219 252 315
#     4  11  23  36  52  79 108 138 183 218 257 312
#     4  11  24  39  57  75 105 142 177 223 270 306
#     4   9  17  29  47  69 102 142 173 209 252 307
#     4   9  17  29  45  71 104 138 177 204 251 308
#     4  11  24  39  57  75 105 142 176 223 270 306
#     4  11  20  34  51  76 111 145 179 215 257 307
#
# _framework density 19.753086
#
# number of rings (size 3 to 8) (size 9 to 14) (size 15 to 20)
#    0.000    1.500    2.500    3.750    3.500    4.000 
#    0.000    0.000    0.000    0.000    0.000    0.000 
#    0.000   20.000    0.000    0.000    0.000    0.000 
#
# Total GULP energy -356371.635483 kJ/mol
# GULP energy per Si atom -5568.306804 kJ/mol
# Density = 1.970813 g / cm^3
# Si number density = 19.753086 Si / 1000 Ang^3
#
#
#
# Elastic Constant Matrix: (Units=GPa)
#
#
# Indices 1 2 3 4 5 6 
#
# 1 70.9500 41.2361 29.4745 0.0000 0.0000 0.0000
# 2 41.2361 -21.6643 -24.5532 0.0000 0.0000 0.0000
# 3 29.4745 -24.5532 38.1132 0.0000 0.0000 0.0000
# 4 0.0000 0.0000 0.0000 15.5551 0.0000 0.0000
# 5 0.0000 0.0000 0.0000 0.0000 10.4491 0.0000
# 6 0.0000 0.0000 0.0000 0.0000 0.0000 -2.5063
#
#
#
# Elastic Compliance Matrix: (Units=1/GPa)
#
#
# Indices 1 2 3 4 5 6 
#
# 1 0.006900 0.011087 0.001806 0.000000 0.000000 0.000000
# 2 0.011087 -0.008865 -0.014285 0.000000 0.000000 0.000000
# 3 0.001806 -0.014285 0.015638 0.000000 0.000000 0.000000
# 4 0.000000 0.000000 0.000000 0.064288 0.000000 0.000000
# 5 0.000000 0.000000 0.000000 0.000000 0.095702 0.000000
# 6 0.000000 0.000000 0.000000 0.000000 0.000000 -0.398995
#
#
# Mechanical properties :
#
#
# Convention : Reuss Voigt Hill
#
# Bulk Modulus (GPa) = 91.83797 19.96819 55.90308
# Shear Modulus (GPa) = -22.83956 7.44901 -7.69528
#
# Velocity S-wave (km/s) = -3.40406 1.94403 -1.97590
# Velocity P-wave (km/s) = 5.58066 3.89485 4.81215
#
# Compressibility (1/GPa) = 0.01088874
#
# Stress axis : x y z
#
# Youngs Moduli (GPa) = 144.92129 -112.79810 63.94693
#
# Poissons Ratio (x) = 1.25060 -0.11550
# Poissons Ratio (y) = -1.60675 0.91350
# Poissons Ratio (z) = -0.26176 -1.61136
#
# Static dielectric constant tensor:
#      x y z
#    x 1.742130 0.000000 0.000000 
#    y 0.000000 1.681490 0.000000 
#    z 0.000000 0.000000 1.724670 
# 
# From -- ./inp_files/8494.got.cif
#   From: 2010.05.17/outbox.ucp.g08.bks.cvg/sg60_5_cif.got.tgz:8494.got - 2010.06.11 16:26:41.
