data_PCOD9458413
_publ_section_title
;
Structure prediction by ZEFSAII (Michael W. Deem and Ramdas Pophale) SiO2 
 PCOD9458413
Probable space group: P B C N
;
_chemical_formula_sum "Si O2"
_cell_formula_units_Z 64
_cell_length_a 11.258265
_cell_length_b 18.633116
_cell_length_c 13.860987
_cell_angle_alpha 90.000000
_cell_angle_beta 90.000000
_cell_angle_gamma 90.000000
_cell_volume 2907.710139
_symmetry_space_group_name_H-M "P B C N"
_symmetry_group_IT_number 60
_symmetry_cell_setting 'orthorhombic'
loop_
_space_group_symop_operation_xyz
x,y,z
1/2-x,1/2-y,1/2+z
1/2+x,1/2-y,-z
-x,y,1/2-z
-x,-y,-z
1/2+x,1/2+y,1/2-z
1/2-x,1/2+y,z
x,-y,1/2+z
loop_
_atom_site_type_symbol
_atom_site_label
_atom_site_fract_x
_atom_site_fract_y
_atom_site_fract_z
Si Si1 0.477843 0.424518 0.614068
Si Si2 0.635429 0.038852 0.247702
Si Si3 0.707171 0.708536 0.932934
Si Si4 0.362708 0.779667 0.236157
Si Si5 0.026954 0.913027 0.113858
Si Si6 0.719658 0.349833 0.649781
Si Si7 0.225880 0.374868 0.572788
Si Si8 0.244073 0.093915 0.850398
O O1 0.443381 0.505328 0.645749
O O2 0.513971 0.423949 0.501356
O O3 0.596823 0.394915 0.664107
O O4 0.362206 0.374456 0.611867
O O5 0.500000 0.014687 0.250000
O O6 0.666624 0.101969 0.172041
O O7 0.662572 0.072642 0.352068
O O8 0.718858 0.975601 0.209740
O O9 0.829083 0.702630 0.873314
O O10 0.617246 0.653574 0.879028
O O11 0.676476 0.793527 0.932563
O O12 0.718785 0.682281 0.042548
O O13 0.500000 0.763451 0.250000
O O14 0.284085 0.714182 0.274460
O O15 0.322466 0.844023 0.304493
O O16 0.897695 0.894191 0.156112
O O17 0.229364 0.408476 0.465216
#
# Coordination Sequence:
#
# PCOD9458413 Si02
#       8
#     8   8   8   8   8   8   8   8
#     4   9  19  40  72 102 131 181 238 296 354 418
#     4  12  28  46  69 103 145 192 243 296 362 445
#     4  11  24  44  71 109 144 186 235 307 374 432
#     4  12  26  44  69 105 145 195 241 292 366 456
#     4   9  20  40  72 102 136 175 238 302 357 417
#     4  11  23  46  73 102 143 187 242 301 365 432
#     4  11  24  45  70 103 145 185 236 305 373 436
#     4  11  25  48  70 103 143 185 247 303 361 438
#
# _framework density 22.010449000000001
#
# number of rings (size 3 to 8) (size 9 to 14) (size 15 to 20)
#    0.000    1.250    3.750    1.125    3.500    3.000 
#    2.250    0.000    0.000    0.000    0.000    0.000 
#    0.000    0.000    0.000    0.000    0.000    0.000 
#
# Total GULP energy -357636.335292 kJ/mol
# GULP energy per Si atom -5588.067739 kJ/mol
# Density = 2.196035 g / cm^3
# Si number density = 22.010449 Si / 1000 Ang^3
#
#
#
# Elastic Constant Matrix: (Units=GPa)
#
#
# Indices 1 2 3 4 5 6 
#
# 1 64.6157 13.4966 12.1631 0.0000 0.0000 0.0000
# 2 13.4966 92.9727 27.9254 0.0000 0.0000 0.0000
# 3 12.1631 27.9254 106.1740 0.0000 0.0000 0.0000
# 4 0.0000 0.0000 0.0000 23.7884 0.0000 0.0000
# 5 0.0000 0.0000 0.0000 0.0000 31.8045 0.0000
# 6 0.0000 0.0000 0.0000 0.0000 0.0000 35.3231
#
#
#
# Elastic Compliance Matrix: (Units=1/GPa)
#
#
# Indices 1 2 3 4 5 6 
#
# 1 0.016133 -0.001940 -0.001338 0.000000 0.000000 0.000000
# 2 -0.001940 0.011912 -0.002911 0.000000 0.000000 0.000000
# 3 -0.001338 -0.002911 0.010337 0.000000 0.000000 0.000000
# 4 0.000000 0.000000 0.000000 0.042037 0.000000 0.000000
# 5 0.000000 0.000000 0.000000 0.000000 0.031442 0.000000
# 6 0.000000 0.000000 0.000000 0.000000 0.000000 0.028310
#
#
# Mechanical properties :
#
#
# Convention : Reuss Voigt Hill
#
# Bulk Modulus (GPa) = 38.45452 41.21474 39.83463
# Shear Modulus (GPa) = 31.01398 32.19502 31.60450
#
# Velocity S-wave (km/s) = 3.75781 3.82870 3.79342
# Velocity P-wave (km/s) = 6.02803 6.18958 6.10934
#
# Compressibility (1/GPa) = 0.02600475
#
# Stress axis : x y z
#
# Youngs Moduli (GPa) = 61.98393 83.95069 96.73679
#
# Poissons Ratio (x) = 0.16288 0.12942
# Poissons Ratio (y) = 0.12026 0.28157
# Poissons Ratio (z) = 0.08293 0.24436
#
# Static dielectric constant tensor:
#      x y z
#    x 1.774240 0.000000 0.000000 
#    y 0.000000 1.834220 0.000000 
#    z 0.000000 0.000000 1.836730 
# 
# From -- ./inp_files/16370.got.cif
#   From: 2010.05.17/outbox.cif.g08.bks.cpg/sg60_9_cif.got.tgz:16370.got - 2010.06.03 14:59:27.
