data_PCOD9458216
_publ_section_title
;
Structure prediction by ZEFSAII (Michael W. Deem and Ramdas Pophale) SiO2 
 PCOD9458216
Probable space group: P B C N
;
_chemical_formula_sum "Si O2"
_cell_formula_units_Z 56
_cell_length_a 6.648488
_cell_length_b 21.582172
_cell_length_c 19.698529
_cell_angle_alpha 90.000000
_cell_angle_beta 90.000000
_cell_angle_gamma 90.000000
_cell_volume 2826.518516
_symmetry_space_group_name_H-M "P B C N"
_symmetry_group_IT_number 60
_symmetry_cell_setting 'orthorhombic'
loop_
_space_group_symop_operation_xyz
x,y,z
1/2-x,1/2-y,1/2+z
1/2+x,1/2-y,-z
-x,y,1/2-z
-x,-y,-z
1/2+x,1/2+y,1/2-z
1/2-x,1/2+y,z
x,-y,1/2+z
loop_
_atom_site_type_symbol
_atom_site_label
_atom_site_fract_x
_atom_site_fract_y
_atom_site_fract_z
Si Si1 0.096678 0.617513 0.917574
Si Si2 0.648964 0.169258 0.038891
Si Si3 0.000000 0.795614 0.750000
Si Si4 0.214776 0.308650 0.166419
Si Si5 0.346558 0.872533 0.812070
Si Si6 0.843884 0.480146 0.187657
Si Si7 0.012222 0.191397 0.959521
Si Si8 0.000000 0.099377 0.750000
O O1 0.087818 0.550277 0.883307
O O2 0.315660 0.644955 0.934008
O O3 0.990515 0.660796 0.860974
O O4 0.968616 0.626385 0.985727
O O5 0.586660 0.153118 0.114990
O O6 0.601468 0.241384 0.023814
O O7 0.886059 0.163922 0.022338
O O8 0.149314 0.751441 0.707688
O O9 0.137899 0.838625 0.796294
O O10 0.354588 0.297452 0.101356
O O11 0.342529 0.356436 0.211553
O O12 0.500000 0.859914 0.750000
O O13 0.320560 0.946388 0.816651
O O14 0.635728 0.445122 0.203743
O O15 0.000000 0.467716 0.250000
#
# Coordination Sequence:
#
# PCOD9458216 Si02
#       8
#     8   8   4   8   8   8   8   4
#     4  11  22  42  63  98 131 172 221 271 330 397
#     4  11  24  40  65  98 131 176 217 270 345 402
#     4  12  25  40  62 100 133 166 220 270 336 404
#     4  11  24  35  67  98 131 167 212 279 337 399
#     4  11  27  46  67  94 133 183 223 272 335 399
#     4  11  23  44  67  93 136 179 228 277 320 392
#     4  11  22  39  63  95 133 168 209 275 339 393
#     4  12  21  38  68 102 127 172 224 278 334 382
#
# _framework density 19.812360000000002
#
# number of rings (size 3 to 8) (size 9 to 14) (size 15 to 20)
#    0.000    0.857    4.286    3.000    5.000    1.714 
#    0.000    0.714    0.000    0.000    0.000    0.000 
#    0.000    0.000    0.000    0.000    0.000    0.000 
#
# Total GULP energy -312938.537988 kJ/mol
# GULP energy per Si atom -5588.188178 kJ/mol
# Density = 1.976727 g / cm^3
# Si number density = 19.812360 Si / 1000 Ang^3
#
#
#
# Elastic Constant Matrix: (Units=GPa)
#
#
# Indices 1 2 3 4 5 6 
#
# 1 89.6509 41.7447 30.6594 0.0000 0.0000 0.0000
# 2 41.7447 92.2979 46.4110 0.0000 0.0000 0.0000
# 3 30.6594 46.4110 113.6900 0.0000 0.0000 0.0000
# 4 0.0000 0.0000 0.0000 28.5337 0.0000 0.0000
# 5 0.0000 0.0000 0.0000 0.0000 36.6419 0.0000
# 6 0.0000 0.0000 0.0000 0.0000 0.0000 35.1869
#
#
#
# Elastic Compliance Matrix: (Units=1/GPa)
#
#
# Indices 1 2 3 4 5 6 
#
# 1 0.014340 -0.005714 -0.001534 0.000000 0.000000 0.000000
# 2 -0.005714 0.015910 -0.004954 0.000000 0.000000 0.000000
# 3 -0.001534 -0.004954 0.011232 0.000000 0.000000 0.000000
# 4 0.000000 0.000000 0.000000 0.035046 0.000000 0.000000
# 5 0.000000 0.000000 0.000000 0.000000 0.027291 0.000000
# 6 0.000000 0.000000 0.000000 0.000000 0.000000 0.028420
#
#
# Mechanical properties :
#
#
# Convention : Reuss Voigt Hill
#
# Bulk Modulus (GPa) = 58.55885 59.25213 58.90549
# Shear Modulus (GPa) = 30.80037 31.86074 31.33056
#
# Velocity S-wave (km/s) = 3.94712 4.01449 3.98095
# Velocity P-wave (km/s) = 7.09887 7.17355 7.13631
#
# Compressibility (1/GPa) = 0.01707684
#
# Stress axis : x y z
#
# Youngs Moduli (GPa) = 69.73591 62.85428 89.03187
#
# Poissons Ratio (x) = 0.35915 0.13662
# Poissons Ratio (y) = 0.39847 0.44105
# Poissons Ratio (z) = 0.10701 0.31137
#
# Static dielectric constant tensor:
#      x y z
#    x 1.716550 0.000000 0.000000 
#    y 0.000000 1.669740 0.000000 
#    z 0.000000 0.000000 1.728710 
# 
# From -- ./inp_files/21747.got.cif
#   From: 2010.05.17/outbox.cif.g08.bks.cpg/sg60_11_cif.got.tgz:21747.got - 2010.06.03 14:59:27.
