data_PCOD9458298
_publ_section_title
;
Structure prediction by ZEFSAII (Michael W. Deem and Ramdas Pophale) SiO2 
 PCOD9458298
Probable space group: P B C N
;
_chemical_formula_sum "Si O2"
_cell_formula_units_Z 56
_cell_length_a 12.558136
_cell_length_b 13.291877
_cell_length_c 15.132754
_cell_angle_alpha 90.000000
_cell_angle_beta 90.000000
_cell_angle_gamma 90.000000
_cell_volume 2525.977443
_symmetry_space_group_name_H-M "P B C N"
_symmetry_group_IT_number 60
_symmetry_cell_setting 'orthorhombic'
loop_
_space_group_symop_operation_xyz
x,y,z
1/2-x,1/2-y,1/2+z
1/2+x,1/2-y,-z
-x,y,1/2-z
-x,-y,-z
1/2+x,1/2+y,1/2-z
1/2-x,1/2+y,z
x,-y,1/2+z
loop_
_atom_site_type_symbol
_atom_site_label
_atom_site_fract_x
_atom_site_fract_y
_atom_site_fract_z
Si Si1 0.601599 0.574048 0.312015
Si Si2 0.000000 0.236661 0.750000
Si Si3 0.189717 0.377999 0.795532
Si Si4 0.536719 0.389787 0.424295
Si Si5 0.119509 0.205131 0.035221
Si Si6 0.500000 0.975823 0.250000
Si Si7 0.998735 0.400547 0.436065
Si Si8 0.679244 0.741305 0.051665
O O1 0.500000 0.561081 0.250000
O O2 0.712715 0.577741 0.261106
O O3 0.592614 0.486578 0.384298
O O4 0.589580 0.677380 0.365530
O O5 0.111236 0.296191 0.752847
O O6 0.012386 0.175203 0.661427
O O7 0.097995 0.464839 0.799472
O O8 0.250612 0.318625 0.875412
O O9 0.421981 0.383941 0.471477
O O10 0.606279 0.338920 0.500944
O O11 0.070191 0.314353 0.014125
O O12 0.243620 0.214129 0.022503
O O13 0.452904 0.922737 0.162209
O O14 0.000000 0.500000 0.500000
O O15 0.108157 0.336963 0.418794
#
# Coordination Sequence:
#
# PCOD9458298 Si02
#       8
#     8   4   8   8   8   4   8   8
#     4  12  26  44  70 109 148 187 248 310 374 451
#     4  11  22  48  71 102 152 196 249 298 397 436
#     4  11  26  46  74 107 148 196 248 315 373 456
#     4  11  24  44  72 104 142 196 242 309 369 457
#     4  11  25  44  72 100 150 190 243 306 373 445
#     4  11  28  46  75 108 154 196 255 318 381 462
#     4  11  27  46  73 110 148 197 250 309 379 461
#     4  11  25  47  76 105 150 194 250 304 379 448
#
# _framework density 22.169636000000001
#
# number of rings (size 3 to 8) (size 9 to 14) (size 15 to 20)
#    0.000    0.857    2.143    3.857   13.000    3.429 
#    0.000    0.000    0.000    0.000    0.000    0.000 
#    0.000    0.000    0.000    0.000    0.000    0.000 
#
# Total GULP energy -311833.652983 kJ/mol
# GULP energy per Si atom -5568.458089 kJ/mol
# Density = 2.211918 g / cm^3
# Si number density = 22.169636 Si / 1000 Ang^3
#
#
#
# Elastic Constant Matrix: (Units=GPa)
#
#
# Indices 1 2 3 4 5 6 
#
# 1 114.8843 12.4935 23.6237 0.0000 0.0000 0.0000
# 2 12.4935 90.6970 16.1401 0.0000 0.0000 0.0000
# 3 23.6237 16.1401 93.2548 0.0000 0.0000 0.0000
# 4 0.0000 0.0000 0.0000 55.2750 0.0000 0.0000
# 5 0.0000 0.0000 0.0000 0.0000 8.5948 0.0000
# 6 0.0000 0.0000 0.0000 0.0000 0.0000 15.3995
#
#
#
# Elastic Compliance Matrix: (Units=1/GPa)
#
#
# Indices 1 2 3 4 5 6 
#
# 1 0.009251 -0.000885 -0.002190 0.000000 0.000000 0.000000
# 2 -0.000885 0.011461 -0.001759 0.000000 0.000000 0.000000
# 3 -0.002190 -0.001759 0.011583 0.000000 0.000000 0.000000
# 4 0.000000 0.000000 0.000000 0.018091 0.000000 0.000000
# 5 0.000000 0.000000 0.000000 0.000000 0.116350 0.000000
# 6 0.000000 0.000000 0.000000 0.000000 0.000000 0.064937
#
#
# Mechanical properties :
#
#
# Convention : Reuss Voigt Hill
#
# Bulk Modulus (GPa) = 44.19783 44.81675 44.50729
# Shear Modulus (GPa) = 20.08974 32.29243 26.19109
#
# Velocity S-wave (km/s) = 3.01355 3.82069 3.44087
# Velocity P-wave (km/s) = 5.66464 6.30261 5.99212
#
# Compressibility (1/GPa) = 0.02262554
#
# Stress axis : x y z
#
# Youngs Moduli (GPa) = 108.09619 87.25488 86.33550
#
# Poissons Ratio (x) = 0.07718 0.18911
# Poissons Ratio (y) = 0.09561 0.15191
# Poissons Ratio (z) = 0.23678 0.15352
#
# Static dielectric constant tensor:
#      x y z
#    x 1.832950 0.000000 0.000000 
#    y 0.000000 1.904130 0.000000 
#    z 0.000000 0.000000 1.815800 
# 
# From -- ./inp_files/16196.got.cif
#   From: 2010.05.17/outbox.cif.g08.bks.cpg/sg60_9_cif.got.tgz:16196.got - 2010.06.03 14:59:27.
