data_PCOD9458339
_publ_section_title
;
Structure prediction by ZEFSAII (Michael W. Deem and Ramdas Pophale) SiO2 
 PCOD9458339
Probable space group: P B C N
;
_chemical_formula_sum "Si O2"
_cell_formula_units_Z 40
_cell_length_a 13.575100
_cell_length_b 10.853262
_cell_length_c 10.986637
_cell_angle_alpha 90.000000
_cell_angle_beta 90.000000
_cell_angle_gamma 90.000000
_cell_volume 1618.706461
_symmetry_space_group_name_H-M "P B C N"
_symmetry_group_IT_number 60
_symmetry_cell_setting 'orthorhombic'
loop_
_space_group_symop_operation_xyz
x,y,z
1/2-x,1/2-y,1/2+z
1/2+x,1/2-y,-z
-x,y,1/2-z
-x,-y,-z
1/2+x,1/2+y,1/2-z
1/2-x,1/2+y,z
x,-y,1/2+z
loop_
_atom_site_type_symbol
_atom_site_label
_atom_site_fract_x
_atom_site_fract_y
_atom_site_fract_z
Si Si1 0.154733 0.719822 0.185611
Si Si2 0.641947 0.757518 0.433370
Si Si3 0.500000 0.038360 0.250000
Si Si4 0.882398 0.075240 0.640561
Si Si5 0.000000 0.139788 0.250000
Si Si6 0.673133 0.036686 0.100919
O O1 0.243019 0.725773 0.091177
O O2 0.061277 0.632411 0.161559
O O3 0.121264 0.854591 0.229218
O O4 0.194754 0.652750 0.308266
O O5 0.591340 0.674459 0.538018
O O6 0.581524 0.722554 0.314608
O O7 0.643681 0.899614 0.474811
O O8 0.580709 0.972862 0.167139
O O9 0.946876 0.953687 0.655485
O O10 0.771676 0.038877 0.604235
#
# Coordination Sequence:
#
# PCOD9458339 Si02
#       6
#     8   8   4   8   4   8
#     4   9  20  41  61  89 128 162 205 271 311 368
#     4  11  24  39  65  98 132 162 211 273 320 373
#     4   8  17  42  61  84 124 166 205 256 317 368
#     4  11  23  41  68  95 126 173 217 260 322 383
#     4  12  23  42  65 102 124 166 223 270 305 382
#     4   9  21  40  63  89 126 173 205 259 328 372
#
# _framework density 24.711089000000001
#
# number of rings (size 3 to 8) (size 9 to 14) (size 15 to 20)
#    1.200    0.800    2.000    1.200    2.800    1.600 
#    0.000    2.000    0.000    0.000    0.000    0.000 
#    0.000    0.000    0.000    0.000    0.000    0.000 
#
# Total GULP energy -223398.789902 kJ/mol
# GULP energy per Si atom -5584.969748 kJ/mol
# Density = 2.465485 g / cm^3
# Si number density = 24.711089 Si / 1000 Ang^3
#
#
#
# Elastic Constant Matrix: (Units=GPa)
#
#
# Indices 1 2 3 4 5 6 
#
# 1 111.6207 29.2360 21.0374 0.0000 0.0000 0.0000
# 2 29.2360 76.1857 26.0535 0.0000 0.0000 0.0000
# 3 21.0374 26.0535 48.8335 0.0000 0.0000 0.0000
# 4 0.0000 0.0000 0.0000 -0.7872 0.0000 0.0000
# 5 0.0000 0.0000 0.0000 0.0000 22.8404 0.0000
# 6 0.0000 0.0000 0.0000 0.0000 0.0000 29.4751
#
#
#
# Elastic Compliance Matrix: (Units=1/GPa)
#
#
# Indices 1 2 3 4 5 6 
#
# 1 0.010272 -0.002971 -0.002840 0.000000 0.000000 0.000000
# 2 -0.002971 0.016914 -0.007744 0.000000 0.000000 0.000000
# 3 -0.002840 -0.007744 0.025833 0.000000 0.000000 0.000000
# 4 0.000000 0.000000 0.000000 -1.270371 0.000000 0.000000
# 5 0.000000 0.000000 0.000000 0.000000 0.043782 0.000000
# 6 0.000000 0.000000 0.000000 0.000000 0.000000 0.033927
#
#
# Mechanical properties :
#
#
# Convention : Reuss Voigt Hill
#
# Bulk Modulus (GPa) = 38.59667 43.25485 40.92576
# Shear Modulus (GPa) = -4.52941 20.99320 8.23189
#
# Velocity S-wave (km/s) = -1.35533 2.91786 1.82715
# Velocity P-wave (km/s) = 3.63371 5.37532 4.58792
#
# Compressibility (1/GPa) = 0.02590897
#
# Stress axis : x y z
#
# Youngs Moduli (GPa) = 97.34893 59.12225 38.71005
#
# Poissons Ratio (x) = 0.17563 0.10995
# Poissons Ratio (y) = 0.28919 0.29978
# Poissons Ratio (z) = 0.27651 0.45786
#
# Static dielectric constant tensor:
#      x y z
#    x 1.946380 0.000000 0.000000 
#    y 0.000000 1.973560 0.000000 
#    z 0.000000 0.000000 1.981400 
# 
# From -- ./inp_files/10894.got.cif
#   From: 2010.05.17/outbox.cif.g08.bks.cpg/sg60_6_cif.got.tgz:10894.got - 2010.06.03 14:59:27.
