data_PCOD9458732
_publ_section_title
;
Structure prediction by ZEFSAII (Michael W. Deem and Ramdas Pophale) SiO2 
 PCOD9458732
Probable space group: P B C N
;
_chemical_formula_sum "Si O2"
_cell_formula_units_Z 40
_cell_length_a 9.749955
_cell_length_b 20.912374
_cell_length_c 8.254087
_cell_angle_alpha 90.000000
_cell_angle_beta 90.000000
_cell_angle_gamma 90.000000
_cell_volume 1682.964638
_symmetry_space_group_name_H-M "P B C N"
_symmetry_group_IT_number 60
_symmetry_cell_setting 'orthorhombic'
loop_
_space_group_symop_operation_xyz
x,y,z
1/2-x,1/2-y,1/2+z
1/2+x,1/2-y,-z
-x,y,1/2-z
-x,-y,-z
1/2+x,1/2+y,1/2-z
1/2-x,1/2+y,z
x,-y,1/2+z
loop_
_atom_site_type_symbol
_atom_site_label
_atom_site_fract_x
_atom_site_fract_y
_atom_site_fract_z
Si Si1 0.551640 0.205871 0.565689
Si Si2 0.107953 0.476529 0.372325
Si Si3 0.444048 0.347377 0.070363
Si Si4 0.278856 0.370116 0.547549
Si Si5 0.322519 0.880597 0.892039
O O1 0.500000 0.212531 0.750000
O O2 0.549014 0.272477 0.471394
O O3 0.710470 0.184071 0.565890
O O4 0.457938 0.153688 0.465928
O O5 0.216657 0.432480 0.459777
O O6 0.166268 0.546094 0.325806
O O7 0.000000 0.443088 0.250000
O O8 0.000000 0.500000 0.500000
O O9 0.500000 0.359728 0.250000
O O10 0.559365 0.376795 0.953464
O O11 0.295024 0.374913 0.027953
O O12 0.228966 0.348952 0.725797
#
# Coordination Sequence:
#
# PCOD9458732 Si02
#       5
#     8   8   8   8   8
#     4  12  24  44  72  99 135 179 229 278 335 409
#     4  12  24  44  73 105 135 176 230 281 336 405
#     4  12  28  45  66  99 139 180 226 279 348 404
#     4  12  25  44  71 100 139 177 228 281 337 404
#     4  12  25  45  70 101 137 179 225 283 337 403
#
# _framework density 23.767582999999998
#
# number of rings (size 3 to 8) (size 9 to 14) (size 15 to 20)
#    0.000    0.000    4.000    6.600    2.800    0.800 
#    0.000    0.000    0.000    0.000    0.000    0.000 
#    0.000    0.000    0.000    0.000    0.000    0.000 
#
# Total GULP energy -223382.759268 kJ/mol
# GULP energy per Si atom -5584.568982 kJ/mol
# Density = 2.371349 g / cm^3
# Si number density = 23.767583 Si / 1000 Ang^3
#
#
#
# Elastic Constant Matrix: (Units=GPa)
#
#
# Indices 1 2 3 4 5 6 
#
# 1 102.5695 3.1039 -11.6117 0.0000 0.0000 0.0000
# 2 3.1039 70.4471 -17.7159 0.0000 0.0000 0.0000
# 3 -11.6117 -17.7159 90.7758 0.0000 0.0000 0.0000
# 4 0.0000 0.0000 0.0000 21.0544 0.0000 0.0000
# 5 0.0000 0.0000 0.0000 0.0000 39.1982 0.0000
# 6 0.0000 0.0000 0.0000 0.0000 0.0000 -1.6855
#
#
#
# Elastic Compliance Matrix: (Units=1/GPa)
#
#
# Indices 1 2 3 4 5 6 
#
# 1 0.009894 -0.000124 0.001241 0.000000 0.000000 0.000000
# 2 -0.000124 0.014929 0.002898 0.000000 0.000000 0.000000
# 3 0.001241 0.002898 0.011740 0.000000 0.000000 0.000000
# 4 0.000000 0.000000 0.000000 0.047496 0.000000 0.000000
# 5 0.000000 0.000000 0.000000 0.000000 0.025511 0.000000
# 6 0.000000 0.000000 0.000000 0.000000 0.000000 -0.593280
#
#
# Mechanical properties :
#
#
# Convention : Reuss Voigt Hill
#
# Bulk Modulus (GPa) = 22.42434 23.48280 22.95357
# Shear Modulus (GPa) = -10.48493 31.04781 10.28144
#
# Velocity S-wave (km/s) = -2.10262 3.61821 2.08212
# Velocity P-wave (km/s) = 1.88696 5.23038 3.93176
#
# Compressibility (1/GPa) = 0.04459440
#
# Stress axis : x y z
#
# Youngs Moduli (GPa) = 101.07375 66.98271 85.17541
#
# Poissons Ratio (x) = 0.00829 -0.10574
# Poissons Ratio (y) = 0.01251 -0.24682
# Poissons Ratio (z) = -0.12548 -0.19410
#
# Static dielectric constant tensor:
#      x y z
#    x 2.010890 0.000000 0.000000 
#    y 0.000000 1.765780 0.000000 
#    z 0.000000 0.000000 16.567000 
# 
# From -- ./inp_files/3872.got.cif
#   From: 2010.05.17/outbox.cif.g08.bks.cpg/sg60_2_cif.got.tgz:3872.got - 2010.06.03 14:59:27.
