data_PCOD9458908
_publ_section_title
;
Structure prediction by ZEFSAII (Michael W. Deem and Ramdas Pophale) SiO2 
 PCOD9458908
Probable space group: P B C N
;
_chemical_formula_sum "Si O2"
_cell_formula_units_Z 48
_cell_length_a 9.000000
_cell_length_b 30.000000
_cell_length_c 9.000000
_cell_angle_alpha 90.000000
_cell_angle_beta 90.000000
_cell_angle_gamma 90.000000
_cell_volume 2430.000000
_symmetry_space_group_name_H-M "P B C N"
_symmetry_group_IT_number 60
_symmetry_cell_setting 'orthorhombic'
loop_
_space_group_symop_operation_xyz
x,y,z
1/2-x,1/2-y,1/2+z
1/2+x,1/2-y,-z
-x,y,1/2-z
-x,-y,-z
1/2+x,1/2+y,1/2-z
1/2-x,1/2+y,z
x,-y,1/2+z
loop_
_atom_site_type_symbol
_atom_site_label
_atom_site_fract_x
_atom_site_fract_y
_atom_site_fract_z
Si Si1 0.649922 0.468237 0.514471
Si Si2 0.175281 0.705267 0.091084
Si Si3 0.640738 0.110288 0.547269
Si Si4 0.181116 0.290986 0.938664
Si Si5 0.668398 0.031244 0.315745
Si Si6 0.788024 0.616360 0.894611
O O1 0.500000 0.500000 0.500000
O O2 0.713086 0.467227 0.681646
O O3 0.781060 0.489492 0.413803
O O4 0.660369 0.416716 0.458830
O O5 0.222119 0.703765 0.264456
O O6 0.997972 0.711976 0.069574
O O7 0.197116 0.656987 0.018565
O O8 0.255948 0.745637 0.007917
O O9 0.684863 0.072110 0.430667
O O10 0.459538 0.106975 0.553155
O O11 0.701962 0.109178 0.716160
O O12 0.231232 0.333185 0.040959
O O13 0.500000 0.028987 0.250000
#
# Coordination Sequence:
#
# PCOD9458908 Si02
#       6
#     8   8   8   8   8   8
#     4  12  26  43  64  96 136 172 217 280 346 400
#     4  10  21  38  64  97 133 170 218 271 326 389
#     4  10  21  38  68  99 123 167 230 280 317 391
#     4  10  21  39  65  96 133 172 217 270 327 391
#     4  12  24  42  69  95 125 172 228 273 328 400
#     4  10  21  40  66  95 130 171 220 277 334 394
#
# _framework density 19.753086
#
# number of rings (size 3 to 8) (size 9 to 14) (size 15 to 20)
#    0.000    1.333    1.667    4.000    4.667    2.000 
#    3.000    0.000    3.667    0.000    0.000    0.000 
#    0.000    0.000    0.000    0.000    0.000    0.000 
#
# Total GULP energy -267908.960568 kJ/mol
# GULP energy per Si atom -5581.436678 kJ/mol
# Density = 1.970813 g / cm^3
# Si number density = 19.753086 Si / 1000 Ang^3
#
#
#
# Elastic Constant Matrix: (Units=GPa)
#
#
# Indices 1 2 3 4 5 6 
#
# 1 49.7555 34.0317 28.1785 0.0000 0.0000 0.0000
# 2 34.0317 122.8740 41.0099 0.0000 0.0000 0.0000
# 3 28.1785 41.0099 137.5117 0.0000 0.0000 0.0000
# 4 0.0000 0.0000 0.0000 47.9113 0.0000 0.0000
# 5 0.0000 0.0000 0.0000 0.0000 33.0634 0.0000
# 6 0.0000 0.0000 0.0000 0.0000 0.0000 42.5316
#
#
#
# Elastic Compliance Matrix: (Units=1/GPa)
#
#
# Indices 1 2 3 4 5 6 
#
# 1 0.026285 -0.006088 -0.003570 0.000000 0.000000 0.000000
# 2 -0.006088 0.010448 -0.001868 0.000000 0.000000 0.000000
# 3 -0.003570 -0.001868 0.008561 0.000000 0.000000 0.000000
# 4 0.000000 0.000000 0.000000 0.020872 0.000000 0.000000
# 5 0.000000 0.000000 0.000000 0.000000 0.030245 0.000000
# 6 0.000000 0.000000 0.000000 0.000000 0.000000 0.023512
#
#
# Mechanical properties :
#
#
# Convention : Reuss Voigt Hill
#
# Bulk Modulus (GPa) = 44.96480 57.39792 51.18136
# Shear Modulus (GPa) = 33.24693 38.49601 35.87147
#
# Velocity S-wave (km/s) = 4.10704 4.41938 4.26607
# Velocity P-wave (km/s) = 6.73077 7.42711 7.08750
#
# Compressibility (1/GPa) = 0.02223962
#
# Stress axis : x y z
#
# Youngs Moduli (GPa) = 38.04514 95.71020 116.80929
#
# Poissons Ratio (x) = 0.58270 0.41707
# Poissons Ratio (y) = 0.23163 0.21824
# Poissons Ratio (z) = 0.13584 0.17882
#
# Static dielectric constant tensor:
#      x y z
#    x 1.690610 0.000000 0.000000 
#    y 0.000000 1.722540 0.000000 
#    z 0.000000 0.000000 1.723790 
# 
# From -- ./inp_files/4229.got.cif
#   From: 2010.05.17/outbox.ucp.g08.bks.cvg/sg60_3_cif.got.tgz:4229.got - 2010.06.11 16:26:41.
