data_PCOD9458901
_publ_section_title
;
Structure prediction by ZEFSAII (Michael W. Deem and Ramdas Pophale) SiO2 
 PCOD9458901
Probable space group: P B C N
;
_chemical_formula_sum "Si O2"
_cell_formula_units_Z 52
_cell_length_a 9.000000
_cell_length_b 15.000000
_cell_length_c 21.000000
_cell_angle_alpha 90.000000
_cell_angle_beta 90.000000
_cell_angle_gamma 90.000000
_cell_volume 2835.000000
_symmetry_space_group_name_H-M "P B C N"
_symmetry_group_IT_number 60
_symmetry_cell_setting 'orthorhombic'
loop_
_space_group_symop_operation_xyz
x,y,z
1/2-x,1/2-y,1/2+z
1/2+x,1/2-y,-z
-x,y,1/2-z
-x,-y,-z
1/2+x,1/2+y,1/2-z
1/2-x,1/2+y,z
x,-y,1/2+z
loop_
_atom_site_type_symbol
_atom_site_label
_atom_site_fract_x
_atom_site_fract_y
_atom_site_fract_z
Si Si1 0.605944 0.563715 0.811816
Si Si2 0.604786 0.181769 0.811497
Si Si3 0.248244 0.872309 0.661744
Si Si4 0.004583 0.618982 0.439180
Si Si5 0.895883 0.195181 0.623931
Si Si6 0.500000 0.799009 0.750000
Si Si7 0.404499 0.084542 0.916048
O O1 0.500000 0.557755 0.750000
O O2 0.748657 0.624422 0.795343
O O3 0.656509 0.463319 0.829168
O O4 0.523228 0.618360 0.868786
O O5 0.500000 0.192073 0.750000
O O6 0.652882 0.280518 0.835905
O O7 0.519526 0.123223 0.864274
O O8 0.347928 0.880159 0.598491
O O9 0.372925 0.857972 0.716724
O O10 0.965479 0.611439 0.513887
O O11 0.078799 0.715778 0.420430
O O12 0.091290 0.526087 0.417738
O O13 0.748951 0.138410 0.602812
O O14 0.917372 0.241065 0.694675
#
# Coordination Sequence:
#
# PCOD9458901 Si02
#       7
#     8   8   8   8   8   4   8
#     4  12  23  39  64  96 135 169 216 272 329 381
#     4  12  24  40  67  99 131 174 223 268 330 394
#     4  11  23  40  63  95 133 169 216 274 321 387
#     4  10  24  45  66  97 134 171 222 269 327 394
#     4  11  23  43  68  95 133 172 215 277 318 388
#     4  10  20  42  62  94 136 166 212 268 336 376
#     4  11  25  44  71  94 130 181 220 261 336 394
#
# _framework density 18.342151999999999
#
# number of rings (size 3 to 8) (size 9 to 14) (size 15 to 20)
#    0.000    0.923    5.385    2.308    3.231    3.692 
#    0.000    0.769    0.000    0.000    0.000    0.000 
#    0.000    0.000    0.000    0.000    0.000    0.000 
#
# Total GULP energy -289951.699087 kJ/mol
# GULP energy per Si atom -5575.994213 kJ/mol
# Density = 1.830040 g / cm^3
# Si number density = 18.342152 Si / 1000 Ang^3
#
#
#
# Elastic Constant Matrix: (Units=GPa)
#
#
# Indices 1 2 3 4 5 6 
#
# 1 121.7822 69.5468 40.3369 0.0000 0.0000 0.0000
# 2 69.5468 186.0791 41.2645 0.0000 0.0000 0.0000
# 3 40.3369 41.2645 102.9342 0.0000 0.0000 0.0000
# 4 0.0000 0.0000 0.0000 31.6903 0.0000 0.0000
# 5 0.0000 0.0000 0.0000 0.0000 26.9562 0.0000
# 6 0.0000 0.0000 0.0000 0.0000 0.0000 52.3155
#
#
#
# Elastic Compliance Matrix: (Units=1/GPa)
#
#
# Indices 1 2 3 4 5 6 
#
# 1 0.011214 -0.003531 -0.002979 0.000000 0.000000 0.000000
# 2 -0.003531 0.007010 -0.001427 0.000000 0.000000 0.000000
# 3 -0.002979 -0.001427 0.011454 0.000000 0.000000 0.000000
# 4 0.000000 0.000000 0.000000 0.031555 0.000000 0.000000
# 5 0.000000 0.000000 0.000000 0.000000 0.037097 0.000000
# 6 0.000000 0.000000 0.000000 0.000000 0.000000 0.019115
#
#
# Mechanical properties :
#
#
# Convention : Reuss Voigt Hill
#
# Bulk Modulus (GPa) = 72.43380 79.23243 75.83311
# Shear Modulus (GPa) = 36.25259 39.50223 37.87741
#
# Velocity S-wave (km/s) = 4.45057 4.64576 4.54921
# Velocity P-wave (km/s) = 8.12319 8.48929 8.30826
#
# Compressibility (1/GPa) = 0.01380571
#
# Stress axis : x y z
#
# Youngs Moduli (GPa) = 89.17058 142.65288 87.30336
#
# Poissons Ratio (x) = 0.50367 0.26009
# Poissons Ratio (y) = 0.31484 0.12455
# Poissons Ratio (z) = 0.26566 0.20351
#
# Static dielectric constant tensor:
#      x y z
#    x 1.653690 0.000000 0.000000 
#    y 0.000000 1.648300 0.000000 
#    z 0.000000 0.000000 1.643470 
# 
# From -- ./inp_files/22134.got.cif
#   From: 2010.05.17/outbox.ucp.g08.bks.cvg/sg60_12_cif.got.tgz:22134.got - 2010.06.11 16:26:41.
