data_PCOD9458608
_publ_section_title
;
Structure prediction by ZEFSAII (Michael W. Deem and Ramdas Pophale) SiO2 
 PCOD9458608
Probable space group: P B C N
;
_chemical_formula_sum "Si O2"
_cell_formula_units_Z 40
_cell_length_a 14.071963
_cell_length_b 12.378964
_cell_length_c 10.389225
_cell_angle_alpha 90.000000
_cell_angle_beta 90.000000
_cell_angle_gamma 90.000000
_cell_volume 1809.764798
_symmetry_space_group_name_H-M "P B C N"
_symmetry_group_IT_number 60
_symmetry_cell_setting 'orthorhombic'
loop_
_space_group_symop_operation_xyz
x,y,z
1/2-x,1/2-y,1/2+z
1/2+x,1/2-y,-z
-x,y,1/2-z
-x,-y,-z
1/2+x,1/2+y,1/2-z
1/2-x,1/2+y,z
x,-y,1/2+z
loop_
_atom_site_type_symbol
_atom_site_label
_atom_site_fract_x
_atom_site_fract_y
_atom_site_fract_z
Si Si1 0.109561 0.436526 0.765463
Si Si2 0.170274 0.199827 0.789698
Si Si3 0.600444 0.062364 0.505555
Si Si4 0.436558 0.517959 0.372491
Si Si5 0.171836 0.216648 0.486623
O O1 0.109792 0.310722 0.796688
O O2 0.155889 0.455536 0.627330
O O3 0.153396 0.508913 0.875527
O O4 0.000000 0.470863 0.750000
O O5 0.198928 0.194945 0.636780
O O6 0.249685 0.226009 0.897008
O O7 0.112849 0.093616 0.828814
O O8 0.589210 0.191026 0.513172
O O9 0.500000 0.000000 0.500000
O O10 0.500000 0.553604 0.250000
O O11 0.500000 0.500000 0.500000
O O12 0.362809 0.610123 0.414613
#
# Coordination Sequence:
#
# PCOD9458608 Si02
#       5
#     8   8   8   8   8
#     4   9  19  38  65  91 129 173 221 281 345 417
#     4  11  26  46  70 102 145 187 240 305 372 442
#     4   9  20  38  64  96 132 170 228 283 345 415
#     4  12  27  50  78 105 147 199 257 307 374 454
#     4  11  27  46  71 107 144 191 244 302 377 441
#
# _framework density 22.102319999999999
#
# number of rings (size 3 to 8) (size 9 to 14) (size 15 to 20)
#    0.000    1.600    2.000    0.600   11.200    4.000 
#    0.000    0.000    0.000    0.000    0.000    0.000 
#    0.000    0.000    0.000    0.000    0.000    0.000 
#
# Total GULP energy -223109.765980 kJ/mol
# GULP energy per Si atom -5577.744150 kJ/mol
# Density = 2.205201 g / cm^3
# Si number density = 22.102320 Si / 1000 Ang^3
#
#
#
# Elastic Constant Matrix: (Units=GPa)
#
#
# Indices 1 2 3 4 5 6 
#
# 1 47.5506 16.4963 39.2186 0.0000 0.0000 0.0000
# 2 16.4963 130.0138 90.0535 0.0000 0.0000 0.0000
# 3 39.2186 90.0535 213.5501 0.0000 0.0000 0.0000
# 4 0.0000 0.0000 0.0000 40.3502 0.0000 0.0000
# 5 0.0000 0.0000 0.0000 0.0000 24.0614 0.0000
# 6 0.0000 0.0000 0.0000 0.0000 0.0000 37.2383
#
#
#
# Elastic Compliance Matrix: (Units=1/GPa)
#
#
# Indices 1 2 3 4 5 6 
#
# 1 0.024784 0.000011 -0.004556 0.000000 0.000000 0.000000
# 2 0.000011 0.010865 -0.004584 0.000000 0.000000 0.000000
# 3 -0.004556 -0.004584 0.007453 0.000000 0.000000 0.000000
# 4 0.000000 0.000000 0.000000 0.024783 0.000000 0.000000
# 5 0.000000 0.000000 0.000000 0.000000 0.041560 0.000000
# 6 0.000000 0.000000 0.000000 0.000000 0.000000 0.026854
#
#
# Mechanical properties :
#
#
# Convention : Reuss Voigt Hill
#
# Bulk Modulus (GPa) = 40.25112 75.85014 58.05063
# Shear Modulus (GPa) = 30.70525 36.68638 33.69582
#
# Velocity S-wave (km/s) = 3.73128 4.07854 3.90877
# Velocity P-wave (km/s) = 6.06746 7.52140 6.83321
#
# Compressibility (1/GPa) = 0.02484403
#
# Stress axis : x y z
#
# Youngs Moduli (GPa) = 40.34802 92.03849 134.18273
#
# Poissons Ratio (x) = -0.00104 0.61140
# Poissons Ratio (y) = -0.00046 0.61507
# Poissons Ratio (z) = 0.18384 0.42189
#
# Static dielectric constant tensor:
#      x y z
#    x 1.863090 0.000000 0.000000 
#    y 0.000000 1.806840 0.000000 
#    z 0.000000 0.000000 1.956930 
# 
# From -- ./inp_files/6529.got.cif
#   From: 2010.05.17/outbox.cif.g08.bks.cpg/sg60_4_cif.got.tgz:6529.got - 2010.06.03 14:59:27.
