data_PCOD9458442
_publ_section_title
;
Structure prediction by ZEFSAII (Michael W. Deem and Ramdas Pophale) SiO2 
 PCOD9458442
Probable space group: P B C N
;
_chemical_formula_sum "Si O2"
_cell_formula_units_Z 40
_cell_length_a 11.709351
_cell_length_b 16.272107
_cell_length_c 8.988535
_cell_angle_alpha 90.000000
_cell_angle_beta 90.000000
_cell_angle_gamma 90.000000
_cell_volume 1712.637818
_symmetry_space_group_name_H-M "P B C N"
_symmetry_group_IT_number 60
_symmetry_cell_setting 'orthorhombic'
loop_
_space_group_symop_operation_xyz
x,y,z
1/2-x,1/2-y,1/2+z
1/2+x,1/2-y,-z
-x,y,1/2-z
-x,-y,-z
1/2+x,1/2+y,1/2-z
1/2-x,1/2+y,z
x,-y,1/2+z
loop_
_atom_site_type_symbol
_atom_site_label
_atom_site_fract_x
_atom_site_fract_y
_atom_site_fract_z
Si Si1 0.147756 0.024610 0.166761
Si Si2 0.788828 0.699900 0.071984
Si Si3 0.580583 0.404236 0.550739
Si Si4 0.186513 0.341446 0.595224
Si Si5 0.021460 0.410400 0.072886
O O1 0.141946 0.027875 0.343728
O O2 0.264958 0.066452 0.121011
O O3 0.048777 0.085624 0.101617
O O4 0.108916 0.936188 0.111925
O O5 0.654360 0.674973 0.083021
O O6 0.833567 0.697013 0.240935
O O7 0.780477 0.786339 0.989431
O O8 0.858701 0.632112 0.976241
O O9 0.073056 0.350969 0.500480
O O10 0.000000 0.414886 0.250000
O O11 0.000000 0.500000 0.000000
#
# Coordination Sequence:
#
# PCOD9458442 Si02
#       5
#     8   8   8   8   8
#     4   9  19  36  59  87 120 157 199 250 308 375
#     4  11  24  41  64  95 131 170 217 269 329 396
#     4   9  19  36  59  87 120 157 199 250 308 375
#     4  11  24  41  64  95 131 170 217 269 329 396
#     4  12  26  46  70  96 133 178 229 284 338 402
#
# _framework density 23.355784
#
# number of rings (size 3 to 8) (size 9 to 14) (size 15 to 20)
#    0.000    1.600    0.000    4.200    2.800    6.400 
#    0.000    0.000    0.000    0.000    0.000    0.000 
#    0.000    0.000    0.000    0.000    0.000    0.000 
#
# Total GULP energy -223183.508045 kJ/mol
# GULP energy per Si atom -5579.587701 kJ/mol
# Density = 2.330263 g / cm^3
# Si number density = 23.355784 Si / 1000 Ang^3
#
#
#
# Elastic Constant Matrix: (Units=GPa)
#
#
# Indices 1 2 3 4 5 6 
#
# 1 81.9698 9.3902 12.4155 0.0000 0.0000 0.0000
# 2 9.3902 60.7258 37.0992 0.0000 0.0000 0.0000
# 3 12.4155 37.0992 139.4633 0.0000 0.0000 0.0000
# 4 0.0000 0.0000 0.0000 20.9852 0.0000 0.0000
# 5 0.0000 0.0000 0.0000 0.0000 16.0054 0.0000
# 6 0.0000 0.0000 0.0000 0.0000 0.0000 33.0537
#
#
#
# Elastic Compliance Matrix: (Units=1/GPa)
#
#
# Indices 1 2 3 4 5 6 
#
# 1 0.012479 -0.001494 -0.000714 0.000000 0.000000 0.000000
# 2 -0.001494 0.019842 -0.005145 0.000000 0.000000 0.000000
# 3 -0.000714 -0.005145 0.008603 0.000000 0.000000 0.000000
# 4 0.000000 0.000000 0.000000 0.047653 0.000000 0.000000
# 5 0.000000 0.000000 0.000000 0.000000 0.062479 0.000000
# 6 0.000000 0.000000 0.000000 0.000000 0.000000 0.030254
#
#
# Mechanical properties :
#
#
# Convention : Reuss Voigt Hill
#
# Bulk Modulus (GPa) = 38.14140 44.44096 41.29118
# Shear Modulus (GPa) = 24.41969 28.89247 26.65608
#
# Velocity S-wave (km/s) = 3.23701 3.52100 3.38199
# Velocity P-wave (km/s) = 5.50790 5.96649 5.74178
#
# Compressibility (1/GPa) = 0.02621823
#
# Stress axis : x y z
#
# Youngs Moduli (GPa) = 80.13583 50.39861 116.24435
#
# Poissons Ratio (x) = 0.07528 0.08295
# Poissons Ratio (y) = 0.11970 0.59810
# Poissons Ratio (z) = 0.05718 0.25931
#
# Static dielectric constant tensor:
#      x y z
#    x 1.962420 0.000000 0.000000 
#    y 0.000000 1.904250 0.000000 
#    z 0.000000 0.000000 1.855920 
# 
# From -- ./inp_files/4766.got.cif
#   From: 2010.05.17/outbox.cif.g08.bks.cpg/sg60_3_cif.got.tgz:4766.got - 2010.06.03 14:59:27.
