data_PCOD9458469
_publ_section_title
;
Structure prediction by ZEFSAII (Michael W. Deem and Ramdas Pophale) SiO2 
 PCOD9458469
Probable space group: P B C N
;
_chemical_formula_sum "Si O2"
_cell_formula_units_Z 56
_cell_length_a 12.937267
_cell_length_b 13.963992
_cell_length_c 14.323036
_cell_angle_alpha 90.000000
_cell_angle_beta 90.000000
_cell_angle_gamma 90.000000
_cell_volume 2587.540857
_symmetry_space_group_name_H-M "P B C N"
_symmetry_group_IT_number 60
_symmetry_cell_setting 'orthorhombic'
loop_
_space_group_symop_operation_xyz
x,y,z
1/2-x,1/2-y,1/2+z
1/2+x,1/2-y,-z
-x,y,1/2-z
-x,-y,-z
1/2+x,1/2+y,1/2-z
1/2-x,1/2+y,z
x,-y,1/2+z
loop_
_atom_site_type_symbol
_atom_site_label
_atom_site_fract_x
_atom_site_fract_y
_atom_site_fract_z
Si Si1 0.289810 0.774583 0.749459
Si Si2 0.975531 0.817709 0.553804
Si Si3 0.825992 0.319396 0.957729
Si Si4 0.717447 0.560048 0.129349
Si Si5 0.115973 0.530077 0.528712
Si Si6 0.641126 0.650554 0.595810
Si Si7 0.091297 0.685097 0.687365
O O1 0.319690 0.768544 0.641644
O O2 0.257576 0.881055 0.781344
O O3 0.369913 0.727141 0.821143
O O4 0.185438 0.711601 0.754357
O O5 0.923702 0.721372 0.513020
O O6 0.881969 0.883670 0.588428
O O7 0.041617 0.863108 0.469803
O O8 0.049257 0.782173 0.637645
O O9 0.834127 0.431298 0.937025
O O10 0.727714 0.307188 0.025064
O O11 0.681784 0.449929 0.137373
O O12 0.813368 0.562219 0.057705
O O13 0.119036 0.610702 0.607191
O O14 0.000000 0.500000 0.500000
O O15 0.000000 0.643707 0.750000
#
# Coordination Sequence:
#
# PCOD9458469 Si02
#       7
#     8   8   8   8   8   8   8
#     4  12  25  44  69 105 142 180 235 294 349 420
#     4  12  22  47  70  98 139 190 226 285 362 421
#     4  11  24  43  70  99 139 184 223 289 354 409
#     4  11  25  45  70 102 137 184 239 286 347 431
#     4  11  25  44  70 102 139 183 234 288 359 418
#     4  11  25  46  70 101 140 184 232 289 354 414
#     4  12  23  41  70  98 135 184 235 281 348 424
#
# _framework density 21.642171000000001
#
# number of rings (size 3 to 8) (size 9 to 14) (size 15 to 20)
#    0.000    0.571    5.714    2.143    4.000    0.571 
#    0.000    1.429    0.000    0.000    0.000    0.000 
#    0.000    0.000    0.000    0.000    0.000    0.000 
#
# Total GULP energy -313173.342843 kJ/mol
# GULP energy per Si atom -5592.381122 kJ/mol
# Density = 2.159291 g / cm^3
# Si number density = 21.642171 Si / 1000 Ang^3
#
#
#
# Elastic Constant Matrix: (Units=GPa)
#
#
# Indices 1 2 3 4 5 6 
#
# 1 39.5776 -7.9843 1.8555 0.0000 0.0000 0.0000
# 2 -7.9843 75.1750 15.7324 0.0000 0.0000 0.0000
# 3 1.8555 15.7324 71.7418 0.0000 0.0000 0.0000
# 4 0.0000 0.0000 0.0000 32.7615 0.0000 0.0000
# 5 0.0000 0.0000 0.0000 0.0000 33.0482 0.0000
# 6 0.0000 0.0000 0.0000 0.0000 0.0000 30.4017
#
#
#
# Elastic Compliance Matrix: (Units=1/GPa)
#
#
# Indices 1 2 3 4 5 6 
#
# 1 0.025942 0.003035 -0.001337 0.000000 0.000000 0.000000
# 2 0.003035 0.014297 -0.003214 0.000000 0.000000 0.000000
# 3 -0.001337 -0.003214 0.014678 0.000000 0.000000 0.000000
# 4 0.000000 0.000000 0.000000 0.030524 0.000000 0.000000
# 5 0.000000 0.000000 0.000000 0.000000 0.030259 0.000000
# 6 0.000000 0.000000 0.000000 0.000000 0.000000 0.032893
#
#
# Mechanical properties :
#
#
# Convention : Reuss Voigt Hill
#
# Bulk Modulus (GPa) = 19.27281 22.85574 21.06428
# Shear Modulus (GPa) = 29.60005 31.03500 30.31753
#
# Velocity S-wave (km/s) = 3.70226 3.79094 3.74686
# Velocity P-wave (km/s) = 5.21538 5.45392 5.33598
#
# Compressibility (1/GPa) = 0.05188656
#
# Stress axis : x y z
#
# Youngs Moduli (GPa) = 38.54788 69.94371 68.12822
#
# Poissons Ratio (x) = -0.21228 0.09105
# Poissons Ratio (y) = -0.11699 0.21895
# Poissons Ratio (z) = 0.05152 0.22478
#
# Static dielectric constant tensor:
#      x y z
#    x 1.796090 0.000000 0.000000 
#    y 0.000000 1.784520 0.000000 
#    z 0.000000 0.000000 1.754890 
# 
# From -- ./inp_files/16135.got.cif
#   From: 2010.05.17/outbox.cif.g08.bks.cpg/sg60_9_cif.got.tgz:16135.got - 2010.06.03 14:59:27.
