data_PCOD9458173
_publ_section_title
;
Structure prediction by ZEFSAII (Michael W. Deem and Ramdas Pophale) SiO2 
 PCOD9458173
Probable space group: P B C N
;
_chemical_formula_sum "Si O2"
_cell_formula_units_Z 56
_cell_length_a 15.879610
_cell_length_b 10.676077
_cell_length_c 14.359479
_cell_angle_alpha 90.000000
_cell_angle_beta 90.000000
_cell_angle_gamma 90.000000
_cell_volume 2434.390319
_symmetry_space_group_name_H-M "P B C N"
_symmetry_group_IT_number 60
_symmetry_cell_setting 'orthorhombic'
loop_
_space_group_symop_operation_xyz
x,y,z
1/2-x,1/2-y,1/2+z
1/2+x,1/2-y,-z
-x,y,1/2-z
-x,-y,-z
1/2+x,1/2+y,1/2-z
1/2-x,1/2+y,z
x,-y,1/2+z
loop_
_atom_site_type_symbol
_atom_site_label
_atom_site_fract_x
_atom_site_fract_y
_atom_site_fract_z
Si Si1 0.218421 0.736580 0.333012
Si Si2 0.640997 0.332927 0.806855
Si Si3 0.580552 0.406457 0.503754
Si Si4 0.992988 0.320643 0.409874
Si Si5 0.734495 0.586944 0.494063
Si Si6 0.911201 0.114586 0.791523
Si Si7 0.391335 0.047654 0.433475
O O1 0.302348 0.705559 0.278667
O O2 0.235876 0.802809 0.430991
O O3 0.163275 0.827575 0.268428
O O4 0.163613 0.614104 0.355009
O O5 0.575046 0.226627 0.836040
O O6 0.594919 0.464079 0.788035
O O7 0.702329 0.362087 0.895186
O O8 0.500000 0.500000 0.500000
O O9 0.555048 0.294944 0.571074
O O10 0.663008 0.487229 0.526419
O O11 0.594683 0.352081 0.400240
O O12 0.942724 0.351161 0.506002
O O13 0.045324 0.445678 0.391564
O O14 0.825188 0.521027 0.497214
O O15 0.000000 0.156381 0.750000
#
# Coordination Sequence:
#
# PCOD9458173 Si02
#       7
#     8   8   8   8   8   8   8
#     4  12  26  47  70 116 147 198 255 317 368 469
#     4  11  26  46  75 107 151 201 253 310 381 445
#     4  11  21  44  76 104 142 199 254 315 374 449
#     4  11  24  46  76 110 149 199 249 314 389 456
#     4  11  25  45  78 102 150 203 258 304 375 463
#     4  11  24  41  71 107 144 188 253 312 362 443
#     4  11  26  46  74 109 156 199 248 315 393 451
#
# _framework density 23.003706999999999
#
# number of rings (size 3 to 8) (size 9 to 14) (size 15 to 20)
#    0.000    0.857    4.286    2.571    8.000    1.143 
#    0.000    1.429    0.000    0.000    0.000    0.000 
#    0.000    0.000    0.000    0.000    0.000    0.000 
#
# Total GULP energy -314011.646314 kJ/mol
# GULP energy per Si atom -5607.350827 kJ/mol
# Density = 2.295135 g / cm^3
# Si number density = 23.003707 Si / 1000 Ang^3
#
#
#
# Elastic Constant Matrix: (Units=GPa)
#
#
# Indices 1 2 3 4 5 6 
#
# 1 112.5886 42.6941 42.5613 0.0000 0.0000 0.0000
# 2 42.6941 74.1459 36.5993 0.0000 0.0000 0.0000
# 3 42.5613 36.5993 85.7293 0.0000 0.0000 0.0000
# 4 0.0000 0.0000 0.0000 24.7770 0.0000 0.0000
# 5 0.0000 0.0000 0.0000 0.0000 52.5671 0.0000
# 6 0.0000 0.0000 0.0000 0.0000 0.0000 39.0055
#
#
#
# Elastic Compliance Matrix: (Units=1/GPa)
#
#
# Indices 1 2 3 4 5 6 
#
# 1 0.012318 -0.005162 -0.003912 0.000000 0.000000 0.000000
# 2 -0.005162 0.019251 -0.005656 0.000000 0.000000 0.000000
# 3 -0.003912 -0.005656 0.016021 0.000000 0.000000 0.000000
# 4 0.000000 0.000000 0.000000 0.040360 0.000000 0.000000
# 5 0.000000 0.000000 0.000000 0.000000 0.019023 0.000000
# 6 0.000000 0.000000 0.000000 0.000000 0.000000 0.025637
#
#
# Mechanical properties :
#
#
# Convention : Reuss Voigt Hill
#
# Bulk Modulus (GPa) = 55.15357 57.35257 56.25307
# Shear Modulus (GPa) = 29.74171 33.31053 31.52612
#
# Velocity S-wave (km/s) = 3.59961 3.80945 3.70602
# Velocity P-wave (km/s) = 6.42684 6.65847 6.54368
#
# Compressibility (1/GPa) = 0.01813119
#
# Stress axis : x y z
#
# Youngs Moduli (GPa) = 81.18160 51.94508 62.41723
#
# Poissons Ratio (x) = 0.26814 0.24416
# Poissons Ratio (y) = 0.41906 0.35302
# Poissons Ratio (z) = 0.31756 0.29380
#
# Static dielectric constant tensor:
#      x y z
#    x 1.844220 0.000000 0.000000 
#    y 0.000000 1.843930 0.000000 
#    z 0.000000 0.000000 1.840410 
# 
# From -- ./inp_files/16842.got.cif
#   From: 2010.05.17/outbox.cif.g08.bks.cpg/sg60_9_cif.got.tgz:16842.got - 2010.06.03 14:59:27.
