data_PCOD9458276
_publ_section_title
;
Structure prediction by ZEFSAII (Michael W. Deem and Ramdas Pophale) SiO2 
 PCOD9458276
Probable space group: P B C N
;
_chemical_formula_sum "Si O2"
_cell_formula_units_Z 40
_cell_length_a 17.823446
_cell_length_b 8.854320
_cell_length_c 12.051925
_cell_angle_alpha 90.000000
_cell_angle_beta 90.000000
_cell_angle_gamma 90.000000
_cell_volume 1901.968450
_symmetry_space_group_name_H-M "P B C N"
_symmetry_group_IT_number 60
_symmetry_cell_setting 'orthorhombic'
loop_
_space_group_symop_operation_xyz
x,y,z
1/2-x,1/2-y,1/2+z
1/2+x,1/2-y,-z
-x,y,1/2-z
-x,-y,-z
1/2+x,1/2+y,1/2-z
1/2-x,1/2+y,z
x,-y,1/2+z
loop_
_atom_site_type_symbol
_atom_site_label
_atom_site_fract_x
_atom_site_fract_y
_atom_site_fract_z
Si Si1 0.347943 0.271393 0.694794
Si Si2 0.920300 0.669933 0.189746
Si Si3 0.698276 0.928547 0.863080
Si Si4 0.467487 0.334382 0.512460
Si Si5 0.390922 0.150034 0.924788
O O1 0.283402 0.389373 0.664548
O O2 0.421891 0.311543 0.625563
O O3 0.364702 0.258566 0.825309
O O4 0.320840 0.104293 0.656671
O O5 0.853910 0.667734 0.278950
O O6 0.916460 0.506129 0.131635
O O7 0.000000 0.688706 0.250000
O O8 0.915324 0.791495 0.091786
O O9 0.673960 0.883714 0.986924
O O10 0.500000 0.500000 0.500000
O O11 0.537604 0.220317 0.513987
#
# Coordination Sequence:
#
# PCOD9458276 Si02
#       5
#     8   8   8   8   8
#     4  11  27  44  69 103 140 181 233 282 358 407
#     4  11  22  43  72  98 131 183 233 281 347 415
#     4  11  25  43  71 103 140 184 227 290 348 421
#     4  12  26  44  71 102 141 181 238 290 340 415
#     4  11  23  46  71  97 137 182 230 286 344 418
#
# _framework density 21.030840999999999
#
# number of rings (size 3 to 8) (size 9 to 14) (size 15 to 20)
#    0.000    0.800    4.000    3.600    5.600    3.200 
#    0.000    0.000    0.000    0.000    0.000    0.000 
#    0.000    0.000    0.000    0.000    0.000    0.000 
#
# Total GULP energy -223893.750213 kJ/mol
# GULP energy per Si atom -5597.343755 kJ/mol
# Density = 2.098297 g / cm^3
# Si number density = 21.030841 Si / 1000 Ang^3
#
#
#
# Elastic Constant Matrix: (Units=GPa)
#
#
# Indices 1 2 3 4 5 6 
#
# 1 39.8851 5.8480 -8.8645 0.0000 0.0000 0.0000
# 2 5.8480 50.7323 16.9080 0.0000 0.0000 0.0000
# 3 -8.8645 16.9080 97.9776 0.0000 0.0000 0.0000
# 4 0.0000 0.0000 0.0000 15.0549 0.0000 0.0000
# 5 0.0000 0.0000 0.0000 0.0000 33.1900 0.0000
# 6 0.0000 0.0000 0.0000 0.0000 0.0000 33.5104
#
#
#
# Elastic Compliance Matrix: (Units=1/GPa)
#
#
# Indices 1 2 3 4 5 6 
#
# 1 0.026354 -0.004066 0.003086 0.000000 0.000000 0.000000
# 2 -0.004066 0.021542 -0.004085 0.000000 0.000000 0.000000
# 3 0.003086 -0.004085 0.011191 0.000000 0.000000 0.000000
# 4 0.000000 0.000000 0.000000 0.066424 0.000000 0.000000
# 5 0.000000 0.000000 0.000000 0.000000 0.030130 0.000000
# 6 0.000000 0.000000 0.000000 0.000000 0.000000 0.029841
#
#
# Mechanical properties :
#
#
# Convention : Reuss Voigt Hill
#
# Bulk Modulus (GPa) = 20.42686 24.04199 22.23442
# Shear Modulus (GPa) = 23.59261 27.99795 25.79528
#
# Velocity S-wave (km/s) = 3.35298 3.65263 3.50601
# Velocity P-wave (km/s) = 4.97231 5.40791 5.19468
#
# Compressibility (1/GPa) = 0.04895515
#
# Stress axis : x y z
#
# Youngs Moduli (GPa) = 37.94467 46.42181 89.36037
#
# Poissons Ratio (x) = 0.18877 -0.27578
# Poissons Ratio (y) = 0.15430 0.36507
# Poissons Ratio (z) = -0.11710 0.18965
#
# Static dielectric constant tensor:
#      x y z
#    x 1.725380 0.000000 0.000000 
#    y 0.000000 1.731530 0.000000 
#    z 0.000000 0.000000 1.749640 
# 
# From -- ./inp_files/12275.got.cif
#   From: 2010.05.17/outbox.cif.g08.bks.cpg/sg60_7_cif.got.tgz:12275.got - 2010.06.03 14:59:27.
