data_PCOD9458090
_publ_section_title
;
Structure prediction by ZEFSAII (Michael W. Deem and Ramdas Pophale) SiO2 
 PCOD9458090
Probable space group: P B C N
;
_chemical_formula_sum "Si O2"
_cell_formula_units_Z 56
_cell_length_a 20.558133
_cell_length_b 15.032975
_cell_length_c 9.124834
_cell_angle_alpha 90.000000
_cell_angle_beta 90.000000
_cell_angle_gamma 90.000000
_cell_volume 2820.029030
_symmetry_space_group_name_H-M "P B C N"
_symmetry_group_IT_number 60
_symmetry_cell_setting 'orthorhombic'
loop_
_space_group_symop_operation_xyz
x,y,z
1/2-x,1/2-y,1/2+z
1/2+x,1/2-y,-z
-x,y,1/2-z
-x,-y,-z
1/2+x,1/2+y,1/2-z
1/2-x,1/2+y,z
x,-y,1/2+z
loop_
_atom_site_type_symbol
_atom_site_label
_atom_site_fract_x
_atom_site_fract_y
_atom_site_fract_z
Si Si1 0.547473 0.023749 0.874230
Si Si2 0.803847 0.739748 0.150047
Si Si3 0.784245 0.928499 0.292591
Si Si4 0.933205 0.242340 0.154855
Si Si5 0.180441 0.109672 0.371001
Si Si6 0.430925 0.823193 0.671713
Si Si7 0.346338 0.147707 0.632260
O O1 0.500000 0.062647 0.750000
O O2 0.597860 0.091179 0.943393
O O3 0.577627 0.930140 0.826778
O O4 0.500000 0.000000 0.000000
O O5 0.794342 0.842875 0.188132
O O6 0.738393 0.679959 0.173090
O O7 0.866174 0.712699 0.248307
O O8 0.819475 0.720091 0.979975
O O9 0.813188 0.910601 0.454697
O O10 0.707135 0.923201 0.319576
O O11 0.807765 0.019272 0.219477
O O12 0.890730 0.151677 0.153716
O O13 0.883098 0.309393 0.232845
O O14 0.000000 0.234602 0.250000
O O15 0.939714 0.280332 0.990105
O O16 0.500000 0.804648 0.750000
#
# Coordination Sequence:
#
# PCOD9458090 Si02
#       7
#     8   8   8   8   8   8   8
#     4  11  21  36  58  97 137 171 213 266 336 413
#     4  11  23  45  67  99 136 175 228 281 344 411
#     4  11  25  44  69 100 133 180 232 290 344 411
#     4  12  24  43  68  99 137 186 232 283 346 410
#     4  11  26  45  70 101 137 181 232 287 351 410
#     4  11  23  41  67  97 140 182 227 281 340 414
#     4  11  23  40  67 101 135 177 223 282 348 411
#
# _framework density 19.857952999999998
#
# number of rings (size 3 to 8) (size 9 to 14) (size 15 to 20)
#    0.000    0.857    2.857    5.571    2.000    4.571 
#    0.000    1.429    0.000    0.000    0.000    0.000 
#    0.000    0.000    0.000    0.000    0.000    0.000 
#
# Total GULP energy -312502.441928 kJ/mol
# GULP energy per Si atom -5580.400749 kJ/mol
# Density = 1.981276 g / cm^3
# Si number density = 19.857953 Si / 1000 Ang^3
#
#
#
# Elastic Constant Matrix: (Units=GPa)
#
#
# Indices 1 2 3 4 5 6 
#
# 1 82.3350 32.1626 39.0197 0.0000 0.0000 0.0000
# 2 32.1626 95.1475 29.7453 0.0000 0.0000 0.0000
# 3 39.0197 29.7453 108.8940 0.0000 0.0000 0.0000
# 4 0.0000 0.0000 0.0000 27.4321 0.0000 0.0000
# 5 0.0000 0.0000 0.0000 0.0000 30.2093 0.0000
# 6 0.0000 0.0000 0.0000 0.0000 0.0000 35.5556
#
#
#
# Elastic Compliance Matrix: (Units=1/GPa)
#
#
# Indices 1 2 3 4 5 6 
#
# 1 0.015863 -0.003920 -0.004613 0.000000 0.000000 0.000000
# 2 -0.003920 0.012460 -0.001999 0.000000 0.000000 0.000000
# 3 -0.004613 -0.001999 0.011382 0.000000 0.000000 0.000000
# 4 0.000000 0.000000 0.000000 0.036454 0.000000 0.000000
# 5 0.000000 0.000000 0.000000 0.000000 0.033102 0.000000
# 6 0.000000 0.000000 0.000000 0.000000 0.000000 0.028125
#
#
# Mechanical properties :
#
#
# Convention : Reuss Voigt Hill
#
# Bulk Modulus (GPa) = 53.64548 54.24796 53.94672
# Shear Modulus (GPa) = 30.36475 31.00266 30.68370
#
# Velocity S-wave (km/s) = 3.91461 3.95552 3.93512
# Velocity P-wave (km/s) = 6.89242 6.94541 6.91897
#
# Compressibility (1/GPa) = 0.01864090
#
# Stress axis : x y z
#
# Youngs Moduli (GPa) = 63.03929 80.25711 87.85504
#
# Poissons Ratio (x) = 0.31460 0.40531
# Poissons Ratio (y) = 0.24711 0.17561
# Poissons Ratio (z) = 0.29083 0.16043
#
# Static dielectric constant tensor:
#      x y z
#    x 1.892360 0.000000 0.000000 
#    y 0.000000 1.641400 0.000000 
#    z 0.000000 0.000000 1.675350 
# 
# From -- ./inp_files/7409.got.cif
#   From: 2010.05.17/outbox.cif.g08.bks.cpg/sg60_4_cif.got.tgz:7409.got - 2010.06.03 14:59:27.
