data_PCOD9458138
_publ_section_title
;
Structure prediction by ZEFSAII (Michael W. Deem and Ramdas Pophale) SiO2 
 PCOD9458138
Probable space group: P B C N
;
_chemical_formula_sum "Si O2"
_cell_formula_units_Z 44
_cell_length_a 8.422469
_cell_length_b 20.073818
_cell_length_c 13.046773
_cell_angle_alpha 90.000000
_cell_angle_beta 90.000000
_cell_angle_gamma 90.000000
_cell_volume 2205.832391
_symmetry_space_group_name_H-M "P B C N"
_symmetry_group_IT_number 60
_symmetry_cell_setting 'orthorhombic'
loop_
_space_group_symop_operation_xyz
x,y,z
1/2-x,1/2-y,1/2+z
1/2+x,1/2-y,-z
-x,y,1/2-z
-x,-y,-z
1/2+x,1/2+y,1/2-z
1/2-x,1/2+y,z
x,-y,1/2+z
loop_
_atom_site_type_symbol
_atom_site_label
_atom_site_fract_x
_atom_site_fract_y
_atom_site_fract_z
Si Si1 0.500000 0.526686 0.750000
Si Si2 0.816124 0.682124 0.588750
Si Si3 0.756441 0.135551 0.819159
Si Si4 0.530003 0.694248 0.994161
Si Si5 0.395905 0.445944 0.933645
Si Si6 0.546048 0.075304 0.978748
O O1 0.385592 0.576798 0.690319
O O2 0.398346 0.480146 0.823601
O O3 0.788702 0.662504 0.707523
O O4 0.926669 0.745631 0.568860
O O5 0.641527 0.703900 0.553961
O O6 0.891817 0.623730 0.515677
O O7 0.839490 0.185747 0.901373
O O8 0.604813 0.099865 0.867832
O O9 0.519007 0.624573 0.054322
O O10 0.500000 0.500000 0.000000
O O11 0.215027 0.424274 0.961104
O O12 0.500000 0.000000 0.000000
#
# Coordination Sequence:
#
# PCOD9458138 Si02
#       6
#     4   8   8   8   8   8
#     4  12  20  40  76  96 130 176 234 278 346 414
#     4  12  24  43  69 100 135 188 231 282 357 422
#     4  11  22  43  71  99 132 187 232 283 348 419
#     4  11  23  43  67  96 144 179 230 293 344 419
#     4  11  21  41  65  98 133 177 226 281 346 399
#     4  11  23  39  66  97 136 170 227 287 340 413
#
# _framework density 19.947119000000001
#
# number of rings (size 3 to 8) (size 9 to 14) (size 15 to 20)
#    0.000    0.727    5.455    4.909    0.000    0.000 
#    6.545    0.000    0.000    0.000    0.000    0.000 
#    0.000    0.000    0.000    0.000    0.000    0.000 
#
# Total GULP energy -244938.228459 kJ/mol
# GULP energy per Si atom -5566.777920 kJ/mol
# Density = 1.990172 g / cm^3
# Si number density = 19.947119 Si / 1000 Ang^3
#
#
#
# Elastic Constant Matrix: (Units=GPa)
#
#
# Indices 1 2 3 4 5 6 
#
# 1 90.7160 17.2009 23.1484 0.0000 0.0000 0.0000
# 2 17.2009 118.5660 34.1548 0.0000 0.0000 0.0000
# 3 23.1484 34.1548 70.2615 0.0000 0.0000 0.0000
# 4 0.0000 0.0000 0.0000 35.3203 0.0000 0.0000
# 5 0.0000 0.0000 0.0000 0.0000 23.3631 0.0000
# 6 0.0000 0.0000 0.0000 0.0000 0.0000 42.8391
#
#
#
# Elastic Compliance Matrix: (Units=1/GPa)
#
#
# Indices 1 2 3 4 5 6 
#
# 1 0.012086 -0.000705 -0.003639 0.000000 0.000000 0.000000
# 2 -0.000705 0.009849 -0.004555 0.000000 0.000000 0.000000
# 3 -0.003639 -0.004555 0.017646 0.000000 0.000000 0.000000
# 4 0.000000 0.000000 0.000000 0.028312 0.000000 0.000000
# 5 0.000000 0.000000 0.000000 0.000000 0.042803 0.000000
# 6 0.000000 0.000000 0.000000 0.000000 0.000000 0.023343
#
#
# Mechanical properties :
#
#
# Convention : Reuss Voigt Hill
#
# Bulk Modulus (GPa) = 45.91052 47.61686 46.76369
# Shear Modulus (GPa) = 31.42732 33.97379 32.70056
#
# Velocity S-wave (km/s) = 3.97360 4.13145 4.05330
# Velocity P-wave (km/s) = 6.64220 6.83242 6.73798
#
# Compressibility (1/GPa) = 0.02178150
#
# Stress axis : x y z
#
# Youngs Moduli (GPa) = 82.74248 101.53721 56.67073
#
# Poissons Ratio (x) = 0.07159 0.20623
# Poissons Ratio (y) = 0.05834 0.25815
# Poissons Ratio (z) = 0.30110 0.46252
#
# Static dielectric constant tensor:
#      x y z
#    x 1.970570 0.000000 0.000000 
#    y 0.000000 1.700870 0.000000 
#    z 0.000000 0.000000 1.807540 
# 
# From -- ./inp_files/14894.got.cif
#   From: 2010.05.17/outbox.cif.g08.bks.cpg/sg60_8_cif.got.tgz:14894.got - 2010.06.03 14:59:27.
