data_PCOD9458570
_publ_section_title
;
Structure prediction by ZEFSAII (Michael W. Deem and Ramdas Pophale) SiO2 
 PCOD9458570
Probable space group: P B C N
;
_chemical_formula_sum "Si O2"
_cell_formula_units_Z 48
_cell_length_a 11.749996
_cell_length_b 10.286718
_cell_length_c 18.706826
_cell_angle_alpha 90.000000
_cell_angle_beta 90.000000
_cell_angle_gamma 90.000000
_cell_volume 2261.073394
_symmetry_space_group_name_H-M "P B C N"
_symmetry_group_IT_number 60
_symmetry_cell_setting 'orthorhombic'
loop_
_space_group_symop_operation_xyz
x,y,z
1/2-x,1/2-y,1/2+z
1/2+x,1/2-y,-z
-x,y,1/2-z
-x,-y,-z
1/2+x,1/2+y,1/2-z
1/2-x,1/2+y,z
x,-y,1/2+z
loop_
_atom_site_type_symbol
_atom_site_label
_atom_site_fract_x
_atom_site_fract_y
_atom_site_fract_z
Si Si1 0.978297 0.214947 0.505254
Si Si2 0.268524 0.040402 0.309421
Si Si3 0.684050 0.520656 0.028092
Si Si4 0.223192 0.781583 0.219094
Si Si5 0.018477 0.640564 0.154151
Si Si6 0.358827 0.101706 0.592099
O O1 0.961614 0.316559 0.441356
O O2 0.086356 0.124998 0.490153
O O3 0.988937 0.289840 0.579683
O O4 0.868928 0.120521 0.511346
O O5 0.219884 0.032622 0.389496
O O6 0.223370 0.161316 0.262677
O O7 0.403185 0.075107 0.316017
O O8 0.237997 0.908230 0.268350
O O9 0.787255 0.550894 0.975259
O O10 0.093497 0.743781 0.198853
O O11 0.285170 0.808398 0.144241
O O12 0.101388 0.520914 0.137423
#
# Coordination Sequence:
#
# PCOD9458570 Si02
#       6
#     8   8   8   8   8   8
#     4  11  25  45  75 107 143 186 253 313 367 441
#     4  12  28  47  77 108 154 199 247 306 380 457
#     4  11  26  45  72 110 142 193 249 304 373 442
#     4  12  27  48  73 107 153 197 239 314 377 448
#     4  12  25  48  74 108 144 196 250 307 381 440
#     4  12  25  45  78 102 144 191 250 305 371 440
#
# _framework density 21.228856
#
# number of rings (size 3 to 8) (size 9 to 14) (size 15 to 20)
#    0.000    0.333    5.000    3.000    2.333    0.000 
#    0.000    1.667    0.000    0.000    0.000    0.000 
#    0.000    0.000    0.000    0.000    0.000    0.000 
#
# Total GULP energy -268595.134792 kJ/mol
# GULP energy per Si atom -5595.731975 kJ/mol
# Density = 2.118054 g / cm^3
# Si number density = 21.228856 Si / 1000 Ang^3
#
#
#
# Elastic Constant Matrix: (Units=GPa)
#
#
# Indices 1 2 3 4 5 6 
#
# 1 58.9560 32.5850 22.7547 0.0000 0.0000 0.0000
# 2 32.5850 127.3261 46.9461 0.0000 0.0000 0.0000
# 3 22.7547 46.9461 121.1824 0.0000 0.0000 0.0000
# 4 0.0000 0.0000 0.0000 47.5168 0.0000 0.0000
# 5 0.0000 0.0000 0.0000 0.0000 21.7536 0.0000
# 6 0.0000 0.0000 0.0000 0.0000 0.0000 9.9758
#
#
#
# Elastic Compliance Matrix: (Units=1/GPa)
#
#
# Indices 1 2 3 4 5 6 
#
# 1 0.020199 -0.004399 -0.002089 0.000000 0.000000 0.000000
# 2 -0.004399 0.010121 -0.003095 0.000000 0.000000 0.000000
# 3 -0.002089 -0.003095 0.009843 0.000000 0.000000 0.000000
# 4 0.000000 0.000000 0.000000 0.021045 0.000000 0.000000
# 5 0.000000 0.000000 0.000000 0.000000 0.045969 0.000000
# 6 0.000000 0.000000 0.000000 0.000000 0.000000 0.100242
#
#
# Mechanical properties :
#
#
# Convention : Reuss Voigt Hill
#
# Bulk Modulus (GPa) = 47.62352 56.89290 52.25821
# Shear Modulus (GPa) = 21.40553 29.52783 25.46668
#
# Velocity S-wave (km/s) = 3.17885 3.73356 3.46732
# Velocity P-wave (km/s) = 5.99630 6.74121 6.37964
#
# Compressibility (1/GPa) = 0.02099803
#
# Stress axis : x y z
#
# Youngs Moduli (GPa) = 49.50635 98.80695 101.59400
#
# Poissons Ratio (x) = 0.43468 0.21219
# Poissons Ratio (y) = 0.21779 0.31440
# Poissons Ratio (z) = 0.10340 0.30578
#
# Static dielectric constant tensor:
#      x y z
#    x 1.785170 0.000000 0.000000 
#    y 0.000000 1.752270 0.000000 
#    z 0.000000 0.000000 1.776300 
# 
# From -- ./inp_files/19997.got.cif
#   From: 2010.05.17/outbox.cif.g08.bks.cpg/sg60_10_cif.got.tgz:19997.got - 2010.06.03 14:59:27.
