data_PCOD9458929
_publ_section_title
;
Structure prediction by ZEFSAII (Michael W. Deem and Ramdas Pophale) SiO2 
 PCOD9458929
Probable space group: P B C N
;
_chemical_formula_sum "Si O2"
_cell_formula_units_Z 48
_cell_length_a 15.000000
_cell_length_b 9.000000
_cell_length_c 18.000000
_cell_angle_alpha 90.000000
_cell_angle_beta 90.000000
_cell_angle_gamma 90.000000
_cell_volume 2430.000000
_symmetry_space_group_name_H-M "P B C N"
_symmetry_group_IT_number 60
_symmetry_cell_setting 'orthorhombic'
loop_
_space_group_symop_operation_xyz
x,y,z
1/2-x,1/2-y,1/2+z
1/2+x,1/2-y,-z
-x,y,1/2-z
-x,-y,-z
1/2+x,1/2+y,1/2-z
1/2-x,1/2+y,z
x,-y,1/2+z
loop_
_atom_site_type_symbol
_atom_site_label
_atom_site_fract_x
_atom_site_fract_y
_atom_site_fract_z
Si Si1 0.211454 0.953743 0.334062
Si Si2 0.643447 0.245487 0.586686
Si Si3 0.986786 0.412206 0.336465
Si Si4 0.285596 0.007047 0.165266
Si Si5 0.966998 0.242000 0.666048
Si Si6 0.852928 0.806943 0.410690
O O1 0.290987 0.883233 0.382627
O O2 0.249506 0.986966 0.250291
O O3 0.129850 0.834251 0.337068
O O4 0.174033 0.104762 0.370710
O O5 0.543642 0.196879 0.611491
O O6 0.651320 0.266577 0.497867
O O7 0.879815 0.420505 0.346879
O O8 0.000000 0.371280 0.250000
O O9 0.027366 0.579497 0.346944
O O10 0.208605 0.946138 0.111161
O O11 0.312691 0.174135 0.141270
O O12 0.000000 0.219206 0.750000
O O13 0.043527 0.173848 0.612892
#
# Coordination Sequence:
#
# PCOD9458929 Si02
#       6
#     8   8   8   8   8   8
#     4  12  24  42  69  96 132 176 224 267 325 395
#     4  12  26  41  67 102 134 170 218 277 330 386
#     4  10  22  41  67  95 129 172 224 266 323 390
#     4  11  23  42  68  92 132 177 221 265 323 400
#     4  10  22  42  68  94 131 174 217 273 324 388
#     4  11  25  43  65 100 136 171 217 273 336 382
#
# _framework density 19.753086
#
# number of rings (size 3 to 8) (size 9 to 14) (size 15 to 20)
#    0.000    1.000    3.333    3.000    2.333    6.667 
#    0.000    0.000    0.000    0.000    0.000    0.000 
#    0.000    0.000    0.000    0.000    0.000    0.000 
#
# Total GULP energy -268402.556339 kJ/mol
# GULP energy per Si atom -5591.719924 kJ/mol
# Density = 1.970813 g / cm^3
# Si number density = 19.753086 Si / 1000 Ang^3
#
#
#
# Elastic Constant Matrix: (Units=GPa)
#
#
# Indices 1 2 3 4 5 6 
#
# 1 126.9012 24.6543 47.1526 0.0000 0.0000 0.0000
# 2 24.6543 45.5920 27.8776 0.0000 0.0000 0.0000
# 3 47.1526 27.8776 114.4361 0.0000 0.0000 0.0000
# 4 0.0000 0.0000 0.0000 27.6392 0.0000 0.0000
# 5 0.0000 0.0000 0.0000 0.0000 35.9729 0.0000
# 6 0.0000 0.0000 0.0000 0.0000 0.0000 41.8037
#
#
#
# Elastic Compliance Matrix: (Units=1/GPa)
#
#
# Indices 1 2 3 4 5 6 
#
# 1 0.009708 -0.003295 -0.003198 0.000000 0.000000 0.000000
# 2 -0.003295 0.026891 -0.005193 0.000000 0.000000 0.000000
# 3 -0.003198 -0.005193 0.011321 0.000000 0.000000 0.000000
# 4 0.000000 0.000000 0.000000 0.036180 0.000000 0.000000
# 5 0.000000 0.000000 0.000000 0.000000 0.027799 0.000000
# 6 0.000000 0.000000 0.000000 0.000000 0.000000 0.023921
#
#
# Mechanical properties :
#
#
# Convention : Reuss Voigt Hill
#
# Bulk Modulus (GPa) = 40.73463 54.03317 47.38390
# Shear Modulus (GPa) = 29.87301 33.56613 31.71957
#
# Velocity S-wave (km/s) = 3.89308 4.12671 4.01159
# Velocity P-wave (km/s) = 6.39333 7.07955 6.74517
#
# Compressibility (1/GPa) = 0.02454914
#
# Stress axis : x y z
#
# Youngs Moduli (GPa) = 103.00372 37.18749 88.32984
#
# Poissons Ratio (x) = 0.12252 0.28245
# Poissons Ratio (y) = 0.33936 0.45872
# Poissons Ratio (z) = 0.32937 0.19313
#
# Static dielectric constant tensor:
#      x y z
#    x 1.704390 0.000000 0.000000 
#    y 0.000000 1.716240 0.000000 
#    z 0.000000 0.000000 1.665180 
# 
# From -- ./inp_files/20499.got.cif
#   From: 2010.05.17/outbox.ucp.g08.bks.cvg/sg60_11_cif.got.tgz:20499.got - 2010.06.11 16:26:41.
