data_PCOD9458722
_publ_section_title
;
Structure prediction by ZEFSAII (Michael W. Deem and Ramdas Pophale) SiO2 
 PCOD9458722
Probable space group: P B C N
;
_chemical_formula_sum "Si O2"
_cell_formula_units_Z 40
_cell_length_a 7.830643
_cell_length_b 9.337395
_cell_length_c 23.290743
_cell_angle_alpha 90.000000
_cell_angle_beta 90.000000
_cell_angle_gamma 90.000000
_cell_volume 1702.968047
_symmetry_space_group_name_H-M "P B C N"
_symmetry_group_IT_number 60
_symmetry_cell_setting 'orthorhombic'
loop_
_space_group_symop_operation_xyz
x,y,z
1/2-x,1/2-y,1/2+z
1/2+x,1/2-y,-z
-x,y,1/2-z
-x,-y,-z
1/2+x,1/2+y,1/2-z
1/2-x,1/2+y,z
x,-y,1/2+z
loop_
_atom_site_type_symbol
_atom_site_label
_atom_site_fract_x
_atom_site_fract_y
_atom_site_fract_z
Si Si1 0.434394 0.587922 0.188714
Si Si2 0.282050 0.013854 0.362658
Si Si3 0.352798 0.399194 0.032364
Si Si4 0.821251 0.227072 0.568466
Si Si5 0.353074 0.099223 0.646924
O O1 0.500000 0.641855 0.250000
O O2 0.596438 0.498437 0.164778
O O3 0.280859 0.474451 0.189895
O O4 0.375462 0.728364 0.152561
O O5 0.283691 0.181253 0.375526
O O6 0.271709 0.923226 0.421943
O O7 0.461193 0.964758 0.338213
O O8 0.478648 0.290339 0.064147
O O9 0.222545 0.446207 0.083303
O O10 0.500000 0.500000 0.000000
O O11 0.250682 0.309736 0.985694
#
# Coordination Sequence:
#
# PCOD9458722 Si02
#       5
#     8   8   8   8   8
#     4  12  30  52  79 113 151 205 271 329 402 462
#     4  12  26  48  74 113 152 201 258 319 390 476
#     4  12  26  43  72 113 155 205 257 310 402 476
#     4  12  24  42  71 105 156 197 250 311 376 478
#     4  12  28  51  79 111 157 202 257 335 389 469
#
# _framework density 23.488402000000001
#
# number of rings (size 3 to 8) (size 9 to 14) (size 15 to 20)
#    0.000    0.000    6.000    2.400    8.400    1.600 
#    0.000    0.000    0.000    0.000    0.000    0.000 
#    0.000    0.000    0.000    0.000    0.000    0.000 
#
# Total GULP energy -223086.131306 kJ/mol
# GULP energy per Si atom -5577.153283 kJ/mol
# Density = 2.343494 g / cm^3
# Si number density = 23.488402 Si / 1000 Ang^3
#
#
#
# Elastic Constant Matrix: (Units=GPa)
#
#
# Indices 1 2 3 4 5 6 
#
# 1 182.6483 51.8027 20.1829 0.0000 0.0000 0.0000
# 2 51.8027 69.7965 21.9841 0.0000 0.0000 0.0000
# 3 20.1829 21.9841 53.7523 0.0000 0.0000 0.0000
# 4 0.0000 0.0000 0.0000 23.3315 0.0000 0.0000
# 5 0.0000 0.0000 0.0000 0.0000 32.1559 0.0000
# 6 0.0000 0.0000 0.0000 0.0000 0.0000 26.2224
#
#
#
# Elastic Compliance Matrix: (Units=1/GPa)
#
#
# Indices 1 2 3 4 5 6 
#
# 1 0.006950 -0.004978 -0.000574 0.000000 0.000000 0.000000
# 2 -0.004978 0.020011 -0.006315 0.000000 0.000000 0.000000
# 3 -0.000574 -0.006315 0.021402 0.000000 0.000000 0.000000
# 4 0.000000 0.000000 0.000000 0.042861 0.000000 0.000000
# 5 0.000000 0.000000 0.000000 0.000000 0.031099 0.000000
# 6 0.000000 0.000000 0.000000 0.000000 0.000000 0.038135
#
#
# Mechanical properties :
#
#
# Convention : Reuss Voigt Hill
#
# Bulk Modulus (GPa) = 40.60123 54.90406 47.75264
# Shear Modulus (GPa) = 25.98738 30.49044 28.23891
#
# Velocity S-wave (km/s) = 3.32986 3.60683 3.47111
# Velocity P-wave (km/s) = 5.66631 6.38525 6.03649
#
# Compressibility (1/GPa) = 0.02462979
#
# Stress axis : x y z
#
# Youngs Moduli (GPa) = 143.88127 49.97276 46.72423
#
# Poissons Ratio (x) = 0.24875 0.02681
# Poissons Ratio (y) = 0.71619 0.29507
# Poissons Ratio (z) = 0.08256 0.31559
#
# Static dielectric constant tensor:
#      x y z
#    x 1.899630 0.000000 0.000000 
#    y 0.000000 1.894430 0.000000 
#    z 0.000000 0.000000 2.049540 
# 
# From -- ./inp_files/23851.got.cif
#   From: 2010.05.17/outbox.cif.g08.bks.cpg/sg60_12_cif.got.tgz:23851.got - 2010.06.03 14:59:27.
