data_PCOD9458985
_publ_section_title
;
Structure prediction by ZEFSAII (Michael W. Deem and Ramdas Pophale) SiO2 
 PCOD9458985
Probable space group: P B C A
;
_chemical_formula_sum "Si O2"
_cell_formula_units_Z 56
_cell_length_a 30.846574
_cell_length_b 5.313110
_cell_length_c 13.533467
_cell_angle_alpha 90.000000
_cell_angle_beta 90.000000
_cell_angle_gamma 90.000000
_cell_volume 2218.016699
_symmetry_space_group_name_H-M "P B C A"
_symmetry_group_IT_number 61
_symmetry_cell_setting 'orthorhombic'
loop_
_space_group_symop_operation_xyz
x,y,z
1/2-x,-y,1/2+z
1/2+x,1/2-y,-z
-x,1/2+y,1/2-z
-x,-y,-z
1/2+x,y,1/2-z
1/2-x,1/2+y,z
x,1/2-y,1/2+z
loop_
_atom_site_type_symbol
_atom_site_label
_atom_site_fract_x
_atom_site_fract_y
_atom_site_fract_z
Si Si1 0.269521 0.824899 0.235589
Si Si2 0.945089 0.537177 0.762074
Si Si3 0.263314 0.354927 0.464145
Si Si4 0.064771 0.825640 0.067038
Si Si5 0.863531 0.675346 0.208665
Si Si6 0.142211 0.674172 0.422462
Si Si7 0.491218 0.229057 0.401788
O O1 0.236976 0.608832 0.196487
O O2 0.255056 0.872796 0.351118
O O3 0.318002 0.707043 0.232421
O O4 0.929151 0.306454 0.828655
O O5 0.908189 0.751028 0.764167
O O6 0.991008 0.600049 0.813796
O O7 0.956861 0.458111 0.651410
O O8 0.265672 0.632940 0.508255
O O9 0.310436 0.236814 0.461145
O O10 0.033885 0.069651 0.069620
O O11 0.110006 0.848349 0.013725
O O12 0.035653 0.654014 0.991787
O O13 0.867324 0.408483 0.152529
O O14 0.858999 0.908391 0.132634
#
# Coordination Sequence:
#
# PCOD9458985 Si02
#       7
#     8   8   8   8   8   8   8
#     4  10  16  33  58  96 131 174 228 269 329 413
#     4  12  26  43  70  98 139 182 238 291 355 418
#     4  10  16  32  58  95 130 174 227 268 330 414
#     4  11  27  45  69 101 137 182 236 295 353 425
#     4  12  24  38  67 105 136 178 232 285 341 406
#     4  12  23  39  66 104 137 176 230 287 341 405
#     4  11  25  48  70  97 134 187 233 291 359 429
#
# _framework density 25.247781
#
# number of rings (size 3 to 8) (size 9 to 14) (size 15 to 20)
#    0.000    0.857    8.571    0.429    6.000    0.000 
#    0.000    0.000    0.000    1.714    0.000    0.000 
#    0.000    0.000    0.000    0.000    0.000    0.000 
#
# Total GULP energy -313088.334842 kJ/mol
# GULP energy per Si atom -5590.863122 kJ/mol
# Density = 2.519032 g / cm^3
# Si number density = 25.247781 Si / 1000 Ang^3
#
#
#
# Elastic Constant Matrix: (Units=GPa)
#
#
# Indices 1 2 3 4 5 6 
#
# 1 46.9551 -72.1061 -24.9434 0.0000 0.0000 0.0000
# 2 -72.1061 44.9756 -26.2534 0.0000 0.0000 0.0000
# 3 -24.9434 -26.2534 33.4108 0.0000 0.0000 0.0000
# 4 0.0000 0.0000 0.0000 22.2326 0.0000 0.0000
# 5 0.0000 0.0000 0.0000 0.0000 29.8262 0.0000
# 6 0.0000 0.0000 0.0000 0.0000 0.0000 38.7720
#
#
#
# Elastic Compliance Matrix: (Units=1/GPa)
#
#
# Indices 1 2 3 4 5 6 
#
# 1 -0.003154 -0.011879 -0.011688 0.000000 0.000000 0.000000
# 2 -0.011879 -0.003670 -0.011752 0.000000 0.000000 0.000000
# 3 -0.011688 -0.011752 0.011970 0.000000 0.000000 0.000000
# 4 0.000000 0.000000 0.000000 0.044979 0.000000 0.000000
# 5 0.000000 0.000000 0.000000 0.000000 0.033528 0.000000
# 6 0.000000 0.000000 0.000000 0.000000 0.000000 0.025792
#
#
# Mechanical properties :
#
#
# Convention : Reuss Voigt Hill
#
# Bulk Modulus (GPa) = -15.26899 -13.47383 -14.37141
# Shear Modulus (GPa) = 31.59513 34.74246 33.16879
#
# Velocity S-wave (km/s) = 3.54135 3.71355 3.62847
# Velocity P-wave (km/s) = 3.26509 3.61097 3.44237
#
# Compressibility (1/GPa) = -0.06549221
#
# Stress axis : x y z
#
# Youngs Moduli (GPa) = -317.10029 -272.48008 83.54388
#
# Poissons Ratio (x) = -3.23671 0.97649
# Poissons Ratio (y) = -3.76674 0.98181
# Poissons Ratio (z) = -3.70639 -3.20221
#
# Static dielectric constant tensor:
#      x y z
#    x 1.993460 0.000000 0.000000 
#    y 0.000000 2.109190 0.000000 
#    z 0.000000 0.000000 2.676200 
# 
# From -- ./inp_files/619.got.cif
#   From: 2010.05.17/outbox.cif.g08.bks.cpg/sg61_1_cif.got.tgz:619.got - 2010.06.03 15:17:17.
