data_PCOD9458825
_publ_section_title
;
Structure prediction by ZEFSAII (Michael W. Deem and Ramdas Pophale) SiO2 
 PCOD9458825
Probable space group: P B C N
;
_chemical_formula_sum "Si O2"
_cell_formula_units_Z 20
_cell_length_a 12.709588
_cell_length_b 6.817779
_cell_length_c 9.008922
_cell_angle_alpha 90.000000
_cell_angle_beta 90.000000
_cell_angle_gamma 90.000000
_cell_volume 780.633561
_symmetry_space_group_name_H-M "P B C N"
_symmetry_group_IT_number 60
_symmetry_cell_setting 'orthorhombic'
loop_
_space_group_symop_operation_xyz
x,y,z
1/2-x,1/2-y,1/2+z
1/2+x,1/2-y,-z
-x,y,1/2-z
-x,-y,-z
1/2+x,1/2+y,1/2-z
1/2-x,1/2+y,z
x,-y,1/2+z
loop_
_atom_site_type_symbol
_atom_site_label
_atom_site_fract_x
_atom_site_fract_y
_atom_site_fract_z
Si Si1 0.162084 0.743226 0.755772
Si Si2 0.000000 0.914300 0.250000
Si Si3 0.630039 0.875531 0.917070
O O1 0.273142 0.800476 0.684419
O O2 0.107245 0.593583 0.640710
O O3 0.096233 0.940412 0.779844
O O4 0.166731 0.636673 0.914157
O O5 0.965798 0.770384 0.382486
#
# Coordination Sequence:
#
# PCOD9458825 Si02
#       3
#     8   4   8
#     4  12  27  48  77 112 152 198 251 310 373 445
#     4  12  28  48  80 110 154 200 252 300 382 444
#     4  12  27  48  77 112 152 198 251 310 373 445
#
# _framework density 25.620215000000002
#
# number of rings (size 3 to 8) (size 9 to 14) (size 15 to 20)
#    0.000    0.000    4.000    4.800    0.000   12.800 
#    0.000    0.000    0.000    0.000    0.000    0.000 
#    0.000    0.000    0.000    0.000    0.000    0.000 
#
# Total GULP energy -112310.030453 kJ/mol
# GULP energy per Si atom -5615.501523 kJ/mol
# Density = 2.556190 g / cm^3
# Si number density = 25.620215 Si / 1000 Ang^3
#
#
#
# Elastic Constant Matrix: (Units=GPa)
#
#
# Indices 1 2 3 4 5 6 
#
# 1 95.7020 64.1796 51.2685 0.0000 0.0000 0.0000
# 2 64.1796 143.2785 43.1422 0.0000 0.0000 0.0000
# 3 51.2685 43.1422 189.9075 0.0000 0.0000 0.0000
# 4 0.0000 0.0000 0.0000 29.1904 0.0000 0.0000
# 5 0.0000 0.0000 0.0000 0.0000 37.8655 0.0000
# 6 0.0000 0.0000 0.0000 0.0000 0.0000 36.6444
#
#
#
# Elastic Compliance Matrix: (Units=1/GPa)
#
#
# Indices 1 2 3 4 5 6 
#
# 1 0.016344 -0.006432 -0.002951 0.000000 0.000000 0.000000
# 2 -0.006432 0.010023 -0.000541 0.000000 0.000000 0.000000
# 3 -0.002951 -0.000541 0.006185 0.000000 0.000000 0.000000
# 4 0.000000 0.000000 0.000000 0.034258 0.000000 0.000000
# 5 0.000000 0.000000 0.000000 0.000000 0.026409 0.000000
# 6 0.000000 0.000000 0.000000 0.000000 0.000000 0.027289
#
#
# Mechanical properties :
#
#
# Convention : Reuss Voigt Hill
#
# Bulk Modulus (GPa) = 78.71202 82.89652 80.80427
# Shear Modulus (GPa) = 34.58026 38.75992 36.67009
#
# Velocity S-wave (km/s) = 3.67785 3.89378 3.78735
# Velocity P-wave (km/s) = 6.98747 7.25544 7.12272
#
# Compressibility (1/GPa) = 0.01270454
#
# Stress axis : x y z
#
# Youngs Moduli (GPa) = 61.18600 99.76601 161.67683
#
# Poissons Ratio (x) = 0.64173 0.47710
# Poissons Ratio (y) = 0.39357 0.08740
# Poissons Ratio (z) = 0.18056 0.05393
#
# Static dielectric constant tensor:
#      x y z
#    x 2.033830 0.000000 0.000000 
#    y 0.000000 2.009540 0.000000 
#    z 0.000000 0.000000 1.935740 
# 
# From -- ./inp_files/3259.got.cif
#   From: 2010.05.17/outbox.cif.g08.bks.cpg/sg60_2_cif.got.tgz:3259.got - 2010.06.03 14:59:27.
