data_PCOD9458317
_publ_section_title
;
Structure prediction by ZEFSAII (Michael W. Deem and Ramdas Pophale) SiO2 
 PCOD9458317
Probable space group: P B C N
;
_chemical_formula_sum "Si O2"
_cell_formula_units_Z 64
_cell_length_a 29.961115
_cell_length_b 11.617606
_cell_length_c 8.900315
_cell_angle_alpha 90.000000
_cell_angle_beta 90.000000
_cell_angle_gamma 90.000000
_cell_volume 3097.989866
_symmetry_space_group_name_H-M "P B C N"
_symmetry_group_IT_number 60
_symmetry_cell_setting 'orthorhombic'
loop_
_space_group_symop_operation_xyz
x,y,z
1/2-x,1/2-y,1/2+z
1/2+x,1/2-y,-z
-x,y,1/2-z
-x,-y,-z
1/2+x,1/2+y,1/2-z
1/2-x,1/2+y,z
x,-y,1/2+z
loop_
_atom_site_type_symbol
_atom_site_label
_atom_site_fract_x
_atom_site_fract_y
_atom_site_fract_z
Si Si1 0.681551 0.074835 0.062170
Si Si2 0.725984 0.745422 0.337352
Si Si3 0.238975 0.089756 0.903136
Si Si4 0.137920 0.844851 0.774903
Si Si5 0.633529 0.566542 0.557341
Si Si6 0.034163 0.448900 0.880248
Si Si7 0.893722 0.711643 0.220620
Si Si8 0.109029 0.622335 0.947361
O O1 0.652614 0.147373 0.180016
O O2 0.727298 0.015693 0.116017
O O3 0.648625 0.969468 0.019912
O O4 0.695157 0.165684 0.933413
O O5 0.756611 0.824786 0.236310
O O6 0.752618 0.664103 0.450494
O O7 0.691643 0.668728 0.241023
O O8 0.187396 0.064060 0.929985
O O9 0.122776 0.887364 0.609453
O O10 0.123313 0.720773 0.832463
O O11 0.121279 0.937805 0.895810
O O12 0.614207 0.656164 0.678686
O O13 0.067661 0.340175 0.888560
O O14 0.069847 0.551791 0.865680
O O15 0.000000 0.420691 0.750000
O O16 0.000000 0.500000 0.000000
O O17 0.904461 0.678307 0.392543
#
# Coordination Sequence:
#
# PCOD9458317 Si02
#       8
#     8   8   8   8   8   8   8   8
#     4  11  23  39  63  92 131 174 226 286 346 396
#     4  11  25  41  56  92 124 176 230 293 336 399
#     4  11  25  37  61  82 132 173 235 279 336 388
#     4  11  24  45  61  95 126 182 229 277 338 401
#     4  11  26  41  65  89 134 183 237 281 331 404
#     4  11  24  43  72 111 142 173 215 280 354 427
#     4  11  23  43  66 100 136 180 222 284 348 410
#     4  11  24  39  72  95 139 172 218 273 351 413
#
# _framework density 20.658557999999999
#
# number of rings (size 3 to 8) (size 9 to 14) (size 15 to 20)
#    0.000    1.000    5.000    1.500   10.500    0.000 
#    0.000    0.000    0.000    1.500    0.000    0.000 
#    0.000    0.000    0.000    0.000    0.000    0.000 
#
# Total GULP energy -357315.179192 kJ/mol
# GULP energy per Si atom -5583.049675 kJ/mol
# Density = 2.061154 g / cm^3
# Si number density = 20.658558 Si / 1000 Ang^3
#
#
#
# Elastic Constant Matrix: (Units=GPa)
#
#
# Indices 1 2 3 4 5 6 
#
# 1 79.8159 25.9834 9.2471 0.0000 0.0000 0.0000
# 2 25.9834 87.8310 13.1693 0.0000 0.0000 0.0000
# 3 9.2471 13.1693 32.8128 0.0000 0.0000 0.0000
# 4 0.0000 0.0000 0.0000 27.9463 0.0000 0.0000
# 5 0.0000 0.0000 0.0000 0.0000 30.1241 0.0000
# 6 0.0000 0.0000 0.0000 0.0000 0.0000 16.0114
#
#
#
# Elastic Compliance Matrix: (Units=1/GPa)
#
#
# Indices 1 2 3 4 5 6 
#
# 1 0.014045 -0.003790 -0.002437 0.000000 0.000000 0.000000
# 2 -0.003790 0.013137 -0.004205 0.000000 0.000000 0.000000
# 3 -0.002437 -0.004205 0.032850 0.000000 0.000000 0.000000
# 4 0.000000 0.000000 0.000000 0.035783 0.000000 0.000000
# 5 0.000000 0.000000 0.000000 0.000000 0.033196 0.000000
# 6 0.000000 0.000000 0.000000 0.000000 0.000000 0.062456
#
#
# Mechanical properties :
#
#
# Convention : Reuss Voigt Hill
#
# Bulk Modulus (GPa) = 25.52996 33.02880 29.27938
# Shear Modulus (GPa) = 22.18422 24.95368 23.56895
#
# Velocity S-wave (km/s) = 3.28052 3.47927 3.38136
# Velocity P-wave (km/s) = 5.17049 5.67125 5.42665
#
# Compressibility (1/GPa) = 0.03916967
#
# Stress axis : x y z
#
# Youngs Moduli (GPa) = 71.20057 76.12085 30.44122
#
# Poissons Ratio (x) = 0.28846 0.07419
# Poissons Ratio (y) = 0.26982 0.12799
# Poissons Ratio (z) = 0.17352 0.32005
#
# Static dielectric constant tensor:
#      x y z
#    x 1.764180 0.000000 0.000000 
#    y 0.000000 1.723230 0.000000 
#    z 0.000000 0.000000 1.791880 
# 
# From -- ./inp_files/8519.got.cif
#   From: 2010.05.17/outbox.cif.g08.bks.cpg/sg60_5_cif.got.tgz:8519.got - 2010.06.03 14:59:27.
