data_PCOD9458015
_publ_section_title
;
Structure prediction by ZEFSAII (Michael W. Deem and Ramdas Pophale) SiO2 
 PCOD9458015
Probable space group: P B C N
;
_chemical_formula_sum "Si O2"
_cell_formula_units_Z 40
_cell_length_a 24.030891
_cell_length_b 12.374931
_cell_length_c 7.337886
_cell_angle_alpha 90.000000
_cell_angle_beta 90.000000
_cell_angle_gamma 90.000000
_cell_volume 2182.145073
_symmetry_space_group_name_H-M "P B C N"
_symmetry_group_IT_number 60
_symmetry_cell_setting 'orthorhombic'
loop_
_space_group_symop_operation_xyz
x,y,z
1/2-x,1/2-y,1/2+z
1/2+x,1/2-y,-z
-x,y,1/2-z
-x,-y,-z
1/2+x,1/2+y,1/2-z
1/2-x,1/2+y,z
x,-y,1/2+z
loop_
_atom_site_type_symbol
_atom_site_label
_atom_site_fract_x
_atom_site_fract_y
_atom_site_fract_z
Si Si1 0.058118 0.059409 0.655509
Si Si2 0.675842 0.244690 0.856367
Si Si3 0.177867 0.914773 0.325254
Si Si4 0.266264 0.634261 0.455818
Si Si5 0.059730 0.822115 0.766992
O O1 0.113280 0.068462 0.777627
O O2 0.066823 0.126891 0.469868
O O3 0.000000 0.092936 0.750000
O O4 0.054030 0.928765 0.637634
O O5 0.713449 0.271903 0.680131
O O6 0.702631 0.147678 0.975338
O O7 0.612057 0.249553 0.790609
O O8 0.681897 0.345028 0.993941
O O9 0.200313 0.859105 0.143854
O O10 0.213263 0.023462 0.362130
O O11 0.000000 0.765342 0.750000
#
# Coordination Sequence:
#
# PCOD9458015 Si02
#       5
#     8   8   8   8   8
#     4  11  19  31  53  82 115 154 189 216 273 354
#     4  12  23  37  55  84 115 151 194 238 277 343
#     4  12  21  36  55  81 119 152 185 236 280 329
#     4  12  23  36  56  79 113 152 193 231 283 331
#     4  11  20  32  51  81 114 151 188 229 279 340
#
# _framework density 18.330587000000001
#
# number of rings (size 3 to 8) (size 9 to 14) (size 15 to 20)
#    0.000    0.400    8.000    4.800    0.000    0.000 
#    0.000    0.000    0.000    0.000    0.000    1.400 
#    0.000    0.000    0.000    0.200    0.000    0.000 
#
# Total GULP energy -222946.187983 kJ/mol
# GULP energy per Si atom -5573.654700 kJ/mol
# Density = 1.828887 g / cm^3
# Si number density = 18.330587 Si / 1000 Ang^3
#
#
#
# Elastic Constant Matrix: (Units=GPa)
#
#
# Indices 1 2 3 4 5 6 
#
# 1 154.1570 37.6915 54.7042 0.0000 0.0000 0.0000
# 2 37.6915 23.9228 21.0016 0.0000 0.0000 0.0000
# 3 54.7042 21.0016 112.1733 0.0000 0.0000 0.0000
# 4 0.0000 0.0000 0.0000 -0.8839 0.0000 0.0000
# 5 0.0000 0.0000 0.0000 0.0000 34.9022 0.0000
# 6 0.0000 0.0000 0.0000 0.0000 0.0000 29.4763
#
#
#
# Elastic Compliance Matrix: (Units=1/GPa)
#
#
# Indices 1 2 3 4 5 6 
#
# 1 0.011137 -0.015293 -0.002568 0.000000 0.000000 0.000000
# 2 -0.015293 0.071021 -0.005839 0.000000 0.000000 0.000000
# 3 -0.002568 -0.005839 0.011260 0.000000 0.000000 0.000000
# 4 0.000000 0.000000 0.000000 -1.131287 0.000000 0.000000
# 5 0.000000 0.000000 0.000000 0.000000 0.028651 0.000000
# 6 0.000000 0.000000 0.000000 0.000000 0.000000 0.033926
#
#
# Mechanical properties :
#
#
# Convention : Reuss Voigt Hill
#
# Bulk Modulus (GPa) = 21.73008 57.44974 39.58991
# Shear Modulus (GPa) = -5.47915 24.48930 9.50508
#
# Velocity S-wave (km/s) = -1.73077 3.65907 2.27961
# Velocity P-wave (km/s) = 2.80824 7.01860 5.34541
#
# Compressibility (1/GPa) = 0.04601916
#
# Stress axis : x y z
#
# Youngs Moduli (GPa) = 89.78811 14.08025 88.80629
#
# Poissons Ratio (x) = 0.21533 0.22807
# Poissons Ratio (y) = 1.37310 0.51855
# Poissons Ratio (z) = 0.23060 0.08222
#
# Static dielectric constant tensor:
#      x y z
#    x 1.739750 0.000000 0.000000 
#    y 0.000000 1.636610 0.000000 
#    z 0.000000 0.000000 1.686060 
# 
# From -- ./inp_files/6614.got.cif
#   From: 2010.05.17/outbox.cif.g08.bks.cpg/sg60_4_cif.got.tgz:6614.got - 2010.06.03 14:59:27.
