data_PCOD9458488
_publ_section_title
;
Structure prediction by ZEFSAII (Michael W. Deem and Ramdas Pophale) SiO2 
 PCOD9458488
Probable space group: P B C N
;
_chemical_formula_sum "Si O2"
_cell_formula_units_Z 16
_cell_length_a 5.239422
_cell_length_b 14.713085
_cell_length_c 8.956147
_cell_angle_alpha 90.000000
_cell_angle_beta 90.000000
_cell_angle_gamma 90.000000
_cell_volume 690.412008
_symmetry_space_group_name_H-M "P B C N"
_symmetry_group_IT_number 60
_symmetry_cell_setting 'orthorhombic'
loop_
_space_group_symop_operation_xyz
x,y,z
1/2-x,1/2-y,1/2+z
1/2+x,1/2-y,-z
-x,y,1/2-z
-x,-y,-z
1/2+x,1/2+y,1/2-z
1/2-x,1/2+y,z
x,-y,1/2+z
loop_
_atom_site_type_symbol
_atom_site_label
_atom_site_fract_x
_atom_site_fract_y
_atom_site_fract_z
Si Si1 0.497582 0.401912 0.073844
Si Si2 0.250082 0.274761 0.645744
O O1 0.500000 0.419571 0.250000
O O2 0.277072 0.324609 0.069933
O O3 0.500000 0.500000 0.000000
O O4 0.719009 0.347813 0.985829
O O5 0.500000 0.280950 0.750000
O O6 0.000000 0.287051 0.750000
#
# Coordination Sequence:
#
# PCOD9458488 Si02
#       2
#     8   8
#     4  11  24  44  73 106 143 189 239 296 362 429
#     4  11  25  48  74 104 146 191 242 300 356 425
#
# _framework density 23.174568000000001
#
# number of rings (size 3 to 8) (size 9 to 14) (size 15 to 20)
#    0.000    1.000    0.000    7.500    0.000    2.000 
#    0.000   27.500    0.000    0.000    0.000    0.000 
#    0.000    0.000    0.000    0.000    0.000    0.000 
#
# Total GULP energy -89240.304423 kJ/mol
# GULP energy per Si atom -5577.519026 kJ/mol
# Density = 2.312182 g / cm^3
# Si number density = 23.174568 Si / 1000 Ang^3
#
#
#
# Elastic Constant Matrix: (Units=GPa)
#
#
# Indices 1 2 3 4 5 6 
#
# 1 182.1161 49.3303 93.2612 0.0000 0.0000 0.0000
# 2 49.3303 257.9882 133.6322 0.0000 0.0000 0.0000
# 3 93.2612 133.6322 222.3195 0.0000 0.0000 0.0000
# 4 0.0000 0.0000 0.0000 487.2191 0.0000 0.0000
# 5 0.0000 0.0000 0.0000 0.0000 52.1426 0.0000
# 6 0.0000 0.0000 0.0000 0.0000 0.0000 20.0021
#
#
#
# Elastic Compliance Matrix: (Units=1/GPa)
#
#
# Indices 1 2 3 4 5 6 
#
# 1 0.007006 0.000265 -0.003098 0.000000 0.000000 0.000000
# 2 0.000265 0.005639 -0.003501 0.000000 0.000000 0.000000
# 3 -0.003098 -0.003501 0.007902 0.000000 0.000000 0.000000
# 4 0.000000 0.000000 0.000000 0.002052 0.000000 0.000000
# 5 0.000000 0.000000 0.000000 0.000000 0.019178 0.000000
# 6 0.000000 0.000000 0.000000 0.000000 0.000000 0.049995
#
#
# Mechanical properties :
#
#
# Convention : Reuss Voigt Hill
#
# Bulk Modulus (GPa) = 126.91835 134.98570 130.95202
# Shear Modulus (GPa) = 46.70050 137.61944 92.15997
#
# Velocity S-wave (km/s) = 4.49393 7.71445 6.31301
# Velocity P-wave (km/s) = 9.04501 11.73559 10.47703
#
# Compressibility (1/GPa) = 0.00787908
#
# Stress axis : x y z
#
# Youngs Moduli (GPa) = 142.73903 177.34788 126.55218
#
# Poissons Ratio (x) = -0.04705 0.39210
# Poissons Ratio (y) = -0.03787 0.44300
# Poissons Ratio (z) = 0.44225 0.62082
#
# Static dielectric constant tensor:
#      x y z
#    x 1.941360 0.000000 0.000000 
#    y 0.000000 1.846440 0.000000 
#    z 0.000000 0.000000 1.999840 
# 
# From -- ./inp_files/2788.got.cif
#   From: 2010.05.17/outbox.cif.g08.bks.cpg/sg60_2_cif.got.tgz:2788.got - 2010.06.03 14:59:27.
