data_PCOD9458125
_publ_section_title
;
Structure prediction by ZEFSAII (Michael W. Deem and Ramdas Pophale) SiO2 
 PCOD9458125
Probable space group: P B C N
;
_chemical_formula_sum "Si O2"
_cell_formula_units_Z 32
_cell_length_a 6.395241
_cell_length_b 14.309893
_cell_length_c 17.890667
_cell_angle_alpha 90.000000
_cell_angle_beta 90.000000
_cell_angle_gamma 90.000000
_cell_volume 1637.268227
_symmetry_space_group_name_H-M "P B C N"
_symmetry_group_IT_number 60
_symmetry_cell_setting 'orthorhombic'
loop_
_space_group_symop_operation_xyz
x,y,z
1/2-x,1/2-y,1/2+z
1/2+x,1/2-y,-z
-x,y,1/2-z
-x,-y,-z
1/2+x,1/2+y,1/2-z
1/2-x,1/2+y,z
x,-y,1/2+z
loop_
_atom_site_type_symbol
_atom_site_label
_atom_site_fract_x
_atom_site_fract_y
_atom_site_fract_z
Si Si1 0.524995 0.334878 0.421840
Si Si2 0.669349 0.018908 0.566695
Si Si3 0.814955 0.185824 0.084623
Si Si4 0.925587 0.332854 0.334748
O O1 0.374420 0.418379 0.450652
O O2 0.652012 0.305200 0.495485
O O3 0.379706 0.250886 0.395369
O O4 0.686200 0.355444 0.355484
O O5 0.551537 0.083417 0.626021
O O6 0.500000 0.000000 0.500000
O O7 0.754887 0.921077 0.597796
O O8 0.009366 0.234241 0.126245
O O9 0.000000 0.327868 0.250000
#
# Coordination Sequence:
#
# PCOD9458125 Si02
#       4
#     8   8   8   8
#     4  11  21  40  70  92 137 168 228 282 328 410
#     4  11  23  39  67 101 128 173 231 281 340 413
#     4  11  21  39  66  98 120 178 226 270 335 415
#     4  11  26  44  61  97 139 173 220 293 345 399
#
# _framework density 19.544750000000001
#
# number of rings (size 3 to 8) (size 9 to 14) (size 15 to 20)
#    0.000    1.000    5.000    2.250    0.000    4.000 
#    9.000    0.000    0.000    0.000    0.000    0.000 
#    0.000    0.000    0.000    0.000    0.000    0.000 
#
# Total GULP energy -178491.865480 kJ/mol
# GULP energy per Si atom -5577.870796 kJ/mol
# Density = 1.950027 g / cm^3
# Si number density = 19.544750 Si / 1000 Ang^3
#
#
#
# Elastic Constant Matrix: (Units=GPa)
#
#
# Indices 1 2 3 4 5 6 
#
# 1 105.1760 28.8774 38.4195 0.0000 0.0000 0.0000
# 2 28.8774 128.3028 25.9181 0.0000 0.0000 0.0000
# 3 38.4195 25.9181 102.9545 0.0000 0.0000 0.0000
# 4 0.0000 0.0000 0.0000 15.0817 0.0000 0.0000
# 5 0.0000 0.0000 0.0000 0.0000 15.8037 0.0000
# 6 0.0000 0.0000 0.0000 0.0000 0.0000 34.2639
#
#
#
# Elastic Compliance Matrix: (Units=1/GPa)
#
#
# Indices 1 2 3 4 5 6 
#
# 1 0.011388 -0.001796 -0.003798 0.000000 0.000000 0.000000
# 2 -0.001796 0.008495 -0.001468 0.000000 0.000000 0.000000
# 3 -0.003798 -0.001468 0.011500 0.000000 0.000000 0.000000
# 4 0.000000 0.000000 0.000000 0.066305 0.000000 0.000000
# 5 0.000000 0.000000 0.000000 0.000000 0.063277 0.000000
# 6 0.000000 0.000000 0.000000 0.000000 0.000000 0.029185
#
#
# Mechanical properties :
#
#
# Convention : Reuss Voigt Hill
#
# Bulk Modulus (GPa) = 57.94059 58.09592 58.01826
# Shear Modulus (GPa) = 23.80648 29.24441 26.52544
#
# Velocity S-wave (km/s) = 3.49384 3.87237 3.68797
# Velocity P-wave (km/s) = 6.78125 7.05569 6.91983
#
# Compressibility (1/GPa) = 0.01725906
#
# Stress axis : x y z
#
# Youngs Moduli (GPa) = 87.81014 117.71753 86.95797
#
# Poissons Ratio (x) = 0.21142 0.33023
# Poissons Ratio (y) = 0.15771 0.12768
# Poissons Ratio (z) = 0.33347 0.17285
#
# Static dielectric constant tensor:
#      x y z
#    x 1.780730 0.000000 0.000000 
#    y 0.000000 1.685330 0.000000 
#    z 0.000000 0.000000 1.670210 
# 
# From -- ./inp_files/18374.got.cif
#   From: 2010.05.17/outbox.cif.g08.bks.cpg/sg60_10_cif.got.tgz:18374.got - 2010.06.03 14:59:27.
