data_PCOD9458378
_publ_section_title
;
Structure prediction by ZEFSAII (Michael W. Deem and Ramdas Pophale) SiO2 
 PCOD9458378
Probable space group: P B C N
;
_chemical_formula_sum "Si O2"
_cell_formula_units_Z 24
_cell_length_a 9.401212
_cell_length_b 15.574695
_cell_length_c 7.186193
_cell_angle_alpha 90.000000
_cell_angle_beta 90.000000
_cell_angle_gamma 90.000000
_cell_volume 1052.209634
_symmetry_space_group_name_H-M "P B C N"
_symmetry_group_IT_number 60
_symmetry_cell_setting 'orthorhombic'
loop_
_space_group_symop_operation_xyz
x,y,z
1/2-x,1/2-y,1/2+z
1/2+x,1/2-y,-z
-x,y,1/2-z
-x,-y,-z
1/2+x,1/2+y,1/2-z
1/2-x,1/2+y,z
x,-y,1/2+z
loop_
_atom_site_type_symbol
_atom_site_label
_atom_site_fract_x
_atom_site_fract_y
_atom_site_fract_z
Si Si1 0.331487 0.670244 0.890256
Si Si2 0.903159 0.915185 0.491745
Si Si3 0.338224 0.135704 0.239559
O O1 0.477000 0.658953 0.009493
O O2 0.339654 0.608875 0.710085
O O3 0.326410 0.767738 0.822450
O O4 0.206871 0.642836 0.025776
O O5 0.779042 0.915993 0.642514
O O6 0.000000 0.000000 0.500000
O O7 0.500000 0.104925 0.250000
#
# Coordination Sequence:
#
# PCOD9458378 Si02
#       3
#     8   8   8
#     4  11  23  43  72 104 144 198 249 305 382 459
#     4  11  26  45  72 105 151 202 246 302 394 467
#     4  12  23  43  71 111 146 189 259 318 368 450
#
# _framework density 22.809142000000001
#
# number of rings (size 3 to 8) (size 9 to 14) (size 15 to 20)
#    0.000    0.667    6.667    1.000    9.333    1.333 
#    0.000    1.667    0.000    0.000    0.000    0.000 
#    0.000    0.000    0.000    0.000    0.000    0.000 
#
# Total GULP energy -134271.232933 kJ/mol
# GULP energy per Si atom -5594.634706 kJ/mol
# Density = 2.275723 g / cm^3
# Si number density = 22.809142 Si / 1000 Ang^3
#
#
#
# Elastic Constant Matrix: (Units=GPa)
#
#
# Indices 1 2 3 4 5 6 
#
# 1 136.0452 44.9848 60.8241 0.0000 0.0000 0.0000
# 2 44.9848 106.5915 21.5613 0.0000 0.0000 0.0000
# 3 60.8241 21.5613 76.2153 0.0000 0.0000 0.0000
# 4 0.0000 0.0000 0.0000 25.6482 0.0000 0.0000
# 5 0.0000 0.0000 0.0000 0.0000 60.8581 0.0000
# 6 0.0000 0.0000 0.0000 0.0000 0.0000 40.4989
#
#
#
# Elastic Compliance Matrix: (Units=1/GPa)
#
#
# Indices 1 2 3 4 5 6 
#
# 1 0.012527 -0.003463 -0.009018 0.000000 0.000000 0.000000
# 2 -0.003463 0.010908 -0.000322 0.000000 0.000000 0.000000
# 3 -0.009018 -0.000322 0.020409 0.000000 0.000000 0.000000
# 4 0.000000 0.000000 0.000000 0.038989 0.000000 0.000000
# 5 0.000000 0.000000 0.000000 0.000000 0.016432 0.000000
# 6 0.000000 0.000000 0.000000 0.000000 0.000000 0.024692
#
#
# Mechanical properties :
#
#
# Convention : Reuss Voigt Hill
#
# Bulk Modulus (GPa) = 54.83039 63.73249 59.28144
# Shear Modulus (GPa) = 32.12493 38.16651 35.14572
#
# Velocity S-wave (km/s) = 3.75697 4.09504 3.92964
# Velocity P-wave (km/s) = 6.55063 7.09658 6.82906
#
# Compressibility (1/GPa) = 0.01823806
#
# Stress axis : x y z
#
# Youngs Moduli (GPa) = 79.82594 91.67398 48.99875
#
# Poissons Ratio (x) = 0.31744 0.44186
# Poissons Ratio (y) = 0.27642 0.01580
# Poissons Ratio (z) = 0.71986 0.02956
#
# Static dielectric constant tensor:
#      x y z
#    x 1.867110 0.000000 0.000000 
#    y 0.000000 1.898600 0.000000 
#    z 0.000000 0.000000 1.943610 
# 
# From -- ./inp_files/3373.got.cif
#   From: 2010.05.17/outbox.cif.g08.bks.cpg/sg60_2_cif.got.tgz:3373.got - 2010.06.03 14:59:27.
