data_PCOD9458511
_publ_section_title
;
Structure prediction by ZEFSAII (Michael W. Deem and Ramdas Pophale) SiO2 
 PCOD9458511
Probable space group: P B C N
;
_chemical_formula_sum "Si O2"
_cell_formula_units_Z 56
_cell_length_a 4.915555
_cell_length_b 26.408273
_cell_length_c 17.835837
_cell_angle_alpha 90.000000
_cell_angle_beta 90.000000
_cell_angle_gamma 90.000000
_cell_volume 2315.293515
_symmetry_space_group_name_H-M "P B C N"
_symmetry_group_IT_number 60
_symmetry_cell_setting 'orthorhombic'
loop_
_space_group_symop_operation_xyz
x,y,z
1/2-x,1/2-y,1/2+z
1/2+x,1/2-y,-z
-x,y,1/2-z
-x,-y,-z
1/2+x,1/2+y,1/2-z
1/2-x,1/2+y,z
x,-y,1/2+z
loop_
_atom_site_type_symbol
_atom_site_label
_atom_site_fract_x
_atom_site_fract_y
_atom_site_fract_z
Si Si1 0.664239 0.731577 0.963148
Si Si2 0.641205 0.016508 0.169002
Si Si3 0.525058 0.382267 0.025431
Si Si4 0.500000 0.165686 0.750000
Si Si5 0.818539 0.258154 0.679327
Si Si6 0.047505 0.407732 0.117392
Si Si7 0.332633 0.421040 0.636825
Si Si8 0.000000 0.158393 0.250000
O O1 0.613314 0.672329 0.965923
O O2 0.517774 0.753860 0.890394
O O3 0.980311 0.744732 0.969998
O O4 0.500000 0.022354 0.250000
O O5 0.453278 0.052945 0.118771
O O6 0.946746 0.036731 0.162460
O O7 0.593198 0.958761 0.146589
O O8 0.316130 0.418798 0.069115
O O9 0.816520 0.382098 0.065974
O O10 0.560599 0.395987 0.939191
O O11 0.686959 0.204214 0.702175
O O12 0.372565 0.128602 0.687421
O O13 0.608816 0.304343 0.684597
O O14 0.000000 0.271824 0.750000
O O15 0.307891 0.379946 0.703469
#
# Coordination Sequence:
#
# PCOD9458511 Si02
#       8
#     8   8   8   4   8   8   8   4
#     4  12  27  47  70 104 150 192 240 292 358 428
#     4  12  25  48  74 106 139 189 240 303 359 425
#     4  12  27  46  72 108 146 193 233 304 364 422
#     4  11  24  46  70 106 138 184 234 305 342 440
#     4  11  26  44  74 102 141 186 243 293 351 420
#     4  12  26  47  77 105 142 187 244 293 372 422
#     4  12  27  47  71 104 149 182 242 293 355 438
#     4  11  26  44  72 104 136 194 236 287 350 428
#
# _framework density 24.186999
#
# number of rings (size 3 to 8) (size 9 to 14) (size 15 to 20)
#    0.000    0.286    3.571    4.286    8.000    3.429 
#    0.000    0.000    0.000    0.000    0.000    0.000 
#    0.000    0.000    0.000    0.000    0.000    0.000 
#
# Total GULP energy -313594.602432 kJ/mol
# GULP energy per Si atom -5599.903615 kJ/mol
# Density = 2.413195 g / cm^3
# Si number density = 24.186999 Si / 1000 Ang^3
#
#
#
# Elastic Constant Matrix: (Units=GPa)
#
#
# Indices 1 2 3 4 5 6 
#
# 1 86.2148 5.6247 3.3163 0.0000 0.0000 0.0000
# 2 5.6247 113.3913 15.5455 0.0000 0.0000 0.0000
# 3 3.3163 15.5455 97.1559 0.0000 0.0000 0.0000
# 4 0.0000 0.0000 0.0000 21.5878 0.0000 0.0000
# 5 0.0000 0.0000 0.0000 0.0000 33.1426 0.0000
# 6 0.0000 0.0000 0.0000 0.0000 0.0000 26.4752
#
#
#
# Elastic Compliance Matrix: (Units=1/GPa)
#
#
# Indices 1 2 3 4 5 6 
#
# 1 0.011646 -0.000535 -0.000312 0.000000 0.000000 0.000000
# 2 -0.000535 0.009041 -0.001428 0.000000 0.000000 0.000000
# 3 -0.000312 -0.001428 0.010532 0.000000 0.000000 0.000000
# 4 0.000000 0.000000 0.000000 0.046323 0.000000 0.000000
# 5 0.000000 0.000000 0.000000 0.000000 0.030173 0.000000
# 6 0.000000 0.000000 0.000000 0.000000 0.000000 0.037771
#
#
# Mechanical properties :
#
#
# Convention : Reuss Voigt Hill
#
# Bulk Modulus (GPa) = 37.49723 38.41499 37.95611
# Shear Modulus (GPa) = 31.46126 34.39282 32.92704
#
# Velocity S-wave (km/s) = 3.61051 3.77497 3.69365
# Velocity P-wave (km/s) = 5.73740 5.90911 5.82388
#
# Compressibility (1/GPa) = 0.02666864
#
# Stress axis : x y z
#
# Youngs Moduli (GPa) = 85.86762 110.60260 94.94929
#
# Poissons Ratio (x) = 0.05916 0.02962
# Poissons Ratio (y) = 0.04593 0.13563
# Poissons Ratio (z) = 0.02678 0.15799
#
# Static dielectric constant tensor:
#      x y z
#    x 1.996390 0.000000 0.000000 
#    y 0.000000 1.917550 0.000000 
#    z 0.000000 0.000000 1.998840 
# 
# From -- ./inp_files/21745.got.cif
#   From: 2010.05.17/outbox.cif.g08.bks.cpg/sg60_11_cif.got.tgz:21745.got - 2010.06.03 14:59:27.
