data_PCOD9458375
_publ_section_title
;
Structure prediction by ZEFSAII (Michael W. Deem and Ramdas Pophale) SiO2 
 PCOD9458375
Probable space group: P B C N
;
_chemical_formula_sum "Si O2"
_cell_formula_units_Z 48
_cell_length_a 17.007225
_cell_length_b 9.611480
_cell_length_c 13.994423
_cell_angle_alpha 90.000000
_cell_angle_beta 90.000000
_cell_angle_gamma 90.000000
_cell_volume 2287.592799
_symmetry_space_group_name_H-M "P B C N"
_symmetry_group_IT_number 60
_symmetry_cell_setting 'orthorhombic'
loop_
_space_group_symop_operation_xyz
x,y,z
1/2-x,1/2-y,1/2+z
1/2+x,1/2-y,-z
-x,y,1/2-z
-x,-y,-z
1/2+x,1/2+y,1/2-z
1/2-x,1/2+y,z
x,-y,1/2+z
loop_
_atom_site_type_symbol
_atom_site_label
_atom_site_fract_x
_atom_site_fract_y
_atom_site_fract_z
Si Si1 0.187269 0.903262 0.326643
Si Si2 0.670663 0.471240 0.957749
Si Si3 0.373457 0.873505 0.340223
Si Si4 0.334775 0.195885 0.054707
Si Si5 0.586422 0.842777 0.747079
Si Si6 0.415648 0.609958 0.214663
O O1 0.158786 0.955876 0.429286
O O2 0.280652 0.895631 0.322139
O O3 0.149534 0.755049 0.304387
O O4 0.153754 0.011042 0.251215
O O5 0.751594 0.385641 0.940508
O O6 0.677274 0.636817 0.936949
O O7 0.600238 0.398702 0.898233
O O8 0.376034 0.833389 0.452282
O O9 0.403455 0.755136 0.268535
O O10 0.416799 0.014591 0.311614
O O11 0.384831 0.142182 0.144188
O O12 0.500000 0.777737 0.750000
O O13 0.500000 0.557314 0.250000
#
# Coordination Sequence:
#
# PCOD9458375 Si02
#       6
#     8   8   8   8   8   8
#     4  11  23  43  70  95 128 178 227 276 324 391
#     4  11  25  42  70 101 131 177 232 276 325 398
#     4  11  25  45  68  97 133 178 226 278 326 396
#     4  11  25  44  69 100 132 176 232 276 329 393
#     4  12  27  44  68 101 142 177 217 276 346 401
#     4  12  25  42  67 101 136 174 218 275 341 394
#
# _framework density 20.982754
#
# number of rings (size 3 to 8) (size 9 to 14) (size 15 to 20)
#    0.000    0.667    3.333    4.000    9.333    2.667 
#    0.000    0.000    0.000    0.000    0.000    0.000 
#    0.000    0.000    0.000    0.000    0.000    0.000 
#
# Total GULP energy -268357.808326 kJ/mol
# GULP energy per Si atom -5590.787673 kJ/mol
# Density = 2.093500 g / cm^3
# Si number density = 20.982754 Si / 1000 Ang^3
#
#
#
# Elastic Constant Matrix: (Units=GPa)
#
#
# Indices 1 2 3 4 5 6 
#
# 1 45.7514 -17.7416 15.3940 0.0000 0.0000 0.0000
# 2 -17.7416 76.2110 7.9453 0.0000 0.0000 0.0000
# 3 15.3940 7.9453 63.7653 0.0000 0.0000 0.0000
# 4 0.0000 0.0000 0.0000 34.1142 0.0000 0.0000
# 5 0.0000 0.0000 0.0000 0.0000 -2.3547 0.0000
# 6 0.0000 0.0000 0.0000 0.0000 0.0000 19.0011
#
#
#
# Elastic Compliance Matrix: (Units=1/GPa)
#
#
# Indices 1 2 3 4 5 6 
#
# 1 0.027103 0.007084 -0.007426 0.000000 0.000000 0.000000
# 2 0.007084 0.015146 -0.003597 0.000000 0.000000 0.000000
# 3 -0.007426 -0.003597 0.017923 0.000000 0.000000 0.000000
# 4 0.000000 0.000000 0.000000 0.029313 0.000000 0.000000
# 5 0.000000 0.000000 0.000000 0.000000 -0.424690 0.000000
# 6 0.000000 0.000000 0.000000 0.000000 0.000000 0.052628
#
#
# Mechanical properties :
#
#
# Convention : Reuss Voigt Hill
#
# Bulk Modulus (GPa) = 19.12308 21.88035 20.50171
# Shear Modulus (GPa) = -19.43505 22.16081 1.36288
#
# Velocity S-wave (km/s) = -3.04672 3.25336 0.80681
# Velocity P-wave (km/s) = 1.80088 4.95610 3.26495
#
# Compressibility (1/GPa) = 0.05229284
#
# Stress axis : x y z
#
# Youngs Moduli (GPa) = 36.89675 66.02618 55.79293
#
# Poissons Ratio (x) = -0.46770 0.41430
# Poissons Ratio (y) = -0.26136 0.20070
# Poissons Ratio (z) = 0.27398 0.23751
#
# Static dielectric constant tensor:
#      x y z
#    x 1.723440 0.000000 0.000000 
#    y 0.000000 1.741710 0.000000 
#    z 0.000000 0.000000 1.757800 
# 
# From -- ./inp_files/17316.got.cif
#   From: 2010.05.17/outbox.cif.g08.bks.cpg/sg60_9_cif.got.tgz:17316.got - 2010.06.03 14:59:27.
