data_PCOD9458773
_publ_section_title
;
Structure prediction by ZEFSAII (Michael W. Deem and Ramdas Pophale) SiO2 
 PCOD9458773
Probable space group: P B C N
;
_chemical_formula_sum "Si O2"
_cell_formula_units_Z 32
_cell_length_a 17.885905
_cell_length_b 9.390457
_cell_length_c 8.653182
_cell_angle_alpha 90.000000
_cell_angle_beta 90.000000
_cell_angle_gamma 90.000000
_cell_volume 1453.360947
_symmetry_space_group_name_H-M "P B C N"
_symmetry_group_IT_number 60
_symmetry_cell_setting 'orthorhombic'
loop_
_space_group_symop_operation_xyz
x,y,z
1/2-x,1/2-y,1/2+z
1/2+x,1/2-y,-z
-x,y,1/2-z
-x,-y,-z
1/2+x,1/2+y,1/2-z
1/2-x,1/2+y,z
x,-y,1/2+z
loop_
_atom_site_type_symbol
_atom_site_label
_atom_site_fract_x
_atom_site_fract_y
_atom_site_fract_z
Si Si1 0.799324 0.588926 0.891731
Si Si2 0.949083 0.399654 0.898561
Si Si3 0.707715 0.377439 0.698188
Si Si4 0.546609 0.616085 0.094470
O O1 0.873177 0.490437 0.880259
O O2 0.735892 0.487851 0.823981
O O3 0.806290 0.726220 0.781620
O O4 0.770568 0.632532 0.062809
O O5 0.000000 0.368586 0.750000
O O6 0.937813 0.254016 0.990173
O O7 0.000000 0.500000 0.000000
O O8 0.629061 0.436018 0.637201
O O9 0.500000 0.652458 0.250000
O O10 0.500000 0.500000 0.000000
#
# Coordination Sequence:
#
# PCOD9458773 Si02
#       4
#     8   8   8   8
#     4  12  26  45  71 103 142 185 233 290 353 420
#     4  12  25  45  70 100 138 183 232 288 351 419
#     4  12  25  45  69 102 139 183 232 288 351 421
#     4  12  26  45  70 103 139 183 234 290 349 416
#
# _framework density 22.017931000000001
#
# number of rings (size 3 to 8) (size 9 to 14) (size 15 to 20)
#    0.000    0.000    0.000   12.000    0.000    4.000 
#    0.000    0.000    0.000    0.000    0.000    0.000 
#    0.000    0.000    0.000    0.000    0.000    0.000 
#
# Total GULP energy -179184.621753 kJ/mol
# GULP energy per Si atom -5599.519430 kJ/mol
# Density = 2.196782 g / cm^3
# Si number density = 22.017931 Si / 1000 Ang^3
#
#
#
# Elastic Constant Matrix: (Units=GPa)
#
#
# Indices 1 2 3 4 5 6 
#
# 1 100.3652 21.3346 20.3941 0.0000 0.0000 0.0000
# 2 21.3346 113.0336 26.0890 0.0000 0.0000 0.0000
# 3 20.3941 26.0890 114.9605 0.0000 0.0000 0.0000
# 4 0.0000 0.0000 0.0000 9.7165 0.0000 0.0000
# 5 0.0000 0.0000 0.0000 0.0000 49.5040 0.0000
# 6 0.0000 0.0000 0.0000 0.0000 0.0000 39.8589
#
#
#
# Elastic Compliance Matrix: (Units=1/GPa)
#
#
# Indices 1 2 3 4 5 6 
#
# 1 0.010622 -0.001657 -0.001508 0.000000 0.000000 0.000000
# 2 -0.001657 0.009594 -0.001883 0.000000 0.000000 0.000000
# 3 -0.001508 -0.001883 0.009394 0.000000 0.000000 0.000000
# 4 0.000000 0.000000 0.000000 0.102918 0.000000 0.000000
# 5 0.000000 0.000000 0.000000 0.000000 0.020200 0.000000
# 6 0.000000 0.000000 0.000000 0.000000 0.000000 0.025088
#
#
# Mechanical properties :
#
#
# Convention : Reuss Voigt Hill
#
# Bulk Modulus (GPa) = 51.24763 51.55496 51.40130
# Shear Modulus (GPa) = 25.71773 37.18533 31.45153
#
# Velocity S-wave (km/s) = 3.42136 4.11404 3.78359
# Velocity P-wave (km/s) = 6.23968 6.78476 6.51792
#
# Compressibility (1/GPa) = 0.01951310
#
# Stress axis : x y z
#
# Youngs Moduli (GPa) = 94.14158 104.22812 106.45482
#
# Poissons Ratio (x) = 0.17268 0.16058
# Poissons Ratio (y) = 0.15597 0.20050
# Poissons Ratio (z) = 0.14201 0.19631
#
# Static dielectric constant tensor:
#      x y z
#    x 1.746670 0.000000 0.000000 
#    y 0.000000 1.611290 0.000000 
#    z 0.000000 0.000000 1.793560 
# 
# From -- ./inp_files/7142.got.cif
#   From: 2010.05.17/outbox.cif.g08.bks.cpg/sg60_4_cif.got.tgz:7142.got - 2010.06.03 14:59:27.
