data_PCOD9458403
_publ_section_title
;
Structure prediction by ZEFSAII (Michael W. Deem and Ramdas Pophale) SiO2 
 PCOD9458403
Probable space group: P B C N
;
_chemical_formula_sum "Si O2"
_cell_formula_units_Z 40
_cell_length_a 5.308688
_cell_length_b 13.194010
_cell_length_c 22.161640
_cell_angle_alpha 90.000000
_cell_angle_beta 90.000000
_cell_angle_gamma 90.000000
_cell_volume 1552.265148
_symmetry_space_group_name_H-M "P B C N"
_symmetry_group_IT_number 60
_symmetry_cell_setting 'orthorhombic'
loop_
_space_group_symop_operation_xyz
x,y,z
1/2-x,1/2-y,1/2+z
1/2+x,1/2-y,-z
-x,y,1/2-z
-x,-y,-z
1/2+x,1/2+y,1/2-z
1/2-x,1/2+y,z
x,-y,1/2+z
loop_
_atom_site_type_symbol
_atom_site_label
_atom_site_fract_x
_atom_site_fract_y
_atom_site_fract_z
Si Si1 0.672728 0.678343 0.653996
Si Si2 0.942486 0.373261 0.861202
Si Si3 0.581237 0.757226 0.427041
Si Si4 0.574225 0.392941 0.472413
Si Si5 0.554380 0.465925 0.684536
O O1 0.496352 0.769787 0.676534
O O2 0.586119 0.635057 0.587432
O O3 0.648495 0.580582 0.694641
O O4 0.940059 0.727975 0.636644
O O5 0.826432 0.315865 0.918968
O O6 0.719700 0.450851 0.845272
O O7 0.215512 0.424174 0.856374
O O8 0.432633 0.692350 0.475537
O O9 0.645836 0.870984 0.447935
O O10 0.500000 0.500000 0.500000
O O11 0.500000 0.417475 0.750000
#
# Coordination Sequence:
#
# PCOD9458403 Si02
#       5
#     8   8   8   8   8
#     4  11  26  47  74 108 157 196 255 317 374 460
#     4  11  26  50  74 107 150 191 248 318 377 455
#     4  11  23  45  69 113 153 206 252 298 381 463
#     4  11  24  39  69 108 156 202 246 302 369 457
#     4  12  28  49  79 109 141 194 259 322 395 451
#
# _framework density 25.768795000000001
#
# number of rings (size 3 to 8) (size 9 to 14) (size 15 to 20)
#    0.000    0.800    4.000    1.800    8.400    2.400 
#    0.000    0.000    0.000    0.000    0.000    0.000 
#    0.000    0.000    0.000    0.000    0.000    0.000 
#
# Total GULP energy -222740.996130 kJ/mol
# GULP energy per Si atom -5568.524903 kJ/mol
# Density = 2.571014 g / cm^3
# Si number density = 25.768795 Si / 1000 Ang^3
#
#
#
# Elastic Constant Matrix: (Units=GPa)
#
#
# Indices 1 2 3 4 5 6 
#
# 1 150.6448 34.7478 23.9684 0.0000 0.0000 0.0000
# 2 34.7478 101.6475 -7.9234 0.0000 0.0000 0.0000
# 3 23.9684 -7.9234 66.2770 0.0000 0.0000 0.0000
# 4 0.0000 0.0000 0.0000 15.6068 0.0000 0.0000
# 5 0.0000 0.0000 0.0000 0.0000 17.9736 0.0000
# 6 0.0000 0.0000 0.0000 0.0000 0.0000 34.0954
#
#
#
# Elastic Compliance Matrix: (Units=1/GPa)
#
#
# Indices 1 2 3 4 5 6 
#
# 1 0.007817 -0.002920 -0.003176 0.000000 0.000000 0.000000
# 2 -0.002920 0.011021 0.002373 0.000000 0.000000 0.000000
# 3 -0.003176 0.002373 0.016521 0.000000 0.000000 0.000000
# 4 0.000000 0.000000 0.000000 0.064075 0.000000 0.000000
# 5 0.000000 0.000000 0.000000 0.000000 0.055637 0.000000
# 6 0.000000 0.000000 0.000000 0.000000 0.000000 0.029329
#
#
# Mechanical properties :
#
#
# Convention : Reuss Voigt Hill
#
# Bulk Modulus (GPa) = 35.82437 46.68387 41.25412
# Shear Modulus (GPa) = 24.85719 31.38691 28.12205
#
# Velocity S-wave (km/s) = 3.10921 3.49380 3.30710
# Velocity P-wave (km/s) = 5.17899 5.86782 5.53413
#
# Compressibility (1/GPa) = 0.02791396
#
# Stress axis : x y z
#
# Youngs Moduli (GPa) = 127.92772 90.73559 60.53084
#
# Poissons Ratio (x) = 0.26492 0.19224
# Poissons Ratio (y) = 0.37352 -0.14367
# Poissons Ratio (z) = 0.40629 -0.21536
#
# Static dielectric constant tensor:
#      x y z
#    x 2.202550 0.000000 0.000000 
#    y 0.000000 2.068030 0.000000 
#    z 0.000000 0.000000 2.161100 
# 
# From -- ./inp_files/24756.got.cif
#   From: 2010.05.17/outbox.cif.g08.bks.cpg/sg60_13_cif.got.tgz:24756.got - 2010.06.03 14:59:27.
