data_PCOD9458127
_publ_section_title
;
Structure prediction by ZEFSAII (Michael W. Deem and Ramdas Pophale) SiO2 
 PCOD9458127
Probable space group: P B C N
;
_chemical_formula_sum "Si O2"
_cell_formula_units_Z 32
_cell_length_a 7.156153
_cell_length_b 20.360376
_cell_length_c 9.581086
_cell_angle_alpha 90.000000
_cell_angle_beta 90.000000
_cell_angle_gamma 90.000000
_cell_volume 1395.983065
_symmetry_space_group_name_H-M "P B C N"
_symmetry_group_IT_number 60
_symmetry_cell_setting 'orthorhombic'
loop_
_space_group_symop_operation_xyz
x,y,z
1/2-x,1/2-y,1/2+z
1/2+x,1/2-y,-z
-x,y,1/2-z
-x,-y,-z
1/2+x,1/2+y,1/2-z
1/2-x,1/2+y,z
x,-y,1/2+z
loop_
_atom_site_type_symbol
_atom_site_label
_atom_site_fract_x
_atom_site_fract_y
_atom_site_fract_z
Si Si1 0.629643 0.327161 0.623087
Si Si2 0.283213 0.552949 0.565934
Si Si3 0.767338 0.065584 0.618088
Si Si4 0.133111 0.203717 0.876923
O O1 0.500000 0.352660 0.750000
O O2 0.733251 0.385074 0.538804
O O3 0.494411 0.290323 0.512990
O O4 0.769685 0.270342 0.669660
O O5 0.202717 0.488989 0.489967
O O6 0.207807 0.555960 0.722529
O O7 0.508013 0.554270 0.595708
O O8 0.732132 0.142309 0.588857
O O9 0.000000 0.181699 0.750000
#
# Coordination Sequence:
#
# PCOD9458127 Si02
#       4
#     8   8   8   8
#     4  11  23  34  60  83 111 151 184 225 281 329
#     4   9  18  31  51  82 106 139 184 231 272 313
#     4   9  17  32  53  77 112 136 181 238 267 313
#     4  11  21  40  54  84 116 145 186 231 275 330
#
# _framework density 22.922913999999999
#
# number of rings (size 3 to 8) (size 9 to 14) (size 15 to 20)
#    0.000    2.000    5.000    1.500   10.500    0.000 
#    0.000    0.000    0.000    3.000    0.000    0.000 
#    0.000    0.000    0.000    0.000    0.000    0.000 
#
# Total GULP energy -178495.393306 kJ/mol
# GULP energy per Si atom -5577.981041 kJ/mol
# Density = 2.287074 g / cm^3
# Si number density = 22.922914 Si / 1000 Ang^3
#
#
#
# Elastic Constant Matrix: (Units=GPa)
#
#
# Indices 1 2 3 4 5 6 
#
# 1 48.5038 16.8787 12.7803 0.0000 0.0000 0.0000
# 2 16.8787 119.5894 36.9591 0.0000 0.0000 0.0000
# 3 12.7803 36.9591 88.1066 0.0000 0.0000 0.0000
# 4 0.0000 0.0000 0.0000 36.8644 0.0000 0.0000
# 5 0.0000 0.0000 0.0000 0.0000 0.6218 0.0000
# 6 0.0000 0.0000 0.0000 0.0000 0.0000 -13.1008
#
#
#
# Elastic Compliance Matrix: (Units=1/GPa)
#
#
# Indices 1 2 3 4 5 6 
#
# 1 0.022038 -0.002439 -0.002174 0.000000 0.000000 0.000000
# 2 -0.002439 0.009877 -0.003790 0.000000 0.000000 0.000000
# 3 -0.002174 -0.003790 0.013255 0.000000 0.000000 0.000000
# 4 0.000000 0.000000 0.000000 0.027126 0.000000 0.000000
# 5 0.000000 0.000000 0.000000 0.000000 1.608338 0.000000
# 6 0.000000 0.000000 0.000000 0.000000 0.000000 -0.076331
#
#
# Mechanical properties :
#
#
# Convention : Reuss Voigt Hill
#
# Bulk Modulus (GPa) = 35.25299 43.27068 39.26184
# Shear Modulus (GPa) = 3.06642 17.51585 10.29114
#
# Velocity S-wave (km/s) = 1.15785 2.76727 2.12113
# Velocity P-wave (km/s) = 4.14726 5.39703 4.81289
#
# Compressibility (1/GPa) = 0.02836639
#
# Stress axis : x y z
#
# Youngs Moduli (GPa) = 45.37553 101.24209 75.44392
#
# Poissons Ratio (x) = 0.24689 0.16400
# Poissons Ratio (y) = 0.11065 0.28590
# Poissons Ratio (z) = 0.09864 0.38367
#
# Static dielectric constant tensor:
#      x y z
#    x 1.975090 0.000000 0.000000 
#    y 0.000000 1.859270 0.000000 
#    z 0.000000 0.000000 1.837550 
# 
# From -- ./inp_files/3607.got.cif
#   From: 2010.05.17/outbox.cif.g08.bks.cpg/sg60_2_cif.got.tgz:3607.got - 2010.06.03 14:59:27.
