data_PCOD9458013
_publ_section_title
;
Structure prediction by ZEFSAII (Michael W. Deem and Ramdas Pophale) SiO2 
 PCOD9458013
Probable space group: P B C N
;
_chemical_formula_sum "Si O2"
_cell_formula_units_Z 40
_cell_length_a 28.818445
_cell_length_b 7.909753
_cell_length_c 8.182340
_cell_angle_alpha 90.000000
_cell_angle_beta 90.000000
_cell_angle_gamma 90.000000
_cell_volume 1865.138071
_symmetry_space_group_name_H-M "P B C N"
_symmetry_group_IT_number 60
_symmetry_cell_setting 'orthorhombic'
loop_
_space_group_symop_operation_xyz
x,y,z
1/2-x,1/2-y,1/2+z
1/2+x,1/2-y,-z
-x,y,1/2-z
-x,-y,-z
1/2+x,1/2+y,1/2-z
1/2-x,1/2+y,z
x,-y,1/2+z
loop_
_atom_site_type_symbol
_atom_site_label
_atom_site_fract_x
_atom_site_fract_y
_atom_site_fract_z
Si Si1 0.532286 0.616591 0.383969
Si Si2 0.653790 0.317045 0.455650
Si Si3 0.704026 0.133748 0.700596
Si Si4 0.764171 0.064666 0.408499
Si Si5 0.402219 0.609105 0.847538
O O1 0.500000 0.711751 0.250000
O O2 0.500000 0.500000 0.500000
O O3 0.567643 0.703694 0.512453
O O4 0.562955 0.493158 0.270977
O O5 0.660597 0.161972 0.581754
O O6 0.704557 0.397921 0.423608
O O7 0.627596 0.467666 0.555209
O O8 0.628995 0.288607 0.281971
O O9 0.749639 0.125843 0.586004
O O10 0.706226 0.298038 0.813613
O O11 0.715777 0.977295 0.816522
#
# Coordination Sequence:
#
# PCOD9458013 Si02
#       5
#     8   8   8   8   8
#     4   8  14  26  43  65  98 136 161 183 239 320
#     4  11  19  31  48  70  98 130 178 211 253 301
#     4  12  22  36  51  70  97 135 190 225 259 302
#     4  12  22  36  52  70  97 139 188 222 261 297
#     4   9  17  27  44  71  98 132 164 199 253 306
#
# _framework density 21.446135000000002
#
# number of rings (size 3 to 8) (size 9 to 14) (size 15 to 20)
#    0.000    1.600    6.000    0.000    0.000    0.000 
#    0.000    0.000    0.000    0.000    0.000    0.000 
#    0.000    0.000    0.000  334.800    2.000    0.200 
#
# Total GULP energy -222706.965130 kJ/mol
# GULP energy per Si atom -5567.674128 kJ/mol
# Density = 2.139732 g / cm^3
# Si number density = 21.446135 Si / 1000 Ang^3
#
#
#
# Elastic Constant Matrix: (Units=GPa)
#
#
# Indices 1 2 3 4 5 6 
#
# 1 56.7463 -0.1660 22.8702 0.0000 0.0000 0.0000
# 2 -0.1660 14.6494 9.9753 0.0000 0.0000 0.0000
# 3 22.8702 9.9753 114.1791 0.0000 0.0000 0.0000
# 4 0.0000 0.0000 0.0000 23.4004 0.0000 0.0000
# 5 0.0000 0.0000 0.0000 0.0000 67.7955 0.0000
# 6 0.0000 0.0000 0.0000 0.0000 0.0000 2.6733
#
#
#
# Elastic Compliance Matrix: (Units=1/GPa)
#
#
# Indices 1 2 3 4 5 6 
#
# 1 0.019296 0.003031 -0.004130 0.000000 0.000000 0.000000
# 2 0.003031 0.073056 -0.006990 0.000000 0.000000 0.000000
# 3 -0.004130 -0.006990 0.010196 0.000000 0.000000 0.000000
# 4 0.000000 0.000000 0.000000 0.042734 0.000000 0.000000
# 5 0.000000 0.000000 0.000000 0.000000 0.014750 0.000000
# 6 0.000000 0.000000 0.000000 0.000000 0.000000 0.374073
#
#
# Mechanical properties :
#
#
# Convention : Reuss Voigt Hill
#
# Bulk Modulus (GPa) = 11.57804 27.88153 19.72979
# Shear Modulus (GPa) = 8.63450 28.96687 18.80068
#
# Velocity S-wave (km/s) = 2.00870 3.67915 2.96403
# Velocity P-wave (km/s) = 3.28485 5.57469 4.57533
#
# Compressibility (1/GPa) = 0.08637041
#
# Stress axis : x y z
#
# Youngs Moduli (GPa) = 51.82544 13.68813 98.07757
#
# Poissons Ratio (x) = -0.04149 0.40503
# Poissons Ratio (y) = -0.15707 0.68553
# Poissons Ratio (z) = 0.21402 0.09568
#
# Static dielectric constant tensor:
#      x y z
#    x 1.866180 0.000000 0.000000 
#    y 0.000000 1.728920 0.000000 
#    z 0.000000 0.000000 1.848550 
# 
# From -- ./inp_files/8093.got.cif
#   From: 2010.05.17/outbox.cif.g08.bks.cpg/sg60_5_cif.got.tgz:8093.got - 2010.06.03 14:59:27.
