data_PCOD9458336
_publ_section_title
;
Structure prediction by ZEFSAII (Michael W. Deem and Ramdas Pophale) SiO2 
 PCOD9458336
Probable space group: P B C N
;
_chemical_formula_sum "Si O2"
_cell_formula_units_Z 40
_cell_length_a 28.463232
_cell_length_b 7.564143
_cell_length_c 7.752056
_cell_angle_alpha 90.000000
_cell_angle_beta 90.000000
_cell_angle_gamma 90.000000
_cell_volume 1669.017324
_symmetry_space_group_name_H-M "P B C N"
_symmetry_group_IT_number 60
_symmetry_cell_setting 'orthorhombic'
loop_
_space_group_symop_operation_xyz
x,y,z
1/2-x,1/2-y,1/2+z
1/2+x,1/2-y,-z
-x,y,1/2-z
-x,-y,-z
1/2+x,1/2+y,1/2-z
1/2-x,1/2+y,z
x,-y,1/2+z
loop_
_atom_site_type_symbol
_atom_site_label
_atom_site_fract_x
_atom_site_fract_y
_atom_site_fract_z
Si Si1 0.037439 0.404905 0.877645
Si Si2 0.701295 0.727456 0.679922
Si Si3 0.399736 0.381113 0.270941
Si Si4 0.600142 0.241000 0.623279
Si Si5 0.199899 0.599073 0.944421
O O1 0.074242 0.247954 0.906103
O O2 0.069480 0.571738 0.822063
O O3 0.000000 0.316327 0.750000
O O4 0.000000 0.500000 0.000000
O O5 0.655221 0.607977 0.678407
O O6 0.750016 0.632376 0.643935
O O7 0.693451 0.889029 0.549129
O O8 0.702872 0.816733 0.867304
O O9 0.416117 0.582213 0.280576
O O10 0.404396 0.289090 0.082509
O O11 0.654542 0.185088 0.646395
#
# Coordination Sequence:
#
# PCOD9458336 Si02
#       5
#     8   8   8   8   8
#     4  12  26  48  72 101 137 180 234 288 346 403
#     4  11  23  41  66  99 139 181 228 280 341 412
#     4  11  26  45  70 103 138 181 232 282 346 409
#     4  11  26  45  70 102 139 182 228 286 343 411
#     4  11  23  41  66  99 138 182 227 280 343 407
#
# _framework density 23.966197999999999
#
# number of rings (size 3 to 8) (size 9 to 14) (size 15 to 20)
#    0.000    0.800    4.000    2.400    2.800    8.000 
#    0.000    0.000    0.000    0.000    0.000    0.000 
#    0.000    0.000    0.000    0.000    0.000    0.000 
#
# Total GULP energy -223593.813136 kJ/mol
# GULP energy per Si atom -5589.845328 kJ/mol
# Density = 2.391165 g / cm^3
# Si number density = 23.966198 Si / 1000 Ang^3
#
#
#
# Elastic Constant Matrix: (Units=GPa)
#
#
# Indices 1 2 3 4 5 6 
#
# 1 139.3185 36.8906 19.9641 0.0000 0.0000 0.0000
# 2 36.8906 134.4851 -0.8308 0.0000 0.0000 0.0000
# 3 19.9641 -0.8308 40.3285 0.0000 0.0000 0.0000
# 4 0.0000 0.0000 0.0000 -5.8167 0.0000 0.0000
# 5 0.0000 0.0000 0.0000 0.0000 25.2992 0.0000
# 6 0.0000 0.0000 0.0000 0.0000 0.0000 30.3439
#
#
#
# Elastic Compliance Matrix: (Units=1/GPa)
#
#
# Indices 1 2 3 4 5 6 
#
# 1 0.008397 -0.002329 -0.004205 0.000000 0.000000 0.000000
# 2 -0.002329 0.008083 0.001320 0.000000 0.000000 0.000000
# 3 -0.004205 0.001320 0.026905 0.000000 0.000000 0.000000
# 4 0.000000 0.000000 0.000000 -0.171920 0.000000 0.000000
# 5 0.000000 0.000000 0.000000 0.000000 0.039527 0.000000
# 6 0.000000 0.000000 0.000000 0.000000 0.000000 0.032956
#
#
# Mechanical properties :
#
#
# Convention : Reuss Voigt Hill
#
# Bulk Modulus (GPa) = 30.34358 47.35330 38.84844
# Shear Modulus (GPa) = -144.35068 27.17250 -58.58909
#
# Velocity S-wave (km/s) = -7.76928 3.37082 -4.94971
# Velocity P-wave (km/s) = 8.23370 5.91195 4.05232
#
# Compressibility (1/GPa) = 0.03295590
#
# Stress axis : x y z
#
# Youngs Moduli (GPa) = 119.08788 123.71802 37.16766
#
# Poissons Ratio (x) = 0.28819 0.15629
# Poissons Ratio (y) = 0.27740 -0.04905
# Poissons Ratio (z) = 0.50075 -0.16326
#
# Static dielectric constant tensor:
#      x y z
#    x 1.869750 0.000000 0.000000 
#    y 0.000000 1.723600 0.000000 
#    z 0.000000 0.000000 2.058080 
# 
# From -- ./inp_files/8091.got.cif
#   From: 2010.05.17/outbox.cif.g08.bks.cpg/sg60_5_cif.got.tgz:8091.got - 2010.06.03 14:59:27.
