data_PCOD9458516
_publ_section_title
;
Structure prediction by ZEFSAII (Michael W. Deem and Ramdas Pophale) SiO2 
 PCOD9458516
Probable space group: P B C N
;
_chemical_formula_sum "Si O2"
_cell_formula_units_Z 24
_cell_length_a 6.234736
_cell_length_b 14.354742
_cell_length_c 11.335634
_cell_angle_alpha 90.000000
_cell_angle_beta 90.000000
_cell_angle_gamma 90.000000
_cell_volume 1014.516875
_symmetry_space_group_name_H-M "P B C N"
_symmetry_group_IT_number 60
_symmetry_cell_setting 'orthorhombic'
loop_
_space_group_symop_operation_xyz
x,y,z
1/2-x,1/2-y,1/2+z
1/2+x,1/2-y,-z
-x,y,1/2-z
-x,-y,-z
1/2+x,1/2+y,1/2-z
1/2-x,1/2+y,z
x,-y,1/2+z
loop_
_atom_site_type_symbol
_atom_site_label
_atom_site_fract_x
_atom_site_fract_y
_atom_site_fract_z
Si Si1 0.209385 0.870692 0.318158
Si Si2 0.376200 0.411932 0.562390
Si Si3 0.000000 0.786010 0.750000
Si Si4 0.000000 0.532140 0.250000
O O1 0.180426 0.844908 0.453390
O O2 0.303906 0.785944 0.242538
O O3 0.360618 0.960102 0.326135
O O4 0.000000 0.902788 0.250000
O O5 0.500000 0.500000 0.500000
O O6 0.539791 0.353892 0.641609
O O7 0.171096 0.425537 0.652886
#
# Coordination Sequence:
#
# PCOD9458516 Si02
#       4
#     8   8   4   4
#     4  11  25  47  70 104 151 194 249 313 389 463
#     4  12  25  47  77 104 152 196 257 317 383 462
#     4  11  30  42  70 111 138 198 250 311 394 462
#     4  11  24  46  74 111 138 202 256 305 384 464
#
# _framework density 23.656580000000002
#
# number of rings (size 3 to 8) (size 9 to 14) (size 15 to 20)
#    0.000    0.667    3.333    3.000    7.000    0.000 
#    0.000    0.000    0.000    0.000    0.000    0.000 
#    0.000    0.000    0.000    0.000    0.000    0.000 
#
# Total GULP energy -133619.654360 kJ/mol
# GULP energy per Si atom -5567.485598 kJ/mol
# Density = 2.360274 g / cm^3
# Si number density = 23.656580 Si / 1000 Ang^3
#
#
#
# Elastic Constant Matrix: (Units=GPa)
#
#
# Indices 1 2 3 4 5 6 
#
# 1 84.6997 19.3667 11.1985 0.0000 0.0000 0.0000
# 2 19.3667 73.2631 9.0593 0.0000 0.0000 0.0000
# 3 11.1985 9.0593 121.1857 0.0000 0.0000 0.0000
# 4 0.0000 0.0000 0.0000 41.1630 0.0000 0.0000
# 5 0.0000 0.0000 0.0000 0.0000 43.3260 0.0000
# 6 0.0000 0.0000 0.0000 0.0000 0.0000 -10.9527
#
#
#
# Elastic Compliance Matrix: (Units=1/GPa)
#
#
# Indices 1 2 3 4 5 6 
#
# 1 0.012669 -0.003234 -0.000929 0.000000 0.000000 0.000000
# 2 -0.003234 0.014602 -0.000793 0.000000 0.000000 0.000000
# 3 -0.000929 -0.000793 0.008397 0.000000 0.000000 0.000000
# 4 0.000000 0.000000 0.000000 0.024294 0.000000 0.000000
# 5 0.000000 0.000000 0.000000 0.000000 0.023081 0.000000
# 6 0.000000 0.000000 0.000000 0.000000 0.000000 -0.091302
#
#
# Mechanical properties :
#
#
# Convention : Reuss Voigt Hill
#
# Bulk Modulus (GPa) = 38.82512 39.82195 39.32353
# Shear Modulus (GPa) = 488.40279 30.67554 259.53916
#
# Velocity S-wave (km/s) = 14.38414 3.60488 10.48567
# Velocity P-wave (km/s) = 17.09734 5.84780 12.77724
#
# Compressibility (1/GPa) = 0.02575652
#
# Stress axis : x y z
#
# Youngs Moduli (GPa) = 78.93464 68.48207 119.09151
#
# Poissons Ratio (x) = 0.22147 0.11063
# Poissons Ratio (y) = 0.25528 0.09441
# Poissons Ratio (z) = 0.07332 0.05429
#
# Static dielectric constant tensor:
#      x y z
#    x 2.093910 0.000000 0.000000 
#    y 0.000000 1.854770 0.000000 
#    z 0.000000 0.000000 1.991270 
# 
# From -- ./inp_files/8645.got.cif
#   From: 2010.05.17/outbox.cif.g08.bks.cpg/sg60_5_cif.got.tgz:8645.got - 2010.06.03 14:59:27.
