data_PCOD9458851
_publ_section_title
;
Structure prediction by ZEFSAII (Michael W. Deem and Ramdas Pophale) SiO2 
 PCOD9458851
Probable space group: P B C N
;
_chemical_formula_sum "Si O2"
_cell_formula_units_Z 36
_cell_length_a 21.964278
_cell_length_b 5.766876
_cell_length_c 10.110856
_cell_angle_alpha 90.000000
_cell_angle_beta 90.000000
_cell_angle_gamma 90.000000
_cell_volume 1280.694281
_symmetry_space_group_name_H-M "P B C N"
_symmetry_group_IT_number 60
_symmetry_cell_setting 'orthorhombic'
loop_
_space_group_symop_operation_xyz
x,y,z
1/2-x,1/2-y,1/2+z
1/2+x,1/2-y,-z
-x,y,1/2-z
-x,-y,-z
1/2+x,1/2+y,1/2-z
1/2-x,1/2+y,z
x,-y,1/2+z
loop_
_atom_site_type_symbol
_atom_site_label
_atom_site_fract_x
_atom_site_fract_y
_atom_site_fract_z
Si Si1 0.858166 0.141027 0.268408
Si Si2 0.027171 0.360157 0.618625
Si Si3 0.266830 0.623479 0.998011
Si Si4 0.000000 0.924256 0.750000
Si Si5 0.337354 0.858355 0.720699
O O1 0.830052 0.129391 0.417175
O O2 0.840211 0.391292 0.209632
O O3 0.930649 0.153336 0.266129
O O4 0.838261 0.891655 0.205138
O O5 0.996546 0.109231 0.627719
O O6 0.099518 0.347444 0.634868
O O7 0.000000 0.479713 0.750000
O O8 0.000000 0.500000 0.500000
O O9 0.248768 0.374444 0.933825
O O10 0.218913 0.634019 0.122468
#
# Coordination Sequence:
#
# PCOD9458851 Si02
#       5
#     8   8   8   4   8
#     4   9  16  28  49  80 109 150 190 243 293 356
#     4   9  19  36  58  88 119 160 200 252 306 367
#     4   8  14  25  44  75 101 147 186 239 286 351
#     4   8  18  30  52  80 114 148 192 240 300 354
#     4   9  17  30  51  77 109 149 192 241 293 355
#
# _framework density 28.109756000000001
#
# number of rings (size 3 to 8) (size 9 to 14) (size 15 to 20)
#    0.667    2.667    0.000    0.000    1.556    0.000 
#    0.000    4.444    0.000    0.000   23.111    0.000 
#    0.000    0.000    0.000    0.000    0.000    0.000 
#
# Total GULP energy -201087.516786 kJ/mol
# GULP energy per Si atom -5585.764355 kJ/mol
# Density = 2.804578 g / cm^3
# Si number density = 28.109756 Si / 1000 Ang^3
#
#
#
# Elastic Constant Matrix: (Units=GPa)
#
#
# Indices 1 2 3 4 5 6 
#
# 1 133.8591 73.8459 21.3841 0.0000 0.0000 0.0000
# 2 73.8459 267.0673 33.4296 0.0000 0.0000 0.0000
# 3 21.3841 33.4296 92.0423 0.0000 0.0000 0.0000
# 4 0.0000 0.0000 0.0000 49.8751 0.0000 0.0000
# 5 0.0000 0.0000 0.0000 0.0000 17.8272 0.0000
# 6 0.0000 0.0000 0.0000 0.0000 0.0000 70.2429
#
#
#
# Elastic Compliance Matrix: (Units=1/GPa)
#
#
# Indices 1 2 3 4 5 6 
#
# 1 0.008948 -0.002319 -0.001236 0.000000 0.000000 0.000000
# 2 -0.002319 0.004524 -0.001104 0.000000 0.000000 0.000000
# 3 -0.001236 -0.001104 0.011553 0.000000 0.000000 0.000000
# 4 0.000000 0.000000 0.000000 0.020050 0.000000 0.000000
# 5 0.000000 0.000000 0.000000 0.000000 0.056094 0.000000
# 6 0.000000 0.000000 0.000000 0.000000 0.000000 0.014236
#
#
# Mechanical properties :
#
#
# Convention : Reuss Voigt Hill
#
# Bulk Modulus (GPa) = 63.67623 83.36533 73.52078
# Shear Modulus (GPa) = 38.47354 51.87631 45.17492
#
# Velocity S-wave (km/s) = 3.70359 4.30058 4.01320
# Velocity P-wave (km/s) = 6.40240 7.37438 6.90551
#
# Compressibility (1/GPa) = 0.01570445
#
# Stress axis : x y z
#
# Youngs Moduli (GPa) = 111.76256 221.04852 86.55848
#
# Poissons Ratio (x) = 0.51268 0.10702
# Poissons Ratio (y) = 0.25921 0.09558
# Poissons Ratio (z) = 0.13818 0.24409
#
# Static dielectric constant tensor:
#      x y z
#    x 2.069300 0.000000 0.000000 
#    y 0.000000 2.502170 0.000000 
#    z 0.000000 0.000000 2.572820 
# 
# From -- ./inp_files/12991.got.cif
#   From: 2010.05.17/outbox.cif.g08.bks.cpg/sg60_7_cif.got.tgz:12991.got - 2010.06.03 14:59:27.
