data_PCOD9458583
_publ_section_title
;
Structure prediction by ZEFSAII (Michael W. Deem and Ramdas Pophale) SiO2 
 PCOD9458583
Probable space group: P B C N
;
_chemical_formula_sum "Si O2"
_cell_formula_units_Z 28
_cell_length_a 7.977047
_cell_length_b 12.001937
_cell_length_c 11.633057
_cell_angle_alpha 90.000000
_cell_angle_beta 90.000000
_cell_angle_gamma 90.000000
_cell_volume 1113.749058
_symmetry_space_group_name_H-M "P B C N"
_symmetry_group_IT_number 60
_symmetry_cell_setting 'orthorhombic'
loop_
_space_group_symop_operation_xyz
x,y,z
1/2-x,1/2-y,1/2+z
1/2+x,1/2-y,-z
-x,y,1/2-z
-x,-y,-z
1/2+x,1/2+y,1/2-z
1/2-x,1/2+y,z
x,-y,1/2+z
loop_
_atom_site_type_symbol
_atom_site_label
_atom_site_fract_x
_atom_site_fract_y
_atom_site_fract_z
Si Si1 0.143767 0.963371 0.833052
Si Si2 0.359214 0.865220 0.042267
Si Si3 0.966536 0.203488 0.869277
Si Si4 0.000000 0.508237 0.750000
O O1 0.064979 0.085318 0.863132
O O2 0.309484 0.966108 0.755776
O O3 0.000000 0.909748 0.750000
O O4 0.219366 0.914673 0.952261
O O5 0.485114 0.935376 0.121771
O O6 0.231783 0.809459 0.130283
O O7 0.466985 0.777577 0.971753
O O8 0.000000 0.264971 0.750000
#
# Coordination Sequence:
#
# PCOD9458583 Si02
#       4
#     8   8   8   4
#     4  11  25  49  72 108 148 192 248 303 363 440
#     4  12  26  46  77 105 153 193 240 311 368 435
#     4  11  25  47  72 107 144 187 244 299 361 435
#     4  12  24  46  74 110 148 192 246 300 364 456
#
# _framework density 25.140312999999999
#
# number of rings (size 3 to 8) (size 9 to 14) (size 15 to 20)
#    0.000    0.571    5.714    3.429    2.000    2.286 
#    2.571    0.000    0.000    0.000    0.000    0.000 
#    0.000    0.000    0.000    0.000    0.000    0.000 
#
# Total GULP energy -156157.043306 kJ/mol
# GULP energy per Si atom -5577.037261 kJ/mol
# Density = 2.508309 g / cm^3
# Si number density = 25.140313 Si / 1000 Ang^3
#
#
#
# Elastic Constant Matrix: (Units=GPa)
#
#
# Indices 1 2 3 4 5 6 
#
# 1 158.6200 28.4491 -7.4772 0.0000 0.0000 0.0000
# 2 28.4491 14.9068 5.3054 0.0000 0.0000 0.0000
# 3 -7.4772 5.3054 81.4517 0.0000 0.0000 0.0000
# 4 0.0000 0.0000 0.0000 19.3994 0.0000 0.0000
# 5 0.0000 0.0000 0.0000 0.0000 71.9712 0.0000
# 6 0.0000 0.0000 0.0000 0.0000 0.0000 17.3754
#
#
#
# Elastic Compliance Matrix: (Units=1/GPa)
#
#
# Indices 1 2 3 4 5 6 
#
# 1 0.009957 -0.019787 0.002203 0.000000 0.000000 0.000000
# 2 -0.019787 0.107996 -0.008851 0.000000 0.000000 0.000000
# 3 0.002203 -0.008851 0.013056 0.000000 0.000000 0.000000
# 4 0.000000 0.000000 0.000000 0.051548 0.000000 0.000000
# 5 0.000000 0.000000 0.000000 0.000000 0.013894 0.000000
# 6 0.000000 0.000000 0.000000 0.000000 0.000000 0.057553
#
#
# Mechanical properties :
#
#
# Convention : Reuss Voigt Hill
#
# Bulk Modulus (GPa) = 12.79763 34.17035 23.48399
# Shear Modulus (GPa) = 15.01867 36.99595 26.00731
#
# Velocity S-wave (km/s) = 2.44682 3.84028 3.21983
# Velocity P-wave (km/s) = 3.61719 5.76932 4.81503
#
# Compressibility (1/GPa) = 0.07813949
#
# Stress axis : x y z
#
# Youngs Moduli (GPa) = 100.43169 9.25964 76.59354
#
# Poissons Ratio (x) = 0.18322 -0.16872
# Poissons Ratio (y) = 1.98720 0.67791
# Poissons Ratio (z) = -0.22124 0.08195
#
# Static dielectric constant tensor:
#      x y z
#    x 1.936680 0.000000 0.000000 
#    y 0.000000 2.110970 0.000000 
#    z 0.000000 0.000000 2.098400 
# 
# From -- ./inp_files/9440.got.cif
#   From: 2010.05.17/outbox.cif.g08.bks.cpg/sg60_5_cif.got.tgz:9440.got - 2010.06.03 14:59:27.
