data_PCOD9458591
_publ_section_title
;
Structure prediction by ZEFSAII (Michael W. Deem and Ramdas Pophale) SiO2 
 PCOD9458591
Probable space group: P B C N
;
_chemical_formula_sum "Si O2"
_cell_formula_units_Z 24
_cell_length_a 6.787961
_cell_length_b 12.129144
_cell_length_c 12.444182
_cell_angle_alpha 90.000000
_cell_angle_beta 90.000000
_cell_angle_gamma 90.000000
_cell_volume 1024.556339
_symmetry_space_group_name_H-M "P B C N"
_symmetry_group_IT_number 60
_symmetry_cell_setting 'orthorhombic'
loop_
_space_group_symop_operation_xyz
x,y,z
1/2-x,1/2-y,1/2+z
1/2+x,1/2-y,-z
-x,y,1/2-z
-x,-y,-z
1/2+x,1/2+y,1/2-z
1/2-x,1/2+y,z
x,-y,1/2+z
loop_
_atom_site_type_symbol
_atom_site_label
_atom_site_fract_x
_atom_site_fract_y
_atom_site_fract_z
Si Si1 0.880543 0.590360 0.571075
Si Si2 0.955836 0.827803 0.918011
Si Si3 0.790718 0.407006 0.715042
O O1 0.673401 0.627363 0.516551
O O2 0.826864 0.533800 0.684032
O O3 0.000000 0.500000 0.500000
O O4 0.020299 0.696523 0.581539
O O5 0.839698 0.878516 0.817119
O O6 0.179259 0.864808 0.891648
O O7 0.000000 0.357157 0.750000
#
# Coordination Sequence:
#
# PCOD9458591 Si02
#       3
#     8   8   8
#     4  12  25  50  76 111 156 206 270 324 400 477
#     4  11  27  47  76 112 153 212 259 326 397 477
#     4  11  25  48  72 113 154 201 262 326 392 469
#
# _framework density 23.424773999999999
#
# number of rings (size 3 to 8) (size 9 to 14) (size 15 to 20)
#    0.000    0.667    3.333    3.000    4.667    0.000 
#    6.000    0.000    0.000    0.000    0.000    0.000 
#    0.000    0.000    0.000    0.000    0.000    0.000 
#
# Total GULP energy -133897.122517 kJ/mol
# GULP energy per Si atom -5579.046772 kJ/mol
# Density = 2.337146 g / cm^3
# Si number density = 23.424774 Si / 1000 Ang^3
#
#
#
# Elastic Constant Matrix: (Units=GPa)
#
#
# Indices 1 2 3 4 5 6 
#
# 1 146.0886 55.4961 63.1052 0.0000 0.0000 0.0000
# 2 55.4961 158.2363 64.0591 0.0000 0.0000 0.0000
# 3 63.1052 64.0591 91.6864 0.0000 0.0000 0.0000
# 4 0.0000 0.0000 0.0000 85.5361 0.0000 0.0000
# 5 0.0000 0.0000 0.0000 0.0000 74.9113 0.0000
# 6 0.0000 0.0000 0.0000 0.0000 0.0000 60.7287
#
#
#
# Elastic Compliance Matrix: (Units=1/GPa)
#
#
# Indices 1 2 3 4 5 6 
#
# 1 0.009851 -0.000990 -0.006089 0.000000 0.000000 0.000000
# 2 -0.000990 0.008912 -0.005545 0.000000 0.000000 0.000000
# 3 -0.006089 -0.005545 0.018971 0.000000 0.000000 0.000000
# 4 0.000000 0.000000 0.000000 0.011691 0.000000 0.000000
# 5 0.000000 0.000000 0.000000 0.000000 0.013349 0.000000
# 6 0.000000 0.000000 0.000000 0.000000 0.000000 0.016467
#
#
# Mechanical properties :
#
#
# Convention : Reuss Voigt Hill
#
# Bulk Modulus (GPa) = 80.08221 84.59248 82.33735
# Shear Modulus (GPa) = 46.01895 58.45864 52.23879
#
# Velocity S-wave (km/s) = 4.43712 5.00101 4.72748
# Velocity P-wave (km/s) = 7.77894 8.33892 8.06379
#
# Compressibility (1/GPa) = 0.01248717
#
# Stress axis : x y z
#
# Youngs Moduli (GPa) = 101.50868 112.21243 52.71086
#
# Poissons Ratio (x) = 0.11111 0.32094
# Poissons Ratio (y) = 0.10051 0.29227
# Poissons Ratio (z) = 0.61805 0.62220
#
# Static dielectric constant tensor:
#      x y z
#    x 1.913860 0.000000 0.000000 
#    y 0.000000 1.938110 0.000000 
#    z 0.000000 0.000000 1.871530 
# 
# From -- ./inp_files/13505.got.cif
#   From: 2010.05.17/outbox.cif.g08.bks.cpg/sg60_7_cif.got.tgz:13505.got - 2010.06.03 14:59:27.
