data_PCOD9458986
_publ_section_title
;
Structure prediction by ZEFSAII (Michael W. Deem and Ramdas Pophale) SiO2 
 PCOD9458986
Probable space group: P B C A
;
_chemical_formula_sum "Si O2"
_cell_formula_units_Z 48
_cell_length_a 11.581132
_cell_length_b 22.941183
_cell_length_c 7.275738
_cell_angle_alpha 90.000000
_cell_angle_beta 90.000000
_cell_angle_gamma 90.000000
_cell_volume 1933.053494
_symmetry_space_group_name_H-M "P B C A"
_symmetry_group_IT_number 61
_symmetry_cell_setting 'orthorhombic'
loop_
_space_group_symop_operation_xyz
x,y,z
1/2-x,-y,1/2+z
1/2+x,1/2-y,-z
-x,1/2+y,1/2-z
-x,-y,-z
1/2+x,y,1/2-z
1/2-x,1/2+y,z
x,1/2-y,1/2+z
loop_
_atom_site_type_symbol
_atom_site_label
_atom_site_fract_x
_atom_site_fract_y
_atom_site_fract_z
Si Si1 0.872729 0.107761 0.500553
Si Si2 0.977327 0.032646 0.212931
Si Si3 0.461240 0.691591 0.058288
Si Si4 0.422004 0.676793 0.489651
Si Si5 0.863465 0.923968 0.077115
Si Si6 0.684321 0.632730 0.097170
O O1 0.956016 0.059918 0.409567
O O2 0.772488 0.076912 0.612369
O O3 0.807165 0.136638 0.321673
O O4 0.961064 0.153567 0.584333
O O5 0.886748 0.071786 0.086640
O O6 0.100026 0.047881 0.122401
O O7 0.936192 0.966699 0.204989
O O8 0.447263 0.673940 0.271063
O O9 0.401715 0.643009 0.932242
O O10 0.598512 0.683748 0.029469
O O11 0.410565 0.755352 0.034176
O O12 0.304719 0.640077 0.505959
#
# Coordination Sequence:
#
# PCOD9458986 Si02
#       6
#     8   8   8   8   8   8
#     4   9  17  32  55  77 101 145 170 218 276 318
#     4   8  17  31  58  77  95 138 180 216 263 325
#     4  10  21  32  56  81 105 148 180 221 268 315
#     4  11  20  35  55  79 112 145 181 218 267 326
#     4  10  16  34  56  77 101 138 183 217 264 326
#     4   8  17  34  52  78 107 139 180 215 275 319
#
# _framework density 24.831181999999998
#
# number of rings (size 3 to 8) (size 9 to 14) (size 15 to 20)
#    1.000    1.667    3.333    0.000    2.333    0.000 
#    0.000    2.500   11.000    0.000    0.000    0.000 
#    0.000    0.000    0.000    0.000    0.000    0.000 
#
# Total GULP energy -267796.502429 kJ/mol
# GULP energy per Si atom -5579.093801 kJ/mol
# Density = 2.477467 g / cm^3
# Si number density = 24.831182 Si / 1000 Ang^3
#
#
#
# Elastic Constant Matrix: (Units=GPa)
#
#
# Indices 1 2 3 4 5 6 
#
# 1 110.7202 14.4245 15.7964 0.0000 0.0000 0.0000
# 2 14.4245 111.6741 7.6405 0.0000 0.0000 0.0000
# 3 15.7964 7.6405 58.9961 0.0000 0.0000 0.0000
# 4 0.0000 0.0000 0.0000 20.3423 0.0000 0.0000
# 5 0.0000 0.0000 0.0000 0.0000 16.9803 0.0000
# 6 0.0000 0.0000 0.0000 0.0000 0.0000 29.4396
#
#
#
# Elastic Compliance Matrix: (Units=1/GPa)
#
#
# Indices 1 2 3 4 5 6 
#
# 1 0.009514 -0.001064 -0.002410 0.000000 0.000000 0.000000
# 2 -0.001064 0.009154 -0.000901 0.000000 0.000000 0.000000
# 3 -0.002410 -0.000901 0.017712 0.000000 0.000000 0.000000
# 4 0.000000 0.000000 0.000000 0.049159 0.000000 0.000000
# 5 0.000000 0.000000 0.000000 0.000000 0.058892 0.000000
# 6 0.000000 0.000000 0.000000 0.000000 0.000000 0.033968
#
#
# Mechanical properties :
#
#
# Convention : Reuss Voigt Hill
#
# Bulk Modulus (GPa) = 36.19071 39.67926 37.93499
# Shear Modulus (GPa) = 25.46382 29.58771 27.52576
#
# Velocity S-wave (km/s) = 3.20578 3.45564 3.33305
# Velocity P-wave (km/s) = 5.32063 5.65121 5.48841
#
# Compressibility (1/GPa) = 0.02763140
#
# Stress axis : x y z
#
# Youngs Moduli (GPa) = 105.10625 109.24563 56.45860
#
# Poissons Ratio (x) = 0.11624 0.13605
# Poissons Ratio (y) = 0.11184 0.05085
# Poissons Ratio (z) = 0.25327 0.09838
#
# Static dielectric constant tensor:
#      x y z
#    x 1.981710 0.000000 0.000000 
#    y 0.000000 1.977520 0.000000 
#    z 0.000000 0.000000 2.047450 
# 
# From -- ./inp_files/5437.got.cif
#   From: 2010.05.17/outbox.cif.g08.bks.cpg/sg61_3_cif.got.tgz:5437.got - 2010.06.03 15:17:17.
