data_PCOD9458105
_publ_section_title
;
Structure prediction by ZEFSAII (Michael W. Deem and Ramdas Pophale) SiO2 
 PCOD9458105
Probable space group: P B C N
;
_chemical_formula_sum "Si O2"
_cell_formula_units_Z 40
_cell_length_a 4.838999
_cell_length_b 24.600954
_cell_length_c 15.336724
_cell_angle_alpha 90.000000
_cell_angle_beta 90.000000
_cell_angle_gamma 90.000000
_cell_volume 1825.744846
_symmetry_space_group_name_H-M "P B C N"
_symmetry_group_IT_number 60
_symmetry_cell_setting 'orthorhombic'
loop_
_space_group_symop_operation_xyz
x,y,z
1/2-x,1/2-y,1/2+z
1/2+x,1/2-y,-z
-x,y,1/2-z
-x,-y,-z
1/2+x,1/2+y,1/2-z
1/2-x,1/2+y,z
x,-y,1/2+z
loop_
_atom_site_type_symbol
_atom_site_label
_atom_site_fract_x
_atom_site_fract_y
_atom_site_fract_z
Si Si1 0.977805 0.067330 0.085304
Si Si2 0.758586 0.964855 0.190466
Si Si3 0.485835 0.217391 0.025556
Si Si4 0.255760 0.670906 0.308839
Si Si5 0.487743 0.092696 0.975091
O O1 0.895328 0.120960 0.139451
O O2 0.899689 0.015986 0.142857
O O3 0.788030 0.069353 0.998396
O O4 0.289973 0.070626 0.052532
O O5 0.500000 0.982437 0.250000
O O6 0.632179 0.926473 0.116189
O O7 0.000000 0.939240 0.250000
O O8 0.617616 0.210607 0.120987
O O9 0.179263 0.240872 0.026459
O O10 0.490042 0.157706 0.983438
O O11 0.500000 0.695161 0.250000
O O12 0.000000 0.650755 0.250000
#
# Coordination Sequence:
#
# PCOD9458105 Si02
#       5
#     8   8   8   8   8
#     4  11  21  39  64  92 125 161 199 248 309 372
#     4  12  24  39  61  94 130 165 199 244 301 371
#     4  11  23  42  65  88 121 167 211 254 308 366
#     4  11  21  37  62  95 122 149 198 265 312 348
#     4  11  23  41  64  89 122 166 210 251 301 371
#
# _framework density 21.908864999999999
#
# number of rings (size 3 to 8) (size 9 to 14) (size 15 to 20)
#    0.000    0.800    0.000   10.800    0.000    0.000 
#    0.000    4.000    0.000    0.000    0.000    0.000 
#    0.000    0.000    0.000    0.000    0.000    0.000 
#
# Total GULP energy -224065.949335 kJ/mol
# GULP energy per Si atom -5601.648733 kJ/mol
# Density = 2.185900 g / cm^3
# Si number density = 21.908865 Si / 1000 Ang^3
#
#
#
# Elastic Constant Matrix: (Units=GPa)
#
#
# Indices 1 2 3 4 5 6 
#
# 1 64.2754 -6.8534 -0.8373 0.0000 0.0000 0.0000
# 2 -6.8534 45.1753 19.1728 0.0000 0.0000 0.0000
# 3 -0.8373 19.1728 85.1660 0.0000 0.0000 0.0000
# 4 0.0000 0.0000 0.0000 10.9995 0.0000 0.0000
# 5 0.0000 0.0000 0.0000 0.0000 35.2347 0.0000
# 6 0.0000 0.0000 0.0000 0.0000 0.0000 29.3935
#
#
#
# Elastic Compliance Matrix: (Units=1/GPa)
#
#
# Indices 1 2 3 4 5 6 
#
# 1 0.015828 0.002582 -0.000426 0.000000 0.000000 0.000000
# 2 0.002582 0.024895 -0.005579 0.000000 0.000000 0.000000
# 3 -0.000426 -0.005579 0.012994 0.000000 0.000000 0.000000
# 4 0.000000 0.000000 0.000000 0.090913 0.000000 0.000000
# 5 0.000000 0.000000 0.000000 0.000000 0.028381 0.000000
# 6 0.000000 0.000000 0.000000 0.000000 0.000000 0.034021
#
#
# Mechanical properties :
#
#
# Convention : Reuss Voigt Hill
#
# Bulk Modulus (GPa) = 21.33516 24.17565 22.75541
# Shear Modulus (GPa) = 21.78630 27.33451 24.56040
#
# Velocity S-wave (km/s) = 3.15684 3.53604 3.35180
# Velocity P-wave (km/s) = 4.80071 5.26593 5.03869
#
# Compressibility (1/GPa) = 0.04687098
#
# Stress axis : x y z
#
# Youngs Moduli (GPa) = 63.17995 40.16791 76.96101
#
# Poissons Ratio (x) = -0.10371 0.03276
# Poissons Ratio (y) = -0.16312 0.42938
# Poissons Ratio (z) = 0.02689 0.22410
#
# Static dielectric constant tensor:
#      x y z
#    x 1.792790 0.000000 0.000000 
#    y 0.000000 1.758300 0.000000 
#    z 0.000000 0.000000 1.835940 
# 
# From -- ./inp_files/9045.got.cif
#   From: 2010.05.17/outbox.cif.g08.bks.cpg/sg60_5_cif.got.tgz:9045.got - 2010.06.03 14:59:27.
