data_PCOD9458741
_publ_section_title
;
Structure prediction by ZEFSAII (Michael W. Deem and Ramdas Pophale) SiO2 
 PCOD9458741
Probable space group: P B C N
;
_chemical_formula_sum "Si O2"
_cell_formula_units_Z 36
_cell_length_a 4.819976
_cell_length_b 19.073684
_cell_length_c 15.630695
_cell_angle_alpha 90.000000
_cell_angle_beta 90.000000
_cell_angle_gamma 90.000000
_cell_volume 1437.003242
_symmetry_space_group_name_H-M "P B C N"
_symmetry_group_IT_number 60
_symmetry_cell_setting 'orthorhombic'
loop_
_space_group_symop_operation_xyz
x,y,z
1/2-x,1/2-y,1/2+z
1/2+x,1/2-y,-z
-x,y,1/2-z
-x,-y,-z
1/2+x,1/2+y,1/2-z
1/2-x,1/2+y,z
x,-y,1/2+z
loop_
_atom_site_type_symbol
_atom_site_label
_atom_site_fract_x
_atom_site_fract_y
_atom_site_fract_z
Si Si1 0.352105 0.074384 0.000755
Si Si2 0.371516 0.879123 0.836654
Si Si3 0.901331 0.247978 0.561864
Si Si4 0.000000 0.001680 0.250000
Si Si5 0.652543 0.607668 0.891308
O O1 0.388845 0.096143 0.098743
O O2 0.043282 0.076186 0.966189
O O3 0.544596 0.115197 0.931551
O O4 0.500000 0.000000 0.000000
O O5 0.500000 0.850753 0.750000
O O6 0.257485 0.811818 0.887112
O O7 0.189049 0.945833 0.807185
O O8 0.682223 0.228928 0.487746
O O9 0.008162 0.183631 0.620799
O O10 0.846070 0.947310 0.313792
#
# Coordination Sequence:
#
# PCOD9458741 Si02
#       5
#     8   8   8   4   8
#     4  12  24  46  77 103 149 199 256 313 386 470
#     4  12  28  46  75 113 157 197 263 319 399 453
#     4  12  26  50  77 108 147 206 260 320 390 469
#     4  12  30  46  78 112 162 204 264 332 386 454
#     4  12  26  48  74 111 148 203 262 318 391 463
#
# _framework density 25.052137999999999
#
# number of rings (size 3 to 8) (size 9 to 14) (size 15 to 20)
#    0.000    0.000    6.667    2.000    7.778    0.000 
#    0.000    0.000    0.000    0.000    0.000    0.000 
#    0.000    0.000    0.000    0.000    0.000    0.000 
#
# Total GULP energy -201269.713702 kJ/mol
# GULP energy per Si atom -5590.825381 kJ/mol
# Density = 2.499512 g / cm^3
# Si number density = 25.052138 Si / 1000 Ang^3
#
#
#
# Elastic Constant Matrix: (Units=GPa)
#
#
# Indices 1 2 3 4 5 6 
#
# 1 107.2400 18.3707 27.8170 0.0000 0.0000 0.0000
# 2 18.3707 158.8299 45.0536 0.0000 0.0000 0.0000
# 3 27.8170 45.0536 135.9798 0.0000 0.0000 0.0000
# 4 0.0000 0.0000 0.0000 64.7189 0.0000 0.0000
# 5 0.0000 0.0000 0.0000 0.0000 27.9368 0.0000
# 6 0.0000 0.0000 0.0000 0.0000 0.0000 42.1372
#
#
#
# Elastic Compliance Matrix: (Units=1/GPa)
#
#
# Indices 1 2 3 4 5 6 
#
# 1 0.009904 -0.000630 -0.001817 0.000000 0.000000 0.000000
# 2 -0.000630 0.006989 -0.002187 0.000000 0.000000 0.000000
# 3 -0.001817 -0.002187 0.008450 0.000000 0.000000 0.000000
# 4 0.000000 0.000000 0.000000 0.015451 0.000000 0.000000
# 5 0.000000 0.000000 0.000000 0.000000 0.035795 0.000000
# 6 0.000000 0.000000 0.000000 0.000000 0.000000 0.023732
#
#
# Mechanical properties :
#
#
# Convention : Reuss Voigt Hill
#
# Bulk Modulus (GPa) = 62.20687 64.94804 63.57746
# Shear Modulus (GPa) = 43.49750 47.67915 45.58833
#
# Velocity S-wave (km/s) = 4.17139 4.36730 4.27047
# Velocity P-wave (km/s) = 6.93437 7.17025 7.05330
#
# Compressibility (1/GPa) = 0.01607539
#
# Stress axis : x y z
#
# Youngs Moduli (GPa) = 100.96719 143.07732 118.33831
#
# Poissons Ratio (x) = 0.09014 0.21506
# Poissons Ratio (y) = 0.06361 0.25879
# Poissons Ratio (z) = 0.18349 0.31288
#
# Static dielectric constant tensor:
#      x y z
#    x 1.942310 0.000000 0.000000 
#    y 0.000000 2.145510 0.000000 
#    z 0.000000 0.000000 1.954150 
# 
# From -- ./inp_files/13720.got.cif
#   From: 2010.05.17/outbox.cif.g08.bks.cpg/sg60_7_cif.got.tgz:13720.got - 2010.06.03 14:59:27.
