data_PCOD9458187
_publ_section_title
;
Structure prediction by ZEFSAII (Michael W. Deem and Ramdas Pophale) SiO2 
 PCOD9458187
Probable space group: P B C N
;
_chemical_formula_sum "Si O2"
_cell_formula_units_Z 48
_cell_length_a 30.589915
_cell_length_b 7.813415
_cell_length_c 8.376079
_cell_angle_alpha 90.000000
_cell_angle_beta 90.000000
_cell_angle_gamma 90.000000
_cell_volume 2001.980887
_symmetry_space_group_name_H-M "P B C N"
_symmetry_group_IT_number 60
_symmetry_cell_setting 'orthorhombic'
loop_
_space_group_symop_operation_xyz
x,y,z
1/2-x,1/2-y,1/2+z
1/2+x,1/2-y,-z
-x,y,1/2-z
-x,-y,-z
1/2+x,1/2+y,1/2-z
1/2-x,1/2+y,z
x,-y,1/2+z
loop_
_atom_site_type_symbol
_atom_site_label
_atom_site_fract_x
_atom_site_fract_y
_atom_site_fract_z
Si Si1 0.210353 0.746649 0.847289
Si Si2 0.538498 0.136363 0.629147
Si Si3 0.374320 0.904587 0.208299
Si Si4 0.473783 0.747855 0.912090
Si Si5 0.380933 0.748459 0.861632
Si Si6 0.703170 0.596079 0.796328
O O1 0.169991 0.622089 0.808342
O O2 0.256865 0.661804 0.813092
O O3 0.206982 0.893120 0.712459
O O4 0.206151 0.823404 0.026270
O O5 0.500000 0.095108 0.750000
O O6 0.584228 0.186047 0.706942
O O7 0.513533 0.283630 0.532612
O O8 0.542942 0.946434 0.549268
O O9 0.386960 0.104326 0.225756
O O10 0.368042 0.836596 0.029851
O O11 0.500000 0.737843 0.750000
O O12 0.427248 0.656950 0.895800
O O13 0.342221 0.636922 0.791300
#
# Coordination Sequence:
#
# PCOD9458187 Si02
#       6
#     8   8   8   8   8   8
#     4  12  26  46  69  93 122 160 197 253 302 372
#     4   9  16  30  49  83 120 164 202 254 296 350
#     4  11  22  36  61  92 129 163 210 251 309 356
#     4   9  18  28  51  81 124 160 208 251 302 347
#     4  11  22  37  59  94 127 166 206 257 302 364
#     4  12  26  46  69  92 124 156 203 246 310 362
#
# _framework density 23.976251000000001
#
# number of rings (size 3 to 8) (size 9 to 14) (size 15 to 20)
#    0.000    1.333    1.667    5.000    9.333    0.000 
#    0.000    0.000    0.000    2.000    0.000    0.000 
#    0.000    0.000    0.000    0.000    0.000    0.000 
#
# Total GULP energy -267875.115650 kJ/mol
# GULP energy per Si atom -5580.731576 kJ/mol
# Density = 2.392168 g / cm^3
# Si number density = 23.976251 Si / 1000 Ang^3
#
#
#
# Elastic Constant Matrix: (Units=GPa)
#
#
# Indices 1 2 3 4 5 6 
#
# 1 160.3373 11.5069 18.6633 0.0000 0.0000 0.0000
# 2 11.5069 16.5709 -14.3079 0.0000 0.0000 0.0000
# 3 18.6633 -14.3079 82.1075 0.0000 0.0000 0.0000
# 4 0.0000 0.0000 0.0000 -23.1718 0.0000 0.0000
# 5 0.0000 0.0000 0.0000 0.0000 10.7348 0.0000
# 6 0.0000 0.0000 0.0000 0.0000 0.0000 27.0851
#
#
#
# Elastic Compliance Matrix: (Units=1/GPa)
#
#
# Indices 1 2 3 4 5 6 
#
# 1 0.007111 -0.007456 -0.002916 0.000000 0.000000 0.000000
# 2 -0.007456 0.078851 0.015435 0.000000 0.000000 0.000000
# 3 -0.002916 0.015435 0.015532 0.000000 0.000000 0.000000
# 4 0.000000 0.000000 0.000000 -0.043156 0.000000 0.000000
# 5 0.000000 0.000000 0.000000 0.000000 0.093155 0.000000
# 6 0.000000 0.000000 0.000000 0.000000 0.000000 0.036921
#
#
# Mechanical properties :
#
#
# Convention : Reuss Voigt Hill
#
# Bulk Modulus (GPa) = 8.95884 32.30449 20.63167
# Shear Modulus (GPa) = 23.20261 19.13984 21.17123
#
# Velocity S-wave (km/s) = 3.11422 2.82846 2.97477
# Velocity P-wave (km/s) = 4.08360 4.91627 4.51915
#
# Compressibility (1/GPa) = 0.11162157
#
# Stress axis : x y z
#
# Youngs Moduli (GPa) = 140.62155 12.68217 64.38505
#
# Poissons Ratio (x) = 0.09455 0.18772
# Poissons Ratio (y) = 1.04841 -0.99379
# Poissons Ratio (z) = 0.41000 -0.19575
#
# Static dielectric constant tensor:
#      x y z
#    x -1.693880 0.000000 0.000000 
#    y 0.000000 1.940120 0.000000 
#    z 0.000000 0.000000 2.088450 
# 
# From -- ./inp_files/8404.got.cif
#   From: 2010.05.17/outbox.cif.g08.bks.cpg/sg60_5_cif.got.tgz:8404.got - 2010.06.03 14:59:27.
