data_PCOD9458180
_publ_section_title
;
Structure prediction by ZEFSAII (Michael W. Deem and Ramdas Pophale) SiO2 
 PCOD9458180
Probable space group: P B C N
;
_chemical_formula_sum "Si O2"
_cell_formula_units_Z 48
_cell_length_a 12.117899
_cell_length_b 10.062275
_cell_length_c 14.798693
_cell_angle_alpha 90.000000
_cell_angle_beta 90.000000
_cell_angle_gamma 90.000000
_cell_volume 1804.458389
_symmetry_space_group_name_H-M "P B C N"
_symmetry_group_IT_number 60
_symmetry_cell_setting 'orthorhombic'
loop_
_space_group_symop_operation_xyz
x,y,z
1/2-x,1/2-y,1/2+z
1/2+x,1/2-y,-z
-x,y,1/2-z
-x,-y,-z
1/2+x,1/2+y,1/2-z
1/2-x,1/2+y,z
x,-y,1/2+z
loop_
_atom_site_type_symbol
_atom_site_label
_atom_site_fract_x
_atom_site_fract_y
_atom_site_fract_z
Si Si1 0.772115 0.425773 0.523180
Si Si2 0.469765 0.704927 0.154551
Si Si3 0.727812 0.085794 0.355358
Si Si4 0.917733 0.252237 0.987412
Si Si5 0.895086 0.360099 0.690904
Si Si6 0.413550 0.575660 0.879758
O O1 0.774211 0.454164 0.416314
O O2 0.694350 0.299233 0.532911
O O3 0.877632 0.404934 0.587033
O O4 0.696716 0.542653 0.564923
O O5 0.500000 0.768800 0.250000
O O6 0.344168 0.661181 0.138503
O O7 0.538641 0.564686 0.154570
O O8 0.510083 0.797336 0.072365
O O9 0.627246 0.162779 0.404769
O O10 0.704038 0.077759 0.249404
O O11 0.991120 0.134737 0.944839
O O12 0.891311 0.197996 0.688511
O O13 0.000000 0.399975 0.750000
#
# Coordination Sequence:
#
# PCOD9458180 Si02
#       6
#     8   8   8   8   8   8
#     4  11  24  44  72 104 139 187 237 288 353 426
#     4  11  23  43  73 107 135 184 249 293 345 427
#     4  12  24  43  72 104 142 189 234 295 358 419
#     4  11  22  42  73 101 136 182 238 293 353 413
#     4  12  27  44  68 106 143 187 237 294 357 419
#     4  11  21  48  72  97 137 181 238 295 348 418
#
# _framework density 26.60078
#
# number of rings (size 3 to 8) (size 9 to 14) (size 15 to 20)
#    0.000    0.667    5.000    4.500    0.000    2.000 
#    0.000    2.500    0.000    0.000    0.000    0.000 
#    0.000    0.000    0.000    0.000    0.000    0.000 
#
# Total GULP energy -268516.722168 kJ/mol
# GULP energy per Si atom -5594.098378 kJ/mol
# Density = 2.654024 g / cm^3
# Si number density = 26.600780 Si / 1000 Ang^3
#
#
#
# Elastic Constant Matrix: (Units=GPa)
#
#
# Indices 1 2 3 4 5 6 
#
# 1 96.0501 35.8905 36.6739 0.0000 0.0000 0.0000
# 2 35.8905 60.2611 11.0419 0.0000 0.0000 0.0000
# 3 36.6739 11.0419 174.6231 0.0000 0.0000 0.0000
# 4 0.0000 0.0000 0.0000 33.3464 0.0000 0.0000
# 5 0.0000 0.0000 0.0000 0.0000 54.7913 0.0000
# 6 0.0000 0.0000 0.0000 0.0000 0.0000 24.9694
#
#
#
# Elastic Compliance Matrix: (Units=1/GPa)
#
#
# Indices 1 2 3 4 5 6 
#
# 1 0.014404 -0.008118 -0.002512 0.000000 0.000000 0.000000
# 2 -0.008118 0.021365 0.000354 0.000000 0.000000 0.000000
# 3 -0.002512 0.000354 0.006232 0.000000 0.000000 0.000000
# 4 0.000000 0.000000 0.000000 0.029988 0.000000 0.000000
# 5 0.000000 0.000000 0.000000 0.000000 0.018251 0.000000
# 6 0.000000 0.000000 0.000000 0.000000 0.000000 0.040049
#
#
# Mechanical properties :
#
#
# Convention : Reuss Voigt Hill
#
# Bulk Modulus (GPa) = 46.62404 55.34966 50.98685
# Shear Modulus (GPa) = 31.64754 39.10998 35.37876
#
# Velocity S-wave (km/s) = 3.45298 3.83855 3.65086
# Velocity P-wave (km/s) = 5.78470 6.36386 6.08118
#
# Compressibility (1/GPa) = 0.02144816
#
# Stress axis : x y z
#
# Youngs Moduli (GPa) = 69.42601 46.80598 160.46909
#
# Poissons Ratio (x) = 0.37999 0.40305
# Poissons Ratio (y) = 0.56363 -0.05682
# Poissons Ratio (z) = 0.17438 -0.01657
#
# Static dielectric constant tensor:
#      x y z
#    x 2.105290 0.000000 0.000000 
#    y 0.000000 2.108480 0.000000 
#    z 0.000000 0.000000 2.137570 
# 
# From -- ./inp_files/16768.got.cif
#   From: 2010.05.17/outbox.cif.g08.bks.cpg/sg60_9_cif.got.tgz:16768.got - 2010.06.03 14:59:27.
