data_PCOD9458258
_publ_section_title
;
Structure prediction by ZEFSAII (Michael W. Deem and Ramdas Pophale) SiO2 
 PCOD9458258
Probable space group: P B C N
;
_chemical_formula_sum "Si O2"
_cell_formula_units_Z 56
_cell_length_a 11.646036
_cell_length_b 21.613008
_cell_length_c 11.181945
_cell_angle_alpha 90.000000
_cell_angle_beta 90.000000
_cell_angle_gamma 90.000000
_cell_volume 2814.561186
_symmetry_space_group_name_H-M "P B C N"
_symmetry_group_IT_number 60
_symmetry_cell_setting 'orthorhombic'
loop_
_space_group_symop_operation_xyz
x,y,z
1/2-x,1/2-y,1/2+z
1/2+x,1/2-y,-z
-x,y,1/2-z
-x,-y,-z
1/2+x,1/2+y,1/2-z
1/2-x,1/2+y,z
x,-y,1/2+z
loop_
_atom_site_type_symbol
_atom_site_label
_atom_site_fract_x
_atom_site_fract_y
_atom_site_fract_z
Si Si1 0.500000 0.730333 0.250000
Si Si2 0.803627 0.165348 0.984607
Si Si3 0.953056 0.661971 0.921577
Si Si4 0.272044 0.337087 0.747609
Si Si5 0.564003 0.226245 0.371555
Si Si6 0.254843 0.016163 0.253391
Si Si7 0.000000 0.551181 0.750000
Si Si8 0.131743 0.977632 0.003802
O O1 0.486012 0.780524 0.355234
O O2 0.601640 0.684989 0.287507
O O3 0.685298 0.164601 0.908574
O O4 0.900396 0.210509 0.935611
O O5 0.854637 0.096737 0.998106
O O6 0.764604 0.186729 0.116189
O O7 0.994125 0.597876 0.863750
O O8 0.990221 0.675598 0.056335
O O9 0.183595 0.305433 0.660514
O O10 0.248334 0.409601 0.749852
O O11 0.500000 0.241660 0.250000
O O12 0.194264 0.998841 0.380974
O O13 0.383791 0.988882 0.252746
O O14 0.190158 0.996342 0.130649
O O15 0.000000 0.000000 0.000000
#
# Coordination Sequence:
#
# PCOD9458258 Si02
#       8
#     4   8   8   8   8   8   4   8
#     4  11  22  42  68  94 138 185 216 276 358 415
#     4  11  23  46  64 100 142 175 231 287 348 427
#     4  11  23  43  69  99 140 179 232 289 350 421
#     4  11  25  40  66  99 136 179 229 281 348 415
#     4  12  25  40  69 106 135 177 229 291 350 418
#     4  11  27  45  72 102 140 190 240 293 356 426
#     4  11  26  48  72 100 142 191 240 296 360 429
#     4  11  26  48  71 102 143 185 237 294 355 428
#
# _framework density 19.896529000000001
#
# number of rings (size 3 to 8) (size 9 to 14) (size 15 to 20)
#    0.000    0.857    5.714    0.429    7.000    1.714 
#    0.000    0.000    0.000    0.000    0.000    0.000 
#    0.000    0.000    0.000    0.000    0.000    0.000 
#
# Total GULP energy -312373.191528 kJ/mol
# GULP energy per Si atom -5578.092706 kJ/mol
# Density = 1.985124 g / cm^3
# Si number density = 19.896529 Si / 1000 Ang^3
#
#
#
# Elastic Constant Matrix: (Units=GPa)
#
#
# Indices 1 2 3 4 5 6 
#
# 1 137.1376 58.5698 28.7119 0.0000 0.0000 0.0000
# 2 58.5698 103.0709 30.0254 0.0000 0.0000 0.0000
# 3 28.7119 30.0254 97.7972 0.0000 0.0000 0.0000
# 4 0.0000 0.0000 0.0000 15.7458 0.0000 0.0000
# 5 0.0000 0.0000 0.0000 0.0000 31.1427 0.0000
# 6 0.0000 0.0000 0.0000 0.0000 0.0000 3.7778
#
#
#
# Elastic Compliance Matrix: (Units=1/GPa)
#
#
# Indices 1 2 3 4 5 6 
#
# 1 0.009772 -0.005181 -0.001278 0.000000 0.000000 0.000000
# 2 -0.005181 0.013401 -0.002594 0.000000 0.000000 0.000000
# 3 -0.001278 -0.002594 0.011397 0.000000 0.000000 0.000000
# 4 0.000000 0.000000 0.000000 0.063509 0.000000 0.000000
# 5 0.000000 0.000000 0.000000 0.000000 0.032110 0.000000
# 6 0.000000 0.000000 0.000000 0.000000 0.000000 0.264706
#
#
# Mechanical properties :
#
#
# Convention : Reuss Voigt Hill
#
# Bulk Modulus (GPa) = 60.73367 63.62441 62.17904
# Shear Modulus (GPa) = 11.94774 24.84650 18.39712
#
# Velocity S-wave (km/s) = 2.45316 3.53765 3.04409
# Velocity P-wave (km/s) = 6.21410 6.98095 6.60866
#
# Compressibility (1/GPa) = 0.01646533
#
# Stress axis : x y z
#
# Youngs Moduli (GPa) = 102.33135 74.61888 87.74368
#
# Poissons Ratio (x) = 0.38657 0.11218
# Poissons Ratio (y) = 0.53014 0.22756
# Poissons Ratio (z) = 0.13082 0.19353
#
# Static dielectric constant tensor:
#      x y z
#    x 1.737000 0.000000 0.000000 
#    y 0.000000 1.664990 0.000000 
#    z 0.000000 0.000000 1.801460 
# 
# From -- ./inp_files/11217.got.cif
#   From: 2010.05.17/outbox.cif.g08.bks.cpg/sg60_6_cif.got.tgz:11217.got - 2010.06.03 14:59:27.
