data_PCOD9458859
_publ_section_title
;
Structure prediction by ZEFSAII (Michael W. Deem and Ramdas Pophale) SiO2 
 PCOD9458859
Probable space group: P B C N
;
_chemical_formula_sum "Si O2"
_cell_formula_units_Z 24
_cell_length_a 6.623602
_cell_length_b 10.137818
_cell_length_c 14.463478
_cell_angle_alpha 90.000000
_cell_angle_beta 90.000000
_cell_angle_gamma 90.000000
_cell_volume 971.206227
_symmetry_space_group_name_H-M "P B C N"
_symmetry_group_IT_number 60
_symmetry_cell_setting 'orthorhombic'
loop_
_space_group_symop_operation_xyz
x,y,z
1/2-x,1/2-y,1/2+z
1/2+x,1/2-y,-z
-x,y,1/2-z
-x,-y,-z
1/2+x,1/2+y,1/2-z
1/2-x,1/2+y,z
x,-y,1/2+z
loop_
_atom_site_type_symbol
_atom_site_label
_atom_site_fract_x
_atom_site_fract_y
_atom_site_fract_z
Si Si1 0.213313 0.095690 0.681346
Si Si2 0.843350 0.580628 0.618981
Si Si3 0.367783 0.145778 0.081600
O O1 0.200196 0.076916 0.791828
O O2 0.445946 0.137273 0.657004
O O3 0.105531 0.217726 0.633307
O O4 0.210196 0.952293 0.633391
O O5 0.795215 0.653590 0.523915
O O6 0.081235 0.566107 0.411666
#
# Coordination Sequence:
#
# PCOD9458859 Si02
#       3
#     8   8   8
#     4   9  17  33  55  73 108 145 176 215 276 318
#     4   8  18  34  53  75 113 134 179 229 258 317
#     4   9  17  33  55  76 106 144 176 223 274 309
#
# _framework density 24.711539999999999
#
# number of rings (size 3 to 8) (size 9 to 14) (size 15 to 20)
#    2.000    1.333    0.000    0.000    0.000    2.667 
#    6.000    1.667   14.667    0.000    0.000    0.000 
#    0.000    0.000    0.000    0.000    0.000    0.000 
#
# Total GULP energy -133703.160332 kJ/mol
# GULP energy per Si atom -5570.965014 kJ/mol
# Density = 2.465530 g / cm^3
# Si number density = 24.711540 Si / 1000 Ang^3
#
#
#
# Elastic Constant Matrix: (Units=GPa)
#
#
# Indices 1 2 3 4 5 6 
#
# 1 15.4373 28.7743 24.7548 0.0000 0.0000 0.0000
# 2 28.7743 109.2696 77.9231 0.0000 0.0000 0.0000
# 3 24.7548 77.9231 259.3355 0.0000 0.0000 0.0000
# 4 0.0000 0.0000 0.0000 31.9432 0.0000 0.0000
# 5 0.0000 0.0000 0.0000 0.0000 38.1369 0.0000
# 6 0.0000 0.0000 0.0000 0.0000 0.0000 15.2217
#
#
#
# Elastic Compliance Matrix: (Units=1/GPa)
#
#
# Indices 1 2 3 4 5 6 
#
# 1 0.128666 -0.031975 -0.002674 0.000000 0.000000 0.000000
# 2 -0.031975 0.019594 -0.002835 0.000000 0.000000 0.000000
# 3 -0.002674 -0.002835 0.004963 0.000000 0.000000 0.000000
# 4 0.000000 0.000000 0.000000 0.031306 0.000000 0.000000
# 5 0.000000 0.000000 0.000000 0.000000 0.026221 0.000000
# 6 0.000000 0.000000 0.000000 0.000000 0.000000 0.065696
#
#
# Mechanical properties :
#
#
# Convention : Reuss Voigt Hill
#
# Bulk Modulus (GPa) = 12.77889 71.88297 42.33093
# Shear Modulus (GPa) = 13.24508 33.89971 23.57240
#
# Velocity S-wave (km/s) = 2.31765 3.70782 3.09188
# Velocity P-wave (km/s) = 3.51347 6.89076 5.46933
#
# Compressibility (1/GPa) = 0.07825406
#
# Stress axis : x y z
#
# Youngs Moduli (GPa) = 7.77206 51.03711 201.48463
#
# Poissons Ratio (x) = 1.63191 0.53880
# Poissons Ratio (y) = 0.24851 0.57124
# Poissons Ratio (z) = 0.02078 0.14470
#
# Static dielectric constant tensor:
#      x y z
#    x 2.198200 0.000000 0.000000 
#    y 0.000000 1.906940 0.000000 
#    z 0.000000 0.000000 1.961740 
# 
# From -- ./inp_files/9311.got.cif
#   From: 2010.05.17/outbox.cif.g08.bks.cpg/sg60_5_cif.got.tgz:9311.got - 2010.06.03 14:59:27.
