data_PCOD9458029
_publ_section_title
;
Structure prediction by ZEFSAII (Michael W. Deem and Ramdas Pophale) SiO2 
 PCOD9458029
Probable space group: P B C N
;
_chemical_formula_sum "Si O2"
_cell_formula_units_Z 64
_cell_length_a 29.277516
_cell_length_b 13.879522
_cell_length_c 9.004040
_cell_angle_alpha 90.000000
_cell_angle_beta 90.000000
_cell_angle_gamma 90.000000
_cell_volume 3658.863033
_symmetry_space_group_name_H-M "P B C N"
_symmetry_group_IT_number 60
_symmetry_cell_setting 'orthorhombic'
loop_
_space_group_symop_operation_xyz
x,y,z
1/2-x,1/2-y,1/2+z
1/2+x,1/2-y,-z
-x,y,1/2-z
-x,-y,-z
1/2+x,1/2+y,1/2-z
1/2-x,1/2+y,z
x,-y,1/2+z
loop_
_atom_site_type_symbol
_atom_site_label
_atom_site_fract_x
_atom_site_fract_y
_atom_site_fract_z
Si Si1 0.878903 0.728530 0.984114
Si Si2 0.534838 0.122642 0.026504
Si Si3 0.719615 0.789236 0.980891
Si Si4 0.557394 0.924125 0.870563
Si Si5 0.181237 0.397581 0.234401
Si Si6 0.847800 0.390087 0.770453
Si Si7 0.812196 0.113360 0.534050
Si Si8 0.282394 0.419420 0.127210
O O1 0.933243 0.711603 0.982589
O O2 0.861793 0.677138 0.135006
O O3 0.859851 0.836555 0.992568
O O4 0.854747 0.666157 0.855815
O O5 0.480300 0.135376 0.036099
O O6 0.547653 0.089714 0.194999
O O7 0.548176 0.033673 0.920277
O O8 0.698942 0.836636 0.127247
O O9 0.773487 0.809508 0.984639
O O10 0.708560 0.677249 0.965796
O O11 0.696916 0.845474 0.844126
O O12 0.610023 0.894390 0.887057
O O13 0.160161 0.500280 0.279818
O O14 0.227239 0.423744 0.142546
O O15 0.801574 0.014550 0.449405
O O16 0.803959 0.094898 0.709025
#
# Coordination Sequence:
#
# PCOD9458029 Si02
#       8
#     8   8   8   8   8   8   8   8
#     4  11  21  34  52  76 107 141 185 218 263 327
#     4   9  18  32  49  75 108 138 173 210 267 320
#     4  11  23  36  52  77 109 141 184 220 262 317
#     4   9  18  30  50  75 107 140 169 214 260 326
#     4  11  22  32  54  77 108 147 177 220 265 317
#     4  11  20  35  52  79 108 143 183 211 265 320
#     4  11  24  37  55  74 105 144 185 226 266 315
#     4  11  24  38  53  74 105 146 186 230 267 304
#
# _framework density 17.491773999999999
#
# number of rings (size 3 to 8) (size 9 to 14) (size 15 to 20)
#    0.000    1.500    5.000    0.750    5.250    0.000 
#    0.000    0.000    0.000    0.000    0.000    0.875 
#    0.000    0.000    0.000    0.000    0.000    0.000 
#
# Total GULP energy -357228.187066 kJ/mol
# GULP energy per Si atom -5581.690423 kJ/mol
# Density = 1.745196 g / cm^3
# Si number density = 17.491774 Si / 1000 Ang^3
#
#
#
# Elastic Constant Matrix: (Units=GPa)
#
#
# Indices 1 2 3 4 5 6 
#
# 1 52.3702 16.0628 -4.9824 0.0000 0.0000 0.0000
# 2 16.0628 108.3748 15.1040 0.0000 0.0000 0.0000
# 3 -4.9824 15.1040 16.7959 0.0000 0.0000 0.0000
# 4 0.0000 0.0000 0.0000 12.6313 0.0000 0.0000
# 5 0.0000 0.0000 0.0000 0.0000 11.4678 0.0000
# 6 0.0000 0.0000 0.0000 0.0000 0.0000 27.1215
#
#
#
# Elastic Compliance Matrix: (Units=1/GPa)
#
#
# Indices 1 2 3 4 5 6 
#
# 1 0.021533 -0.004667 0.010584 0.000000 0.000000 0.000000
# 2 -0.004667 0.011561 -0.011781 0.000000 0.000000 0.000000
# 3 0.010584 -0.011781 0.073272 0.000000 0.000000 0.000000
# 4 0.000000 0.000000 0.000000 0.079168 0.000000 0.000000
# 5 0.000000 0.000000 0.000000 0.000000 0.087201 0.000000
# 6 0.000000 0.000000 0.000000 0.000000 0.000000 0.036871
#
#
# Mechanical properties :
#
#
# Convention : Reuss Voigt Hill
#
# Bulk Modulus (GPa) = 10.56635 25.54552 18.05593
# Shear Modulus (GPa) = 14.16915 20.33454 17.25185
#
# Velocity S-wave (km/s) = 2.84922 3.41327 3.14392
# Velocity P-wave (km/s) = 4.10828 5.49272 4.85015
#
# Compressibility (1/GPa) = 0.09464010
#
# Stress axis : x y z
#
# Youngs Moduli (GPa) = 46.44008 86.49955 13.64776
#
# Poissons Ratio (x) = 0.40366 -0.14445
# Poissons Ratio (y) = 0.21672 0.16078
# Poissons Ratio (z) = -0.49154 1.01902
#
# Static dielectric constant tensor:
#      x y z
#    x 1.654940 0.000000 0.000000 
#    y 0.000000 1.577510 0.000000 
#    z 0.000000 0.000000 1.619250 
# 
# From -- ./inp_files/8500.got.cif
#   From: 2010.05.17/outbox.cif.g08.bks.cpg/sg60_5_cif.got.tgz:8500.got - 2010.06.03 14:59:27.
