data_PCOD9458492
_publ_section_title
;
Structure prediction by ZEFSAII (Michael W. Deem and Ramdas Pophale) SiO2 
 PCOD9458492
Probable space group: P B C N
;
_chemical_formula_sum "Si O2"
_cell_formula_units_Z 60
_cell_length_a 11.306472
_cell_length_b 21.473449
_cell_length_c 12.146467
_cell_angle_alpha 90.000000
_cell_angle_beta 90.000000
_cell_angle_gamma 90.000000
_cell_volume 2949.027967
_symmetry_space_group_name_H-M "P B C N"
_symmetry_group_IT_number 60
_symmetry_cell_setting 'orthorhombic'
loop_
_space_group_symop_operation_xyz
x,y,z
1/2-x,1/2-y,1/2+z
1/2+x,1/2-y,-z
-x,y,1/2-z
-x,-y,-z
1/2+x,1/2+y,1/2-z
1/2-x,1/2+y,z
x,-y,1/2+z
loop_
_atom_site_type_symbol
_atom_site_label
_atom_site_fract_x
_atom_site_fract_y
_atom_site_fract_z
Si Si1 0.708534 0.825529 0.742013
Si Si2 0.500000 0.506295 0.250000
Si Si3 0.693248 0.578179 0.867002
Si Si4 0.864233 0.816122 0.211054
Si Si5 0.056652 0.439523 0.857108
Si Si6 0.829309 0.862168 0.964450
Si Si7 0.329337 0.023183 0.024529
Si Si8 0.406557 0.614949 0.396309
O O1 0.662881 0.755939 0.731076
O O2 0.618131 0.876274 0.687636
O O3 0.740921 0.837132 0.870008
O O4 0.828129 0.837759 0.673758
O O5 0.414223 0.463067 0.179546
O O6 0.421915 0.551398 0.327019
O O7 0.711477 0.635834 0.785102
O O8 0.800547 0.530593 0.886753
O O9 0.654287 0.603405 0.986394
O O10 0.000000 0.827298 0.250000
O O11 0.838463 0.830033 0.083088
O O12 0.000000 0.469120 0.750000
O O13 0.946441 0.437411 0.942757
O O14 0.148493 0.485662 0.913073
O O15 0.960708 0.861989 0.915893
O O16 0.782960 0.932254 0.983206
#
# Coordination Sequence:
#
# PCOD9458492 Si02
#       8
#     8   4   8   8   8   8   8   8
#     4  12  26  48  72 100 142 201 241 287 354 436
#     4  12  22  38  70 110 146 168 224 296 372 426
#     4  12  24  42  70 106 145 179 228 303 364 415
#     4  12  29  45  70 103 146 191 243 290 352 434
#     4  11  24  45  67 101 144 190 241 283 354 426
#     4  12  25  45  74 108 139 183 241 303 371 421
#     4  11  25  41  74 107 143 183 236 298 363 427
#     4  12  23  43  72 106 138 181 235 305 364 422
#
# _framework density 20.345687000000002
#
# number of rings (size 3 to 8) (size 9 to 14) (size 15 to 20)
#    0.000    0.267    7.333    0.800    5.600    0.000 
#    0.000    0.000    5.867    0.000    0.000    0.000 
#    0.000    0.000    0.000    0.000    0.000    0.000 
#
# Total GULP energy -335282.741049 kJ/mol
# GULP energy per Si atom -5588.045684 kJ/mol
# Density = 2.029938 g / cm^3
# Si number density = 20.345687 Si / 1000 Ang^3
#
#
#
# Elastic Constant Matrix: (Units=GPa)
#
#
# Indices 1 2 3 4 5 6 
#
# 1 82.5390 51.2207 34.5383 0.0000 0.0000 0.0000
# 2 51.2207 123.4706 67.9427 0.0000 0.0000 0.0000
# 3 34.5383 67.9427 131.7532 0.0000 0.0000 0.0000
# 4 0.0000 0.0000 0.0000 17.4446 0.0000 0.0000
# 5 0.0000 0.0000 0.0000 0.0000 38.8965 0.0000
# 6 0.0000 0.0000 0.0000 0.0000 0.0000 46.0202
#
#
#
# Elastic Compliance Matrix: (Units=1/GPa)
#
#
# Indices 1 2 3 4 5 6 
#
# 1 0.016430 -0.006207 -0.001106 0.000000 0.000000 0.000000
# 2 -0.006207 0.013653 -0.005413 0.000000 0.000000 0.000000
# 3 -0.001106 -0.005413 0.010671 0.000000 0.000000 0.000000
# 4 0.000000 0.000000 0.000000 0.057324 0.000000 0.000000
# 5 0.000000 0.000000 0.000000 0.000000 0.025709 0.000000
# 6 0.000000 0.000000 0.000000 0.000000 0.000000 0.021730
#
#
# Mechanical properties :
#
#
# Convention : Reuss Voigt Hill
#
# Bulk Modulus (GPa) = 65.35437 71.68515 68.51976
# Shear Modulus (GPa) = 28.39748 32.74301 30.57025
#
# Velocity S-wave (km/s) = 3.74003 4.01600 3.88047
# Velocity P-wave (km/s) = 7.13036 7.53754 7.33678
#
# Compressibility (1/GPa) = 0.01530120
#
# Stress axis : x y z
#
# Youngs Moduli (GPa) = 60.86285 73.24400 93.70759
#
# Poissons Ratio (x) = 0.45465 0.10365
# Poissons Ratio (y) = 0.37780 0.50727
# Poissons Ratio (z) = 0.06732 0.39650
#
# Static dielectric constant tensor:
#      x y z
#    x 1.760200 0.000000 0.000000 
#    y 0.000000 1.694000 0.000000 
#    z 0.000000 0.000000 1.787420 
# 
# From -- ./inp_files/11262.got.cif
#   From: 2010.05.17/outbox.cif.g08.bks.cpg/sg60_6_cif.got.tgz:11262.got - 2010.06.03 14:59:27.
