data_PCOD9458116
_publ_section_title
;
Structure prediction by ZEFSAII (Michael W. Deem and Ramdas Pophale) SiO2 
 PCOD9458116
Probable space group: P B C N
;
_chemical_formula_sum "Si O2"
_cell_formula_units_Z 40
_cell_length_a 13.837991
_cell_length_b 25.588548
_cell_length_c 5.080487
_cell_angle_alpha 90.000000
_cell_angle_beta 90.000000
_cell_angle_gamma 90.000000
_cell_volume 1798.970456
_symmetry_space_group_name_H-M "P B C N"
_symmetry_group_IT_number 60
_symmetry_cell_setting 'orthorhombic'
loop_
_space_group_symop_operation_xyz
x,y,z
1/2-x,1/2-y,1/2+z
1/2+x,1/2-y,-z
-x,y,1/2-z
-x,-y,-z
1/2+x,1/2+y,1/2-z
1/2-x,1/2+y,z
x,-y,1/2+z
loop_
_atom_site_type_symbol
_atom_site_label
_atom_site_fract_x
_atom_site_fract_y
_atom_site_fract_z
Si Si1 0.559847 0.180432 0.015735
Si Si2 0.000000 0.465108 0.250000
Si Si3 0.500000 0.460562 0.750000
Si Si4 0.776091 0.280405 0.822680
Si Si5 0.805931 0.590833 0.873768
Si Si6 0.696517 0.399818 0.865143
O O1 0.500000 0.149825 0.250000
O O2 0.614286 0.221307 0.204274
O O3 0.500000 0.192061 0.750000
O O4 0.653338 0.148986 0.914592
O O5 0.098460 0.433841 0.242979
O O6 0.000000 0.500000 0.500000
O O7 0.500000 0.500000 0.500000
O O8 0.592660 0.421959 0.781191
O O9 0.720096 0.246277 0.606790
O O10 0.723824 0.337577 0.845671
O O11 0.720892 0.586033 0.664743
O O12 0.770973 0.572955 0.159810
#
# Coordination Sequence:
#
# PCOD9458116 Si02
#       6
#     8   4   4   8   8   8
#     4  11  21  38  66  93 127 179 221 258 326 423
#     4  12  26  36  58  97 136 167 206 270 332 404
#     4  12  28  50  78 101 136 187 256 316 360 406
#     4  11  23  42  66 100 142 177 220 282 353 426
#     4  11  23  41  67  92 137 176 216 272 337 416
#     4  11  25  46  72 101 134 184 234 297 350 418
#
# _framework density 22.234939000000001
#
# number of rings (size 3 to 8) (size 9 to 14) (size 15 to 20)
#    0.000    0.800    1.000    8.400    1.400    4.800 
#    5.400    0.000    0.000    0.000    0.000    0.000 
#    0.000    0.000    0.000    0.000    0.000    0.000 
#
# Total GULP energy -222952.635865 kJ/mol
# GULP energy per Si atom -5573.815897 kJ/mol
# Density = 2.218433 g / cm^3
# Si number density = 22.234939 Si / 1000 Ang^3
#
#
#
# Elastic Constant Matrix: (Units=GPa)
#
#
# Indices 1 2 3 4 5 6 
#
# 1 86.9315 8.1573 8.7697 0.0000 0.0000 0.0000
# 2 8.1573 51.5305 24.9115 0.0000 0.0000 0.0000
# 3 8.7697 24.9115 146.4676 0.0000 0.0000 0.0000
# 4 0.0000 0.0000 0.0000 28.9866 0.0000 0.0000
# 5 0.0000 0.0000 0.0000 0.0000 36.7852 0.0000
# 6 0.0000 0.0000 0.0000 0.0000 0.0000 33.0385
#
#
#
# Elastic Compliance Matrix: (Units=1/GPa)
#
#
# Indices 1 2 3 4 5 6 
#
# 1 0.011700 -0.001649 -0.000420 0.000000 0.000000 0.000000
# 2 -0.001649 0.021377 -0.003537 0.000000 0.000000 0.000000
# 3 -0.000420 -0.003537 0.007454 0.000000 0.000000 0.000000
# 4 0.000000 0.000000 0.000000 0.034499 0.000000 0.000000
# 5 0.000000 0.000000 0.000000 0.000000 0.027185 0.000000
# 6 0.000000 0.000000 0.000000 0.000000 0.000000 0.030268
#
#
# Mechanical properties :
#
#
# Convention : Reuss Voigt Hill
#
# Bulk Modulus (GPa) = 34.10752 40.95630 37.53191
# Shear Modulus (GPa) = 32.57997 35.96813 34.27405
#
# Velocity S-wave (km/s) = 3.83202 4.02635 3.93039
# Velocity P-wave (km/s) = 5.91203 6.33049 6.12484
#
# Compressibility (1/GPa) = 0.02931904
#
# Stress axis : x y z
#
# Youngs Moduli (GPa) = 85.46694 46.77924 134.15258
#
# Poissons Ratio (x) = 0.07714 0.05635
# Poissons Ratio (y) = 0.14094 0.47451
# Poissons Ratio (z) = 0.03590 0.16546
#
# Static dielectric constant tensor:
#      x y z
#    x 1.876060 0.000000 0.000000 
#    y 0.000000 1.928970 0.000000 
#    z 0.000000 0.000000 1.811150 
# 
# From -- ./inp_files/880.got.cif
#   From: 2010.05.17/outbox.cif.g08.bks.cpg/sg60_1_cif.got.tgz:880.got - 2010.06.03 14:59:27.
