data_PCOD9458039
_publ_section_title
;
Structure prediction by ZEFSAII (Michael W. Deem and Ramdas Pophale) SiO2 
 PCOD9458039
Probable space group: P B C N
;
_chemical_formula_sum "Si O2"
_cell_formula_units_Z 56
_cell_length_a 14.615065
_cell_length_b 18.901699
_cell_length_c 9.548964
_cell_angle_alpha 90.000000
_cell_angle_beta 90.000000
_cell_angle_gamma 90.000000
_cell_volume 2637.897099
_symmetry_space_group_name_H-M "P B C N"
_symmetry_group_IT_number 60
_symmetry_cell_setting 'orthorhombic'
loop_
_space_group_symop_operation_xyz
x,y,z
1/2-x,1/2-y,1/2+z
1/2+x,1/2-y,-z
-x,y,1/2-z
-x,-y,-z
1/2+x,1/2+y,1/2-z
1/2-x,1/2+y,z
x,-y,1/2+z
loop_
_atom_site_type_symbol
_atom_site_label
_atom_site_fract_x
_atom_site_fract_y
_atom_site_fract_z
Si Si1 0.109424 0.512506 0.498843
Si Si2 0.703186 0.070662 0.271576
Si Si3 0.839511 0.744766 0.581762
Si Si4 0.369525 0.274192 0.484950
Si Si5 0.405718 0.793096 0.713643
Si Si6 0.403804 0.147295 0.681106
Si Si7 0.104308 0.878919 0.727857
O O1 0.162703 0.450273 0.577835
O O2 0.148914 0.526292 0.345111
O O3 0.131669 0.582007 0.591597
O O4 0.000000 0.500000 0.500000
O O5 0.675850 0.152869 0.253700
O O6 0.812333 0.065997 0.257178
O O7 0.737357 0.746298 0.521028
O O8 0.899815 0.730650 0.444917
O O9 0.844612 0.680655 0.693597
O O10 0.874458 0.814403 0.663168
O O11 0.401435 0.270475 0.324870
O O12 0.417007 0.211729 0.573285
O O13 0.385435 0.344560 0.573266
O O14 0.500000 0.832895 0.750000
O O15 0.500000 0.126667 0.750000
O O16 0.000000 0.902965 0.750000
#
# Coordination Sequence:
#
# PCOD9458039 Si02
#       7
#     8   8   8   8   8   8   8
#     4  12  26  44  63  93 129 168 213 272 329 384
#     4  12  26  42  65  90 130 166 216 262 318 386
#     4  11  21  36  61  92 129 162 205 254 318 381
#     4  11  20  38  60  92 128 165 204 257 317 381
#     4  12  21  35  59  92 127 159 201 253 311 378
#     4  11  22  37  58  86 123 164 205 249 315 385
#     4  11  23  44  64  92 129 173 213 259 317 382
#
# _framework density 21.229030000000002
#
# number of rings (size 3 to 8) (size 9 to 14) (size 15 to 20)
#    0.000    0.571    4.286    6.429    4.000    0.000 
#    0.000    0.714    0.000    0.000    0.000    0.000 
#    0.000    0.000    0.000    0.000    0.000    0.000 
#
# Total GULP energy -313082.587734 kJ/mol
# GULP energy per Si atom -5590.760495 kJ/mol
# Density = 2.118071 g / cm^3
# Si number density = 21.229030 Si / 1000 Ang^3
#
#
#
# Elastic Constant Matrix: (Units=GPa)
#
#
# Indices 1 2 3 4 5 6 
#
# 1 144.7497 6.3257 29.8798 0.0000 0.0000 0.0000
# 2 6.3257 25.7324 21.5157 0.0000 0.0000 0.0000
# 3 29.8798 21.5157 137.5391 0.0000 0.0000 0.0000
# 4 0.0000 0.0000 0.0000 16.2155 0.0000 0.0000
# 5 0.0000 0.0000 0.0000 0.0000 26.4055 0.0000
# 6 0.0000 0.0000 0.0000 0.0000 0.0000 26.0629
#
#
#
# Elastic Compliance Matrix: (Units=1/GPa)
#
#
# Indices 1 2 3 4 5 6 
#
# 1 0.007239 -0.000535 -0.001489 0.000000 0.000000 0.000000
# 2 -0.000535 0.044749 -0.006884 0.000000 0.000000 0.000000
# 3 -0.001489 -0.006884 0.008671 0.000000 0.000000 0.000000
# 4 0.000000 0.000000 0.000000 0.061669 0.000000 0.000000
# 5 0.000000 0.000000 0.000000 0.000000 0.037871 0.000000
# 6 0.000000 0.000000 0.000000 0.000000 0.000000 0.038369
#
#
# Mechanical properties :
#
#
# Convention : Reuss Voigt Hill
#
# Bulk Modulus (GPa) = 23.34063 47.05150 35.19606
# Shear Modulus (GPa) = 21.67648 30.42344 26.04996
#
# Velocity S-wave (km/s) = 3.19890 3.78975 3.50679
# Velocity P-wave (km/s) = 4.96613 6.43129 5.74560
#
# Compressibility (1/GPa) = 0.04284375
#
# Stress axis : x y z
#
# Youngs Moduli (GPa) = 138.13649 22.34694 115.32623
#
# Poissons Ratio (x) = 0.01195 0.17173
# Poissons Ratio (y) = 0.07384 0.79392
# Poissons Ratio (z) = 0.20569 0.15384
#
# Static dielectric constant tensor:
#      x y z
#    x 1.856270 0.000000 0.000000 
#    y 0.000000 1.761320 0.000000 
#    z 0.000000 0.000000 1.416130 
# 
# From -- ./inp_files/6153.got.cif
#   From: 2010.05.17/outbox.cif.g08.bks.cpg/sg60_4_cif.got.tgz:6153.got - 2010.06.03 14:59:27.
