data_PCOD9458387
_publ_section_title
;
Structure prediction by ZEFSAII (Michael W. Deem and Ramdas Pophale) SiO2 
 PCOD9458387
Probable space group: P B C N
;
_chemical_formula_sum "Si O2"
_cell_formula_units_Z 48
_cell_length_a 9.390675
_cell_length_b 9.409356
_cell_length_c 27.597998
_cell_angle_alpha 90.000000
_cell_angle_beta 90.000000
_cell_angle_gamma 90.000000
_cell_volume 2438.564738
_symmetry_space_group_name_H-M "P B C N"
_symmetry_group_IT_number 60
_symmetry_cell_setting 'orthorhombic'
loop_
_space_group_symop_operation_xyz
x,y,z
1/2-x,1/2-y,1/2+z
1/2+x,1/2-y,-z
-x,y,1/2-z
-x,-y,-z
1/2+x,1/2+y,1/2-z
1/2-x,1/2+y,z
x,-y,1/2+z
loop_
_atom_site_type_symbol
_atom_site_label
_atom_site_fract_x
_atom_site_fract_y
_atom_site_fract_z
Si Si1 0.907553 0.886523 0.972995
Si Si2 0.407768 0.190146 0.131754
Si Si3 0.101243 0.803709 0.796483
Si Si4 0.617952 0.472247 0.862178
Si Si5 0.418423 0.859543 0.515206
Si Si6 0.607402 0.030144 0.204046
O O1 0.892733 0.939569 0.918806
O O2 0.750001 0.866520 0.994212
O O3 0.001769 0.749204 0.980504
O O4 0.000000 0.000000 0.000000
O O5 0.269568 0.100885 0.149831
O O6 0.387649 0.357154 0.144814
O O7 0.428085 0.176112 0.073145
O O8 0.537637 0.116830 0.159665
O O9 0.128945 0.637192 0.808467
O O10 0.244472 0.890710 0.785246
O O11 0.000000 0.802331 0.750000
O O12 0.010508 0.890040 0.836254
O O13 0.500000 0.000000 0.500000
O O14 0.500000 0.038442 0.250000
#
# Coordination Sequence:
#
# PCOD9458387 Si02
#       6
#     8   8   8   8   8   8
#     4  11  23  44  63  95 133 173 225 272 336 392
#     4  11  24  43  66  96 129 174 220 266 332 388
#     4  11  25  44  68  99 131 170 215 267 327 389
#     4  11  24  42  68  93 132 174 216 272 324 395
#     4  11  25  40  67  95 131 179 221 279 331 400
#     4  11  25  44  68  98 132 169 215 268 326 391
#
# _framework density 19.683710000000001
#
# number of rings (size 3 to 8) (size 9 to 14) (size 15 to 20)
#    0.000    1.000    1.667    4.000    9.333    8.000 
#    0.000    0.000    0.000    0.000    0.000    0.000 
#    0.000    0.000    0.000    0.000    0.000    0.000 
#
# Total GULP energy -268009.894525 kJ/mol
# GULP energy per Si atom -5583.539469 kJ/mol
# Density = 1.963891 g / cm^3
# Si number density = 19.683710 Si / 1000 Ang^3
#
#
#
# Elastic Constant Matrix: (Units=GPa)
#
#
# Indices 1 2 3 4 5 6 
#
# 1 151.4654 69.1566 28.8433 0.0000 0.0000 0.0000
# 2 69.1566 202.0309 19.3678 0.0000 0.0000 0.0000
# 3 28.8433 19.3678 13.8324 0.0000 0.0000 0.0000
# 4 0.0000 0.0000 0.0000 23.7891 0.0000 0.0000
# 5 0.0000 0.0000 0.0000 0.0000 38.4763 0.0000
# 6 0.0000 0.0000 0.0000 0.0000 0.0000 38.1122
#
#
#
# Elastic Compliance Matrix: (Units=1/GPa)
#
#
# Indices 1 2 3 4 5 6 
#
# 1 0.011549 -0.001900 -0.021422 0.000000 0.000000 0.000000
# 2 -0.001900 0.006030 -0.004481 0.000000 0.000000 0.000000
# 3 -0.021422 -0.004481 0.123238 0.000000 0.000000 0.000000
# 4 0.000000 0.000000 0.000000 0.042036 0.000000 0.000000
# 5 0.000000 0.000000 0.000000 0.000000 0.025990 0.000000
# 6 0.000000 0.000000 0.000000 0.000000 0.000000 0.026238
#
#
# Mechanical properties :
#
#
# Convention : Reuss Voigt Hill
#
# Bulk Modulus (GPa) = 11.73564 66.89602 39.31583
# Shear Modulus (GPa) = 15.66956 36.73960 26.20458
#
# Velocity S-wave (km/s) = 2.82453 4.32499 3.65263
# Velocity P-wave (km/s) = 4.07582 7.68114 6.14867
#
# Compressibility (1/GPa) = 0.08521054
#
# Stress axis : x y z
#
# Youngs Moduli (GPa) = 86.58883 165.84823 8.11439
#
# Poissons Ratio (x) = 0.31505 0.17383
# Poissons Ratio (y) = 0.16449 0.03636
# Poissons Ratio (z) = 1.85489 0.74324
#
# Static dielectric constant tensor:
#      x y z
#    x 1.641770 0.000000 0.000000 
#    y 0.000000 1.653690 0.000000 
#    z 0.000000 0.000000 1.625360 
# 
# From -- ./inp_files/25941.got.cif
#   From: 2010.05.17/outbox.cif.g08.bks.cpg/sg60_13_cif.got.tgz:25941.got - 2010.06.03 14:59:27.
