data_PCOD9458678
_publ_section_title
;
Structure prediction by ZEFSAII (Michael W. Deem and Ramdas Pophale) SiO2 
 PCOD9458678
Probable space group: P B C N
;
_chemical_formula_sum "Si O2"
_cell_formula_units_Z 48
_cell_length_a 15.186261
_cell_length_b 6.786958
_cell_length_c 18.337625
_cell_angle_alpha 90.000000
_cell_angle_beta 90.000000
_cell_angle_gamma 90.000000
_cell_volume 1890.031788
_symmetry_space_group_name_H-M "P B C N"
_symmetry_group_IT_number 60
_symmetry_cell_setting 'orthorhombic'
loop_
_space_group_symop_operation_xyz
x,y,z
1/2-x,1/2-y,1/2+z
1/2+x,1/2-y,-z
-x,y,1/2-z
-x,-y,-z
1/2+x,1/2+y,1/2-z
1/2-x,1/2+y,z
x,-y,1/2+z
loop_
_atom_site_type_symbol
_atom_site_label
_atom_site_fract_x
_atom_site_fract_y
_atom_site_fract_z
Si Si1 0.829657 0.303214 0.859385
Si Si2 0.234936 0.275659 0.993866
Si Si3 0.335176 0.536421 0.235685
Si Si4 0.443375 0.876050 0.058497
Si Si5 0.733444 0.028760 0.619582
Si Si6 0.055411 0.631154 0.811492
O O1 0.791107 0.207264 0.932463
O O2 0.876254 0.135758 0.812342
O O3 0.747680 0.381282 0.811181
O O4 0.891460 0.474678 0.888336
O O5 0.130920 0.254359 0.015480
O O6 0.257031 0.282167 0.901981
O O7 0.236694 0.530543 0.974403
O O8 0.297317 0.455586 0.310994
O O9 0.400275 0.706796 0.259423
O O10 0.506164 0.773985 0.118124
O O11 0.500000 0.000000 0.000000
O O12 0.634026 0.012489 0.650228
O O13 0.000000 0.514899 0.750000
#
# Coordination Sequence:
#
# PCOD9458678 Si02
#       6
#     8   8   8   8   8   8
#     4  12  23  45  77 107 140 197 259 293 370 448
#     4  12  22  43  73 103 136 192 249 295 359 450
#     4  12  24  46  74 106 142 198 250 303 354 463
#     4  12  25  44  70 108 148 190 235 315 380 425
#     4  12  23  43  73 101 140 193 249 293 360 452
#     4  12  25  44  69 103 150 184 235 312 373 418
#
# _framework density 25.396395999999999
#
# number of rings (size 3 to 8) (size 9 to 14) (size 15 to 20)
#    0.000    0.000    8.333    2.000    0.000    0.000 
#    3.000    0.833    0.000    0.000    0.000    0.000 
#    0.000    0.000    0.000    0.000    0.000    0.000 
#
# Total GULP energy -268436.899647 kJ/mol
# GULP energy per Si atom -5592.435409 kJ/mol
# Density = 2.533859 g / cm^3
# Si number density = 25.396396 Si / 1000 Ang^3
#
#
#
# Elastic Constant Matrix: (Units=GPa)
#
#
# Indices 1 2 3 4 5 6 
#
# 1 83.1609 18.9064 34.8088 0.0000 0.0000 0.0000
# 2 18.9064 122.3767 67.9412 0.0000 0.0000 0.0000
# 3 34.8088 67.9412 192.6991 0.0000 0.0000 0.0000
# 4 0.0000 0.0000 0.0000 76.7420 0.0000 0.0000
# 5 0.0000 0.0000 0.0000 0.0000 63.4254 0.0000
# 6 0.0000 0.0000 0.0000 0.0000 0.0000 16.6502
#
#
#
# Elastic Compliance Matrix: (Units=1/GPa)
#
#
# Indices 1 2 3 4 5 6 
#
# 1 0.013085 -0.000882 -0.002053 0.000000 0.000000 0.000000
# 2 -0.000882 0.010220 -0.003444 0.000000 0.000000 0.000000
# 3 -0.002053 -0.003444 0.006774 0.000000 0.000000 0.000000
# 4 0.000000 0.000000 0.000000 0.013031 0.000000 0.000000
# 5 0.000000 0.000000 0.000000 0.000000 0.015767 0.000000
# 6 0.000000 0.000000 0.000000 0.000000 0.000000 0.060059
#
#
# Mechanical properties :
#
#
# Convention : Reuss Voigt Hill
#
# Bulk Modulus (GPa) = 57.73060 71.28328 64.50694
# Shear Modulus (GPa) = 36.37261 49.80220 43.08741
#
# Velocity S-wave (km/s) = 3.78854 4.43312 4.12344
# Velocity P-wave (km/s) = 6.47445 7.37106 6.93726
#
# Compressibility (1/GPa) = 0.01732184
#
# Stress axis : x y z
#
# Youngs Moduli (GPa) = 76.42597 97.84978 147.61294
#
# Poissons Ratio (x) = 0.08629 0.30299
# Poissons Ratio (y) = 0.06740 0.50837
# Poissons Ratio (z) = 0.15687 0.33699
#
# Static dielectric constant tensor:
#      x y z
#    x 2.087870 0.000000 0.000000 
#    y 0.000000 2.229010 0.000000 
#    z 0.000000 0.000000 1.934390 
# 
# From -- ./inp_files/20528.got.cif
#   From: 2010.05.17/outbox.cif.g08.bks.cpg/sg60_11_cif.got.tgz:20528.got - 2010.06.03 14:59:27.
