data_PCOD9458254
_publ_section_title
;
Structure prediction by ZEFSAII (Michael W. Deem and Ramdas Pophale) SiO2 
 PCOD9458254
Probable space group: P B C N
;
_chemical_formula_sum "Si O2"
_cell_formula_units_Z 64
_cell_length_a 14.207160
_cell_length_b 9.983027
_cell_length_c 22.042406
_cell_angle_alpha 90.000000
_cell_angle_beta 90.000000
_cell_angle_gamma 90.000000
_cell_volume 3126.284624
_symmetry_space_group_name_H-M "P B C N"
_symmetry_group_IT_number 60
_symmetry_cell_setting 'orthorhombic'
loop_
_space_group_symop_operation_xyz
x,y,z
1/2-x,1/2-y,1/2+z
1/2+x,1/2-y,-z
-x,y,1/2-z
-x,-y,-z
1/2+x,1/2+y,1/2-z
1/2-x,1/2+y,z
x,-y,1/2+z
loop_
_atom_site_type_symbol
_atom_site_label
_atom_site_fract_x
_atom_site_fract_y
_atom_site_fract_z
Si Si1 0.538536 0.228123 0.911065
Si Si2 0.171560 0.504007 0.111578
Si Si3 0.374448 0.512471 0.049510
Si Si4 0.611945 0.991698 0.753323
Si Si5 0.771377 0.128648 0.563080
Si Si6 0.419830 0.725911 0.295226
Si Si7 0.405074 0.209530 0.018346
Si Si8 0.767273 0.622338 0.146730
O O1 0.555563 0.386172 0.917595
O O2 0.472720 0.208328 0.852918
O O3 0.490085 0.180085 0.972829
O O4 0.633273 0.145560 0.900693
O O5 0.277385 0.511992 0.087395
O O6 0.156417 0.538698 0.181566
O O7 0.107545 0.605031 0.072332
O O8 0.350033 0.578034 0.984015
O O9 0.409697 0.361994 0.041121
O O10 0.500000 0.968629 0.750000
O O11 0.662048 0.911188 0.700388
O O12 0.625785 0.150363 0.740958
O O13 0.688685 0.193358 0.522567
O O14 0.796012 0.242466 0.611649
O O15 0.734873 0.998725 0.598797
O O16 0.500000 0.666473 0.250000
O O17 0.336737 0.637474 0.323305
#
# Coordination Sequence:
#
# PCOD9458254 Si02
#       8
#     8   8   8   8   8   8   8   8
#     4  12  22  42  71  95 131 182 225 270 341 410
#     4  11  24  40  67  99 133 177 228 278 336 403
#     4  11  25  41  64 103 141 173 214 283 346 403
#     4  11  24  45  68  99 134 180 236 276 337 408
#     4  11  22  42  67  99 137 172 230 268 342 400
#     4  11  23  44  69  97 136 181 225 277 342 410
#     4  11  23  42  64 100 138 172 221 281 339 398
#     4  12  23  42  73  98 133 183 226 282 327 409
#
# _framework density 20.471585999999999
#
# number of rings (size 3 to 8) (size 9 to 14) (size 15 to 20)
#    0.000    0.750    6.250    2.250    3.500    2.000 
#    0.000    0.625    0.000    0.000    0.000    0.000 
#    0.000    0.000    0.000    0.000    0.000    0.000 
#
# Total GULP energy -357904.190998 kJ/mol
# GULP energy per Si atom -5592.252984 kJ/mol
# Density = 2.042499 g / cm^3
# Si number density = 20.471586 Si / 1000 Ang^3
#
#
#
# Elastic Constant Matrix: (Units=GPa)
#
#
# Indices 1 2 3 4 5 6 
#
# 1 29.3273 -3.8291 9.4315 0.0000 0.0000 0.0000
# 2 -3.8291 78.1304 19.5602 0.0000 0.0000 0.0000
# 3 9.4315 19.5602 109.3076 0.0000 0.0000 0.0000
# 4 0.0000 0.0000 0.0000 24.8197 0.0000 0.0000
# 5 0.0000 0.0000 0.0000 0.0000 17.2007 0.0000
# 6 0.0000 0.0000 0.0000 0.0000 0.0000 20.3464
#
#
#
# Elastic Compliance Matrix: (Units=1/GPa)
#
#
# Indices 1 2 3 4 5 6 
#
# 1 0.035580 0.002630 -0.003541 0.000000 0.000000 0.000000
# 2 0.002630 0.013594 -0.002660 0.000000 0.000000 0.000000
# 3 -0.003541 -0.002660 0.009930 0.000000 0.000000 0.000000
# 4 0.000000 0.000000 0.000000 0.040291 0.000000 0.000000
# 5 0.000000 0.000000 0.000000 0.000000 0.058137 0.000000
# 6 0.000000 0.000000 0.000000 0.000000 0.000000 0.049149
#
#
# Mechanical properties :
#
#
# Convention : Reuss Voigt Hill
#
# Bulk Modulus (GPa) = 19.24421 29.67672 24.46046
# Shear Modulus (GPa) = 21.63177 25.24687 23.43932
#
# Velocity S-wave (km/s) = 3.25418 3.51560 3.38741
# Velocity P-wave (km/s) = 4.85185 5.56841 5.22243
#
# Compressibility (1/GPa) = 0.05196369
#
# Stress axis : x y z
#
# Youngs Moduli (GPa) = 28.10573 73.56280 100.70587
#
# Poissons Ratio (x) = -0.19348 0.35656
# Poissons Ratio (y) = -0.07392 0.26783
# Poissons Ratio (z) = 0.09951 0.19564
#
# Static dielectric constant tensor:
#      x y z
#    x 1.740400 0.000000 0.000000 
#    y 0.000000 1.706030 0.000000 
#    z 0.000000 0.000000 1.714640 
# 
# From -- ./inp_files/24464.got.cif
#   From: 2010.05.17/outbox.cif.g08.bks.cpg/sg60_13_cif.got.tgz:24464.got - 2010.06.03 14:59:27.
