data_PCOD9458973
_publ_section_title
;
Structure prediction by ZEFSAII (Michael W. Deem and Ramdas Pophale) SiO2 
 PCOD9458973
Probable space group: P B C A
;
_chemical_formula_sum "Si O2"
_cell_formula_units_Z 52
_cell_length_a 5.682590
_cell_length_b 12.375870
_cell_length_c 27.715069
_cell_angle_alpha 90.000000
_cell_angle_beta 90.000000
_cell_angle_gamma 90.000000
_cell_volume 1949.117522
_symmetry_space_group_name_H-M "P B C A"
_symmetry_group_IT_number 61
_symmetry_cell_setting 'orthorhombic'
loop_
_space_group_symop_operation_xyz
x,y,z
1/2-x,-y,1/2+z
1/2+x,1/2-y,-z
-x,1/2+y,1/2-z
-x,-y,-z
1/2+x,y,1/2-z
1/2-x,1/2+y,z
x,1/2-y,1/2+z
loop_
_atom_site_type_symbol
_atom_site_label
_atom_site_fract_x
_atom_site_fract_y
_atom_site_fract_z
Si Si1 0.613260 0.073690 0.393559
Si Si2 0.000000 0.500000 0.500000
Si Si3 0.379209 0.704575 0.274763
Si Si4 0.881466 0.566188 0.760055
Si Si5 0.378874 0.674305 0.633706
Si Si6 0.879236 0.676611 0.581469
Si Si7 0.885407 0.597620 0.122137
O O1 0.621762 0.192758 0.368711
O O2 0.358598 0.034032 0.376154
O O3 0.874210 0.031551 0.382074
O O4 0.587443 0.063373 0.450895
O O5 0.091158 0.395382 0.466328
O O6 0.625703 0.681116 0.248429
O O7 0.379888 0.835248 0.277543
O O8 0.393996 0.659159 0.327825
O O9 0.630979 0.509296 0.750411
O O10 0.885707 0.625162 0.812257
O O11 0.123768 0.652057 0.609713
O O12 0.622193 0.655915 0.604412
O O13 0.881703 0.810324 0.579944
#
# Coordination Sequence:
#
# PCOD9458973 Si02
#       7
#     8   4   8   8   8   8   8
#     4  10  22  38  58  82 115 146 197 236 290 336
#     4  12  28  42  60  86 108 156 196 246 288 342
#     4  10  16  26  52  90 117 137 180 229 272 327
#     4  10  16  26  52  90 117 137 180 229 272 327
#     4  10  20  38  60  87 116 154 182 237 284 331
#     4  10  22  38  58  82 115 146 197 236 290 336
#     4  10  20  38  60  87 116 154 182 237 284 331
#
# _framework density 26.678742
#
# number of rings (size 3 to 8) (size 9 to 14) (size 15 to 20)
#    0.000    1.846    0.000    9.231    0.000    8.615 
#    0.000    0.000    0.000    0.000    0.000   79.692 
#    0.000    0.000    0.000    0.000    0.000    0.000 
#
# Total GULP energy -289727.367122 kJ/mol
# GULP energy per Si atom -5571.680137 kJ/mol
# Density = 2.661802 g / cm^3
# Si number density = 26.678742 Si / 1000 Ang^3
#
#
#
# Elastic Constant Matrix: (Units=GPa)
#
#
# Indices 1 2 3 4 5 6 
#
# 1 297.4740 65.6819 28.2143 0.0000 0.0000 0.0000
# 2 65.6819 68.7522 -5.8514 0.0000 0.0000 0.0000
# 3 28.2143 -5.8514 104.4658 0.0000 0.0000 0.0000
# 4 0.0000 0.0000 0.0000 25.7912 0.0000 0.0000
# 5 0.0000 0.0000 0.0000 0.0000 -4.9073 0.0000
# 6 0.0000 0.0000 0.0000 0.0000 0.0000 60.1236
#
#
#
# Elastic Compliance Matrix: (Units=1/GPa)
#
#
# Indices 1 2 3 4 5 6 
#
# 1 0.004470 -0.004394 -0.001453 0.000000 0.000000 0.000000
# 2 -0.004394 0.018934 0.002247 0.000000 0.000000 0.000000
# 3 -0.001453 0.002247 0.010091 0.000000 0.000000 0.000000
# 4 0.000000 0.000000 0.000000 0.038773 0.000000 0.000000
# 5 0.000000 0.000000 0.000000 0.000000 -0.203778 0.000000
# 6 0.000000 0.000000 0.000000 0.000000 0.000000 0.016632
#
#
# Mechanical properties :
#
#
# Convention : Reuss Voigt Hill
#
# Bulk Modulus (GPa) = 38.03051 71.86461 54.94756
# Shear Modulus (GPa) = -50.54899 41.71132 -4.41883
#
# Velocity S-wave (km/s) = -4.35757 3.95836 -1.28837
# Velocity P-wave (km/s) = 3.32144 6.92004 4.29273
#
# Compressibility (1/GPa) = 0.02629468
#
# Stress axis : x y z
#
# Youngs Moduli (GPa) = 223.73398 52.81585 99.09941
#
# Poissons Ratio (x) = 0.23206 0.14402
# Poissons Ratio (y) = 0.98302 -0.22269
# Poissons Ratio (z) = 0.32514 -0.11869
#
# Static dielectric constant tensor:
#      x y z
#    x 2.118000 0.000000 0.000000 
#    y 0.000000 2.329590 0.000000 
#    z 0.000000 0.000000 1.999820 
# 
# From -- ./inp_files/11260.got.cif
#   From: 2010.05.17/outbox.cif.g08.bks.cpg/sg61_6_cif.got.tgz:11260.got - 2010.06.03 15:17:17.
