data_PCOD9458234
_publ_section_title
;
Structure prediction by ZEFSAII (Michael W. Deem and Ramdas Pophale) SiO2 
 PCOD9458234
Probable space group: P B C N
;
_chemical_formula_sum "Si O2"
_cell_formula_units_Z 56
_cell_length_a 5.556671
_cell_length_b 31.298098
_cell_length_c 13.949752
_cell_angle_alpha 90.000000
_cell_angle_beta 90.000000
_cell_angle_gamma 90.000000
_cell_volume 2426.046477
_symmetry_space_group_name_H-M "P B C N"
_symmetry_group_IT_number 60
_symmetry_cell_setting 'orthorhombic'
loop_
_space_group_symop_operation_xyz
x,y,z
1/2-x,1/2-y,1/2+z
1/2+x,1/2-y,-z
-x,y,1/2-z
-x,-y,-z
1/2+x,1/2+y,1/2-z
1/2-x,1/2+y,z
x,-y,1/2+z
loop_
_atom_site_type_symbol
_atom_site_label
_atom_site_fract_x
_atom_site_fract_y
_atom_site_fract_z
Si Si1 0.232306 0.373197 0.869813
Si Si2 0.200535 0.450171 0.468852
Si Si3 0.908918 0.860077 0.050230
Si Si4 0.500000 0.690540 0.250000
Si Si5 0.727547 0.238216 0.860290
Si Si6 0.033998 0.305021 0.529955
Si Si7 0.000000 0.824138 0.250000
Si Si8 0.297169 0.462428 0.916349
O O1 0.297587 0.342372 0.782829
O O2 0.244304 0.423107 0.844590
O O3 0.418438 0.368814 0.959650
O O4 0.004098 0.349973 0.915810
O O5 0.241471 0.401768 0.437814
O O6 0.426464 0.458535 0.544118
O O7 0.250172 0.487984 0.391954
O O8 0.925720 0.454469 0.507685
O O9 0.775065 0.815783 0.027352
O O10 0.011747 0.852585 0.155655
O O11 0.450740 0.722926 0.163814
O O12 0.651644 0.208922 0.948751
O O13 0.781533 0.208964 0.768897
O O14 0.952707 0.266671 0.895145
#
# Coordination Sequence:
#
# PCOD9458234 Si02
#       8
#     8   8   8   4   8   8   4   8
#     4  11  22  41  62  90 123 163 208 258 321 376
#     4   9  18  35  63  94 125 165 209 255 317 390
#     4  11  22  41  62  90 123 163 208 258 321 376
#     4  12  24  40  59  92 120 164 213 268 316 380
#     4  12  24  40  60  88 122 164 218 262 318 374
#     4  12  22  42  63  84 118 172 205 264 316 380
#     4  12  24  40  59  92 120 164 213 268 316 380
#     4   9  18  35  63  94 125 165 209 255 317 390
#
# _framework density 23.082822
#
# number of rings (size 3 to 8) (size 9 to 14) (size 15 to 20)
#    0.000    1.143    4.286    3.429    0.000    0.000 
#    0.000    0.714    0.000    0.000    0.000   12.000 
#    0.000    0.000    0.000    0.000    0.000    0.000 
#
# Total GULP energy -311812.323057 kJ/mol
# GULP energy per Si atom -5568.077197 kJ/mol
# Density = 2.303028 g / cm^3
# Si number density = 23.082822 Si / 1000 Ang^3
#
#
#
# Elastic Constant Matrix: (Units=GPa)
#
#
# Indices 1 2 3 4 5 6 
#
# 1 67.3201 3.1017 6.9519 0.0000 0.0000 0.0000
# 2 3.1017 125.2223 17.1533 0.0000 0.0000 0.0000
# 3 6.9519 17.1533 41.6069 0.0000 0.0000 0.0000
# 4 0.0000 0.0000 0.0000 1.9708 0.0000 0.0000
# 5 0.0000 0.0000 0.0000 0.0000 25.7419 0.0000
# 6 0.0000 0.0000 0.0000 0.0000 0.0000 29.1080
#
#
#
# Elastic Compliance Matrix: (Units=1/GPa)
#
#
# Indices 1 2 3 4 5 6 
#
# 1 0.015115 -0.000030 -0.002513 0.000000 0.000000 0.000000
# 2 -0.000030 0.008464 -0.003484 0.000000 0.000000 0.000000
# 3 -0.002513 -0.003484 0.025891 0.000000 0.000000 0.000000
# 4 0.000000 0.000000 0.000000 0.507408 0.000000 0.000000
# 5 0.000000 0.000000 0.000000 0.000000 0.038847 0.000000
# 6 0.000000 0.000000 0.000000 0.000000 0.000000 0.034355
#
#
# Mechanical properties :
#
#
# Convention : Reuss Voigt Hill
#
# Bulk Modulus (GPa) = 26.72739 32.06256 29.39498
# Shear Modulus (GPa) = 7.63818 25.16030 16.39924
#
# Velocity S-wave (km/s) = 1.82105 3.30510 2.66832
# Velocity P-wave (km/s) = 4.00321 5.33716 4.71757
#
# Compressibility (1/GPa) = 0.03741481
#
# Stress axis : x y z
#
# Youngs Moduli (GPa) = 66.15803 118.14964 38.62362
#
# Poissons Ratio (x) = 0.00356 0.09707
# Poissons Ratio (y) = 0.00199 0.13458
# Poissons Ratio (z) = 0.16626 0.41168
#
# Static dielectric constant tensor:
#      x y z
#    x 2.014940 0.000000 0.000000 
#    y 0.000000 1.879570 0.000000 
#    z 0.000000 0.000000 1.906260 
# 
# From -- ./inp_files/14138.got.cif
#   From: 2010.05.17/outbox.cif.g08.bks.cpg/sg60_8_cif.got.tgz:14138.got - 2010.06.03 14:59:27.
