data_PCOD9458631
_publ_section_title
;
Structure prediction by ZEFSAII (Michael W. Deem and Ramdas Pophale) SiO2 
 PCOD9458631
Probable space group: P B C N
;
_chemical_formula_sum "Si O2"
_cell_formula_units_Z 32
_cell_length_a 16.841363
_cell_length_b 5.068699
_cell_length_c 14.917507
_cell_angle_alpha 90.000000
_cell_angle_beta 90.000000
_cell_angle_gamma 90.000000
_cell_volume 1273.415081
_symmetry_space_group_name_H-M "P B C N"
_symmetry_group_IT_number 60
_symmetry_cell_setting 'orthorhombic'
loop_
_space_group_symop_operation_xyz
x,y,z
1/2-x,1/2-y,1/2+z
1/2+x,1/2-y,-z
-x,y,1/2-z
-x,-y,-z
1/2+x,1/2+y,1/2-z
1/2-x,1/2+y,z
x,-y,1/2+z
loop_
_atom_site_type_symbol
_atom_site_label
_atom_site_fract_x
_atom_site_fract_y
_atom_site_fract_z
Si Si1 0.804336 0.582499 0.754821
Si Si2 0.399374 0.864527 0.584308
Si Si3 0.692054 0.517927 0.028459
Si Si4 0.079569 0.650597 0.391321
O O1 0.766015 0.867957 0.743964
O O2 0.843169 0.530508 0.851280
O O3 0.871955 0.506997 0.683247
O O4 0.410556 0.006539 0.488019
O O5 0.355243 0.589666 0.562448
O O6 0.486189 0.825576 0.625706
O O7 0.751665 0.272225 0.037144
O O8 0.621433 0.434240 0.095393
#
# Coordination Sequence:
#
# PCOD9458631 Si02
#       4
#     8   8   8   8
#     4  12  29  48  73 110 148 196 248 306 369 442
#     4  11  26  49  76 110 150 196 247 307 375 440
#     4  12  23  42  71 102 140 184 238 292 355 430
#     4  11  26  49  76 110 150 196 247 307 375 440
#
# _framework density 25.129279
#
# number of rings (size 3 to 8) (size 9 to 14) (size 15 to 20)
#    0.000    0.500    2.500    4.500    7.000    0.000 
#    0.000    2.500    0.000    0.000    0.000    0.000 
#    0.000    0.000    0.000    0.000    0.000    0.000 
#
# Total GULP energy -179340.852456 kJ/mol
# GULP energy per Si atom -5604.401639 kJ/mol
# Density = 2.507208 g / cm^3
# Si number density = 25.129279 Si / 1000 Ang^3
#
#
#
# Elastic Constant Matrix: (Units=GPa)
#
#
# Indices 1 2 3 4 5 6 
#
# 1 148.8618 29.2906 7.2188 0.0000 0.0000 0.0000
# 2 29.2906 146.7957 15.7474 0.0000 0.0000 0.0000
# 3 7.2188 15.7474 88.0872 0.0000 0.0000 0.0000
# 4 0.0000 0.0000 0.0000 32.6021 0.0000 0.0000
# 5 0.0000 0.0000 0.0000 0.0000 55.3665 0.0000
# 6 0.0000 0.0000 0.0000 0.0000 0.0000 31.5395
#
#
#
# Elastic Compliance Matrix: (Units=1/GPa)
#
#
# Indices 1 2 3 4 5 6 
#
# 1 0.007002 -0.001362 -0.000330 0.000000 0.000000 0.000000
# 2 -0.001362 0.007210 -0.001177 0.000000 0.000000 0.000000
# 3 -0.000330 -0.001177 0.011590 0.000000 0.000000 0.000000
# 4 0.000000 0.000000 0.000000 0.030673 0.000000 0.000000
# 5 0.000000 0.000000 0.000000 0.000000 0.018061 0.000000
# 6 0.000000 0.000000 0.000000 0.000000 0.000000 0.031706
#
#
# Mechanical properties :
#
#
# Convention : Reuss Voigt Hill
#
# Bulk Modulus (GPa) = 49.84305 54.25093 52.04699
# Shear Modulus (GPa) = 42.13411 46.00081 44.06746
#
# Velocity S-wave (km/s) = 4.09919 4.28315 4.19218
# Velocity P-wave (km/s) = 6.50247 6.78941 6.64749
#
# Compressibility (1/GPa) = 0.02006298
#
# Stress axis : x y z
#
# Youngs Moduli (GPa) = 142.82501 138.69280 86.28169
#
# Poissons Ratio (x) = 0.18885 0.02850
# Poissons Ratio (y) = 0.19447 0.10159
# Poissons Ratio (z) = 0.04719 0.16329
#
# Static dielectric constant tensor:
#      x y z
#    x 1.955680 0.000000 0.000000 
#    y 0.000000 2.017190 0.000000 
#    z 0.000000 0.000000 2.057530 
# 
# From -- ./inp_files/17133.got.cif
#   From: 2010.05.17/outbox.cif.g08.bks.cpg/sg60_9_cif.got.tgz:17133.got - 2010.06.03 14:59:27.
