data_PCOD9458151
_publ_section_title
;
Structure prediction by ZEFSAII (Michael W. Deem and Ramdas Pophale) SiO2 
 PCOD9458151
Probable space group: P B C N
;
_chemical_formula_sum "Si O2"
_cell_formula_units_Z 64
_cell_length_a 8.663929
_cell_length_b 13.254181
_cell_length_c 22.688373
_cell_angle_alpha 90.000000
_cell_angle_beta 90.000000
_cell_angle_gamma 90.000000
_cell_volume 2605.380361
_symmetry_space_group_name_H-M "P B C N"
_symmetry_group_IT_number 60
_symmetry_cell_setting 'orthorhombic'
loop_
_space_group_symop_operation_xyz
x,y,z
1/2-x,1/2-y,1/2+z
1/2+x,1/2-y,-z
-x,y,1/2-z
-x,-y,-z
1/2+x,1/2+y,1/2-z
1/2-x,1/2+y,z
x,-y,1/2+z
loop_
_atom_site_type_symbol
_atom_site_label
_atom_site_fract_x
_atom_site_fract_y
_atom_site_fract_z
Si Si1 0.384503 0.134730 0.997591
Si Si2 0.833711 0.372128 0.780094
Si Si3 0.937010 0.679734 0.894586
Si Si4 0.352429 0.236654 0.431936
Si Si5 0.405052 0.611373 0.621475
Si Si6 0.688870 0.235286 0.686480
Si Si7 0.176956 0.895095 0.597112
Si Si8 0.838771 0.933396 0.254839
O O1 0.452617 0.108359 0.933814
O O2 0.278064 0.229740 0.978114
O O3 0.532588 0.158882 0.037590
O O4 0.270284 0.072876 0.038782
O O5 0.711866 0.308002 0.741672
O O6 0.795648 0.361577 0.850067
O O7 0.795558 0.490045 0.770352
O O8 0.000000 0.350704 0.750000
O O9 0.767373 0.636440 0.899016
O O10 0.921803 0.795657 0.916759
O O11 0.019594 0.696854 0.831910
O O12 0.465688 0.329558 0.413991
O O13 0.266129 0.211604 0.370764
O O14 0.421957 0.490489 0.617738
O O15 0.385455 0.638985 0.690599
O O16 0.785113 0.134471 0.701244
O O17 0.000000 0.992651 0.250000
#
# Coordination Sequence:
#
# PCOD9458151 Si02
#       8
#     8   8   8   8   8   8   8   8
#     4  11  22  43  67  92 131 168 225 272 325 387
#     4  11  26  42  67 103 135 174 220 272 334 398
#     4  11  25  44  66  99 127 175 223 276 328 396
#     4  11  21  42  66  96 128 175 219 278 324 392
#     4  11  24  41  68  94 136 170 219 273 337 395
#     4  11  25  40  72  95 130 180 224 263 339 401
#     4  11  24  42  69  95 135 173 215 272 336 387
#     4  11  24  43  64  99 140 172 218 277 327 398
#
# _framework density 24.564550000000001
#
# number of rings (size 3 to 8) (size 9 to 14) (size 15 to 20)
#    0.000    1.000    3.750    1.875    7.000    2.000 
#    0.000    0.000    0.000    0.000    0.000    0.000 
#    0.000    0.000    0.000    0.000    0.000    0.000 
#
# Total GULP energy -357244.006141 kJ/mol
# GULP energy per Si atom -5581.937596 kJ/mol
# Density = 2.450864 g / cm^3
# Si number density = 24.564550 Si / 1000 Ang^3
#
#
#
# Elastic Constant Matrix: (Units=GPa)
#
#
# Indices 1 2 3 4 5 6 
#
# 1 89.3325 6.9261 13.6950 0.0000 0.0000 0.0000
# 2 6.9261 43.9766 -2.7325 0.0000 0.0000 0.0000
# 3 13.6950 -2.7325 71.0095 0.0000 0.0000 0.0000
# 4 0.0000 0.0000 0.0000 17.0373 0.0000 0.0000
# 5 0.0000 0.0000 0.0000 0.0000 44.5053 0.0000
# 6 0.0000 0.0000 0.0000 0.0000 0.0000 26.8954
#
#
#
# Elastic Compliance Matrix: (Units=1/GPa)
#
#
# Indices 1 2 3 4 5 6 
#
# 1 0.011706 -0.001989 -0.002334 0.000000 0.000000 0.000000
# 2 -0.001989 0.023132 0.001274 0.000000 0.000000 0.000000
# 3 -0.002334 0.001274 0.014582 0.000000 0.000000 0.000000
# 4 0.000000 0.000000 0.000000 0.058695 0.000000 0.000000
# 5 0.000000 0.000000 0.000000 0.000000 0.022469 0.000000
# 6 0.000000 0.000000 0.000000 0.000000 0.000000 0.037181
#
#
# Mechanical properties :
#
#
# Convention : Reuss Voigt Hill
#
# Bulk Modulus (GPa) = 23.08334 26.67730 24.88032
# Shear Modulus (GPa) = 26.55285 30.11628 28.33456
#
# Velocity S-wave (km/s) = 3.29133 3.50524 3.39997
# Velocity P-wave (km/s) = 4.88480 5.22167 5.05604
#
# Compressibility (1/GPa) = 0.04332128
#
# Stress axis : x y z
#
# Youngs Moduli (GPa) = 85.42514 43.23065 68.57857
#
# Poissons Ratio (x) = 0.08597 0.16008
# Poissons Ratio (y) = 0.16988 -0.08735
# Poissons Ratio (z) = 0.19940 -0.05506
#
# Static dielectric constant tensor:
#      x y z
#    x 1.979310 0.000000 0.000000 
#    y 0.000000 1.950490 0.000000 
#    z 0.000000 0.000000 2.030180 
# 
# From -- ./inp_files/24066.got.cif
#   From: 2010.05.17/outbox.cif.g08.bks.cpg/sg60_13_cif.got.tgz:24066.got - 2010.06.03 14:59:27.
