data_PCOD9458443
_publ_section_title
;
Structure prediction by ZEFSAII (Michael W. Deem and Ramdas Pophale) SiO2 
 PCOD9458443
Probable space group: P B C N
;
_chemical_formula_sum "Si O2"
_cell_formula_units_Z 48
_cell_length_a 26.593885
_cell_length_b 9.471611
_cell_length_c 8.650822
_cell_angle_alpha 90.000000
_cell_angle_beta 90.000000
_cell_angle_gamma 90.000000
_cell_volume 2179.029028
_symmetry_space_group_name_H-M "P B C N"
_symmetry_group_IT_number 60
_symmetry_cell_setting 'orthorhombic'
loop_
_space_group_symop_operation_xyz
x,y,z
1/2-x,1/2-y,1/2+z
1/2+x,1/2-y,-z
-x,y,1/2-z
-x,-y,-z
1/2+x,1/2+y,1/2-z
1/2-x,1/2+y,z
x,-y,1/2+z
loop_
_atom_site_type_symbol
_atom_site_label
_atom_site_fract_x
_atom_site_fract_y
_atom_site_fract_z
Si Si1 0.895731 0.589829 0.686916
Si Si2 0.223611 0.844025 0.015387
Si Si3 0.048199 0.094724 0.837823
Si Si4 0.279389 0.928619 0.323660
Si Si5 0.956368 0.618260 0.998437
Si Si6 0.893337 0.860294 0.469195
O O1 0.837451 0.569246 0.728502
O O2 0.930756 0.628975 0.831336
O O3 0.915078 0.445654 0.613523
O O4 0.900446 0.712685 0.558862
O O5 0.223548 0.681166 0.965852
O O6 0.256034 0.927724 0.887856
O O7 0.247618 0.871599 0.180787
O O8 0.165841 0.894411 0.018989
O O9 0.087160 0.144505 0.705813
O O10 0.000000 0.032140 0.750000
O O11 0.028886 0.229427 0.935827
O O12 0.075281 0.981337 0.944524
O O13 0.000000 0.500000 0.000000
#
# Coordination Sequence:
#
# PCOD9458443 Si02
#       6
#     8   8   8   8   8   8
#     4  11  24  42  64  95 129 167 214 263 319 381
#     4  11  24  42  65  95 130 169 217 266 320 382
#     4  12  25  43  67  95 129 170 213 265 323 384
#     4  11  24  41  65  93 128 169 212 264 319 379
#     4  12  25  43  67  95 129 169 213 265 321 384
#     4  11  25  43  66  97 129 168 217 267 319 382
#
# _framework density 22.028158000000001
#
# number of rings (size 3 to 8) (size 9 to 14) (size 15 to 20)
#    0.000    0.667    0.000    8.000    0.000   12.000 
#    0.000    0.000    0.000    0.000    0.000    0.000 
#    0.000    0.000    0.000    0.000    0.000    0.000 
#
# Total GULP energy -268918.817045 kJ/mol
# GULP energy per Si atom -5602.475355 kJ/mol
# Density = 2.197802 g / cm^3
# Si number density = 22.028158 Si / 1000 Ang^3
#
#
#
# Elastic Constant Matrix: (Units=GPa)
#
#
# Indices 1 2 3 4 5 6 
#
# 1 100.9390 30.8254 8.5873 0.0000 0.0000 0.0000
# 2 30.8254 71.8829 0.5052 0.0000 0.0000 0.0000
# 3 8.5873 0.5052 82.2823 0.0000 0.0000 0.0000
# 4 0.0000 0.0000 0.0000 30.0958 0.0000 0.0000
# 5 0.0000 0.0000 0.0000 0.0000 44.4006 0.0000
# 6 0.0000 0.0000 0.0000 0.0000 0.0000 32.4103
#
#
#
# Elastic Compliance Matrix: (Units=1/GPa)
#
#
# Indices 1 2 3 4 5 6 
#
# 1 0.011512 -0.004928 -0.001171 0.000000 0.000000 0.000000
# 2 -0.004928 0.016022 0.000416 0.000000 0.000000 0.000000
# 3 -0.001171 0.000416 0.012273 0.000000 0.000000 0.000000
# 4 0.000000 0.000000 0.000000 0.033227 0.000000 0.000000
# 5 0.000000 0.000000 0.000000 0.000000 0.022522 0.000000
# 6 0.000000 0.000000 0.000000 0.000000 0.000000 0.030854
#
#
# Mechanical properties :
#
#
# Convention : Reuss Voigt Hill
#
# Bulk Modulus (GPa) = 35.16217 37.21555 36.18886
# Shear Modulus (GPa) = 33.95420 35.72710 34.84065
#
# Velocity S-wave (km/s) = 3.93033 4.03163 3.98130
# Velocity P-wave (km/s) = 6.04927 6.21315 6.13176
#
# Compressibility (1/GPa) = 0.02843966
#
# Stress axis : x y z
#
# Youngs Moduli (GPa) = 86.86867 62.41425 81.48000
#
# Poissons Ratio (x) = 0.30759 0.09543
# Poissons Ratio (y) = 0.42811 -0.03389
# Poissons Ratio (z) = 0.10174 -0.02596
#
# Static dielectric constant tensor:
#      x y z
#    x 1.841260 0.000000 0.000000 
#    y 0.000000 1.768910 0.000000 
#    z 0.000000 0.000000 1.794280 
# 
# From -- ./inp_files/8402.got.cif
#   From: 2010.05.17/outbox.cif.g08.bks.cpg/sg60_5_cif.got.tgz:8402.got - 2010.06.03 14:59:27.
