data_PCOD9458453
_publ_section_title
;
Structure prediction by ZEFSAII (Michael W. Deem and Ramdas Pophale) SiO2 
 PCOD9458453
Probable space group: P B C N
;
_chemical_formula_sum "Si O2"
_cell_formula_units_Z 36
_cell_length_a 6.666870
_cell_length_b 9.836540
_cell_length_c 23.685256
_cell_angle_alpha 90.000000
_cell_angle_beta 90.000000
_cell_angle_gamma 90.000000
_cell_volume 1553.253826
_symmetry_space_group_name_H-M "P B C N"
_symmetry_group_IT_number 60
_symmetry_cell_setting 'orthorhombic'
loop_
_space_group_symop_operation_xyz
x,y,z
1/2-x,1/2-y,1/2+z
1/2+x,1/2-y,-z
-x,y,1/2-z
-x,-y,-z
1/2+x,1/2+y,1/2-z
1/2-x,1/2+y,z
x,-y,1/2+z
loop_
_atom_site_type_symbol
_atom_site_label
_atom_site_fract_x
_atom_site_fract_y
_atom_site_fract_z
Si Si1 0.000000 0.978512 0.750000
Si Si2 0.849321 0.813220 0.644751
Si Si3 0.105160 0.006414 0.060488
Si Si4 0.646822 0.157944 0.803039
Si Si5 0.391542 0.790984 0.611908
O O1 0.837708 0.066231 0.785475
O O2 0.877449 0.886458 0.705421
O O3 0.621196 0.798637 0.628351
O O4 0.952050 0.910822 0.599735
O O5 0.968053 0.668119 0.649113
O O6 0.308084 0.093704 0.070195
O O7 0.141673 0.855622 0.083528
O O8 0.000000 0.000000 0.000000
O O9 0.500000 0.144041 0.750000
O O10 0.767375 0.288668 0.828894
#
# Coordination Sequence:
#
# PCOD9458453 Si02
#       5
#     4   8   8   8   8
#     4  12  24  42  72 110 150 202 244 318 382 466
#     4  11  26  45  74 110 153 201 254 316 386 464
#     4  11  28  51  78 112 148 208 258 326 389 452
#     4  11  24  42  68 104 154 193 246 300 384 454
#     4  11  27  51  74 116 157 198 262 316 389 468
#
# _framework density 23.177150999999999
#
# number of rings (size 3 to 8) (size 9 to 14) (size 15 to 20)
#    0.000    0.889    3.333    1.333    6.222    2.667 
#    0.000    0.000    0.000    0.000    0.000    0.000 
#    0.000    0.000    0.000    0.000    0.000    0.000 
#
# Total GULP energy -200555.521907 kJ/mol
# GULP energy per Si atom -5570.986720 kJ/mol
# Density = 2.312440 g / cm^3
# Si number density = 23.177151 Si / 1000 Ang^3
#
#
#
# Elastic Constant Matrix: (Units=GPa)
#
#
# Indices 1 2 3 4 5 6 
#
# 1 195.9244 67.0492 42.9280 0.0000 0.0000 0.0000
# 2 67.0492 134.8319 59.3455 0.0000 0.0000 0.0000
# 3 42.9280 59.3455 122.4236 0.0000 0.0000 0.0000
# 4 0.0000 0.0000 0.0000 -2.7407 0.0000 0.0000
# 5 0.0000 0.0000 0.0000 0.0000 40.7989 0.0000
# 6 0.0000 0.0000 0.0000 0.0000 0.0000 7.3933
#
#
#
# Elastic Compliance Matrix: (Units=1/GPa)
#
#
# Indices 1 2 3 4 5 6 
#
# 1 0.006222 -0.002713 -0.000867 0.000000 0.000000 0.000000
# 2 -0.002713 0.010611 -0.004192 0.000000 0.000000 0.000000
# 3 -0.000867 -0.004192 0.010505 0.000000 0.000000 0.000000
# 4 0.000000 0.000000 0.000000 -0.364872 0.000000 0.000000
# 5 0.000000 0.000000 0.000000 0.000000 0.024510 0.000000
# 6 0.000000 0.000000 0.000000 0.000000 0.000000 0.135258
#
#
# Mechanical properties :
#
#
# Convention : Reuss Voigt Hill
#
# Bulk Modulus (GPa) = 84.79045 87.98061 86.38553
# Shear Modulus (GPa) = -31.58749 28.01412 -1.78669
#
# Velocity S-wave (km/s) = -3.69571 3.48040 -0.87895
# Velocity P-wave (km/s) = 4.29558 7.36162 6.02683
#
# Compressibility (1/GPa) = 0.01179378
#
# Stress axis : x y z
#
# Youngs Moduli (GPa) = 160.71300 94.24271 95.19583
#
# Poissons Ratio (x) = 0.25565 0.08252
# Poissons Ratio (y) = 0.43596 0.39911
# Poissons Ratio (z) = 0.13932 0.39511
#
# Static dielectric constant tensor:
#      x y z
#    x 1.960290 0.000000 0.000000 
#    y 0.000000 2.009420 0.000000 
#    z 0.000000 0.000000 2.071620 
# 
# From -- ./inp_files/23477.got.cif
#   From: 2010.05.17/outbox.cif.g08.bks.cpg/sg60_12_cif.got.tgz:23477.got - 2010.06.03 14:59:27.
