data_PCOD9458819
_publ_section_title
;
Structure prediction by ZEFSAII (Michael W. Deem and Ramdas Pophale) SiO2 
 PCOD9458819
Probable space group: P B C N
;
_chemical_formula_sum "Si O2"
_cell_formula_units_Z 24
_cell_length_a 16.838008
_cell_length_b 7.574722
_cell_length_c 6.974899
_cell_angle_alpha 90.000000
_cell_angle_beta 90.000000
_cell_angle_gamma 90.000000
_cell_volume 889.601145
_symmetry_space_group_name_H-M "P B C N"
_symmetry_group_IT_number 60
_symmetry_cell_setting 'orthorhombic'
loop_
_space_group_symop_operation_xyz
x,y,z
1/2-x,1/2-y,1/2+z
1/2+x,1/2-y,-z
-x,y,1/2-z
-x,-y,-z
1/2+x,1/2+y,1/2-z
1/2-x,1/2+y,z
x,-y,1/2+z
loop_
_atom_site_type_symbol
_atom_site_label
_atom_site_fract_x
_atom_site_fract_y
_atom_site_fract_z
Si Si1 0.825206 0.742224 0.168116
Si Si2 0.449791 0.335805 0.076382
Si Si3 0.647170 0.839864 0.242244
O O1 0.843084 0.550194 0.256374
O O2 0.731643 0.773830 0.159187
O O3 0.868622 0.881357 0.306826
O O4 0.859865 0.736108 0.955154
O O5 0.500000 0.248472 0.250000
O O6 0.500000 0.500000 0.000000
O O7 0.422942 0.218287 0.898122
#
# Coordination Sequence:
#
# PCOD9458819 Si02
#       3
#     8   8   8
#     4  12  26  51  87 125 170 230 298 363 428 548
#     4  12  32  50  80 130 175 225 286 371 450 509
#     4  12  26  51  87 126 169 233 299 354 443 532
#
# _framework density 26.978383000000001
#
# number of rings (size 3 to 8) (size 9 to 14) (size 15 to 20)
#    0.000    0.000    6.667    0.000    9.333    1.333 
#    0.000    0.000    0.000    0.000    0.000    0.000 
#    0.000    0.000    0.000    0.000    0.000    0.000 
#
# Total GULP energy -134787.125857 kJ/mol
# GULP energy per Si atom -5616.130244 kJ/mol
# Density = 2.691698 g / cm^3
# Si number density = 26.978383 Si / 1000 Ang^3
#
#
#
# Elastic Constant Matrix: (Units=GPa)
#
#
# Indices 1 2 3 4 5 6 
#
# 1 133.3483 62.8994 59.7772 0.0000 0.0000 0.0000
# 2 62.8994 149.9403 60.2941 0.0000 0.0000 0.0000
# 3 59.7772 60.2941 201.9075 0.0000 0.0000 0.0000
# 4 0.0000 0.0000 0.0000 27.3187 0.0000 0.0000
# 5 0.0000 0.0000 0.0000 0.0000 81.1966 0.0000
# 6 0.0000 0.0000 0.0000 0.0000 0.0000 61.0321
#
#
#
# Elastic Compliance Matrix: (Units=1/GPa)
#
#
# Indices 1 2 3 4 5 6 
#
# 1 0.009973 -0.003405 -0.001936 0.000000 0.000000 0.000000
# 2 -0.003405 0.008742 -0.001602 0.000000 0.000000 0.000000
# 3 -0.001936 -0.001602 0.006004 0.000000 0.000000 0.000000
# 4 0.000000 0.000000 0.000000 0.036605 0.000000 0.000000
# 5 0.000000 0.000000 0.000000 0.000000 0.012316 0.000000
# 6 0.000000 0.000000 0.000000 0.000000 0.000000 0.016385
#
#
# Mechanical properties :
#
#
# Convention : Reuss Voigt Hill
#
# Bulk Modulus (GPa) = 92.31268 94.57084 93.44176
# Shear Modulus (GPa) = 46.50151 54.05781 50.27966
#
# Velocity S-wave (km/s) = 4.15620 4.48118 4.32174
# Velocity P-wave (km/s) = 7.57123 7.86797 7.72103
#
# Compressibility (1/GPa) = 0.01083275
#
# Stress axis : x y z
#
# Youngs Moduli (GPa) = 100.26891 114.38763 166.54444
#
# Poissons Ratio (x) = 0.38952 0.32239
# Poissons Ratio (y) = 0.34144 0.26688
# Poissons Ratio (z) = 0.19410 0.18330
#
# Static dielectric constant tensor:
#      x y z
#    x 2.155720 0.000000 0.000000 
#    y 0.000000 2.063730 0.000000 
#    z 0.000000 0.000000 2.082190 
# 
# From -- ./inp_files/1918.got.cif
#   From: 2010.05.17/outbox.cif.g08.bks.cpg/sg60_1_cif.got.tgz:1918.got - 2010.06.03 14:59:27.
