data_PCOD9458785
_publ_section_title
;
Structure prediction by ZEFSAII (Michael W. Deem and Ramdas Pophale) SiO2 
 PCOD9458785
Probable space group: P B C N
;
_chemical_formula_sum "Si O2"
_cell_formula_units_Z 24
_cell_length_a 4.789508
_cell_length_b 8.905200
_cell_length_c 22.788637
_cell_angle_alpha 90.000000
_cell_angle_beta 90.000000
_cell_angle_gamma 90.000000
_cell_volume 971.970158
_symmetry_space_group_name_H-M "P B C N"
_symmetry_group_IT_number 60
_symmetry_cell_setting 'orthorhombic'
loop_
_space_group_symop_operation_xyz
x,y,z
1/2-x,1/2-y,1/2+z
1/2+x,1/2-y,-z
-x,y,1/2-z
-x,-y,-z
1/2+x,1/2+y,1/2-z
1/2-x,1/2+y,z
x,-y,1/2+z
loop_
_atom_site_type_symbol
_atom_site_label
_atom_site_fract_x
_atom_site_fract_y
_atom_site_fract_z
Si Si1 0.985454 0.503070 0.183039
Si Si2 0.353506 0.155880 0.481583
Si Si3 0.513174 0.678286 0.136978
O O1 0.216476 0.609000 0.152984
O O2 0.000000 0.448497 0.250000
O O3 0.711127 0.602956 0.184678
O O4 0.977179 0.356051 0.143021
O O5 0.615246 0.272374 0.475358
O O6 0.166075 0.135095 0.423636
O O7 0.500000 0.000000 0.500000
#
# Coordination Sequence:
#
# PCOD9458785 Si02
#       3
#     8   8   8
#     4  12  25  47  74 108 147 192 245 309 376 449
#     4  12  27  50  76 109 150 199 255 314 376 450
#     4  12  27  47  74 109 148 195 248 307 377 449
#
# _framework density 24.692117
#
# number of rings (size 3 to 8) (size 9 to 14) (size 15 to 20)
#    0.000    0.000    0.000   10.000    0.000    5.333 
#    0.000    0.000    0.000    0.000    0.000    0.000 
#    0.000    0.000    0.000    0.000    0.000    0.000 
#
# Total GULP energy -134333.833786 kJ/mol
# GULP energy per Si atom -5597.243074 kJ/mol
# Density = 2.463592 g / cm^3
# Si number density = 24.692117 Si / 1000 Ang^3
#
#
#
# Elastic Constant Matrix: (Units=GPa)
#
#
# Indices 1 2 3 4 5 6 
#
# 1 246.5617 79.6661 21.3229 0.0000 0.0000 0.0000
# 2 79.6661 155.7880 16.0613 0.0000 0.0000 0.0000
# 3 21.3229 16.0613 104.5468 0.0000 0.0000 0.0000
# 4 0.0000 0.0000 0.0000 37.8943 0.0000 0.0000
# 5 0.0000 0.0000 0.0000 0.0000 67.0502 0.0000
# 6 0.0000 0.0000 0.0000 0.0000 0.0000 46.0033
#
#
#
# Elastic Compliance Matrix: (Units=1/GPa)
#
#
# Indices 1 2 3 4 5 6 
#
# 1 0.004898 -0.002441 -0.000624 0.000000 0.000000 0.000000
# 2 -0.002441 0.007738 -0.000691 0.000000 0.000000 0.000000
# 3 -0.000624 -0.000691 0.009799 0.000000 0.000000 0.000000
# 4 0.000000 0.000000 0.000000 0.026389 0.000000 0.000000
# 5 0.000000 0.000000 0.000000 0.000000 0.014914 0.000000
# 6 0.000000 0.000000 0.000000 0.000000 0.000000 0.021738
#
#
# Mechanical properties :
#
#
# Convention : Reuss Voigt Hill
#
# Bulk Modulus (GPa) = 67.00735 82.33303 74.67019
# Shear Modulus (GPa) = 51.04020 56.17931 53.60975
#
# Velocity S-wave (km/s) = 4.55143 4.77507 4.66459
# Velocity P-wave (km/s) = 7.40383 7.98862 7.70178
#
# Compressibility (1/GPa) = 0.01492374
#
# Stress axis : x y z
#
# Youngs Moduli (GPa) = 204.15206 129.22817 102.05591
#
# Poissons Ratio (x) = 0.31539 0.06369
# Poissons Ratio (y) = 0.49824 0.07053
# Poissons Ratio (z) = 0.12741 0.08930
#
# Static dielectric constant tensor:
#      x y z
#    x 1.915840 0.000000 0.000000 
#    y 0.000000 1.897750 0.000000 
#    z 0.000000 0.000000 2.100100 
# 
# From -- ./inp_files/23386.got.cif
#   From: 2010.05.17/outbox.cif.g08.bks.cpg/sg60_12_cif.got.tgz:23386.got - 2010.06.03 14:59:27.
