data_PCOD9458330
_publ_section_title
;
Structure prediction by ZEFSAII (Michael W. Deem and Ramdas Pophale) SiO2 
 PCOD9458330
Probable space group: P B C N
;
_chemical_formula_sum "Si O2"
_cell_formula_units_Z 40
_cell_length_a 7.254954
_cell_length_b 9.344921
_cell_length_c 24.644917
_cell_angle_alpha 90.000000
_cell_angle_beta 90.000000
_cell_angle_gamma 90.000000
_cell_volume 1670.850748
_symmetry_space_group_name_H-M "P B C N"
_symmetry_group_IT_number 60
_symmetry_cell_setting 'orthorhombic'
loop_
_space_group_symop_operation_xyz
x,y,z
1/2-x,1/2-y,1/2+z
1/2+x,1/2-y,-z
-x,y,1/2-z
-x,-y,-z
1/2+x,1/2+y,1/2-z
1/2-x,1/2+y,z
x,-y,1/2+z
loop_
_atom_site_type_symbol
_atom_site_label
_atom_site_fract_x
_atom_site_fract_y
_atom_site_fract_z
Si Si1 0.564974 0.064845 0.662928
Si Si2 0.112801 0.746772 0.302392
Si Si3 0.173251 0.872318 0.116070
Si Si4 0.139767 0.412061 0.460527
Si Si5 0.600468 0.351041 0.951568
O O1 0.683560 0.191650 0.689113
O O2 0.349576 0.101462 0.655472
O O3 0.630194 0.033596 0.600742
O O4 0.608121 0.923808 0.696596
O O5 0.000000 0.799268 0.250000
O O6 0.993379 0.799295 0.353346
O O7 0.249371 0.766133 0.069746
O O8 0.111215 0.023284 0.091823
O O9 0.333080 0.411075 0.490860
O O10 0.000000 0.500000 0.500000
O O11 0.079118 0.245884 0.455410
#
# Coordination Sequence:
#
# PCOD9458330 Si02
#       5
#     8   8   8   8   8
#     4  11  28  48  74 111 144 188 248 301 365 447
#     4  12  30  49  78 104 138 193 248 313 376 427
#     4  11  24  48  69 107 150 186 240 305 357 442
#     4  11  23  41  68 107 148 190 236 290 359 443
#     4  11  23  40  69 102 148 196 232 292 360 436
#
# _framework density 23.939900000000002
#
# number of rings (size 3 to 8) (size 9 to 14) (size 15 to 20)
#    0.000    0.800    6.000    0.000   14.000    0.800 
#    0.000    0.000    0.000    0.000    0.000    0.000 
#    0.000    0.000    0.000    0.000    0.000    0.000 
#
# Total GULP energy -224167.863008 kJ/mol
# GULP energy per Si atom -5604.196575 kJ/mol
# Density = 2.388541 g / cm^3
# Si number density = 23.939900 Si / 1000 Ang^3
#
#
#
# Elastic Constant Matrix: (Units=GPa)
#
#
# Indices 1 2 3 4 5 6 
#
# 1 98.9459 24.7856 -0.7872 0.0000 0.0000 0.0000
# 2 24.7856 103.3029 4.1453 0.0000 0.0000 0.0000
# 3 -0.7872 4.1453 63.4182 0.0000 0.0000 0.0000
# 4 0.0000 0.0000 0.0000 25.2994 0.0000 0.0000
# 5 0.0000 0.0000 0.0000 0.0000 23.6967 0.0000
# 6 0.0000 0.0000 0.0000 0.0000 0.0000 34.3324
#
#
#
# Elastic Compliance Matrix: (Units=1/GPa)
#
#
# Indices 1 2 3 4 5 6 
#
# 1 0.010759 -0.002593 0.000303 0.000000 0.000000 0.000000
# 2 -0.002593 0.010331 -0.000707 0.000000 0.000000 0.000000
# 3 0.000303 -0.000707 0.015818 0.000000 0.000000 0.000000
# 4 0.000000 0.000000 0.000000 0.039527 0.000000 0.000000
# 5 0.000000 0.000000 0.000000 0.000000 0.042200 0.000000
# 6 0.000000 0.000000 0.000000 0.000000 0.000000 0.029127
#
#
# Mechanical properties :
#
#
# Convention : Reuss Voigt Hill
#
# Bulk Modulus (GPa) = 32.34983 35.77273 34.06128
# Shear Modulus (GPa) = 30.47644 32.50060 31.48852
#
# Velocity S-wave (km/s) = 3.57184 3.68855 3.63066
# Velocity P-wave (km/s) = 5.52747 5.75462 5.64219
#
# Compressibility (1/GPa) = 0.03091207
#
# Stress axis : x y z
#
# Youngs Moduli (GPa) = 92.94885 96.79678 63.21777
#
# Poissons Ratio (x) = 0.25104 -0.01916
# Poissons Ratio (y) = 0.24106 0.04472
# Poissons Ratio (z) = -0.02817 0.06848
#
# Static dielectric constant tensor:
#      x y z
#    x 1.942980 0.000000 0.000000 
#    y 0.000000 1.872490 0.000000 
#    z 0.000000 0.000000 1.925460 
# 
# From -- ./inp_files/25116.got.cif
#   From: 2010.05.17/outbox.cif.g08.bks.cpg/sg60_13_cif.got.tgz:25116.got - 2010.06.03 14:59:27.
