data_PCOD9458163
_publ_section_title
;
Structure prediction by ZEFSAII (Michael W. Deem and Ramdas Pophale) SiO2 
 PCOD9458163
Probable space group: P B C N
;
_chemical_formula_sum "Si O2"
_cell_formula_units_Z 48
_cell_length_a 13.681091
_cell_length_b 14.086438
_cell_length_c 9.820080
_cell_angle_alpha 90.000000
_cell_angle_beta 90.000000
_cell_angle_gamma 90.000000
_cell_volume 1892.504608
_symmetry_space_group_name_H-M "P B C N"
_symmetry_group_IT_number 60
_symmetry_cell_setting 'orthorhombic'
loop_
_space_group_symop_operation_xyz
x,y,z
1/2-x,1/2-y,1/2+z
1/2+x,1/2-y,-z
-x,y,1/2-z
-x,-y,-z
1/2+x,1/2+y,1/2-z
1/2-x,1/2+y,z
x,-y,1/2+z
loop_
_atom_site_type_symbol
_atom_site_label
_atom_site_fract_x
_atom_site_fract_y
_atom_site_fract_z
Si Si1 0.500000 0.250619 0.750000
Si Si2 0.803747 0.088124 0.644806
Si Si3 0.136476 0.596029 0.644439
Si Si4 0.650987 0.100614 0.401571
Si Si5 0.293722 0.189074 0.381081
Si Si6 0.000000 0.073524 0.750000
Si Si7 0.919933 0.200614 0.991452
O O1 0.589464 0.177816 0.763801
O O2 0.504946 0.311419 0.614799
O O3 0.738738 0.076117 0.779983
O O4 0.731931 0.070043 0.515578
O O5 0.824707 0.201085 0.630558
O O6 0.905468 0.031725 0.668373
O O7 0.089433 0.492556 0.635367
O O8 0.141784 0.636898 0.493346
O O9 0.701985 0.141729 0.266221
O O10 0.585560 0.188031 0.452295
O O11 0.186347 0.181986 0.445672
O O12 0.052332 0.137226 0.635186
#
# Coordination Sequence:
#
# PCOD9458163 Si02
#       7
#     4   8   8   8   8   4   8
#     4  12  26  41  68 101 136 164 222 272 332 395
#     4  11  22  44  66  95 126 178 223 268 319 389
#     4  12  24  44  66  98 139 171 212 275 336 394
#     4  11  24  42  67  97 139 171 213 267 345 392
#     4  11  21  43  68  91 133 179 218 265 320 397
#     4  12  22  43  72  97 128 170 236 272 314 379
#     4  11  25  41  69 102 126 179 221 270 327 388
#
# _framework density 25.363213999999999
#
# number of rings (size 3 to 8) (size 9 to 14) (size 15 to 20)
#    0.000    0.667    6.667    3.000    2.333    1.333 
#    0.000    0.833    0.000    0.000    0.000    0.000 
#    0.000    0.000    0.000    0.000    0.000    0.000 
#
# Total GULP energy -268667.664051 kJ/mol
# GULP energy per Si atom -5597.243001 kJ/mol
# Density = 2.530549 g / cm^3
# Si number density = 25.363214 Si / 1000 Ang^3
#
#
#
# Elastic Constant Matrix: (Units=GPa)
#
#
# Indices 1 2 3 4 5 6 
#
# 1 83.2168 -22.5502 13.3611 0.0000 0.0000 0.0000
# 2 -22.5502 64.6579 13.8689 0.0000 0.0000 0.0000
# 3 13.3611 13.8689 153.0659 0.0000 0.0000 0.0000
# 4 0.0000 0.0000 0.0000 -117.8737 0.0000 0.0000
# 5 0.0000 0.0000 0.0000 0.0000 42.4105 0.0000
# 6 0.0000 0.0000 0.0000 0.0000 0.0000 9.2099
#
#
#
# Elastic Compliance Matrix: (Units=1/GPa)
#
#
# Indices 1 2 3 4 5 6 
#
# 1 0.013671 0.005124 -0.001658 0.000000 0.000000 0.000000
# 2 0.005124 0.017693 -0.002050 0.000000 0.000000 0.000000
# 3 -0.001658 -0.002050 0.006864 0.000000 0.000000 0.000000
# 4 0.000000 0.000000 0.000000 -0.008484 0.000000 0.000000
# 5 0.000000 0.000000 0.000000 0.000000 0.023579 0.000000
# 6 0.000000 0.000000 0.000000 0.000000 0.000000 0.108579
#
#
# Mechanical properties :
#
#
# Convention : Reuss Voigt Hill
#
# Bulk Modulus (GPa) = 24.35523 34.47780 29.41652
# Shear Modulus (GPa) = 28.94241 6.50007 17.72124
#
# Velocity S-wave (km/s) = 3.38171 1.60261 2.64616
# Velocity P-wave (km/s) = 4.98712 4.12888 4.57815
#
# Compressibility (1/GPa) = 0.04105894
#
# Stress axis : x y z
#
# Youngs Moduli (GPa) = 73.14578 56.52048 145.69612
#
# Poissons Ratio (x) = -0.28959 0.24151
# Poissons Ratio (y) = -0.37477 0.29872
# Poissons Ratio (z) = 0.12125 0.11589
#
# Static dielectric constant tensor:
#      x y z
#    x 2.091900 0.000000 0.000000 
#    y 0.000000 1.984720 0.000000 
#    z 0.000000 0.000000 1.936630 
# 
# From -- ./inp_files/5976.got.cif
#   From: 2010.05.17/outbox.cif.g08.bks.cpg/sg60_3_cif.got.tgz:5976.got - 2010.06.03 14:59:27.
