data_PCOD9458719
_publ_section_title
;
Structure prediction by ZEFSAII (Michael W. Deem and Ramdas Pophale) SiO2 
 PCOD9458719
Probable space group: P B C N
;
_chemical_formula_sum "Si O2"
_cell_formula_units_Z 48
_cell_length_a 8.236052
_cell_length_b 30.786925
_cell_length_c 9.001766
_cell_angle_alpha 90.000000
_cell_angle_beta 90.000000
_cell_angle_gamma 90.000000
_cell_volume 2282.512229
_symmetry_space_group_name_H-M "P B C N"
_symmetry_group_IT_number 60
_symmetry_cell_setting 'orthorhombic'
loop_
_space_group_symop_operation_xyz
x,y,z
1/2-x,1/2-y,1/2+z
1/2+x,1/2-y,-z
-x,y,1/2-z
-x,-y,-z
1/2+x,1/2+y,1/2-z
1/2-x,1/2+y,z
x,-y,1/2+z
loop_
_atom_site_type_symbol
_atom_site_label
_atom_site_fract_x
_atom_site_fract_y
_atom_site_fract_z
Si Si1 0.604843 0.788367 0.479267
Si Si2 0.114614 0.386445 0.027316
Si Si3 0.254183 0.385543 0.357390
Si Si4 0.851084 0.032780 0.487536
Si Si5 0.175824 0.533630 0.319104
Si Si6 0.755088 0.787586 0.160831
O O1 0.637814 0.837503 0.532298
O O2 0.718969 0.782143 0.334879
O O3 0.638740 0.750998 0.596420
O O4 0.421351 0.786220 0.418678
O O5 0.207100 0.391640 0.184605
O O6 0.920837 0.390220 0.059475
O O7 0.174394 0.423125 0.917013
O O8 0.370508 0.421361 0.429275
O O9 0.317991 0.336290 0.370582
O O10 0.800824 0.037563 0.316898
O O11 0.711796 0.007657 0.578626
O O12 0.000000 0.000000 0.500000
O O13 0.000000 0.528272 0.250000
#
# Coordination Sequence:
#
# PCOD9458719 Si02
#       6
#     8   8   8   8   8   8
#     4   9  19  37  60  91 125 159 206 255 308 362
#     4   9  19  38  65  93 117 159 220 267 294 367
#     4   9  19  39  65  87 122 167 211 258 316 367
#     4  12  26  42  61  92 130 164 203 265 329 379
#     4  12  24  41  66  93 118 161 218 259 308 377
#     4   9  19  37  61  90 124 164 204 254 305 369
#
# _framework density 21.029461000000001
#
# number of rings (size 3 to 8) (size 9 to 14) (size 15 to 20)
#    0.000    2.000    1.667    4.000    2.333    2.000 
#    3.000    0.000    0.000    0.000    0.000    0.000 
#    0.000    0.000    0.000    0.000    0.000    0.000 
#
# Total GULP energy -268468.996438 kJ/mol
# GULP energy per Si atom -5593.104092 kJ/mol
# Density = 2.098160 g / cm^3
# Si number density = 21.029461 Si / 1000 Ang^3
#
#
#
# Elastic Constant Matrix: (Units=GPa)
#
#
# Indices 1 2 3 4 5 6 
#
# 1 33.9482 41.1092 21.8073 0.0000 0.0000 0.0000
# 2 41.1092 148.2459 64.7333 0.0000 0.0000 0.0000
# 3 21.8073 64.7333 71.0146 0.0000 0.0000 0.0000
# 4 0.0000 0.0000 0.0000 38.0831 0.0000 0.0000
# 5 0.0000 0.0000 0.0000 0.0000 25.9907 0.0000
# 6 0.0000 0.0000 0.0000 0.0000 0.0000 32.7480
#
#
#
# Elastic Compliance Matrix: (Units=1/GPa)
#
#
# Indices 1 2 3 4 5 6 
#
# 1 0.045044 -0.010716 -0.004064 0.000000 0.000000 0.000000
# 2 -0.010716 0.013756 -0.009248 0.000000 0.000000 0.000000
# 3 -0.004064 -0.009248 0.023759 0.000000 0.000000 0.000000
# 4 0.000000 0.000000 0.000000 0.026258 0.000000 0.000000
# 5 0.000000 0.000000 0.000000 0.000000 0.038475 0.000000
# 6 0.000000 0.000000 0.000000 0.000000 0.000000 0.030536
#
#
# Mechanical properties :
#
#
# Convention : Reuss Voigt Hill
#
# Bulk Modulus (GPa) = 28.98311 56.50092 42.74202
# Shear Modulus (GPa) = 21.06276 27.73497 24.39886
#
# Velocity S-wave (km/s) = 3.16821 3.63555 3.40990
# Velocity P-wave (km/s) = 5.21493 6.67449 5.98934
#
# Compressibility (1/GPa) = 0.03450285
#
# Stress axis : x y z
#
# Youngs Moduli (GPa) = 22.20055 72.69803 42.08846
#
# Poissons Ratio (x) = 0.77907 0.17103
# Poissons Ratio (y) = 0.23791 0.38923
# Poissons Ratio (z) = 0.09021 0.67231
#
# Static dielectric constant tensor:
#      x y z
#    x 1.816130 0.000000 0.000000 
#    y 0.000000 1.802140 0.000000 
#    z 0.000000 0.000000 1.725540 
# 
# From -- ./inp_files/4167.got.cif
#   From: 2010.05.17/outbox.cif.g08.bks.cpg/sg60_3_cif.got.tgz:4167.got - 2010.06.03 14:59:27.
