data_PCOD9458912
_publ_section_title
;
Structure prediction by ZEFSAII (Michael W. Deem and Ramdas Pophale) SiO2 
 PCOD9458912
Probable space group: P B C N
;
_chemical_formula_sum "Si O2"
_cell_formula_units_Z 60
_cell_length_a 27.000000
_cell_length_b 9.000000
_cell_length_c 12.000000
_cell_angle_alpha 90.000000
_cell_angle_beta 90.000000
_cell_angle_gamma 90.000000
_cell_volume 2916.000000
_symmetry_space_group_name_H-M "P B C N"
_symmetry_group_IT_number 60
_symmetry_cell_setting 'orthorhombic'
loop_
_space_group_symop_operation_xyz
x,y,z
1/2-x,1/2-y,1/2+z
1/2+x,1/2-y,-z
-x,y,1/2-z
-x,-y,-z
1/2+x,1/2+y,1/2-z
1/2-x,1/2+y,z
x,-y,1/2+z
loop_
_atom_site_type_symbol
_atom_site_label
_atom_site_fract_x
_atom_site_fract_y
_atom_site_fract_z
Si Si1 0.458162 0.793719 0.620257
Si Si2 0.779870 0.589921 0.305396
Si Si3 0.078090 0.207823 0.381798
Si Si4 0.163705 0.248003 0.870685
Si Si5 0.249131 0.667898 0.541825
Si Si6 0.560466 0.353627 0.141909
Si Si7 0.814784 0.914356 0.657473
Si Si8 0.000000 0.577772 0.750000
O O1 0.425796 0.770625 0.508943
O O2 0.438380 0.700550 0.727955
O O3 0.510478 0.714626 0.593061
O O4 0.472228 0.960639 0.664516
O O5 0.824411 0.625668 0.221050
O O6 0.781233 0.698376 0.409989
O O7 0.772591 0.429239 0.357653
O O8 0.728929 0.630731 0.240840
O O9 0.136211 0.188593 0.345355
O O10 0.041624 0.315633 0.309002
O O11 0.061289 0.032497 0.373191
O O12 0.107734 0.229149 0.911827
O O13 0.172138 0.085468 0.815633
O O14 0.203366 0.275984 0.967461
O O15 0.287221 0.580943 0.462109
#
# Coordination Sequence:
#
# PCOD9458912 Si02
#       8
#     8   8   8   8   8   8   8   4
#     4  10  22  43  63  93 135 164 207 274 332 375
#     4  11  22  40  62  87 129 166 202 261 313 369
#     4  11  22  41  69  92 123 176 213 263 326 387
#     4  10  21  40  61  94 124 162 215 260 303 383
#     4  11  22  41  62  90 127 170 206 256 323 365
#     4   9  21  41  65  95 124 163 222 268 309 391
#     4  10  23  39  62  93 123 158 222 256 304 385
#     4  10  22  44  62  96 136 162 214 270 324 394
#
# _framework density 20.576132000000001
#
# number of rings (size 3 to 8) (size 9 to 14) (size 15 to 20)
#    0.000    1.867    2.667    1.600    1.867    0.000 
#   12.000    0.000    0.000    0.000    0.000    0.000 
#    0.000    0.000    0.000    0.000    0.000    0.000 
#
# Total GULP energy -334660.248572 kJ/mol
# GULP energy per Si atom -5577.670810 kJ/mol
# Density = 2.052930 g / cm^3
# Si number density = 20.576132 Si / 1000 Ang^3
#
#
#
# Elastic Constant Matrix: (Units=GPa)
#
#
# Indices 1 2 3 4 5 6 
#
# 1 79.7813 25.0383 11.6209 0.0000 0.0000 0.0000
# 2 25.0383 103.5607 21.0830 0.0000 0.0000 0.0000
# 3 11.6209 21.0830 57.9873 0.0000 0.0000 0.0000
# 4 0.0000 0.0000 0.0000 26.4061 0.0000 0.0000
# 5 0.0000 0.0000 0.0000 0.0000 15.9818 0.0000
# 6 0.0000 0.0000 0.0000 0.0000 0.0000 33.2312
#
#
#
# Elastic Compliance Matrix: (Units=1/GPa)
#
#
# Indices 1 2 3 4 5 6 
#
# 1 0.013711 -0.002976 -0.001666 0.000000 0.000000 0.000000
# 2 -0.002976 0.011074 -0.003430 0.000000 0.000000 0.000000
# 3 -0.001666 -0.003430 0.018826 0.000000 0.000000 0.000000
# 4 0.000000 0.000000 0.000000 0.037870 0.000000 0.000000
# 5 0.000000 0.000000 0.000000 0.000000 0.062571 0.000000
# 6 0.000000 0.000000 0.000000 0.000000 0.000000 0.030092
#
#
# Mechanical properties :
#
#
# Convention : Reuss Voigt Hill
#
# Bulk Modulus (GPa) = 36.40624 39.64598 38.02611
# Shear Modulus (GPa) = 25.06985 27.36298 26.21641
#
# Velocity S-wave (km/s) = 3.49434 3.65065 3.57335
# Velocity P-wave (km/s) = 5.83201 6.08929 5.96204
#
# Compressibility (1/GPa) = 0.02746782
#
# Stress axis : x y z
#
# Youngs Moduli (GPa) = 72.93517 90.30241 53.11800
#
# Poissons Ratio (x) = 0.26872 0.08848
# Poissons Ratio (y) = 0.21704 0.18219
# Poissons Ratio (z) = 0.12149 0.30973
#
# Static dielectric constant tensor:
#      x y z
#    x 1.760780 0.000000 0.000000 
#    y 0.000000 1.714990 0.000000 
#    z 0.000000 0.000000 1.753920 
# 
# From -- ./inp_files/13292.got.cif
#   From: 2010.05.17/outbox.ucp.g08.bks.cvg/sg60_7_cif.got.tgz:13292.got - 2010.06.11 16:26:41.
