data_PCOD9458924
_publ_section_title
;
Structure prediction by ZEFSAII (Michael W. Deem and Ramdas Pophale) SiO2 
 PCOD9458924
Probable space group: P B C N
;
_chemical_formula_sum "Si O2"
_cell_formula_units_Z 48
_cell_length_a 9.000000
_cell_length_b 30.000000
_cell_length_c 9.000000
_cell_angle_alpha 90.000000
_cell_angle_beta 90.000000
_cell_angle_gamma 90.000000
_cell_volume 2430.000000
_symmetry_space_group_name_H-M "P B C N"
_symmetry_group_IT_number 60
_symmetry_cell_setting 'orthorhombic'
loop_
_space_group_symop_operation_xyz
x,y,z
1/2-x,1/2-y,1/2+z
1/2+x,1/2-y,-z
-x,y,1/2-z
-x,-y,-z
1/2+x,1/2+y,1/2-z
1/2-x,1/2+y,z
x,-y,1/2+z
loop_
_atom_site_type_symbol
_atom_site_label
_atom_site_fract_x
_atom_site_fract_y
_atom_site_fract_z
Si Si1 0.177588 0.145436 0.229190
Si Si2 0.834286 0.953714 0.679286
Si Si3 0.349703 0.203722 0.453976
Si Si4 0.301215 0.799224 0.487864
Si Si5 0.669062 0.861563 0.282281
Si Si6 0.164786 0.954476 0.180812
O O1 0.228149 0.095436 0.275780
O O2 0.265133 0.186076 0.308668
O O3 0.218180 0.158680 0.062772
O O4 0.000000 0.148640 0.250000
O O5 0.838453 0.957423 0.499726
O O6 0.000000 0.952300 0.750000
O O7 0.767087 0.999316 0.750699
O O8 0.529123 0.206561 0.454212
O O9 0.284070 0.252076 0.497695
O O10 0.313055 0.161721 0.559419
O O11 0.305695 0.818177 0.321281
O O12 0.500000 0.875005 0.250000
O O13 0.760958 0.907332 0.274460
O O14 0.000000 0.952772 0.250000
#
# Coordination Sequence:
#
# PCOD9458924 Si02
#       6
#     8   8   8   8   8   8
#     4  11  23  39  62  93 128 162 210 258 308 372
#     4  10  22  38  63  96 127 156 207 260 309 368
#     4  11  22  44  60  95 123 166 213 257 319 367
#     4  11  24  38  68  87 128 166 208 263 310 378
#     4  10  24  42  60  89 128 162 202 258 314 370
#     4  11  22  39  67  92 124 161 210 256 310 372
#
# _framework density 19.753086
#
# number of rings (size 3 to 8) (size 9 to 14) (size 15 to 20)
#    0.000    1.333    1.667    4.500    7.000    2.667 
#    0.000    2.500    0.000    0.000    0.000    0.000 
#    0.000    0.000    0.000    0.000    0.000    0.000 
#
# Total GULP energy -267392.139951 kJ/mol
# GULP energy per Si atom -5570.669582 kJ/mol
# Density = 1.970813 g / cm^3
# Si number density = 19.753086 Si / 1000 Ang^3
#
#
#
# Elastic Constant Matrix: (Units=GPa)
#
#
# Indices 1 2 3 4 5 6 
#
# 1 57.5463 49.0573 5.8221 0.0000 0.0000 0.0000
# 2 49.0573 186.2297 22.6269 0.0000 0.0000 0.0000
# 3 5.8221 22.6269 42.7606 0.0000 0.0000 0.0000
# 4 0.0000 0.0000 0.0000 45.3234 0.0000 0.0000
# 5 0.0000 0.0000 0.0000 0.0000 21.9214 0.0000
# 6 0.0000 0.0000 0.0000 0.0000 0.0000 39.6030
#
#
#
# Elastic Compliance Matrix: (Units=1/GPa)
#
#
# Indices 1 2 3 4 5 6 
#
# 1 0.022410 -0.005913 0.000077 0.000000 0.000000 0.000000
# 2 -0.005913 0.007299 -0.003057 0.000000 0.000000 0.000000
# 3 0.000077 -0.003057 0.024993 0.000000 0.000000 0.000000
# 4 0.000000 0.000000 0.000000 0.022064 0.000000 0.000000
# 5 0.000000 0.000000 0.000000 0.000000 0.045618 0.000000
# 6 0.000000 0.000000 0.000000 0.000000 0.000000 0.025251
#
#
# Mechanical properties :
#
#
# Convention : Reuss Voigt Hill
#
# Bulk Modulus (GPa) = 27.08770 49.06104 38.07437
# Shear Modulus (GPa) = 28.13352 35.30491 31.71921
#
# Velocity S-wave (km/s) = 3.77803 4.23225 4.01157
# Velocity P-wave (km/s) = 5.72488 6.98381 6.38545
#
# Compressibility (1/GPa) = 0.03691712
#
# Stress axis : x y z
#
# Youngs Moduli (GPa) = 44.62299 137.01070 40.01105
#
# Poissons Ratio (x) = 0.81011 -0.00310
# Poissons Ratio (y) = 0.26384 0.12232
# Poissons Ratio (z) = -0.00346 0.41885
#
# Static dielectric constant tensor:
#      x y z
#    x 1.684840 0.000000 0.000000 
#    y 0.000000 1.665030 0.000000 
#    z 0.000000 0.000000 1.771410 
# 
# From -- ./inp_files/4246.got.cif
#   From: 2010.05.17/outbox.ucp.g08.bks.cvg/sg60_3_cif.got.tgz:4246.got - 2010.06.11 16:26:41.
