data_PCOD9458124
_publ_section_title
;
Structure prediction by ZEFSAII (Michael W. Deem and Ramdas Pophale) SiO2 
 PCOD9458124
Probable space group: P B C N
;
_chemical_formula_sum "Si O2"
_cell_formula_units_Z 64
_cell_length_a 19.706748
_cell_length_b 13.843637
_cell_length_c 12.071711
_cell_angle_alpha 90.000000
_cell_angle_beta 90.000000
_cell_angle_gamma 90.000000
_cell_volume 3293.320487
_symmetry_space_group_name_H-M "P B C N"
_symmetry_group_IT_number 60
_symmetry_cell_setting 'orthorhombic'
loop_
_space_group_symop_operation_xyz
x,y,z
1/2-x,1/2-y,1/2+z
1/2+x,1/2-y,-z
-x,y,1/2-z
-x,-y,-z
1/2+x,1/2+y,1/2-z
1/2-x,1/2+y,z
x,-y,1/2+z
loop_
_atom_site_type_symbol
_atom_site_label
_atom_site_fract_x
_atom_site_fract_y
_atom_site_fract_z
Si Si1 0.951286 0.568116 0.143055
Si Si2 0.269121 0.609097 0.830704
Si Si3 0.805540 0.580289 0.434701
Si Si4 0.572971 0.731834 0.226766
Si Si5 0.177738 0.694155 0.395475
Si Si6 0.795716 0.897923 0.735811
Si Si7 0.340555 0.135303 0.640780
Si Si8 0.562026 0.863005 0.021697
O O1 0.881668 0.627761 0.156325
O O2 0.933646 0.462512 0.093800
O O3 0.000000 0.559628 0.250000
O O4 0.994652 0.624728 0.050060
O O5 0.320139 0.696456 0.853465
O O6 0.303286 0.511390 0.787832
O O7 0.215136 0.644200 0.737983
O O8 0.228412 0.583373 0.943642
O O9 0.749697 0.611649 0.346227
O O10 0.834839 0.475857 0.397245
O O11 0.872768 0.643872 0.442490
O O12 0.500000 0.688090 0.250000
O O13 0.634199 0.658265 0.242786
O O14 0.590240 0.823666 0.306646
O O15 0.567674 0.774833 0.104520
O O16 0.249347 0.647465 0.360714
O O17 0.172428 0.692642 0.528011
#
# Coordination Sequence:
#
# PCOD9458124 Si02
#       8
#     8   8   8   8   8   8   8   8
#     4  11  24  38  59  94 136 172 214 273 339 403
#     4  11  23  41  65  98 123 171 219 279 332 386
#     4  11  21  39  66  95 134 160 219 273 340 381
#     4  12  25  41  63  93 132 176 221 262 329 406
#     4  12  22  41  64  93 128 168 221 274 327 392
#     4  11  24  42  64  97 127 171 219 277 325 387
#     4  11  22  39  65  96 127 164 213 275 334 390
#     4  11  22  39  61  95 130 177 207 271 337 411
#
# _framework density 19.433274999999998
#
# number of rings (size 3 to 8) (size 9 to 14) (size 15 to 20)
#    0.000    0.750    5.000    2.625    5.250    0.000 
#    2.250    0.625    0.000    5.250    0.000    0.000 
#    0.000    0.000    0.000    0.000    0.000    0.000 
#
# Total GULP energy -357828.593434 kJ/mol
# GULP energy per Si atom -5591.071772 kJ/mol
# Density = 1.938904 g / cm^3
# Si number density = 19.433275 Si / 1000 Ang^3
#
#
#
# Elastic Constant Matrix: (Units=GPa)
#
#
# Indices 1 2 3 4 5 6 
#
# 1 125.6854 38.3061 22.3216 0.0000 0.0000 0.0000
# 2 38.3061 67.4874 6.6006 0.0000 0.0000 0.0000
# 3 22.3216 6.6006 91.5812 0.0000 0.0000 0.0000
# 4 0.0000 0.0000 0.0000 16.7964 0.0000 0.0000
# 5 0.0000 0.0000 0.0000 0.0000 24.0356 0.0000
# 6 0.0000 0.0000 0.0000 0.0000 0.0000 35.8016
#
#
#
# Elastic Compliance Matrix: (Units=1/GPa)
#
#
# Indices 1 2 3 4 5 6 
#
# 1 0.009985 -0.005468 -0.002040 0.000000 0.000000 0.000000
# 2 -0.005468 0.017917 0.000041 0.000000 0.000000 0.000000
# 3 -0.002040 0.000041 0.011413 0.000000 0.000000 0.000000
# 4 0.000000 0.000000 0.000000 0.059537 0.000000 0.000000
# 5 0.000000 0.000000 0.000000 0.000000 0.041605 0.000000
# 6 0.000000 0.000000 0.000000 0.000000 0.000000 0.027932
#
#
# Mechanical properties :
#
#
# Convention : Reuss Voigt Hill
#
# Bulk Modulus (GPa) = 41.01194 46.57895 43.79544
# Shear Modulus (GPa) = 26.11653 29.82842 27.97248
#
# Velocity S-wave (km/s) = 3.66991 3.92205 3.79807
# Velocity P-wave (km/s) = 6.25360 6.67313 6.46677
#
# Compressibility (1/GPa) = 0.02438315
#
# Stress axis : x y z
#
# Youngs Moduli (GPa) = 100.14852 55.81213 87.61619
#
# Poissons Ratio (x) = 0.30519 0.17870
# Poissons Ratio (y) = 0.54762 -0.00363
# Poissons Ratio (z) = 0.20427 -0.00231
#
# Static dielectric constant tensor:
#      x y z
#    x 1.672340 0.000000 0.000000 
#    y 0.000000 1.693140 0.000000 
#    z 0.000000 0.000000 1.718120 
# 
# From -- ./inp_files/12546.got.cif
#   From: 2010.05.17/outbox.cif.g08.bks.cpg/sg60_7_cif.got.tgz:12546.got - 2010.06.03 14:59:27.
