data_PCOD9458328
_publ_section_title
;
Structure prediction by ZEFSAII (Michael W. Deem and Ramdas Pophale) SiO2 
 PCOD9458328
Probable space group: P B C N
;
_chemical_formula_sum "Si O2"
_cell_formula_units_Z 40
_cell_length_a 7.376375
_cell_length_b 9.225349
_cell_length_c 25.928823
_cell_angle_alpha 90.000000
_cell_angle_beta 90.000000
_cell_angle_gamma 90.000000
_cell_volume 1764.446908
_symmetry_space_group_name_H-M "P B C N"
_symmetry_group_IT_number 60
_symmetry_cell_setting 'orthorhombic'
loop_
_space_group_symop_operation_xyz
x,y,z
1/2-x,1/2-y,1/2+z
1/2+x,1/2-y,-z
-x,y,1/2-z
-x,-y,-z
1/2+x,1/2+y,1/2-z
1/2-x,1/2+y,z
x,-y,1/2+z
loop_
_atom_site_type_symbol
_atom_site_label
_atom_site_fract_x
_atom_site_fract_y
_atom_site_fract_z
Si Si1 0.081757 0.643203 0.030691
Si Si2 0.470253 0.386669 0.189079
Si Si3 0.702117 0.665757 0.061895
Si Si4 0.810629 0.402007 0.860906
Si Si5 0.671954 0.084912 0.626398
O O1 0.221655 0.603176 0.076270
O O2 0.914157 0.706411 0.062411
O O3 0.138555 0.771631 0.992543
O O4 0.000000 0.500000 0.000000
O O5 0.500000 0.376899 0.250000
O O6 0.362752 0.250846 0.164381
O O7 0.352896 0.523364 0.169513
O O8 0.674451 0.393402 0.167864
O O9 0.721902 0.501244 0.079936
O O10 0.605246 0.762272 0.104397
O O11 0.995638 0.497565 0.856327
#
# Coordination Sequence:
#
# PCOD9458328 Si02
#       5
#     8   8   8   8   8
#     4  11  23  40  66 105 142 186 231 283 360 431
#     4  12  30  49  76 104 137 197 243 306 367 409
#     4  11  23  40  68 101 147 190 228 291 358 437
#     4  11  28  49  72 110 145 183 250 294 355 443
#     4  11  24  48  69 106 148 185 237 300 359 431
#
# _framework density 22.669993000000002
#
# number of rings (size 3 to 8) (size 9 to 14) (size 15 to 20)
#    0.000    0.800    8.000    0.000   11.200    0.800 
#    0.000    0.000    0.000    0.000    0.000    0.000 
#    0.000    0.000    0.000    0.000    0.000    0.000 
#
# Total GULP energy -223166.020480 kJ/mol
# GULP energy per Si atom -5579.150512 kJ/mol
# Density = 2.261839 g / cm^3
# Si number density = 22.669993 Si / 1000 Ang^3
#
#
#
# Elastic Constant Matrix: (Units=GPa)
#
#
# Indices 1 2 3 4 5 6 
#
# 1 35.4115 11.1165 23.0073 0.0000 0.0000 0.0000
# 2 11.1165 86.5399 27.5311 0.0000 0.0000 0.0000
# 3 23.0073 27.5311 148.0619 0.0000 0.0000 0.0000
# 4 0.0000 0.0000 0.0000 19.3184 0.0000 0.0000
# 5 0.0000 0.0000 0.0000 0.0000 36.8809 0.0000
# 6 0.0000 0.0000 0.0000 0.0000 0.0000 38.5149
#
#
#
# Elastic Compliance Matrix: (Units=1/GPa)
#
#
# Indices 1 2 3 4 5 6 
#
# 1 0.031988 -0.002687 -0.004471 0.000000 0.000000 0.000000
# 2 -0.002687 0.012508 -0.001908 0.000000 0.000000 0.000000
# 3 -0.004471 -0.001908 0.007803 0.000000 0.000000 0.000000
# 4 0.000000 0.000000 0.000000 0.051764 0.000000 0.000000
# 5 0.000000 0.000000 0.000000 0.000000 0.027114 0.000000
# 6 0.000000 0.000000 0.000000 0.000000 0.000000 0.025964
#
#
# Mechanical properties :
#
#
# Convention : Reuss Voigt Hill
#
# Bulk Modulus (GPa) = 29.26794 43.70254 36.48524
# Shear Modulus (GPa) = 26.78643 32.83343 29.80993
#
# Velocity S-wave (km/s) = 3.44114 3.80981 3.63016
# Velocity P-wave (km/s) = 5.35976 6.21872 5.80515
#
# Compressibility (1/GPa) = 0.03416708
#
# Stress axis : x y z
#
# Youngs Moduli (GPa) = 31.26203 79.95180 128.14773
#
# Poissons Ratio (x) = 0.21480 0.57295
# Poissons Ratio (y) = 0.08399 0.24453
# Poissons Ratio (z) = 0.13977 0.15257
#
# Static dielectric constant tensor:
#      x y z
#    x 1.878660 0.000000 0.000000 
#    y 0.000000 1.867060 0.000000 
#    z 0.000000 0.000000 1.928990 
# 
# From -- ./inp_files/23837.got.cif
#   From: 2010.05.17/outbox.cif.g08.bks.cpg/sg60_12_cif.got.tgz:23837.got - 2010.06.03 14:59:27.
