data_PCOD9458772
_publ_section_title
;
Structure prediction by ZEFSAII (Michael W. Deem and Ramdas Pophale) SiO2 
 PCOD9458772
Probable space group: P B C N
;
_chemical_formula_sum "Si O2"
_cell_formula_units_Z 40
_cell_length_a 27.401925
_cell_length_b 7.153228
_cell_length_c 8.037070
_cell_angle_alpha 90.000000
_cell_angle_beta 90.000000
_cell_angle_gamma 90.000000
_cell_volume 1575.363910
_symmetry_space_group_name_H-M "P B C N"
_symmetry_group_IT_number 60
_symmetry_cell_setting 'orthorhombic'
loop_
_space_group_symop_operation_xyz
x,y,z
1/2-x,1/2-y,1/2+z
1/2+x,1/2-y,-z
-x,y,1/2-z
-x,-y,-z
1/2+x,1/2+y,1/2-z
1/2-x,1/2+y,z
x,-y,1/2+z
loop_
_atom_site_type_symbol
_atom_site_label
_atom_site_fract_x
_atom_site_fract_y
_atom_site_fract_z
Si Si1 0.701631 0.103901 0.603748
Si Si2 0.035976 0.630345 0.604687
Si Si3 0.094291 0.941535 0.419830
Si Si4 0.805211 0.783428 0.971425
Si Si5 0.106484 0.713388 0.084621
O O1 0.698876 0.202490 0.783588
O O2 0.755312 0.116686 0.523853
O O3 0.661281 0.182856 0.478155
O O4 0.689296 0.885149 0.603528
O O5 0.055514 0.812082 0.512566
O O6 0.081683 0.485606 0.630231
O O7 0.000000 0.685994 0.750000
O O8 0.000000 0.500000 0.500000
O O9 0.147116 0.907256 0.505496
O O10 0.098645 0.851391 0.238781
O O11 0.083919 0.161993 0.433477
#
# Coordination Sequence:
#
# PCOD9458772 Si02
#       5
#     8   8   8   8   8
#     4  12  25  44  71 104 147 191 242 296 368 433
#     4  12  28  50  76 107 147 194 248 306 371 431
#     4  12  27  47  75 108 149 191 246 303 368 437
#     4  12  25  44  71 104 147 192 240 300 362 440
#     4  12  27  47  75 109 147 193 245 304 367 439
#
# _framework density 25.390957
#
# number of rings (size 3 to 8) (size 9 to 14) (size 15 to 20)
#    0.000    0.000    4.000    6.000    5.600    1.600 
#    0.000    0.000    0.000    0.000    0.000    0.000 
#    0.000    0.000    0.000    0.000    0.000    0.000 
#
# Total GULP energy -224186.681178 kJ/mol
# GULP energy per Si atom -5604.667029 kJ/mol
# Density = 2.533317 g / cm^3
# Si number density = 25.390957 Si / 1000 Ang^3
#
#
#
# Elastic Constant Matrix: (Units=GPa)
#
#
# Indices 1 2 3 4 5 6 
#
# 1 120.9193 2.5472 25.3563 0.0000 0.0000 0.0000
# 2 2.5472 78.2125 -27.2638 0.0000 0.0000 0.0000
# 3 25.3563 -27.2638 82.6686 0.0000 0.0000 0.0000
# 4 0.0000 0.0000 0.0000 34.7435 0.0000 0.0000
# 5 0.0000 0.0000 0.0000 0.0000 34.0727 0.0000
# 6 0.0000 0.0000 0.0000 0.0000 0.0000 50.9917
#
#
#
# Elastic Compliance Matrix: (Units=1/GPa)
#
#
# Indices 1 2 3 4 5 6 
#
# 1 0.008975 -0.001414 -0.003219 0.000000 0.000000 0.000000
# 2 -0.001414 0.014669 0.005272 0.000000 0.000000 0.000000
# 3 -0.003219 0.005272 0.014823 0.000000 0.000000 0.000000
# 4 0.000000 0.000000 0.000000 0.028782 0.000000 0.000000
# 5 0.000000 0.000000 0.000000 0.000000 0.029349 0.000000
# 6 0.000000 0.000000 0.000000 0.000000 0.000000 0.019611
#
#
# Mechanical properties :
#
#
# Convention : Reuss Voigt Hill
#
# Bulk Modulus (GPa) = 25.16179 31.45331 28.30755
# Shear Modulus (GPa) = 39.00743 42.70565 40.85654
#
# Velocity S-wave (km/s) = 3.92378 4.10558 4.01571
# Velocity P-wave (km/s) = 5.51900 5.90668 5.71613
#
# Compressibility (1/GPa) = 0.03974281
#
# Stress axis : x y z
#
# Youngs Moduli (GPa) = 111.42255 68.16906 67.46488
#
# Poissons Ratio (x) = 0.09642 0.21719
# Poissons Ratio (y) = 0.15761 -0.35566
# Poissons Ratio (z) = 0.35870 -0.35937
#
# Static dielectric constant tensor:
#      x y z
#    x 2.056390 0.000000 0.000000 
#    y 0.000000 2.016260 0.000000 
#    z 0.000000 0.000000 2.146060 
# 
# From -- ./inp_files/7735.got.cif
#   From: 2010.05.17/outbox.cif.g08.bks.cpg/sg60_4_cif.got.tgz:7735.got - 2010.06.03 14:59:27.
