data_PCOD9458390
_publ_section_title
;
Structure prediction by ZEFSAII (Michael W. Deem and Ramdas Pophale) SiO2 
 PCOD9458390
Probable space group: P B C N
;
_chemical_formula_sum "Si O2"
_cell_formula_units_Z 36
_cell_length_a 12.637488
_cell_length_b 26.138898
_cell_length_c 5.022476
_cell_angle_alpha 90.000000
_cell_angle_beta 90.000000
_cell_angle_gamma 90.000000
_cell_volume 1659.074546
_symmetry_space_group_name_H-M "P B C N"
_symmetry_group_IT_number 60
_symmetry_cell_setting 'orthorhombic'
loop_
_space_group_symop_operation_xyz
x,y,z
1/2-x,1/2-y,1/2+z
1/2+x,1/2-y,-z
-x,y,1/2-z
-x,-y,-z
1/2+x,1/2+y,1/2-z
1/2-x,1/2+y,z
x,-y,1/2+z
loop_
_atom_site_type_symbol
_atom_site_label
_atom_site_fract_x
_atom_site_fract_y
_atom_site_fract_z
Si Si1 0.000000 0.961154 0.750000
Si Si2 0.171766 0.617174 0.662170
Si Si3 0.818702 0.233723 0.087495
Si Si4 0.000000 0.535565 0.750000
Si Si5 0.500000 0.799777 0.250000
Si Si6 0.811268 0.120664 0.321476
O O1 0.902220 0.921811 0.795478
O O2 0.000000 0.000000 0.500000
O O3 0.102050 0.571121 0.767107
O O4 0.088262 0.663446 0.622105
O O5 0.218917 0.603433 0.377926
O O6 0.263085 0.627120 0.882436
O O7 0.744712 0.260019 0.313339
O O8 0.929430 0.263629 0.063742
O O9 0.839954 0.176380 0.195730
O O10 0.000000 0.500000 0.500000
#
# Coordination Sequence:
#
# PCOD9458390 Si02
#       6
#     4   8   8   4   4   8
#     4  12  29  48  75 102 139 192 241 296 354 402
#     4  11  25  41  72  95 137 180 221 286 344 412
#     4  12  24  42  69 104 139 187 230 277 351 421
#     4  11  24  42  63 100 129 168 222 281 346 404
#     4  11  23  44  66 100 140 176 231 265 352 410
#     4  12  24  48  67 104 137 179 239 283 344 417
#
# _framework density 21.698844999999999
#
# number of rings (size 3 to 8) (size 9 to 14) (size 15 to 20)
#    0.000    0.444    4.444    3.333    0.000   10.667 
#    0.000    4.444    0.000    0.000    0.000    0.000 
#    0.000    0.000    0.000    0.000    0.000    0.000 
#
# Total GULP energy -201175.862267 kJ/mol
# GULP energy per Si atom -5588.218396 kJ/mol
# Density = 2.164946 g / cm^3
# Si number density = 21.698845 Si / 1000 Ang^3
#
#
#
# Elastic Constant Matrix: (Units=GPa)
#
#
# Indices 1 2 3 4 5 6 
#
# 1 117.3615 56.7559 24.1801 0.0000 0.0000 0.0000
# 2 56.7559 159.4729 26.6305 0.0000 0.0000 0.0000
# 3 24.1801 26.6305 117.9708 0.0000 0.0000 0.0000
# 4 0.0000 0.0000 0.0000 43.9230 0.0000 0.0000
# 5 0.0000 0.0000 0.0000 0.0000 24.0613 0.0000
# 6 0.0000 0.0000 0.0000 0.0000 0.0000 80.0973
#
#
#
# Elastic Compliance Matrix: (Units=1/GPa)
#
#
# Indices 1 2 3 4 5 6 
#
# 1 0.010498 -0.003509 -0.001360 0.000000 0.000000 0.000000
# 2 -0.003509 0.007689 -0.001017 0.000000 0.000000 0.000000
# 3 -0.001360 -0.001017 0.008985 0.000000 0.000000 0.000000
# 4 0.000000 0.000000 0.000000 0.022767 0.000000 0.000000
# 5 0.000000 0.000000 0.000000 0.000000 0.041561 0.000000
# 6 0.000000 0.000000 0.000000 0.000000 0.000000 0.012485
#
#
# Mechanical properties :
#
#
# Convention : Reuss Voigt Hill
#
# Bulk Modulus (GPa) = 64.92861 67.77091 66.34976
# Shear Modulus (GPa) = 41.36040 48.76557 45.06299
#
# Velocity S-wave (km/s) = 4.37064 4.74580 4.56208
# Velocity P-wave (km/s) = 7.44698 7.83137 7.64160
#
# Compressibility (1/GPa) = 0.01540153
#
# Stress axis : x y z
#
# Youngs Moduli (GPa) = 95.25814 130.05118 111.29900
#
# Poissons Ratio (x) = 0.45636 0.15132
# Poissons Ratio (y) = 0.33427 0.11314
# Poissons Ratio (z) = 0.12951 0.13220
#
# Static dielectric constant tensor:
#      x y z
#    x 1.775760 0.000000 0.000000 
#    y 0.000000 1.814620 0.000000 
#    z 0.000000 0.000000 1.746380 
# 
# From -- ./inp_files/764.got.cif
#   From: 2010.05.17/outbox.cif.g08.bks.cpg/sg60_1_cif.got.tgz:764.got - 2010.06.03 14:59:27.
