data_PCOD9458839
_publ_section_title
;
Structure prediction by ZEFSAII (Michael W. Deem and Ramdas Pophale) SiO2 
 PCOD9458839
Probable space group: P B C N
;
_chemical_formula_sum "Si O2"
_cell_formula_units_Z 28
_cell_length_a 18.673592
_cell_length_b 4.909866
_cell_length_c 10.698057
_cell_angle_alpha 90.000000
_cell_angle_beta 90.000000
_cell_angle_gamma 90.000000
_cell_volume 980.849585
_symmetry_space_group_name_H-M "P B C N"
_symmetry_group_IT_number 60
_symmetry_cell_setting 'orthorhombic'
loop_
_space_group_symop_operation_xyz
x,y,z
1/2-x,1/2-y,1/2+z
1/2+x,1/2-y,-z
-x,y,1/2-z
-x,-y,-z
1/2+x,1/2+y,1/2-z
1/2-x,1/2+y,z
x,-y,1/2+z
loop_
_atom_site_type_symbol
_atom_site_label
_atom_site_fract_x
_atom_site_fract_y
_atom_site_fract_z
Si Si1 0.500000 0.318238 0.250000
Si Si2 0.902320 0.535443 0.904538
Si Si3 0.798070 0.940105 0.984849
Si Si4 0.126553 0.781367 0.838387
O O1 0.439707 0.526116 0.300125
O O2 0.524305 0.112864 0.361329
O O3 0.866504 0.550364 0.766315
O O4 0.877798 0.844127 0.942110
O O5 0.880926 0.371995 0.028606
O O6 0.748074 0.694896 0.942222
O O7 0.808544 0.013251 0.131428
#
# Coordination Sequence:
#
# PCOD9458839 Si02
#       4
#     4   8   8   8
#     4  12  28  50  86 132 184 230 316 358 454 524
#     4  12  28  54  86 130 177 241 294 375 441 529
#     4  12  28  55  85 121 170 224 295 359 439 526
#     4  12  28  52  87 129 181 241 297 373 446 526
#
# _framework density 28.546679999999999
#
# number of rings (size 3 to 8) (size 9 to 14) (size 15 to 20)
#    0.000    0.000    2.857    5.143    0.000   10.286 
#    0.000    0.000    0.000    0.000    0.000    0.000 
#    0.000    0.000    0.000    0.000    0.000    0.000 
#
# Total GULP energy -155934.703543 kJ/mol
# GULP energy per Si atom -5569.096555 kJ/mol
# Density = 2.848171 g / cm^3
# Si number density = 28.546680 Si / 1000 Ang^3
#
#
#
# Elastic Constant Matrix: (Units=GPa)
#
#
# Indices 1 2 3 4 5 6 
#
# 1 92.0793 47.1203 53.1499 0.0000 0.0000 0.0000
# 2 47.1203 196.1918 81.5221 0.0000 0.0000 0.0000
# 3 53.1499 81.5221 169.4537 0.0000 0.0000 0.0000
# 4 0.0000 0.0000 0.0000 60.4308 0.0000 0.0000
# 5 0.0000 0.0000 0.0000 0.0000 63.3657 0.0000
# 6 0.0000 0.0000 0.0000 0.0000 0.0000 60.0959
#
#
#
# Elastic Compliance Matrix: (Units=1/GPa)
#
#
# Indices 1 2 3 4 5 6 
#
# 1 0.013803 -0.001895 -0.003418 0.000000 0.000000 0.000000
# 2 -0.001895 0.006631 -0.002596 0.000000 0.000000 0.000000
# 3 -0.003418 -0.002596 0.008222 0.000000 0.000000 0.000000
# 4 0.000000 0.000000 0.000000 0.016548 0.000000 0.000000
# 5 0.000000 0.000000 0.000000 0.000000 0.015781 0.000000
# 6 0.000000 0.000000 0.000000 0.000000 0.000000 0.016640
#
#
# Mechanical properties :
#
#
# Convention : Reuss Voigt Hill
#
# Bulk Modulus (GPa) = 77.88772 91.25660 84.57216
# Shear Modulus (GPa) = 51.16627 55.17398 53.17013
#
# Velocity S-wave (km/s) = 4.23823 4.40109 4.32043
# Velocity P-wave (km/s) = 7.16197 7.60677 7.38772
#
# Compressibility (1/GPa) = 0.01283899
#
# Stress axis : x y z
#
# Youngs Moduli (GPa) = 72.44994 150.81369 121.62518
#
# Poissons Ratio (x) = 0.28578 0.41567
# Poissons Ratio (y) = 0.13729 0.31569
# Poissons Ratio (z) = 0.24761 0.39145
#
# Static dielectric constant tensor:
#      x y z
#    x 2.472220 0.000000 0.000000 
#    y 0.000000 2.351520 0.000000 
#    z 0.000000 0.000000 2.269990 
# 
# From -- ./inp_files/12692.got.cif
#   From: 2010.05.17/outbox.cif.g08.bks.cpg/sg60_7_cif.got.tgz:12692.got - 2010.06.03 14:59:27.
