data_PCOD9458823
_publ_section_title
;
Structure prediction by ZEFSAII (Michael W. Deem and Ramdas Pophale) SiO2 
 PCOD9458823
Probable space group: P B C N
;
_chemical_formula_sum "Si O2"
_cell_formula_units_Z 32
_cell_length_a 24.028664
_cell_length_b 5.112903
_cell_length_c 10.232975
_cell_angle_alpha 90.000000
_cell_angle_beta 90.000000
_cell_angle_gamma 90.000000
_cell_volume 1257.184712
_symmetry_space_group_name_H-M "P B C N"
_symmetry_group_IT_number 60
_symmetry_cell_setting 'orthorhombic'
loop_
_space_group_symop_operation_xyz
x,y,z
1/2-x,1/2-y,1/2+z
1/2+x,1/2-y,-z
-x,y,1/2-z
-x,-y,-z
1/2+x,1/2+y,1/2-z
1/2-x,1/2+y,z
x,-y,1/2+z
loop_
_atom_site_type_symbol
_atom_site_label
_atom_site_fract_x
_atom_site_fract_y
_atom_site_fract_z
Si Si1 0.714896 0.147032 0.641963
Si Si2 0.438027 0.052246 0.786486
Si Si3 0.434980 0.538824 0.957989
Si Si4 0.147004 0.617606 0.591205
O O1 0.767458 0.948867 0.626645
O O2 0.674612 0.024174 0.531662
O O3 0.690408 0.126593 0.788648
O O4 0.500000 0.123543 0.750000
O O5 0.416850 0.307649 0.861668
O O6 0.405088 0.970500 0.657331
O O7 0.438147 0.808047 0.879663
O O8 0.500000 0.500000 0.000000
O O9 0.384195 0.608345 0.056749
#
# Coordination Sequence:
#
# PCOD9458823 Si02
#       4
#     8   8   8   8
#     4  12  30  55  83 118 159 212 292 359 420 490
#     4  12  27  47  77 124 170 222 275 335 411 524
#     4  12  27  47  78 121 172 222 274 332 418 523
#     4  12  28  53  87 119 166 220 274 351 435 484
#
# _framework density 25.453700000000001
#
# number of rings (size 3 to 8) (size 9 to 14) (size 15 to 20)
#    0.000    0.000    5.000    3.000    3.500    4.000 
#    0.000    0.000    0.000    0.000    0.000    0.000 
#    0.000    0.000    0.000    0.000    0.000    0.000 
#
# Total GULP energy -179095.102915 kJ/mol
# GULP energy per Si atom -5596.721966 kJ/mol
# Density = 2.539577 g / cm^3
# Si number density = 25.453700 Si / 1000 Ang^3
#
#
#
# Elastic Constant Matrix: (Units=GPa)
#
#
# Indices 1 2 3 4 5 6 
#
# 1 103.4995 5.0486 49.3276 0.0000 0.0000 0.0000
# 2 5.0486 122.7357 58.4067 0.0000 0.0000 0.0000
# 3 49.3276 58.4067 151.4406 0.0000 0.0000 0.0000
# 4 0.0000 0.0000 0.0000 26.3975 0.0000 0.0000
# 5 0.0000 0.0000 0.0000 0.0000 39.9093 0.0000
# 6 0.0000 0.0000 0.0000 0.0000 0.0000 50.3826
#
#
#
# Elastic Compliance Matrix: (Units=1/GPa)
#
#
# Indices 1 2 3 4 5 6 
#
# 1 0.011698 0.001631 -0.004440 0.000000 0.000000 0.000000
# 2 0.001631 0.010207 -0.004468 0.000000 0.000000 0.000000
# 3 -0.004440 -0.004468 0.009772 0.000000 0.000000 0.000000
# 4 0.000000 0.000000 0.000000 0.037882 0.000000 0.000000
# 5 0.000000 0.000000 0.000000 0.000000 0.025057 0.000000
# 6 0.000000 0.000000 0.000000 0.000000 0.000000 0.019848
#
#
# Mechanical properties :
#
#
# Convention : Reuss Voigt Hill
#
# Bulk Modulus (GPa) = 58.39283 67.02682 62.70983
# Shear Modulus (GPa) = 37.11269 40.99743 39.05506
#
# Velocity S-wave (km/s) = 3.82258 4.01767 3.92134
# Velocity P-wave (km/s) = 6.51716 6.92186 6.72256
#
# Compressibility (1/GPa) = 0.01712539
#
# Stress axis : x y z
#
# Youngs Moduli (GPa) = 85.48331 97.97577 102.32850
#
# Poissons Ratio (x) = -0.15985 0.45430
# Poissons Ratio (y) = -0.13947 0.45719
# Poissons Ratio (z) = 0.37951 0.43774
#
# Static dielectric constant tensor:
#      x y z
#    x 1.921080 0.000000 0.000000 
#    y 0.000000 1.947990 0.000000 
#    z 0.000000 0.000000 2.073290 
# 
# From -- ./inp_files/12706.got.cif
#   From: 2010.05.17/outbox.cif.g08.bks.cpg/sg60_7_cif.got.tgz:12706.got - 2010.06.03 14:59:27.
