data_PCOD9458662
_publ_section_title
;
Structure prediction by ZEFSAII (Michael W. Deem and Ramdas Pophale) SiO2 
 PCOD9458662
Probable space group: P B C N
;
_chemical_formula_sum "Si O2"
_cell_formula_units_Z 64
_cell_length_a 9.537126
_cell_length_b 19.201907
_cell_length_c 15.594190
_cell_angle_alpha 90.000000
_cell_angle_beta 90.000000
_cell_angle_gamma 90.000000
_cell_volume 2855.779710
_symmetry_space_group_name_H-M "P B C N"
_symmetry_group_IT_number 60
_symmetry_cell_setting 'orthorhombic'
loop_
_space_group_symop_operation_xyz
x,y,z
1/2-x,1/2-y,1/2+z
1/2+x,1/2-y,-z
-x,y,1/2-z
-x,-y,-z
1/2+x,1/2+y,1/2-z
1/2-x,1/2+y,z
x,-y,1/2+z
loop_
_atom_site_type_symbol
_atom_site_label
_atom_site_fract_x
_atom_site_fract_y
_atom_site_fract_z
Si Si1 0.425333 0.239319 0.482874
Si Si2 0.773645 0.876995 0.290599
Si Si3 0.736911 0.531699 0.296750
Si Si4 0.930195 0.961233 0.618147
Si Si5 0.342621 0.267008 0.742636
Si Si6 0.908385 0.337583 0.834060
Si Si7 0.655769 0.311080 0.572362
Si Si8 0.441294 0.617822 0.888664
O O1 0.510685 0.190427 0.416490
O O2 0.528368 0.257424 0.559982
O O3 0.277060 0.203266 0.496093
O O4 0.396527 0.316421 0.444354
O O5 0.667406 0.814081 0.278465
O O6 0.855426 0.880503 0.199951
O O7 0.897985 0.868117 0.360066
O O8 0.712076 0.952795 0.306775
O O9 0.678504 0.541645 0.199280
O O10 0.591235 0.542027 0.349156
O O11 0.860943 0.582502 0.325393
O O12 0.894620 0.890655 0.568051
O O13 0.918662 0.038797 0.577532
O O14 0.500000 0.294274 0.750000
O O15 0.242901 0.301344 0.673056
O O16 0.281665 0.290669 0.834933
O O17 0.000000 0.318709 0.750000
#
# Coordination Sequence:
#
# PCOD9458662 Si02
#       8
#     8   8   8   8   8   8   8   8
#     4  12  26  40  62  91 130 171 217 264 319 384
#     4   9  17  34  60  95 123 148 204 262 317 371
#     4   9  18  32  62  97 120 150 199 270 317 369
#     4   9  18  36  61  92 125 154 211 265 315 378
#     4  12  23  37  64  92 124 159 207 265 320 375
#     4  12  21  39  65  87 119 164 210 258 317 381
#     4  12  26  41  58  93 128 168 214 266 326 376
#     4   9  17  36  64  89 119 164 212 260 308 381
#
# _framework density 22.410693999999999
#
# number of rings (size 3 to 8) (size 9 to 14) (size 15 to 20)
#    0.000    1.500    5.000    2.250    3.500    1.000 
#    0.000    0.000    0.000    0.750    0.000    0.000 
#    0.000    0.000    0.000    0.000    0.000    0.000 
#
# Total GULP energy -357542.835199 kJ/mol
# GULP energy per Si atom -5586.606800 kJ/mol
# Density = 2.235969 g / cm^3
# Si number density = 22.410694 Si / 1000 Ang^3
#
#
#
# Elastic Constant Matrix: (Units=GPa)
#
#
# Indices 1 2 3 4 5 6 
#
# 1 68.8213 33.5156 3.8030 0.0000 0.0000 0.0000
# 2 33.5156 148.6400 19.7082 0.0000 0.0000 0.0000
# 3 3.8030 19.7082 38.1151 0.0000 0.0000 0.0000
# 4 0.0000 0.0000 0.0000 24.2819 0.0000 0.0000
# 5 0.0000 0.0000 0.0000 0.0000 27.7202 0.0000
# 6 0.0000 0.0000 0.0000 0.0000 0.0000 42.0021
#
#
#
# Elastic Compliance Matrix: (Units=1/GPa)
#
#
# Indices 1 2 3 4 5 6 
#
# 1 0.016326 -0.003720 0.000295 0.000000 0.000000 0.000000
# 2 -0.003720 0.008071 -0.003802 0.000000 0.000000 0.000000
# 3 0.000295 -0.003802 0.028173 0.000000 0.000000 0.000000
# 4 0.000000 0.000000 0.000000 0.041183 0.000000 0.000000
# 5 0.000000 0.000000 0.000000 0.000000 0.036075 0.000000
# 6 0.000000 0.000000 0.000000 0.000000 0.000000 0.023808
#
#
# Mechanical properties :
#
#
# Convention : Reuss Voigt Hill
#
# Bulk Modulus (GPa) = 26.23683 41.06998 33.65340
# Shear Modulus (GPa) = 27.65566 32.03749 29.84657
#
# Velocity S-wave (km/s) = 3.51670 3.78506 3.65334
# Velocity P-wave (km/s) = 5.31246 6.12112 5.73107
#
# Compressibility (1/GPa) = 0.03811436
#
# Stress axis : x y z
#
# Youngs Moduli (GPa) = 61.25257 123.90653 35.49530
#
# Poissons Ratio (x) = 0.46096 -0.01046
# Poissons Ratio (y) = 0.22787 0.13495
# Poissons Ratio (z) = -0.01805 0.47108
#
# Static dielectric constant tensor:
#      x y z
#    x 1.807450 0.000000 0.000000 
#    y 0.000000 1.860640 0.000000 
#    z 0.000000 0.000000 1.899110 
# 
# From -- ./inp_files/19672.got.cif
#   From: 2010.05.17/outbox.cif.g08.bks.cpg/sg60_10_cif.got.tgz:19672.got - 2010.06.03 14:59:27.
