data_PCOD9458615
_publ_section_title
;
Structure prediction by ZEFSAII (Michael W. Deem and Ramdas Pophale) SiO2 
 PCOD9458615
Probable space group: P B C N
;
_chemical_formula_sum "Si O2"
_cell_formula_units_Z 36
_cell_length_a 5.808276
_cell_length_b 8.287274
_cell_length_c 24.892299
_cell_angle_alpha 90.000000
_cell_angle_beta 90.000000
_cell_angle_gamma 90.000000
_cell_volume 1198.185204
_symmetry_space_group_name_H-M "P B C N"
_symmetry_group_IT_number 60
_symmetry_cell_setting 'orthorhombic'
loop_
_space_group_symop_operation_xyz
x,y,z
1/2-x,1/2-y,1/2+z
1/2+x,1/2-y,-z
-x,y,1/2-z
-x,-y,-z
1/2+x,1/2+y,1/2-z
1/2-x,1/2+y,z
x,-y,1/2+z
loop_
_atom_site_type_symbol
_atom_site_label
_atom_site_fract_x
_atom_site_fract_y
_atom_site_fract_z
Si Si1 0.713718 0.853838 0.343026
Si Si2 0.748669 0.151161 0.452281
Si Si3 0.255675 0.368118 0.941624
Si Si4 0.396110 0.157965 0.324343
Si Si5 0.000000 0.146638 0.250000
O O1 0.733563 0.779493 0.403041
O O2 0.595838 0.027567 0.339241
O O3 0.567440 0.751418 0.301384
O O4 0.970729 0.829591 0.318135
O O5 0.502694 0.062231 0.448055
O O6 0.744531 0.235993 0.510741
O O7 0.989933 0.054940 0.446561
O O8 0.244865 0.316687 0.879620
O O9 0.248954 0.091613 0.274375
#
# Coordination Sequence:
#
# PCOD9458615 Si02
#       5
#     8   8   8   8   4
#     4  11  26  47  75 112 154 205 257 326 391 471
#     4   9  18  39  69 110 157 201 257 317 388 467
#     4   9  18  39  70 110 154 204 256 319 389 465
#     4  11  26  50  78 113 155 204 265 325 399 467
#     4  12  26  48  74 108 152 206 266 320 388 474
#
# _framework density 30.045435000000001
#
# number of rings (size 3 to 8) (size 9 to 14) (size 15 to 20)
#    0.000    1.778    2.222    0.667    3.111    2.667 
#    0.000    0.000    0.000   16.000    0.000    0.000 
#    0.000    0.000    0.000    0.000    0.000    0.000 
#
# Total GULP energy -201062.661962 kJ/mol
# GULP energy per Si atom -5585.073943 kJ/mol
# Density = 2.997705 g / cm^3
# Si number density = 30.045435 Si / 1000 Ang^3
#
#
#
# Elastic Constant Matrix: (Units=GPa)
#
#
# Indices 1 2 3 4 5 6 
#
# 1 289.3291 78.5574 68.7614 0.0000 0.0000 0.0000
# 2 78.5574 70.4943 49.8036 0.0000 0.0000 0.0000
# 3 68.7614 49.8036 247.3520 0.0000 0.0000 0.0000
# 4 0.0000 0.0000 0.0000 44.7833 0.0000 0.0000
# 5 0.0000 0.0000 0.0000 0.0000 70.6520 0.0000
# 6 0.0000 0.0000 0.0000 0.0000 0.0000 46.4272
#
#
#
# Elastic Compliance Matrix: (Units=1/GPa)
#
#
# Indices 1 2 3 4 5 6 
#
# 1 0.004976 -0.005326 -0.000311 0.000000 0.000000 0.000000
# 2 -0.005326 0.022238 -0.002997 0.000000 0.000000 0.000000
# 3 -0.000311 -0.002997 0.004733 0.000000 0.000000 0.000000
# 4 0.000000 0.000000 0.000000 0.022330 0.000000 0.000000
# 5 0.000000 0.000000 0.000000 0.000000 0.014154 0.000000
# 6 0.000000 0.000000 0.000000 0.000000 0.000000 0.021539
#
#
# Mechanical properties :
#
#
# Convention : Reuss Voigt Hill
#
# Bulk Modulus (GPa) = 68.12340 111.26892 89.69616
# Shear Modulus (GPa) = 44.59121 59.70937 52.15029
#
# Velocity S-wave (km/s) = 3.85661 4.46275 4.17071
# Velocity P-wave (km/s) = 6.52334 7.97928 7.28776
#
# Compressibility (1/GPa) = 0.01467924
#
# Stress axis : x y z
#
# Youngs Moduli (GPa) = 200.95736 44.96871 211.29458
#
# Poissons Ratio (x) = 0.23949 0.06572
# Poissons Ratio (y) = 1.07022 0.63326
# Poissons Ratio (z) = 0.06250 0.13477
#
# Static dielectric constant tensor:
#      x y z
#    x 2.500850 0.000000 0.000000 
#    y 0.000000 2.308760 0.000000 
#    z 0.000000 0.000000 2.252000 
# 
# From -- ./inp_files/23475.got.cif
#   From: 2010.05.17/outbox.cif.g08.bks.cpg/sg60_12_cif.got.tgz:23475.got - 2010.06.03 14:59:27.
