data_PCOD9458461
_publ_section_title
;
Structure prediction by ZEFSAII (Michael W. Deem and Ramdas Pophale) SiO2 
 PCOD9458461
Probable space group: P B C N
;
_chemical_formula_sum "Si O2"
_cell_formula_units_Z 48
_cell_length_a 15.607148
_cell_length_b 9.066137
_cell_length_c 16.993872
_cell_angle_alpha 90.000000
_cell_angle_beta 90.000000
_cell_angle_gamma 90.000000
_cell_volume 2404.574122
_symmetry_space_group_name_H-M "P B C N"
_symmetry_group_IT_number 60
_symmetry_cell_setting 'orthorhombic'
loop_
_space_group_symop_operation_xyz
x,y,z
1/2-x,1/2-y,1/2+z
1/2+x,1/2-y,-z
-x,y,1/2-z
-x,-y,-z
1/2+x,1/2+y,1/2-z
1/2-x,1/2+y,z
x,-y,1/2+z
loop_
_atom_site_type_symbol
_atom_site_label
_atom_site_fract_x
_atom_site_fract_y
_atom_site_fract_z
Si Si1 0.600456 0.684419 0.191680
Si Si2 0.176673 0.457136 0.248705
Si Si3 0.757164 0.601107 0.091710
Si Si4 0.199547 0.837651 0.517302
Si Si5 0.819433 0.241108 0.843941
Si Si6 0.420160 0.459302 0.650082
O O1 0.598599 0.847749 0.228939
O O2 0.672353 0.681797 0.124814
O O3 0.625385 0.588020 0.268195
O O4 0.515224 0.605657 0.159651
O O5 0.206186 0.521649 0.332036
O O6 0.248573 0.351143 0.207519
O O7 0.160370 0.600576 0.194919
O O8 0.819191 0.717822 0.049870
O O9 0.731150 0.481745 0.027414
O O10 0.274259 0.773436 0.572932
O O11 0.124053 0.881345 0.576221
O O12 0.901118 0.133570 0.854627
#
# Coordination Sequence:
#
# PCOD9458461 Si02
#       6
#     8   8   8   8   8   8
#     4  11  24  43  65  93 138 176 218 281 343 392
#     4  12  20  40  71  96 126 179 232 269 315 406
#     4  12  22  37  67  98 128 174 225 273 331 395
#     4  12  22  37  65  99 128 171 226 274 324 400
#     4  12  20  40  70  97 127 176 236 268 314 405
#     4  11  24  43  65  94 137 175 220 279 342 387
#
# _framework density 19.961955
#
# number of rings (size 3 to 8) (size 9 to 14) (size 15 to 20)
#    0.000    0.333   10.000    0.000    0.000    0.667 
#    0.000    4.167    0.000    0.000    0.000    0.000 
#    0.000    0.000    0.000    0.000    0.000    0.000 
#
# Total GULP energy -267791.430047 kJ/mol
# GULP energy per Si atom -5578.988126 kJ/mol
# Density = 1.991652 g / cm^3
# Si number density = 19.961955 Si / 1000 Ang^3
#
#
#
# Elastic Constant Matrix: (Units=GPa)
#
#
# Indices 1 2 3 4 5 6 
#
# 1 47.1151 28.2708 2.0496 0.0000 0.0000 0.0000
# 2 28.2708 118.8283 25.5395 0.0000 0.0000 0.0000
# 3 2.0496 25.5395 86.5612 0.0000 0.0000 0.0000
# 4 0.0000 0.0000 0.0000 56.7502 0.0000 0.0000
# 5 0.0000 0.0000 0.0000 0.0000 21.3218 0.0000
# 6 0.0000 0.0000 0.0000 0.0000 0.0000 -5.0555
#
#
#
# Elastic Compliance Matrix: (Units=1/GPa)
#
#
# Indices 1 2 3 4 5 6 
#
# 1 0.024882 -0.006185 0.001236 0.000000 0.000000 0.000000
# 2 -0.006185 0.010523 -0.002958 0.000000 0.000000 0.000000
# 3 0.001236 -0.002958 0.012396 0.000000 0.000000 0.000000
# 4 0.000000 0.000000 0.000000 0.017621 0.000000 0.000000
# 5 0.000000 0.000000 0.000000 0.000000 0.046900 0.000000
# 6 0.000000 0.000000 0.000000 0.000000 0.000000 -0.197803
#
#
# Mechanical properties :
#
#
# Convention : Reuss Voigt Hill
#
# Bulk Modulus (GPa) = 31.26412 40.46936 35.86674
# Shear Modulus (GPa) = -84.74270 27.71293 -28.51488
#
# Velocity S-wave (km/s) = -6.52260 3.73002 -3.78360
# Velocity P-wave (km/s) = 6.40545 6.23442 1.03969
#
# Compressibility (1/GPa) = 0.03198555
#
# Stress axis : x y z
#
# Youngs Moduli (GPa) = 40.18918 95.03074 80.67062
#
# Poissons Ratio (x) = 0.58781 -0.09969
# Poissons Ratio (y) = 0.24859 0.23865
# Poissons Ratio (z) = -0.04967 0.28113
#
# Static dielectric constant tensor:
#      x y z
#    x 1.739480 0.000000 0.000000 
#    y 0.000000 1.750490 0.000000 
#    z 0.000000 0.000000 1.698790 
# 
# From -- ./inp_files/20801.got.cif
#   From: 2010.05.17/outbox.cif.g08.bks.cpg/sg60_11_cif.got.tgz:20801.got - 2010.06.03 14:59:27.
