data_PCOD9458515
_publ_section_title
;
Structure prediction by ZEFSAII (Michael W. Deem and Ramdas Pophale) SiO2 
 PCOD9458515
Probable space group: P B C N
;
_chemical_formula_sum "Si O2"
_cell_formula_units_Z 60
_cell_length_a 11.943552
_cell_length_b 18.670807
_cell_length_c 11.096584
_cell_angle_alpha 90.000000
_cell_angle_beta 90.000000
_cell_angle_gamma 90.000000
_cell_volume 2474.491119
_symmetry_space_group_name_H-M "P B C N"
_symmetry_group_IT_number 60
_symmetry_cell_setting 'orthorhombic'
loop_
_space_group_symop_operation_xyz
x,y,z
1/2-x,1/2-y,1/2+z
1/2+x,1/2-y,-z
-x,y,1/2-z
-x,-y,-z
1/2+x,1/2+y,1/2-z
1/2-x,1/2+y,z
x,-y,1/2+z
loop_
_atom_site_type_symbol
_atom_site_label
_atom_site_fract_x
_atom_site_fract_y
_atom_site_fract_z
Si Si1 0.910741 0.443610 0.055086
Si Si2 0.000000 0.327802 0.250000
Si Si3 0.158970 0.192516 0.655870
Si Si4 0.134207 0.727709 0.531363
Si Si5 0.052866 0.120877 0.957593
Si Si6 0.116203 0.659128 0.292034
Si Si7 0.219648 0.077701 0.138302
Si Si8 0.280507 0.556440 0.780339
O O1 0.958552 0.382111 0.143684
O O2 0.821381 0.478816 0.146443
O O3 0.822584 0.412412 0.956701
O O4 0.000000 0.500000 0.000000
O O5 0.923734 0.277719 0.337462
O O6 0.234128 0.224064 0.550935
O O7 0.117975 0.261827 0.728750
O O8 0.234223 0.138040 0.735302
O O9 0.066486 0.140775 0.596997
O O10 0.106400 0.800252 0.463337
O O11 0.105296 0.666193 0.435675
O O12 0.113233 0.065519 0.867478
O O13 0.096551 0.096440 0.088322
O O14 0.232138 0.623229 0.249655
O O15 0.000000 0.622643 0.250000
O O16 0.209769 0.994608 0.167863
#
# Coordination Sequence:
#
# PCOD9458515 Si02
#       8
#     8   4   8   8   8   8   8   8
#     4  11  25  44  71 109 157 207 252 327 406 479
#     4  12  26  46  74 112 158 196 258 336 412 478
#     4  12  24  48  78 111 155 214 268 329 401 493
#     4  12  26  44  79 116 151 199 260 337 405 474
#     4  11  25  49  77 108 157 209 263 327 406 477
#     4  12  24  45  77 115 155 201 263 331 413 484
#     4  11  27  45  73 113 156 199 271 329 395 493
#     4  11  24  46  74 107 155 211 262 318 396 490
#
# _framework density 24.247409999999999
#
# number of rings (size 3 to 8) (size 9 to 14) (size 15 to 20)
#    0.000    0.533    5.333    2.000    3.733    2.667 
#    0.000    1.333    0.000    0.000    0.000    0.000 
#    0.000    0.000    0.000    0.000    0.000    0.000 
#
# Total GULP energy -334450.396955 kJ/mol
# GULP energy per Si atom -5574.173283 kJ/mol
# Density = 2.419222 g / cm^3
# Si number density = 24.247410 Si / 1000 Ang^3
#
#
#
# Elastic Constant Matrix: (Units=GPa)
#
#
# Indices 1 2 3 4 5 6 
#
# 1 81.8951 21.0967 33.4836 0.0000 0.0000 0.0000
# 2 21.0967 71.8209 16.3967 0.0000 0.0000 0.0000
# 3 33.4836 16.3967 89.1521 0.0000 0.0000 0.0000
# 4 0.0000 0.0000 0.0000 18.7159 0.0000 0.0000
# 5 0.0000 0.0000 0.0000 0.0000 37.4266 0.0000
# 6 0.0000 0.0000 0.0000 0.0000 0.0000 21.5593
#
#
#
# Elastic Compliance Matrix: (Units=1/GPa)
#
#
# Indices 1 2 3 4 5 6 
#
# 1 0.015134 -0.003286 -0.005080 0.000000 0.000000 0.000000
# 2 -0.003286 0.015247 -0.001570 0.000000 0.000000 0.000000
# 3 -0.005080 -0.001570 0.013413 0.000000 0.000000 0.000000
# 4 0.000000 0.000000 0.000000 0.053431 0.000000 0.000000
# 5 0.000000 0.000000 0.000000 0.000000 0.026719 0.000000
# 6 0.000000 0.000000 0.000000 0.000000 0.000000 0.046384
#
#
# Mechanical properties :
#
#
# Convention : Reuss Voigt Hill
#
# Bulk Modulus (GPa) = 41.80026 42.75802 42.27914
# Shear Modulus (GPa) = 25.23040 26.99976 26.11508
#
# Velocity S-wave (km/s) = 3.22924 3.34055 3.28537
# Velocity P-wave (km/s) = 5.58395 5.70538 5.64499
#
# Compressibility (1/GPa) = 0.02392330
#
# Stress axis : x y z
#
# Youngs Moduli (GPa) = 66.07610 65.58601 74.55235
#
# Poissons Ratio (x) = 0.21550 0.37870
# Poissons Ratio (y) = 0.21711 0.11706
# Poissons Ratio (z) = 0.33565 0.10298
#
# Static dielectric constant tensor:
#      x y z
#    x 2.030380 0.000000 0.000000 
#    y 0.000000 1.935120 0.000000 
#    z 0.000000 0.000000 1.956430 
# 
# From -- ./inp_files/11244.got.cif
#   From: 2010.05.17/outbox.cif.g08.bks.cpg/sg60_6_cif.got.tgz:11244.got - 2010.06.03 14:59:27.
