data_PCOD9458890
_publ_section_title
;
Structure prediction by ZEFSAII (Michael W. Deem and Ramdas Pophale) SiO2 
 PCOD9458890
Probable space group: P B C N
;
_chemical_formula_sum "Si O2"
_cell_formula_units_Z 60
_cell_length_a 9.000000
_cell_length_b 12.000000
_cell_length_c 27.000000
_cell_angle_alpha 90.000000
_cell_angle_beta 90.000000
_cell_angle_gamma 90.000000
_cell_volume 2916.000000
_symmetry_space_group_name_H-M "P B C N"
_symmetry_group_IT_number 60
_symmetry_cell_setting 'orthorhombic'
loop_
_space_group_symop_operation_xyz
x,y,z
1/2-x,1/2-y,1/2+z
1/2+x,1/2-y,-z
-x,y,1/2-z
-x,-y,-z
1/2+x,1/2+y,1/2-z
1/2-x,1/2+y,z
x,-y,1/2+z
loop_
_atom_site_type_symbol
_atom_site_label
_atom_site_fract_x
_atom_site_fract_y
_atom_site_fract_z
Si Si1 0.355097 0.424319 0.495450
Si Si2 0.133743 0.247879 0.912238
Si Si3 0.690527 0.073247 0.812051
Si Si4 0.030577 0.704470 0.878720
Si Si5 0.930658 0.762862 0.330555
Si Si6 0.573174 0.006135 0.053796
Si Si7 0.000000 0.590517 0.250000
Si Si8 0.206237 0.890915 0.608947
O O1 0.500000 0.500000 0.500000
O O2 0.380774 0.307482 0.466772
O O3 0.245360 0.485424 0.457855
O O4 0.282025 0.411616 0.549977
O O5 0.298415 0.237106 0.889273
O O6 0.073922 0.375000 0.918397
O O7 0.037121 0.182440 0.871172
O O8 0.547705 0.147136 0.830259
O O9 0.826534 0.155347 0.798650
O O10 0.632800 0.989741 0.769292
O O11 0.759259 0.000286 0.857914
O O12 0.009627 0.600080 0.916582
O O13 0.946665 0.821642 0.886552
O O14 0.817261 0.696941 0.365996
O O15 0.019363 0.674641 0.296480
O O16 0.500000 0.000000 0.000000
#
# Coordination Sequence:
#
# PCOD9458890 Si02
#       8
#     8   8   8   8   8   8   4   8
#     4  11  22  34  54  85 123 167 214 259 304 367
#     4  11  23  37  57  90 130 168 212 267 322 379
#     4  10  21  41  67  91 119 162 206 259 327 393
#     4  10  22  38  58  85 120 158 204 260 316 372
#     4  10  22  40  64  91 122 164 209 257 322 388
#     4  11  21  34  53  81 118 164 211 256 307 360
#     4  10  22  42  66  92 120 150 204 268 318 382
#     4  10  20  38  60  85 122 168 215 256 305 378
#
# _framework density 20.576132000000001
#
# number of rings (size 3 to 8) (size 9 to 14) (size 15 to 20)
#    0.000    1.600    0.000    5.600    0.000    7.467 
#    0.000    1.333    0.000    3.200    0.000    0.000 
#    0.000    0.000    0.000    0.000    0.000    0.000 
#
# Total GULP energy -334113.639266 kJ/mol
# GULP energy per Si atom -5568.560654 kJ/mol
# Density = 2.052930 g / cm^3
# Si number density = 20.576132 Si / 1000 Ang^3
#
#
#
# Elastic Constant Matrix: (Units=GPa)
#
#
# Indices 1 2 3 4 5 6 
#
# 1 86.4486 31.9167 28.0688 0.0000 0.0000 0.0000
# 2 31.9167 70.2499 15.1362 0.0000 0.0000 0.0000
# 3 28.0688 15.1362 83.6781 0.0000 0.0000 0.0000
# 4 0.0000 0.0000 0.0000 31.5379 0.0000 0.0000
# 5 0.0000 0.0000 0.0000 0.0000 30.8708 0.0000
# 6 0.0000 0.0000 0.0000 0.0000 0.0000 31.6815
#
#
#
# Elastic Compliance Matrix: (Units=1/GPa)
#
#
# Indices 1 2 3 4 5 6 
#
# 1 0.015069 -0.005991 -0.003971 0.000000 0.000000 0.000000
# 2 -0.005991 0.017194 -0.001101 0.000000 0.000000 0.000000
# 3 -0.003971 -0.001101 0.013482 0.000000 0.000000 0.000000
# 4 0.000000 0.000000 0.000000 0.031708 0.000000 0.000000
# 5 0.000000 0.000000 0.000000 0.000000 0.032393 0.000000
# 6 0.000000 0.000000 0.000000 0.000000 0.000000 0.031564
#
#
# Mechanical properties :
#
#
# Convention : Reuss Voigt Hill
#
# Bulk Modulus (GPa) = 42.33761 43.40224 42.86992
# Shear Modulus (GPa) = 29.17041 29.83505 29.50273
#
# Velocity S-wave (km/s) = 3.76930 3.81200 3.79071
# Velocity P-wave (km/s) = 6.29001 6.36509 6.32766
#
# Compressibility (1/GPa) = 0.02361966
#
# Stress axis : x y z
#
# Youngs Moduli (GPa) = 66.36320 58.16069 74.17480
#
# Poissons Ratio (x) = 0.34841 0.29455
# Poissons Ratio (y) = 0.39755 0.08164
# Poissons Ratio (z) = 0.26353 0.06402
#
# Static dielectric constant tensor:
#      x y z
#    x 1.819920 0.000000 0.000000 
#    y 0.000000 1.786370 0.000000 
#    z 0.000000 0.000000 1.726220 
# 
# From -- ./inp_files/25212.got.cif
#   From: 2010.05.17/outbox.ucp.g08.bks.cvg/sg60_13_cif.got.tgz:25212.got - 2010.06.11 16:26:41.
