data_PCOD9458783
_publ_section_title
;
Structure prediction by ZEFSAII (Michael W. Deem and Ramdas Pophale) SiO2 
 PCOD9458783
Probable space group: P B C N
;
_chemical_formula_sum "Si O2"
_cell_formula_units_Z 24
_cell_length_a 4.876776
_cell_length_b 25.682378
_cell_length_c 7.944922
_cell_angle_alpha 90.000000
_cell_angle_beta 90.000000
_cell_angle_gamma 90.000000
_cell_volume 995.079272
_symmetry_space_group_name_H-M "P B C N"
_symmetry_group_IT_number 60
_symmetry_cell_setting 'orthorhombic'
loop_
_space_group_symop_operation_xyz
x,y,z
1/2-x,1/2-y,1/2+z
1/2+x,1/2-y,-z
-x,y,1/2-z
-x,-y,-z
1/2+x,1/2+y,1/2-z
1/2-x,1/2+y,z
x,-y,1/2+z
loop_
_atom_site_type_symbol
_atom_site_label
_atom_site_fract_x
_atom_site_fract_y
_atom_site_fract_z
Si Si1 0.015456 0.872932 0.443000
Si Si2 0.382790 0.221150 0.940598
Si Si3 0.004579 0.439583 0.549948
O O1 0.196345 0.825505 0.517856
O O2 0.214897 0.921102 0.467867
O O3 0.000000 0.856511 0.250000
O O4 0.724871 0.897260 0.493899
O O5 0.500000 0.213517 0.750000
O O6 0.655395 0.232849 0.049096
O O7 0.000000 0.437179 0.750000
O O8 0.000000 0.500000 0.500000
#
# Coordination Sequence:
#
# PCOD9458783 Si02
#       3
#     8   8   8
#     4  12  25  47  72 101 143 189 238 296 359 425
#     4  12  26  47  74 105 145 193 243 300 364 429
#     4  12  26  46  73 106 142 186 237 296 360 430
#
# _framework density 24.118680000000001
#
# number of rings (size 3 to 8) (size 9 to 14) (size 15 to 20)
#    0.000    0.000    0.000   12.000    0.000    5.333 
#    0.000    5.000    0.000    0.000    0.000    0.000 
#    0.000    0.000    0.000    0.000    0.000    0.000 
#
# Total GULP energy -134008.653113 kJ/mol
# GULP energy per Si atom -5583.693880 kJ/mol
# Density = 2.406378 g / cm^3
# Si number density = 24.118680 Si / 1000 Ang^3
#
#
#
# Elastic Constant Matrix: (Units=GPa)
#
#
# Indices 1 2 3 4 5 6 
#
# 1 1705.8811 1367.6411 -602.7622 0.0000 0.0000 0.0000
# 2 1367.6411 1256.2444 -550.4762 0.0000 0.0000 0.0000
# 3 -602.7622 -550.4762 317.0012 0.0000 0.0000 0.0000
# 4 0.0000 0.0000 0.0000 24.7942 0.0000 0.0000
# 5 0.0000 0.0000 0.0000 0.0000 46.4977 0.0000
# 6 0.0000 0.0000 0.0000 0.0000 0.0000 50.9233
#
#
#
# Elastic Compliance Matrix: (Units=1/GPa)
#
#
# Indices 1 2 3 4 5 6 
#
# 1 0.004612 -0.004929 0.000211 0.000000 0.000000 0.000000
# 2 -0.004929 0.008596 0.005556 0.000000 0.000000 0.000000
# 3 0.000211 0.005556 0.013205 0.000000 0.000000 0.000000
# 4 0.000000 0.000000 0.000000 0.040332 0.000000 0.000000
# 5 0.000000 0.000000 0.000000 0.000000 0.021506 0.000000
# 6 0.000000 0.000000 0.000000 0.000000 0.000000 0.019637
#
#
# Mechanical properties :
#
#
# Convention : Reuss Voigt Hill
#
# Bulk Modulus (GPa) = 35.59900 411.99245 223.79572
# Shear Modulus (GPa) = 43.26167 228.75796 136.00982
#
# Velocity S-wave (km/s) = 4.23980 9.74950 7.51760
# Velocity P-wave (km/s) = 6.22574 17.26055 12.97472
#
# Compressibility (1/GPa) = 0.02809068
#
# Stress axis : x y z
#
# Youngs Moduli (GPa) = 216.80611 116.32642 75.73132
#
# Poissons Ratio (x) = 0.57335 -0.01601
# Poissons Ratio (y) = 1.06859 -0.42077
# Poissons Ratio (z) = -0.04582 -0.64631
#
# Static dielectric constant tensor:
#      x y z
#    x 1.898210 0.000000 0.000000 
#    y 0.000000 2.016580 0.000000 
#    z 0.000000 0.000000 2.055920 
# 
# From -- ./inp_files/2878.got.cif
#   From: 2010.05.17/outbox.cif.g08.bks.cpg/sg60_2_cif.got.tgz:2878.got - 2010.06.03 14:59:27.
