data_PCOD9458595
_publ_section_title
;
Structure prediction by ZEFSAII (Michael W. Deem and Ramdas Pophale) SiO2 
 PCOD9458595
Probable space group: P B C N
;
_chemical_formula_sum "Si O2"
_cell_formula_units_Z 36
_cell_length_a 10.269128
_cell_length_b 19.011135
_cell_length_c 7.932258
_cell_angle_alpha 90.000000
_cell_angle_beta 90.000000
_cell_angle_gamma 90.000000
_cell_volume 1548.597110
_symmetry_space_group_name_H-M "P B C N"
_symmetry_group_IT_number 60
_symmetry_cell_setting 'orthorhombic'
loop_
_space_group_symop_operation_xyz
x,y,z
1/2-x,1/2-y,1/2+z
1/2+x,1/2-y,-z
-x,y,1/2-z
-x,-y,-z
1/2+x,1/2+y,1/2-z
1/2-x,1/2+y,z
x,-y,1/2+z
loop_
_atom_site_type_symbol
_atom_site_label
_atom_site_fract_x
_atom_site_fract_y
_atom_site_fract_z
Si Si1 0.751013 0.116060 0.111483
Si Si2 0.000000 0.818352 0.750000
Si Si3 0.895803 0.517804 0.640539
Si Si4 0.588852 0.746545 0.596422
Si Si5 0.150908 0.093988 0.760671
O O1 0.654381 0.059969 0.196386
O O2 0.690054 0.191667 0.069895
O O3 0.874846 0.132403 0.226403
O O4 0.795721 0.087076 0.929478
O O5 0.018243 0.773361 0.578786
O O6 0.758708 0.556498 0.623809
O O7 0.000000 0.562409 0.750000
O O8 0.000000 0.500000 0.500000
O O9 0.500000 0.773108 0.750000
O O10 0.644999 0.673907 0.672325
O O11 0.000000 0.069222 0.750000
#
# Coordination Sequence:
#
# PCOD9458595 Si02
#       5
#     8   4   8   8   8
#     4  12  26  47  75 106 150 197 248 310 377 446
#     4  12  26  42  78 108 140 208 246 298 388 432
#     4  12  28  48  72 110 146 197 249 310 380 438
#     4  11  25  49  72 112 148 190 251 311 366 448
#     4  11  25  51  73 105 154 197 249 310 370 454
#
# _framework density 23.246845
#
# number of rings (size 3 to 8) (size 9 to 14) (size 15 to 20)
#    0.000    0.444    6.667    2.000    4.667    4.444 
#    2.000    0.000    0.000    0.000    0.000    0.000 
#    0.000    0.000    0.000    0.000    0.000    0.000 
#
# Total GULP energy -200796.820651 kJ/mol
# GULP energy per Si atom -5577.689463 kJ/mol
# Density = 2.319393 g / cm^3
# Si number density = 23.246845 Si / 1000 Ang^3
#
#
#
# Elastic Constant Matrix: (Units=GPa)
#
#
# Indices 1 2 3 4 5 6 
#
# 1 198.2381 64.3334 33.1148 0.0000 0.0000 0.0000
# 2 64.3334 57.2754 -6.7600 0.0000 0.0000 0.0000
# 3 33.1148 -6.7600 87.0013 0.0000 0.0000 0.0000
# 4 0.0000 0.0000 0.0000 62.6913 0.0000 0.0000
# 5 0.0000 0.0000 0.0000 0.0000 44.0773 0.0000
# 6 0.0000 0.0000 0.0000 0.0000 0.0000 26.1246
#
#
#
# Elastic Compliance Matrix: (Units=1/GPa)
#
#
# Indices 1 2 3 4 5 6 
#
# 1 0.009367 -0.011044 -0.004424 0.000000 0.000000 0.000000
# 2 -0.011044 0.030641 0.006584 0.000000 0.000000 0.000000
# 3 -0.004424 0.006584 0.013689 0.000000 0.000000 0.000000
# 4 0.000000 0.000000 0.000000 0.015951 0.000000 0.000000
# 5 0.000000 0.000000 0.000000 0.000000 0.022687 0.000000
# 6 0.000000 0.000000 0.000000 0.000000 0.000000 0.038278
#
#
# Mechanical properties :
#
#
# Convention : Reuss Voigt Hill
#
# Bulk Modulus (GPa) = 27.83021 58.21012 43.02016
# Shear Modulus (GPa) = 31.18020 43.36709 37.27364
#
# Velocity S-wave (km/s) = 3.66630 4.32383 4.00857
# Velocity P-wave (km/s) = 5.46991 7.07261 6.32225
#
# Compressibility (1/GPa) = 0.03593218
#
# Stress axis : x y z
#
# Youngs Moduli (GPa) = 106.75351 32.63563 73.04922
#
# Poissons Ratio (x) = 0.36042 0.32314
# Poissons Ratio (y) = 1.17896 -0.48098
# Poissons Ratio (z) = 0.47223 -0.21489
#
# Static dielectric constant tensor:
#      x y z
#    x 1.863460 0.000000 0.000000 
#    y 0.000000 1.853810 0.000000 
#    z 0.000000 0.000000 2.150430 
# 
# From -- ./inp_files/3690.got.cif
#   From: 2010.05.17/outbox.cif.g08.bks.cpg/sg60_2_cif.got.tgz:3690.got - 2010.06.03 14:59:27.
