data_PCOD9458293
_publ_section_title
;
Structure prediction by ZEFSAII (Michael W. Deem and Ramdas Pophale) SiO2 
 PCOD9458293
Probable space group: P B C N
;
_chemical_formula_sum "Si O2"
_cell_formula_units_Z 40
_cell_length_a 5.856074
_cell_length_b 13.266293
_cell_length_c 23.090610
_cell_angle_alpha 90.000000
_cell_angle_beta 90.000000
_cell_angle_gamma 90.000000
_cell_volume 1793.872396
_symmetry_space_group_name_H-M "P B C N"
_symmetry_group_IT_number 60
_symmetry_cell_setting 'orthorhombic'
loop_
_space_group_symop_operation_xyz
x,y,z
1/2-x,1/2-y,1/2+z
1/2+x,1/2-y,-z
-x,y,1/2-z
-x,-y,-z
1/2+x,1/2+y,1/2-z
1/2-x,1/2+y,z
x,-y,1/2+z
loop_
_atom_site_type_symbol
_atom_site_label
_atom_site_fract_x
_atom_site_fract_y
_atom_site_fract_z
Si Si1 0.044571 0.049133 0.809855
Si Si2 0.641114 0.091826 0.129578
Si Si3 0.357194 0.806817 0.995591
Si Si4 0.836690 0.737998 0.697495
Si Si5 0.364855 0.109152 0.619184
O O1 0.225252 0.131099 0.786777
O O2 0.000000 0.992061 0.750000
O O3 0.863289 0.115518 0.844033
O O4 0.128544 0.970089 0.857287
O O5 0.652344 0.179623 0.177543
O O6 0.458653 0.002083 0.135359
O O7 0.632932 0.138788 0.066304
O O8 0.343085 0.881111 0.050646
O O9 0.609394 0.752064 0.001512
O O10 0.000000 0.767873 0.750000
O O11 0.980403 0.702567 0.640968
#
# Coordination Sequence:
#
# PCOD9458293 Si02
#       5
#     8   8   8   8   8
#     4  11  24  44  70 104 145 186 245 303 364 436
#     4  11  26  43  71 107 142 193 244 297 373 440
#     4  12  27  49  77 109 151 195 246 303 373 444
#     4  11  22  46  69 105 141 190 241 300 366 435
#     4  11  25  45  73 103 146 189 241 305 362 438
#
# _framework density 22.298131999999999
#
# number of rings (size 3 to 8) (size 9 to 14) (size 15 to 20)
#    0.000    0.800    4.000    2.400    5.600    2.400 
#    3.600    0.000    0.000    0.000    0.000    0.000 
#    0.000    0.000    0.000    0.000    0.000    0.000 
#
# Total GULP energy -222925.844757 kJ/mol
# GULP energy per Si atom -5573.146119 kJ/mol
# Density = 2.224738 g / cm^3
# Si number density = 22.298132 Si / 1000 Ang^3
#
#
#
# Elastic Constant Matrix: (Units=GPa)
#
#
# Indices 1 2 3 4 5 6 
#
# 1 57.5284 22.8756 -10.0719 0.0000 0.0000 0.0000
# 2 22.8756 109.2842 22.4484 0.0000 0.0000 0.0000
# 3 -10.0719 22.4484 75.9651 0.0000 0.0000 0.0000
# 4 0.0000 0.0000 0.0000 29.0828 0.0000 0.0000
# 5 0.0000 0.0000 0.0000 0.0000 32.6770 0.0000
# 6 0.0000 0.0000 0.0000 0.0000 0.0000 -3.8791
#
#
#
# Elastic Compliance Matrix: (Units=1/GPa)
#
#
# Indices 1 2 3 4 5 6 
#
# 1 0.020128 -0.005069 0.004167 0.000000 0.000000 0.000000
# 2 -0.005069 0.011018 -0.003928 0.000000 0.000000 0.000000
# 3 0.004167 -0.003928 0.014877 0.000000 0.000000 0.000000
# 4 0.000000 0.000000 0.000000 0.034385 0.000000 0.000000
# 5 0.000000 0.000000 0.000000 0.000000 0.030603 0.000000
# 6 0.000000 0.000000 0.000000 0.000000 0.000000 -0.257795
#
#
# Mechanical properties :
#
#
# Convention : Reuss Voigt Hill
#
# Bulk Modulus (GPa) = 27.50101 34.80910 31.15505
# Shear Modulus (GPa) = -39.99926 25.41119 -7.29404
#
# Velocity S-wave (km/s) = -4.23997 3.37947 -1.81059
# Velocity P-wave (km/s) = 3.40730 5.55630 3.10345
#
# Compressibility (1/GPa) = 0.03636230
#
# Stress axis : x y z
#
# Youngs Moduli (GPa) = 49.68231 90.75717 67.21704
#
# Poissons Ratio (x) = 0.46006 -0.28007
# Poissons Ratio (y) = 0.25184 0.26404
# Poissons Ratio (z) = -0.20701 0.35651
#
# Static dielectric constant tensor:
#      x y z
#    x 1.935970 0.000000 0.000000 
#    y 0.000000 1.810220 0.000000 
#    z 0.000000 0.000000 1.882390 
# 
# From -- ./inp_files/23524.got.cif
#   From: 2010.05.17/outbox.cif.g08.bks.cpg/sg60_12_cif.got.tgz:23524.got - 2010.06.03 14:59:27.
