data_PCOD9458460
_publ_section_title
;
Structure prediction by ZEFSAII (Michael W. Deem and Ramdas Pophale) SiO2 
 PCOD9458460
Probable space group: P B C N
;
_chemical_formula_sum "Si O2"
_cell_formula_units_Z 48
_cell_length_a 17.405353
_cell_length_b 8.016808
_cell_length_c 13.236442
_cell_angle_alpha 90.000000
_cell_angle_beta 90.000000
_cell_angle_gamma 90.000000
_cell_volume 1846.951874
_symmetry_space_group_name_H-M "P B C N"
_symmetry_group_IT_number 60
_symmetry_cell_setting 'orthorhombic'
loop_
_space_group_symop_operation_xyz
x,y,z
1/2-x,1/2-y,1/2+z
1/2+x,1/2-y,-z
-x,y,1/2-z
-x,-y,-z
1/2+x,1/2+y,1/2-z
1/2-x,1/2+y,z
x,-y,1/2+z
loop_
_atom_site_type_symbol
_atom_site_label
_atom_site_fract_x
_atom_site_fract_y
_atom_site_fract_z
Si Si1 0.080468 0.899832 0.121062
Si Si2 0.357462 0.624276 0.834300
Si Si3 0.863944 0.594383 0.838552
Si Si4 0.538937 0.264596 0.981482
Si Si5 0.308023 0.760726 0.351696
Si Si6 0.280010 0.221392 0.080364
O O1 0.084414 0.867934 0.239988
O O2 0.170172 0.891250 0.091792
O O3 0.038827 0.769721 0.046066
O O4 0.041051 0.073331 0.091885
O O5 0.397242 0.704824 0.931582
O O6 0.277821 0.715755 0.807715
O O7 0.335836 0.430093 0.851725
O O8 0.865884 0.636915 0.720025
O O9 0.823161 0.420376 0.857339
O O10 0.805190 0.733297 0.885068
O O11 0.939754 0.616179 0.906010
O O12 0.292737 0.827426 0.463912
#
# Coordination Sequence:
#
# PCOD9458460 Si02
#       6
#     8   8   8   8   8   8
#     4  11  24  43  65  93 132 178 221 267 327 393
#     4  12  23  40  67  99 132 168 223 274 329 396
#     4  12  24  42  67  97 136 171 220 279 328 390
#     4  11  24  43  65  93 132 178 221 267 327 393
#     4  12  24  38  67 101 127 168 219 274 332 386
#     4  12  24  42  67  97 136 171 220 279 328 390
#
# _framework density 25.988768
#
# number of rings (size 3 to 8) (size 9 to 14) (size 15 to 20)
#    0.000    0.333    6.667    3.500    0.000    0.667 
#    0.000    0.833    0.000    0.000    0.000    0.000 
#    0.000    0.000    0.000    0.000    0.000    0.000 
#
# Total GULP energy -268818.847329 kJ/mol
# GULP energy per Si atom -5600.392653 kJ/mol
# Density = 2.592962 g / cm^3
# Si number density = 25.988768 Si / 1000 Ang^3
#
#
#
# Elastic Constant Matrix: (Units=GPa)
#
#
# Indices 1 2 3 4 5 6 
#
# 1 55.8214 -20.5817 -23.2982 0.0000 0.0000 0.0000
# 2 -20.5817 74.3256 -1.2111 0.0000 0.0000 0.0000
# 3 -23.2982 -1.2111 113.6709 0.0000 0.0000 0.0000
# 4 0.0000 0.0000 0.0000 23.2160 0.0000 0.0000
# 5 0.0000 0.0000 0.0000 0.0000 45.8880 0.0000
# 6 0.0000 0.0000 0.0000 0.0000 0.0000 25.5987
#
#
#
# Elastic Compliance Matrix: (Units=1/GPa)
#
#
# Indices 1 2 3 4 5 6 
#
# 1 0.022120 0.006200 0.004600 0.000000 0.000000 0.000000
# 2 0.006200 0.015195 0.001433 0.000000 0.000000 0.000000
# 3 0.004600 0.001433 0.009755 0.000000 0.000000 0.000000
# 4 0.000000 0.000000 0.000000 0.043074 0.000000 0.000000
# 5 0.000000 0.000000 0.000000 0.000000 0.021792 0.000000
# 6 0.000000 0.000000 0.000000 0.000000 0.000000 0.039065
#
#
# Mechanical properties :
#
#
# Convention : Reuss Voigt Hill
#
# Bulk Modulus (GPa) = 13.97895 17.07062 15.52479
# Shear Modulus (GPa) = 33.24903 38.20112 35.72508
#
# Velocity S-wave (km/s) = 3.58070 3.83810 3.71163
# Velocity P-wave (km/s) = 4.74191 5.12094 4.93507
#
# Compressibility (1/GPa) = 0.07153615
#
# Stress axis : x y z
#
# Youngs Moduli (GPa) = 45.20748 65.81275 102.50738
#
# Poissons Ratio (x) = -0.40806 -0.47152
# Poissons Ratio (y) = -0.28030 -0.14687
# Poissons Ratio (z) = -0.20795 -0.09429
#
# Static dielectric constant tensor:
#      x y z
#    x 2.069920 0.000000 0.000000 
#    y 0.000000 2.031190 0.000000 
#    z 0.000000 0.000000 2.141800 
# 
# From -- ./inp_files/17623.got.cif
#   From: 2010.05.17/outbox.cif.g08.bks.cpg/sg60_9_cif.got.tgz:17623.got - 2010.06.03 14:59:27.
