data_PCOD9458926
_publ_section_title
;
Structure prediction by ZEFSAII (Michael W. Deem and Ramdas Pophale) SiO2 
 PCOD9458926
Probable space group: P B C N
;
_chemical_formula_sum "Si O2"
_cell_formula_units_Z 48
_cell_length_a 18.000000
_cell_length_b 9.000000
_cell_length_c 15.000000
_cell_angle_alpha 90.000000
_cell_angle_beta 90.000000
_cell_angle_gamma 90.000000
_cell_volume 2430.000000
_symmetry_space_group_name_H-M "P B C N"
_symmetry_group_IT_number 60
_symmetry_cell_setting 'orthorhombic'
loop_
_space_group_symop_operation_xyz
x,y,z
1/2-x,1/2-y,1/2+z
1/2+x,1/2-y,-z
-x,y,1/2-z
-x,-y,-z
1/2+x,1/2+y,1/2-z
1/2-x,1/2+y,z
x,-y,1/2+z
loop_
_atom_site_type_symbol
_atom_site_label
_atom_site_fract_x
_atom_site_fract_y
_atom_site_fract_z
Si Si1 0.588256 0.995961 0.259187
Si Si2 0.665513 0.703353 0.346113
Si Si3 0.337686 0.796417 0.597113
Si Si4 0.674840 0.077971 0.592770
Si Si5 0.911621 0.999001 0.490218
Si Si6 0.323795 0.580334 0.344774
O O1 0.500000 0.986871 0.250000
O O2 0.624504 0.850153 0.307521
O O3 0.614650 0.998774 0.156261
O O4 0.618935 0.132110 0.319081
O O5 0.751514 0.732616 0.374612
O O6 0.621632 0.632604 0.429912
O O7 0.666717 0.587690 0.261945
O O8 0.336389 0.913021 0.513507
O O9 0.378262 0.649305 0.558361
O O10 0.679059 0.248648 0.624299
O O11 0.749346 0.997793 0.622908
O O12 0.884541 0.997625 0.592972
O O13 0.000000 0.000000 0.500000
#
# Coordination Sequence:
#
# PCOD9458926 Si02
#       6
#     8   8   8   8   8   8
#     4  11  26  44  64  99 134 170 216 280 338 385
#     4  11  23  42  73  91 134 177 222 271 332 399
#     4  11  23  45  68  97 129 179 225 269 328 412
#     4  10  22  40  66  95 128 167 222 264 330 391
#     4  11  26  44  64 102 137 172 222 278 341 395
#     4  10  22  40  67  94 128 171 219 272 324 396
#
# _framework density 19.753086
#
# number of rings (size 3 to 8) (size 9 to 14) (size 15 to 20)
#    0.000    1.333    3.333    1.000   11.667    0.667 
#    6.000    0.000    0.000    0.000    0.000    0.000 
#    0.000    0.000    0.000    0.000    0.000    0.000 
#
# Total GULP energy -268023.241983 kJ/mol
# GULP energy per Si atom -5583.817541 kJ/mol
# Density = 1.970813 g / cm^3
# Si number density = 19.753086 Si / 1000 Ang^3
#
#
#
# Elastic Constant Matrix: (Units=GPa)
#
#
# Indices 1 2 3 4 5 6 
#
# 1 194.2084 11.4471 42.0864 0.0000 0.0000 0.0000
# 2 11.4471 15.0234 -8.6865 0.0000 0.0000 0.0000
# 3 42.0864 -8.6865 74.0094 0.0000 0.0000 0.0000
# 4 0.0000 0.0000 0.0000 29.7972 0.0000 0.0000
# 5 0.0000 0.0000 0.0000 0.0000 41.7286 0.0000
# 6 0.0000 0.0000 0.0000 0.0000 0.0000 18.8595
#
#
#
# Elastic Compliance Matrix: (Units=1/GPa)
#
#
# Indices 1 2 3 4 5 6 
#
# 1 0.006618 -0.007744 -0.004672 0.000000 0.000000 0.000000
# 2 -0.007744 0.080471 0.013849 0.000000 0.000000 0.000000
# 3 -0.004672 0.013849 0.017794 0.000000 0.000000 0.000000
# 4 0.000000 0.000000 0.000000 0.033560 0.000000 0.000000
# 5 0.000000 0.000000 0.000000 0.000000 0.023964 0.000000
# 6 0.000000 0.000000 0.000000 0.000000 0.000000 0.053024
#
#
# Mechanical properties :
#
#
# Convention : Reuss Voigt Hill
#
# Bulk Modulus (GPa) = 9.28098 41.43726 25.35912
# Shear Modulus (GPa) = 20.12211 33.97001 27.04606
#
# Velocity S-wave (km/s) = 3.19514 4.15146 3.70429
# Velocity P-wave (km/s) = 4.28026 6.63345 5.58226
#
# Compressibility (1/GPa) = 0.10774725
#
# Stress axis : x y z
#
# Youngs Moduli (GPa) = 151.10013 12.42688 56.19779
#
# Poissons Ratio (x) = 0.09624 0.26258
# Poissons Ratio (y) = 1.17016 -0.77827
# Poissons Ratio (z) = 0.70601 -0.17210
#
# Static dielectric constant tensor:
#      x y z
#    x 1.725940 0.000000 0.000000 
#    y 0.000000 1.705930 0.000000 
#    z 0.000000 0.000000 1.632610 
# 
# From -- ./inp_files/17312.got.cif
#   From: 2010.05.17/outbox.ucp.g08.bks.cvg/sg60_9_cif.got.tgz:17312.got - 2010.06.11 16:26:41.
