data_PCOD9458801
_publ_section_title
;
Structure prediction by ZEFSAII (Michael W. Deem and Ramdas Pophale) SiO2 
 PCOD9458801
Probable space group: P B C N
;
_chemical_formula_sum "Si O2"
_cell_formula_units_Z 28
_cell_length_a 16.712223
_cell_length_b 8.897309
_cell_length_c 7.506443
_cell_angle_alpha 90.000000
_cell_angle_beta 90.000000
_cell_angle_gamma 90.000000
_cell_volume 1116.161625
_symmetry_space_group_name_H-M "P B C N"
_symmetry_group_IT_number 60
_symmetry_cell_setting 'orthorhombic'
loop_
_space_group_symop_operation_xyz
x,y,z
1/2-x,1/2-y,1/2+z
1/2+x,1/2-y,-z
-x,y,1/2-z
-x,-y,-z
1/2+x,1/2+y,1/2-z
1/2-x,1/2+y,z
x,-y,1/2+z
loop_
_atom_site_type_symbol
_atom_site_label
_atom_site_fract_x
_atom_site_fract_y
_atom_site_fract_z
Si Si1 0.700229 0.731346 0.710991
Si Si2 0.000000 0.866103 0.750000
Si Si3 0.835758 0.080189 0.087182
Si Si4 0.955539 0.349851 0.569159
O O1 0.704268 0.582549 0.589617
O O2 0.785661 0.810251 0.715313
O O3 0.637199 0.850183 0.627633
O O4 0.669603 0.665742 0.899154
O O5 0.074687 0.947115 0.841773
O O6 0.035107 0.764196 0.592686
O O7 0.000000 0.301275 0.750000
O O8 0.000000 0.500000 0.500000
#
# Coordination Sequence:
#
# PCOD9458801 Si02
#       4
#     8   4   8   8
#     4  12  28  50  78 117 157 214 267 335 401 484
#     4  12  26  48  78 118 156 208 260 338 398 482
#     4  12  28  50  82 114 163 209 275 333 409 477
#     4  12  26  46  77 112 157 203 264 323 396 470
#
# _framework density 25.085974
#
# number of rings (size 3 to 8) (size 9 to 14) (size 15 to 20)
#    0.000    0.000    4.286    5.143    6.000    4.571 
#    0.000    0.000    0.000    0.000    0.000    0.000 
#    0.000    0.000    0.000    0.000    0.000    0.000 
#
# Total GULP energy -156874.517340 kJ/mol
# GULP energy per Si atom -5602.661334 kJ/mol
# Density = 2.502888 g / cm^3
# Si number density = 25.085974 Si / 1000 Ang^3
#
#
#
# Elastic Constant Matrix: (Units=GPa)
#
#
# Indices 1 2 3 4 5 6 
#
# 1 130.8252 54.6080 34.5742 0.0000 0.0000 0.0000
# 2 54.6080 107.0414 31.6435 0.0000 0.0000 0.0000
# 3 34.5742 31.6435 178.3868 0.0000 0.0000 0.0000
# 4 0.0000 0.0000 0.0000 26.7643 0.0000 0.0000
# 5 0.0000 0.0000 0.0000 0.0000 39.2695 0.0000
# 6 0.0000 0.0000 0.0000 0.0000 0.0000 33.1696
#
#
#
# Elastic Compliance Matrix: (Units=1/GPa)
#
#
# Indices 1 2 3 4 5 6 
#
# 1 0.009905 -0.004734 -0.001080 0.000000 0.000000 0.000000
# 2 -0.004734 0.012122 -0.001233 0.000000 0.000000 0.000000
# 3 -0.001080 -0.001233 0.006034 0.000000 0.000000 0.000000
# 4 0.000000 0.000000 0.000000 0.037363 0.000000 0.000000
# 5 0.000000 0.000000 0.000000 0.000000 0.025465 0.000000
# 6 0.000000 0.000000 0.000000 0.000000 0.000000 0.030148
#
#
# Mechanical properties :
#
#
# Convention : Reuss Voigt Hill
#
# Bulk Modulus (GPa) = 71.59600 73.10054 72.34827
# Shear Modulus (GPa) = 35.76891 39.53586 37.65239
#
# Velocity S-wave (km/s) = 3.78014 3.97421 3.87839
# Velocity P-wave (km/s) = 6.90325 7.08960 6.99704
#
# Compressibility (1/GPa) = 0.01396726
#
# Stress axis : x y z
#
# Youngs Moduli (GPa) = 100.95680 82.49704 165.73319
#
# Poissons Ratio (x) = 0.39054 0.17900
# Poissons Ratio (y) = 0.47792 0.20430
# Poissons Ratio (z) = 0.10904 0.10169
#
# Static dielectric constant tensor:
#      x y z
#    x 1.996850 0.000000 0.000000 
#    y 0.000000 1.931440 0.000000 
#    z 0.000000 0.000000 1.995410 
# 
# From -- ./inp_files/5432.got.cif
#   From: 2010.05.17/outbox.cif.g08.bks.cpg/sg60_3_cif.got.tgz:5432.got - 2010.06.03 14:59:27.
