data_PCOD9458272
_publ_section_title
;
Structure prediction by ZEFSAII (Michael W. Deem and Ramdas Pophale) SiO2 
 PCOD9458272
Probable space group: P B C N
;
_chemical_formula_sum "Si O2"
_cell_formula_units_Z 48
_cell_length_a 9.276194
_cell_length_b 9.122871
_cell_length_c 26.773852
_cell_angle_alpha 90.000000
_cell_angle_beta 90.000000
_cell_angle_gamma 90.000000
_cell_volume 2265.751181
_symmetry_space_group_name_H-M "P B C N"
_symmetry_group_IT_number 60
_symmetry_cell_setting 'orthorhombic'
loop_
_space_group_symop_operation_xyz
x,y,z
1/2-x,1/2-y,1/2+z
1/2+x,1/2-y,-z
-x,y,1/2-z
-x,-y,-z
1/2+x,1/2+y,1/2-z
1/2-x,1/2+y,z
x,-y,1/2+z
loop_
_atom_site_type_symbol
_atom_site_label
_atom_site_fract_x
_atom_site_fract_y
_atom_site_fract_z
Si Si1 0.611917 0.799902 0.878795
Si Si2 0.653383 0.460182 0.752762
Si Si3 0.607904 0.470591 0.867975
Si Si4 0.324607 0.690086 0.403246
Si Si5 0.416591 0.998355 0.447834
Si Si6 0.869815 0.262258 0.693239
O O1 0.606226 0.629242 0.893838
O O2 0.774665 0.852873 0.884636
O O3 0.520996 0.914465 0.910623
O O4 0.530862 0.803664 0.824666
O O5 0.500000 0.373411 0.750000
O O6 0.661590 0.497278 0.811047
O O7 0.786034 0.373901 0.729063
O O8 0.633780 0.605899 0.719928
O O9 0.451503 0.401218 0.876503
O O10 0.233605 0.588294 0.441357
O O11 0.219774 0.742831 0.358499
O O12 0.386679 0.832983 0.430302
O O13 0.500000 0.000000 0.500000
#
# Coordination Sequence:
#
# PCOD9458272 Si02
#       6
#     8   8   8   8   8   8
#     4  11  24  43  65  96 140 173 226 280 343 393
#     4  12  23  39  63  97 134 179 240 262 321 393
#     4  12  24  42  65 102 138 184 224 279 327 396
#     4  11  23  46  73  96 138 175 219 279 344 398
#     4  11  26  47  73 103 126 175 221 274 348 413
#     4  11  22  43  63  94 136 184 221 280 324 388
#
# _framework density 21.185026000000001
#
# number of rings (size 3 to 8) (size 9 to 14) (size 15 to 20)
#    0.000    0.667    3.333    6.000    0.000    2.667 
#    3.000    2.500    0.000    0.000    0.000    0.000 
#    0.000    0.000    0.000    0.000    0.000    0.000 
#
# Total GULP energy -268076.833752 kJ/mol
# GULP energy per Si atom -5584.934037 kJ/mol
# Density = 2.113681 g / cm^3
# Si number density = 21.185026 Si / 1000 Ang^3
#
#
#
# Elastic Constant Matrix: (Units=GPa)
#
#
# Indices 1 2 3 4 5 6 
#
# 1 105.3005 42.9646 30.3941 0.0000 0.0000 0.0000
# 2 42.9646 130.2152 53.6026 0.0000 0.0000 0.0000
# 3 30.3941 53.6026 97.9220 0.0000 0.0000 0.0000
# 4 0.0000 0.0000 0.0000 15.3792 0.0000 0.0000
# 5 0.0000 0.0000 0.0000 0.0000 27.9335 0.0000
# 6 0.0000 0.0000 0.0000 0.0000 0.0000 40.7426
#
#
#
# Elastic Compliance Matrix: (Units=1/GPa)
#
#
# Indices 1 2 3 4 5 6 
#
# 1 0.011237 -0.002933 -0.001882 0.000000 0.000000 0.000000
# 2 -0.002933 0.010679 -0.004935 0.000000 0.000000 0.000000
# 3 -0.001882 -0.004935 0.013498 0.000000 0.000000 0.000000
# 4 0.000000 0.000000 0.000000 0.065023 0.000000 0.000000
# 5 0.000000 0.000000 0.000000 0.000000 0.035799 0.000000
# 6 0.000000 0.000000 0.000000 0.000000 0.000000 0.024544
#
#
# Mechanical properties :
#
#
# Convention : Reuss Voigt Hill
#
# Bulk Modulus (GPa) = 62.84273 65.26226 64.05249
# Shear Modulus (GPa) = 26.94187 30.57617 28.75902
#
# Velocity S-wave (km/s) = 3.57002 3.80319 3.68845
# Velocity P-wave (km/s) = 6.83531 7.08226 6.95988
#
# Compressibility (1/GPa) = 0.01591274
#
# Stress axis : x y z
#
# Youngs Moduli (GPa) = 88.99547 93.64314 74.08450
#
# Poissons Ratio (x) = 0.27462 0.13946
# Poissons Ratio (y) = 0.26099 0.36563
# Poissons Ratio (z) = 0.16752 0.46216
#
# Static dielectric constant tensor:
#      x y z
#    x 1.818570 0.000000 0.000000 
#    y 0.000000 1.736990 0.000000 
#    z 0.000000 0.000000 1.800890 
# 
# From -- ./inp_files/25931.got.cif
#   From: 2010.05.17/outbox.cif.g08.bks.cpg/sg60_13_cif.got.tgz:25931.got - 2010.06.03 14:59:27.
