data_PCOD9458219
_publ_section_title
;
Structure prediction by ZEFSAII (Michael W. Deem and Ramdas Pophale) SiO2 
 PCOD9458219
Probable space group: P B C N
;
_chemical_formula_sum "Si O2"
_cell_formula_units_Z 48
_cell_length_a 8.712542
_cell_length_b 16.134579
_cell_length_c 14.139059
_cell_angle_alpha 90.000000
_cell_angle_beta 90.000000
_cell_angle_gamma 90.000000
_cell_volume 1987.572729
_symmetry_space_group_name_H-M "P B C N"
_symmetry_group_IT_number 60
_symmetry_cell_setting 'orthorhombic'
loop_
_space_group_symop_operation_xyz
x,y,z
1/2-x,1/2-y,1/2+z
1/2+x,1/2-y,-z
-x,y,1/2-z
-x,-y,-z
1/2+x,1/2+y,1/2-z
1/2-x,1/2+y,z
x,-y,1/2+z
loop_
_atom_site_type_symbol
_atom_site_label
_atom_site_fract_x
_atom_site_fract_y
_atom_site_fract_z
Si Si1 0.645932 0.074636 0.094089
Si Si2 0.368702 0.549438 0.824695
Si Si3 0.323930 0.021263 0.103945
Si Si4 0.700977 0.722048 0.988773
Si Si5 0.834451 0.345296 0.292966
Si Si6 0.109687 0.128744 0.014533
O O1 0.471476 0.076280 0.126824
O O2 0.757992 0.030022 0.167938
O O3 0.698346 0.162679 0.055878
O O4 0.660960 0.012006 0.004272
O O5 0.500000 0.536537 0.750000
O O6 0.280348 0.633352 0.792297
O O7 0.434363 0.569731 0.927836
O O8 0.346089 0.937737 0.162726
O O9 0.165955 0.073162 0.102525
O O10 0.755367 0.705309 0.879283
O O11 0.530169 0.693188 0.016619
O O12 0.738722 0.817138 0.006787
O O13 0.000000 0.318326 0.250000
#
# Coordination Sequence:
#
# PCOD9458219 Si02
#       6
#     8   8   8   8   8   8
#     4   9  19  36  61  89 119 157 204 255 307 380
#     4  11  22  39  65  94 125 159 213 274 320 365
#     4   9  19  36  61  90 118 157 207 252 309 378
#     4  11  24  40  63  90 126 173 213 255 318 390
#     4  11  22  39  67  94 123 163 211 267 323 369
#     4  11  24  40  63  89 127 172 214 257 316 394
#
# _framework density 24.15006
#
# number of rings (size 3 to 8) (size 9 to 14) (size 15 to 20)
#    0.000    1.667    3.333    1.000    7.000    2.000 
#    0.000    1.667    0.000    0.000    0.000    0.000 
#    0.000    0.000    0.000    0.000    0.000    0.000 
#
# Total GULP energy -268081.882253 kJ/mol
# GULP energy per Si atom -5585.039214 kJ/mol
# Density = 2.409509 g / cm^3
# Si number density = 24.150060 Si / 1000 Ang^3
#
#
#
# Elastic Constant Matrix: (Units=GPa)
#
#
# Indices 1 2 3 4 5 6 
#
# 1 92.4165 15.2625 11.7675 0.0000 0.0000 0.0000
# 2 15.2625 60.3635 7.4771 0.0000 0.0000 0.0000
# 3 11.7675 7.4771 72.4595 0.0000 0.0000 0.0000
# 4 0.0000 0.0000 0.0000 20.3388 0.0000 0.0000
# 5 0.0000 0.0000 0.0000 0.0000 32.4031 0.0000
# 6 0.0000 0.0000 0.0000 0.0000 0.0000 39.9251
#
#
#
# Elastic Compliance Matrix: (Units=1/GPa)
#
#
# Indices 1 2 3 4 5 6 
#
# 1 0.011469 -0.002704 -0.001584 0.000000 0.000000 0.000000
# 2 -0.002704 0.017418 -0.001358 0.000000 0.000000 0.000000
# 3 -0.001584 -0.001358 0.014198 0.000000 0.000000 0.000000
# 4 0.000000 0.000000 0.000000 0.049167 0.000000 0.000000
# 5 0.000000 0.000000 0.000000 0.000000 0.030861 0.000000
# 6 0.000000 0.000000 0.000000 0.000000 0.000000 0.025047
#
#
# Mechanical properties :
#
#
# Convention : Reuss Voigt Hill
#
# Bulk Modulus (GPa) = 31.45241 32.69483 32.07362
# Shear Modulus (GPa) = 29.40323 31.24888 30.32606
#
# Velocity S-wave (km/s) = 3.49309 3.60105 3.54748
# Velocity P-wave (km/s) = 5.41488 5.55497 5.48537
#
# Compressibility (1/GPa) = 0.03179407
#
# Stress axis : x y z
#
# Youngs Moduli (GPa) = 87.19373 57.41137 70.43173
#
# Poissons Ratio (x) = 0.15522 0.11153
# Poissons Ratio (y) = 0.23574 0.09567
# Poissons Ratio (z) = 0.13807 0.07798
#
# Static dielectric constant tensor:
#      x y z
#    x 2.009970 0.000000 0.000000 
#    y 0.000000 1.851750 0.000000 
#    z 0.000000 0.000000 2.016680 
# 
# From -- ./inp_files/15115.got.cif
#   From: 2010.05.17/outbox.cif.g08.bks.cpg/sg60_8_cif.got.tgz:15115.got - 2010.06.03 14:59:27.
