data_PCOD9458487
_publ_section_title
;
Structure prediction by ZEFSAII (Michael W. Deem and Ramdas Pophale) SiO2 
 PCOD9458487
Probable space group: P B C N
;
_chemical_formula_sum "Si O2"
_cell_formula_units_Z 44
_cell_length_a 16.239773
_cell_length_b 13.840299
_cell_length_c 8.502772
_cell_angle_alpha 90.000000
_cell_angle_beta 90.000000
_cell_angle_gamma 90.000000
_cell_volume 1911.111213
_symmetry_space_group_name_H-M "P B C N"
_symmetry_group_IT_number 60
_symmetry_cell_setting 'orthorhombic'
loop_
_space_group_symop_operation_xyz
x,y,z
1/2-x,1/2-y,1/2+z
1/2+x,1/2-y,-z
-x,y,1/2-z
-x,-y,-z
1/2+x,1/2+y,1/2-z
1/2-x,1/2+y,z
x,-y,1/2+z
loop_
_atom_site_type_symbol
_atom_site_label
_atom_site_fract_x
_atom_site_fract_y
_atom_site_fract_z
Si Si1 0.626213 0.849580 0.855195
Si Si2 0.809637 0.871868 0.751723
Si Si3 0.179022 0.343721 0.291222
Si Si4 0.000000 0.187494 0.750000
Si Si5 0.150765 0.925977 0.392650
Si Si6 0.441743 0.957830 0.133494
O O1 0.713100 0.844085 0.767063
O O2 0.562758 0.761071 0.840575
O O3 0.587287 0.944931 0.780223
O O4 0.646533 0.877274 0.036650
O O5 0.845275 0.768183 0.708923
O O6 0.834149 0.960493 0.640384
O O7 0.836867 0.904314 0.924620
O O8 0.275527 0.371092 0.298664
O O9 0.140104 0.393403 0.135333
O O10 0.937267 0.117901 0.656494
O O11 0.500000 0.897883 0.250000
O O12 0.500000 0.000000 0.000000
#
# Coordination Sequence:
#
# PCOD9458487 Si02
#       6
#     8   8   8   4   8   8
#     4  11  24  44  73 102 145 189 242 303 366 440
#     4  11  26  48  75 105 143 200 244 305 368 459
#     4  11  25  47  72 106 147 199 241 304 384 441
#     4  12  26  48  70 114 144 200 250 314 358 450
#     4  11  27  47  75 105 148 197 250 305 374 442
#     4  12  24  41  69 107 141 179 238 306 363 431
#
# _framework density 23.023253
#
# number of rings (size 3 to 8) (size 9 to 14) (size 15 to 20)
#    0.000    0.727    6.364    0.000    5.091    0.727 
#    1.636    0.000    0.000    0.000    0.000    0.000 
#    0.000    0.000    0.000    0.000    0.000    0.000 
#
# Total GULP energy -245266.059037 kJ/mol
# GULP energy per Si atom -5574.228614 kJ/mol
# Density = 2.297085 g / cm^3
# Si number density = 23.023253 Si / 1000 Ang^3
#
#
#
# Elastic Constant Matrix: (Units=GPa)
#
#
# Indices 1 2 3 4 5 6 
#
# 1 108.5446 18.4156 28.1808 0.0000 0.0000 0.0000
# 2 18.4156 140.8088 9.8517 0.0000 0.0000 0.0000
# 3 28.1808 9.8517 44.2096 0.0000 0.0000 0.0000
# 4 0.0000 0.0000 0.0000 20.8319 0.0000 0.0000
# 5 0.0000 0.0000 0.0000 0.0000 27.9858 0.0000
# 6 0.0000 0.0000 0.0000 0.0000 0.0000 42.2246
#
#
#
# Elastic Compliance Matrix: (Units=1/GPa)
#
#
# Indices 1 2 3 4 5 6 
#
# 1 0.011171 -0.000978 -0.006903 0.000000 0.000000 0.000000
# 2 -0.000978 0.007300 -0.001003 0.000000 0.000000 0.000000
# 3 -0.006903 -0.001003 0.027243 0.000000 0.000000 0.000000
# 4 0.000000 0.000000 0.000000 0.048003 0.000000 0.000000
# 5 0.000000 0.000000 0.000000 0.000000 0.035732 0.000000
# 6 0.000000 0.000000 0.000000 0.000000 0.000000 0.023683
#
#
# Mechanical properties :
#
#
# Convention : Reuss Voigt Hill
#
# Bulk Modulus (GPa) = 35.78358 45.16215 40.47287
# Shear Modulus (GPa) = 27.74450 34.01612 30.88031
#
# Velocity S-wave (km/s) = 3.47517 3.84795 3.66630
# Velocity P-wave (km/s) = 5.62837 6.27701 5.96152
#
# Compressibility (1/GPa) = 0.02794578
#
# Stress axis : x y z
#
# Youngs Moduli (GPa) = 89.51866 136.98750 36.70648
#
# Poissons Ratio (x) = 0.13398 0.25338
# Poissons Ratio (y) = 0.08755 0.03683
# Poissons Ratio (z) = 0.61793 0.13744
#
# Static dielectric constant tensor:
#      x y z
#    x 2.014270 0.000000 0.000000 
#    y 0.000000 1.875240 0.000000 
#    z 0.000000 0.000000 1.947210 
# 
# From -- ./inp_files/6649.got.cif
#   From: 2010.05.17/outbox.cif.g08.bks.cpg/sg60_4_cif.got.tgz:6649.got - 2010.06.03 14:59:27.
