data_PCOD9458561
_publ_section_title
;
Structure prediction by ZEFSAII (Michael W. Deem and Ramdas Pophale) SiO2 
 PCOD9458561
Probable space group: P B C N
;
_chemical_formula_sum "Si O2"
_cell_formula_units_Z 48
_cell_length_a 35.080552
_cell_length_b 6.750201
_cell_length_c 8.360616
_cell_angle_alpha 90.000000
_cell_angle_beta 90.000000
_cell_angle_gamma 90.000000
_cell_volume 1979.800367
_symmetry_space_group_name_H-M "P B C N"
_symmetry_group_IT_number 60
_symmetry_cell_setting 'orthorhombic'
loop_
_space_group_symop_operation_xyz
x,y,z
1/2-x,1/2-y,1/2+z
1/2+x,1/2-y,-z
-x,y,1/2-z
-x,-y,-z
1/2+x,1/2+y,1/2-z
1/2-x,1/2+y,z
x,-y,1/2+z
loop_
_atom_site_type_symbol
_atom_site_label
_atom_site_fract_x
_atom_site_fract_y
_atom_site_fract_z
Si Si1 0.346361 0.628179 0.087254
Si Si2 0.461029 0.303832 0.817043
Si Si3 0.715805 0.298168 0.410250
Si Si4 0.900262 0.134986 0.693787
Si Si5 0.460821 0.081303 0.151158
Si Si6 0.793819 0.422959 0.242354
O O1 0.310119 0.487632 0.048459
O O2 0.371699 0.705874 0.942601
O O3 0.373919 0.480922 0.181893
O O4 0.330208 0.806026 0.192566
O O5 0.500000 0.399003 0.750000
O O6 0.430492 0.467804 0.861241
O O7 0.450816 0.151064 0.673839
O O8 0.466483 0.166338 0.973426
O O9 0.756914 0.367678 0.349578
O O10 0.715032 0.160852 0.567342
O O11 0.700696 0.157104 0.266687
O O12 0.925588 0.303743 0.771703
O O13 0.500000 0.113632 0.250000
#
# Coordination Sequence:
#
# PCOD9458561 Si02
#       6
#     8   8   8   8   8   8
#     4  12  28  48  67 105 141 182 233 287 357 413
#     4  11  25  44  72 104 139 188 236 280 342 410
#     4  12  27  46  74 101 135 181 230 289 349 416
#     4  12  27  46  70 101 145 182 233 289 348 413
#     4  11  25  44  72 103 141 187 234 283 341 411
#     4  12  27  46  74 100 137 178 232 288 347 420
#
# _framework density 24.244869000000001
#
# number of rings (size 3 to 8) (size 9 to 14) (size 15 to 20)
#    0.000    0.333    5.000    3.500    9.333    4.000 
#    0.000    0.000    0.000    0.000    0.000    0.000 
#    0.000    0.000    0.000    0.000    0.000    0.000 
#
# Total GULP energy -268954.204395 kJ/mol
# GULP energy per Si atom -5603.212592 kJ/mol
# Density = 2.418969 g / cm^3
# Si number density = 24.244869 Si / 1000 Ang^3
#
#
#
# Elastic Constant Matrix: (Units=GPa)
#
#
# Indices 1 2 3 4 5 6 
#
# 1 100.6117 14.1295 8.6158 0.0000 0.0000 0.0000
# 2 14.1295 72.3881 -16.8366 0.0000 0.0000 0.0000
# 3 8.6158 -16.8366 58.7108 0.0000 0.0000 0.0000
# 4 0.0000 0.0000 0.0000 39.6493 0.0000 0.0000
# 5 0.0000 0.0000 0.0000 0.0000 31.2586 0.0000
# 6 0.0000 0.0000 0.0000 0.0000 0.0000 61.6380
#
#
#
# Elastic Compliance Matrix: (Units=1/GPa)
#
#
# Indices 1 2 3 4 5 6 
#
# 1 0.010497 -0.002579 -0.002280 0.000000 0.000000 0.000000
# 2 -0.002579 0.015435 0.004805 0.000000 0.000000 0.000000
# 3 -0.002280 0.004805 0.018745 0.000000 0.000000 0.000000
# 4 0.000000 0.000000 0.000000 0.025221 0.000000 0.000000
# 5 0.000000 0.000000 0.000000 0.000000 0.031991 0.000000
# 6 0.000000 0.000000 0.000000 0.000000 0.000000 0.016224
#
#
# Mechanical properties :
#
#
# Convention : Reuss Voigt Hill
#
# Bulk Modulus (GPa) = 22.43723 27.05866 24.74795
# Shear Modulus (GPa) = 37.57193 41.56263 39.56728
#
# Velocity S-wave (km/s) = 3.94088 4.14488 4.04417
# Velocity P-wave (km/s) = 5.47557 5.83880 5.66010
#
# Compressibility (1/GPa) = 0.04456878
#
# Stress axis : x y z
#
# Youngs Moduli (GPa) = 95.26846 64.78604 53.34710
#
# Poissons Ratio (x) = 0.16709 0.12163
# Poissons Ratio (y) = 0.24571 -0.25633
# Poissons Ratio (z) = 0.21721 -0.31129
#
# Static dielectric constant tensor:
#      x y z
#    x 1.901110 0.000000 0.000000 
#    y 0.000000 1.925560 0.000000 
#    z 0.000000 0.000000 1.958860 
# 
# From -- ./inp_files/8405.got.cif
#   From: 2010.05.17/outbox.cif.g08.bks.cpg/sg60_5_cif.got.tgz:8405.got - 2010.06.03 14:59:27.
