data_PCOD9458207
_publ_section_title
;
Structure prediction by ZEFSAII (Michael W. Deem and Ramdas Pophale) SiO2 
 PCOD9458207
Probable space group: P B C N
;
_chemical_formula_sum "Si O2"
_cell_formula_units_Z 40
_cell_length_a 9.232632
_cell_length_b 21.117948
_cell_length_c 9.501139
_cell_angle_alpha 90.000000
_cell_angle_beta 90.000000
_cell_angle_gamma 90.000000
_cell_volume 1852.477379
_symmetry_space_group_name_H-M "P B C N"
_symmetry_group_IT_number 60
_symmetry_cell_setting 'orthorhombic'
loop_
_space_group_symop_operation_xyz
x,y,z
1/2-x,1/2-y,1/2+z
1/2+x,1/2-y,-z
-x,y,1/2-z
-x,-y,-z
1/2+x,1/2+y,1/2-z
1/2-x,1/2+y,z
x,-y,1/2+z
loop_
_atom_site_type_symbol
_atom_site_label
_atom_site_fract_x
_atom_site_fract_y
_atom_site_fract_z
Si Si1 0.275215 0.781190 0.683278
Si Si2 0.761595 0.501418 0.525097
Si Si3 0.341558 0.582158 0.210633
Si Si4 0.570212 0.226803 0.035197
Si Si5 0.028264 0.594365 0.594494
O O1 0.262814 0.857576 0.690052
O O2 0.314511 0.759371 0.840630
O O3 0.130952 0.757372 0.606666
O O4 0.411110 0.755777 0.591207
O O5 0.649916 0.542287 0.433932
O O6 0.710604 0.464036 0.663317
O O7 0.832334 0.450282 0.419495
O O8 0.890965 0.550240 0.560785
O O9 0.500000 0.606492 0.250000
O O10 0.555491 0.151962 0.009517
O O11 0.000000 0.619866 0.750000
#
# Coordination Sequence:
#
# PCOD9458207 Si02
#       5
#     8   8   8   8   8
#     4  11  27  46  72 104 141 192 242 300 358 433
#     4  11  23  42  68 109 139 182 229 300 361 429
#     4  12  25  44  70 103 149 187 233 299 371 429
#     4  11  26  46  70 103 142 188 248 295 359 431
#     4  11  22  38  74  99 138 182 238 293 355 426
#
# _framework density 21.592707000000001
#
# number of rings (size 3 to 8) (size 9 to 14) (size 15 to 20)
#    0.000    0.800    6.000    0.600    5.600    0.000 
#    0.000    0.000    0.000    0.000    0.000    0.000 
#    0.000    0.000    0.000    0.000    0.000    0.000 
#
# Total GULP energy -223358.000313 kJ/mol
# GULP energy per Si atom -5583.950008 kJ/mol
# Density = 2.154356 g / cm^3
# Si number density = 21.592707 Si / 1000 Ang^3
#
#
#
# Elastic Constant Matrix: (Units=GPa)
#
#
# Indices 1 2 3 4 5 6 
#
# 1 53.3536 17.5548 49.6302 0.0000 0.0000 0.0000
# 2 17.5548 51.5103 25.9542 0.0000 0.0000 0.0000
# 3 49.6302 25.9542 85.4885 0.0000 0.0000 0.0000
# 4 0.0000 0.0000 0.0000 41.1139 0.0000 0.0000
# 5 0.0000 0.0000 0.0000 0.0000 39.8618 0.0000
# 6 0.0000 0.0000 0.0000 0.0000 0.0000 31.3135
#
#
#
# Elastic Compliance Matrix: (Units=1/GPa)
#
#
# Indices 1 2 3 4 5 6 
#
# 1 0.040985 -0.002336 -0.023084 0.000000 0.000000 0.000000
# 2 -0.002336 0.023053 -0.005643 0.000000 0.000000 0.000000
# 3 -0.023084 -0.005643 0.026812 0.000000 0.000000 0.000000
# 4 0.000000 0.000000 0.000000 0.024323 0.000000 0.000000
# 5 0.000000 0.000000 0.000000 0.000000 0.025087 0.000000
# 6 0.000000 0.000000 0.000000 0.000000 0.000000 0.031935
#
#
# Mechanical properties :
#
#
# Convention : Reuss Voigt Hill
#
# Bulk Modulus (GPa) = 34.81466 41.84786 38.33126
# Shear Modulus (GPa) = 20.50059 28.93873 24.71966
#
# Velocity S-wave (km/s) = 3.08461 3.66486 3.38718
# Velocity P-wave (km/s) = 5.37073 6.10990 5.75220
#
# Compressibility (1/GPa) = 0.02872353
#
# Stress axis : x y z
#
# Youngs Moduli (GPa) = 24.39918 43.37859 37.29648
#
# Poissons Ratio (x) = 0.10134 0.86097
# Poissons Ratio (y) = 0.05700 0.21045
# Poissons Ratio (z) = 0.56324 0.24476
#
# Static dielectric constant tensor:
#      x y z
#    x 1.790000 0.000000 0.000000 
#    y 0.000000 1.750570 0.000000 
#    z 0.000000 0.000000 1.794380 
# 
# From -- ./inp_files/3790.got.cif
#   From: 2010.05.17/outbox.cif.g08.bks.cpg/sg60_2_cif.got.tgz:3790.got - 2010.06.03 14:59:27.
