data_PCOD9458592
_publ_section_title
;
Structure prediction by ZEFSAII (Michael W. Deem and Ramdas Pophale) SiO2 
 PCOD9458592
Probable space group: P B C N
;
_chemical_formula_sum "Si O2"
_cell_formula_units_Z 60
_cell_length_a 25.275906
_cell_length_b 9.188441
_cell_length_c 11.444693
_cell_angle_alpha 90.000000
_cell_angle_beta 90.000000
_cell_angle_gamma 90.000000
_cell_volume 2657.986128
_symmetry_space_group_name_H-M "P B C N"
_symmetry_group_IT_number 60
_symmetry_cell_setting 'orthorhombic'
loop_
_space_group_symop_operation_xyz
x,y,z
1/2-x,1/2-y,1/2+z
1/2+x,1/2-y,-z
-x,y,1/2-z
-x,-y,-z
1/2+x,1/2+y,1/2-z
1/2-x,1/2+y,z
x,-y,1/2+z
loop_
_atom_site_type_symbol
_atom_site_label
_atom_site_fract_x
_atom_site_fract_y
_atom_site_fract_z
Si Si1 0.441434 0.750945 0.194847
Si Si2 0.500000 0.759972 0.750000
Si Si3 0.698881 0.064371 0.158939
Si Si4 0.725755 0.644798 0.765363
Si Si5 0.898950 0.431348 0.803505
Si Si6 0.183900 0.315213 0.512801
Si Si7 0.637863 0.568625 0.153924
Si Si8 0.549306 0.401909 0.038888
O O1 0.500000 0.756859 0.250000
O O2 0.406411 0.627846 0.257082
O O3 0.410006 0.899429 0.206902
O O4 0.446054 0.719368 0.058731
O O5 0.455862 0.857588 0.689851
O O6 0.467390 0.663174 0.838527
O O7 0.722711 0.956920 0.258908
O O8 0.726759 0.220332 0.173241
O O9 0.638099 0.100570 0.190492
O O10 0.707047 0.962888 0.046026
O O11 0.716628 0.722537 0.890358
O O12 0.678637 0.536908 0.721964
O O13 0.866111 0.373429 0.913183
O O14 0.164910 0.204613 0.411728
O O15 0.604642 0.483710 0.055028
O O16 0.500000 0.500000 0.000000
#
# Coordination Sequence:
#
# PCOD9458592 Si02
#       8
#     8   4   8   8   8   8   8   8
#     4  12  25  43  68 105 141 196 244 295 359 436
#     4  12  26  44  68 102 146 192 244 298 356 434
#     4  11  25  49  72 106 142 183 237 298 363 443
#     4  11  27  48  75 109 140 185 242 303 365 434
#     4  11  26  43  69 102 144 185 242 292 360 430
#     4  11  25  48  75 105 147 191 233 307 366 432
#     4  12  24  47  72 106 146 189 249 296 364 440
#     4  12  24  40  66  99 144 191 238 295 356 428
#
# _framework density 22.573481999999998
#
# number of rings (size 3 to 8) (size 9 to 14) (size 15 to 20)
#    0.000    0.533    3.333    4.800    3.733    4.800 
#    0.000    0.000    0.000    0.000    0.000    0.000 
#    0.000    0.000    0.000    0.000    0.000    0.000 
#
# Total GULP energy -335530.340730 kJ/mol
# GULP energy per Si atom -5592.172345 kJ/mol
# Density = 2.252210 g / cm^3
# Si number density = 22.573482 Si / 1000 Ang^3
#
#
#
# Elastic Constant Matrix: (Units=GPa)
#
#
# Indices 1 2 3 4 5 6 
#
# 1 86.9712 23.3023 5.8426 0.0000 0.0000 0.0000
# 2 23.3023 100.8375 16.9552 0.0000 0.0000 0.0000
# 3 5.8426 16.9552 69.5881 0.0000 0.0000 0.0000
# 4 0.0000 0.0000 0.0000 27.4449 0.0000 0.0000
# 5 0.0000 0.0000 0.0000 0.0000 25.3271 0.0000
# 6 0.0000 0.0000 0.0000 0.0000 0.0000 86.9475
#
#
#
# Elastic Compliance Matrix: (Units=1/GPa)
#
#
# Indices 1 2 3 4 5 6 
#
# 1 0.012265 -0.002775 -0.000354 0.000000 0.000000 0.000000
# 2 -0.002775 0.010968 -0.002439 0.000000 0.000000 0.000000
# 3 -0.000354 -0.002439 0.014994 0.000000 0.000000 0.000000
# 4 0.000000 0.000000 0.000000 0.036437 0.000000 0.000000
# 5 0.000000 0.000000 0.000000 0.000000 0.039483 0.000000
# 6 0.000000 0.000000 0.000000 0.000000 0.000000 0.011501
#
#
# Mechanical properties :
#
#
# Convention : Reuss Voigt Hill
#
# Bulk Modulus (GPa) = 36.91135 38.84409 37.87772
# Shear Modulus (GPa) = 34.28978 42.03033 38.16006
#
# Velocity S-wave (km/s) = 3.90170 4.31969 4.11601
# Velocity P-wave (km/s) = 6.05680 6.49037 6.27733
#
# Compressibility (1/GPa) = 0.02709193
#
# Stress axis : x y z
#
# Youngs Moduli (GPa) = 81.53083 91.17123 66.69178
#
# Poissons Ratio (x) = 0.25299 0.02359
# Poissons Ratio (y) = 0.22624 0.16269
# Poissons Ratio (z) = 0.02884 0.22241
#
# Static dielectric constant tensor:
#      x y z
#    x -0.440310 0.000000 0.000000 
#    y 0.000000 5.151080 0.000000 
#    z 0.000000 0.000000 1.862840 
# 
# From -- ./inp_files/13273.got.cif
#   From: 2010.05.17/outbox.cif.g08.bks.cpg/sg60_7_cif.got.tgz:13273.got - 2010.06.03 14:59:27.
