data_PCOD9458971
_publ_section_title
;
Structure prediction by ZEFSAII (Michael W. Deem and Ramdas Pophale) SiO2 
 PCOD9458971
Probable space group: P B C A
;
_chemical_formula_sum "Si O2"
_cell_formula_units_Z 64
_cell_length_a 32.731399
_cell_length_b 14.674566
_cell_length_c 5.433634
_cell_angle_alpha 90.000000
_cell_angle_beta 90.000000
_cell_angle_gamma 90.000000
_cell_volume 2609.878056
_symmetry_space_group_name_H-M "P B C A"
_symmetry_group_IT_number 61
_symmetry_cell_setting 'orthorhombic'
loop_
_space_group_symop_operation_xyz
x,y,z
1/2-x,-y,1/2+z
1/2+x,1/2-y,-z
-x,1/2+y,1/2-z
-x,-y,-z
1/2+x,y,1/2-z
1/2-x,1/2+y,z
x,1/2-y,1/2+z
loop_
_atom_site_type_symbol
_atom_site_label
_atom_site_fract_x
_atom_site_fract_y
_atom_site_fract_z
Si Si1 0.388315 0.251561 0.572663
Si Si2 0.243230 0.810619 0.705993
Si Si3 0.833121 0.431386 0.869437
Si Si4 0.540256 0.921045 0.249035
Si Si5 0.495534 0.113039 0.255284
Si Si6 0.134678 0.950398 0.129221
Si Si7 0.583142 0.300141 0.676705
Si Si8 0.835246 0.691701 0.328899
O O1 0.412340 0.252251 0.322630
O O2 0.361298 0.341496 0.590332
O O3 0.360291 0.160790 0.584113
O O4 0.237635 0.747029 0.460437
O O5 0.211355 0.892979 0.690402
O O6 0.289812 0.846498 0.698525
O O7 0.851290 0.487054 0.637564
O O8 0.837882 0.476293 0.136859
O O9 0.523987 0.864386 0.481652
O O10 0.586388 0.953278 0.309056
O O11 0.510414 0.008172 0.254673
O O12 0.534539 0.881108 0.976925
O O13 0.537790 0.164655 0.215070
O O14 0.586679 0.279318 0.385950
O O15 0.622070 0.359954 0.769854
O O16 0.836849 0.733452 0.604578
#
# Coordination Sequence:
#
# PCOD9458971 Si02
#       8
#     8   8   8   8   8   8   8   8
#     4   8  14  23  34  52  80 115 145 177 218 259
#     4  10  16  25  41  64  95 131 167 196 237 292
#     4  10  17  26  41  63  94 130 159 191 236 284
#     4  10  21  37  55  74  97 130 177 212 241 289
#     4  10  21  38  57  75  98 130 167 214 253 299
#     4  10  18  29  43  62  89 122 161 199 232 276
#     4  10  19  35  55  79 106 128 158 204 267 314
#     4   8  16  27  44  69  97 126 158 201 244 299
#
# _framework density 24.522216
#
# number of rings (size 3 to 8) (size 9 to 14) (size 15 to 20)
#    0.000    2.500    0.000    4.500    0.000    0.000 
#    0.000   11.250    0.000    0.000    0.000    1.750 
#    0.000    0.000    0.000    0.000    0.000    0.000 
#
# Total GULP energy -356924.971202 kJ/mol
# GULP energy per Si atom -5576.952675 kJ/mol
# Density = 2.446640 g / cm^3
# Si number density = 24.522216 Si / 1000 Ang^3
#
#
#
# Elastic Constant Matrix: (Units=GPa)
#
#
# Indices 1 2 3 4 5 6 
#
# 1 120.8421 25.2174 54.1039 0.0000 0.0000 0.0000
# 2 25.2174 20.0658 22.7084 0.0000 0.0000 0.0000
# 3 54.1039 22.7084 225.3684 0.0000 0.0000 0.0000
# 4 0.0000 0.0000 0.0000 9.8306 0.0000 0.0000
# 5 0.0000 0.0000 0.0000 0.0000 25.2371 0.0000
# 6 0.0000 0.0000 0.0000 0.0000 0.0000 -199.3182
#
#
#
# Elastic Compliance Matrix: (Units=1/GPa)
#
#
# Indices 1 2 3 4 5 6 
#
# 1 0.011645 -0.012947 -0.001491 0.000000 0.000000 0.000000
# 2 -0.012947 0.070645 -0.004010 0.000000 0.000000 0.000000
# 3 -0.001491 -0.004010 0.005199 0.000000 0.000000 0.000000
# 4 0.000000 0.000000 0.000000 0.101723 0.000000 0.000000
# 5 0.000000 0.000000 0.000000 0.000000 0.039624 0.000000
# 6 0.000000 0.000000 0.000000 0.000000 0.000000 -0.005017
#
#
# Mechanical properties :
#
#
# Convention : Reuss Voigt Hill
#
# Bulk Modulus (GPa) = 19.76566 63.37064 41.56815
# Shear Modulus (GPa) = 18.01293 -15.23365 1.38964
#
# Velocity S-wave (km/s) = 2.71321 -2.49513 0.75360
# Velocity P-wave (km/s) = 4.23003 4.19492 4.21251
#
# Compressibility (1/GPa) = 0.05059278
#
# Stress axis : x y z
#
# Youngs Moduli (GPa) = 85.87731 14.15533 192.33809
#
# Poissons Ratio (x) = 0.18327 0.28677
# Poissons Ratio (y) = 1.11183 0.77131
# Poissons Ratio (z) = 0.12804 0.05677
#
# Static dielectric constant tensor:
#      x y z
#    x 1.929870 0.000000 0.000000 
#    y 0.000000 2.121380 0.000000 
#    z 0.000000 0.000000 1.999790 
# 
# From -- ./inp_files/1505.got.cif
#   From: 2010.05.17/outbox.cif.g08.bks.cpg/sg61_1_cif.got.tgz:1505.got - 2010.06.03 15:17:17.
