data_PCOD9458599
_publ_section_title
;
Structure prediction by ZEFSAII (Michael W. Deem and Ramdas Pophale) SiO2 
 PCOD9458599
Probable space group: P B C N
;
_chemical_formula_sum "Si O2"
_cell_formula_units_Z 32
_cell_length_a 8.606732
_cell_length_b 14.394386
_cell_length_c 10.513071
_cell_angle_alpha 90.000000
_cell_angle_beta 90.000000
_cell_angle_gamma 90.000000
_cell_volume 1302.449886
_symmetry_space_group_name_H-M "P B C N"
_symmetry_group_IT_number 60
_symmetry_cell_setting 'orthorhombic'
loop_
_space_group_symop_operation_xyz
x,y,z
1/2-x,1/2-y,1/2+z
1/2+x,1/2-y,-z
-x,y,1/2-z
-x,-y,-z
1/2+x,1/2+y,1/2-z
1/2-x,1/2+y,z
x,-y,1/2+z
loop_
_atom_site_type_symbol
_atom_site_label
_atom_site_fract_x
_atom_site_fract_y
_atom_site_fract_z
Si Si1 0.924770 0.146798 0.614396
Si Si2 0.332484 0.549713 0.275559
Si Si3 0.261504 0.688879 0.471518
Si Si4 0.908649 0.454508 0.382819
O O1 0.780189 0.207703 0.567872
O O2 0.000000 0.177003 0.750000
O O3 0.065417 0.165630 0.517644
O O4 0.870720 0.041470 0.639381
O O5 0.500000 0.592761 0.250000
O O6 0.230828 0.623640 0.349719
O O7 0.246193 0.513424 0.150601
O O8 0.147419 0.648181 0.579109
O O9 0.000000 0.453905 0.250000
O O10 0.000000 0.500000 0.500000
#
# Coordination Sequence:
#
# PCOD9458599 Si02
#       4
#     8   8   8   8
#     4  11  27  47  71 109 152 195 256 311 383 457
#     4  11  25  52  76 106 154 205 249 310 387 461
#     4  12  27  47  77 107 151 198 252 316 380 452
#     4  12  26  45  77 114 148 194 257 309 374 458
#
# _framework density 24.569082999999999
#
# number of rings (size 3 to 8) (size 9 to 14) (size 15 to 20)
#    0.000    0.500    7.500    0.750    7.000    2.000 
#    0.000    0.000    0.000    0.000    0.000    0.000 
#    0.000    0.000    0.000    0.000    0.000    0.000 
#
# Total GULP energy -179235.847805 kJ/mol
# GULP energy per Si atom -5601.120244 kJ/mol
# Density = 2.451316 g / cm^3
# Si number density = 24.569083 Si / 1000 Ang^3
#
#
#
# Elastic Constant Matrix: (Units=GPa)
#
#
# Indices 1 2 3 4 5 6 
#
# 1 71.5846 3.9533 20.9143 0.0000 0.0000 0.0000
# 2 3.9533 56.9508 19.2773 0.0000 0.0000 0.0000
# 3 20.9143 19.2773 113.8770 0.0000 0.0000 0.0000
# 4 0.0000 0.0000 0.0000 16.3805 0.0000 0.0000
# 5 0.0000 0.0000 0.0000 0.0000 61.6678 0.0000
# 6 0.0000 0.0000 0.0000 0.0000 0.0000 34.4025
#
#
#
# Elastic Compliance Matrix: (Units=1/GPa)
#
#
# Indices 1 2 3 4 5 6 
#
# 1 0.014762 -0.000114 -0.002692 0.000000 0.000000 0.000000
# 2 -0.000114 0.018627 -0.003132 0.000000 0.000000 0.000000
# 3 -0.002692 -0.003132 0.009806 0.000000 0.000000 0.000000
# 4 0.000000 0.000000 0.000000 0.061048 0.000000 0.000000
# 5 0.000000 0.000000 0.000000 0.000000 0.016216 0.000000
# 6 0.000000 0.000000 0.000000 0.000000 0.000000 0.029068
#
#
# Mechanical properties :
#
#
# Convention : Reuss Voigt Hill
#
# Bulk Modulus (GPa) = 31.92879 36.74470 34.33675
# Shear Modulus (GPa) = 29.09633 35.70799 32.40216
#
# Velocity S-wave (km/s) = 3.44505 3.81645 3.63549
# Velocity P-wave (km/s) = 5.37105 5.86587 5.62391
#
# Compressibility (1/GPa) = 0.03131969
#
# Stress axis : x y z
#
# Youngs Moduli (GPa) = 67.74037 53.68501 101.97777
#
# Poissons Ratio (x) = 0.00610 0.27452
# Poissons Ratio (y) = 0.00769 0.31943
# Poissons Ratio (z) = 0.18236 0.16816
#
# Static dielectric constant tensor:
#      x y z
#    x 2.017290 0.000000 0.000000 
#    y 0.000000 1.889100 0.000000 
#    z 0.000000 0.000000 1.994710 
# 
# From -- ./inp_files/9495.got.cif
#   From: 2010.05.17/outbox.cif.g08.bks.cpg/sg60_5_cif.got.tgz:9495.got - 2010.06.03 14:59:27.
