data_PCOD9458630
_publ_section_title
;
Structure prediction by ZEFSAII (Michael W. Deem and Ramdas Pophale) SiO2 
 PCOD9458630
Probable space group: P B C N
;
_chemical_formula_sum "Si O2"
_cell_formula_units_Z 64
_cell_length_a 12.259928
_cell_length_b 9.033105
_cell_length_c 27.129311
_cell_angle_alpha 90.000000
_cell_angle_beta 90.000000
_cell_angle_gamma 90.000000
_cell_volume 3004.441431
_symmetry_space_group_name_H-M "P B C N"
_symmetry_group_IT_number 60
_symmetry_cell_setting 'orthorhombic'
loop_
_space_group_symop_operation_xyz
x,y,z
1/2-x,1/2-y,1/2+z
1/2+x,1/2-y,-z
-x,y,1/2-z
-x,-y,-z
1/2+x,1/2+y,1/2-z
1/2-x,1/2+y,z
x,-y,1/2+z
loop_
_atom_site_type_symbol
_atom_site_label
_atom_site_fract_x
_atom_site_fract_y
_atom_site_fract_z
Si Si1 0.397083 0.390333 0.497962
Si Si2 0.756773 0.256407 0.351330
Si Si3 0.975182 0.263652 0.807445
Si Si4 0.868253 0.896552 0.115720
Si Si5 0.522254 0.095527 0.952326
Si Si6 0.360739 0.248392 0.879776
Si Si7 0.475989 0.109855 0.692862
Si Si8 0.753848 0.500819 0.920140
O O1 0.500000 0.500000 0.500000
O O2 0.383411 0.347453 0.441113
O O3 0.421381 0.246155 0.529947
O O4 0.295444 0.464696 0.526570
O O5 0.654068 0.247578 0.316011
O O6 0.855451 0.341180 0.324755
O O7 0.718970 0.338495 0.401500
O O8 0.789734 0.100592 0.375349
O O9 0.001396 0.437008 0.817703
O O10 0.000000 0.230631 0.750000
O O11 0.039593 0.160158 0.846290
O O12 0.756319 0.819282 0.132110
O O13 0.858404 0.075204 0.112116
O O14 0.415163 0.151442 0.923894
O O15 0.614270 0.006615 0.921649
O O16 0.500000 0.000000 0.000000
O O17 0.442940 0.215923 0.835897
O O18 0.500000 0.130096 0.750000
#
# Coordination Sequence:
#
# PCOD9458630 Si02
#       8
#     8   8   8   8   8   8   8   8
#     4  12  26  44  69 105 144 189 242 294 357 431
#     4  12  24  46  76 106 139 190 242 304 359 438
#     4  11  27  50  76 109 143 188 244 305 373 432
#     4  12  29  46  75 105 150 189 241 303 360 446
#     4  12  27  44  70 101 143 194 245 294 360 434
#     4  12  26  50  69 106 145 192 239 295 371 428
#     4  11  26  49  76 106 145 187 239 307 372 438
#     4  12  25  44  71 104 143 187 244 294 359 433
#
# _framework density 21.301796
#
# number of rings (size 3 to 8) (size 9 to 14) (size 15 to 20)
#    0.000    0.250    5.000    2.250   12.250    0.500 
#    0.000    0.000    0.000    0.000    0.000    0.000 
#    0.000    0.000    0.000    0.000    0.000    0.000 
#
# Total GULP energy -357658.535473 kJ/mol
# GULP energy per Si atom -5588.414617 kJ/mol
# Density = 2.125331 g / cm^3
# Si number density = 21.301796 Si / 1000 Ang^3
#
#
#
# Elastic Constant Matrix: (Units=GPa)
#
#
# Indices 1 2 3 4 5 6 
#
# 1 87.6662 22.3690 34.0090 0.0000 0.0000 0.0000
# 2 22.3690 52.4192 7.9499 0.0000 0.0000 0.0000
# 3 34.0090 7.9499 103.7420 0.0000 0.0000 0.0000
# 4 0.0000 0.0000 0.0000 29.2408 0.0000 0.0000
# 5 0.0000 0.0000 0.0000 0.0000 38.5724 0.0000
# 6 0.0000 0.0000 0.0000 0.0000 0.0000 31.8183
#
#
#
# Elastic Compliance Matrix: (Units=1/GPa)
#
#
# Indices 1 2 3 4 5 6 
#
# 1 0.014497 -0.005530 -0.004329 0.000000 0.000000 0.000000
# 2 -0.005530 0.021411 0.000172 0.000000 0.000000 0.000000
# 3 -0.004329 0.000172 0.011045 0.000000 0.000000 0.000000
# 4 0.000000 0.000000 0.000000 0.034199 0.000000 0.000000
# 5 0.000000 0.000000 0.000000 0.000000 0.025925 0.000000
# 6 0.000000 0.000000 0.000000 0.000000 0.000000 0.031428
#
#
# Mechanical properties :
#
#
# Convention : Reuss Voigt Hill
#
# Bulk Modulus (GPa) = 36.25827 41.38703 38.82265
# Shear Modulus (GPa) = 29.92721 31.89294 30.91007
#
# Velocity S-wave (km/s) = 3.75229 3.87356 3.81340
# Velocity P-wave (km/s) = 5.98590 6.28307 6.13629
#
# Compressibility (1/GPa) = 0.02757992
#
# Stress axis : x y z
#
# Youngs Moduli (GPa) = 68.97874 46.70563 90.53723
#
# Poissons Ratio (x) = 0.25828 0.39191
# Poissons Ratio (y) = 0.38145 -0.01558
# Poissons Ratio (z) = 0.29859 -0.00804
#
# Static dielectric constant tensor:
#      x y z
#    x 1.770540 0.000000 0.000000 
#    y 0.000000 1.288880 0.000000 
#    z 0.000000 0.000000 1.781340 
# 
# From -- ./inp_files/26104.got.cif
#   From: 2010.05.17/outbox.cif.g08.bks.cpg/sg60_14_cif.got.tgz:26104.got - 2010.06.03 14:59:27.
