data_PCOD9458575
_publ_section_title
;
Structure prediction by ZEFSAII (Michael W. Deem and Ramdas Pophale) SiO2 
 PCOD9458575
Probable space group: P B C N
;
_chemical_formula_sum "Si O2"
_cell_formula_units_Z 40
_cell_length_a 9.116477
_cell_length_b 10.715251
_cell_length_c 15.030240
_cell_angle_alpha 90.000000
_cell_angle_beta 90.000000
_cell_angle_gamma 90.000000
_cell_volume 1468.234094
_symmetry_space_group_name_H-M "P B C N"
_symmetry_group_IT_number 60
_symmetry_cell_setting 'orthorhombic'
loop_
_space_group_symop_operation_xyz
x,y,z
1/2-x,1/2-y,1/2+z
1/2+x,1/2-y,-z
-x,y,1/2-z
-x,-y,-z
1/2+x,1/2+y,1/2-z
1/2-x,1/2+y,z
x,-y,1/2+z
loop_
_atom_site_type_symbol
_atom_site_label
_atom_site_fract_x
_atom_site_fract_y
_atom_site_fract_z
Si Si1 0.308660 0.437909 0.446972
Si Si2 0.192425 0.915417 0.129655
Si Si3 0.000549 0.443105 0.142969
Si Si4 0.345982 0.615771 0.283462
Si Si5 0.055528 0.279270 0.873565
O O1 0.326003 0.517182 0.535253
O O2 0.147620 0.405778 0.407006
O O3 0.374825 0.526278 0.368804
O O4 0.384292 0.303950 0.454051
O O5 0.357020 0.863142 0.122757
O O6 0.195493 0.020787 0.205218
O O7 0.075547 0.811203 0.156370
O O8 0.013152 0.586444 0.108505
O O9 0.000000 0.452860 0.250000
O O10 0.500000 0.675383 0.250000
O O11 0.201037 0.693446 0.312943
#
# Coordination Sequence:
#
# PCOD9458575 Si02
#       5
#     8   8   8   8   8
#     4  11  25  48  78 114 162 214 273 336 413 482
#     4  12  25  49  82 112 166 215 267 347 408 489
#     4  11  25  46  72 117 156 208 278 325 396 505
#     4  11  25  47  79 117 160 207 281 328 414 512
#     4  11  26  47  77 108 157 205 264 335 409 475
#
# _framework density 27.24361
#
# number of rings (size 3 to 8) (size 9 to 14) (size 15 to 20)
#    0.000    0.800    6.000    1.200    2.800    4.000 
#    3.600    0.000    0.000    0.000    0.000    0.000 
#    0.000    0.000    0.000    0.000    0.000    0.000 
#
# Total GULP energy -223882.493287 kJ/mol
# GULP energy per Si atom -5597.062332 kJ/mol
# Density = 2.718160 g / cm^3
# Si number density = 27.243610 Si / 1000 Ang^3
#
#
#
# Elastic Constant Matrix: (Units=GPa)
#
#
# Indices 1 2 3 4 5 6 
#
# 1 210.2400 65.8256 17.6472 0.0000 0.0000 0.0000
# 2 65.8256 117.9523 34.2128 0.0000 0.0000 0.0000
# 3 17.6472 34.2128 165.9853 0.0000 0.0000 0.0000
# 4 0.0000 0.0000 0.0000 47.9578 0.0000 0.0000
# 5 0.0000 0.0000 0.0000 0.0000 25.9783 0.0000
# 6 0.0000 0.0000 0.0000 0.0000 0.0000 51.6479
#
#
#
# Elastic Compliance Matrix: (Units=1/GPa)
#
#
# Indices 1 2 3 4 5 6 
#
# 1 0.005764 -0.003232 0.000053 0.000000 0.000000 0.000000
# 2 -0.003232 0.010830 -0.001889 0.000000 0.000000 0.000000
# 3 0.000053 -0.001889 0.006408 0.000000 0.000000 0.000000
# 4 0.000000 0.000000 0.000000 0.020852 0.000000 0.000000
# 5 0.000000 0.000000 0.000000 0.000000 0.038494 0.000000
# 6 0.000000 0.000000 0.000000 0.000000 0.000000 0.019362
#
#
# Mechanical properties :
#
#
# Convention : Reuss Voigt Hill
#
# Bulk Modulus (GPa) = 77.71756 81.06097 79.38926
# Shear Modulus (GPa) = 43.05417 50.21625 46.63521
#
# Velocity S-wave (km/s) = 3.97966 4.29794 4.14186
# Velocity P-wave (km/s) = 7.05023 7.37892 7.21645
#
# Compressibility (1/GPa) = 0.01286711
#
# Stress axis : x y z
#
# Youngs Moduli (GPa) = 173.49137 92.33972 156.04962
#
# Poissons Ratio (x) = 0.29846 -0.00833
# Poissons Ratio (y) = 0.56076 0.29471
# Poissons Ratio (z) = -0.00927 0.17439
#
# Static dielectric constant tensor:
#      x y z
#    x 2.307260 0.000000 0.000000 
#    y 0.000000 2.072640 0.000000 
#    z 0.000000 0.000000 2.084260 
# 
# From -- ./inp_files/15824.got.cif
#   From: 2010.05.17/outbox.cif.g08.bks.cpg/sg60_8_cif.got.tgz:15824.got - 2010.06.03 14:59:27.
