data_PCOD9458166
_publ_section_title
;
Structure prediction by ZEFSAII (Michael W. Deem and Ramdas Pophale) SiO2 
 PCOD9458166
Probable space group: P B C N
;
_chemical_formula_sum "Si O2"
_cell_formula_units_Z 48
_cell_length_a 12.164938
_cell_length_b 10.841808
_cell_length_c 16.188249
_cell_angle_alpha 90.000000
_cell_angle_beta 90.000000
_cell_angle_gamma 90.000000
_cell_volume 2135.066900
_symmetry_space_group_name_H-M "P B C N"
_symmetry_group_IT_number 60
_symmetry_cell_setting 'orthorhombic'
loop_
_space_group_symop_operation_xyz
x,y,z
1/2-x,1/2-y,1/2+z
1/2+x,1/2-y,-z
-x,y,1/2-z
-x,-y,-z
1/2+x,1/2+y,1/2-z
1/2-x,1/2+y,z
x,-y,1/2+z
loop_
_atom_site_type_symbol
_atom_site_label
_atom_site_fract_x
_atom_site_fract_y
_atom_site_fract_z
Si Si1 0.117305 0.643425 0.231183
Si Si2 0.444770 0.207549 0.922516
Si Si3 0.253726 0.667964 0.818915
Si Si4 0.602108 0.331149 0.410538
Si Si5 0.331173 0.906022 0.143283
Si Si6 0.449071 0.474629 0.840411
O O1 0.183028 0.700125 0.308855
O O2 0.088378 0.762552 0.176794
O O3 0.179330 0.548764 0.171155
O O4 0.000000 0.581515 0.250000
O O5 0.332461 0.146549 0.891693
O O6 0.553014 0.132951 0.895790
O O7 0.437197 0.338819 0.876012
O O8 0.438918 0.240690 0.018533
O O9 0.187614 0.659890 0.732090
O O10 0.342057 0.559378 0.828460
O O11 0.730521 0.366214 0.415282
O O12 0.529756 0.452642 0.402227
O O13 0.500000 0.463606 0.750000
#
# Coordination Sequence:
#
# PCOD9458166 Si02
#       6
#     8   8   8   8   8   8
#     4  11  21  43  71  93 135 177 236 279 336 410
#     4  12  28  41  70 103 142 171 229 284 343 409
#     4  11  22  43  69 103 129 179 232 280 333 399
#     4  11  26  43  65 101 137 186 215 287 345 402
#     4  11  25  42  68 101 133 180 232 280 334 397
#     4  12  22  47  71  95 132 183 230 269 340 407
#
# _framework density 22.481732000000001
#
# number of rings (size 3 to 8) (size 9 to 14) (size 15 to 20)
#    0.000    0.667    5.000    4.000    7.000    2.000 
#    0.000    0.000    0.000    0.000    0.000    0.000 
#    0.000    0.000    0.000    0.000    0.000    0.000 
#
# Total GULP energy -268321.644146 kJ/mol
# GULP energy per Si atom -5590.034253 kJ/mol
# Density = 2.243056 g / cm^3
# Si number density = 22.481732 Si / 1000 Ang^3
#
#
#
# Elastic Constant Matrix: (Units=GPa)
#
#
# Indices 1 2 3 4 5 6 
#
# 1 103.3093 12.1044 11.9608 0.0000 0.0000 0.0000
# 2 12.1044 59.1826 -16.2955 0.0000 0.0000 0.0000
# 3 11.9608 -16.2955 41.3386 0.0000 0.0000 0.0000
# 4 0.0000 0.0000 0.0000 19.5885 0.0000 0.0000
# 5 0.0000 0.0000 0.0000 0.0000 8.6397 0.0000
# 6 0.0000 0.0000 0.0000 0.0000 0.0000 18.0330
#
#
#
# Elastic Compliance Matrix: (Units=1/GPa)
#
#
# Indices 1 2 3 4 5 6 
#
# 1 0.010583 -0.003374 -0.004392 0.000000 0.000000 0.000000
# 2 -0.003374 0.020030 0.008872 0.000000 0.000000 0.000000
# 3 -0.004392 0.008872 0.028959 0.000000 0.000000 0.000000
# 4 0.000000 0.000000 0.000000 0.051050 0.000000 0.000000
# 5 0.000000 0.000000 0.000000 0.000000 0.115744 0.000000
# 6 0.000000 0.000000 0.000000 0.000000 0.000000 0.055454
#
#
# Mechanical properties :
#
#
# Convention : Reuss Voigt Hill
#
# Bulk Modulus (GPa) = 16.18566 24.37443 20.28004
# Shear Modulus (GPa) = 16.65538 22.32297 19.48917
#
# Velocity S-wave (km/s) = 2.72479 3.15451 2.94749
# Velocity P-wave (km/s) = 4.13696 4.91257 4.54135
#
# Compressibility (1/GPa) = 0.06178310
#
# Stress axis : x y z
#
# Youngs Moduli (GPa) = 94.48676 49.92582 34.53215
#
# Poissons Ratio (x) = 0.16845 0.15167
# Poissons Ratio (y) = 0.31879 -0.30636
# Poissons Ratio (z) = 0.41500 -0.44293
#
# Static dielectric constant tensor:
#      x y z
#    x 1.894320 0.000000 0.000000 
#    y 0.000000 1.853250 0.000000 
#    z 0.000000 0.000000 1.802620 
# 
# From -- ./inp_files/20010.got.cif
#   From: 2010.05.17/outbox.cif.g08.bks.cpg/sg60_11_cif.got.tgz:20010.got - 2010.06.03 14:59:27.
