data_PCOD9458242
_publ_section_title
;
Structure prediction by ZEFSAII (Michael W. Deem and Ramdas Pophale) SiO2 
 PCOD9458242
Probable space group: P B C N
;
_chemical_formula_sum "Si O2"
_cell_formula_units_Z 36
_cell_length_a 23.576734
_cell_length_b 5.024409
_cell_length_c 13.445744
_cell_angle_alpha 90.000000
_cell_angle_beta 90.000000
_cell_angle_gamma 90.000000
_cell_volume 1592.771466
_symmetry_space_group_name_H-M "P B C N"
_symmetry_group_IT_number 60
_symmetry_cell_setting 'orthorhombic'
loop_
_space_group_symop_operation_xyz
x,y,z
1/2-x,1/2-y,1/2+z
1/2+x,1/2-y,-z
-x,y,1/2-z
-x,-y,-z
1/2+x,1/2+y,1/2-z
1/2-x,1/2+y,z
x,-y,1/2+z
loop_
_atom_site_type_symbol
_atom_site_label
_atom_site_fract_x
_atom_site_fract_y
_atom_site_fract_z
Si Si1 0.434029 0.667112 0.592249
Si Si2 0.000000 0.429525 0.750000
Si Si3 0.621040 0.939357 0.732438
Si Si4 0.789108 0.276466 0.352500
Si Si5 0.388118 0.833000 0.990058
O O1 0.490562 0.745605 0.652528
O O2 0.387398 0.720133 0.680102
O O3 0.428352 0.386031 0.541048
O O4 0.418211 0.886302 0.510582
O O5 0.941041 0.582704 0.739114
O O6 0.625340 0.807915 0.625496
O O7 0.671156 0.136843 0.760143
O O8 0.737732 0.486378 0.352341
O O9 0.829795 0.316635 0.447593
#
# Coordination Sequence:
#
# PCOD9458242 Si02
#       5
#     8   4   8   8   8
#     4   9  22  40  60  99 134 168 217 276 320 412
#     4   8  20  46  62 104 138 178 220 282 344 412
#     4   9  22  43  66 100 133 179 219 280 345 403
#     4  11  24  43  65  92 131 168 224 283 326 396
#     4  11  22  41  67  93 131 174 227 268 343 399
#
# _framework density 22.602112999999999
#
# number of rings (size 3 to 8) (size 9 to 14) (size 15 to 20)
#    1.333    0.889    0.000    2.667    0.000    9.778 
#    0.000    0.000    0.000    0.000    0.000    0.000 
#    0.000    0.000    0.000    0.000    0.000    0.000 
#
# Total GULP energy -200958.409006 kJ/mol
# GULP energy per Si atom -5582.178028 kJ/mol
# Density = 2.255067 g / cm^3
# Si number density = 22.602113 Si / 1000 Ang^3
#
#
#
# Elastic Constant Matrix: (Units=GPa)
#
#
# Indices 1 2 3 4 5 6 
#
# 1 88.9622 4.7057 -11.5552 0.0000 0.0000 0.0000
# 2 4.7057 40.3726 14.9763 0.0000 0.0000 0.0000
# 3 -11.5552 14.9763 119.4282 0.0000 0.0000 0.0000
# 4 0.0000 0.0000 0.0000 11.2992 0.0000 0.0000
# 5 0.0000 0.0000 0.0000 0.0000 15.5111 0.0000
# 6 0.0000 0.0000 0.0000 0.0000 0.0000 24.4073
#
#
#
# Elastic Compliance Matrix: (Units=1/GPa)
#
#
# Indices 1 2 3 4 5 6 
#
# 1 0.011513 -0.001841 0.001345 0.000000 0.000000 0.000000
# 2 -0.001841 0.026272 -0.003473 0.000000 0.000000 0.000000
# 3 0.001345 -0.003473 0.008939 0.000000 0.000000 0.000000
# 4 0.000000 0.000000 0.000000 0.088502 0.000000 0.000000
# 5 0.000000 0.000000 0.000000 0.000000 0.064470 0.000000
# 6 0.000000 0.000000 0.000000 0.000000 0.000000 0.040971
#
#
# Mechanical properties :
#
#
# Convention : Reuss Voigt Hill
#
# Bulk Modulus (GPa) = 25.78226 29.44629 27.61428
# Shear Modulus (GPa) = 19.11806 26.28593 22.70200
#
# Velocity S-wave (km/s) = 2.91151 3.41396 3.17270
# Velocity P-wave (km/s) = 4.76805 5.34757 5.06610
#
# Compressibility (1/GPa) = 0.03878636
#
# Stress axis : x y z
#
# Youngs Moduli (GPa) = 86.86016 38.06338 111.87179
#
# Poissons Ratio (x) = 0.07006 -0.15044
# Poissons Ratio (y) = 0.15989 0.38849
# Poissons Ratio (z) = -0.11680 0.13218
#
# Static dielectric constant tensor:
#      x y z
#    x 1.894630 0.000000 0.000000 
#    y 0.000000 1.829200 0.000000 
#    z 0.000000 0.000000 1.837380 
# 
# From -- ./inp_files/17810.got.cif
#   From: 2010.05.17/outbox.cif.g08.bks.cpg/sg60_9_cif.got.tgz:17810.got - 2010.06.03 14:59:27.
