data_PCOD9458932
_publ_section_title
;
Structure prediction by ZEFSAII (Michael W. Deem and Ramdas Pophale) SiO2 
 PCOD9458932
Probable space group: P B C N
;
_chemical_formula_sum "Si O2"
_cell_formula_units_Z 64
_cell_length_a 9.000000
_cell_length_b 15.000000
_cell_length_c 24.000000
_cell_angle_alpha 90.000000
_cell_angle_beta 90.000000
_cell_angle_gamma 90.000000
_cell_volume 3240.000000
_symmetry_space_group_name_H-M "P B C N"
_symmetry_group_IT_number 60
_symmetry_cell_setting 'orthorhombic'
loop_
_space_group_symop_operation_xyz
x,y,z
1/2-x,1/2-y,1/2+z
1/2+x,1/2-y,-z
-x,y,1/2-z
-x,-y,-z
1/2+x,1/2+y,1/2-z
1/2-x,1/2+y,z
x,-y,1/2+z
loop_
_atom_site_type_symbol
_atom_site_label
_atom_site_fract_x
_atom_site_fract_y
_atom_site_fract_z
Si Si1 0.183338 0.492241 0.329628
Si Si2 0.126520 0.571406 0.632405
Si Si3 0.150372 0.263929 0.061250
Si Si4 0.912107 0.004970 0.083635
Si Si5 0.183554 0.087658 0.134819
Si Si6 0.820114 0.341847 0.256053
Si Si7 0.055469 0.851922 0.013866
Si Si8 0.821507 0.649760 0.249475
O O1 0.255639 0.486040 0.389401
O O2 0.234336 0.414227 0.288355
O O3 0.216342 0.586557 0.302050
O O4 0.009316 0.476600 0.337264
O O5 0.076666 0.651433 0.592320
O O6 0.220546 0.491268 0.605680
O O7 0.214422 0.621019 0.682249
O O8 0.182005 0.181734 0.103044
O O9 0.302511 0.303443 0.038247
O O10 0.052567 0.221434 0.012613
O O11 0.018843 0.047257 0.130917
O O12 0.904251 0.078292 0.035121
O O13 0.978179 0.913750 0.059827
O O14 0.252041 0.104481 0.195326
O O15 0.747113 0.247243 0.245625
O O16 0.000000 0.332817 0.250000
O O17 0.000000 0.654667 0.250000
#
# Coordination Sequence:
#
# PCOD9458932 Si02
#       8
#     8   8   8   8   8   8   8   8
#     4  11  24  40  64  95 130 167 208 262 307 384
#     4  11  21  43  64  91 132 170 203 258 327 379
#     4  11  24  42  70  91 125 169 213 270 326 384
#     4  10  24  44  65  88 129 167 217 271 317 375
#     4  11  22  41  66  91 125 175 204 254 334 378
#     4  10  23  40  61  91 131 169 206 250 312 383
#     4  10  24  45  63  94 124 163 221 275 318 374
#     4  12  23  40  61  96 134 162 211 256 307 390
#
# _framework density 19.753086
#
# number of rings (size 3 to 8) (size 9 to 14) (size 15 to 20)
#    0.000    1.250    5.000    0.375    3.500    4.000 
#    0.000    1.250    0.000    0.000    0.000    0.000 
#    0.000    0.000    0.000    0.000    0.000    0.000 
#
# Total GULP energy -357171.687731 kJ/mol
# GULP energy per Si atom -5580.807621 kJ/mol
# Density = 1.970813 g / cm^3
# Si number density = 19.753086 Si / 1000 Ang^3
#
#
#
# Elastic Constant Matrix: (Units=GPa)
#
#
# Indices 1 2 3 4 5 6 
#
# 1 1.1493 27.9454 26.3919 0.0000 0.0000 0.0000
# 2 27.9454 17.3698 -45.2323 0.0000 0.0000 0.0000
# 3 26.3919 -45.2323 -19.6021 0.0000 0.0000 0.0000
# 4 0.0000 0.0000 0.0000 10.6044 0.0000 0.0000
# 5 0.0000 0.0000 0.0000 0.0000 33.6090 0.0000
# 6 0.0000 0.0000 0.0000 0.0000 0.0000 30.6279
#
#
#
# Elastic Compliance Matrix: (Units=1/GPa)
#
#
# Indices 1 2 3 4 5 6 
#
# 1 0.036020 0.009750 0.025998 0.000000 0.000000 0.000000
# 2 0.009750 0.010853 -0.011917 0.000000 0.000000 0.000000
# 3 0.025998 -0.011917 0.011486 0.000000 0.000000 0.000000
# 4 0.000000 0.000000 0.000000 0.094300 0.000000 0.000000
# 5 0.000000 0.000000 0.000000 0.000000 0.029754 0.000000
# 6 0.000000 0.000000 0.000000 0.000000 0.000000 0.032650
#
#
# Mechanical properties :
#
#
# Convention : Reuss Voigt Hill
#
# Bulk Modulus (GPa) = 9.43208 1.90302 5.66755
# Shear Modulus (GPa) = 24.66202 14.28906 19.47554
#
# Velocity S-wave (km/s) = 3.53727 2.69250 3.14339
# Velocity P-wave (km/s) = 4.63340 3.26061 4.00624
#
# Compressibility (1/GPa) = 0.10602118
#
# Stress axis : x y z
#
# Youngs Moduli (GPa) = 27.76262 92.13920 87.06360
#
# Poissons Ratio (x) = -0.89836 -2.26346
# Poissons Ratio (y) = -0.27069 1.03750
# Poissons Ratio (z) = -0.72177 1.09799
#
# Static dielectric constant tensor:
#      x y z
#    x 1.695660 0.000000 0.000000 
#    y 0.000000 1.761330 0.000000 
#    z 0.000000 0.000000 1.724580 
# 
# From -- ./inp_files/24062.got.cif
#   From: 2010.05.17/outbox.ucp.g08.bks.cvg/sg60_13_cif.got.tgz:24062.got - 2010.06.11 16:26:41.
