data_PCOD9458425
_publ_section_title
;
Structure prediction by ZEFSAII (Michael W. Deem and Ramdas Pophale) SiO2 
 PCOD9458425
Probable space group: P B C N
;
_chemical_formula_sum "Si O2"
_cell_formula_units_Z 48
_cell_length_a 13.350562
_cell_length_b 7.739606
_cell_length_c 17.088504
_cell_angle_alpha 90.000000
_cell_angle_beta 90.000000
_cell_angle_gamma 90.000000
_cell_volume 1765.722475
_symmetry_space_group_name_H-M "P B C N"
_symmetry_group_IT_number 60
_symmetry_cell_setting 'orthorhombic'
loop_
_space_group_symop_operation_xyz
x,y,z
1/2-x,1/2-y,1/2+z
1/2+x,1/2-y,-z
-x,y,1/2-z
-x,-y,-z
1/2+x,1/2+y,1/2-z
1/2-x,1/2+y,z
x,-y,1/2+z
loop_
_atom_site_type_symbol
_atom_site_label
_atom_site_fract_x
_atom_site_fract_y
_atom_site_fract_z
Si Si1 0.385199 0.859794 0.770627
Si Si2 0.136148 0.819375 0.997669
Si Si3 0.582019 0.292004 0.959667
Si Si4 0.594415 0.433771 0.798284
Si Si5 0.706091 0.979925 0.891476
Si Si6 0.201474 0.695695 0.829872
O O1 0.500000 0.839086 0.750000
O O2 0.349649 0.933582 0.687821
O O3 0.352230 0.010526 0.830310
O O4 0.318948 0.698546 0.803014
O O5 0.183355 0.781498 0.913231
O O6 0.019635 0.763835 0.007101
O O7 0.193779 0.692035 0.056707
O O8 0.131981 0.029960 0.006801
O O9 0.544200 0.335405 0.871644
O O10 0.648698 0.123121 0.943604
O O11 0.500000 0.505718 0.750000
O O12 0.684910 0.521764 0.849337
O O13 0.650144 0.305175 0.739436
#
# Coordination Sequence:
#
# PCOD9458425 Si02
#       6
#     8   8   8   8   8   8
#     4  11  25  51  80 118 162 221 289 347 425 522
#     4  11  26  49  81 126 170 227 279 357 448 521
#     4  11  24  48  82 120 173 224 287 356 437 533
#     4  11  23  47  84 109 164 234 289 354 435 521
#     4  11  26  48  82 118 168 230 280 360 440 517
#     4  11  24  50  79 117 165 220 282 356 427 516
#
# _framework density 27.184338
#
# number of rings (size 3 to 8) (size 9 to 14) (size 15 to 20)
#    0.000    1.000    3.333    2.000    2.333    2.667 
#   12.000    5.000    0.000    1.000    0.000    0.000 
#    0.000    0.000    0.000    0.000    0.000    0.000 
#
# Total GULP energy -267966.880173 kJ/mol
# GULP energy per Si atom -5582.643337 kJ/mol
# Density = 2.712247 g / cm^3
# Si number density = 27.184338 Si / 1000 Ang^3
#
#
#
# Elastic Constant Matrix: (Units=GPa)
#
#
# Indices 1 2 3 4 5 6 
#
# 1 213.8483 71.6508 -1.9942 0.0000 0.0000 0.0000
# 2 71.6508 131.4469 21.7320 0.0000 0.0000 0.0000
# 3 -1.9942 21.7320 84.1357 0.0000 0.0000 0.0000
# 4 0.0000 0.0000 0.0000 48.2681 0.0000 0.0000
# 5 0.0000 0.0000 0.0000 0.0000 43.2087 0.0000
# 6 0.0000 0.0000 0.0000 0.0000 0.0000 18.5778
#
#
#
# Elastic Compliance Matrix: (Units=1/GPa)
#
#
# Indices 1 2 3 4 5 6 
#
# 1 0.005800 -0.003326 0.000997 0.000000 0.000000 0.000000
# 2 -0.003326 0.009855 -0.002624 0.000000 0.000000 0.000000
# 3 0.000997 -0.002624 0.012587 0.000000 0.000000 0.000000
# 4 0.000000 0.000000 0.000000 0.020718 0.000000 0.000000
# 5 0.000000 0.000000 0.000000 0.000000 0.023144 0.000000
# 6 0.000000 0.000000 0.000000 0.000000 0.000000 0.053828
#
#
# Mechanical properties :
#
#
# Convention : Reuss Voigt Hill
#
# Bulk Modulus (GPa) = 54.54403 68.02312 61.28358
# Shear Modulus (GPa) = 35.22375 44.54707 39.88541
#
# Velocity S-wave (km/s) = 3.60354 4.05248 3.83459
# Velocity P-wave (km/s) = 6.11736 6.85376 6.49600
#
# Compressibility (1/GPa) = 0.01833381
#
# Stress axis : x y z
#
# Youngs Moduli (GPa) = 172.41371 101.47493 79.44694
#
# Poissons Ratio (x) = 0.33754 -0.07918
# Poissons Ratio (y) = 0.57350 0.20849
# Poissons Ratio (z) = -0.17184 0.26630
#
# Static dielectric constant tensor:
#      x y z
#    x 2.186540 0.000000 0.000000 
#    y 0.000000 2.268820 0.000000 
#    z 0.000000 0.000000 1.877690 
# 
# From -- ./inp_files/19992.got.cif
#   From: 2010.05.17/outbox.cif.g08.bks.cpg/sg60_10_cif.got.tgz:19992.got - 2010.06.03 14:59:27.
