data_PCOD9458567
_publ_section_title
;
Structure prediction by ZEFSAII (Michael W. Deem and Ramdas Pophale) SiO2 
 PCOD9458567
Probable space group: P B C N
;
_chemical_formula_sum "Si O2"
_cell_formula_units_Z 40
_cell_length_a 9.399230
_cell_length_b 10.903274
_cell_length_c 15.205649
_cell_angle_alpha 90.000000
_cell_angle_beta 90.000000
_cell_angle_gamma 90.000000
_cell_volume 1558.311100
_symmetry_space_group_name_H-M "P B C N"
_symmetry_group_IT_number 60
_symmetry_cell_setting 'orthorhombic'
loop_
_space_group_symop_operation_xyz
x,y,z
1/2-x,1/2-y,1/2+z
1/2+x,1/2-y,-z
-x,y,1/2-z
-x,-y,-z
1/2+x,1/2+y,1/2-z
1/2-x,1/2+y,z
x,-y,1/2+z
loop_
_atom_site_type_symbol
_atom_site_label
_atom_site_fract_x
_atom_site_fract_y
_atom_site_fract_z
Si Si1 0.502199 0.921687 0.907513
Si Si2 0.059044 0.865480 0.105912
Si Si3 0.473619 0.739320 0.337232
Si Si4 0.310694 0.903022 0.204357
Si Si5 0.316534 0.544118 0.436915
O O1 0.544790 0.779038 0.914116
O O2 0.333124 0.932514 0.889984
O O3 0.606444 0.978342 0.832456
O O4 0.500000 0.000000 0.000000
O O5 0.143445 0.889971 0.196521
O O6 0.165563 0.945505 0.041765
O O7 0.904955 0.926710 0.094283
O O8 0.500000 0.657950 0.250000
O O9 0.373593 0.845640 0.295194
O O10 0.622275 0.799121 0.361956
O O11 0.407285 0.662541 0.411224
#
# Coordination Sequence:
#
# PCOD9458567 Si02
#       5
#     8   8   8   8   8
#     4  12  25  41  73 102 143 185 239 297 363 426
#     4  11  26  41  76 106 139 184 247 298 359 425
#     4   8  22  46  72  91 149 186 226 290 358 420
#     4   9  22  46  67 101 139 188 229 291 355 425
#     4  11  25  45  70 108 141 185 245 301 362 428
#
# _framework density 25.668814999999999
#
# number of rings (size 3 to 8) (size 9 to 14) (size 15 to 20)
#    1.200    0.400    2.000    1.200    8.400    0.000 
#   14.400    0.000    0.000    0.000    0.000    0.000 
#    0.000    0.000    0.000    0.000    0.000    0.000 
#
# Total GULP energy -222810.142285 kJ/mol
# GULP energy per Si atom -5570.253557 kJ/mol
# Density = 2.561039 g / cm^3
# Si number density = 25.668815 Si / 1000 Ang^3
#
#
#
# Elastic Constant Matrix: (Units=GPa)
#
#
# Indices 1 2 3 4 5 6 
#
# 1 112.7066 44.9309 8.9630 0.0000 0.0000 0.0000
# 2 44.9309 154.0788 21.3270 0.0000 0.0000 0.0000
# 3 8.9630 21.3270 37.5496 0.0000 0.0000 0.0000
# 4 0.0000 0.0000 0.0000 7.1695 0.0000 0.0000
# 5 0.0000 0.0000 0.0000 0.0000 37.1813 0.0000
# 6 0.0000 0.0000 0.0000 0.0000 0.0000 35.0004
#
#
#
# Elastic Compliance Matrix: (Units=1/GPa)
#
#
# Indices 1 2 3 4 5 6 
#
# 1 0.010062 -0.002824 -0.000798 0.000000 0.000000 0.000000
# 2 -0.002824 0.007836 -0.003777 0.000000 0.000000 0.000000
# 3 -0.000798 -0.003777 0.028967 0.000000 0.000000 0.000000
# 4 0.000000 0.000000 0.000000 0.139479 0.000000 0.000000
# 5 0.000000 0.000000 0.000000 0.000000 0.026895 0.000000
# 6 0.000000 0.000000 0.000000 0.000000 0.000000 0.028571
#
#
# Mechanical properties :
#
#
# Convention : Reuss Voigt Hill
#
# Bulk Modulus (GPa) = 31.18347 50.53076 40.85712
# Shear Modulus (GPa) = 18.70581 31.14451 24.92516
#
# Velocity S-wave (km/s) = 2.70244 3.48705 3.11951
# Velocity P-wave (km/s) = 4.68106 5.99509 5.37836
#
# Compressibility (1/GPa) = 0.03206827
#
# Stress axis : x y z
#
# Youngs Moduli (GPa) = 99.38666 127.61021 34.52198
#
# Poissons Ratio (x) = 0.36033 0.02755
# Poissons Ratio (y) = 0.28063 0.13038
# Poissons Ratio (z) = 0.07931 0.48196
#
# Static dielectric constant tensor:
#      x y z
#    x 2.231350 0.000000 0.000000 
#    y 0.000000 2.015850 0.000000 
#    z 0.000000 0.000000 2.589790 
# 
# From -- ./inp_files/19017.got.cif
#   From: 2010.05.17/outbox.cif.g08.bks.cpg/sg60_10_cif.got.tgz:19017.got - 2010.06.03 14:59:27.
