data_PCOD9458334
_publ_section_title
;
Structure prediction by ZEFSAII (Michael W. Deem and Ramdas Pophale) SiO2 
 PCOD9458334
Probable space group: P B C N
;
_chemical_formula_sum "Si O2"
_cell_formula_units_Z 40
_cell_length_a 8.796087
_cell_length_b 13.444123
_cell_length_c 13.476914
_cell_angle_alpha 90.000000
_cell_angle_beta 90.000000
_cell_angle_gamma 90.000000
_cell_volume 1593.721569
_symmetry_space_group_name_H-M "P B C N"
_symmetry_group_IT_number 60
_symmetry_cell_setting 'orthorhombic'
loop_
_space_group_symop_operation_xyz
x,y,z
1/2-x,1/2-y,1/2+z
1/2+x,1/2-y,-z
-x,y,1/2-z
-x,-y,-z
1/2+x,1/2+y,1/2-z
1/2-x,1/2+y,z
x,-y,1/2+z
loop_
_atom_site_type_symbol
_atom_site_label
_atom_site_fract_x
_atom_site_fract_y
_atom_site_fract_z
Si Si1 0.361230 0.076914 0.807589
Si Si2 0.161602 0.722689 0.976130
Si Si3 0.323477 0.593245 0.249544
Si Si4 0.848078 0.225603 0.794403
Si Si5 0.558643 0.395443 0.958160
O O1 0.500000 0.026713 0.750000
O O2 0.407826 0.134599 0.907535
O O3 0.294707 0.156212 0.728792
O O4 0.224419 0.998973 0.816550
O O5 0.089256 0.825585 0.933792
O O6 0.134583 0.742833 0.092491
O O7 0.336516 0.681534 0.977265
O O8 0.500000 0.623190 0.250000
O O9 0.197966 0.676599 0.266037
O O10 0.326329 0.571059 0.130543
O O11 0.000000 0.179500 0.750000
O O12 0.500000 0.500000 0.000000
#
# Coordination Sequence:
#
# PCOD9458334 Si02
#       5
#     8   8   8   8   8
#     4  12  24  42  66  96 136 180 235 298 360 434
#     4  11  24  42  69 102 138 188 246 304 368 445
#     4  11  23  41  64  93 131 178 228 286 357 428
#     4  11  23  42  66  97 135 177 230 293 362 434
#     4  11  23  43  68 100 141 187 239 299 369 441
#
# _framework density 25.098486000000001
#
# number of rings (size 3 to 8) (size 9 to 14) (size 15 to 20)
#    0.000    0.800    0.000    9.000    0.000    0.000 
#    0.000   14.000    0.000    0.000    0.000    0.000 
#    0.000    0.000    0.000    0.000    0.000    0.000 
#
# Total GULP energy -222777.968693 kJ/mol
# GULP energy per Si atom -5569.449217 kJ/mol
# Density = 2.504136 g / cm^3
# Si number density = 25.098486 Si / 1000 Ang^3
#
#
#
# Elastic Constant Matrix: (Units=GPa)
#
#
# Indices 1 2 3 4 5 6 
#
# 1 64.6853 27.3395 -0.4643 0.0000 0.0000 0.0000
# 2 27.3395 113.4203 6.8807 0.0000 0.0000 0.0000
# 3 -0.4643 6.8807 58.8104 0.0000 0.0000 0.0000
# 4 0.0000 0.0000 0.0000 30.5449 0.0000 0.0000
# 5 0.0000 0.0000 0.0000 0.0000 37.7464 0.0000
# 6 0.0000 0.0000 0.0000 0.0000 0.0000 46.5877
#
#
#
# Elastic Compliance Matrix: (Units=1/GPa)
#
#
# Indices 1 2 3 4 5 6 
#
# 1 0.017236 -0.004193 0.000627 0.000000 0.000000 0.000000
# 2 -0.004193 0.009900 -0.001191 0.000000 0.000000 0.000000
# 3 0.000627 -0.001191 0.017148 0.000000 0.000000 0.000000
# 4 0.000000 0.000000 0.000000 0.032739 0.000000 0.000000
# 5 0.000000 0.000000 0.000000 0.000000 0.026493 0.000000
# 6 0.000000 0.000000 0.000000 0.000000 0.000000 0.021465
#
#
# Mechanical properties :
#
#
# Convention : Reuss Voigt Hill
#
# Bulk Modulus (GPa) = 28.76128 33.82531 31.29330
# Shear Modulus (GPa) = 34.22678 36.51981 35.37330
#
# Velocity S-wave (km/s) = 3.69684 3.81866 3.75824
# Velocity P-wave (km/s) = 5.45036 5.74014 5.59712
#
# Compressibility (1/GPa) = 0.03476897
#
# Stress axis : x y z
#
# Youngs Moduli (GPa) = 58.01810 101.01356 58.31540
#
# Poissons Ratio (x) = 0.42352 -0.03654
# Poissons Ratio (y) = 0.24325 0.06947
# Poissons Ratio (z) = -0.03635 0.12034
#
# Static dielectric constant tensor:
#      x y z
#    x 1.986420 0.000000 0.000000 
#    y 0.000000 1.985690 0.000000 
#    z 0.000000 0.000000 2.615110 
# 
# From -- ./inp_files/14634.got.cif
#   From: 2010.05.17/outbox.cif.g08.bks.cpg/sg60_8_cif.got.tgz:14634.got - 2010.06.03 14:59:27.
