data_PCOD9458622
_publ_section_title
;
Structure prediction by ZEFSAII (Michael W. Deem and Ramdas Pophale) SiO2 
 PCOD9458622
Probable space group: P B C N
;
_chemical_formula_sum "Si O2"
_cell_formula_units_Z 60
_cell_length_a 11.016620
_cell_length_b 9.157861
_cell_length_c 27.054062
_cell_angle_alpha 90.000000
_cell_angle_beta 90.000000
_cell_angle_gamma 90.000000
_cell_volume 2729.448459
_symmetry_space_group_name_H-M "P B C N"
_symmetry_group_IT_number 60
_symmetry_cell_setting 'orthorhombic'
loop_
_space_group_symop_operation_xyz
x,y,z
1/2-x,1/2-y,1/2+z
1/2+x,1/2-y,-z
-x,y,1/2-z
-x,-y,-z
1/2+x,1/2+y,1/2-z
1/2-x,1/2+y,z
x,-y,1/2+z
loop_
_atom_site_type_symbol
_atom_site_label
_atom_site_fract_x
_atom_site_fract_y
_atom_site_fract_z
Si Si1 0.314553 0.300455 0.884778
Si Si2 0.153382 0.491573 0.444225
Si Si3 0.976441 0.970920 0.828368
Si Si4 0.693810 0.754277 0.281633
Si Si5 0.610649 0.765695 0.696431
Si Si6 0.617490 0.090330 0.443498
Si Si7 0.000000 0.488548 0.250000
Si Si8 0.282252 0.368308 0.112689
O O1 0.354431 0.148939 0.908821
O O2 0.268012 0.413178 0.926491
O O3 0.419059 0.367406 0.850198
O O4 0.197281 0.275206 0.850504
O O5 0.160257 0.435978 0.500375
O O6 0.028362 0.582845 0.441018
O O7 0.035983 0.117119 0.806937
O O8 0.889908 0.020660 0.873270
O O9 0.892089 0.885724 0.789531
O O10 0.803034 0.728596 0.244265
O O11 0.613681 0.885382 0.260034
O O12 0.741113 0.798425 0.335491
O O13 0.525623 0.906442 0.703332
O O14 0.673602 0.958451 0.411557
O O15 0.668028 0.241241 0.422242
#
# Coordination Sequence:
#
# PCOD9458622 Si02
#       8
#     8   8   8   8   8   8   4   8
#     4  12  25  48  73 108 144 192 241 298 365 430
#     4  11  26  48  75 106 144 188 242 304 364 432
#     4  12  26  47  73 104 148 188 241 296 359 432
#     4  12  27  47  70 106 146 191 237 291 352 428
#     4  12  27  47  70 106 146 191 237 291 352 428
#     4  11  26  48  75 106 144 188 242 304 364 432
#     4  12  28  42  72  98 142 190 232 288 342 422
#     4  12  25  48  73 108 144 192 241 298 365 430
#
# _framework density 21.982462999999999
#
# number of rings (size 3 to 8) (size 9 to 14) (size 15 to 20)
#    0.000    0.267    2.667    5.600    5.600    3.733 
#    0.000    1.333    0.000    0.000    0.000    0.000 
#    0.000    0.000    0.000    0.000    0.000    0.000 
#
# Total GULP energy -336477.014894 kJ/mol
# GULP energy per Si atom -5607.950248 kJ/mol
# Density = 2.193243 g / cm^3
# Si number density = 21.982463 Si / 1000 Ang^3
#
#
#
# Elastic Constant Matrix: (Units=GPa)
#
#
# Indices 1 2 3 4 5 6 
#
# 1 49.3472 2.8246 0.4866 0.0000 0.0000 0.0000
# 2 2.8246 71.4439 -7.7589 0.0000 0.0000 0.0000
# 3 0.4866 -7.7589 70.1446 0.0000 0.0000 0.0000
# 4 0.0000 0.0000 0.0000 35.6099 0.0000 0.0000
# 5 0.0000 0.0000 0.0000 0.0000 26.8834 0.0000
# 6 0.0000 0.0000 0.0000 0.0000 0.0000 38.3241
#
#
#
# Elastic Compliance Matrix: (Units=1/GPa)
#
#
# Indices 1 2 3 4 5 6 
#
# 1 0.020314 -0.000828 -0.000233 0.000000 0.000000 0.000000
# 2 -0.000828 0.014201 0.001577 0.000000 0.000000 0.000000
# 3 -0.000233 0.001577 0.014432 0.000000 0.000000 0.000000
# 4 0.000000 0.000000 0.000000 0.028082 0.000000 0.000000
# 5 0.000000 0.000000 0.000000 0.000000 0.037198 0.000000
# 6 0.000000 0.000000 0.000000 0.000000 0.000000 0.026093
#
#
# Mechanical properties :
#
#
# Convention : Reuss Voigt Hill
#
# Bulk Modulus (GPa) = 20.00850 20.22669 20.11760
# Shear Modulus (GPa) = 32.06179 33.18904 32.62541
#
# Velocity S-wave (km/s) = 3.82320 3.88982 3.85665
# Velocity P-wave (km/s) = 5.34892 5.42177 5.38547
#
# Compressibility (1/GPa) = 0.04997875
#
# Stress axis : x y z
#
# Youngs Moduli (GPa) = 49.22643 70.41772 69.28915
#
# Poissons Ratio (x) = 0.05833 0.01611
# Poissons Ratio (y) = 0.04078 -0.10924
# Poissons Ratio (z) = 0.01145 -0.11102
#
# Static dielectric constant tensor:
#      x y z
#    x 1.802010 0.000000 0.000000 
#    y 0.000000 1.783810 0.000000 
#    z 0.000000 0.000000 1.783810 
# 
# From -- ./inp_files/25352.got.cif
#   From: 2010.05.17/outbox.cif.g08.bks.cpg/sg60_13_cif.got.tgz:25352.got - 2010.06.03 14:59:27.
