data_PCOD9458858
_publ_section_title
;
Structure prediction by ZEFSAII (Michael W. Deem and Ramdas Pophale) SiO2 
 PCOD9458858
Probable space group: P B C N
;
_chemical_formula_sum "Si O2"
_cell_formula_units_Z 24
_cell_length_a 6.536478
_cell_length_b 7.156303
_cell_length_c 21.184064
_cell_angle_alpha 90.000000
_cell_angle_beta 90.000000
_cell_angle_gamma 90.000000
_cell_volume 990.927324
_symmetry_space_group_name_H-M "P B C N"
_symmetry_group_IT_number 60
_symmetry_cell_setting 'orthorhombic'
loop_
_space_group_symop_operation_xyz
x,y,z
1/2-x,1/2-y,1/2+z
1/2+x,1/2-y,-z
-x,y,1/2-z
-x,-y,-z
1/2+x,1/2+y,1/2-z
1/2-x,1/2+y,z
x,-y,1/2+z
loop_
_atom_site_type_symbol
_atom_site_label
_atom_site_fract_x
_atom_site_fract_y
_atom_site_fract_z
Si Si1 0.039075 0.903572 0.566066
Si Si2 0.439670 0.967061 0.120722
Si Si3 0.040900 0.164121 0.678694
O O1 0.285959 0.914881 0.575452
O O2 0.958539 0.027213 0.624527
O O3 0.000000 0.000000 0.500000
O O4 0.962851 0.692970 0.577536
O O5 0.286995 0.851834 0.167457
O O6 0.538506 0.128049 0.162797
O O7 0.000000 0.110665 0.750000
#
# Coordination Sequence:
#
# PCOD9458858 Si02
#       3
#     8   8   8
#     4   9  17  33  53  71  97 135 163 199 251 292
#     4   8  18  34  50  68 101 129 159 210 246 280
#     4   9  17  33  52  70  98 134 164 200 252 292
#
# _framework density 24.219736000000001
#
# number of rings (size 3 to 8) (size 9 to 14) (size 15 to 20)
#    2.000    1.333    0.000    0.000    0.000    2.667 
#    0.000    3.333    0.000    0.000    0.000    0.000 
#    0.000    0.000    0.000    0.000    0.000    0.000 
#
# Total GULP energy -133623.759627 kJ/mol
# GULP energy per Si atom -5567.656651 kJ/mol
# Density = 2.416461 g / cm^3
# Si number density = 24.219736 Si / 1000 Ang^3
#
#
#
# Elastic Constant Matrix: (Units=GPa)
#
#
# Indices 1 2 3 4 5 6 
#
# 1 24.5438 -3.6508 8.1516 0.0000 0.0000 0.0000
# 2 -3.6508 132.5551 34.2488 0.0000 0.0000 0.0000
# 3 8.1516 34.2488 168.2899 0.0000 0.0000 0.0000
# 4 0.0000 0.0000 0.0000 38.4828 0.0000 0.0000
# 5 0.0000 0.0000 0.0000 0.0000 18.9415 0.0000
# 6 0.0000 0.0000 0.0000 0.0000 0.0000 -1.5594
#
#
#
# Elastic Compliance Matrix: (Units=1/GPa)
#
#
# Indices 1 2 3 4 5 6 
#
# 1 0.041798 0.001767 -0.002384 0.000000 0.000000 0.000000
# 2 0.001767 0.008037 -0.001721 0.000000 0.000000 0.000000
# 3 -0.002384 -0.001721 0.006408 0.000000 0.000000 0.000000
# 4 0.000000 0.000000 0.000000 0.025986 0.000000 0.000000
# 5 0.000000 0.000000 0.000000 0.000000 0.052794 0.000000
# 6 0.000000 0.000000 0.000000 0.000000 0.000000 -0.641253
#
#
# Mechanical properties :
#
#
# Convention : Reuss Voigt Hill
#
# Bulk Modulus (GPa) = 19.39225 44.76531 32.07878
# Shear Modulus (GPa) = -10.32282 30.28225 9.97971
#
# Velocity S-wave (km/s) = -2.06674 3.53981 2.03210
# Velocity P-wave (km/s) = 1.52610 5.93550 4.33354
#
# Compressibility (1/GPa) = 0.05156700
#
# Stress axis : x y z
#
# Youngs Moduli (GPa) = 23.92441 124.41765 156.05685
#
# Poissons Ratio (x) = -0.21988 0.37208
# Poissons Ratio (y) = -0.04228 0.26862
# Poissons Ratio (z) = 0.05704 0.21416
#
# Static dielectric constant tensor:
#      x y z
#    x 2.150180 0.000000 0.000000 
#    y 0.000000 1.977720 0.000000 
#    z 0.000000 0.000000 1.937610 
# 
# From -- ./inp_files/10464.got.cif
#   From: 2010.05.17/outbox.cif.g08.bks.cpg/sg60_6_cif.got.tgz:10464.got - 2010.06.03 14:59:27.
