data_PCOD9458673
_publ_section_title
;
Structure prediction by ZEFSAII (Michael W. Deem and Ramdas Pophale) SiO2 
 PCOD9458673
Probable space group: P B C N
;
_chemical_formula_sum "Si O2"
_cell_formula_units_Z 28
_cell_length_a 5.320059
_cell_length_b 22.928419
_cell_length_c 9.502749
_cell_angle_alpha 90.000000
_cell_angle_beta 90.000000
_cell_angle_gamma 90.000000
_cell_volume 1159.150472
_symmetry_space_group_name_H-M "P B C N"
_symmetry_group_IT_number 60
_symmetry_cell_setting 'orthorhombic'
loop_
_space_group_symop_operation_xyz
x,y,z
1/2-x,1/2-y,1/2+z
1/2+x,1/2-y,-z
-x,y,1/2-z
-x,-y,-z
1/2+x,1/2+y,1/2-z
1/2-x,1/2+y,z
x,-y,1/2+z
loop_
_atom_site_type_symbol
_atom_site_label
_atom_site_fract_x
_atom_site_fract_y
_atom_site_fract_z
Si Si1 0.618235 0.549748 0.403283
Si Si2 0.500000 0.984441 0.250000
Si Si3 0.500863 0.234947 0.588264
Si Si4 0.797367 0.124522 0.641471
O O1 0.500000 0.554383 0.250000
O O2 0.500000 0.500000 0.500000
O O3 0.590435 0.608858 0.489887
O O4 0.899065 0.527343 0.370013
O O5 0.289157 0.937973 0.296785
O O6 0.240160 0.243585 0.504782
O O7 0.500000 0.259064 0.750000
O O8 0.565690 0.166540 0.610340
O O9 0.000000 0.150260 0.750000
#
# Coordination Sequence:
#
# PCOD9458673 Si02
#       4
#     8   4   8   8
#     4  12  24  42  65 108 150 192 246 300 359 455
#     4  12  22  42  74  96 150 190 242 284 376 442
#     4  12  28  54  83 113 152 200 264 331 396 465
#     4  12  25  46  76 104 145 199 245 306 389 451
#
# _framework density 24.155619999999999
#
# number of rings (size 3 to 8) (size 9 to 14) (size 15 to 20)
#    0.000    0.000    7.143    3.429    0.000    1.143 
#    5.143    0.000    0.000    0.000    0.000    0.000 
#    0.000    0.000    0.000    0.000    0.000    0.000 
#
# Total GULP energy -156537.177327 kJ/mol
# GULP energy per Si atom -5590.613476 kJ/mol
# Density = 2.410064 g / cm^3
# Si number density = 24.155620 Si / 1000 Ang^3
#
#
#
# Elastic Constant Matrix: (Units=GPa)
#
#
# Indices 1 2 3 4 5 6 
#
# 1 118.6455 14.6227 71.0190 0.0000 0.0000 0.0000
# 2 14.6227 56.5109 29.5307 0.0000 0.0000 0.0000
# 3 71.0190 29.5307 212.3623 0.0000 0.0000 0.0000
# 4 0.0000 0.0000 0.0000 28.5100 0.0000 0.0000
# 5 0.0000 0.0000 0.0000 0.0000 71.4537 0.0000
# 6 0.0000 0.0000 0.0000 0.0000 0.0000 40.3595
#
#
#
# Elastic Compliance Matrix: (Units=1/GPa)
#
#
# Indices 1 2 3 4 5 6 
#
# 1 0.010586 -0.000959 -0.003407 0.000000 0.000000 0.000000
# 2 -0.000959 0.019169 -0.002345 0.000000 0.000000 0.000000
# 3 -0.003407 -0.002345 0.006174 0.000000 0.000000 0.000000
# 4 0.000000 0.000000 0.000000 0.035075 0.000000 0.000000
# 5 0.000000 0.000000 0.000000 0.000000 0.013995 0.000000
# 6 0.000000 0.000000 0.000000 0.000000 0.000000 0.024777
#
#
# Mechanical properties :
#
#
# Convention : Reuss Voigt Hill
#
# Bulk Modulus (GPa) = 44.42847 68.65151 56.53999
# Shear Modulus (GPa) = 38.25512 46.22104 42.23808
#
# Velocity S-wave (km/s) = 3.98388 4.37907 4.18614
# Velocity P-wave (km/s) = 6.29240 7.35191 6.84269
#
# Compressibility (1/GPa) = 0.02250809
#
# Stress axis : x y z
#
# Youngs Moduli (GPa) = 94.46511 52.16696 161.96042
#
# Poissons Ratio (x) = 0.05002 0.55177
# Poissons Ratio (y) = 0.09058 0.37979
# Poissons Ratio (z) = 0.32183 0.12233
#
# Static dielectric constant tensor:
#      x y z
#    x 2.067500 0.000000 0.000000 
#    y 0.000000 1.898220 0.000000 
#    z 0.000000 0.000000 2.034540 
# 
# From -- ./inp_files/2977.got.cif
#   From: 2010.05.17/outbox.cif.g08.bks.cpg/sg60_2_cif.got.tgz:2977.got - 2010.06.03 14:59:27.
