data_PCOD9458808
_publ_section_title
;
Structure prediction by ZEFSAII (Michael W. Deem and Ramdas Pophale) SiO2 
 PCOD9458808
Probable space group: P B C N
;
_chemical_formula_sum "Si O2"
_cell_formula_units_Z 40
_cell_length_a 13.461207
_cell_length_b 8.436128
_cell_length_c 13.744880
_cell_angle_alpha 90.000000
_cell_angle_beta 90.000000
_cell_angle_gamma 90.000000
_cell_volume 1560.874968
_symmetry_space_group_name_H-M "P B C N"
_symmetry_group_IT_number 60
_symmetry_cell_setting 'orthorhombic'
loop_
_space_group_symop_operation_xyz
x,y,z
1/2-x,1/2-y,1/2+z
1/2+x,1/2-y,-z
-x,y,1/2-z
-x,-y,-z
1/2+x,1/2+y,1/2-z
1/2-x,1/2+y,z
x,-y,1/2+z
loop_
_atom_site_type_symbol
_atom_site_label
_atom_site_fract_x
_atom_site_fract_y
_atom_site_fract_z
Si Si1 0.807627 0.607760 0.432181
Si Si2 0.529191 0.316442 0.484017
Si Si3 0.461041 0.120201 0.655114
Si Si4 0.832081 0.165584 0.614726
Si Si5 0.183604 0.129480 0.257150
O O1 0.895659 0.481287 0.419575
O O2 0.733976 0.604395 0.523544
O O3 0.745662 0.577113 0.336002
O O4 0.866733 0.775648 0.433540
O O5 0.500000 0.500000 0.500000
O O6 0.534353 0.219460 0.585534
O O7 0.434067 0.257999 0.422627
O O8 0.500000 0.024449 0.750000
O O9 0.394768 0.250302 0.711016
O O10 0.761301 0.283495 0.672561
O O11 0.858631 0.019479 0.684937
#
# Coordination Sequence:
#
# PCOD9458808 Si02
#       5
#     8   8   8   8   8
#     4  12  28  50  77 113 156 205 256 318 390 463
#     4  12  28  46  78 111 155 197 254 324 383 459
#     4  12  26  49  73 112 151 202 259 312 385 461
#     4  12  26  49  76 111 153 199 256 320 390 449
#     4  12  27  47  78 109 151 204 254 319 380 464
#
# _framework density 25.626653000000001
#
# number of rings (size 3 to 8) (size 9 to 14) (size 15 to 20)
#    0.000    0.000    4.000    5.400    8.400    0.000 
#    0.000    0.000    0.000    0.000    0.000    0.000 
#    0.000    0.000    0.000    0.000    0.000    0.000 
#
# Total GULP energy -224209.230537 kJ/mol
# GULP energy per Si atom -5605.230763 kJ/mol
# Density = 2.556833 g / cm^3
# Si number density = 25.626653 Si / 1000 Ang^3
#
#
#
# Elastic Constant Matrix: (Units=GPa)
#
#
# Indices 1 2 3 4 5 6 
#
# 1 82.5129 1.7428 29.1756 0.0000 0.0000 0.0000
# 2 1.7428 55.9851 35.5803 0.0000 0.0000 0.0000
# 3 29.1756 35.5803 144.8483 0.0000 0.0000 0.0000
# 4 0.0000 0.0000 0.0000 42.7041 0.0000 0.0000
# 5 0.0000 0.0000 0.0000 0.0000 44.6832 0.0000
# 6 0.0000 0.0000 0.0000 0.0000 0.0000 41.6750
#
#
#
# Elastic Compliance Matrix: (Units=1/GPa)
#
#
# Indices 1 2 3 4 5 6 
#
# 1 0.013156 0.001510 -0.003021 0.000000 0.000000 0.000000
# 2 0.001510 0.021340 -0.005546 0.000000 0.000000 0.000000
# 3 -0.003021 -0.005546 0.008875 0.000000 0.000000 0.000000
# 4 0.000000 0.000000 0.000000 0.023417 0.000000 0.000000
# 5 0.000000 0.000000 0.000000 0.000000 0.022380 0.000000
# 6 0.000000 0.000000 0.000000 0.000000 0.000000 0.023995
#
#
# Mechanical properties :
#
#
# Convention : Reuss Voigt Hill
#
# Bulk Modulus (GPa) = 34.18033 46.26040 40.22037
# Shear Modulus (GPa) = 36.48920 40.26897 38.37908
#
# Velocity S-wave (km/s) = 3.77752 3.96835 3.87411
# Velocity P-wave (km/s) = 5.69149 6.25204 5.97833
#
# Compressibility (1/GPa) = 0.02925659
#
# Stress axis : x y z
#
# Youngs Moduli (GPa) = 76.01363 46.86131 112.68185
#
# Poissons Ratio (x) = -0.07077 0.34039
# Poissons Ratio (y) = -0.11480 0.62494
# Poissons Ratio (z) = 0.22962 0.25989
#
# Static dielectric constant tensor:
#      x y z
#    x 2.123070 0.000000 0.000000 
#    y 0.000000 2.086120 0.000000 
#    z 0.000000 0.000000 2.011200 
# 
# From -- ./inp_files/16583.got.cif
#   From: 2010.05.17/outbox.cif.g08.bks.cpg/sg60_9_cif.got.tgz:16583.got - 2010.06.03 14:59:27.
