data_PCOD9458931
_publ_section_title
;
Structure prediction by ZEFSAII (Michael W. Deem and Ramdas Pophale) SiO2 
 PCOD9458931
Probable space group: P B C N
;
_chemical_formula_sum "Si O2"
_cell_formula_units_Z 64
_cell_length_a 9.000000
_cell_length_b 15.000000
_cell_length_c 24.000000
_cell_angle_alpha 90.000000
_cell_angle_beta 90.000000
_cell_angle_gamma 90.000000
_cell_volume 3240.000000
_symmetry_space_group_name_H-M "P B C N"
_symmetry_group_IT_number 60
_symmetry_cell_setting 'orthorhombic'
loop_
_space_group_symop_operation_xyz
x,y,z
1/2-x,1/2-y,1/2+z
1/2+x,1/2-y,-z
-x,y,1/2-z
-x,-y,-z
1/2+x,1/2+y,1/2-z
1/2-x,1/2+y,z
x,-y,1/2+z
loop_
_atom_site_type_symbol
_atom_site_label
_atom_site_fract_x
_atom_site_fract_y
_atom_site_fract_z
Si Si1 0.171147 0.459947 0.332448
Si Si2 0.148400 0.606296 0.646286
Si Si3 0.171132 0.239609 0.065215
Si Si4 0.881500 0.000797 0.074642
Si Si5 0.180406 0.056201 0.124252
Si Si6 0.819014 0.305328 0.243961
Si Si7 0.060892 0.849692 0.013414
Si Si8 0.680170 0.600085 0.250056
O O1 0.232223 0.479925 0.393268
O O2 0.226935 0.365399 0.308034
O O3 0.235192 0.535467 0.292000
O O4 0.994973 0.448397 0.333858
O O5 0.105395 0.695387 0.612803
O O6 0.242433 0.537164 0.609525
O O7 0.234933 0.644021 0.700256
O O8 0.218828 0.143173 0.088891
O O9 0.312390 0.292284 0.042262
O O10 0.044674 0.216924 0.020888
O O11 0.004461 0.041177 0.116836
O O12 0.867671 0.075517 0.027289
O O13 0.952849 0.910079 0.051325
O O14 0.222902 0.075091 0.187361
O O15 0.777553 0.202769 0.239385
O O16 0.000000 0.305847 0.250000
O O17 0.500000 0.591933 0.250000
#
# Coordination Sequence:
#
# PCOD9458931 Si02
#       8
#     8   8   8   8   8   8   8   8
#     4  11  23  37  64  96 128 164 205 260 309 375
#     4  11  22  40  62  92 131 165 202 260 323 373
#     4  11  24  43  67  91 121 167 210 269 323 378
#     4  10  22  43  63  89 123 165 214 263 311 377
#     4  11  21  39  67  88 122 172 204 246 324 381
#     4   9  20  36  58  89 127 165 201 242 305 377
#     4  10  24  43  65  90 122 162 219 268 318 375
#     4  11  20  36  62  92 125 165 209 242 301 384
#
# _framework density 19.753086
#
# number of rings (size 3 to 8) (size 9 to 14) (size 15 to 20)
#    0.000    1.500    5.000    0.000    1.750    1.000 
#    2.250    1.250    2.750    0.000    0.000    0.000 
#    0.000    0.000    0.000    0.000    0.000    0.000 
#
# Total GULP energy -357010.521415 kJ/mol
# GULP energy per Si atom -5578.289397 kJ/mol
# Density = 1.970813 g / cm^3
# Si number density = 19.753086 Si / 1000 Ang^3
#
#
#
# Elastic Constant Matrix: (Units=GPa)
#
#
# Indices 1 2 3 4 5 6 
#
# 1 -21.0079 -22.6328 -13.8524 0.0000 0.0000 0.0000
# 2 -22.6328 69.8504 -10.3255 0.0000 0.0000 0.0000
# 3 -13.8524 -10.3255 34.9955 0.0000 0.0000 0.0000
# 4 0.0000 0.0000 0.0000 5.5071 0.0000 0.0000
# 5 0.0000 0.0000 0.0000 0.0000 24.1797 0.0000
# 6 0.0000 0.0000 0.0000 0.0000 0.0000 22.5094
#
#
#
# Elastic Compliance Matrix: (Units=1/GPa)
#
#
# Indices 1 2 3 4 5 6 
#
# 1 -0.026897 -0.010758 -0.013821 0.000000 0.000000 0.000000
# 2 -0.010758 0.010666 -0.001111 0.000000 0.000000 0.000000
# 3 -0.013821 -0.001111 0.022776 0.000000 0.000000 0.000000
# 4 0.000000 0.000000 0.000000 0.181583 0.000000 0.000000
# 5 0.000000 0.000000 0.000000 0.000000 0.041357 0.000000
# 6 0.000000 0.000000 0.000000 0.000000 0.000000 0.044426
#
#
# Mechanical properties :
#
#
# Convention : Reuss Voigt Hill
#
# Bulk Modulus (GPa) = -22.30331 -1.08705 -11.69518
# Shear Modulus (GPa) = 16.11101 19.14916 17.63008
#
# Velocity S-wave (km/s) = 2.85900 3.11694 2.99075
# Velocity P-wave (km/s) = 0.64577 3.52168 2.44798
#
# Compressibility (1/GPa) = -0.04483640
#
# Stress axis : x y z
#
# Youngs Moduli (GPa) = -37.17851 93.75471 43.90519
#
# Poissons Ratio (x) = 1.00864 0.60682
# Poissons Ratio (y) = -0.39998 0.04880
# Poissons Ratio (z) = -0.51385 0.10420
#
# Static dielectric constant tensor:
#      x y z
#    x 1.679020 0.000000 0.000000 
#    y 0.000000 1.694240 0.000000 
#    z 0.000000 0.000000 1.744320 
# 
# From -- ./inp_files/24105.got.cif
#   From: 2010.05.17/outbox.ucp.g08.bks.cvg/sg60_13_cif.got.tgz:24105.got - 2010.06.11 16:26:41.
