data_PCOD9458147
_publ_section_title
;
Structure prediction by ZEFSAII (Michael W. Deem and Ramdas Pophale) SiO2 
 PCOD9458147
Probable space group: P B C N
;
_chemical_formula_sum "Si O2"
_cell_formula_units_Z 48
_cell_length_a 15.974783
_cell_length_b 9.305883
_cell_length_c 16.119634
_cell_angle_alpha 90.000000
_cell_angle_beta 90.000000
_cell_angle_gamma 90.000000
_cell_volume 2396.336111
_symmetry_space_group_name_H-M "P B C N"
_symmetry_group_IT_number 60
_symmetry_cell_setting 'orthorhombic'
loop_
_space_group_symop_operation_xyz
x,y,z
1/2-x,1/2-y,1/2+z
1/2+x,1/2-y,-z
-x,y,1/2-z
-x,-y,-z
1/2+x,1/2+y,1/2-z
1/2-x,1/2+y,z
x,-y,1/2+z
loop_
_atom_site_type_symbol
_atom_site_label
_atom_site_fract_x
_atom_site_fract_y
_atom_site_fract_z
Si Si1 0.347473 0.060394 0.182723
Si Si2 0.727922 0.625617 0.562716
Si Si3 0.409596 0.575973 0.499472
Si Si4 0.343396 0.886179 0.870485
Si Si5 0.238618 0.186077 0.603148
Si Si6 0.015423 0.641752 0.050728
O O1 0.362998 0.050943 0.280253
O O2 0.284691 0.193621 0.169368
O O3 0.427721 0.106182 0.129771
O O4 0.307619 0.920923 0.139072
O O5 0.648908 0.516285 0.561488
O O6 0.719591 0.750136 0.631218
O O7 0.804589 0.516600 0.576063
O O8 0.735410 0.720746 0.478418
O O9 0.500000 0.500000 0.500000
O O10 0.344226 0.592912 0.577374
O O11 0.438516 0.741572 0.492972
O O12 0.424558 0.818023 0.914315
O O13 0.000000 0.500000 0.000000
#
# Coordination Sequence:
#
# PCOD9458147 Si02
#       6
#     8   8   8   8   8   8
#     4  11  24  40  63  95 132 171 211 277 342 382
#     4  12  22  41  67  92 129 174 229 268 325 409
#     4  11  22  38  64  96 120 164 223 276 316 386
#     4  12  24  41  63  96 132 168 214 279 338 392
#     4  11  21  42  64  91 127 171 224 265 319 409
#     4  11  24  41  67  94 126 171 219 270 322 404
#
# _framework density 20.030578999999999
#
# number of rings (size 3 to 8) (size 9 to 14) (size 15 to 20)
#    0.000    0.667    5.000    4.500    0.000    0.000 
#    0.000    0.000    0.000    0.000    0.000    0.000 
#    0.000    0.000    0.000    0.000    0.000    0.000 
#
# Total GULP energy -267452.561734 kJ/mol
# GULP energy per Si atom -5571.928369 kJ/mol
# Density = 1.998499 g / cm^3
# Si number density = 20.030579 Si / 1000 Ang^3
#
#
#
# Elastic Constant Matrix: (Units=GPa)
#
#
# Indices 1 2 3 4 5 6 
#
# 1 88.0579 41.7800 6.1379 0.0000 0.0000 0.0000
# 2 41.7800 127.6617 36.1791 0.0000 0.0000 0.0000
# 3 6.1379 36.1791 69.9560 0.0000 0.0000 0.0000
# 4 0.0000 0.0000 0.0000 27.3883 0.0000 0.0000
# 5 0.0000 0.0000 0.0000 0.0000 20.2628 0.0000
# 6 0.0000 0.0000 0.0000 0.0000 0.0000 51.0141
#
#
#
# Elastic Compliance Matrix: (Units=1/GPa)
#
#
# Indices 1 2 3 4 5 6 
#
# 1 0.013543 -0.004799 0.001294 0.000000 0.000000 0.000000
# 2 -0.004799 0.010879 -0.005205 0.000000 0.000000 0.000000
# 3 0.001294 -0.005205 0.016873 0.000000 0.000000 0.000000
# 4 0.000000 0.000000 0.000000 0.036512 0.000000 0.000000
# 5 0.000000 0.000000 0.000000 0.000000 0.049352 0.000000
# 6 0.000000 0.000000 0.000000 0.000000 0.000000 0.019602
#
#
# Mechanical properties :
#
#
# Convention : Reuss Voigt Hill
#
# Bulk Modulus (GPa) = 41.88650 50.42995 46.15822
# Shear Modulus (GPa) = 29.04621 33.17162 31.10892
#
# Velocity S-wave (km/s) = 3.81214 4.07387 3.94518
# Velocity P-wave (km/s) = 6.35084 6.88184 6.62167
#
# Compressibility (1/GPa) = 0.02387404
#
# Stress axis : x y z
#
# Youngs Moduli (GPa) = 73.83986 91.92162 59.26574
#
# Poissons Ratio (x) = 0.44111 -0.07666
# Poissons Ratio (y) = 0.35434 0.30849
# Poissons Ratio (z) = -0.09552 0.47847
#
# Static dielectric constant tensor:
#      x y z
#    x 1.778480 0.000000 0.000000 
#    y 0.000000 1.726340 0.000000 
#    z 0.000000 0.000000 1.732730 
# 
# From -- ./inp_files/20478.got.cif
#   From: 2010.05.17/outbox.cif.g08.bks.cpg/sg60_11_cif.got.tgz:20478.got - 2010.06.03 14:59:27.
