data_PCOD9458088
_publ_section_title
;
Structure prediction by ZEFSAII (Michael W. Deem and Ramdas Pophale) SiO2 
 PCOD9458088
Probable space group: P B C N
;
_chemical_formula_sum "Si O2"
_cell_formula_units_Z 48
_cell_length_a 14.206768
_cell_length_b 15.881488
_cell_length_c 8.437007
_cell_angle_alpha 90.000000
_cell_angle_beta 90.000000
_cell_angle_gamma 90.000000
_cell_volume 1903.596460
_symmetry_space_group_name_H-M "P B C N"
_symmetry_group_IT_number 60
_symmetry_cell_setting 'orthorhombic'
loop_
_space_group_symop_operation_xyz
x,y,z
1/2-x,1/2-y,1/2+z
1/2+x,1/2-y,-z
-x,y,1/2-z
-x,-y,-z
1/2+x,1/2+y,1/2-z
1/2-x,1/2+y,z
x,-y,1/2+z
loop_
_atom_site_type_symbol
_atom_site_label
_atom_site_fract_x
_atom_site_fract_y
_atom_site_fract_z
Si Si1 0.664869 0.649277 0.460479
Si Si2 0.861984 0.396739 0.352327
Si Si3 0.968147 0.400220 0.924279
Si Si4 0.694931 0.266458 0.651020
Si Si5 0.785850 0.511336 0.562063
Si Si6 0.028580 0.199740 0.573477
O O1 0.715542 0.717229 0.578208
O O2 0.709487 0.666565 0.289569
O O3 0.688759 0.555802 0.519302
O O4 0.554163 0.665737 0.461875
O O5 0.856610 0.309461 0.256517
O O6 0.801272 0.414922 0.512077
O O7 0.812267 0.464865 0.239711
O O8 0.963567 0.418525 0.425740
O O9 0.976526 0.300240 0.915348
O O10 0.000000 0.429577 0.750000
O O11 0.865973 0.431265 0.974160
O O12 0.629407 0.306281 0.513486
O O13 0.000000 0.167077 0.750000
#
# Coordination Sequence:
#
# PCOD9458088 Si02
#       6
#     8   8   8   8   8   8
#     4  11  23  37  63  93 130 165 214 263 321 391
#     4  11  22  39  58  85 131 172 206 260 315 387
#     4  11  21  36  58  88 128 166 206 248 316 389
#     4  11  23  40  64  94 128 170 213 264 322 379
#     4  11  24  38  58  92 128 170 214 253 324 389
#     4  11  22  40  64  94 130 162 214 265 324 388
#
# _framework density 25.215427999999999
#
# number of rings (size 3 to 8) (size 9 to 14) (size 15 to 20)
#    0.000    1.000    5.000    3.500    2.333    1.333 
#    0.000    0.000    0.000    0.000    0.000   47.833 
#    0.000    0.000    0.000    0.000    0.000    0.000 
#
# Total GULP energy -268075.869094 kJ/mol
# GULP energy per Si atom -5584.913939 kJ/mol
# Density = 2.515804 g / cm^3
# Si number density = 25.215428 Si / 1000 Ang^3
#
#
#
# Elastic Constant Matrix: (Units=GPa)
#
#
# Indices 1 2 3 4 5 6 
#
# 1 82.0737 21.2234 -11.5575 0.0000 0.0000 0.0000
# 2 21.2234 20.7543 2.6685 0.0000 0.0000 0.0000
# 3 -11.5575 2.6685 111.6736 0.0000 0.0000 0.0000
# 4 0.0000 0.0000 0.0000 30.4641 0.0000 0.0000
# 5 0.0000 0.0000 0.0000 0.0000 37.2695 0.0000
# 6 0.0000 0.0000 0.0000 0.0000 0.0000 32.9634
#
#
#
# Elastic Compliance Matrix: (Units=1/GPa)
#
#
# Indices 1 2 3 4 5 6 
#
# 1 0.017083 -0.017751 0.002192 0.000000 0.000000 0.000000
# 2 -0.017751 0.066777 -0.003433 0.000000 0.000000 0.000000
# 3 0.002192 -0.003433 0.009264 0.000000 0.000000 0.000000
# 4 0.000000 0.000000 0.000000 0.032826 0.000000 0.000000
# 5 0.000000 0.000000 0.000000 0.000000 0.026832 0.000000
# 6 0.000000 0.000000 0.000000 0.000000 0.000000 0.030337
#
#
# Mechanical properties :
#
#
# Convention : Reuss Voigt Hill
#
# Bulk Modulus (GPa) = 18.13573 26.57449 22.35511
# Shear Modulus (GPa) = 20.87850 33.61720 27.24785
#
# Velocity S-wave (km/s) = 2.88063 3.65526 3.29082
# Velocity P-wave (km/s) = 4.27457 5.32695 4.82951
#
# Compressibility (1/GPa) = 0.05513978
#
# Stress axis : x y z
#
# Youngs Moduli (GPa) = 58.53719 14.97529 107.94973
#
# Poissons Ratio (x) = 0.26583 -0.23664
# Poissons Ratio (y) = 1.03910 0.37057
# Poissons Ratio (z) = -0.12832 0.05141
#
# Static dielectric constant tensor:
#      x y z
#    x 2.034540 0.000000 0.000000 
#    y 0.000000 2.071330 0.000000 
#    z 0.000000 0.000000 2.061420 
# 
# From -- ./inp_files/6032.got.cif
#   From: 2010.05.17/outbox.cif.g08.bks.cpg/sg60_4_cif.got.tgz:6032.got - 2010.06.03 14:59:27.
