data_PCOD9458755
_publ_section_title
;
Structure prediction by ZEFSAII (Michael W. Deem and Ramdas Pophale) SiO2 
 PCOD9458755
Probable space group: P B C N
;
_chemical_formula_sum "Si O2"
_cell_formula_units_Z 40
_cell_length_a 17.991529
_cell_length_b 8.349066
_cell_length_c 12.030980
_cell_angle_alpha 90.000000
_cell_angle_beta 90.000000
_cell_angle_gamma 90.000000
_cell_volume 1807.203139
_symmetry_space_group_name_H-M "P B C N"
_symmetry_group_IT_number 60
_symmetry_cell_setting 'orthorhombic'
loop_
_space_group_symop_operation_xyz
x,y,z
1/2-x,1/2-y,1/2+z
1/2+x,1/2-y,-z
-x,y,1/2-z
-x,-y,-z
1/2+x,1/2+y,1/2-z
1/2-x,1/2+y,z
x,-y,1/2+z
loop_
_atom_site_type_symbol
_atom_site_label
_atom_site_fract_x
_atom_site_fract_y
_atom_site_fract_z
Si Si1 0.080927 0.121708 0.204641
Si Si2 0.150272 0.346550 0.817296
Si Si3 0.692245 0.210924 0.628686
Si Si4 0.471321 0.817497 0.001248
Si Si5 0.379002 0.697704 0.589476
O O1 0.134127 0.182913 0.301648
O O2 0.000000 0.067316 0.250000
O O3 0.122251 0.978389 0.141125
O O4 0.063507 0.264073 0.117841
O O5 0.224782 0.243704 0.831153
O O6 0.169999 0.528099 0.849134
O O7 0.087703 0.291947 0.903598
O O8 0.122559 0.321668 0.691841
O O9 0.683767 0.258865 0.499667
O O10 0.543489 0.712588 0.975449
O O11 0.500000 0.000000 0.000000
#
# Coordination Sequence:
#
# PCOD9458755 Si02
#       5
#     8   8   8   8   8
#     4  12  25  46  76 108 149 190 248 308 368 443
#     4  12  28  47  75 105 151 195 246 308 380 442
#     4  12  29  48  71 111 146 193 246 307 374 447
#     4  12  24  48  78 106 148 199 253 306 367 443
#     4  12  27  47  77 107 147 195 248 304 373 443
#
# _framework density 22.133648999999998
#
# number of rings (size 3 to 8) (size 9 to 14) (size 15 to 20)
#    0.000    0.000    4.000    4.800    8.400    0.000 
#    0.000    0.000    0.000    0.000    0.000    0.000 
#    0.000    0.000    0.000    0.000    0.000    0.000 
#
# Total GULP energy -224183.566789 kJ/mol
# GULP energy per Si atom -5604.589170 kJ/mol
# Density = 2.208327 g / cm^3
# Si number density = 22.133649 Si / 1000 Ang^3
#
#
#
# Elastic Constant Matrix: (Units=GPa)
#
#
# Indices 1 2 3 4 5 6 
#
# 1 70.9634 -24.3788 12.7699 0.0000 0.0000 0.0000
# 2 -24.3788 84.7212 16.7152 0.0000 0.0000 0.0000
# 3 12.7699 16.7152 128.5976 0.0000 0.0000 0.0000
# 4 0.0000 0.0000 0.0000 33.2620 0.0000 0.0000
# 5 0.0000 0.0000 0.0000 0.0000 17.9499 0.0000
# 6 0.0000 0.0000 0.0000 0.0000 0.0000 -31.6701
#
#
#
# Elastic Compliance Matrix: (Units=1/GPa)
#
#
# Indices 1 2 3 4 5 6 
#
# 1 0.016265 0.005131 -0.002282 0.000000 0.000000 0.000000
# 2 0.005131 0.013732 -0.002294 0.000000 0.000000 0.000000
# 3 -0.002282 -0.002294 0.008301 0.000000 0.000000 0.000000
# 4 0.000000 0.000000 0.000000 0.030064 0.000000 0.000000
# 5 0.000000 0.000000 0.000000 0.000000 0.055711 0.000000
# 6 0.000000 0.000000 0.000000 0.000000 0.000000 -0.031576
#
#
# Mechanical properties :
#
#
# Convention : Reuss Voigt Hill
#
# Bulk Modulus (GPa) = 25.37643 32.72164 29.04903
# Shear Modulus (GPa) = 47.83534 22.52009 35.17771
#
# Velocity S-wave (km/s) = 4.65392 3.19322 3.99097
# Velocity P-wave (km/s) = 6.35363 5.33023 5.86430
#
# Compressibility (1/GPa) = 0.03940665
#
# Stress axis : x y z
#
# Youngs Moduli (GPa) = 61.48183 72.82032 120.46693
#
# Poissons Ratio (x) = -0.37361 0.27491
# Poissons Ratio (y) = -0.31543 0.27640
# Poissons Ratio (z) = 0.14030 0.16708
#
# Static dielectric constant tensor:
#      x y z
#    x 1.778990 0.000000 0.000000 
#    y 0.000000 1.815300 0.000000 
#    z 0.000000 0.000000 1.868580 
# 
# From -- ./inp_files/12280.got.cif
#   From: 2010.05.17/outbox.cif.g08.bks.cpg/sg60_7_cif.got.tgz:12280.got - 2010.06.03 14:59:27.
