data_PCOD9458140
_publ_section_title
;
Structure prediction by ZEFSAII (Michael W. Deem and Ramdas Pophale) SiO2 
 PCOD9458140
Probable space group: P B C N
;
_chemical_formula_sum "Si O2"
_cell_formula_units_Z 56
_cell_length_a 15.623052
_cell_length_b 10.551466
_cell_length_c 15.864735
_cell_angle_alpha 90.000000
_cell_angle_beta 90.000000
_cell_angle_gamma 90.000000
_cell_volume 2615.239724
_symmetry_space_group_name_H-M "P B C N"
_symmetry_group_IT_number 60
_symmetry_cell_setting 'orthorhombic'
loop_
_space_group_symop_operation_xyz
x,y,z
1/2-x,1/2-y,1/2+z
1/2+x,1/2-y,-z
-x,y,1/2-z
-x,-y,-z
1/2+x,1/2+y,1/2-z
1/2-x,1/2+y,z
x,-y,1/2+z
loop_
_atom_site_type_symbol
_atom_site_label
_atom_site_fract_x
_atom_site_fract_y
_atom_site_fract_z
Si Si1 0.000000 0.602817 0.250000
Si Si2 0.500000 0.640009 0.250000
Si Si3 0.049810 0.217246 0.902573
Si Si4 0.648796 0.512184 0.146301
Si Si5 0.606984 0.564261 0.959934
Si Si6 0.261059 0.685651 0.659000
Si Si7 0.304109 0.055224 0.255900
Si Si8 0.412300 0.725971 0.085524
O O1 0.989940 0.692331 0.167698
O O2 0.906910 0.533234 0.247365
O O3 0.583730 0.558781 0.220667
O O4 0.475170 0.718326 0.166004
O O5 0.984267 0.105081 0.924579
O O6 0.131832 0.139241 0.867265
O O7 0.060127 0.280231 0.994523
O O8 0.747707 0.554306 0.158511
O O9 0.618361 0.576909 0.059330
O O10 0.671092 0.655232 0.912209
O O11 0.616753 0.418113 0.935164
O O12 0.247457 0.559456 0.712907
O O13 0.287162 0.810586 0.710560
O O14 0.170458 0.704189 0.616487
#
# Coordination Sequence:
#
# PCOD9458140 Si02
#       8
#     4   4   8   8   8   8   8   8
#     4  12  27  45  68  96 146 191 231 288 356 417
#     4  12  17  35  64 104 140 171 221 292 348 401
#     4  11  22  42  72 105 138 184 237 287 351 425
#     4  11  22  38  70 106 135 176 239 287 338 420
#     4  11  21  41  67 105 139 179 235 295 342 416
#     4  12  24  45  70  97 140 186 235 284 352 417
#     4  12  27  47  69 102 139 192 233 289 350 421
#     4  11  23  39  69 103 141 176 233 289 350 409
#
# _framework density 21.412951
#
# number of rings (size 3 to 8) (size 9 to 14) (size 15 to 20)
#    0.000    0.571    7.143    2.143    2.000    0.571 
#    0.000    0.714    3.143    0.000    0.000    0.000 
#    0.000    0.000    0.000    0.000    0.000    0.000 
#
# Total GULP energy -312423.235876 kJ/mol
# GULP energy per Si atom -5578.986355 kJ/mol
# Density = 2.136421 g / cm^3
# Si number density = 21.412951 Si / 1000 Ang^3
#
#
#
# Elastic Constant Matrix: (Units=GPa)
#
#
# Indices 1 2 3 4 5 6 
#
# 1 119.4443 12.1051 40.0588 0.0000 0.0000 0.0000
# 2 12.1051 34.6744 7.8282 0.0000 0.0000 0.0000
# 3 40.0588 7.8282 117.3836 0.0000 0.0000 0.0000
# 4 0.0000 0.0000 0.0000 189.2000 0.0000 0.0000
# 5 0.0000 0.0000 0.0000 0.0000 38.7230 0.0000
# 6 0.0000 0.0000 0.0000 0.0000 0.0000 43.2709
#
#
#
# Elastic Compliance Matrix: (Units=1/GPa)
#
#
# Indices 1 2 3 4 5 6 
#
# 1 0.009693 -0.002677 -0.003129 0.000000 0.000000 0.000000
# 2 -0.002677 0.030020 -0.001088 0.000000 0.000000 0.000000
# 3 -0.003129 -0.001088 0.009660 0.000000 0.000000 0.000000
# 4 0.000000 0.000000 0.000000 0.005285 0.000000 0.000000
# 5 0.000000 0.000000 0.000000 0.000000 0.025824 0.000000
# 6 0.000000 0.000000 0.000000 0.000000 0.000000 0.023110
#
#
# Mechanical properties :
#
#
# Convention : Reuss Voigt Hill
#
# Bulk Modulus (GPa) = 28.10361 43.49847 35.80104
# Shear Modulus (GPa) = 38.68667 68.33947 53.51307
#
# Velocity S-wave (km/s) = 4.25513 5.65547 5.00452
# Velocity P-wave (km/s) = 6.10693 7.93750 7.08162
#
# Compressibility (1/GPa) = 0.03558262
#
# Stress axis : x y z
#
# Youngs Moduli (GPa) = 103.16798 33.31103 103.52424
#
# Poissons Ratio (x) = 0.08919 0.32396
# Poissons Ratio (y) = 0.27622 0.11267
# Poissons Ratio (z) = 0.32284 0.03625
#
# Static dielectric constant tensor:
#      x y z
#    x 1.742650 0.000000 0.000000 
#    y 0.000000 1.801470 0.000000 
#    z 0.000000 0.000000 1.736750 
# 
# From -- ./inp_files/16898.got.cif
#   From: 2010.05.17/outbox.cif.g08.bks.cpg/sg60_9_cif.got.tgz:16898.got - 2010.06.03 14:59:27.
