data_PCOD9458822
_publ_section_title
;
Structure prediction by ZEFSAII (Michael W. Deem and Ramdas Pophale) SiO2 
 PCOD9458822
Probable space group: P B C N
;
_chemical_formula_sum "Si O2"
_cell_formula_units_Z 32
_cell_length_a 8.987443
_cell_length_b 15.247535
_cell_length_c 10.117890
_cell_angle_alpha 90.000000
_cell_angle_beta 90.000000
_cell_angle_gamma 90.000000
_cell_volume 1386.518733
_symmetry_space_group_name_H-M "P B C N"
_symmetry_group_IT_number 60
_symmetry_cell_setting 'orthorhombic'
loop_
_space_group_symop_operation_xyz
x,y,z
1/2-x,1/2-y,1/2+z
1/2+x,1/2-y,-z
-x,y,1/2-z
-x,-y,-z
1/2+x,1/2+y,1/2-z
1/2-x,1/2+y,z
x,-y,1/2+z
loop_
_atom_site_type_symbol
_atom_site_label
_atom_site_fract_x
_atom_site_fract_y
_atom_site_fract_z
Si Si1 0.264874 0.212848 0.155141
Si Si2 0.932253 0.640794 0.123256
Si Si3 0.403038 0.459042 0.620162
Si Si4 0.862077 0.591941 0.848919
O O1 0.290540 0.187096 0.310564
O O2 0.433595 0.209303 0.097692
O O3 0.195934 0.307583 0.148392
O O4 0.173508 0.134482 0.086926
O O5 0.000000 0.590431 0.250000
O O6 0.907188 0.580221 0.001418
O O7 0.500000 0.442911 0.750000
O O8 0.500000 0.500000 0.500000
O O9 0.274376 0.525859 0.668908
O O10 0.000000 0.589607 0.750000
#
# Coordination Sequence:
#
# PCOD9458822 Si02
#       4
#     8   8   8   8
#     4   9  24  45  70  96 147 178 227 288 358 400
#     4   8  23  42  73  93 143 178 229 282 365 394
#     4  12  29  45  72 103 144 180 237 290 353 416
#     4  12  27  42  77 105 135 187 244 280 347 430
#
# _framework density 23.079384999999998
#
# number of rings (size 3 to 8) (size 9 to 14) (size 15 to 20)
#    1.500    0.000    0.000    2.250   17.500    1.000 
#    0.000    0.000    0.000    0.000    0.000    0.000 
#    0.000    0.000    0.000    0.000    0.000    0.000 
#
# Total GULP energy -178579.002625 kJ/mol
# GULP energy per Si atom -5580.593832 kJ/mol
# Density = 2.302686 g / cm^3
# Si number density = 23.079385 Si / 1000 Ang^3
#
#
#
# Elastic Constant Matrix: (Units=GPa)
#
#
# Indices 1 2 3 4 5 6 
#
# 1 103.6461 53.6306 4.7925 0.0000 0.0000 0.0000
# 2 53.6306 161.1619 -28.0911 0.0000 0.0000 0.0000
# 3 4.7925 -28.0911 38.6586 0.0000 0.0000 0.0000
# 4 0.0000 0.0000 0.0000 4.2837 0.0000 0.0000
# 5 0.0000 0.0000 0.0000 0.0000 47.5525 0.0000
# 6 0.0000 0.0000 0.0000 0.0000 0.0000 41.1387
#
#
#
# Elastic Compliance Matrix: (Units=1/GPa)
#
#
# Indices 1 2 3 4 5 6 
#
# 1 0.012519 -0.005080 -0.005243 0.000000 0.000000 0.000000
# 2 -0.005080 0.009166 0.007290 0.000000 0.000000 0.000000
# 3 -0.005243 0.007290 0.031815 0.000000 0.000000 0.000000
# 4 0.000000 0.000000 0.000000 0.233441 0.000000 0.000000
# 5 0.000000 0.000000 0.000000 0.000000 0.021029 0.000000
# 6 0.000000 0.000000 0.000000 0.000000 0.000000 0.024308
#
#
# Mechanical properties :
#
#
# Convention : Reuss Voigt Hill
#
# Bulk Modulus (GPa) = 21.08183 40.45895 30.77039
# Shear Modulus (GPa) = 14.11805 36.80395 25.46100
#
# Velocity S-wave (km/s) = 2.47597 3.99766 3.32504
# Velocity P-wave (km/s) = 4.16272 6.23513 5.30118
#
# Compressibility (1/GPa) = 0.04743421
#
# Stress axis : x y z
#
# Youngs Moduli (GPa) = 79.87680 109.09670 31.43176
#
# Poissons Ratio (x) = 0.55422 0.16481
# Poissons Ratio (y) = 0.40578 -0.22915
# Poissons Ratio (z) = 0.41883 -0.79535
#
# Static dielectric constant tensor:
#      x y z
#    x 1.876270 0.000000 0.000000 
#    y 0.000000 1.875890 0.000000 
#    z 0.000000 0.000000 2.248680 
# 
# From -- ./inp_files/9572.got.cif
#   From: 2010.05.17/outbox.cif.g08.bks.cpg/sg60_5_cif.got.tgz:9572.got - 2010.06.03 14:59:27.
