data_PCOD9458393
_publ_section_title
;
Structure prediction by ZEFSAII (Michael W. Deem and Ramdas Pophale) SiO2 
 PCOD9458393
Probable space group: P B C N
;
_chemical_formula_sum "Si O2"
_cell_formula_units_Z 40
_cell_length_a 13.997526
_cell_length_b 8.606488
_cell_length_c 14.455241
_cell_angle_alpha 90.000000
_cell_angle_beta 90.000000
_cell_angle_gamma 90.000000
_cell_volume 1741.416227
_symmetry_space_group_name_H-M "P B C N"
_symmetry_group_IT_number 60
_symmetry_cell_setting 'orthorhombic'
loop_
_space_group_symop_operation_xyz
x,y,z
1/2-x,1/2-y,1/2+z
1/2+x,1/2-y,-z
-x,y,1/2-z
-x,-y,-z
1/2+x,1/2+y,1/2-z
1/2-x,1/2+y,z
x,-y,1/2+z
loop_
_atom_site_type_symbol
_atom_site_label
_atom_site_fract_x
_atom_site_fract_y
_atom_site_fract_z
Si Si1 0.276131 0.213464 0.753774
Si Si2 0.858686 0.685428 0.934934
Si Si3 0.198416 0.625981 0.969731
Si Si4 0.888087 0.982337 0.225944
Si Si5 0.948114 0.140577 0.046696
O O1 0.320293 0.128952 0.664600
O O2 0.303118 0.152856 0.857587
O O3 0.319083 0.384137 0.732773
O O4 0.162796 0.180610 0.755125
O O5 0.967347 0.743281 0.921414
O O6 0.796972 0.825647 0.980836
O O7 0.840390 0.542882 0.004846
O O8 0.124593 0.754278 0.009674
O O9 0.887645 0.047631 0.122552
O O10 0.000000 0.985375 0.250000
O O11 0.000000 0.000000 0.000000
#
# Coordination Sequence:
#
# PCOD9458393 Si02
#       5
#     8   8   8   8   8
#     4  11  24  44  69 100 141 179 234 293 349 422
#     4  12  23  44  68 102 136 186 233 289 361 424
#     4  11  25  41  68  98 138 181 233 295 348 429
#     4  11  23  44  69  98 135 182 226 288 352 415
#     4  11  24  43  68  98 137 182 233 291 354 422
#
# _framework density 22.969811
#
# number of rings (size 3 to 8) (size 9 to 14) (size 15 to 20)
#    0.000    0.800    2.000    6.600    2.800    0.000 
#    0.000    1.000    0.000    0.000    0.000    0.000 
#    0.000    0.000    0.000    0.000    0.000    0.000 
#
# Total GULP energy -222947.944976 kJ/mol
# GULP energy per Si atom -5573.698624 kJ/mol
# Density = 2.291753 g / cm^3
# Si number density = 22.969811 Si / 1000 Ang^3
#
#
#
# Elastic Constant Matrix: (Units=GPa)
#
#
# Indices 1 2 3 4 5 6 
#
# 1 130.1745 47.4766 -0.5309 0.0000 0.0000 0.0000
# 2 47.4766 72.5077 9.2927 0.0000 0.0000 0.0000
# 3 -0.5309 9.2927 93.0293 0.0000 0.0000 0.0000
# 4 0.0000 0.0000 0.0000 19.3913 0.0000 0.0000
# 5 0.0000 0.0000 0.0000 0.0000 33.8192 0.0000
# 6 0.0000 0.0000 0.0000 0.0000 0.0000 58.4530
#
#
#
# Elastic Compliance Matrix: (Units=1/GPa)
#
#
# Indices 1 2 3 4 5 6 
#
# 1 0.010141 -0.006734 0.000730 0.000000 0.000000 0.000000
# 2 -0.006734 0.018442 -0.001881 0.000000 0.000000 0.000000
# 3 0.000730 -0.001881 0.010941 0.000000 0.000000 0.000000
# 4 0.000000 0.000000 0.000000 0.051570 0.000000 0.000000
# 5 0.000000 0.000000 0.000000 0.000000 0.029569 0.000000
# 6 0.000000 0.000000 0.000000 0.000000 0.000000 0.017108
#
#
# Mechanical properties :
#
#
# Convention : Reuss Voigt Hill
#
# Bulk Modulus (GPa) = 42.09384 45.35424 43.72404
# Shear Modulus (GPa) = 30.96810 38.29758 34.63284
#
# Velocity S-wave (km/s) = 3.67578 4.08769 3.88719
# Velocity P-wave (km/s) = 6.03164 6.48590 6.26289
#
# Compressibility (1/GPa) = 0.02375645
#
# Stress axis : x y z
#
# Youngs Moduli (GPa) = 98.61116 54.22489 91.39661
#
# Poissons Ratio (x) = 0.36513 -0.06677
# Poissons Ratio (y) = 0.66401 0.17188
# Poissons Ratio (z) = -0.07204 0.10197
#
# Static dielectric constant tensor:
#      x y z
#    x 1.957990 0.000000 0.000000 
#    y 0.000000 2.058260 0.000000 
#    z 0.000000 0.000000 2.046340 
# 
# From -- ./inp_files/16598.got.cif
#   From: 2010.05.17/outbox.cif.g08.bks.cpg/sg60_9_cif.got.tgz:16598.got - 2010.06.03 14:59:27.
