data_PCOD9458628
_publ_section_title
;
Structure prediction by ZEFSAII (Michael W. Deem and Ramdas Pophale) SiO2 
 PCOD9458628
Probable space group: P B C N
;
_chemical_formula_sum "Si O2"
_cell_formula_units_Z 32
_cell_length_a 5.185117
_cell_length_b 22.637502
_cell_length_c 10.436911
_cell_angle_alpha 90.000000
_cell_angle_beta 90.000000
_cell_angle_gamma 90.000000
_cell_volume 1225.064746
_symmetry_space_group_name_H-M "P B C N"
_symmetry_group_IT_number 60
_symmetry_cell_setting 'orthorhombic'
loop_
_space_group_symop_operation_xyz
x,y,z
1/2-x,1/2-y,1/2+z
1/2+x,1/2-y,-z
-x,y,1/2-z
-x,-y,-z
1/2+x,1/2+y,1/2-z
1/2-x,1/2+y,z
x,-y,1/2+z
loop_
_atom_site_type_symbol
_atom_site_label
_atom_site_fract_x
_atom_site_fract_y
_atom_site_fract_z
Si Si1 0.235515 0.253483 0.410882
Si Si2 0.293669 0.044676 0.570948
Si Si3 0.350994 0.428612 0.632045
Si Si4 0.000000 0.354435 0.250000
Si Si5 0.500000 0.155930 0.250000
O O1 0.475032 0.258064 0.508831
O O2 0.299808 0.200152 0.315925
O O3 0.197424 0.311316 0.323347
O O4 0.391440 0.102052 0.641951
O O5 0.045642 0.063731 0.486089
O O6 0.500000 0.000000 0.500000
O O7 0.216038 0.995131 0.673779
O O8 0.500000 0.401297 0.750000
O O9 0.102298 0.386491 0.634701
#
# Coordination Sequence:
#
# PCOD9458628 Si02
#       5
#     8   8   8   4   4
#     4  12  32  57  82 128 176 238 304 362 441 530
#     4  11  26  53  82 129 167 223 292 374 456 537
#     4  11  26  48  85 119 170 221 287 362 450 529
#     4  12  29  54  86 128 179 236 298 378 452 550
#     4  12  29  52  82 124 169 236 296 360 436 542
#
# _framework density 26.121071000000001
#
# number of rings (size 3 to 8) (size 9 to 14) (size 15 to 20)
#    0.000    0.500    0.000    5.250   12.250    2.000 
#   24.750    0.000    0.000    0.000    0.000    0.000 
#    0.000    0.000    0.000    0.000    0.000    0.000 
#
# Total GULP energy -179076.373927 kJ/mol
# GULP energy per Si atom -5596.136685 kJ/mol
# Density = 2.606162 g / cm^3
# Si number density = 26.121071 Si / 1000 Ang^3
#
#
#
# Elastic Constant Matrix: (Units=GPa)
#
#
# Indices 1 2 3 4 5 6 
#
# 1 153.3007 98.8951 72.0240 0.0000 0.0000 0.0000
# 2 98.8951 270.6112 98.3148 0.0000 0.0000 0.0000
# 3 72.0240 98.3148 120.6152 0.0000 0.0000 0.0000
# 4 0.0000 0.0000 0.0000 112.7546 0.0000 0.0000
# 5 0.0000 0.0000 0.0000 0.0000 60.1669 0.0000
# 6 0.0000 0.0000 0.0000 0.0000 0.0000 58.8072
#
#
#
# Elastic Compliance Matrix: (Units=1/GPa)
#
#
# Indices 1 2 3 4 5 6 
#
# 1 0.009822 -0.002072 -0.004176 0.000000 0.000000 0.000000
# 2 -0.002072 0.005687 -0.003398 0.000000 0.000000 0.000000
# 3 -0.004176 -0.003398 0.013554 0.000000 0.000000 0.000000
# 4 0.000000 0.000000 0.000000 0.008869 0.000000 0.000000
# 5 0.000000 0.000000 0.000000 0.000000 0.016620 0.000000
# 6 0.000000 0.000000 0.000000 0.000000 0.000000 0.017005
#
#
# Mechanical properties :
#
#
# Convention : Reuss Voigt Hill
#
# Bulk Modulus (GPa) = 102.34783 120.33277 111.34030
# Shear Modulus (GPa) = 53.13074 64.69862 58.91468
#
# Velocity S-wave (km/s) = 4.51490 4.98222 4.75431
# Velocity P-wave (km/s) = 8.15146 8.90303 8.53552
#
# Compressibility (1/GPa) = 0.00977060
#
# Stress axis : x y z
#
# Youngs Moduli (GPa) = 101.81335 175.83037 73.77658
#
# Poissons Ratio (x) = 0.36437 0.30808
# Poissons Ratio (y) = 0.21099 0.25072
# Poissons Ratio (z) = 0.42516 0.59753
#
# Static dielectric constant tensor:
#      x y z
#    x 2.227570 0.000000 0.000000 
#    y 0.000000 1.980010 0.000000 
#    z 0.000000 0.000000 2.249300 
# 
# From -- ./inp_files/8846.got.cif
#   From: 2010.05.17/outbox.cif.g08.bks.cpg/sg60_5_cif.got.tgz:8846.got - 2010.06.03 14:59:27.
