data_PCOD9458122
_publ_section_title
;
Structure prediction by ZEFSAII (Michael W. Deem and Ramdas Pophale) SiO2 
 PCOD9458122
Probable space group: P B C N
;
_chemical_formula_sum "Si O2"
_cell_formula_units_Z 48
_cell_length_a 29.688584
_cell_length_b 15.633297
_cell_length_c 4.937297
_cell_angle_alpha 90.000000
_cell_angle_beta 90.000000
_cell_angle_gamma 90.000000
_cell_volume 2291.549884
_symmetry_space_group_name_H-M "P B C N"
_symmetry_group_IT_number 60
_symmetry_cell_setting 'orthorhombic'
loop_
_space_group_symop_operation_xyz
x,y,z
1/2-x,1/2-y,1/2+z
1/2+x,1/2-y,-z
-x,y,1/2-z
-x,-y,-z
1/2+x,1/2+y,1/2-z
1/2-x,1/2+y,z
x,-y,1/2+z
loop_
_atom_site_type_symbol
_atom_site_label
_atom_site_fract_x
_atom_site_fract_y
_atom_site_fract_z
Si Si1 0.319256 0.945083 0.340866
Si Si2 0.774045 0.282301 0.916699
Si Si3 0.632616 0.272038 0.146433
Si Si4 0.402521 0.175227 0.866378
Si Si5 0.093086 0.054839 0.690626
Si Si6 0.500000 0.654436 0.750000
Si Si7 0.000000 0.717074 0.750000
O O1 0.284602 0.873803 0.447613
O O2 0.369429 0.905890 0.375323
O O3 0.313845 0.027866 0.530697
O O4 0.737243 0.277306 0.676483
O O5 0.818691 0.254596 0.755190
O O6 0.598541 0.220586 0.342749
O O7 0.625716 0.371369 0.202591
O O8 0.621287 0.240483 0.845894
O O9 0.454156 0.163366 0.782405
O O10 0.043371 0.094156 0.724429
O O11 0.098815 0.027455 0.381317
O O12 0.505130 0.717575 0.498029
#
# Coordination Sequence:
#
# PCOD9458122 Si02
#       7
#     8   8   8   8   8   4   4
#     4  11  23  42  67  98 128 160 200 256 314 368
#     4  11  23  43  70  96 121 160 209 253 308 388
#     4  11  22  41  61  86 123 167 210 261 310 380
#     4  11  21  39  64  89 124 167 212 252 307 375
#     4  12  23  37  55  85 126 167 211 262 315 360
#     4  12  22  37  56  85 126 160 226 268 304 361
#     4  12  20  37  62  91 118 168 220 268 294 371
#
# _framework density 20.946522999999999
#
# number of rings (size 3 to 8) (size 9 to 14) (size 15 to 20)
#    0.000    0.667    3.333    7.500    0.000    0.000 
#    0.000    5.833    0.000    0.000    0.000    0.000 
#    0.000    0.000    0.000    0.000    0.000    0.000 
#
# Total GULP energy -268369.728278 kJ/mol
# GULP energy per Si atom -5591.036006 kJ/mol
# Density = 2.089885 g / cm^3
# Si number density = 20.946523 Si / 1000 Ang^3
#
#
#
# Elastic Constant Matrix: (Units=GPa)
#
#
# Indices 1 2 3 4 5 6 
#
# 1 63.7089 11.3820 -5.2837 0.0000 0.0000 0.0000
# 2 11.3820 42.7333 -10.4748 0.0000 0.0000 0.0000
# 3 -5.2837 -10.4748 72.7941 0.0000 0.0000 0.0000
# 4 0.0000 0.0000 0.0000 40.1109 0.0000 0.0000
# 5 0.0000 0.0000 0.0000 0.0000 23.2150 0.0000
# 6 0.0000 0.0000 0.0000 0.0000 0.0000 23.0695
#
#
#
# Elastic Compliance Matrix: (Units=1/GPa)
#
#
# Indices 1 2 3 4 5 6 
#
# 1 0.016505 -0.004252 0.000586 0.000000 0.000000 0.000000
# 2 -0.004252 0.025352 0.003339 0.000000 0.000000 0.000000
# 3 0.000586 0.003339 0.014260 0.000000 0.000000 0.000000
# 4 0.000000 0.000000 0.000000 0.024931 0.000000 0.000000
# 5 0.000000 0.000000 0.000000 0.000000 0.043076 0.000000
# 6 0.000000 0.000000 0.000000 0.000000 0.000000 0.043347
#
#
# Mechanical properties :
#
#
# Convention : Reuss Voigt Hill
#
# Bulk Modulus (GPa) = 18.02985 18.94259 18.48622
# Shear Modulus (GPa) = 26.79346 29.51993 28.15670
#
# Velocity S-wave (km/s) = 3.58038 3.75814 3.67034
# Velocity P-wave (km/s) = 5.07133 5.28152 5.17749
#
# Compressibility (1/GPa) = 0.05546356
#
# Stress axis : x y z
#
# Youngs Moduli (GPa) = 60.58871 39.44437 70.12406
#
# Poissons Ratio (x) = 0.16773 -0.04110
# Poissons Ratio (y) = 0.25765 -0.23417
# Poissons Ratio (z) = -0.03551 -0.13172
#
# Static dielectric constant tensor:
#      x y z
#    x 1.795830 0.000000 0.000000 
#    y 0.000000 1.732450 0.000000 
#    z 0.000000 0.000000 1.707560 
# 
# From -- ./inp_files/2685.got.cif
#   From: 2010.05.17/outbox.cif.g08.bks.cpg/sg60_2_cif.got.tgz:2685.got - 2010.06.03 14:59:27.
