data_PCOD9458383
_publ_section_title
;
Structure prediction by ZEFSAII (Michael W. Deem and Ramdas Pophale) SiO2 
 PCOD9458383
Probable space group: P B C N
;
_chemical_formula_sum "Si O2"
_cell_formula_units_Z 36
_cell_length_a 5.999542
_cell_length_b 21.935817
_cell_length_c 11.285927
_cell_angle_alpha 90.000000
_cell_angle_beta 90.000000
_cell_angle_gamma 90.000000
_cell_volume 1485.282791
_symmetry_space_group_name_H-M "P B C N"
_symmetry_group_IT_number 60
_symmetry_cell_setting 'orthorhombic'
loop_
_space_group_symop_operation_xyz
x,y,z
1/2-x,1/2-y,1/2+z
1/2+x,1/2-y,-z
-x,y,1/2-z
-x,-y,-z
1/2+x,1/2+y,1/2-z
1/2-x,1/2+y,z
x,-y,1/2+z
loop_
_atom_site_type_symbol
_atom_site_label
_atom_site_fract_x
_atom_site_fract_y
_atom_site_fract_z
Si Si1 0.252615 0.562609 0.077940
Si Si2 0.505391 0.629215 0.880166
Si Si3 0.615489 0.932488 0.375992
Si Si4 0.500000 0.148922 0.250000
Si Si5 0.162496 0.253215 0.937616
O O1 0.273306 0.492527 0.115665
O O2 0.179030 0.605334 0.185745
O O3 0.442848 0.592937 0.998899
O O4 0.053679 0.562796 0.982947
O O5 0.500000 0.598183 0.750000
O O6 0.770348 0.633438 0.892301
O O7 0.355206 0.688072 0.871183
O O8 0.500000 0.936015 0.250000
O O9 0.378844 0.191946 0.346083
O O10 0.417676 0.252623 0.991184
#
# Coordination Sequence:
#
# PCOD9458383 Si02
#       5
#     8   8   8   4   8
#     4  11  24  46  69 108 149 192 252 313 386 462
#     4  12  24  43  70 104 145 193 249 311 382 460
#     4  11  23  43  74 103 148 196 249 313 388 461
#     4  12  24  48  76 112 152 200 260 326 386 466
#     4  12  28  50  75 109 154 201 254 313 385 460
#
# _framework density 24.237805999999999
#
# number of rings (size 3 to 8) (size 9 to 14) (size 15 to 20)
#    0.000    0.444    6.667    2.000    0.000    0.889 
#    4.000    0.000    0.000    0.000    0.000    0.000 
#    0.000    0.000    0.000    0.000    0.000    0.000 
#
# Total GULP energy -200617.331504 kJ/mol
# GULP energy per Si atom -5572.703653 kJ/mol
# Density = 2.418264 g / cm^3
# Si number density = 24.237806 Si / 1000 Ang^3
#
#
#
# Elastic Constant Matrix: (Units=GPa)
#
#
# Indices 1 2 3 4 5 6 
#
# 1 70.4927 42.4786 43.4594 0.0000 0.0000 0.0000
# 2 42.4786 83.4413 45.3972 0.0000 0.0000 0.0000
# 3 43.4594 45.3972 127.8199 0.0000 0.0000 0.0000
# 4 0.0000 0.0000 0.0000 49.1988 0.0000 0.0000
# 5 0.0000 0.0000 0.0000 0.0000 37.5867 0.0000
# 6 0.0000 0.0000 0.0000 0.0000 0.0000 39.1267
#
#
#
# Elastic Compliance Matrix: (Units=1/GPa)
#
#
# Indices 1 2 3 4 5 6 
#
# 1 0.022295 -0.008957 -0.004399 0.000000 0.000000 0.000000
# 2 -0.008957 0.018453 -0.003509 0.000000 0.000000 0.000000
# 3 -0.004399 -0.003509 0.010565 0.000000 0.000000 0.000000
# 4 0.000000 0.000000 0.000000 0.020326 0.000000 0.000000
# 5 0.000000 0.000000 0.000000 0.000000 0.026605 0.000000
# 6 0.000000 0.000000 0.000000 0.000000 0.000000 0.025558
#
#
# Mechanical properties :
#
#
# Convention : Reuss Voigt Hill
#
# Bulk Modulus (GPa) = 56.86810 60.49159 58.67984
# Shear Modulus (GPa) = 30.60094 35.21035 32.90564
#
# Velocity S-wave (km/s) = 3.55706 3.81557 3.68858
# Velocity P-wave (km/s) = 6.35482 6.66507 6.51179
#
# Compressibility (1/GPa) = 0.01758455
#
# Stress axis : x y z
#
# Youngs Moduli (GPa) = 44.85224 54.19159 94.64800
#
# Poissons Ratio (x) = 0.48538 0.41640
# Poissons Ratio (y) = 0.40173 0.33208
# Poissons Ratio (z) = 0.19733 0.19014
#
# Static dielectric constant tensor:
#      x y z
#    x 2.038090 0.000000 0.000000 
#    y 0.000000 2.002870 0.000000 
#    z 0.000000 0.000000 1.948910 
# 
# From -- ./inp_files/8991.got.cif
#   From: 2010.05.17/outbox.cif.g08.bks.cpg/sg60_5_cif.got.tgz:8991.got - 2010.06.03 14:59:27.
