data_PCOD9458247
_publ_section_title
;
Structure prediction by ZEFSAII (Michael W. Deem and Ramdas Pophale) SiO2 
 PCOD9458247
Probable space group: P B C N
;
_chemical_formula_sum "Si O2"
_cell_formula_units_Z 60
_cell_length_a 11.155678
_cell_length_b 9.576254
_cell_length_c 28.536127
_cell_angle_alpha 90.000000
_cell_angle_beta 90.000000
_cell_angle_gamma 90.000000
_cell_volume 3048.503206
_symmetry_space_group_name_H-M "P B C N"
_symmetry_group_IT_number 60
_symmetry_cell_setting 'orthorhombic'
loop_
_space_group_symop_operation_xyz
x,y,z
1/2-x,1/2-y,1/2+z
1/2+x,1/2-y,-z
-x,y,1/2-z
-x,-y,-z
1/2+x,1/2+y,1/2-z
1/2-x,1/2+y,z
x,-y,1/2+z
loop_
_atom_site_type_symbol
_atom_site_label
_atom_site_fract_x
_atom_site_fract_y
_atom_site_fract_z
Si Si1 0.974705 0.772426 0.878515
Si Si2 0.103942 0.867497 0.790052
Si Si3 0.983484 0.654813 0.978726
Si Si4 0.825081 0.562880 0.818243
Si Si5 0.208288 0.987614 0.590005
Si Si6 0.809052 0.161366 0.735727
Si Si7 0.214616 0.248780 0.528500
Si Si8 0.500000 0.112569 0.250000
O O1 0.074049 0.827203 0.843247
O O2 0.995175 0.666973 0.921905
O O3 0.886809 0.695457 0.841984
O O4 0.914946 0.907551 0.901748
O O5 0.185754 0.740349 0.773197
O O6 0.000000 0.880379 0.750000
O O7 0.167809 0.017928 0.790848
O O8 0.847707 0.708269 0.991019
O O9 0.000000 0.500000 0.000000
O O10 0.094510 0.749675 0.997523
O O11 0.781672 0.473078 0.862157
O O12 0.707617 0.610079 0.789399
O O13 0.918881 0.481367 0.784778
O O14 0.272359 0.903923 0.548686
O O15 0.196561 0.144959 0.572543
O O16 0.908585 0.278146 0.726125
#
# Coordination Sequence:
#
# PCOD9458247 Si02
#       8
#     8   8   8   8   8   8   8   4
#     4  11  24  40  69  97 136 178 232 286 347 418
#     4  12  24  45  63  95 136 178 230 286 341 411
#     4  11  23  48  70 105 143 179 230 296 361 424
#     4  12  21  42  64  95 134 176 231 281 337 404
#     4  11  22  41  70 102 124 179 237 279 333 427
#     4  12  25  40  65  92 135 181 223 282 345 405
#     4  11  23  43  74 102 136 176 230 286 358 422
#     4  12  26  36  66 100 130 186 228 282 348 400
#
# _framework density 19.681789999999999
#
# number of rings (size 3 to 8) (size 9 to 14) (size 15 to 20)
#    0.000    0.533    7.333    2.400    0.000    2.133 
#    2.400    1.333    0.000    0.000    0.000    0.000 
#    0.000    0.000    0.000    0.000    0.000    0.000 
#
# Total GULP energy -334395.830713 kJ/mol
# GULP energy per Si atom -5573.263845 kJ/mol
# Density = 1.963699 g / cm^3
# Si number density = 19.681790 Si / 1000 Ang^3
#
#
#
# Elastic Constant Matrix: (Units=GPa)
#
#
# Indices 1 2 3 4 5 6 
#
# 1 79.2351 38.2397 28.1037 0.0000 0.0000 0.0000
# 2 38.2397 87.7970 17.3663 0.0000 0.0000 0.0000
# 3 28.1037 17.3663 64.6598 0.0000 0.0000 0.0000
# 4 0.0000 0.0000 0.0000 29.0277 0.0000 0.0000
# 5 0.0000 0.0000 0.0000 0.0000 31.7699 0.0000
# 6 0.0000 0.0000 0.0000 0.0000 0.0000 32.2300
#
#
#
# Elastic Compliance Matrix: (Units=1/GPa)
#
#
# Indices 1 2 3 4 5 6 
#
# 1 0.017957 -0.006629 -0.006024 0.000000 0.000000 0.000000
# 2 -0.006629 0.014476 -0.001007 0.000000 0.000000 0.000000
# 3 -0.006024 -0.001007 0.018354 0.000000 0.000000 0.000000
# 4 0.000000 0.000000 0.000000 0.034450 0.000000 0.000000
# 5 0.000000 0.000000 0.000000 0.000000 0.031476 0.000000
# 6 0.000000 0.000000 0.000000 0.000000 0.000000 0.031027
#
#
# Mechanical properties :
#
#
# Convention : Reuss Voigt Hill
#
# Bulk Modulus (GPa) = 42.61314 44.34569 43.47941
# Shear Modulus (GPa) = 27.33979 28.47101 27.90540
#
# Velocity S-wave (km/s) = 3.73109 3.80750 3.76949
# Velocity P-wave (km/s) = 6.34503 6.47377 6.40972
#
# Compressibility (1/GPa) = 0.02346694
#
# Stress axis : x y z
#
# Youngs Moduli (GPa) = 55.68919 69.07767 54.48315
#
# Poissons Ratio (x) = 0.45795 0.32822
# Poissons Ratio (y) = 0.36919 0.05485
# Poissons Ratio (z) = 0.33548 0.06954
#
# Static dielectric constant tensor:
#      x y z
#    x 1.781900 0.000000 0.000000 
#    y 0.000000 1.718040 0.000000 
#    z 0.000000 0.000000 1.729420 
# 
# From -- ./inp_files/25321.got.cif
#   From: 2010.05.17/outbox.cif.g08.bks.cpg/sg60_13_cif.got.tgz:25321.got - 2010.06.03 14:59:27.
