data_PCOD9458735
_publ_section_title
;
Structure prediction by ZEFSAII (Michael W. Deem and Ramdas Pophale) SiO2 
 PCOD9458735
Probable space group: P B C N
;
_chemical_formula_sum "Si O2"
_cell_formula_units_Z 48
_cell_length_a 16.052267
_cell_length_b 14.101778
_cell_length_c 8.922628
_cell_angle_alpha 90.000000
_cell_angle_beta 90.000000
_cell_angle_gamma 90.000000
_cell_volume 2019.775199
_symmetry_space_group_name_H-M "P B C N"
_symmetry_group_IT_number 60
_symmetry_cell_setting 'orthorhombic'
loop_
_space_group_symop_operation_xyz
x,y,z
1/2-x,1/2-y,1/2+z
1/2+x,1/2-y,-z
-x,y,1/2-z
-x,-y,-z
1/2+x,1/2+y,1/2-z
1/2-x,1/2+y,z
x,-y,1/2+z
loop_
_atom_site_type_symbol
_atom_site_label
_atom_site_fract_x
_atom_site_fract_y
_atom_site_fract_z
Si Si1 0.500000 0.238994 0.750000
Si Si2 0.332338 0.564745 0.300965
Si Si3 0.817466 0.452225 0.113916
Si Si4 0.267808 0.784848 0.609049
Si Si5 0.500000 0.545757 0.750000
Si Si6 0.586216 0.334763 0.475038
Si Si7 0.627925 0.873469 0.410935
O O1 0.564347 0.297768 0.644142
O O2 0.455939 0.187006 0.607639
O O3 0.263973 0.483346 0.296183
O O4 0.281889 0.654016 0.232405
O O5 0.418845 0.520391 0.243290
O O6 0.349672 0.583254 0.476190
O O7 0.876315 0.416712 0.244051
O O8 0.789675 0.364088 0.013768
O O9 0.858009 0.539911 0.024384
O O10 0.358992 0.735548 0.628518
O O11 0.202280 0.702400 0.567709
O O12 0.490894 0.616356 0.607943
#
# Coordination Sequence:
#
# PCOD9458735 Si02
#       7
#     4   8   8   8   4   8   8
#     4  12  27  48  73 110 154 202 258 325 399 456
#     4  12  24  45  77 111 151 195 259 326 380 467
#     4  12  25  47  73 111 144 202 261 313 384 474
#     4  12  24  47  77 108 149 203 261 308 393 477
#     4  12  29  46  75 122 160 198 260 337 409 464
#     4  12  26  48  73 113 152 207 249 321 406 469
#     4  12  27  47  75 106 151 198 257 323 388 471
#
# _framework density 23.765021999999998
#
# number of rings (size 3 to 8) (size 9 to 14) (size 15 to 20)
#    0.000    0.000    6.667    3.000    2.333    2.000 
#    0.000    0.000    0.000    0.000    0.000    0.000 
#    0.000    0.000    0.000    0.000    0.000    0.000 
#
# Total GULP energy -267529.590343 kJ/mol
# GULP energy per Si atom -5573.533132 kJ/mol
# Density = 2.371093 g / cm^3
# Si number density = 23.765022 Si / 1000 Ang^3
#
#
#
# Elastic Constant Matrix: (Units=GPa)
#
#
# Indices 1 2 3 4 5 6 
#
# 1 81.3720 27.7005 22.0061 0.0000 0.0000 0.0000
# 2 27.7005 115.4015 30.6717 0.0000 0.0000 0.0000
# 3 22.0061 30.6717 78.1784 0.0000 0.0000 0.0000
# 4 0.0000 0.0000 0.0000 -37.5041 0.0000 0.0000
# 5 0.0000 0.0000 0.0000 0.0000 35.1298 0.0000
# 6 0.0000 0.0000 0.0000 0.0000 0.0000 10.5892
#
#
#
# Elastic Compliance Matrix: (Units=1/GPa)
#
#
# Indices 1 2 3 4 5 6 
#
# 1 0.013955 -0.002574 -0.002918 0.000000 0.000000 0.000000
# 2 -0.002574 0.010149 -0.003257 0.000000 0.000000 0.000000
# 3 -0.002918 -0.003257 0.014891 0.000000 0.000000 0.000000
# 4 0.000000 0.000000 0.000000 -0.026664 0.000000 0.000000
# 5 0.000000 0.000000 0.000000 0.000000 0.028466 0.000000
# 6 0.000000 0.000000 0.000000 0.000000 0.000000 0.094436
#
#
# Mechanical properties :
#
#
# Convention : Reuss Voigt Hill
#
# Bulk Modulus (GPa) = 46.52150 48.41205 47.46678
# Shear Modulus (GPa) = 31.27024 14.61454 22.94239
#
# Velocity S-wave (km/s) = 3.63134 2.48253 3.11043
# Velocity P-wave (km/s) = 6.09921 5.35095 5.73729
#
# Compressibility (1/GPa) = 0.02149544
#
# Stress axis : x y z
#
# Youngs Moduli (GPa) = 71.66058 98.53224 67.15653
#
# Poissons Ratio (x) = 0.25362 0.19597
# Poissons Ratio (y) = 0.18446 0.21874
# Poissons Ratio (z) = 0.20912 0.32094
#
# Static dielectric constant tensor:
#      x y z
#    x 1.893120 0.000000 0.000000 
#    y 0.000000 1.963880 0.000000 
#    z 0.000000 0.000000 1.925510 
# 
# From -- ./inp_files/6752.got.cif
#   From: 2010.05.17/outbox.cif.g08.bks.cpg/sg60_4_cif.got.tgz:6752.got - 2010.06.03 14:59:27.
