data_PCOD9458303
_publ_section_title
;
Structure prediction by ZEFSAII (Michael W. Deem and Ramdas Pophale) SiO2 
 PCOD9458303
Probable space group: P B C N
;
_chemical_formula_sum "Si O2"
_cell_formula_units_Z 32
_cell_length_a 20.014378
_cell_length_b 6.743458
_cell_length_c 8.707381
_cell_angle_alpha 90.000000
_cell_angle_beta 90.000000
_cell_angle_gamma 90.000000
_cell_volume 1175.201407
_symmetry_space_group_name_H-M "P B C N"
_symmetry_group_IT_number 60
_symmetry_cell_setting 'orthorhombic'
loop_
_space_group_symop_operation_xyz
x,y,z
1/2-x,1/2-y,1/2+z
1/2+x,1/2-y,-z
-x,y,1/2-z
-x,-y,-z
1/2+x,1/2+y,1/2-z
1/2-x,1/2+y,z
x,-y,1/2+z
loop_
_atom_site_type_symbol
_atom_site_label
_atom_site_fract_x
_atom_site_fract_y
_atom_site_fract_z
Si Si1 0.538616 0.198377 0.590444
Si Si2 0.441232 0.347981 0.368809
Si Si3 0.812055 0.093529 0.806635
Si Si4 0.818664 0.717020 0.639868
O O1 0.500000 0.178406 0.750000
O O2 0.476982 0.182930 0.472441
O O3 0.563848 0.431589 0.556922
O O4 0.612427 0.107110 0.602142
O O5 0.500000 0.383258 0.250000
O O6 0.372641 0.299146 0.282495
O O7 0.744432 0.100594 0.706231
O O8 0.833906 0.865018 0.784545
O O9 0.800542 0.176866 0.976704
#
# Coordination Sequence:
#
# PCOD9458303 Si02
#       4
#     8   8   8   8
#     4   9  18  29  53  80 110 138 186 232 280 321
#     4   9  16  31  51  80 107 139 180 236 275 323
#     4  11  23  37  59  83 118 149 190 229 285 334
#     4  11  23  38  57  86 115 153 186 232 281 338
#
# _framework density 27.229375999999998
#
# number of rings (size 3 to 8) (size 9 to 14) (size 15 to 20)
#    0.000    2.000    2.500    1.500   14.000    0.000 
#    0.000    0.000    0.000    3.000    0.000    0.000 
#    0.000    0.000    0.000    0.000    0.000    0.000 
#
# Total GULP energy -178639.404463 kJ/mol
# GULP energy per Si atom -5582.481389 kJ/mol
# Density = 2.716740 g / cm^3
# Si number density = 27.229376 Si / 1000 Ang^3
#
#
#
# Elastic Constant Matrix: (Units=GPa)
#
#
# Indices 1 2 3 4 5 6 
#
# 1 208.6777 11.2836 44.6659 0.0000 0.0000 0.0000
# 2 11.2836 28.3571 -19.1784 0.0000 0.0000 0.0000
# 3 44.6659 -19.1784 99.5284 0.0000 0.0000 0.0000
# 4 0.0000 0.0000 0.0000 -8.0179 0.0000 0.0000
# 5 0.0000 0.0000 0.0000 0.0000 46.1064 0.0000
# 6 0.0000 0.0000 0.0000 0.0000 0.0000 49.9151
#
#
#
# Elastic Compliance Matrix: (Units=1/GPa)
#
#
# Indices 1 2 3 4 5 6 
#
# 1 0.005794 -0.004673 -0.003501 0.000000 0.000000 0.000000
# 2 -0.004673 0.044318 0.010637 0.000000 0.000000 0.000000
# 3 -0.003501 0.010637 0.013668 0.000000 0.000000 0.000000
# 4 0.000000 0.000000 0.000000 -0.124721 0.000000 0.000000
# 5 0.000000 0.000000 0.000000 0.000000 0.021689 0.000000
# 6 0.000000 0.000000 0.000000 0.000000 0.000000 0.020034
#
#
# Mechanical properties :
#
#
# Convention : Reuss Voigt Hill
#
# Bulk Modulus (GPa) = 14.55467 45.56726 30.06096
# Shear Modulus (GPa) = -4026.86700 37.58685 -1994.64007
#
# Velocity S-wave (km/s) = -38.49778 3.71938 -27.09470
# Velocity P-wave (km/s) = 44.39312 5.93430 31.10894
#
# Compressibility (1/GPa) = 0.06870647
#
# Stress axis : x y z
#
# Youngs Moduli (GPa) = 172.59043 22.56417 73.16309
#
# Poissons Ratio (x) = 0.10545 0.25612
# Poissons Ratio (y) = 0.80654 -0.77823
# Poissons Ratio (z) = 0.60419 -0.24001
#
# Static dielectric constant tensor:
#      x y z
#    x 2.131220 0.000000 0.000000 
#    y 0.000000 2.377210 0.000000 
#    z 0.000000 0.000000 2.155630 
# 
# From -- ./inp_files/5530.got.cif
#   From: 2010.05.17/outbox.cif.g08.bks.cpg/sg60_3_cif.got.tgz:5530.got - 2010.06.03 14:59:27.
