data_PCOD9458798
_publ_section_title
;
Structure prediction by ZEFSAII (Michael W. Deem and Ramdas Pophale) SiO2 
 PCOD9458798
Probable space group: P B C N
;
_chemical_formula_sum "Si O2"
_cell_formula_units_Z 28
_cell_length_a 5.343746
_cell_length_b 28.752666
_cell_length_c 7.860055
_cell_angle_alpha 90.000000
_cell_angle_beta 90.000000
_cell_angle_gamma 90.000000
_cell_volume 1207.673430
_symmetry_space_group_name_H-M "P B C N"
_symmetry_group_IT_number 60
_symmetry_cell_setting 'orthorhombic'
loop_
_space_group_symop_operation_xyz
x,y,z
1/2-x,1/2-y,1/2+z
1/2+x,1/2-y,-z
-x,y,1/2-z
-x,-y,-z
1/2+x,1/2+y,1/2-z
1/2-x,1/2+y,z
x,-y,1/2+z
loop_
_atom_site_type_symbol
_atom_site_label
_atom_site_fract_x
_atom_site_fract_y
_atom_site_fract_z
Si Si1 0.500000 0.268936 0.250000
Si Si2 0.584872 0.200595 0.932205
Si Si3 0.053984 0.946784 0.050751
Si Si4 0.562270 0.103701 0.444682
O O1 0.631028 0.305523 0.379000
O O2 0.430317 0.232165 0.401620
O O3 0.500000 0.223959 0.750000
O O4 0.449522 0.152341 0.956195
O O5 0.000000 0.941484 0.250000
O O6 0.336518 0.929834 0.009831
O O7 0.836846 0.917785 0.957417
O O8 0.000000 0.000000 0.000000
O O9 0.500000 0.114301 0.250000
#
# Coordination Sequence:
#
# PCOD9458798 Si02
#       4
#     4   8   8   8
#     4  12  26  46  72 102 142 196 246 310 370 446
#     4  12  26  46  71 106 146 190 251 305 375 434
#     4  12  26  49  76 109 147 193 241 302 374 446
#     4  12  27  47  75 110 148 194 245 307 367 444
#
# _framework density 23.185077
#
# number of rings (size 3 to 8) (size 9 to 14) (size 15 to 20)
#    0.000    0.000    4.286    6.000    6.000    0.000 
#    5.143    0.000    0.000    0.000    0.000    0.000 
#    0.000    0.000    0.000    0.000    0.000    0.000 
#
# Total GULP energy -156099.790265 kJ/mol
# GULP energy per Si atom -5574.992509 kJ/mol
# Density = 2.313231 g / cm^3
# Si number density = 23.185077 Si / 1000 Ang^3
#
#
#
# Elastic Constant Matrix: (Units=GPa)
#
#
# Indices 1 2 3 4 5 6 
#
# 1 52.1402 35.6014 3.0307 0.0000 0.0000 0.0000
# 2 35.6014 50.4051 -6.4573 0.0000 0.0000 0.0000
# 3 3.0307 -6.4573 159.8498 0.0000 0.0000 0.0000
# 4 0.0000 0.0000 0.0000 31.1439 0.0000 0.0000
# 5 0.0000 0.0000 0.0000 0.0000 45.2714 0.0000
# 6 0.0000 0.0000 0.0000 0.0000 0.0000 28.8063
#
#
#
# Elastic Compliance Matrix: (Units=1/GPa)
#
#
# Indices 1 2 3 4 5 6 
#
# 1 0.037548 -0.026750 -0.001793 0.000000 0.000000 0.000000
# 2 -0.026750 0.039000 0.002083 0.000000 0.000000 0.000000
# 3 -0.001793 0.002083 0.006374 0.000000 0.000000 0.000000
# 4 0.000000 0.000000 0.000000 0.032109 0.000000 0.000000
# 5 0.000000 0.000000 0.000000 0.000000 0.022089 0.000000
# 6 0.000000 0.000000 0.000000 0.000000 0.000000 0.034715
#
#
# Mechanical properties :
#
#
# Convention : Reuss Voigt Hill
#
# Bulk Modulus (GPa) = 33.33115 36.30498 34.81807
# Shear Modulus (GPa) = 21.29872 36.39235 28.84553
#
# Velocity S-wave (km/s) = 3.03419 3.96617 3.53107
# Velocity P-wave (km/s) = 5.16551 6.05531 5.62802
#
# Compressibility (1/GPa) = 0.03000197
#
# Stress axis : x y z
#
# Youngs Moduli (GPa) = 26.63231 25.64106 156.88773
#
# Poissons Ratio (x) = 0.68591 0.28122
# Poissons Ratio (y) = 0.71242 -0.32674
# Poissons Ratio (z) = 0.04774 -0.05340
#
# Static dielectric constant tensor:
#      x y z
#    x 7.382550 0.000000 0.000000 
#    y 0.000000 1.862250 0.000000 
#    z 0.000000 0.000000 1.881560 
# 
# From -- ./inp_files/2944.got.cif
#   From: 2010.05.17/outbox.cif.g08.bks.cpg/sg60_2_cif.got.tgz:2944.got - 2010.06.03 14:59:27.
