data_PCOD9458685
_publ_section_title
;
Structure prediction by ZEFSAII (Michael W. Deem and Ramdas Pophale) SiO2 
 PCOD9458685
Probable space group: P B C N
;
_chemical_formula_sum "Si O2"
_cell_formula_units_Z 36
_cell_length_a 8.844875
_cell_length_b 19.573750
_cell_length_c 8.922912
_cell_angle_alpha 90.000000
_cell_angle_beta 90.000000
_cell_angle_gamma 90.000000
_cell_volume 1544.800305
_symmetry_space_group_name_H-M "P B C N"
_symmetry_group_IT_number 60
_symmetry_cell_setting 'orthorhombic'
loop_
_space_group_symop_operation_xyz
x,y,z
1/2-x,1/2-y,1/2+z
1/2+x,1/2-y,-z
-x,y,1/2-z
-x,-y,-z
1/2+x,1/2+y,1/2-z
1/2-x,1/2+y,z
x,-y,1/2+z
loop_
_atom_site_type_symbol
_atom_site_label
_atom_site_fract_x
_atom_site_fract_y
_atom_site_fract_z
Si Si1 0.668116 0.073641 0.788675
Si Si2 0.043768 0.823983 0.588227
Si Si3 0.750215 0.556968 0.451580
Si Si4 0.790172 0.695496 0.998505
Si Si5 0.500000 0.869221 0.750000
O O1 0.500000 0.048835 0.750000
O O2 0.748912 0.069459 0.628984
O O3 0.653304 0.147594 0.863327
O O4 0.745861 0.022204 0.906419
O O5 0.108188 0.899764 0.605460
O O6 0.172004 0.774701 0.523072
O O7 0.000000 0.796143 0.750000
O O8 0.888171 0.818078 0.499924
O O9 0.898176 0.588558 0.368775
O O10 0.879130 0.672038 0.148580
#
# Coordination Sequence:
#
# PCOD9458685 Si02
#       5
#     8   8   8   8   4
#     4  12  25  47  79 111 148 200 252 305 374 450
#     4  12  29  49  74 111 152 194 250 311 373 447
#     4  12  26  46  76 111 148 199 252 307 374 443
#     4  12  28  48  77 109 149 198 249 306 376 444
#     4  12  22  46  76 108 148 194 248 308 370 444
#
# _framework density 23.303982999999999
#
# number of rings (size 3 to 8) (size 9 to 14) (size 15 to 20)
#    0.000    0.000    5.556    4.000    3.111    1.778 
#    0.000    0.000    0.000    0.000    0.000    0.000 
#    0.000    0.000    0.000    0.000    0.000    0.000 
#
# Total GULP energy -201511.178849 kJ/mol
# GULP energy per Si atom -5597.532746 kJ/mol
# Density = 2.325094 g / cm^3
# Si number density = 23.303983 Si / 1000 Ang^3
#
#
#
# Elastic Constant Matrix: (Units=GPa)
#
#
# Indices 1 2 3 4 5 6 
#
# 1 104.3681 18.4968 -14.3653 0.0000 0.0000 0.0000
# 2 18.4968 75.8675 9.2455 0.0000 0.0000 0.0000
# 3 -14.3653 9.2455 96.9230 0.0000 0.0000 0.0000
# 4 0.0000 0.0000 0.0000 -88.4991 0.0000 0.0000
# 5 0.0000 0.0000 0.0000 0.0000 31.5926 0.0000
# 6 0.0000 0.0000 0.0000 0.0000 0.0000 -15.1543
#
#
#
# Elastic Compliance Matrix: (Units=1/GPa)
#
#
# Indices 1 2 3 4 5 6 
#
# 1 0.010312 -0.002732 0.001789 0.000000 0.000000 0.000000
# 2 -0.002732 0.014060 -0.001746 0.000000 0.000000 0.000000
# 3 0.001789 -0.001746 0.010749 0.000000 0.000000 0.000000
# 4 0.000000 0.000000 0.000000 -0.011300 0.000000 0.000000
# 5 0.000000 0.000000 0.000000 0.000000 0.031653 0.000000
# 6 0.000000 0.000000 0.000000 0.000000 0.000000 -0.065988
#
#
# Mechanical properties :
#
#
# Convention : Reuss Voigt Hill
#
# Bulk Modulus (GPa) = 33.62201 33.76806 33.69503
# Shear Modulus (GPa) = 1046.25082 3.17328 524.71205
#
# Velocity S-wave (km/s) = 21.21161 1.16818 15.02161
# Velocity P-wave (km/s) = 24.78647 4.04243 17.75824
#
# Compressibility (1/GPa) = 0.02974243
#
# Stress axis : x y z
#
# Youngs Moduli (GPa) = 96.97523 71.12497 93.03039
#
# Poissons Ratio (x) = 0.19432 -0.16643
# Poissons Ratio (y) = 0.26495 0.16244
# Poissons Ratio (z) = -0.17349 0.12419
#
# Static dielectric constant tensor:
#      x y z
#    x 1.789540 0.000000 0.000000 
#    y 0.000000 1.835840 0.000000 
#    z 0.000000 0.000000 1.982830 
# 
# From -- ./inp_files/3680.got.cif
#   From: 2010.05.17/outbox.cif.g08.bks.cpg/sg60_2_cif.got.tgz:3680.got - 2010.06.03 14:59:27.
