data_PCOD9458498
_publ_section_title
;
Structure prediction by ZEFSAII (Michael W. Deem and Ramdas Pophale) SiO2 
 PCOD9458498
Probable space group: P B C N
;
_chemical_formula_sum "Si O2"
_cell_formula_units_Z 60
_cell_length_a 11.094598
_cell_length_b 18.103402
_cell_length_c 14.660552
_cell_angle_alpha 90.000000
_cell_angle_beta 90.000000
_cell_angle_gamma 90.000000
_cell_volume 2944.571395
_symmetry_space_group_name_H-M "P B C N"
_symmetry_group_IT_number 60
_symmetry_cell_setting 'orthorhombic'
loop_
_space_group_symop_operation_xyz
x,y,z
1/2-x,1/2-y,1/2+z
1/2+x,1/2-y,-z
-x,y,1/2-z
-x,-y,-z
1/2+x,1/2+y,1/2-z
1/2-x,1/2+y,z
x,-y,1/2+z
loop_
_atom_site_type_symbol
_atom_site_label
_atom_site_fract_x
_atom_site_fract_y
_atom_site_fract_z
Si Si1 0.061802 0.557331 0.846842
Si Si2 0.596531 0.315912 0.930670
Si Si3 0.000000 0.184220 0.750000
Si Si4 0.975999 0.660000 0.000105
Si Si5 0.564134 0.553371 0.153950
Si Si6 0.162165 0.603862 0.340683
Si Si7 0.349573 0.193357 0.156591
Si Si8 0.662518 0.401021 0.111791
O O1 0.983910 0.594639 0.926771
O O2 0.080423 0.469188 0.851675
O O3 0.198217 0.586704 0.861519
O O4 0.000000 0.575187 0.750000
O O5 0.596385 0.363027 0.195890
O O6 0.648708 0.349055 0.024554
O O7 0.528282 0.239373 0.951199
O O8 0.708826 0.297896 0.864523
O O9 0.925194 0.233090 0.822350
O O10 0.089080 0.656583 0.068691
O O11 0.863032 0.651606 0.068806
O O12 0.500000 0.534515 0.250000
O O13 0.698970 0.582626 0.168796
O O14 0.590694 0.478411 0.097470
O O15 0.486604 0.618980 0.109562
O O16 0.133433 0.646280 0.248069
#
# Coordination Sequence:
#
# PCOD9458498 Si02
#       8
#     8   8   4   8   8   8   8   8
#     4  11  26  46  68 101 138 180 232 288 342 407
#     4  12  26  43  67 102 139 176 226 278 339 415
#     4  12  24  42  72  98 134 178 234 278 342 408
#     4  12  25  43  70 100 139 180 226 279 345 407
#     4  11  24  45  69  99 134 178 225 284 337 402
#     4  11  24  46  72  99 135 180 231 280 346 410
#     4  12  23  42  70  99 137 182 220 285 340 403
#     4  11  24  46  69  97 136 179 232 283 336 407
#
# _framework density 20.376480000000001
#
# number of rings (size 3 to 8) (size 9 to 14) (size 15 to 20)
#    0.000    0.533    6.000    1.600    3.733    1.600 
#    0.000    0.000    0.000    0.000    0.000    0.000 
#    0.000    0.000    0.000    0.000    0.000    0.000 
#
# Total GULP energy -335264.332972 kJ/mol
# GULP energy per Si atom -5587.738883 kJ/mol
# Density = 2.033010 g / cm^3
# Si number density = 20.376480 Si / 1000 Ang^3
#
#
#
# Elastic Constant Matrix: (Units=GPa)
#
#
# Indices 1 2 3 4 5 6 
#
# 1 81.1175 16.0284 19.7043 0.0000 0.0000 0.0000
# 2 16.0284 57.6300 21.2214 0.0000 0.0000 0.0000
# 3 19.7043 21.2214 91.8453 0.0000 0.0000 0.0000
# 4 0.0000 0.0000 0.0000 37.0085 0.0000 0.0000
# 5 0.0000 0.0000 0.0000 0.0000 29.3620 0.0000
# 6 0.0000 0.0000 0.0000 0.0000 0.0000 11.4943
#
#
#
# Elastic Compliance Matrix: (Units=1/GPa)
#
#
# Indices 1 2 3 4 5 6 
#
# 1 0.013442 -0.002926 -0.002208 0.000000 0.000000 0.000000
# 2 -0.002926 0.019602 -0.003902 0.000000 0.000000 0.000000
# 3 -0.002208 -0.003902 0.012263 0.000000 0.000000 0.000000
# 4 0.000000 0.000000 0.000000 0.027021 0.000000 0.000000
# 5 0.000000 0.000000 0.000000 0.000000 0.034058 0.000000
# 6 0.000000 0.000000 0.000000 0.000000 0.000000 0.087000
#
#
# Mechanical properties :
#
#
# Convention : Reuss Voigt Hill
#
# Bulk Modulus (GPa) = 36.71408 38.27789 37.49599
# Shear Modulus (GPa) = 22.67210 27.14886 24.91048
#
# Velocity S-wave (km/s) = 3.33928 3.65411 3.50024
# Velocity P-wave (km/s) = 5.73800 6.05223 5.89721
#
# Compressibility (1/GPa) = 0.02723751
#
# Stress axis : x y z
#
# Youngs Moduli (GPa) = 74.39265 51.01393 81.54581
#
# Poissons Ratio (x) = 0.14925 0.18004
# Poissons Ratio (y) = 0.21764 0.31816
# Poissons Ratio (z) = 0.16425 0.19904
#
# Static dielectric constant tensor:
#      x y z
#    x 1.714640 0.000000 0.000000 
#    y 0.000000 1.738970 0.000000 
#    z 0.000000 0.000000 1.705910 
# 
# From -- ./inp_files/11246.got.cif
#   From: 2010.05.17/outbox.cif.g08.bks.cpg/sg60_6_cif.got.tgz:11246.got - 2010.06.03 14:59:27.
