data_PCOD9458150
_publ_section_title
;
Structure prediction by ZEFSAII (Michael W. Deem and Ramdas Pophale) SiO2 
 PCOD9458150
Probable space group: P B C N
;
_chemical_formula_sum "Si O2"
_cell_formula_units_Z 64
_cell_length_a 13.957253
_cell_length_b 14.721615
_cell_length_c 13.827197
_cell_angle_alpha 90.000000
_cell_angle_beta 90.000000
_cell_angle_gamma 90.000000
_cell_volume 2841.119868
_symmetry_space_group_name_H-M "P B C N"
_symmetry_group_IT_number 60
_symmetry_cell_setting 'orthorhombic'
loop_
_space_group_symop_operation_xyz
x,y,z
1/2-x,1/2-y,1/2+z
1/2+x,1/2-y,-z
-x,y,1/2-z
-x,-y,-z
1/2+x,1/2+y,1/2-z
1/2-x,1/2+y,z
x,-y,1/2+z
loop_
_atom_site_type_symbol
_atom_site_label
_atom_site_fract_x
_atom_site_fract_y
_atom_site_fract_z
Si Si1 0.758315 0.681400 0.885241
Si Si2 0.318902 0.508102 0.322284
Si Si3 0.892733 0.824451 0.225096
Si Si4 0.083747 0.755965 0.485026
Si Si5 0.119742 0.821435 0.935037
Si Si6 0.168122 0.377134 0.404425
Si Si7 0.137104 0.517294 0.722524
Si Si8 0.031050 0.417041 0.566048
O O1 0.820341 0.595271 0.848187
O O2 0.936123 0.547059 0.331242
O O3 0.835092 0.748834 0.933511
O O4 0.685815 0.657783 0.971985
O O5 0.382314 0.433949 0.266273
O O6 0.374186 0.591080 0.367371
O O7 0.259659 0.443751 0.398306
O O8 0.230233 0.539704 0.255975
O O9 0.880560 0.801603 0.112887
O O10 0.810210 0.788204 0.296585
O O11 0.000000 0.794231 0.250000
O O12 0.987800 0.800494 0.528899
O O13 0.051295 0.656860 0.445859
O O14 0.163288 0.730711 0.884216
O O15 0.106144 0.425888 0.318501
O O16 0.124244 0.379619 0.510726
O O17 0.000000 0.500000 0.500000
#
# Coordination Sequence:
#
# PCOD9458150 Si02
#       8
#     8   8   8   8   8   8   8   8
#     4  11  22  44  73 101 150 191 239 312 368 441
#     4   9  22  43  73  97 147 201 237 305 366 440
#     4  11  23  49  72 106 147 195 247 304 372 445
#     4  11  25  42  76 113 141 197 247 313 375 447
#     4  11  22  45  73 106 150 193 253 298 376 453
#     4   9  22  42  63 105 145 189 241 309 367 433
#     4   9  21  43  66 102 141 202 234 308 377 432
#     4  11  21  42  66 104 147 184 247 303 377 441
#
# _framework density 22.526329
#
# number of rings (size 3 to 8) (size 9 to 14) (size 15 to 20)
#    0.750    1.000    2.500    1.500    0.000    1.000 
#   11.250    1.250    0.000    0.000    0.000    0.000 
#    0.000    0.000    0.000    0.000    0.000    0.000 
#
# Total GULP energy -356953.829560 kJ/mol
# GULP energy per Si atom -5577.403587 kJ/mol
# Density = 2.247506 g / cm^3
# Si number density = 22.526329 Si / 1000 Ang^3
#
#
#
# Elastic Constant Matrix: (Units=GPa)
#
#
# Indices 1 2 3 4 5 6 
#
# 1 115.6581 31.6300 57.0338 0.0000 0.0000 0.0000
# 2 31.6300 93.5047 43.4701 0.0000 0.0000 0.0000
# 3 57.0338 43.4701 113.2305 0.0000 0.0000 0.0000
# 4 0.0000 0.0000 0.0000 31.4394 0.0000 0.0000
# 5 0.0000 0.0000 0.0000 0.0000 47.2641 0.0000
# 6 0.0000 0.0000 0.0000 0.0000 0.0000 15.8730
#
#
#
# Elastic Compliance Matrix: (Units=1/GPa)
#
#
# Indices 1 2 3 4 5 6 
#
# 1 0.011669 -0.001479 -0.005310 0.000000 0.000000 0.000000
# 2 -0.001479 0.013205 -0.004325 0.000000 0.000000 0.000000
# 3 -0.005310 -0.004325 0.013167 0.000000 0.000000 0.000000
# 4 0.000000 0.000000 0.000000 0.031807 0.000000 0.000000
# 5 0.000000 0.000000 0.000000 0.000000 0.021158 0.000000
# 6 0.000000 0.000000 0.000000 0.000000 0.000000 0.063000
#
#
# Mechanical properties :
#
#
# Convention : Reuss Voigt Hill
#
# Bulk Modulus (GPa) = 63.23539 65.18456 64.20998
# Shear Modulus (GPa) = 27.54756 31.59928 29.57342
#
# Velocity S-wave (km/s) = 3.50080 3.74942 3.62724
# Velocity P-wave (km/s) = 6.66885 6.90971 6.79035
#
# Compressibility (1/GPa) = 0.01581393
#
# Stress axis : x y z
#
# Youngs Moduli (GPa) = 85.69687 75.72611 75.95032
#
# Poissons Ratio (x) = 0.11198 0.40329
# Poissons Ratio (y) = 0.12672 0.32848
# Poissons Ratio (z) = 0.45505 0.32751
#
# Static dielectric constant tensor:
#      x y z
#    x 1.960510 0.000000 0.000000 
#    y 0.000000 1.860990 0.000000 
#    z 0.000000 0.000000 1.865850 
# 
# From -- ./inp_files/17059.got.cif
#   From: 2010.05.17/outbox.cif.g08.bks.cpg/sg60_9_cif.got.tgz:17059.got - 2010.06.03 14:59:27.
