data_PCOD9458569
_publ_section_title
;
Structure prediction by ZEFSAII (Michael W. Deem and Ramdas Pophale) SiO2 
 PCOD9458569
Probable space group: P B C N
;
_chemical_formula_sum "Si O2"
_cell_formula_units_Z 36
_cell_length_a 7.919487
_cell_length_b 24.266563
_cell_length_c 7.917695
_cell_angle_alpha 90.000000
_cell_angle_beta 90.000000
_cell_angle_gamma 90.000000
_cell_volume 1521.612571
_symmetry_space_group_name_H-M "P B C N"
_symmetry_group_IT_number 60
_symmetry_cell_setting 'orthorhombic'
loop_
_space_group_symop_operation_xyz
x,y,z
1/2-x,1/2-y,1/2+z
1/2+x,1/2-y,-z
-x,y,1/2-z
-x,-y,-z
1/2+x,1/2+y,1/2-z
1/2-x,1/2+y,z
x,-y,1/2+z
loop_
_atom_site_type_symbol
_atom_site_label
_atom_site_fract_x
_atom_site_fract_y
_atom_site_fract_z
Si Si1 0.679259 0.524814 0.967813
Si Si2 0.000000 0.116012 0.750000
Si Si3 0.302322 0.194421 0.294543
Si Si4 0.190619 0.420558 0.697820
Si Si5 0.311395 0.186807 0.700316
O O1 0.632926 0.572382 0.835508
O O2 0.794379 0.471129 0.932089
O O3 0.500000 0.500000 0.000000
O O4 0.727245 0.553907 0.138144
O O5 0.152200 0.158703 0.797097
O O6 0.500000 0.204909 0.250000
O O7 0.240562 0.141503 0.183909
O O8 0.288783 0.181597 0.496018
O O9 0.200461 0.248910 0.248393
O O10 0.000000 0.411335 0.750000
O O11 0.500000 0.165711 0.750000
#
# Coordination Sequence:
#
# PCOD9458569 Si02
#       5
#     8   4   8   8   8
#     4  12  24  46  70 103 144 191 233 300 366 430
#     4  12  26  46  72 106 152 178 254 292 366 438
#     4  11  25  49  71 108 147 190 249 299 366 439
#     4  11  25  45  73 105 142 188 246 300 363 438
#     4  12  27  47  76 105 148 196 241 305 366 434
#
# _framework density 23.659109999999998
#
# number of rings (size 3 to 8) (size 9 to 14) (size 15 to 20)
#    0.000    0.444    5.556    2.000    0.000    8.000 
#    0.000    0.000    0.000    0.000    0.000    0.000 
#    0.000    0.000    0.000    0.000    0.000    0.000 
#
# Total GULP energy -200486.196949 kJ/mol
# GULP energy per Si atom -5569.061026 kJ/mol
# Density = 2.360526 g / cm^3
# Si number density = 23.659110 Si / 1000 Ang^3
#
#
#
# Elastic Constant Matrix: (Units=GPa)
#
#
# Indices 1 2 3 4 5 6 
#
# 1 80.4999 21.6466 4.3615 0.0000 0.0000 0.0000
# 2 21.6466 145.5742 -8.2996 0.0000 0.0000 0.0000
# 3 4.3615 -8.2996 48.4971 0.0000 0.0000 0.0000
# 4 0.0000 0.0000 0.0000 2.5636 0.0000 0.0000
# 5 0.0000 0.0000 0.0000 0.0000 23.0918 0.0000
# 6 0.0000 0.0000 0.0000 0.0000 0.0000 28.2150
#
#
#
# Elastic Compliance Matrix: (Units=1/GPa)
#
#
# Indices 1 2 3 4 5 6 
#
# 1 0.013050 -0.002027 -0.001521 0.000000 0.000000 0.000000
# 2 -0.002027 0.007252 0.001423 0.000000 0.000000 0.000000
# 3 -0.001521 0.001423 0.021000 0.000000 0.000000 0.000000
# 4 0.000000 0.000000 0.000000 0.390082 0.000000 0.000000
# 5 0.000000 0.000000 0.000000 0.000000 0.043305 0.000000
# 6 0.000000 0.000000 0.000000 0.000000 0.000000 0.035442
#
#
# Mechanical properties :
#
#
# Convention : Reuss Voigt Hill
#
# Bulk Modulus (GPa) = 26.98819 34.44313 30.71566
# Shear Modulus (GPa) = 9.49250 27.89825 18.69538
#
# Velocity S-wave (km/s) = 2.00522 3.43764 2.81410
# Velocity P-wave (km/s) = 4.09794 5.50874 4.85486
#
# Compressibility (1/GPa) = 0.03705324
#
# Stress axis : x y z
#
# Youngs Moduli (GPa) = 76.62906 137.89416 47.61877
#
# Poissons Ratio (x) = 0.27954 0.07241
# Poissons Ratio (y) = 0.15534 -0.06778
# Poissons Ratio (z) = 0.11652 -0.19628
#
# Static dielectric constant tensor:
#      x y z
#    x 1.881120 0.000000 0.000000 
#    y 0.000000 1.889720 0.000000 
#    z 0.000000 0.000000 2.003610 
# 
# From -- ./inp_files/3681.got.cif
#   From: 2010.05.17/outbox.cif.g08.bks.cpg/sg60_2_cif.got.tgz:3681.got - 2010.06.03 14:59:27.
