data_PCOD9458050
_publ_section_title
;
Structure prediction by ZEFSAII (Michael W. Deem and Ramdas Pophale) SiO2 
 PCOD9458050
Probable space group: P B C N
;
_chemical_formula_sum "Si O2"
_cell_formula_units_Z 56
_cell_length_a 16.615220
_cell_length_b 15.362475
_cell_length_c 10.094931
_cell_angle_alpha 90.000000
_cell_angle_beta 90.000000
_cell_angle_gamma 90.000000
_cell_volume 2576.740242
_symmetry_space_group_name_H-M "P B C N"
_symmetry_group_IT_number 60
_symmetry_cell_setting 'orthorhombic'
loop_
_space_group_symop_operation_xyz
x,y,z
1/2-x,1/2-y,1/2+z
1/2+x,1/2-y,-z
-x,y,1/2-z
-x,-y,-z
1/2+x,1/2+y,1/2-z
1/2-x,1/2+y,z
x,-y,1/2+z
loop_
_atom_site_type_symbol
_atom_site_label
_atom_site_fract_x
_atom_site_fract_y
_atom_site_fract_z
Si Si1 0.853937 0.060487 0.171507
Si Si2 0.404503 0.136095 0.740974
Si Si3 0.216841 0.662984 0.980163
Si Si4 0.338955 0.658483 0.589133
Si Si5 0.780584 0.500549 0.828025
Si Si6 0.068251 0.185508 0.136400
Si Si7 0.605207 0.634165 0.637336
O O1 0.760162 0.036558 0.193373
O O2 0.878436 0.105374 0.309754
O O3 0.899555 0.970727 0.143620
O O4 0.869867 0.127010 0.053641
O O5 0.500000 0.125384 0.750000
O O6 0.390805 0.220278 0.648281
O O7 0.364565 0.047859 0.691182
O O8 0.356318 0.158742 0.875332
O O9 0.204964 0.750196 0.065548
O O10 0.213416 0.577785 0.070448
O O11 0.303233 0.661147 0.906430
O O12 0.280053 0.578283 0.628962
O O13 0.400910 0.665714 0.711404
O O14 0.000000 0.187674 0.250000
O O15 0.050926 0.168357 0.982896
#
# Coordination Sequence:
#
# PCOD9458050 Si02
#       7
#     8   8   8   8   8   8   8
#     4  11  20  40  66  96 133 171 225 278 336 394
#     4  11  24  44  66  92 137 182 219 274 351 411
#     4  12  22  39  66  98 126 177 231 280 331 404
#     4  11  22  36  64  97 133 163 225 290 323 385
#     4  11  22  40  65 103 129 172 228 286 330 399
#     4  11  24  44  68  95 136 183 219 268 353 418
#     4  11  22  39  61 103 130 169 230 281 337 396
#
# _framework density 21.732885
#
# number of rings (size 3 to 8) (size 9 to 14) (size 15 to 20)
#    0.000    0.857    7.143    1.714    2.000    1.143 
#    2.571    0.714    0.000    0.000    0.000    0.000 
#    0.000    0.000    0.000    0.000    0.000    0.000 
#
# Total GULP energy -312833.002141 kJ/mol
# GULP energy per Si atom -5586.303610 kJ/mol
# Density = 2.168342 g / cm^3
# Si number density = 21.732885 Si / 1000 Ang^3
#
#
#
# Elastic Constant Matrix: (Units=GPa)
#
#
# Indices 1 2 3 4 5 6 
#
# 1 80.0466 15.8056 32.5348 0.0000 0.0000 0.0000
# 2 15.8056 128.4094 55.5429 0.0000 0.0000 0.0000
# 3 32.5348 55.5429 144.0656 0.0000 0.0000 0.0000
# 4 0.0000 0.0000 0.0000 26.6999 0.0000 0.0000
# 5 0.0000 0.0000 0.0000 0.0000 36.3138 0.0000
# 6 0.0000 0.0000 0.0000 0.0000 0.0000 11.1752
#
#
#
# Elastic Compliance Matrix: (Units=1/GPa)
#
#
# Indices 1 2 3 4 5 6 
#
# 1 0.013774 -0.000420 -0.002949 0.000000 0.000000 0.000000
# 2 -0.000420 0.009359 -0.003513 0.000000 0.000000 0.000000
# 3 -0.002949 -0.003513 0.008962 0.000000 0.000000 0.000000
# 4 0.000000 0.000000 0.000000 0.037453 0.000000 0.000000
# 5 0.000000 0.000000 0.000000 0.000000 0.027538 0.000000
# 6 0.000000 0.000000 0.000000 0.000000 0.000000 0.089484
#
#
# Mechanical properties :
#
#
# Convention : Reuss Voigt Hill
#
# Bulk Modulus (GPa) = 54.55337 62.25423 58.40380
# Shear Modulus (GPa) = 24.21963 31.41367 27.81665
#
# Velocity S-wave (km/s) = 3.34192 3.80602 3.58150
# Velocity P-wave (km/s) = 6.32831 6.92978 6.63586
#
# Compressibility (1/GPa) = 0.01833067
#
# Stress axis : x y z
#
# Youngs Moduli (GPa) = 72.59971 106.84907 111.58515
#
# Poissons Ratio (x) = 0.04487 0.32904
# Poissons Ratio (y) = 0.03049 0.39205
# Poissons Ratio (z) = 0.21408 0.37541
#
# Static dielectric constant tensor:
#      x y z
#    x 1.863530 0.000000 0.000000 
#    y 0.000000 1.763030 0.000000 
#    z 0.000000 0.000000 1.831580 
# 
# From -- ./inp_files/7431.got.cif
#   From: 2010.05.17/outbox.cif.g08.bks.cpg/sg60_4_cif.got.tgz:7431.got - 2010.06.03 14:59:27.
