data_PCOD9458054
_publ_section_title
;
Structure prediction by ZEFSAII (Michael W. Deem and Ramdas Pophale) SiO2 
 PCOD9458054
Probable space group: P B C N
;
_chemical_formula_sum "Si O2"
_cell_formula_units_Z 64
_cell_length_a 9.250505
_cell_length_b 15.335194
_cell_length_c 19.176612
_cell_angle_alpha 90.000000
_cell_angle_beta 90.000000
_cell_angle_gamma 90.000000
_cell_volume 2720.361363
_symmetry_space_group_name_H-M "P B C N"
_symmetry_group_IT_number 60
_symmetry_cell_setting 'orthorhombic'
loop_
_space_group_symop_operation_xyz
x,y,z
1/2-x,1/2-y,1/2+z
1/2+x,1/2-y,-z
-x,y,1/2-z
-x,-y,-z
1/2+x,1/2+y,1/2-z
1/2-x,1/2+y,z
x,-y,1/2+z
loop_
_atom_site_type_symbol
_atom_site_label
_atom_site_fract_x
_atom_site_fract_y
_atom_site_fract_z
Si Si1 0.484861 0.406174 0.406688
Si Si2 0.596417 0.293378 0.646304
Si Si3 0.980255 0.615941 0.924962
Si Si4 0.153166 0.447851 0.211391
Si Si5 0.716519 0.313353 0.500551
Si Si6 0.344677 0.299374 0.283109
Si Si7 0.256481 0.105204 0.009775
Si Si8 0.643123 0.429543 0.840613
O O1 0.611324 0.347354 0.439818
O O2 0.387363 0.349573 0.354206
O O3 0.384542 0.431474 0.471639
O O4 0.547729 0.487120 0.364249
O O5 0.536990 0.198626 0.620853
O O6 0.652590 0.338533 0.575287
O O7 0.732002 0.275693 0.696230
O O8 0.463923 0.350161 0.674146
O O9 0.889849 0.561393 0.869535
O O10 0.873747 0.650475 0.984291
O O11 0.109934 0.569126 0.965171
O O12 0.253122 0.366994 0.235643
O O13 0.251100 0.534028 0.218849
O O14 0.000000 0.449434 0.250000
O O15 0.730958 0.209244 0.500187
O O16 0.500000 0.274594 0.250000
O O17 0.237943 0.094156 0.091611
#
# Coordination Sequence:
#
# PCOD9458054 Si02
#       8
#     8   8   8   8   8   8   8   8
#     4  12  22  42  75 108 144 195 243 313 388 459
#     4  11  24  42  75 112 150 192 253 315 378 452
#     4  11  21  42  72 104 144 197 245 310 366 475
#     4  12  25  47  75 104 149 212 259 301 383 464
#     4  11  20  40  71 109 144 184 247 308 383 462
#     4  12  24  48  79 105 144 216 267 295 364 477
#     4  11  22  38  69 108 150 181 241 308 398 444
#     4  12  25  43  73 112 153 192 242 334 393 439
#
# _framework density 23.526285000000001
#
# number of rings (size 3 to 8) (size 9 to 14) (size 15 to 20)
#    0.000    0.500    8.750    1.125    0.000    0.500 
#    0.000    3.750    2.750    1.500    0.000    0.000 
#    0.000    0.000    0.000    0.000    0.000    0.000 
#
# Total GULP energy -358271.776830 kJ/mol
# GULP energy per Si atom -5597.996513 kJ/mol
# Density = 2.347274 g / cm^3
# Si number density = 23.526285 Si / 1000 Ang^3
#
#
#
# Elastic Constant Matrix: (Units=GPa)
#
#
# Indices 1 2 3 4 5 6 
#
# 1 164.1505 53.8470 41.3750 0.0000 0.0000 0.0000
# 2 53.8470 75.9535 19.8530 0.0000 0.0000 0.0000
# 3 41.3750 19.8530 76.0777 0.0000 0.0000 0.0000
# 4 0.0000 0.0000 0.0000 13.7782 0.0000 0.0000
# 5 0.0000 0.0000 0.0000 0.0000 35.7700 0.0000
# 6 0.0000 0.0000 0.0000 0.0000 0.0000 76.8142
#
#
#
# Elastic Compliance Matrix: (Units=1/GPa)
#
#
# Indices 1 2 3 4 5 6 
#
# 1 0.008661 -0.005268 -0.003335 0.000000 0.000000 0.000000
# 2 -0.005268 0.017334 -0.001658 0.000000 0.000000 0.000000
# 3 -0.003335 -0.001658 0.015391 0.000000 0.000000 0.000000
# 4 0.000000 0.000000 0.000000 0.072578 0.000000 0.000000
# 5 0.000000 0.000000 0.000000 0.000000 0.027956 0.000000
# 6 0.000000 0.000000 0.000000 0.000000 0.000000 0.013018
#
#
# Mechanical properties :
#
#
# Convention : Reuss Voigt Hill
#
# Bulk Modulus (GPa) = 47.93342 60.70354 54.31848
# Shear Modulus (GPa) = 27.40959 38.67958 33.04458
#
# Velocity S-wave (km/s) = 3.41700 4.05915 3.75184
# Velocity P-wave (km/s) = 5.99888 6.91573 6.47356
#
# Compressibility (1/GPa) = 0.02086227
#
# Stress axis : x y z
#
# Youngs Moduli (GPa) = 115.46198 57.68896 64.97219
#
# Poissons Ratio (x) = 0.30392 0.21671
# Poissons Ratio (y) = 0.60828 0.10775
# Poissons Ratio (z) = 0.38512 0.09567
#
# Static dielectric constant tensor:
#      x y z
#    x 1.921640 0.000000 0.000000 
#    y 0.000000 1.885290 0.000000 
#    z 0.000000 0.000000 1.892450 
# 
# From -- ./inp_files/22377.got.cif
#   From: 2010.05.17/outbox.cif.g08.bks.cpg/sg60_12_cif.got.tgz:22377.got - 2010.06.03 14:59:27.
