data_PCOD9458143
_publ_section_title
;
Structure prediction by ZEFSAII (Michael W. Deem and Ramdas Pophale) SiO2 
 PCOD9458143
Probable space group: P B C N
;
_chemical_formula_sum "Si O2"
_cell_formula_units_Z 44
_cell_length_a 18.996751
_cell_length_b 8.689643
_cell_length_c 13.206108
_cell_angle_alpha 90.000000
_cell_angle_beta 90.000000
_cell_angle_gamma 90.000000
_cell_volume 2179.998071
_symmetry_space_group_name_H-M "P B C N"
_symmetry_group_IT_number 60
_symmetry_cell_setting 'orthorhombic'
loop_
_space_group_symop_operation_xyz
x,y,z
1/2-x,1/2-y,1/2+z
1/2+x,1/2-y,-z
-x,y,1/2-z
-x,-y,-z
1/2+x,1/2+y,1/2-z
1/2-x,1/2+y,z
x,-y,1/2+z
loop_
_atom_site_type_symbol
_atom_site_label
_atom_site_fract_x
_atom_site_fract_y
_atom_site_fract_z
Si Si1 0.926137 0.411890 0.502015
Si Si2 0.139793 0.366428 0.651352
Si Si3 0.000000 0.211670 0.750000
Si Si4 0.933685 0.932938 0.056873
Si Si5 0.315031 0.001876 0.354909
Si Si6 0.808691 0.178869 0.042072
O O1 0.880746 0.484392 0.413006
O O2 0.920895 0.229134 0.500924
O O3 0.893318 0.459108 0.609115
O O4 0.000000 0.500000 0.500000
O O5 0.188831 0.423496 0.743760
O O6 0.177462 0.252276 0.569792
O O7 0.063993 0.299246 0.690634
O O8 0.957868 0.110278 0.669210
O O9 0.870605 0.054337 0.057304
O O10 0.000000 0.000000 0.000000
O O11 0.308363 0.820527 0.377462
O O12 0.262418 0.087821 0.432149
#
# Coordination Sequence:
#
# PCOD9458143 Si02
#       6
#     8   8   4   8   8   8
#     4  11  21  41  68  98 136 176 226 288 345 412
#     4  11  23  44  72 100 138 188 238 285 363 419
#     4  12  22  42  74 100 134 188 230 296 356 424
#     4  12  23  42  70 104 143 178 234 296 347 417
#     4  11  24  44  67 100 139 185 235 288 350 431
#     4  11  26  46  68 102 143 185 236 297 352 421
#
# _framework density 20.183505
#
# number of rings (size 3 to 8) (size 9 to 14) (size 15 to 20)
#    0.000    0.727    5.455    2.182    0.000    4.364 
#    0.000    0.000    0.000    0.000    0.000    0.000 
#    0.000    0.000    0.000    0.000    0.000    0.000 
#
# Total GULP energy -245335.235216 kJ/mol
# GULP energy per Si atom -5575.800800 kJ/mol
# Density = 2.013757 g / cm^3
# Si number density = 20.183505 Si / 1000 Ang^3
#
#
#
# Elastic Constant Matrix: (Units=GPa)
#
#
# Indices 1 2 3 4 5 6 
#
# 1 100.2529 59.4521 53.8936 0.0000 0.0000 0.0000
# 2 59.4521 165.8938 62.5804 0.0000 0.0000 0.0000
# 3 53.8936 62.5804 141.1075 0.0000 0.0000 0.0000
# 4 0.0000 0.0000 0.0000 41.1945 0.0000 0.0000
# 5 0.0000 0.0000 0.0000 0.0000 27.7056 0.0000
# 6 0.0000 0.0000 0.0000 0.0000 0.0000 32.6533
#
#
#
# Elastic Compliance Matrix: (Units=1/GPa)
#
#
# Indices 1 2 3 4 5 6 
#
# 1 0.014180 -0.003649 -0.003797 0.000000 0.000000 0.000000
# 2 -0.003649 0.008178 -0.002233 0.000000 0.000000 0.000000
# 3 -0.003797 -0.002233 0.009528 0.000000 0.000000 0.000000
# 4 0.000000 0.000000 0.000000 0.024275 0.000000 0.000000
# 5 0.000000 0.000000 0.000000 0.000000 0.036094 0.000000
# 6 0.000000 0.000000 0.000000 0.000000 0.000000 0.030625
#
#
# Mechanical properties :
#
#
# Convention : Reuss Voigt Hill
#
# Bulk Modulus (GPa) = 79.83315 84.34516 82.08916
# Shear Modulus (GPa) = 34.14945 35.73254 34.94099
#
# Velocity S-wave (km/s) = 4.11779 4.21216 4.16524
# Velocity P-wave (km/s) = 7.88973 8.09544 7.99325
#
# Compressibility (1/GPa) = 0.01252612
#
# Stress axis : x y z
#
# Youngs Moduli (GPa) = 70.52005 122.27598 104.95838
#
# Poissons Ratio (x) = 0.44623 0.39858
# Poissons Ratio (y) = 0.25735 0.23439
# Poissons Ratio (z) = 0.26780 0.27307
#
# Static dielectric constant tensor:
#      x y z
#    x 1.763900 0.000000 0.000000 
#    y 0.000000 3.147690 0.000000 
#    z 0.000000 0.000000 1.555580 
# 
# From -- ./inp_files/17280.got.cif
#   From: 2010.05.17/outbox.cif.g08.bks.cpg/sg60_9_cif.got.tgz:17280.got - 2010.06.03 14:59:27.
