data_PCOD9458268
_publ_section_title
;
Structure prediction by ZEFSAII (Michael W. Deem and Ramdas Pophale) SiO2 
 PCOD9458268
Probable space group: P B C N
;
_chemical_formula_sum "Si O2"
_cell_formula_units_Z 64
_cell_length_a 17.136243
_cell_length_b 12.287072
_cell_length_c 13.996379
_cell_angle_alpha 90.000000
_cell_angle_beta 90.000000
_cell_angle_gamma 90.000000
_cell_volume 2946.997105
_symmetry_space_group_name_H-M "P B C N"
_symmetry_group_IT_number 60
_symmetry_cell_setting 'orthorhombic'
loop_
_space_group_symop_operation_xyz
x,y,z
1/2-x,1/2-y,1/2+z
1/2+x,1/2-y,-z
-x,y,1/2-z
-x,-y,-z
1/2+x,1/2+y,1/2-z
1/2-x,1/2+y,z
x,-y,1/2+z
loop_
_atom_site_type_symbol
_atom_site_label
_atom_site_fract_x
_atom_site_fract_y
_atom_site_fract_z
Si Si1 0.303678 0.211808 0.705279
Si Si2 0.511002 0.513143 0.389431
Si Si3 0.309600 0.978662 0.354666
Si Si4 0.587532 0.864935 0.777451
Si Si5 0.859273 0.144871 0.817400
Si Si6 0.660090 0.442158 0.696968
Si Si7 0.034995 0.739204 0.643278
Si Si8 0.063742 0.595763 0.999896
O O1 0.300437 0.132926 0.796439
O O2 0.221727 0.203052 0.648209
O O3 0.322497 0.327446 0.754760
O O4 0.379833 0.183918 0.642237
O O5 0.500000 0.500000 0.500000
O O6 0.563468 0.407831 0.364509
O O7 0.426948 0.530068 0.338595
O O8 0.548168 0.631799 0.370633
O O9 0.362309 0.951647 0.444610
O O10 0.353992 0.058749 0.280612
O O11 0.226622 0.032314 0.380830
O O12 0.500000 0.896408 0.750000
O O13 0.606851 0.740102 0.750091
O O14 0.587601 0.870155 0.893012
O O15 0.825042 0.034081 0.775204
O O16 0.000000 0.721012 0.750000
O O17 0.976021 0.691722 0.564031
O O18 0.000000 0.500000 0.000000
#
# Coordination Sequence:
#
# PCOD9458268 Si02
#       8
#     8   8   8   8   8   8   8   8
#     4  11  22  42  74 101 136 190 249 297 362 443
#     4  12  24  44  71 107 146 191 252 311 374 452
#     4  11  24  44  69 101 141 187 235 298 368 442
#     4  12  24  43  70 102 144 183 235 306 378 436
#     4  11  24  43  71 101 138 187 243 297 375 440
#     4  11  22  46  71  99 138 194 242 297 374 451
#     4  12  22  43  75 100 142 197 250 298 372 456
#     4  12  25  42  69 106 141 188 247 302 366 456
#
# _framework density 21.717022
#
# number of rings (size 3 to 8) (size 9 to 14) (size 15 to 20)
#    0.000    0.500    6.250    2.625    0.000    0.000 
#    9.000    0.000    0.000    0.000    0.000    0.000 
#    0.000    0.000    0.000    0.000    0.000    0.000 
#
# Total GULP energy -356795.434551 kJ/mol
# GULP energy per Si atom -5574.928665 kJ/mol
# Density = 2.166759 g / cm^3
# Si number density = 21.717022 Si / 1000 Ang^3
#
#
#
# Elastic Constant Matrix: (Units=GPa)
#
#
# Indices 1 2 3 4 5 6 
#
# 1 152.7630 26.6901 29.4983 0.0000 0.0000 0.0000
# 2 26.6901 112.2966 26.9922 0.0000 0.0000 0.0000
# 3 29.4983 26.9922 82.9980 0.0000 0.0000 0.0000
# 4 0.0000 0.0000 0.0000 18.6269 0.0000 0.0000
# 5 0.0000 0.0000 0.0000 0.0000 20.2097 0.0000
# 6 0.0000 0.0000 0.0000 0.0000 0.0000 31.4176
#
#
#
# Elastic Compliance Matrix: (Units=1/GPa)
#
#
# Indices 1 2 3 4 5 6 
#
# 1 0.007171 -0.001184 -0.002163 0.000000 0.000000 0.000000
# 2 -0.001184 0.009856 -0.002784 0.000000 0.000000 0.000000
# 3 -0.002163 -0.002784 0.013723 0.000000 0.000000 0.000000
# 4 0.000000 0.000000 0.000000 0.053686 0.000000 0.000000
# 5 0.000000 0.000000 0.000000 0.000000 0.049481 0.000000
# 6 0.000000 0.000000 0.000000 0.000000 0.000000 0.031829
#
#
# Mechanical properties :
#
#
# Convention : Reuss Voigt Hill
#
# Bulk Modulus (GPa) = 54.09702 57.15765 55.62733
# Shear Modulus (GPa) = 27.14863 31.70932 29.42898
#
# Velocity S-wave (km/s) = 3.53952 3.82529 3.68518
# Velocity P-wave (km/s) = 6.45510 6.77398 6.61646
#
# Compressibility (1/GPa) = 0.01848531
#
# Stress axis : x y z
#
# Youngs Moduli (GPa) = 139.45540 101.46389 72.87099
#
# Poissons Ratio (x) = 0.12016 0.15765
# Poissons Ratio (y) = 0.16516 0.20290
# Poissons Ratio (z) = 0.30170 0.28251
#
# Static dielectric constant tensor:
#      x y z
#    x 1.973660 0.000000 0.000000 
#    y 0.000000 1.827970 0.000000 
#    z 0.000000 0.000000 1.796440 
# 
# From -- ./inp_files/17505.got.cif
#   From: 2010.05.17/outbox.cif.g08.bks.cpg/sg60_9_cif.got.tgz:17505.got - 2010.06.03 14:59:27.
