data_PCOD9458817
_publ_section_title
;
Structure prediction by ZEFSAII (Michael W. Deem and Ramdas Pophale) SiO2 
 PCOD9458817
Probable space group: P B C N
;
_chemical_formula_sum "Si O2"
_cell_formula_units_Z 32
_cell_length_a 10.049261
_cell_length_b 9.657913
_cell_length_c 13.777978
_cell_angle_alpha 90.000000
_cell_angle_beta 90.000000
_cell_angle_gamma 90.000000
_cell_volume 1337.220118
_symmetry_space_group_name_H-M "P B C N"
_symmetry_group_IT_number 60
_symmetry_cell_setting 'orthorhombic'
loop_
_space_group_symop_operation_xyz
x,y,z
1/2-x,1/2-y,1/2+z
1/2+x,1/2-y,-z
-x,y,1/2-z
-x,-y,-z
1/2+x,1/2+y,1/2-z
1/2-x,1/2+y,z
x,-y,1/2+z
loop_
_atom_site_type_symbol
_atom_site_label
_atom_site_fract_x
_atom_site_fract_y
_atom_site_fract_z
Si Si1 0.267645 0.567418 0.321490
Si Si2 0.702928 0.842625 0.306269
Si Si3 0.915326 0.638505 0.008682
Si Si4 0.481982 0.414377 0.098364
O O1 0.279467 0.703967 0.256117
O O2 0.164086 0.463223 0.269163
O O3 0.216240 0.606285 0.428587
O O4 0.403926 0.481957 0.334897
O O5 0.612190 0.811911 0.399218
O O6 0.836490 0.907027 0.355195
O O7 0.986362 0.756307 0.070773
O O8 0.000000 0.500000 0.000000
O O9 0.500000 0.500000 0.000000
#
# Coordination Sequence:
#
# PCOD9458817 Si02
#       4
#     8   8   8   8
#     4  12  27  49  76 115 153 204 261 320 389 473
#     4  12  27  49  79 111 155 205 261 320 399 473
#     4  12  29  49  78 114 157 198 262 333 394 471
#     4  12  26  50  80 110 157 205 260 323 397 466
#
# _framework density 23.930240999999999
#
# number of rings (size 3 to 8) (size 9 to 14) (size 15 to 20)
#    0.000    0.000    5.000    3.750    7.000    3.000 
#    0.000    0.000    0.000    0.000    0.000    0.000 
#    0.000    0.000    0.000    0.000    0.000    0.000 
#
# Total GULP energy -179206.104196 kJ/mol
# GULP energy per Si atom -5600.190756 kJ/mol
# Density = 2.387577 g / cm^3
# Si number density = 23.930241 Si / 1000 Ang^3
#
#
#
# Elastic Constant Matrix: (Units=GPa)
#
#
# Indices 1 2 3 4 5 6 
#
# 1 41.0247 -5.9315 5.3560 0.0000 0.0000 0.0000
# 2 -5.9315 144.1784 35.5097 0.0000 0.0000 0.0000
# 3 5.3560 35.5097 144.0726 0.0000 0.0000 0.0000
# 4 0.0000 0.0000 0.0000 62.9937 0.0000 0.0000
# 5 0.0000 0.0000 0.0000 0.0000 24.7057 0.0000
# 6 0.0000 0.0000 0.0000 0.0000 0.0000 33.2104
#
#
#
# Elastic Compliance Matrix: (Units=1/GPa)
#
#
# Indices 1 2 3 4 5 6 
#
# 1 0.024730 0.001324 -0.001246 0.000000 0.000000 0.000000
# 2 0.001324 0.007455 -0.001887 0.000000 0.000000 0.000000
# 3 -0.001246 -0.001887 0.007452 0.000000 0.000000 0.000000
# 4 0.000000 0.000000 0.000000 0.015875 0.000000 0.000000
# 5 0.000000 0.000000 0.000000 0.000000 0.040476 0.000000
# 6 0.000000 0.000000 0.000000 0.000000 0.000000 0.030111
#
#
# Mechanical properties :
#
#
# Convention : Reuss Voigt Hill
#
# Bulk Modulus (GPa) = 27.76195 44.34935 36.05565
# Shear Modulus (GPa) = 35.28028 43.80473 39.54250
#
# Velocity S-wave (km/s) = 3.84382 4.28310 4.06939
# Velocity P-wave (km/s) = 5.59699 6.55995 6.09751
#
# Compressibility (1/GPa) = 0.03602053
#
# Stress axis : x y z
#
# Youngs Moduli (GPa) = 40.43725 134.13826 134.18734
#
# Poissons Ratio (x) = -0.17762 0.16716
# Poissons Ratio (y) = -0.05355 0.25317
# Poissons Ratio (z) = 0.05037 0.25307
#
# Static dielectric constant tensor:
#      x y z
#    x 1.946850 0.000000 0.000000 
#    y 0.000000 1.869210 0.000000 
#    z 0.000000 0.000000 1.995210 
# 
# From -- ./inp_files/15588.got.cif
#   From: 2010.05.17/outbox.cif.g08.bks.cpg/sg60_8_cif.got.tgz:15588.got - 2010.06.03 14:59:27.
