data_PCOD9458958
_publ_section_title
;
Structure prediction by ZEFSAII (Michael W. Deem and Ramdas Pophale) SiO2 
 PCOD9458958
Probable space group: P B C N
;
_chemical_formula_sum "Si O2"
_cell_formula_units_Z 64
_cell_length_a 24.000000
_cell_length_b 15.000000
_cell_length_c 9.000000
_cell_angle_alpha 90.000000
_cell_angle_beta 90.000000
_cell_angle_gamma 90.000000
_cell_volume 3240.000000
_symmetry_space_group_name_H-M "P B C N"
_symmetry_group_IT_number 60
_symmetry_cell_setting 'orthorhombic'
loop_
_space_group_symop_operation_xyz
x,y,z
1/2-x,1/2-y,1/2+z
1/2+x,1/2-y,-z
-x,y,1/2-z
-x,-y,-z
1/2+x,1/2+y,1/2-z
1/2-x,1/2+y,z
x,-y,1/2+z
loop_
_atom_site_type_symbol
_atom_site_label
_atom_site_fract_x
_atom_site_fract_y
_atom_site_fract_z
Si Si1 0.591663 0.751662 0.054321
Si Si2 0.608446 0.103850 0.035030
Si Si3 0.621167 0.582386 0.591175
Si Si4 0.736608 0.852124 0.605409
Si Si5 0.972947 0.226963 0.589888
Si Si6 0.188340 0.203166 0.677149
Si Si7 0.351140 0.402212 0.758082
Si Si8 0.934029 0.564839 0.713193
O O1 0.620076 0.689158 0.181299
O O2 0.585068 0.853230 0.108801
O O3 0.527822 0.723021 0.015565
O O4 0.634588 0.742495 0.914309
O O5 0.674589 0.109884 0.071103
O O6 0.572844 0.195923 0.053128
O O7 0.579885 0.029024 0.137477
O O8 0.599471 0.074279 0.865943
O O9 0.562733 0.635893 0.594277
O O10 0.662405 0.630247 0.710211
O O11 0.618652 0.481544 0.650949
O O12 0.642192 0.587413 0.419783
O O13 0.768075 0.828137 0.450325
O O14 0.720927 0.770759 0.715176
O O15 0.785773 0.904630 0.693547
O O16 0.000000 0.246322 0.750000
O O17 0.000000 0.571844 0.750000
#
# Coordination Sequence:
#
# PCOD9458958 Si02
#       8
#     8   8   8   8   8   8   8   8
#     4  11  25  47  71 104 141 189 231 292 351 420
#     4  12  27  44  69 106 138 190 234 287 355 411
#     4  12  25  47  72 104 141 181 234 291 352 421
#     4  11  25  46  70 103 140 184 238 290 348 418
#     4  12  24  45  76 100 143 183 235 286 357 417
#     4  11  24  44  74 101 138 187 236 287 351 413
#     4  11  27  47  71 104 144 181 238 291 351 417
#     4  12  27  44  70 104 147 182 236 289 348 422
#
# _framework density 19.753086
#
# number of rings (size 3 to 8) (size 9 to 14) (size 15 to 20)
#    0.000    0.500    3.750    3.750    7.000    2.500 
#    0.000    0.000    0.000    0.000    0.000    0.000 
#    0.000    0.000    0.000    0.000    0.000    0.000 
#
# Total GULP energy -357738.726213 kJ/mol
# GULP energy per Si atom -5589.667597 kJ/mol
# Density = 1.970813 g / cm^3
# Si number density = 19.753086 Si / 1000 Ang^3
#
#
#
# Elastic Constant Matrix: (Units=GPa)
#
#
# Indices 1 2 3 4 5 6 
#
# 1 146.3103 40.8111 34.9206 0.0000 0.0000 0.0000
# 2 40.8111 74.4640 13.0307 0.0000 0.0000 0.0000
# 3 34.9206 13.0307 124.7168 0.0000 0.0000 0.0000
# 4 0.0000 0.0000 0.0000 36.6214 0.0000 0.0000
# 5 0.0000 0.0000 0.0000 0.0000 37.3300 0.0000
# 6 0.0000 0.0000 0.0000 0.0000 0.0000 33.8345
#
#
#
# Elastic Compliance Matrix: (Units=1/GPa)
#
#
# Indices 1 2 3 4 5 6 
#
# 1 0.008500 -0.004321 -0.001929 0.000000 0.000000 0.000000
# 2 -0.004321 0.015876 -0.000449 0.000000 0.000000 0.000000
# 3 -0.001929 -0.000449 0.008605 0.000000 0.000000 0.000000
# 4 0.000000 0.000000 0.000000 0.027306 0.000000 0.000000
# 5 0.000000 0.000000 0.000000 0.000000 0.026788 0.000000
# 6 0.000000 0.000000 0.000000 0.000000 0.000000 0.029556
#
#
# Mechanical properties :
#
#
# Convention : Reuss Voigt Hill
#
# Bulk Modulus (GPa) = 51.06147 58.11287 54.58717
# Shear Modulus (GPa) = 36.61460 38.67241 37.64350
#
# Velocity S-wave (km/s) = 4.31003 4.42949 4.37017
# Velocity P-wave (km/s) = 7.11860 7.45949 7.29104
#
# Compressibility (1/GPa) = 0.01958424
#
# Stress axis : x y z
#
# Youngs Moduli (GPa) = 117.64052 62.98730 116.21053
#
# Poissons Ratio (x) = 0.27219 0.22413
# Poissons Ratio (y) = 0.50836 0.05216
# Poissons Ratio (z) = 0.22688 0.02827
#
# Static dielectric constant tensor:
#      x y z
#    x 1.671530 0.000000 0.000000 
#    y 0.000000 1.716940 0.000000 
#    z 0.000000 0.000000 1.698400 
# 
# From -- ./inp_files/7976.got.cif
#   From: 2010.05.17/outbox.ucp.g08.bks.cvg/sg60_4_cif.got.tgz:7976.got - 2010.06.11 16:26:41.
