data_PCOD9458191
_publ_section_title
;
Structure prediction by ZEFSAII (Michael W. Deem and Ramdas Pophale) SiO2 
 PCOD9458191
Probable space group: P B C N
;
_chemical_formula_sum "Si O2"
_cell_formula_units_Z 60
_cell_length_a 5.515995
_cell_length_b 27.960980
_cell_length_c 18.082836
_cell_angle_alpha 90.000000
_cell_angle_beta 90.000000
_cell_angle_gamma 90.000000
_cell_volume 2788.963280
_symmetry_space_group_name_H-M "P B C N"
_symmetry_group_IT_number 60
_symmetry_cell_setting 'orthorhombic'
loop_
_space_group_symop_operation_xyz
x,y,z
1/2-x,1/2-y,1/2+z
1/2+x,1/2-y,-z
-x,y,1/2-z
-x,-y,-z
1/2+x,1/2+y,1/2-z
1/2-x,1/2+y,z
x,-y,1/2+z
loop_
_atom_site_type_symbol
_atom_site_label
_atom_site_fract_x
_atom_site_fract_y
_atom_site_fract_z
Si Si1 0.000000 0.929468 0.250000
Si Si2 0.862942 0.494888 0.684307
Si Si3 0.890580 0.046325 0.045326
Si Si4 0.251508 0.249741 0.205578
Si Si5 0.177087 0.273077 0.532952
Si Si6 0.001377 0.430388 0.422509
Si Si7 0.704740 0.353288 0.358112
Si Si8 0.374554 0.629323 0.989967
O O1 0.058045 0.893589 0.184514
O O2 0.217188 0.963476 0.273859
O O3 0.686106 0.469296 0.627302
O O4 0.000000 0.467447 0.750000
O O5 0.036386 0.523729 0.628110
O O6 0.661238 0.061340 0.994273
O O7 0.016850 0.098453 0.056341
O O8 0.000000 0.000000 0.000000
O O9 0.500000 0.237922 0.250000
O O10 0.276241 0.230536 0.121316
O O11 0.254071 0.307002 0.190488
O O12 0.000000 0.238060 0.250000
O O13 0.414417 0.247571 0.493890
O O14 0.191012 0.329253 0.511863
O O15 0.944255 0.381765 0.378883
O O16 0.268614 0.417550 0.448310
O O17 0.565777 0.345263 0.435326
#
# Coordination Sequence:
#
# PCOD9458191 Si02
#       8
#     4   8   8   8   8   8   8   8
#     4  12  22  34  58  92 144 160 218 268 364 422
#     4  12  24  36  61  93 133 178 216 282 347 415
#     4  11  24  43  64  95 136 180 237 284 346 424
#     4  12  27  44  71 104 152 189 229 294 383 444
#     4  12  26  48  77 110 145 188 250 308 363 447
#     4  11  22  39  66  95 131 179 228 287 350 418
#     4  11  22  37  60 104 133 175 218 289 361 436
#     4  11  24  42  72  98 130 181 243 294 346 426
#
# _framework density 21.513369999999998
#
# number of rings (size 3 to 8) (size 9 to 14) (size 15 to 20)
#    0.000    0.533    6.000    2.800    5.600    0.000 
#    0.000    0.000    4.400    0.000    0.000    0.000 
#    0.000    0.000    0.000    0.000    0.000    0.000 
#
# Total GULP energy -334233.373383 kJ/mol
# GULP energy per Si atom -5570.556223 kJ/mol
# Density = 2.146440 g / cm^3
# Si number density = 21.513370 Si / 1000 Ang^3
#
#
#
# Elastic Constant Matrix: (Units=GPa)
#
#
# Indices 1 2 3 4 5 6 
#
# 1 60.7059 15.3733 22.2917 0.0000 0.0000 0.0000
# 2 15.3733 63.4124 26.6679 0.0000 0.0000 0.0000
# 3 22.2917 26.6679 95.1261 0.0000 0.0000 0.0000
# 4 0.0000 0.0000 0.0000 44.6349 0.0000 0.0000
# 5 0.0000 0.0000 0.0000 0.0000 29.8339 0.0000
# 6 0.0000 0.0000 0.0000 0.0000 0.0000 30.3993
#
#
#
# Elastic Compliance Matrix: (Units=1/GPa)
#
#
# Indices 1 2 3 4 5 6 
#
# 1 0.018521 -0.003021 -0.003493 0.000000 0.000000 0.000000
# 2 -0.003021 0.018370 -0.004442 0.000000 0.000000 0.000000
# 3 -0.003493 -0.004442 0.012576 0.000000 0.000000 0.000000
# 4 0.000000 0.000000 0.000000 0.022404 0.000000 0.000000
# 5 0.000000 0.000000 0.000000 0.000000 0.033519 0.000000
# 6 0.000000 0.000000 0.000000 0.000000 0.000000 0.032896
#
#
# Mechanical properties :
#
#
# Convention : Reuss Voigt Hill
#
# Bulk Modulus (GPa) = 36.29139 38.65669 37.47404
# Shear Modulus (GPa) = 29.51891 31.30104 30.40998
#
# Velocity S-wave (km/s) = 3.70823 3.81853 3.76378
# Velocity P-wave (km/s) = 5.93637 6.11958 6.02867
#
# Compressibility (1/GPa) = 0.02755474
#
# Stress axis : x y z
#
# Youngs Moduli (GPa) = 53.99382 54.43582 79.51501
#
# Poissons Ratio (x) = 0.16445 0.27776
# Poissons Ratio (y) = 0.16311 0.35321
# Poissons Ratio (z) = 0.18861 0.24181
#
# Static dielectric constant tensor:
#      x y z
#    x 1.673190 0.000000 0.000000 
#    y 0.000000 1.793300 0.000000 
#    z 0.000000 0.000000 1.727820 
# 
# From -- ./inp_files/18816.got.cif
#   From: 2010.05.17/outbox.cif.g08.bks.cpg/sg60_10_cif.got.tgz:18816.got - 2010.06.03 14:59:27.
