data_PCOD9458781
_publ_section_title
;
Structure prediction by ZEFSAII (Michael W. Deem and Ramdas Pophale) SiO2 
 PCOD9458781
Probable space group: P B C N
;
_chemical_formula_sum "Si O2"
_cell_formula_units_Z 40
_cell_length_a 7.827782
_cell_length_b 22.103296
_cell_length_c 9.716449
_cell_angle_alpha 90.000000
_cell_angle_beta 90.000000
_cell_angle_gamma 90.000000
_cell_volume 1681.137893
_symmetry_space_group_name_H-M "P B C N"
_symmetry_group_IT_number 60
_symmetry_cell_setting 'orthorhombic'
loop_
_space_group_symop_operation_xyz
x,y,z
1/2-x,1/2-y,1/2+z
1/2+x,1/2-y,-z
-x,y,1/2-z
-x,-y,-z
1/2+x,1/2+y,1/2-z
1/2-x,1/2+y,z
x,-y,1/2+z
loop_
_atom_site_type_symbol
_atom_site_label
_atom_site_fract_x
_atom_site_fract_y
_atom_site_fract_z
Si Si1 0.304942 0.440612 0.720771
Si Si2 0.977884 0.827667 0.089059
Si Si3 0.000000 0.653387 0.250000
Si Si4 0.267950 0.557896 0.907383
Si Si5 0.332783 0.785629 0.004708
Si Si6 0.500000 0.856122 0.250000
O O1 0.500000 0.420271 0.750000
O O2 0.280046 0.498311 0.817573
O O3 0.259615 0.460974 0.565798
O O4 0.167382 0.388331 0.743645
O O5 0.932092 0.897989 0.092010
O O6 0.000000 0.811140 0.250000
O O7 0.143744 0.812641 0.999294
O O8 0.832516 0.786430 0.018452
O O9 0.038556 0.691872 0.386204
O O10 0.119478 0.600381 0.843297
O O11 0.397102 0.811995 0.149077
#
# Coordination Sequence:
#
# PCOD9458781 Si02
#       6
#     8   8   4   8   8   4
#     4  12  28  48  78 111 158 208 263 321 393 471
#     4  12  26  49  79 115 158 205 266 329 409 482
#     4  12  27  50  76 124 150 201 268 328 396 470
#     4  12  27  50  76 114 155 211 261 326 391 477
#     4  12  27  47  79 114 156 204 261 338 402 484
#     4  12  25  46  78 112 158 203 258 332 408 464
#
# _framework density 23.793406000000001
#
# number of rings (size 3 to 8) (size 9 to 14) (size 15 to 20)
#    0.000    0.000    5.000    4.200    2.800    1.600 
#    1.800    0.000    0.000    0.000    0.000    0.000 
#    0.000    0.000    0.000    0.000    0.000    0.000 
#
# Total GULP energy -223974.317328 kJ/mol
# GULP energy per Si atom -5599.357933 kJ/mol
# Density = 2.373925 g / cm^3
# Si number density = 23.793406 Si / 1000 Ang^3
#
#
#
# Elastic Constant Matrix: (Units=GPa)
#
#
# Indices 1 2 3 4 5 6 
#
# 1 61.7927 0.0246 17.7688 0.0000 0.0000 0.0000
# 2 0.0246 60.2012 25.5051 0.0000 0.0000 0.0000
# 3 17.7688 25.5051 138.6584 0.0000 0.0000 0.0000
# 4 0.0000 0.0000 0.0000 23.0834 0.0000 0.0000
# 5 0.0000 0.0000 0.0000 0.0000 39.8227 0.0000
# 6 0.0000 0.0000 0.0000 0.0000 0.0000 28.2002
#
#
#
# Elastic Compliance Matrix: (Units=1/GPa)
#
#
# Indices 1 2 3 4 5 6 
#
# 1 0.016856 0.000985 -0.002341 0.000000 0.000000 0.000000
# 2 0.000985 0.018072 -0.003451 0.000000 0.000000 0.000000
# 3 -0.002341 -0.003451 0.008147 0.000000 0.000000 0.000000
# 4 0.000000 0.000000 0.000000 0.043321 0.000000 0.000000
# 5 0.000000 0.000000 0.000000 0.000000 0.025111 0.000000
# 6 0.000000 0.000000 0.000000 0.000000 0.000000 0.035461
#
#
# Mechanical properties :
#
#
# Convention : Reuss Voigt Hill
#
# Bulk Modulus (GPa) = 29.88500 38.58326 34.23413
# Shear Modulus (GPa) = 29.80880 32.71151 31.26016
#
# Velocity S-wave (km/s) = 3.54336 3.71187 3.62859
# Velocity P-wave (km/s) = 5.41553 5.88403 5.65463
#
# Compressibility (1/GPa) = 0.03346160
#
# Stress axis : x y z
#
# Youngs Moduli (GPa) = 59.32608 55.33298 122.74935
#
# Poissons Ratio (x) = -0.05450 0.28739
# Poissons Ratio (y) = -0.05844 0.42355
# Poissons Ratio (z) = 0.13890 0.19093
#
# Static dielectric constant tensor:
#      x y z
#    x 1.963420 0.000000 0.000000 
#    y 0.000000 1.899570 0.000000 
#    z 0.000000 0.000000 1.911680 
# 
# From -- ./inp_files/3914.got.cif
#   From: 2010.05.17/outbox.cif.g08.bks.cpg/sg60_2_cif.got.tgz:3914.got - 2010.06.03 14:59:27.
