data_PCOD9458627
_publ_section_title
;
Structure prediction by ZEFSAII (Michael W. Deem and Ramdas Pophale) SiO2 
 PCOD9458627
Probable space group: P B C N
;
_chemical_formula_sum "Si O2"
_cell_formula_units_Z 36
_cell_length_a 6.976400
_cell_length_b 16.937780
_cell_length_c 12.024523
_cell_angle_alpha 90.000000
_cell_angle_beta 90.000000
_cell_angle_gamma 90.000000
_cell_volume 1420.874494
_symmetry_space_group_name_H-M "P B C N"
_symmetry_group_IT_number 60
_symmetry_cell_setting 'orthorhombic'
loop_
_space_group_symop_operation_xyz
x,y,z
1/2-x,1/2-y,1/2+z
1/2+x,1/2-y,-z
-x,y,1/2-z
-x,-y,-z
1/2+x,1/2+y,1/2-z
1/2-x,1/2+y,z
x,-y,1/2+z
loop_
_atom_site_type_symbol
_atom_site_label
_atom_site_fract_x
_atom_site_fract_y
_atom_site_fract_z
Si Si1 0.316131 0.810607 0.583324
Si Si2 0.162580 0.130238 0.616308
Si Si3 0.763249 0.399661 0.139879
Si Si4 0.000000 0.139748 0.250000
Si Si5 0.846566 0.572717 0.109392
O O1 0.388100 0.721992 0.598070
O O2 0.302975 0.834077 0.453551
O O3 0.116238 0.815976 0.651290
O O4 0.222961 0.598053 0.512518
O O5 0.378093 0.979541 0.382707
O O6 0.964020 0.082866 0.623776
O O7 0.275366 0.874278 0.232360
O O8 0.466627 0.125631 0.130667
O O9 0.831230 0.091965 0.189992
#
# Coordination Sequence:
#
# PCOD9458627 Si02
#       5
#     8   8   8   4   8
#     4  12  28  49  80 117 156 207 266 323 399 468
#     4  11  26  48  82 113 161 204 263 331 392 465
#     4  11  26  49  78 115 158 204 262 328 392 472
#     4  12  28  48  78 106 162 200 270 324 390 456
#     4  12  27  50  79 111 158 209 267 321 401 469
#
# _framework density 25.336509
#
# number of rings (size 3 to 8) (size 9 to 14) (size 15 to 20)
#    0.000    0.444    2.222    4.667   12.444    0.889 
#    4.000    0.000    0.000    0.000    0.000    0.000 
#    0.000    0.000    0.000    0.000    0.000    0.000 
#
# Total GULP energy -201895.598167 kJ/mol
# GULP energy per Si atom -5608.211060 kJ/mol
# Density = 2.527884 g / cm^3
# Si number density = 25.336509 Si / 1000 Ang^3
#
#
#
# Elastic Constant Matrix: (Units=GPa)
#
#
# Indices 1 2 3 4 5 6 
#
# 1 122.6597 39.0751 40.7623 0.0000 0.0000 0.0000
# 2 39.0751 163.9254 52.8270 0.0000 0.0000 0.0000
# 3 40.7623 52.8270 198.9281 0.0000 0.0000 0.0000
# 4 0.0000 0.0000 0.0000 42.3597 0.0000 0.0000
# 5 0.0000 0.0000 0.0000 0.0000 43.7646 0.0000
# 6 0.0000 0.0000 0.0000 0.0000 0.0000 34.5215
#
#
#
# Elastic Compliance Matrix: (Units=1/GPa)
#
#
# Indices 1 2 3 4 5 6 
#
# 1 0.009176 -0.001729 -0.001421 0.000000 0.000000 0.000000
# 2 -0.001729 0.006997 -0.001504 0.000000 0.000000 0.000000
# 3 -0.001421 -0.001504 0.005717 0.000000 0.000000 0.000000
# 4 0.000000 0.000000 0.000000 0.023607 0.000000 0.000000
# 5 0.000000 0.000000 0.000000 0.000000 0.022850 0.000000
# 6 0.000000 0.000000 0.000000 0.000000 0.000000 0.028967
#
#
# Mechanical properties :
#
#
# Convention : Reuss Voigt Hill
#
# Bulk Modulus (GPa) = 79.47725 83.42689 81.45207
# Shear Modulus (GPa) = 45.11945 47.65241 46.38593
#
# Velocity S-wave (km/s) = 4.22454 4.34150 4.28342
# Velocity P-wave (km/s) = 7.43185 7.62434 7.52871
#
# Compressibility (1/GPa) = 0.01258222
#
# Stress axis : x y z
#
# Youngs Moduli (GPa) = 108.98293 142.91485 174.90290
#
# Poissons Ratio (x) = 0.24714 0.24853
# Poissons Ratio (y) = 0.18847 0.26302
# Poissons Ratio (z) = 0.15486 0.21492
#
# Static dielectric constant tensor:
#      x y z
#    x 2.002820 0.000000 0.000000 
#    y 0.000000 1.917830 0.000000 
#    z 0.000000 0.000000 1.997230 
# 
# From -- ./inp_files/14545.got.cif
#   From: 2010.05.17/outbox.cif.g08.bks.cpg/sg60_8_cif.got.tgz:14545.got - 2010.06.03 14:59:27.
