data_PCOD9458206
_publ_section_title
;
Structure prediction by ZEFSAII (Michael W. Deem and Ramdas Pophale) SiO2 
 PCOD9458206
Probable space group: P B C N
;
_chemical_formula_sum "Si O2"
_cell_formula_units_Z 64
_cell_length_a 8.447620
_cell_length_b 18.785095
_cell_length_c 17.693838
_cell_angle_alpha 90.000000
_cell_angle_beta 90.000000
_cell_angle_gamma 90.000000
_cell_volume 2807.823549
_symmetry_space_group_name_H-M "P B C N"
_symmetry_group_IT_number 60
_symmetry_cell_setting 'orthorhombic'
loop_
_space_group_symop_operation_xyz
x,y,z
1/2-x,1/2-y,1/2+z
1/2+x,1/2-y,-z
-x,y,1/2-z
-x,-y,-z
1/2+x,1/2+y,1/2-z
1/2-x,1/2+y,z
x,-y,1/2+z
loop_
_atom_site_type_symbol
_atom_site_label
_atom_site_fract_x
_atom_site_fract_y
_atom_site_fract_z
Si Si1 0.142136 0.309327 0.014576
Si Si2 0.374035 0.383316 0.311917
Si Si3 0.671559 0.457062 0.932155
Si Si4 0.441761 0.010780 0.667976
Si Si5 0.018326 0.835566 0.469225
Si Si6 0.982551 0.329689 0.170191
Si Si7 0.098768 0.957028 0.817871
Si Si8 0.676140 0.946053 0.560372
O O1 0.331222 0.323334 0.016209
O O2 0.056523 0.296111 0.095149
O O3 0.099870 0.241264 0.965612
O O4 0.079512 0.382983 0.978694
O O5 0.500000 0.355205 0.250000
O O6 0.465213 0.374586 0.390126
O O7 0.203798 0.348202 0.329333
O O8 0.339684 0.465982 0.289260
O O9 0.805818 0.461883 0.867610
O O10 0.520652 0.478305 0.883976
O O11 0.617486 0.383399 0.970978
O O12 0.722803 0.513528 0.996320
O O13 0.500000 0.985000 0.750000
O O14 0.570784 0.004881 0.601202
O O15 0.417203 0.095629 0.676032
O O16 0.000000 0.289563 0.250000
O O17 0.000000 0.922423 0.750000
O O18 0.228514 0.915461 0.866685
#
# Coordination Sequence:
#
# PCOD9458206 Si02
#       8
#     8   8   8   8   8   8   8   8
#     4  12  27  44  70  96 137 182 236 286 349 424
#     4  11  23  40  69 101 138 175 227 285 349 415
#     4  12  23  40  69 100 135 174 235 290 345 415
#     4  11  24  38  65 104 140 177 222 286 356 408
#     4  12  26  45  68  98 132 183 234 287 350 422
#     4  11  23  41  67 102 138 176 225 285 350 415
#     4  11  22  38  66 101 138 174 222 285 352 410
#     4  12  22  41  67 103 132 176 229 291 347 408
#
# _framework density 22.793455999999999
#
# number of rings (size 3 to 8) (size 9 to 14) (size 15 to 20)
#    0.000    0.500    5.000    3.750    8.750    0.000 
#    0.000    1.250    5.500    0.000    0.000    0.000 
#    0.000    0.000    0.000    0.000    0.000    0.000 
#
# Total GULP energy -357130.387108 kJ/mol
# GULP energy per Si atom -5580.162299 kJ/mol
# Density = 2.274158 g / cm^3
# Si number density = 22.793456 Si / 1000 Ang^3
#
#
#
# Elastic Constant Matrix: (Units=GPa)
#
#
# Indices 1 2 3 4 5 6 
#
# 1 68.3353 2.2615 15.6951 0.0000 0.0000 0.0000
# 2 2.2615 53.4700 23.4251 0.0000 0.0000 0.0000
# 3 15.6951 23.4251 118.3990 0.0000 0.0000 0.0000
# 4 0.0000 0.0000 0.0000 14.8967 0.0000 0.0000
# 5 0.0000 0.0000 0.0000 0.0000 53.2475 0.0000
# 6 0.0000 0.0000 0.0000 0.0000 0.0000 25.7653
#
#
#
# Elastic Compliance Matrix: (Units=1/GPa)
#
#
# Indices 1 2 3 4 5 6 
#
# 1 0.015097 0.000261 -0.002053 0.000000 0.000000 0.000000
# 2 0.000261 0.020481 -0.004087 0.000000 0.000000 0.000000
# 3 -0.002053 -0.004087 0.009527 0.000000 0.000000 0.000000
# 4 0.000000 0.000000 0.000000 0.067129 0.000000 0.000000
# 5 0.000000 0.000000 0.000000 0.000000 0.018780 0.000000
# 6 0.000000 0.000000 0.000000 0.000000 0.000000 0.038812
#
#
# Mechanical properties :
#
#
# Convention : Reuss Voigt Hill
#
# Bulk Modulus (GPa) = 29.98756 35.88529 32.93642
# Shear Modulus (GPa) = 25.94719 32.03674 28.99196
#
# Velocity S-wave (km/s) = 3.37762 3.75310 3.57030
# Velocity P-wave (km/s) = 5.32878 5.87868 5.61047
#
# Compressibility (1/GPa) = 0.03334717
#
# Stress axis : x y z
#
# Youngs Moduli (GPa) = 66.24018 48.82463 104.96799
#
# Poissons Ratio (x) = -0.01274 0.21548
# Poissons Ratio (y) = -0.01728 0.42898
# Poissons Ratio (z) = 0.13598 0.19954
#
# Static dielectric constant tensor:
#      x y z
#    x 2.003860 0.000000 0.000000 
#    y 0.000000 1.789420 0.000000 
#    z 0.000000 0.000000 1.895450 
# 
# From -- ./inp_files/19727.got.cif
#   From: 2010.05.17/outbox.cif.g08.bks.cpg/sg60_10_cif.got.tgz:19727.got - 2010.06.03 14:59:27.
