data_PCOD9458794
_publ_section_title
;
Structure prediction by ZEFSAII (Michael W. Deem and Ramdas Pophale) SiO2 
 PCOD9458794
Probable space group: P B C N
;
_chemical_formula_sum "Si O2"
_cell_formula_units_Z 28
_cell_length_a 10.041758
_cell_length_b 21.038157
_cell_length_c 4.973545
_cell_angle_alpha 90.000000
_cell_angle_beta 90.000000
_cell_angle_gamma 90.000000
_cell_volume 1050.711521
_symmetry_space_group_name_H-M "P B C N"
_symmetry_group_IT_number 60
_symmetry_cell_setting 'orthorhombic'
loop_
_space_group_symop_operation_xyz
x,y,z
1/2-x,1/2-y,1/2+z
1/2+x,1/2-y,-z
-x,y,1/2-z
-x,-y,-z
1/2+x,1/2+y,1/2-z
1/2-x,1/2+y,z
x,-y,1/2+z
loop_
_atom_site_type_symbol
_atom_site_label
_atom_site_fract_x
_atom_site_fract_y
_atom_site_fract_z
Si Si1 0.810859 0.853746 0.826729
Si Si2 0.225125 0.465945 0.015141
Si Si3 0.500000 0.429610 0.250000
Si Si4 0.088285 0.264248 0.484603
O O1 0.718108 0.902003 0.657441
O O2 0.876580 0.806916 0.608420
O O3 0.910680 0.890075 0.030096
O O4 0.720170 0.805344 0.991949
O O5 0.172799 0.520457 0.812732
O O6 0.385158 0.465762 0.080434
O O7 0.000000 0.293535 0.250000
O O8 0.000000 0.263326 0.750000
#
# Coordination Sequence:
#
# PCOD9458794 Si02
#       4
#     8   8   4   8
#     4  12  30  45  79 108 152 194 245 306 373 442
#     4  12  26  44  71 109 151 188 238 305 380 440
#     4  12  26  44  68 118 146 192 234 308 372 458
#     4  12  30  50  74 109 151 197 251 302 371 446
#
# _framework density 26.648606999999998
#
# number of rings (size 3 to 8) (size 9 to 14) (size 15 to 20)
#    0.000    0.000    2.857    5.143   20.000    0.000 
#    0.000    0.000    0.000    5.143    0.000    0.000 
#    0.000    0.000    0.000    0.000    0.000    0.000 
#
# Total GULP energy -156790.647411 kJ/mol
# GULP energy per Si atom -5599.665979 kJ/mol
# Density = 2.658795 g / cm^3
# Si number density = 26.648607 Si / 1000 Ang^3
#
#
#
# Elastic Constant Matrix: (Units=GPa)
#
#
# Indices 1 2 3 4 5 6 
#
# 1 42.5989 17.7448 36.4726 0.0000 0.0000 0.0000
# 2 17.7448 102.9861 51.6582 0.0000 0.0000 0.0000
# 3 36.4726 51.6582 216.6807 0.0000 0.0000 0.0000
# 4 0.0000 0.0000 0.0000 768.5587 0.0000 0.0000
# 5 0.0000 0.0000 0.0000 0.0000 50.0742 0.0000
# 6 0.0000 0.0000 0.0000 0.0000 0.0000 20.5993
#
#
#
# Elastic Compliance Matrix: (Units=1/GPa)
#
#
# Indices 1 2 3 4 5 6 
#
# 1 0.028124 -0.002807 -0.004065 0.000000 0.000000 0.000000
# 2 -0.002807 0.011309 -0.002224 0.000000 0.000000 0.000000
# 3 -0.004065 -0.002224 0.005829 0.000000 0.000000 0.000000
# 4 0.000000 0.000000 0.000000 0.001301 0.000000 0.000000
# 5 0.000000 0.000000 0.000000 0.000000 0.019970 0.000000
# 6 0.000000 0.000000 0.000000 0.000000 0.000000 0.048545
#
#
# Mechanical properties :
#
#
# Convention : Reuss Voigt Hill
#
# Bulk Modulus (GPa) = 36.93869 63.77966 50.35917
# Shear Modulus (GPa) = 35.13838 184.93911 110.03875
#
# Velocity S-wave (km/s) = 3.63517 8.33965 6.43290
# Velocity P-wave (km/s) = 5.61344 10.80364 8.60899
#
# Compressibility (1/GPa) = 0.02707189
#
# Stress axis : x y z
#
# Youngs Moduli (GPa) = 35.55651 88.42428 171.54324
#
# Poissons Ratio (x) = 0.24820 0.69729
# Poissons Ratio (y) = 0.09981 0.38146
# Poissons Ratio (z) = 0.14453 0.19663
#
# Static dielectric constant tensor:
#      x y z
#    x 2.045270 0.000000 0.000000 
#    y 0.000000 2.112470 0.000000 
#    z 0.000000 0.000000 2.199160 
# 
# From -- ./inp_files/695.got.cif
#   From: 2010.05.17/outbox.cif.g08.bks.cpg/sg60_1_cif.got.tgz:695.got - 2010.06.03 14:59:27.
