data_PCOD9458904
_publ_section_title
;
Structure prediction by ZEFSAII (Michael W. Deem and Ramdas Pophale) SiO2 
 PCOD9458904
Probable space group: P B C N
;
_chemical_formula_sum "Si O2"
_cell_formula_units_Z 64
_cell_length_a 24.000000
_cell_length_b 15.000000
_cell_length_c 9.000000
_cell_angle_alpha 90.000000
_cell_angle_beta 90.000000
_cell_angle_gamma 90.000000
_cell_volume 3240.000000
_symmetry_space_group_name_H-M "P B C N"
_symmetry_group_IT_number 60
_symmetry_cell_setting 'orthorhombic'
loop_
_space_group_symop_operation_xyz
x,y,z
1/2-x,1/2-y,1/2+z
1/2+x,1/2-y,-z
-x,y,1/2-z
-x,-y,-z
1/2+x,1/2+y,1/2-z
1/2-x,1/2+y,z
x,-y,1/2+z
loop_
_atom_site_type_symbol
_atom_site_label
_atom_site_fract_x
_atom_site_fract_y
_atom_site_fract_z
Si Si1 0.368940 0.755657 0.464575
Si Si2 0.187762 0.836221 0.714988
Si Si3 0.336236 0.608632 0.897144
Si Si4 0.066165 0.408918 0.784475
Si Si5 0.064558 0.204438 0.744972
Si Si6 0.768768 0.806463 0.344653
Si Si7 0.749608 0.544905 0.080845
Si Si8 0.129633 0.545328 0.979886
O O1 0.357558 0.682875 0.339656
O O2 0.416713 0.723555 0.575795
O O3 0.312201 0.752920 0.562393
O O4 0.376309 0.856192 0.407744
O O5 0.161903 0.881305 0.572763
O O6 0.210030 0.740172 0.664626
O O7 0.242914 0.884162 0.784132
O O8 0.394430 0.631740 0.818300
O O9 0.294240 0.678204 0.817493
O O10 0.303030 0.516959 0.878639
O O11 0.072554 0.303102 0.818054
O O12 0.087312 0.472680 0.914452
O O13 0.107795 0.434427 0.647481
O O14 0.000000 0.422241 0.750000
O O15 0.000000 0.179898 0.750000
O O16 0.763007 0.899364 0.431800
O O17 0.807552 0.492293 0.052625
#
# Coordination Sequence:
#
# PCOD9458904 Si02
#       8
#     8   8   8   8   8   8   8   8
#     4   9  21  37  55  84 123 157 199 258 297 362
#     4  11  22  36  57  87 124 159 197 243 313 371
#     4  11  22  35  62  86 119 155 203 256 304 365
#     4  10  23  40  60  87 125 167 216 259 299 363
#     4   9  21  43  64  84 116 171 215 252 315 375
#     4  10  21  37  55  81 125 164 190 234 309 376
#     4  11  24  36  56  92 128 155 197 253 310 369
#     4  11  23  36  60  89 122 163 205 251 310 364
#
# _framework density 19.753086
#
# number of rings (size 3 to 8) (size 9 to 14) (size 15 to 20)
#    0.000    1.750    0.000    4.125   12.250    0.000 
#    0.000    0.625    0.000   12.000    0.000    0.000 
#    0.000    0.000    0.000    0.000    0.000    0.000 
#
# Total GULP energy -356858.597991 kJ/mol
# GULP energy per Si atom -5575.915594 kJ/mol
# Density = 1.970813 g / cm^3
# Si number density = 19.753086 Si / 1000 Ang^3
#
#
#
# Elastic Constant Matrix: (Units=GPa)
#
#
# Indices 1 2 3 4 5 6 
#
# 1 114.3138 40.3596 12.1527 0.0000 0.0000 0.0000
# 2 40.3596 63.5491 18.1634 0.0000 0.0000 0.0000
# 3 12.1527 18.1634 59.0665 0.0000 0.0000 0.0000
# 4 0.0000 0.0000 0.0000 28.5518 0.0000 0.0000
# 5 0.0000 0.0000 0.0000 0.0000 12.2509 0.0000
# 6 0.0000 0.0000 0.0000 0.0000 0.0000 28.3392
#
#
#
# Elastic Compliance Matrix: (Units=1/GPa)
#
#
# Indices 1 2 3 4 5 6 
#
# 1 0.011277 -0.007125 -0.000129 0.000000 0.000000 0.000000
# 2 -0.007125 0.021754 -0.005224 0.000000 0.000000 0.000000
# 3 -0.000129 -0.005224 0.018563 0.000000 0.000000 0.000000
# 4 0.000000 0.000000 0.000000 0.035024 0.000000 0.000000
# 5 0.000000 0.000000 0.000000 0.000000 0.081626 0.000000
# 6 0.000000 0.000000 0.000000 0.000000 0.000000 0.035287
#
#
# Mechanical properties :
#
#
# Convention : Reuss Voigt Hill
#
# Bulk Modulus (GPa) = 37.53988 42.03118 39.78553
# Shear Modulus (GPa) = 21.06447 24.91198 22.98823
#
# Velocity S-wave (km/s) = 3.26910 3.55515 3.41512
# Velocity P-wave (km/s) = 5.77020 6.17872 5.97795
#
# Compressibility (1/GPa) = 0.02663834
#
# Stress axis : x y z
#
# Youngs Moduli (GPa) = 88.67460 45.96861 53.87081
#
# Poissons Ratio (x) = 0.32753 0.00696
# Poissons Ratio (y) = 0.63182 0.28140
# Poissons Ratio (z) = 0.01146 0.24012
#
# Static dielectric constant tensor:
#      x y z
#    x 1.679420 0.000000 0.000000 
#    y 0.000000 1.755410 0.000000 
#    z 0.000000 0.000000 1.733760 
# 
# From -- ./inp_files/7963.got.cif
#   From: 2010.05.17/outbox.ucp.g08.bks.cvg/sg60_4_cif.got.tgz:7963.got - 2010.06.11 16:26:41.
