data_PCOD9458837
_publ_section_title
;
Structure prediction by ZEFSAII (Michael W. Deem and Ramdas Pophale) SiO2 
 PCOD9458837
Probable space group: P B C N
;
_chemical_formula_sum "Si O2"
_cell_formula_units_Z 36
_cell_length_a 4.876567
_cell_length_b 18.749140
_cell_length_c 14.694421
_cell_angle_alpha 90.000000
_cell_angle_beta 90.000000
_cell_angle_gamma 90.000000
_cell_volume 1343.532034
_symmetry_space_group_name_H-M "P B C N"
_symmetry_group_IT_number 60
_symmetry_cell_setting 'orthorhombic'
loop_
_space_group_symop_operation_xyz
x,y,z
1/2-x,1/2-y,1/2+z
1/2+x,1/2-y,-z
-x,y,1/2-z
-x,-y,-z
1/2+x,1/2+y,1/2-z
1/2-x,1/2+y,z
x,-y,1/2+z
loop_
_atom_site_type_symbol
_atom_site_label
_atom_site_fract_x
_atom_site_fract_y
_atom_site_fract_z
Si Si1 0.120320 0.332798 0.398598
Si Si2 0.847179 0.942383 0.655634
Si Si3 0.500000 0.250608 0.250000
Si Si4 0.644753 0.685989 0.409485
Si Si5 0.857498 0.481093 0.404630
O O1 0.307924 0.301508 0.315549
O O2 0.263847 0.348713 0.495225
O O3 0.934002 0.266813 0.428885
O O4 0.935898 0.401130 0.375017
O O5 0.890127 0.863737 0.616688
O O6 0.000000 0.943448 0.750000
O O7 0.039204 0.999638 0.601401
O O8 0.536776 0.965587 0.656102
O O9 0.332361 0.199863 0.179991
O O10 0.000000 0.500000 0.500000
#
# Coordination Sequence:
#
# PCOD9458837 Si02
#       5
#     8   8   4   8   8
#     4  12  28  49  82 114 160 209 268 331 404 479
#     4  12  29  50  79 115 158 207 266 327 397 480
#     4  12  28  50  78 116 156 206 276 332 400 472
#     4  12  28  49  81 113 156 210 269 331 398 479
#     4  12  29  50  79 115 159 209 262 327 404 475
#
# _framework density 26.795047
#
# number of rings (size 3 to 8) (size 9 to 14) (size 15 to 20)
#    0.000    0.000    4.444    3.333   14.000    1.778 
#    0.000    0.000    0.000    0.000    0.000    0.000 
#    0.000    0.000    0.000    0.000    0.000    0.000 
#
# Total GULP energy -201576.655598 kJ/mol
# GULP energy per Si atom -5599.351544 kJ/mol
# Density = 2.673406 g / cm^3
# Si number density = 26.795047 Si / 1000 Ang^3
#
#
#
# Elastic Constant Matrix: (Units=GPa)
#
#
# Indices 1 2 3 4 5 6 
#
# 1 91.4864 17.8473 15.5423 0.0000 0.0000 0.0000
# 2 17.8473 165.0569 -1.9236 0.0000 0.0000 0.0000
# 3 15.5423 -1.9236 142.2151 0.0000 0.0000 0.0000
# 4 0.0000 0.0000 0.0000 -2.8303 0.0000 0.0000
# 5 0.0000 0.0000 0.0000 0.0000 43.7658 0.0000
# 6 0.0000 0.0000 0.0000 0.0000 0.0000 29.0585
#
#
#
# Elastic Compliance Matrix: (Units=1/GPa)
#
#
# Indices 1 2 3 4 5 6 
#
# 1 0.011388 -0.001246 -0.001261 0.000000 0.000000 0.000000
# 2 -0.001246 0.006196 0.000220 0.000000 0.000000 0.000000
# 3 -0.001261 0.000220 0.007172 0.000000 0.000000 0.000000
# 4 0.000000 0.000000 0.000000 -0.353323 0.000000 0.000000
# 5 0.000000 0.000000 0.000000 0.000000 0.022849 0.000000
# 6 0.000000 0.000000 0.000000 0.000000 0.000000 0.034413
#
#
# Mechanical properties :
#
#
# Convention : Reuss Voigt Hill
#
# Bulk Modulus (GPa) = 49.55099 51.29893 50.42496
# Shear Modulus (GPa) = -19.23057 38.48496 9.62720
#
# Velocity S-wave (km/s) = -2.68188 3.79393 1.89755
# Velocity P-wave (km/s) = 2.99044 6.19503 4.86421
#
# Compressibility (1/GPa) = 0.02018123
#
# Stress axis : x y z
#
# Youngs Moduli (GPa) = 87.81200 161.39926 139.42264
#
# Poissons Ratio (x) = 0.20111 0.17587
# Poissons Ratio (y) = 0.10942 -0.03067
# Poissons Ratio (z) = 0.11077 -0.03550
#
# Static dielectric constant tensor:
#      x y z
#    x 1.846240 0.000000 0.000000 
#    y 0.000000 2.049070 0.000000 
#    z 0.000000 0.000000 2.100130 
# 
# From -- ./inp_files/13701.got.cif
#   From: 2010.05.17/outbox.cif.g08.bks.cpg/sg60_7_cif.got.tgz:13701.got - 2010.06.03 14:59:27.
