data_PCOD9458313
_publ_section_title
;
Structure prediction by ZEFSAII (Michael W. Deem and Ramdas Pophale) SiO2 
 PCOD9458313
Probable space group: P B C N
;
_chemical_formula_sum "Si O2"
_cell_formula_units_Z 32
_cell_length_a 18.023236
_cell_length_b 8.922142
_cell_length_c 8.071346
_cell_angle_alpha 90.000000
_cell_angle_beta 90.000000
_cell_angle_gamma 90.000000
_cell_volume 1297.919823
_symmetry_space_group_name_H-M "P B C N"
_symmetry_group_IT_number 60
_symmetry_cell_setting 'orthorhombic'
loop_
_space_group_symop_operation_xyz
x,y,z
1/2-x,1/2-y,1/2+z
1/2+x,1/2-y,-z
-x,y,1/2-z
-x,-y,-z
1/2+x,1/2+y,1/2-z
1/2-x,1/2+y,z
x,-y,1/2+z
loop_
_atom_site_type_symbol
_atom_site_label
_atom_site_fract_x
_atom_site_fract_y
_atom_site_fract_z
Si Si1 0.694450 0.938426 0.374224
Si Si2 0.414188 0.463190 0.462394
Si Si3 0.588980 0.725589 0.232745
Si Si4 0.821099 0.258990 0.721423
O O1 0.621692 0.884042 0.273149
O O2 0.694279 0.859749 0.555036
O O3 0.760992 0.867489 0.266589
O O4 0.687614 0.116983 0.365889
O O5 0.500000 0.500000 0.500000
O O6 0.384884 0.628789 0.422983
O O7 0.382084 0.383437 0.621688
O O8 0.395671 0.338265 0.321652
O O9 0.500000 0.731010 0.250000
#
# Coordination Sequence:
#
# PCOD9458313 Si02
#       4
#     8   8   8   8
#     4  11  23  39  60  90 123 161 206 257 314 370
#     4   9  19  37  59  84 115 157 203 250 308 370
#     4   9  19  37  58  83 118 156 200 251 304 369
#     4  11  23  39  61  91 126 164 209 260 313 375
#
# _framework density 24.654834999999999
#
# number of rings (size 3 to 8) (size 9 to 14) (size 15 to 20)
#    0.000    2.000    0.000    3.000    0.000    8.000 
#    0.000   15.000    0.000    0.000    0.000    0.000 
#    0.000    0.000    0.000    0.000    0.000    0.000 
#
# Total GULP energy -178443.114815 kJ/mol
# GULP energy per Si atom -5576.347338 kJ/mol
# Density = 2.459872 g / cm^3
# Si number density = 24.654835 Si / 1000 Ang^3
#
#
#
# Elastic Constant Matrix: (Units=GPa)
#
#
# Indices 1 2 3 4 5 6 
#
# 1 64.0119 47.8828 9.2301 0.0000 0.0000 0.0000
# 2 47.8828 161.1506 14.8144 0.0000 0.0000 0.0000
# 3 9.2301 14.8144 61.6159 0.0000 0.0000 0.0000
# 4 0.0000 0.0000 0.0000 49.3054 0.0000 0.0000
# 5 0.0000 0.0000 0.0000 0.0000 18.8974 0.0000
# 6 0.0000 0.0000 0.0000 0.0000 0.0000 50.3711
#
#
#
# Elastic Compliance Matrix: (Units=1/GPa)
#
#
# Indices 1 2 3 4 5 6 
#
# 1 0.020244 -0.005866 -0.001622 0.000000 0.000000 0.000000
# 2 -0.005866 0.008045 -0.001056 0.000000 0.000000 0.000000
# 3 -0.001622 -0.001056 0.016726 0.000000 0.000000 0.000000
# 4 0.000000 0.000000 0.000000 0.020282 0.000000 0.000000
# 5 0.000000 0.000000 0.000000 0.000000 0.052917 0.000000
# 6 0.000000 0.000000 0.000000 0.000000 0.000000 0.019853
#
#
# Mechanical properties :
#
#
# Convention : Reuss Voigt Hill
#
# Bulk Modulus (GPa) = 35.80625 47.84813 41.82719
# Shear Modulus (GPa) = 30.40174 38.03819 34.21996
#
# Velocity S-wave (km/s) = 3.51535 3.93215 3.72958
# Velocity P-wave (km/s) = 5.57059 6.32970 5.96224
#
# Compressibility (1/GPa) = 0.02792808
#
# Stress axis : x y z
#
# Youngs Moduli (GPa) = 49.39759 124.29500 59.78577
#
# Poissons Ratio (x) = 0.72911 0.09698
# Poissons Ratio (y) = 0.28976 0.06311
# Poissons Ratio (z) = 0.08013 0.13121
#
# Static dielectric constant tensor:
#      x y z
#    x 1.972110 0.000000 0.000000 
#    y 0.000000 1.940450 0.000000 
#    z 0.000000 0.000000 2.112490 
# 
# From -- ./inp_files/7127.got.cif
#   From: 2010.05.17/outbox.cif.g08.bks.cpg/sg60_4_cif.got.tgz:7127.got - 2010.06.03 14:59:27.
