data_PCOD9458228
_publ_section_title
;
Structure prediction by ZEFSAII (Michael W. Deem and Ramdas Pophale) SiO2 
 PCOD9458228
Probable space group: P B C N
;
_chemical_formula_sum "Si O2"
_cell_formula_units_Z 48
_cell_length_a 14.726654
_cell_length_b 9.957239
_cell_length_c 17.192278
_cell_angle_alpha 90.000000
_cell_angle_beta 90.000000
_cell_angle_gamma 90.000000
_cell_volume 2521.020864
_symmetry_space_group_name_H-M "P B C N"
_symmetry_group_IT_number 60
_symmetry_cell_setting 'orthorhombic'
loop_
_space_group_symop_operation_xyz
x,y,z
1/2-x,1/2-y,1/2+z
1/2+x,1/2-y,-z
-x,y,1/2-z
-x,-y,-z
1/2+x,1/2+y,1/2-z
1/2-x,1/2+y,z
x,-y,1/2+z
loop_
_atom_site_type_symbol
_atom_site_label
_atom_site_fract_x
_atom_site_fract_y
_atom_site_fract_z
Si Si1 0.530106 0.208526 0.976902
Si Si2 0.757545 0.906780 0.631292
Si Si3 0.102393 0.536662 0.251329
Si Si4 0.068366 0.235185 0.312330
Si Si5 0.124392 0.429321 0.571259
Si Si6 0.208414 0.161241 0.971035
O O1 0.479145 0.243001 0.896133
O O2 0.586921 0.071340 0.961582
O O3 0.453323 0.175003 0.041451
O O4 0.604713 0.318787 0.001574
O O5 0.668915 0.901420 0.685244
O O6 0.843402 0.853532 0.677902
O O7 0.741928 0.804331 0.560773
O O8 0.778333 0.053647 0.597897
O O9 0.094714 0.380832 0.277300
O O10 0.134389 0.554636 0.163342
O O11 0.000000 0.591684 0.250000
O O12 0.000000 0.173392 0.250000
O O13 0.220745 0.387324 0.535960
#
# Coordination Sequence:
#
# PCOD9458228 Si02
#       6
#     8   8   8   8   8   8
#     4  11  22  42  69  95 135 174 226 271 333 411
#     4  12  24  45  65 100 133 174 219 283 339 397
#     4  11  22  40  71  96 129 176 228 267 327 409
#     4  11  23  43  67  95 134 182 215 273 341 400
#     4  11  22  40  68 103 126 179 231 271 331 413
#     4  12  25  42  70  97 134 175 226 281 338 397
#
# _framework density 19.039905000000001
#
# number of rings (size 3 to 8) (size 9 to 14) (size 15 to 20)
#    0.000    0.667    8.333    1.000    2.333    0.667 
#    0.000    2.500    0.000    0.000    0.000    0.000 
#    0.000    0.000    0.000    0.000    0.000    0.000 
#
# Total GULP energy -268081.561300 kJ/mol
# GULP energy per Si atom -5585.032527 kJ/mol
# Density = 1.899657 g / cm^3
# Si number density = 19.039905 Si / 1000 Ang^3
#
#
#
# Elastic Constant Matrix: (Units=GPa)
#
#
# Indices 1 2 3 4 5 6 
#
# 1 132.9754 35.8999 49.8995 0.0000 0.0000 0.0000
# 2 35.8999 39.6013 16.3636 0.0000 0.0000 0.0000
# 3 49.8995 16.3636 96.8078 0.0000 0.0000 0.0000
# 4 0.0000 0.0000 0.0000 16.6151 0.0000 0.0000
# 5 0.0000 0.0000 0.0000 0.0000 47.1884 0.0000
# 6 0.0000 0.0000 0.0000 0.0000 0.0000 31.9438
#
#
#
# Elastic Compliance Matrix: (Units=1/GPa)
#
#
# Indices 1 2 3 4 5 6 
#
# 1 0.011524 -0.008593 -0.004488 0.000000 0.000000 0.000000
# 2 -0.008593 0.033555 -0.001243 0.000000 0.000000 0.000000
# 3 -0.004488 -0.001243 0.012853 0.000000 0.000000 0.000000
# 4 0.000000 0.000000 0.000000 0.060186 0.000000 0.000000
# 5 0.000000 0.000000 0.000000 0.000000 0.021192 0.000000
# 6 0.000000 0.000000 0.000000 0.000000 0.000000 0.031305
#
#
# Mechanical properties :
#
#
# Convention : Reuss Voigt Hill
#
# Bulk Modulus (GPa) = 34.14636 52.63451 43.39043
# Shear Modulus (GPa) = 23.92092 30.29757 27.10924
#
# Velocity S-wave (km/s) = 3.54836 3.99340 3.77744
# Velocity P-wave (km/s) = 5.89583 6.99766 6.47024
#
# Compressibility (1/GPa) = 0.02928570
#
# Stress axis : x y z
#
# Youngs Moduli (GPa) = 86.77599 29.80213 77.80320
#
# Poissons Ratio (x) = 0.25608 0.34915
# Poissons Ratio (y) = 0.74562 0.09669
# Poissons Ratio (z) = 0.38941 0.03704
#
# Static dielectric constant tensor:
#      x y z
#    x 1.678000 0.000000 0.000000 
#    y 0.000000 1.651400 0.000000 
#    z 0.000000 0.000000 1.663790 
# 
# From -- ./inp_files/20018.got.cif
#   From: 2010.05.17/outbox.cif.g08.bks.cpg/sg60_11_cif.got.tgz:20018.got - 2010.06.03 14:59:27.
