data_PCOD9458098
_publ_section_title
;
Structure prediction by ZEFSAII (Michael W. Deem and Ramdas Pophale) SiO2 
 PCOD9458098
Probable space group: P B C N
;
_chemical_formula_sum "Si O2"
_cell_formula_units_Z 64
_cell_length_a 12.099838
_cell_length_b 8.282269
_cell_length_c 32.603137
_cell_angle_alpha 90.000000
_cell_angle_beta 90.000000
_cell_angle_gamma 90.000000
_cell_volume 3267.294461
_symmetry_space_group_name_H-M "P B C N"
_symmetry_group_IT_number 60
_symmetry_cell_setting 'orthorhombic'
loop_
_space_group_symop_operation_xyz
x,y,z
1/2-x,1/2-y,1/2+z
1/2+x,1/2-y,-z
-x,y,1/2-z
-x,-y,-z
1/2+x,1/2+y,1/2-z
1/2-x,1/2+y,z
x,-y,1/2+z
loop_
_atom_site_type_symbol
_atom_site_label
_atom_site_fract_x
_atom_site_fract_y
_atom_site_fract_z
Si Si1 0.881010 0.888848 0.361129
Si Si2 0.811245 0.333793 0.155722
Si Si3 0.308203 0.908551 0.591358
Si Si4 0.191371 0.585170 0.283328
Si Si5 0.118920 0.048530 0.983772
Si Si6 0.619144 0.385842 0.263639
Si Si7 0.692652 0.156271 0.970171
Si Si8 0.115000 0.968229 0.888340
O O1 0.877834 0.707265 0.379258
O O2 0.868560 0.888339 0.312348
O O3 0.781841 0.990626 0.382415
O O4 0.997515 0.968078 0.372658
O O5 0.871449 0.461189 0.186094
O O6 0.755385 0.206485 0.186475
O O7 0.714068 0.432653 0.133288
O O8 0.875497 0.220991 0.123694
O O9 0.244458 0.785543 0.561240
O O10 0.369734 0.031288 0.560142
O O11 0.282035 0.485993 0.257404
O O12 0.125167 0.703288 0.253662
O O13 0.125146 0.005453 0.936226
O O14 0.132939 0.236825 0.995588
O O15 0.211423 0.944757 0.007525
O O16 0.000000 0.000000 0.000000
O O17 0.500000 0.454118 0.250000
#
# Coordination Sequence:
#
# PCOD9458098 Si02
#       8
#     8   8   8   8   8   8   8   8
#     4  11  21  37  59  84 114 150 188 232 283 337
#     4   9  19  37  57  81 111 143 182 230 276 330
#     4   9  19  37  57  82 112 146 186 233 279 333
#     4   9  19  37  57  81 111 143 182 229 276 330
#     4  11  21  37  58  84 113 149 188 232 283 337
#     4  11  21  37  58  83 112 147 183 227 278 331
#     4   9  19  37  57  81 113 145 185 234 279 332
#     4  11  21  37  59  84 113 149 187 231 282 334
#
# _framework density 19.588072
#
# number of rings (size 3 to 8) (size 9 to 14) (size 15 to 20)
#    0.000    2.000    0.000    6.000    0.000    0.000 
#    0.000   24.375    0.000    0.000    0.000    0.000 
#    0.000    0.000    0.000    0.000    0.000    0.000 
#
# Total GULP energy -356812.372198 kJ/mol
# GULP energy per Si atom -5575.193316 kJ/mol
# Density = 1.954349 g / cm^3
# Si number density = 19.588072 Si / 1000 Ang^3
#
#
#
# Elastic Constant Matrix: (Units=GPa)
#
#
# Indices 1 2 3 4 5 6 
#
# 1 57.7348 12.8050 12.3929 0.0000 0.0000 0.0000
# 2 12.8050 82.4690 33.2507 0.0000 0.0000 0.0000
# 3 12.3929 33.2507 144.4715 0.0000 0.0000 0.0000
# 4 0.0000 0.0000 0.0000 14.3707 0.0000 0.0000
# 5 0.0000 0.0000 0.0000 0.0000 28.9655 0.0000
# 6 0.0000 0.0000 0.0000 0.0000 0.0000 215.9003
#
#
#
# Elastic Compliance Matrix: (Units=1/GPa)
#
#
# Indices 1 2 3 4 5 6 
#
# 1 0.018068 -0.002404 -0.000997 0.000000 0.000000 0.000000
# 2 -0.002404 0.013686 -0.002944 0.000000 0.000000 0.000000
# 3 -0.000997 -0.002944 0.007685 0.000000 0.000000 0.000000
# 4 0.000000 0.000000 0.000000 0.069586 0.000000 0.000000
# 5 0.000000 0.000000 0.000000 0.000000 0.034524 0.000000
# 6 0.000000 0.000000 0.000000 0.000000 0.000000 0.004632
#
#
# Mechanical properties :
#
#
# Convention : Reuss Voigt Hill
#
# Bulk Modulus (GPa) = 37.38253 44.61918 41.00085
# Shear Modulus (GPa) = 29.44911 66.92907 48.18909
#
# Velocity S-wave (km/s) = 3.88160 5.85171 4.96534
# Velocity P-wave (km/s) = 6.26218 8.27555 7.33825
#
# Compressibility (1/GPa) = 0.02675046
#
# Stress axis : x y z
#
# Youngs Moduli (GPa) = 55.34767 73.06825 130.12745
#
# Poissons Ratio (x) = 0.17562 0.12969
# Poissons Ratio (y) = 0.13303 0.38305
# Poissons Ratio (z) = 0.05516 0.21509
#
# Static dielectric constant tensor:
#      x y z
#    x 3.516810 0.000000 0.000000 
#    y 0.000000 1.691660 0.000000 
#    z 0.000000 0.000000 1.702270 
# 
# From -- ./inp_files/26095.got.cif
#   From: 2010.05.17/outbox.cif.g08.bks.cpg/sg60_14_cif.got.tgz:26095.got - 2010.06.03 14:59:27.
