data_PCOD9458696
_publ_section_title
;
Structure prediction by ZEFSAII (Michael W. Deem and Ramdas Pophale) SiO2 
 PCOD9458696
Probable space group: P B C N
;
_chemical_formula_sum "Si O2"
_cell_formula_units_Z 32
_cell_length_a 7.424813
_cell_length_b 9.623884
_cell_length_c 22.093277
_cell_angle_alpha 90.000000
_cell_angle_beta 90.000000
_cell_angle_gamma 90.000000
_cell_volume 1578.687017
_symmetry_space_group_name_H-M "P B C N"
_symmetry_group_IT_number 60
_symmetry_cell_setting 'orthorhombic'
loop_
_space_group_symop_operation_xyz
x,y,z
1/2-x,1/2-y,1/2+z
1/2+x,1/2-y,-z
-x,y,1/2-z
-x,-y,-z
1/2+x,1/2+y,1/2-z
1/2-x,1/2+y,z
x,-y,1/2+z
loop_
_atom_site_type_symbol
_atom_site_label
_atom_site_fract_x
_atom_site_fract_y
_atom_site_fract_z
Si Si1 0.854698 0.821060 0.377790
Si Si2 0.711171 0.524393 0.659090
Si Si3 0.539143 0.020886 0.429512
Si Si4 0.286592 0.728681 0.252826
O O1 0.692417 0.912836 0.405978
O O2 0.911406 0.683636 0.416137
O O3 0.796028 0.751286 0.313457
O O4 0.015173 0.934623 0.367789
O O5 0.734496 0.640616 0.708763
O O6 0.759154 0.394004 0.701384
O O7 0.857917 0.519264 0.606554
O O8 0.500000 0.000000 0.500000
O O9 0.500000 0.719163 0.250000
#
# Coordination Sequence:
#
# PCOD9458696 Si02
#       4
#     8   8   8   8
#     4  12  27  49  76 109 148 195 245 312 370 434
#     4  12  26  45  74 111 144 192 242 304 369 435
#     4  12  30  50  75 108 151 201 252 295 364 450
#     4  12  23  43  74 108 151 182 241 308 376 428
#
# _framework density 20.270009000000002
#
# number of rings (size 3 to 8) (size 9 to 14) (size 15 to 20)
#    0.000    0.000    5.000    5.250    3.500    1.000 
#    0.000    0.000    0.000    0.000    0.000    0.000 
#    0.000    0.000    0.000    0.000    0.000    0.000 
#
# Total GULP energy -178504.092361 kJ/mol
# GULP energy per Si atom -5578.252886 kJ/mol
# Density = 2.022387 g / cm^3
# Si number density = 20.270009 Si / 1000 Ang^3
#
#
#
# Elastic Constant Matrix: (Units=GPa)
#
#
# Indices 1 2 3 4 5 6 
#
# 1 154.3045 25.6542 75.0786 0.0000 0.0000 0.0000
# 2 25.6542 157.6640 67.8905 0.0000 0.0000 0.0000
# 3 75.0786 67.8905 187.2105 0.0000 0.0000 0.0000
# 4 0.0000 0.0000 0.0000 28.1043 0.0000 0.0000
# 5 0.0000 0.0000 0.0000 0.0000 31.8237 0.0000
# 6 0.0000 0.0000 0.0000 0.0000 0.0000 32.5935
#
#
#
# Elastic Compliance Matrix: (Units=1/GPa)
#
#
# Indices 1 2 3 4 5 6 
#
# 1 0.008053 0.000095 -0.003264 0.000000 0.000000 0.000000
# 2 0.000095 0.007517 -0.002764 0.000000 0.000000 0.000000
# 3 -0.003264 -0.002764 0.007653 0.000000 0.000000 0.000000
# 4 0.000000 0.000000 0.000000 0.035582 0.000000 0.000000
# 5 0.000000 0.000000 0.000000 0.000000 0.031423 0.000000
# 6 0.000000 0.000000 0.000000 0.000000 0.000000 0.030681
#
#
# Mechanical properties :
#
#
# Convention : Reuss Voigt Hill
#
# Bulk Modulus (GPa) = 88.05070 92.93617 90.49343
# Shear Modulus (GPa) = 36.61355 40.54136 38.57745
#
# Velocity S-wave (km/s) = 4.25466 4.47706 4.36728
# Velocity P-wave (km/s) = 8.22614 8.52491 8.37686
#
# Compressibility (1/GPa) = 0.01135709
#
# Stress axis : x y z
#
# Youngs Moduli (GPa) = 124.17655 133.02406 130.66653
#
# Poissons Ratio (x) = -0.01266 0.42651
# Poissons Ratio (y) = -0.01182 0.36120
# Poissons Ratio (z) = 0.40532 0.36772
#
# Static dielectric constant tensor:
#      x y z
#    x 1.665540 0.000000 0.000000 
#    y 0.000000 1.714200 0.000000 
#    z 0.000000 0.000000 1.667880 
# 
# From -- ./inp_files/21879.got.cif
#   From: 2010.05.17/outbox.cif.g08.bks.cpg/sg60_11_cif.got.tgz:21879.got - 2010.06.03 14:59:27.
