data_PCOD9458120
_publ_section_title
;
Structure prediction by ZEFSAII (Michael W. Deem and Ramdas Pophale) SiO2 
 PCOD9458120
Probable space group: P B C N
;
_chemical_formula_sum "Si O2"
_cell_formula_units_Z 48
_cell_length_a 9.515439
_cell_length_b 13.881910
_cell_length_c 17.299294
_cell_angle_alpha 90.000000
_cell_angle_beta 90.000000
_cell_angle_gamma 90.000000
_cell_volume 2285.106436
_symmetry_space_group_name_H-M "P B C N"
_symmetry_group_IT_number 60
_symmetry_cell_setting 'orthorhombic'
loop_
_space_group_symop_operation_xyz
x,y,z
1/2-x,1/2-y,1/2+z
1/2+x,1/2-y,-z
-x,y,1/2-z
-x,-y,-z
1/2+x,1/2+y,1/2-z
1/2-x,1/2+y,z
x,-y,1/2+z
loop_
_atom_site_type_symbol
_atom_site_label
_atom_site_fract_x
_atom_site_fract_y
_atom_site_fract_z
Si Si1 0.931958 0.204080 0.585813
Si Si2 0.425116 0.283626 0.584633
Si Si3 0.665707 0.793864 0.814740
Si Si4 0.163023 0.685716 0.819969
Si Si5 0.506833 0.495670 0.869564
Si Si6 0.751886 0.007735 0.246994
O O1 0.016283 0.255124 0.656079
O O2 0.951285 0.251785 0.502263
O O3 0.768783 0.198393 0.608112
O O4 0.979387 0.092749 0.584246
O O5 0.263546 0.279119 0.609898
O O6 0.518116 0.230284 0.650048
O O7 0.459214 0.397110 0.587996
O O8 0.753085 0.738612 0.748696
O O9 0.668100 0.902807 0.782724
O O10 0.158045 0.576296 0.789567
O O11 0.639668 0.522534 0.814936
O O12 0.367382 0.469583 0.819566
#
# Coordination Sequence:
#
# PCOD9458120 Si02
#       6
#     8   8   8   8   8   8
#     4  11  22  37  61  92 126 160 199 256 315 367
#     4  11  22  37  61  92 126 160 199 256 315 367
#     4  11  21  39  63  88 120 162 208 251 301 365
#     4  11  21  39  63  88 120 162 208 251 301 365
#     4   9  17  34  60  88 118 156 208 248 292 364
#     4   9  18  34  61  88 114 157 211 248 290 359
#
# _framework density 21.005586000000001
#
# number of rings (size 3 to 8) (size 9 to 14) (size 15 to 20)
#    0.000    1.667    3.333    2.500    0.000    0.000 
#    0.000    3.333    0.000    2.000    0.000    0.000 
#    0.000    0.000    0.000    0.000    0.000    0.000 
#
# Total GULP energy -267749.047364 kJ/mol
# GULP energy per Si atom -5578.105153 kJ/mol
# Density = 2.095778 g / cm^3
# Si number density = 21.005586 Si / 1000 Ang^3
#
#
#
# Elastic Constant Matrix: (Units=GPa)
#
#
# Indices 1 2 3 4 5 6 
#
# 1 67.4691 11.4454 -10.8482 0.0000 0.0000 0.0000
# 2 11.4454 56.3050 -5.6451 0.0000 0.0000 0.0000
# 3 -10.8482 -5.6451 68.8238 0.0000 0.0000 0.0000
# 4 0.0000 0.0000 0.0000 10.2224 0.0000 0.0000
# 5 0.0000 0.0000 0.0000 0.0000 18.4308 0.0000
# 6 0.0000 0.0000 0.0000 0.0000 0.0000 26.5312
#
#
#
# Elastic Compliance Matrix: (Units=1/GPa)
#
#
# Indices 1 2 3 4 5 6 
#
# 1 0.015683 -0.002964 0.002229 0.000000 0.000000 0.000000
# 2 -0.002964 0.018468 0.001048 0.000000 0.000000 0.000000
# 3 0.002229 0.001048 0.014967 0.000000 0.000000 0.000000
# 4 0.000000 0.000000 0.000000 0.097824 0.000000 0.000000
# 5 0.000000 0.000000 0.000000 0.000000 0.054257 0.000000
# 6 0.000000 0.000000 0.000000 0.000000 0.000000 0.037691
#
#
# Mechanical properties :
#
#
# Convention : Reuss Voigt Hill
#
# Bulk Modulus (GPa) = 20.10384 20.27801 20.19092
# Shear Modulus (GPa) = 19.61958 24.21328 21.91643
#
# Velocity S-wave (km/s) = 3.05949 3.39884 3.23362
# Velocity P-wave (km/s) = 4.69809 5.00773 4.85538
#
# Compressibility (1/GPa) = 0.04974175
#
# Stress axis : x y z
#
# Youngs Moduli (GPa) = 63.76389 54.14757 66.81327
#
# Poissons Ratio (x) = 0.16052 -0.14891
# Poissons Ratio (y) = 0.18903 -0.06999
# Poissons Ratio (z) = -0.14212 -0.05672
#
# Static dielectric constant tensor:
#      x y z
#    x 1.739880 0.000000 0.000000 
#    y 0.000000 1.772960 0.000000 
#    z 0.000000 0.000000 1.788940 
# 
# From -- ./inp_files/19316.got.cif
#   From: 2010.05.17/outbox.cif.g08.bks.cpg/sg60_10_cif.got.tgz:19316.got - 2010.06.03 14:59:27.
