data_PCOD9458605
_publ_section_title
;
Structure prediction by ZEFSAII (Michael W. Deem and Ramdas Pophale) SiO2 
 PCOD9458605
Probable space group: P B C N
;
_chemical_formula_sum "Si O2"
_cell_formula_units_Z 32
_cell_length_a 16.812708
_cell_length_b 5.474498
_cell_length_c 14.096827
_cell_angle_alpha 90.000000
_cell_angle_beta 90.000000
_cell_angle_gamma 90.000000
_cell_volume 1297.487976
_symmetry_space_group_name_H-M "P B C N"
_symmetry_group_IT_number 60
_symmetry_cell_setting 'orthorhombic'
loop_
_space_group_symop_operation_xyz
x,y,z
1/2-x,1/2-y,1/2+z
1/2+x,1/2-y,-z
-x,y,1/2-z
-x,-y,-z
1/2+x,1/2+y,1/2-z
1/2-x,1/2+y,z
x,-y,1/2+z
loop_
_atom_site_type_symbol
_atom_site_label
_atom_site_fract_x
_atom_site_fract_y
_atom_site_fract_z
Si Si1 0.412850 0.524888 0.716756
Si Si2 0.542714 0.787173 0.441458
Si Si3 0.205946 0.249435 0.583350
Si Si4 0.873090 0.973296 0.580003
O O1 0.500000 0.610084 0.750000
O O2 0.421399 0.261218 0.664284
O O3 0.376844 0.706317 0.638774
O O4 0.358349 0.518884 0.810127
O O5 0.463870 0.621528 0.425609
O O6 0.615677 0.704551 0.510100
O O7 0.500000 0.000000 0.500000
O O8 0.256148 0.006845 0.608030
O O9 0.184861 0.215173 0.472123
#
# Coordination Sequence:
#
# PCOD9458605 Si02
#       4
#     8   8   8   8
#     4   9  20  44  65 104 135 180 243 297 357 432
#     4   9  18  36  66  96 129 168 219 287 351 413
#     4  11  26  45  67  96 142 189 237 295 365 435
#     4   9  20  39  62  90 130 173 225 279 352 417
#
# _framework density 24.663043999999999
#
# number of rings (size 3 to 8) (size 9 to 14) (size 15 to 20)
#    0.000    2.500    0.000    1.500    7.000    2.000 
#    9.000    5.000    0.000    0.000    0.000    0.000 
#    0.000    0.000    0.000    0.000    0.000    0.000 
#
# Total GULP energy -178248.836259 kJ/mol
# GULP energy per Si atom -5570.276133 kJ/mol
# Density = 2.460691 g / cm^3
# Si number density = 24.663044 Si / 1000 Ang^3
#
#
#
# Elastic Constant Matrix: (Units=GPa)
#
#
# Indices 1 2 3 4 5 6 
#
# 1 77.8969 31.7442 8.9214 0.0000 0.0000 0.0000
# 2 31.7442 65.3284 -10.6976 0.0000 0.0000 0.0000
# 3 8.9214 -10.6976 126.3268 0.0000 0.0000 0.0000
# 4 0.0000 0.0000 0.0000 10.8297 0.0000 0.0000
# 5 0.0000 0.0000 0.0000 0.0000 43.6011 0.0000
# 6 0.0000 0.0000 0.0000 0.0000 0.0000 42.4534
#
#
#
# Elastic Compliance Matrix: (Units=1/GPa)
#
#
# Indices 1 2 3 4 5 6 
#
# 1 0.016428 -0.008288 -0.001862 0.000000 0.000000 0.000000
# 2 -0.008288 0.019703 0.002254 0.000000 0.000000 0.000000
# 3 -0.001862 0.002254 0.008238 0.000000 0.000000 0.000000
# 4 0.000000 0.000000 0.000000 0.092339 0.000000 0.000000
# 5 0.000000 0.000000 0.000000 0.000000 0.022935 0.000000
# 6 0.000000 0.000000 0.000000 0.000000 0.000000 0.023555
#
#
# Mechanical properties :
#
#
# Convention : Reuss Voigt Hill
#
# Bulk Modulus (GPa) = 34.99160 36.60978 35.80069
# Shear Modulus (GPa) = 23.97893 35.34912 29.66402
#
# Velocity S-wave (km/s) = 3.12149 3.78998 3.47186
# Velocity P-wave (km/s) = 5.21635 5.83336 5.53346
#
# Compressibility (1/GPa) = 0.02857829
#
# Stress axis : x y z
#
# Youngs Moduli (GPa) = 60.87148 50.75265 121.38385
#
# Poissons Ratio (x) = 0.42062 0.22601
# Poissons Ratio (y) = 0.50448 -0.27358
# Poissons Ratio (z) = 0.11334 -0.11439
#
# Static dielectric constant tensor:
#      x y z
#    x 2.070580 0.000000 0.000000 
#    y 0.000000 2.076120 0.000000 
#    z 0.000000 0.000000 2.109760 
# 
# From -- ./inp_files/17118.got.cif
#   From: 2010.05.17/outbox.cif.g08.bks.cpg/sg60_9_cif.got.tgz:17118.got - 2010.06.03 14:59:27.
