data_PCOD9458141
_publ_section_title
;
Structure prediction by ZEFSAII (Michael W. Deem and Ramdas Pophale) SiO2 
 PCOD9458141
Probable space group: P B C N
;
_chemical_formula_sum "Si O2"
_cell_formula_units_Z 40
_cell_length_a 7.557108
_cell_length_b 22.913257
_cell_length_c 9.966228
_cell_angle_alpha 90.000000
_cell_angle_beta 90.000000
_cell_angle_gamma 90.000000
_cell_volume 1725.731687
_symmetry_space_group_name_H-M "P B C N"
_symmetry_group_IT_number 60
_symmetry_cell_setting 'orthorhombic'
loop_
_space_group_symop_operation_xyz
x,y,z
1/2-x,1/2-y,1/2+z
1/2+x,1/2-y,-z
-x,y,1/2-z
-x,-y,-z
1/2+x,1/2+y,1/2-z
1/2-x,1/2+y,z
x,-y,1/2+z
loop_
_atom_site_type_symbol
_atom_site_label
_atom_site_fract_x
_atom_site_fract_y
_atom_site_fract_z
Si Si1 0.627926 0.008825 0.875050
Si Si2 0.354491 0.180980 0.943583
Si Si3 0.209257 0.615160 0.207723
Si Si4 0.820622 0.119266 0.806003
Si Si5 0.736783 0.312836 0.538854
O O1 0.500000 0.018221 0.750000
O O2 0.732995 0.068291 0.892189
O O3 0.741989 0.951316 0.839086
O O4 0.500000 0.000000 0.000000
O O5 0.300849 0.142157 0.815594
O O6 0.562678 0.180739 0.981373
O O7 0.264818 0.155791 0.078289
O O8 0.297146 0.247128 0.916368
O O9 0.298999 0.643159 0.338301
O O10 0.000000 0.615606 0.250000
O O11 0.874021 0.171357 0.906395
O O12 0.000000 0.093298 0.750000
#
# Coordination Sequence:
#
# PCOD9458141 Si02
#       5
#     8   8   8   8   8
#     4  11  21  41  68  91 119 165 216 265 324 385
#     4  11  22  40  65  92 125 166 210 260 320 383
#     4   9  20  38  62  89 118 155 206 261 318 380
#     4  12  25  41  61  93 132 171 214 262 318 387
#     4  11  22  40  64  93 126 165 210 264 322 385
#
# _framework density 23.178573
#
# number of rings (size 3 to 8) (size 9 to 14) (size 15 to 20)
#    0.000    1.200    0.000    9.000    0.000    1.600 
#    0.000   14.000    0.000    0.000    0.000    0.000 
#    0.000    0.000    0.000    0.000    0.000    0.000 
#
# Total GULP energy -223773.944874 kJ/mol
# GULP energy per Si atom -5594.348622 kJ/mol
# Density = 2.312582 g / cm^3
# Si number density = 23.178573 Si / 1000 Ang^3
#
#
#
# Elastic Constant Matrix: (Units=GPa)
#
#
# Indices 1 2 3 4 5 6 
#
# 1 44.1185 18.5716 13.1272 0.0000 0.0000 0.0000
# 2 18.5716 149.8332 50.3215 0.0000 0.0000 0.0000
# 3 13.1272 50.3215 140.1232 0.0000 0.0000 0.0000
# 4 0.0000 0.0000 0.0000 33.3948 0.0000 0.0000
# 5 0.0000 0.0000 0.0000 0.0000 24.0395 0.0000
# 6 0.0000 0.0000 0.0000 0.0000 0.0000 23.3477
#
#
#
# Elastic Compliance Matrix: (Units=1/GPa)
#
#
# Indices 1 2 3 4 5 6 
#
# 1 0.024136 -0.002538 -0.001350 0.000000 0.000000 0.000000
# 2 -0.002538 0.007856 -0.002584 0.000000 0.000000 0.000000
# 3 -0.001350 -0.002584 0.008191 0.000000 0.000000 0.000000
# 4 0.000000 0.000000 0.000000 0.029945 0.000000 0.000000
# 5 0.000000 0.000000 0.000000 0.000000 0.041598 0.000000
# 6 0.000000 0.000000 0.000000 0.000000 0.000000 0.042831
#
#
# Mechanical properties :
#
#
# Convention : Reuss Voigt Hill
#
# Bulk Modulus (GPa) = 36.71015 55.34615 46.02815
# Shear Modulus (GPa) = 28.31566 32.96004 30.63785
#
# Velocity S-wave (km/s) = 3.49898 3.77504 3.63963
# Velocity P-wave (km/s) = 5.67416 6.55219 6.12892
#
# Compressibility (1/GPa) = 0.02724042
#
# Stress axis : x y z
#
# Youngs Moduli (GPa) = 41.43129 127.28428 122.08754
#
# Poissons Ratio (x) = 0.32310 0.16476
# Poissons Ratio (y) = 0.10517 0.31543
# Poissons Ratio (z) = 0.05591 0.32885
#
# Static dielectric constant tensor:
#      x y z
#    x 1.920540 0.000000 0.000000 
#    y 0.000000 1.860700 0.000000 
#    z 0.000000 0.000000 1.821200 
# 
# From -- ./inp_files/3813.got.cif
#   From: 2010.05.17/outbox.cif.g08.bks.cpg/sg60_2_cif.got.tgz:3813.got - 2010.06.03 14:59:27.
