data_PCOD9458429
_publ_section_title
;
Structure prediction by ZEFSAII (Michael W. Deem and Ramdas Pophale) SiO2 
 PCOD9458429
Probable space group: P B C N
;
_chemical_formula_sum "Si O2"
_cell_formula_units_Z 32
_cell_length_a 11.690145
_cell_length_b 6.797779
_cell_length_c 14.484975
_cell_angle_alpha 90.000000
_cell_angle_beta 90.000000
_cell_angle_gamma 90.000000
_cell_volume 1151.077830
_symmetry_space_group_name_H-M "P B C N"
_symmetry_group_IT_number 60
_symmetry_cell_setting 'orthorhombic'
loop_
_space_group_symop_operation_xyz
x,y,z
1/2-x,1/2-y,1/2+z
1/2+x,1/2-y,-z
-x,y,1/2-z
-x,-y,-z
1/2+x,1/2+y,1/2-z
1/2-x,1/2+y,z
x,-y,1/2+z
loop_
_atom_site_type_symbol
_atom_site_label
_atom_site_fract_x
_atom_site_fract_y
_atom_site_fract_z
Si Si1 0.731572 0.645770 0.889396
Si Si2 0.379848 0.079001 0.791023
Si Si3 0.235170 0.887720 0.469015
Si Si4 0.472436 0.655991 0.845677
O O1 0.789163 0.619041 0.789325
O O2 0.595706 0.696757 0.889332
O O3 0.774909 0.890369 0.912084
O O4 0.774496 0.632553 0.002757
O O5 0.500000 0.150821 0.750000
O O6 0.330505 0.147047 0.888633
O O7 0.407320 0.850753 0.810682
O O8 0.113634 0.929177 0.419922
O O9 0.500000 0.546443 0.750000
#
# Coordination Sequence:
#
# PCOD9458429 Si02
#       4
#     8   8   8   8
#     4  12  27  45  78 109 150 200 251 306 379 448
#     4  11  26  48  75 106 152 196 245 312 375 444
#     4  12  25  46  72 112 147 196 254 305 375 448
#     4  11  23  48  73 103 151 192 245 314 367 442
#
# _framework density 27.800028999999999
#
# number of rings (size 3 to 8) (size 9 to 14) (size 15 to 20)
#    0.000    0.500    5.000    3.750    3.500    2.000 
#    0.000    0.000    0.000    0.000    0.000    0.000 
#    0.000    0.000    0.000    0.000    0.000    0.000 
#
# Total GULP energy -178818.653469 kJ/mol
# GULP energy per Si atom -5588.082921 kJ/mol
# Density = 2.773676 g / cm^3
# Si number density = 27.800029 Si / 1000 Ang^3
#
#
#
# Elastic Constant Matrix: (Units=GPa)
#
#
# Indices 1 2 3 4 5 6 
#
# 1 154.9751 40.9344 46.8144 0.0000 0.0000 0.0000
# 2 40.9344 231.7046 97.3405 0.0000 0.0000 0.0000
# 3 46.8144 97.3405 212.4381 0.0000 0.0000 0.0000
# 4 0.0000 0.0000 0.0000 31.3261 0.0000 0.0000
# 5 0.0000 0.0000 0.0000 0.0000 54.8907 0.0000
# 6 0.0000 0.0000 0.0000 0.0000 0.0000 3.4530
#
#
#
# Elastic Compliance Matrix: (Units=1/GPa)
#
#
# Indices 1 2 3 4 5 6 
#
# 1 0.007011 -0.000730 -0.001210 0.000000 0.000000 0.000000
# 2 -0.000730 0.005421 -0.002323 0.000000 0.000000 0.000000
# 3 -0.001210 -0.002323 0.006038 0.000000 0.000000 0.000000
# 4 0.000000 0.000000 0.000000 0.031922 0.000000 0.000000
# 5 0.000000 0.000000 0.000000 0.000000 0.018218 0.000000
# 6 0.000000 0.000000 0.000000 0.000000 0.000000 0.289602
#
#
# Mechanical properties :
#
#
# Convention : Reuss Voigt Hill
#
# Bulk Modulus (GPa) = 100.57095 107.69959 104.13527
# Shear Modulus (GPa) = 13.51156 45.53587 29.52371
#
# Velocity S-wave (km/s) = 2.20699 4.05159 3.26237
# Velocity P-wave (km/s) = 6.53831 7.79179 7.19241
#
# Compressibility (1/GPa) = 0.00994323
#
# Stress axis : x y z
#
# Youngs Moduli (GPa) = 142.62977 184.47836 165.60746
#
# Poissons Ratio (x) = 0.13469 0.20047
# Poissons Ratio (y) = 0.10413 0.38469
# Poissons Ratio (z) = 0.17265 0.42853
#
# Static dielectric constant tensor:
#      x y z
#    x 2.016660 0.000000 0.000000 
#    y 0.000000 2.562010 0.000000 
#    z 0.000000 0.000000 2.167770 
# 
# From -- ./inp_files/15569.got.cif
#   From: 2010.05.17/outbox.cif.g08.bks.cpg/sg60_8_cif.got.tgz:15569.got - 2010.06.03 14:59:27.
