data_PCOD9458826
_publ_section_title
;
Structure prediction by ZEFSAII (Michael W. Deem and Ramdas Pophale) SiO2 
 PCOD9458826
Probable space group: P B C N
;
_chemical_formula_sum "Si O2"
_cell_formula_units_Z 28
_cell_length_a 10.789622
_cell_length_b 9.676321
_cell_length_c 12.078582
_cell_angle_alpha 90.000000
_cell_angle_beta 90.000000
_cell_angle_gamma 90.000000
_cell_volume 1261.050414
_symmetry_space_group_name_H-M "P B C N"
_symmetry_group_IT_number 60
_symmetry_cell_setting 'orthorhombic'
loop_
_space_group_symop_operation_xyz
x,y,z
1/2-x,1/2-y,1/2+z
1/2+x,1/2-y,-z
-x,y,1/2-z
-x,-y,-z
1/2+x,1/2+y,1/2-z
1/2-x,1/2+y,z
x,-y,1/2+z
loop_
_atom_site_type_symbol
_atom_site_label
_atom_site_fract_x
_atom_site_fract_y
_atom_site_fract_z
Si Si1 0.744517 0.498210 0.276802
Si Si2 0.572819 0.127564 0.946827
Si Si3 0.117972 0.248770 0.823348
Si Si4 0.500000 0.685626 0.250000
O O1 0.803018 0.434510 0.388915
O O2 0.719140 0.367182 0.199927
O O3 0.842575 0.603807 0.225899
O O4 0.618260 0.588402 0.276923
O O5 0.495979 0.211423 0.854832
O O6 0.597957 0.231895 0.047323
O O7 0.500000 0.000000 0.000000
O O8 0.000000 0.206187 0.750000
#
# Coordination Sequence:
#
# PCOD9458826 Si02
#       4
#     8   8   8   4
#     4  12  27  48  77 118 155 206 261 322 395 464
#     4  12  27  50  79 112 158 209 260 326 390 467
#     4  12  27  48  78 115 157 208 265 320 394 470
#     4  12  28  48  74 116 156 202 264 320 394 464
#
# _framework density 22.203711999999999
#
# number of rings (size 3 to 8) (size 9 to 14) (size 15 to 20)
#    0.000    0.000    7.143    1.714    4.000    3.429 
#    0.000    0.000    0.000    0.000    0.000    0.000 
#    0.000    0.000    0.000    0.000    0.000    0.000 
#
# Total GULP energy -156607.582831 kJ/mol
# GULP energy per Si atom -5593.127958 kJ/mol
# Density = 2.215318 g / cm^3
# Si number density = 22.203712 Si / 1000 Ang^3
#
#
#
# Elastic Constant Matrix: (Units=GPa)
#
#
# Indices 1 2 3 4 5 6 
#
# 1 117.3491 38.6677 51.0776 0.0000 0.0000 0.0000
# 2 38.6677 143.7476 65.6673 0.0000 0.0000 0.0000
# 3 51.0776 65.6673 155.7681 0.0000 0.0000 0.0000
# 4 0.0000 0.0000 0.0000 8.6616 0.0000 0.0000
# 5 0.0000 0.0000 0.0000 0.0000 47.3642 0.0000
# 6 0.0000 0.0000 0.0000 0.0000 0.0000 62.2233
#
#
#
# Elastic Compliance Matrix: (Units=1/GPa)
#
#
# Indices 1 2 3 4 5 6 
#
# 1 0.010197 -0.001505 -0.002709 0.000000 0.000000 0.000000
# 2 -0.001505 0.008838 -0.003232 0.000000 0.000000 0.000000
# 3 -0.002709 -0.003232 0.008671 0.000000 0.000000 0.000000
# 4 0.000000 0.000000 0.000000 0.115452 0.000000 0.000000
# 5 0.000000 0.000000 0.000000 0.000000 0.021113 0.000000
# 6 0.000000 0.000000 0.000000 0.000000 0.000000 0.016071
#
#
# Mechanical properties :
#
#
# Convention : Reuss Voigt Hill
#
# Bulk Modulus (GPa) = 78.04960 80.85444 79.45202
# Shear Modulus (GPa) = 25.06194 41.07996 33.07095
#
# Velocity S-wave (km/s) = 3.36330 4.30599 3.86350
# Velocity P-wave (km/s) = 7.09297 7.82406 7.46747
#
# Compressibility (1/GPa) = 0.01281237
#
# Stress axis : x y z
#
# Youngs Moduli (GPa) = 98.07065 113.14564 115.33053
#
# Poissons Ratio (x) = 0.17033 0.31243
# Poissons Ratio (y) = 0.14763 0.37278
# Poissons Ratio (z) = 0.26567 0.36572
#
# Static dielectric constant tensor:
#      x y z
#    x 1.800180 0.000000 0.000000 
#    y 0.000000 1.799590 0.000000 
#    z 0.000000 0.000000 1.790410 
# 
# From -- ./inp_files/10524.got.cif
#   From: 2010.05.17/outbox.cif.g08.bks.cpg/sg60_6_cif.got.tgz:10524.got - 2010.06.03 14:59:27.
