data_PCOD9458400
_publ_section_title
;
Structure prediction by ZEFSAII (Michael W. Deem and Ramdas Pophale) SiO2 
 PCOD9458400
Probable space group: P B C N
;
_chemical_formula_sum "Si O2"
_cell_formula_units_Z 32
_cell_length_a 8.161251
_cell_length_b 10.095900
_cell_length_c 16.754079
_cell_angle_alpha 90.000000
_cell_angle_beta 90.000000
_cell_angle_gamma 90.000000
_cell_volume 1380.455254
_symmetry_space_group_name_H-M "P B C N"
_symmetry_group_IT_number 60
_symmetry_cell_setting 'orthorhombic'
loop_
_space_group_symop_operation_xyz
x,y,z
1/2-x,1/2-y,1/2+z
1/2+x,1/2-y,-z
-x,y,1/2-z
-x,-y,-z
1/2+x,1/2+y,1/2-z
1/2-x,1/2+y,z
x,-y,1/2+z
loop_
_atom_site_type_symbol
_atom_site_label
_atom_site_fract_x
_atom_site_fract_y
_atom_site_fract_z
Si Si1 0.374784 0.822452 0.052852
Si Si2 0.826287 0.056913 0.710650
Si Si3 0.752437 0.427702 0.037454
Si Si4 0.316162 0.696091 0.223128
O O1 0.562718 0.872974 0.053602
O O2 0.314279 0.763769 0.137355
O O3 0.350855 0.697417 0.993840
O O4 0.270841 0.950141 0.024061
O O5 0.825607 0.015170 0.618762
O O6 0.740948 0.197636 0.713548
O O7 0.000000 0.087121 0.750000
O O8 0.733450 0.946453 0.764169
O O9 0.500000 0.664904 0.250000
#
# Coordination Sequence:
#
# PCOD9458400 Si02
#       4
#     8   8   8   8
#     4  11  25  44  71 102 143 185 231 295 346 424
#     4  11  25  43  71  99 137 184 233 289 347 419
#     4  11  25  45  69 105 141 184 235 287 357 417
#     4  11  23  45  65  99 137 183 230 289 345 414
#
# _framework density 23.180758000000001
#
# number of rings (size 3 to 8) (size 9 to 14) (size 15 to 20)
#    0.000    1.000    2.500    3.000    7.000    2.000 
#    0.000    0.000    0.000    0.000    0.000    0.000 
#    0.000    0.000    0.000    0.000    0.000    0.000 
#
# Total GULP energy -178812.735107 kJ/mol
# GULP energy per Si atom -5587.897972 kJ/mol
# Density = 2.312800 g / cm^3
# Si number density = 23.180758 Si / 1000 Ang^3
#
#
#
# Elastic Constant Matrix: (Units=GPa)
#
#
# Indices 1 2 3 4 5 6 
#
# 1 31.7071 5.9969 3.1148 0.0000 0.0000 0.0000
# 2 5.9969 127.1522 17.1036 0.0000 0.0000 0.0000
# 3 3.1148 17.1036 102.2648 0.0000 0.0000 0.0000
# 4 0.0000 0.0000 0.0000 56.7153 0.0000 0.0000
# 5 0.0000 0.0000 0.0000 0.0000 25.7645 0.0000
# 6 0.0000 0.0000 0.0000 0.0000 0.0000 19.6982
#
#
#
# Elastic Compliance Matrix: (Units=1/GPa)
#
#
# Indices 1 2 3 4 5 6 
#
# 1 0.031877 -0.001404 -0.000736 0.000000 0.000000 0.000000
# 2 -0.001404 0.008107 -0.001313 0.000000 0.000000 0.000000
# 3 -0.000736 -0.001313 0.010021 0.000000 0.000000 0.000000
# 4 0.000000 0.000000 0.000000 0.017632 0.000000 0.000000
# 5 0.000000 0.000000 0.000000 0.000000 0.038813 0.000000
# 6 0.000000 0.000000 0.000000 0.000000 0.000000 0.050766
#
#
# Mechanical properties :
#
#
# Convention : Reuss Voigt Hill
#
# Bulk Modulus (GPa) = 23.20325 34.83942 29.02133
# Shear Modulus (GPa) = 28.01299 36.09620 32.05460
#
# Velocity S-wave (km/s) = 3.48006 3.95037 3.72265
# Velocity P-wave (km/s) = 5.11656 5.98910 5.56994
#
# Compressibility (1/GPa) = 0.04309742
#
# Stress axis : x y z
#
# Youngs Moduli (GPa) = 31.37102 123.34313 99.79466
#
# Poissons Ratio (x) = 0.17322 0.07345
# Poissons Ratio (y) = 0.04406 0.13105
# Poissons Ratio (z) = 0.02309 0.16197
#
# Static dielectric constant tensor:
#      x y z
#    x 1.890030 0.000000 0.000000 
#    y 0.000000 1.994930 0.000000 
#    z 0.000000 0.000000 1.862960 
# 
# From -- ./inp_files/14321.got.cif
#   From: 2010.05.17/outbox.cif.g08.bks.cpg/sg60_8_cif.got.tgz:14321.got - 2010.06.03 14:59:27.
