data_PCOD9458888
_publ_section_title
;
Structure prediction by ZEFSAII (Michael W. Deem and Ramdas Pophale) SiO2 
 PCOD9458888
Probable space group: P B C N
;
_chemical_formula_sum "Si O2"
_cell_formula_units_Z 56
_cell_length_a 15.000000
_cell_length_b 9.000000
_cell_length_c 21.000000
_cell_angle_alpha 90.000000
_cell_angle_beta 90.000000
_cell_angle_gamma 90.000000
_cell_volume 2835.000000
_symmetry_space_group_name_H-M "P B C N"
_symmetry_group_IT_number 60
_symmetry_cell_setting 'orthorhombic'
loop_
_space_group_symop_operation_xyz
x,y,z
1/2-x,1/2-y,1/2+z
1/2+x,1/2-y,-z
-x,y,1/2-z
-x,-y,-z
1/2+x,1/2+y,1/2-z
1/2-x,1/2+y,z
x,-y,1/2+z
loop_
_atom_site_type_symbol
_atom_site_label
_atom_site_fract_x
_atom_site_fract_y
_atom_site_fract_z
Si Si1 0.829455 0.056891 0.843168
Si Si2 0.153550 0.105454 0.806262
Si Si3 0.480020 0.259128 0.519686
Si Si4 0.673254 0.138442 0.526212
Si Si5 0.303939 0.258298 0.588247
Si Si6 0.270455 0.126261 0.384437
Si Si7 0.490151 0.561172 0.901912
O O1 0.840516 0.098309 0.769584
O O2 0.743356 0.128639 0.873995
O O3 0.911086 0.114657 0.886094
O O4 0.827563 0.882869 0.859250
O O5 0.172588 0.265457 0.838660
O O6 0.059651 0.053954 0.835278
O O7 0.221474 0.988172 0.837371
O O8 0.568716 0.162714 0.512064
O O9 0.393620 0.198849 0.555247
O O10 0.507366 0.404539 0.561580
O O11 0.448104 0.324183 0.451861
O O12 0.739109 0.167240 0.465711
O O13 0.703945 0.265331 0.576842
O O14 0.686715 0.981074 0.561828
#
# Coordination Sequence:
#
# PCOD9458888 Si02
#       7
#     8   8   8   8   8   8   8
#     4  11  23  40  60  85 126 161 205 254 297 379
#     4  11  21  40  59  89 119 167 207 241 303 376
#     4  10  20  37  63  89 126 151 201 259 314 367
#     4  11  20  40  60  95 124 154 204 269 308 372
#     4  11  23  39  62  92 120 165 202 255 323 355
#     4  10  22  35  64  87 121 159 205 254 312 359
#     4  10  20  37  62  91 114 160 203 252 307 366
#
# _framework density 19.753086
#
# number of rings (size 3 to 8) (size 9 to 14) (size 15 to 20)
#    0.000    1.429    2.857    3.857    2.000    0.000 
#    2.571    2.143    0.000    0.000    0.000    0.000 
#    0.000    0.000    0.000    0.000    0.000    0.000 
#
# Total GULP energy -312529.923334 kJ/mol
# GULP energy per Si atom -5580.891488 kJ/mol
# Density = 1.970813 g / cm^3
# Si number density = 19.753086 Si / 1000 Ang^3
#
#
#
# Elastic Constant Matrix: (Units=GPa)
#
#
# Indices 1 2 3 4 5 6 
#
# 1 79.8349 11.5480 21.1628 0.0000 0.0000 0.0000
# 2 11.5480 67.8608 24.0066 0.0000 0.0000 0.0000
# 3 21.1628 24.0066 71.1694 0.0000 0.0000 0.0000
# 4 0.0000 0.0000 0.0000 26.7959 0.0000 0.0000
# 5 0.0000 0.0000 0.0000 0.0000 27.3813 0.0000
# 6 0.0000 0.0000 0.0000 0.0000 0.0000 24.8043
#
#
#
# Elastic Compliance Matrix: (Units=1/GPa)
#
#
# Indices 1 2 3 4 5 6 
#
# 1 0.013658 -0.001008 -0.003721 0.000000 0.000000 0.000000
# 2 -0.001008 0.016807 -0.005370 0.000000 0.000000 0.000000
# 3 -0.003721 -0.005370 0.016969 0.000000 0.000000 0.000000
# 4 0.000000 0.000000 0.000000 0.037319 0.000000 0.000000
# 5 0.000000 0.000000 0.000000 0.000000 0.036521 0.000000
# 6 0.000000 0.000000 0.000000 0.000000 0.000000 0.040316
#
#
# Mechanical properties :
#
#
# Convention : Reuss Voigt Hill
#
# Bulk Modulus (GPa) = 36.71551 36.92222 36.81886
# Shear Modulus (GPa) = 26.19631 26.60614 26.40122
#
# Velocity S-wave (km/s) = 3.64564 3.67404 3.65987
# Velocity P-wave (km/s) = 6.02897 6.06058 6.04479
#
# Compressibility (1/GPa) = 0.02723645
#
# Stress axis : x y z
#
# Youngs Moduli (GPa) = 73.21663 59.49861 58.93156
#
# Poissons Ratio (x) = 0.05996 0.21931
# Poissons Ratio (y) = 0.07378 0.31644
# Poissons Ratio (z) = 0.27247 0.31949
#
# Static dielectric constant tensor:
#      x y z
#    x 1.749690 0.000000 0.000000 
#    y 0.000000 1.708460 0.000000 
#    z 0.000000 0.000000 1.648090 
# 
# From -- ./inp_files/22906.got.cif
#   From: 2010.05.17/outbox.ucp.g08.bks.cvg/sg60_12_cif.got.tgz:22906.got - 2010.06.11 16:26:41.
