data_PCOD9458923
_publ_section_title
;
Structure prediction by ZEFSAII (Michael W. Deem and Ramdas Pophale) SiO2 
 PCOD9458923
Probable space group: P B C N
;
_chemical_formula_sum "Si O2"
_cell_formula_units_Z 56
_cell_length_a 15.000000
_cell_length_b 21.000000
_cell_length_c 9.000000
_cell_angle_alpha 90.000000
_cell_angle_beta 90.000000
_cell_angle_gamma 90.000000
_cell_volume 2835.000000
_symmetry_space_group_name_H-M "P B C N"
_symmetry_group_IT_number 60
_symmetry_cell_setting 'orthorhombic'
loop_
_space_group_symop_operation_xyz
x,y,z
1/2-x,1/2-y,1/2+z
1/2+x,1/2-y,-z
-x,y,1/2-z
-x,-y,-z
1/2+x,1/2+y,1/2-z
1/2-x,1/2+y,z
x,-y,1/2+z
loop_
_atom_site_type_symbol
_atom_site_label
_atom_site_fract_x
_atom_site_fract_y
_atom_site_fract_z
Si Si1 0.085017 0.242058 0.351748
Si Si2 0.903617 0.414950 0.718801
Si Si3 0.092785 0.610530 0.828154
Si Si4 0.748557 0.387706 0.404160
Si Si5 0.854876 0.504455 0.966161
Si Si6 0.778772 0.301995 0.687356
Si Si7 0.596845 0.308877 0.315911
O O1 0.082519 0.317398 0.383923
O O2 0.178378 0.220333 0.274473
O O3 0.082641 0.211129 0.513313
O O4 0.000000 0.226314 0.250000
O O5 0.910030 0.440121 0.549466
O O6 0.826588 0.364557 0.755790
O O7 0.000000 0.386599 0.750000
O O8 0.882880 0.480389 0.804773
O O9 0.171516 0.614833 0.710203
O O10 0.126434 0.560724 0.948497
O O11 0.000000 0.593222 0.750000
O O12 0.759273 0.459439 0.469874
O O13 0.767654 0.330252 0.520343
O O14 0.656701 0.372146 0.324611
O O15 0.845230 0.244011 0.725099
O O16 0.500000 0.317116 0.250000
#
# Coordination Sequence:
#
# PCOD9458923 Si02
#       7
#     8   8   8   8   8   8   8
#     4  10  23  41  61  92 127 160 202 257 314 374
#     4  11  22  34  56  87 125 156 200 243 299 370
#     4  11  22  35  61  90 126 163 197 248 316 369
#     4  10  23  40  58  92 127 161 208 259 299 380
#     4  11  22  37  57  86 123 163 201 243 307 367
#     4  10  22  38  62  89 124 158 205 251 308 370
#     4  11  23  40  64  89 122 167 209 257 316 364
#
# _framework density 19.753086
#
# number of rings (size 3 to 8) (size 9 to 14) (size 15 to 20)
#    0.000    1.429    2.857    2.143    8.000    0.000 
#    2.571    0.000    0.000    1.714    0.000    0.000 
#    0.000    0.000    0.000    0.000    0.000    0.000 
#
# Total GULP energy -311809.598848 kJ/mol
# GULP energy per Si atom -5568.028551 kJ/mol
# Density = 1.970813 g / cm^3
# Si number density = 19.753086 Si / 1000 Ang^3
#
#
#
# Elastic Constant Matrix: (Units=GPa)
#
#
# Indices 1 2 3 4 5 6 
#
# 1 189.0248 73.5844 53.9707 0.0000 0.0000 0.0000
# 2 73.5844 94.2755 22.6624 0.0000 0.0000 0.0000
# 3 53.9707 22.6624 61.3911 0.0000 0.0000 0.0000
# 4 0.0000 0.0000 0.0000 12.6690 0.0000 0.0000
# 5 0.0000 0.0000 0.0000 0.0000 27.5363 0.0000
# 6 0.0000 0.0000 0.0000 0.0000 0.0000 0.4733
#
#
#
# Elastic Compliance Matrix: (Units=1/GPa)
#
#
# Indices 1 2 3 4 5 6 
#
# 1 0.009254 -0.005780 -0.006002 0.000000 0.000000 0.000000
# 2 -0.005780 0.015251 -0.000548 0.000000 0.000000 0.000000
# 3 -0.006002 -0.000548 0.021768 0.000000 0.000000 0.000000
# 4 0.000000 0.000000 0.000000 0.078933 0.000000 0.000000
# 5 0.000000 0.000000 0.000000 0.000000 0.036316 0.000000
# 6 0.000000 0.000000 0.000000 0.000000 0.000000 2.112630
#
#
# Mechanical properties :
#
#
# Convention : Reuss Voigt Hill
#
# Bulk Modulus (GPa) = 46.27046 71.68071 58.97559
# Shear Modulus (GPa) = 2.16824 21.10065 11.63445
#
# Velocity S-wave (km/s) = 1.04884 3.27191 2.42955
# Velocity P-wave (km/s) = 4.99420 7.11625 6.14748
#
# Compressibility (1/GPa) = 0.02161206
#
# Stress axis : x y z
#
# Youngs Moduli (GPa) = 108.05951 65.57084 45.93966
#
# Poissons Ratio (x) = 0.37902 0.27572
# Poissons Ratio (y) = 0.62462 0.02518
# Poissons Ratio (z) = 0.64855 0.03594
#
# Static dielectric constant tensor:
#      x y z
#    x 1.717020 0.000000 0.000000 
#    y 0.000000 1.739270 0.000000 
#    z 0.000000 0.000000 1.824490 
# 
# From -- ./inp_files/6129.got.cif
#   From: 2010.05.17/outbox.ucp.g08.bks.cvg/sg60_4_cif.got.tgz:6129.got - 2010.06.11 16:26:41.
