data_PCOD9458553
_publ_section_title
;
Structure prediction by ZEFSAII (Michael W. Deem and Ramdas Pophale) SiO2 
 PCOD9458553
Probable space group: P B C N
;
_chemical_formula_sum "Si O2"
_cell_formula_units_Z 32
_cell_length_a 15.313838
_cell_length_b 9.629832
_cell_length_c 8.723480
_cell_angle_alpha 90.000000
_cell_angle_beta 90.000000
_cell_angle_gamma 90.000000
_cell_volume 1286.448867
_symmetry_space_group_name_H-M "P B C N"
_symmetry_group_IT_number 60
_symmetry_cell_setting 'orthorhombic'
loop_
_space_group_symop_operation_xyz
x,y,z
1/2-x,1/2-y,1/2+z
1/2+x,1/2-y,-z
-x,y,1/2-z
-x,-y,-z
1/2+x,1/2+y,1/2-z
1/2-x,1/2+y,z
x,-y,1/2+z
loop_
_atom_site_type_symbol
_atom_site_label
_atom_site_fract_x
_atom_site_fract_y
_atom_site_fract_z
Si Si1 0.742438 0.319809 0.465857
Si Si2 0.000000 0.034112 0.750000
Si Si3 0.309873 0.920462 0.354350
Si Si4 0.925416 0.185740 0.459351
Si Si5 0.000000 0.582292 0.750000
O O1 0.756310 0.457918 0.564203
O O2 0.671510 0.212291 0.533004
O O3 0.753165 0.363726 0.289133
O O4 0.828133 0.228090 0.490429
O O5 0.966671 0.125674 0.611631
O O6 0.929906 0.931004 0.826944
O O7 0.404671 0.979961 0.295615
O O8 0.974098 0.319379 0.392287
#
# Coordination Sequence:
#
# PCOD9458553 Si02
#       5
#     8   4   8   8   4
#     4  11  25  43  67  96 131 174 222 277 336 401
#     4   9  18  35  60  92 132 168 212 266 326 392
#     4  11  25  45  69  99 136 177 226 280 340 406
#     4   9  20  36  60  92 127 170 214 265 326 391
#     4   9  22  43  64  94 132 174 224 276 334 402
#
# _framework density 24.874676000000001
#
# number of rings (size 3 to 8) (size 9 to 14) (size 15 to 20)
#    0.000    2.000    0.000    1.500    0.000   19.000 
#    0.000    0.000    0.000    1.500    0.000    0.000 
#    0.000    0.000    0.000    0.000    0.000    0.000 
#
# Total GULP energy -178970.605350 kJ/mol
# GULP energy per Si atom -5592.831417 kJ/mol
# Density = 2.481806 g / cm^3
# Si number density = 24.874676 Si / 1000 Ang^3
#
#
#
# Elastic Constant Matrix: (Units=GPa)
#
#
# Indices 1 2 3 4 5 6 
#
# 1 62.3559 11.4373 4.6194 0.0000 0.0000 0.0000
# 2 11.4373 88.7020 38.8124 0.0000 0.0000 0.0000
# 3 4.6194 38.8124 101.8948 0.0000 0.0000 0.0000
# 4 0.0000 0.0000 0.0000 -363.8965 0.0000 0.0000
# 5 0.0000 0.0000 0.0000 0.0000 28.7490 0.0000
# 6 0.0000 0.0000 0.0000 0.0000 0.0000 28.0695
#
#
#
# Elastic Compliance Matrix: (Units=1/GPa)
#
#
# Indices 1 2 3 4 5 6 
#
# 1 0.016426 -0.002151 0.000074 0.000000 0.000000 0.000000
# 2 -0.002151 0.013810 -0.005163 0.000000 0.000000 0.000000
# 3 0.000074 -0.005163 0.011777 0.000000 0.000000 0.000000
# 4 0.000000 0.000000 0.000000 -0.002748 0.000000 0.000000
# 5 0.000000 0.000000 0.000000 0.000000 0.034784 0.000000
# 6 0.000000 0.000000 0.000000 0.000000 0.000000 0.035626
#
#
# Mechanical properties :
#
#
# Convention : Reuss Voigt Hill
#
# Bulk Modulus (GPa) = 36.31693 40.29899 38.30796
# Shear Modulus (GPa) = 37.50063 -48.21003 -5.35470
#
# Velocity S-wave (km/s) = 3.88697 -4.40718 -1.46879
# Velocity P-wave (km/s) = 5.89715 3.10832 3.54364
#
# Compressibility (1/GPa) = 0.02753537
#
# Stress axis : x y z
#
# Youngs Moduli (GPa) = 60.87940 72.41106 84.90964
#
# Poissons Ratio (x) = 0.15572 -0.00632
# Poissons Ratio (y) = 0.13092 0.43837
# Poissons Ratio (z) = -0.00453 0.37385
#
# Static dielectric constant tensor:
#      x y z
#    x 2.047950 0.000000 0.000000 
#    y 0.000000 1.991010 0.000000 
#    z 0.000000 0.000000 1.981420 
# 
# From -- ./inp_files/5494.got.cif
#   From: 2010.05.17/outbox.cif.g08.bks.cpg/sg60_3_cif.got.tgz:5494.got - 2010.06.03 14:59:27.
