data_PCOD9458397
_publ_section_title
;
Structure prediction by ZEFSAII (Michael W. Deem and Ramdas Pophale) SiO2 
 PCOD9458397
Probable space group: P B C N
;
_chemical_formula_sum "Si O2"
_cell_formula_units_Z 24
_cell_length_a 5.416122
_cell_length_b 20.171016
_cell_length_c 8.042938
_cell_angle_alpha 90.000000
_cell_angle_beta 90.000000
_cell_angle_gamma 90.000000
_cell_volume 878.680388
_symmetry_space_group_name_H-M "P B C N"
_symmetry_group_IT_number 60
_symmetry_cell_setting 'orthorhombic'
loop_
_space_group_symop_operation_xyz
x,y,z
1/2-x,1/2-y,1/2+z
1/2+x,1/2-y,-z
-x,y,1/2-z
-x,-y,-z
1/2+x,1/2+y,1/2-z
1/2-x,1/2+y,z
x,-y,1/2+z
loop_
_atom_site_type_symbol
_atom_site_label
_atom_site_fract_x
_atom_site_fract_y
_atom_site_fract_z
Si Si1 0.311766 0.524969 0.138288
Si Si2 0.972649 0.787900 0.948932
Si Si3 0.809500 0.602023 0.634450
O O1 0.500000 0.566674 0.250000
O O2 0.239445 0.460015 0.241414
O O3 0.500000 0.500000 0.000000
O O4 0.106321 0.567569 0.041922
O O5 0.000000 0.796618 0.750000
O O6 0.725588 0.744534 0.984744
O O7 0.910251 0.852790 0.063782
O O8 0.000000 0.641970 0.750000
#
# Coordination Sequence:
#
# PCOD9458397 Si02
#       3
#     8   8   8
#     4   9  20  38  65 102 147 198 250 314 390 463
#     4  12  29  54  83 116 158 214 274 335 403 481
#     4  11  23  44  75 112 157 204 262 329 399 480
#
# _framework density 27.313685
#
# number of rings (size 3 to 8) (size 9 to 14) (size 15 to 20)
#    0.000    1.333    0.000    4.000    0.000   16.000 
#    0.000   10.000    0.000    0.000    0.000    0.000 
#    0.000    0.000    0.000    0.000    0.000    0.000 
#
# Total GULP energy -133818.532356 kJ/mol
# GULP energy per Si atom -5575.772182 kJ/mol
# Density = 2.725152 g / cm^3
# Si number density = 27.313685 Si / 1000 Ang^3
#
#
#
# Elastic Constant Matrix: (Units=GPa)
#
#
# Indices 1 2 3 4 5 6 
#
# 1 160.7661 59.4018 97.4134 0.0000 0.0000 0.0000
# 2 59.4018 157.5306 77.2207 0.0000 0.0000 0.0000
# 3 97.4134 77.2207 257.9780 0.0000 0.0000 0.0000
# 4 0.0000 0.0000 0.0000 38.4284 0.0000 0.0000
# 5 0.0000 0.0000 0.0000 0.0000 72.0005 0.0000
# 6 0.0000 0.0000 0.0000 0.0000 0.0000 46.7138
#
#
#
# Elastic Compliance Matrix: (Units=1/GPa)
#
#
# Indices 1 2 3 4 5 6 
#
# 1 0.008534 -0.001920 -0.002648 0.000000 0.000000 0.000000
# 2 -0.001920 0.007872 -0.001631 0.000000 0.000000 0.000000
# 3 -0.002648 -0.001631 0.005364 0.000000 0.000000 0.000000
# 4 0.000000 0.000000 0.000000 0.026022 0.000000 0.000000
# 5 0.000000 0.000000 0.000000 0.000000 0.013889 0.000000
# 6 0.000000 0.000000 0.000000 0.000000 0.000000 0.021407
#
#
# Mechanical properties :
#
#
# Convention : Reuss Voigt Hill
#
# Bulk Modulus (GPa) = 106.70133 116.03848 111.36990
# Shear Modulus (GPa) = 50.70471 54.24446 52.47459
#
# Velocity S-wave (km/s) = 4.31325 4.46127 4.38789
# Velocity P-wave (km/s) = 7.99722 8.31343 8.15686
#
# Compressibility (1/GPa) = 0.00937195
#
# Stress axis : x y z
#
# Youngs Moduli (GPa) = 117.17793 127.03894 186.41585
#
# Poissons Ratio (x) = 0.24393 0.49358
# Poissons Ratio (y) = 0.22500 0.30408
# Poissons Ratio (z) = 0.31026 0.20722
#
# Static dielectric constant tensor:
#      x y z
#    x 2.559080 0.000000 0.000000 
#    y 0.000000 2.293580 0.000000 
#    z 0.000000 0.000000 2.243600 
# 
# From -- ./inp_files/2879.got.cif
#   From: 2010.05.17/outbox.cif.g08.bks.cpg/sg60_2_cif.got.tgz:2879.got - 2010.06.03 14:59:27.
