data_PCOD9458204
_publ_section_title
;
Structure prediction by ZEFSAII (Michael W. Deem and Ramdas Pophale) SiO2 
 PCOD9458204
Probable space group: P B C N
;
_chemical_formula_sum "Si O2"
_cell_formula_units_Z 64
_cell_length_a 23.538061
_cell_length_b 15.561528
_cell_length_c 8.706197
_cell_angle_alpha 90.000000
_cell_angle_beta 90.000000
_cell_angle_gamma 90.000000
_cell_volume 3188.977187
_symmetry_space_group_name_H-M "P B C N"
_symmetry_group_IT_number 60
_symmetry_cell_setting 'orthorhombic'
loop_
_space_group_symop_operation_xyz
x,y,z
1/2-x,1/2-y,1/2+z
1/2+x,1/2-y,-z
-x,y,1/2-z
-x,-y,-z
1/2+x,1/2+y,1/2-z
1/2-x,1/2+y,z
x,-y,1/2+z
loop_
_atom_site_type_symbol
_atom_site_label
_atom_site_fract_x
_atom_site_fract_y
_atom_site_fract_z
Si Si1 0.626085 0.897541 0.095707
Si Si2 0.878012 0.093360 0.104930
Si Si3 0.138505 0.422227 0.042656
Si Si4 0.242564 0.662001 0.062119
Si Si5 0.553194 0.748268 0.965522
Si Si6 0.750944 0.650711 0.073421
Si Si7 0.578536 0.757785 0.607413
Si Si8 0.636766 0.590781 0.468739
O O1 0.632790 0.912191 0.276036
O O2 0.685068 0.863142 0.023971
O O3 0.578804 0.826188 0.063475
O O4 0.613457 0.987889 0.014299
O O5 0.814659 0.124337 0.057881
O O6 0.879513 0.094535 0.289406
O O7 0.884659 0.997176 0.042925
O O8 0.922986 0.159616 0.034495
O O9 0.204955 0.416564 0.997559
O O10 0.108686 0.342428 0.958022
O O11 0.235588 0.659865 0.245785
O O12 0.259008 0.758197 0.010553
O O13 0.294923 0.599709 0.021184
O O14 0.575812 0.759437 0.791642
O O15 0.485476 0.751784 0.956315
O O16 0.611319 0.673175 0.553308
#
# Coordination Sequence:
#
# PCOD9458204 Si02
#       8
#     8   8   8   8   8   8   8   8
#     4  12  25  42  66  96 130 170 212 261 317 378
#     4  11  24  41  65  96 129 169 211 258 316 375
#     4  12  25  42  66  96 130 170 212 261 317 378
#     4  11  22  38  64  97 132 169 209 257 315 378
#     4  11  25  45  68  93 124 165 214 268 321 377
#     4  11  22  38  64  97 132 169 209 257 315 378
#     4  11  25  45  68  93 124 165 214 268 321 377
#     4  11  24  41  65  96 129 169 211 258 316 375
#
# _framework density 20.069130999999999
#
# number of rings (size 3 to 8) (size 9 to 14) (size 15 to 20)
#    0.000    0.750    2.500    5.250    0.000    8.000 
#    0.000    0.000    0.000    0.000    0.000    0.000 
#    0.000    0.000    0.000    0.000    0.000    0.000 
#
# Total GULP energy -358349.069619 kJ/mol
# GULP energy per Si atom -5599.204213 kJ/mol
# Density = 2.002345 g / cm^3
# Si number density = 20.069131 Si / 1000 Ang^3
#
#
#
# Elastic Constant Matrix: (Units=GPa)
#
#
# Indices 1 2 3 4 5 6 
#
# 1 41.4951 -10.2741 13.0563 0.0000 0.0000 0.0000
# 2 -10.2741 68.5334 -16.4580 0.0000 0.0000 0.0000
# 3 13.0563 -16.4580 43.0090 0.0000 0.0000 0.0000
# 4 0.0000 0.0000 0.0000 25.6355 0.0000 0.0000
# 5 0.0000 0.0000 0.0000 0.0000 20.0331 0.0000
# 6 0.0000 0.0000 0.0000 0.0000 0.0000 4.6999
#
#
#
# Elastic Compliance Matrix: (Units=1/GPa)
#
#
# Indices 1 2 3 4 5 6 
#
# 1 0.026966 0.002287 -0.007311 0.000000 0.000000 0.000000
# 2 0.002287 0.016262 0.005529 0.000000 0.000000 0.000000
# 3 -0.007311 0.005529 0.027586 0.000000 0.000000 0.000000
# 4 0.000000 0.000000 0.000000 0.039008 0.000000 0.000000
# 5 0.000000 0.000000 0.000000 0.000000 0.049917 0.000000
# 6 0.000000 0.000000 0.000000 0.000000 0.000000 0.212770
#
#
# Mechanical properties :
#
#
# Convention : Reuss Voigt Hill
#
# Bulk Modulus (GPa) = 13.92317 13.96511 13.94414
# Shear Modulus (GPa) = 12.64410 21.18792 16.91601
#
# Velocity S-wave (km/s) = 2.51276 3.25275 2.90640
# Velocity P-wave (km/s) = 3.92062 4.59138 4.26920
#
# Compressibility (1/GPa) = 0.07182274
#
# Stress axis : x y z
#
# Youngs Moduli (GPa) = 37.08397 61.49331 36.25031
#
# Poissons Ratio (x) = -0.14063 0.26503
# Poissons Ratio (y) = -0.08481 -0.20041
# Poissons Ratio (z) = 0.27112 -0.33997
#
# Static dielectric constant tensor:
#      x y z
#    x 1.691400 0.000000 0.000000 
#    y 0.000000 1.680160 0.000000 
#    z 0.000000 0.000000 1.669010 
# 
# From -- ./inp_files/7975.got.cif
#   From: 2010.05.17/outbox.cif.g08.bks.cpg/sg60_4_cif.got.tgz:7975.got - 2010.06.03 14:59:27.
