data_PCOD9458531
_publ_section_title
;
Structure prediction by ZEFSAII (Michael W. Deem and Ramdas Pophale) SiO2 
 PCOD9458531
Probable space group: P B C N
;
_chemical_formula_sum "Si O2"
_cell_formula_units_Z 36
_cell_length_a 9.408377
_cell_length_b 20.528063
_cell_length_c 8.474242
_cell_angle_alpha 90.000000
_cell_angle_beta 90.000000
_cell_angle_gamma 90.000000
_cell_volume 1636.679133
_symmetry_space_group_name_H-M "P B C N"
_symmetry_group_IT_number 60
_symmetry_cell_setting 'orthorhombic'
loop_
_space_group_symop_operation_xyz
x,y,z
1/2-x,1/2-y,1/2+z
1/2+x,1/2-y,-z
-x,y,1/2-z
-x,-y,-z
1/2+x,1/2+y,1/2-z
1/2-x,1/2+y,z
x,-y,1/2+z
loop_
_atom_site_type_symbol
_atom_site_label
_atom_site_fract_x
_atom_site_fract_y
_atom_site_fract_z
Si Si1 0.887403 0.056222 0.402026
Si Si2 0.500000 0.407900 0.250000
Si Si3 0.254051 0.330613 0.071464
Si Si4 0.891833 0.462868 0.390506
Si Si5 0.336650 0.305125 0.715332
O O1 0.949248 0.054949 0.584572
O O2 0.823910 0.129536 0.388975
O O3 0.000000 0.056024 0.250000
O O4 0.758543 0.003636 0.378573
O O5 0.378059 0.362198 0.178319
O O6 0.140647 0.388487 0.069974
O O7 0.224584 0.259623 0.139627
O O8 0.280577 0.321085 0.887550
O O9 0.000000 0.458069 0.250000
O O10 0.000000 0.500000 0.500000
O O11 0.500000 0.291059 0.750000
#
# Coordination Sequence:
#
# PCOD9458531 Si02
#       5
#     8   4   8   8   8
#     4  11  25  51  80 118 156 209 268 325 402 480
#     4  12  24  46  80 118 148 210 266 326 390 474
#     4  12  26  46  77 114 156 206 264 325 397 483
#     4  12  28  51  76 117 159 208 264 335 411 472
#     4  11  24  48  72 112 154 201 265 322 393 475
#
# _framework density 21.995759
#
# number of rings (size 3 to 8) (size 9 to 14) (size 15 to 20)
#    0.000    0.444    4.444    4.667    1.556    2.667 
#    4.000    0.000    0.000    0.000    0.000    0.000 
#    0.000    0.000    0.000    0.000    0.000    0.000 
#
# Total GULP energy -200645.618408 kJ/mol
# GULP energy per Si atom -5573.489400 kJ/mol
# Density = 2.194570 g / cm^3
# Si number density = 21.995759 Si / 1000 Ang^3
#
#
#
# Elastic Constant Matrix: (Units=GPa)
#
#
# Indices 1 2 3 4 5 6 
#
# 1 102.4249 56.6924 64.4908 0.0000 0.0000 0.0000
# 2 56.6924 159.9429 100.0988 0.0000 0.0000 0.0000
# 3 64.4908 100.0988 179.2071 0.0000 0.0000 0.0000
# 4 0.0000 0.0000 0.0000 50.1007 0.0000 0.0000
# 5 0.0000 0.0000 0.0000 0.0000 34.8591 0.0000
# 6 0.0000 0.0000 0.0000 0.0000 0.0000 12.8061
#
#
#
# Elastic Compliance Matrix: (Units=1/GPa)
#
#
# Indices 1 2 3 4 5 6 
#
# 1 0.013314 -0.002645 -0.003314 0.000000 0.000000 0.000000
# 2 -0.002645 0.010138 -0.004711 0.000000 0.000000 0.000000
# 3 -0.003314 -0.004711 0.009404 0.000000 0.000000 0.000000
# 4 0.000000 0.000000 0.000000 0.019960 0.000000 0.000000
# 5 0.000000 0.000000 0.000000 0.000000 0.028687 0.000000
# 6 0.000000 0.000000 0.000000 0.000000 0.000000 0.078087
#
#
# Mechanical properties :
#
#
# Convention : Reuss Voigt Hill
#
# Bulk Modulus (GPa) = 86.83358 98.23766 92.53562
# Shear Modulus (GPa) = 27.06090 34.23938 30.65014
#
# Velocity S-wave (km/s) = 3.51134 3.94970 3.73695
# Velocity P-wave (km/s) = 7.48348 8.09687 7.79621
#
# Compressibility (1/GPa) = 0.01151628
#
# Stress axis : x y z
#
# Youngs Moduli (GPa) = 75.10976 98.63772 106.33880
#
# Poissons Ratio (x) = 0.26093 0.35237
# Poissons Ratio (y) = 0.19869 0.50094
# Poissons Ratio (z) = 0.24889 0.46466
#
# Static dielectric constant tensor:
#      x y z
#    x 1.824320 0.000000 0.000000 
#    y 0.000000 1.808900 0.000000 
#    z 0.000000 0.000000 1.770400 
# 
# From -- ./inp_files/3696.got.cif
#   From: 2010.05.17/outbox.cif.g08.bks.cpg/sg60_2_cif.got.tgz:3696.got - 2010.06.03 14:59:27.
