data_PCOD9458009
_publ_section_title
;
Structure prediction by ZEFSAII (Michael W. Deem and Ramdas Pophale) SiO2 
 PCOD9458009
Probable space group: P B C N
;
_chemical_formula_sum "Si O2"
_cell_formula_units_Z 32
_cell_length_a 9.808211
_cell_length_b 18.730493
_cell_length_c 8.738258
_cell_angle_alpha 90.000000
_cell_angle_beta 90.000000
_cell_angle_gamma 90.000000
_cell_volume 1605.328337
_symmetry_space_group_name_H-M "P B C N"
_symmetry_group_IT_number 60
_symmetry_cell_setting 'orthorhombic'
loop_
_space_group_symop_operation_xyz
x,y,z
1/2-x,1/2-y,1/2+z
1/2+x,1/2-y,-z
-x,y,1/2-z
-x,-y,-z
1/2+x,1/2+y,1/2-z
1/2-x,1/2+y,z
x,-y,1/2+z
loop_
_atom_site_type_symbol
_atom_site_label
_atom_site_fract_x
_atom_site_fract_y
_atom_site_fract_z
Si Si1 0.252810 0.329989 0.046737
Si Si2 0.522525 0.726858 0.432671
Si Si3 0.895145 0.037149 0.116827
Si Si4 0.855820 0.115569 0.657499
O O1 0.108642 0.295045 0.012849
O O2 0.256797 0.343367 0.228436
O O3 0.374334 0.275252 0.008755
O O4 0.303678 0.400401 0.954765
O O5 0.500000 0.724058 0.250000
O O6 0.606970 0.658691 0.503557
O O7 0.000000 0.060583 0.250000
O O8 0.807634 0.966558 0.154701
O O9 0.000000 0.000000 0.000000
O O10 0.000000 0.113409 0.750000
#
# Coordination Sequence:
#
# PCOD9458009 Si02
#       4
#     8   8   8   8
#     4  11  22  37  60  93 122 155 200 258 304 360
#     4  11  22  37  60  88 123 160 196 249 312 361
#     4  11  18  34  61  90 118 155 213 257 288 347
#     4   9  19  34  54  87 120 148 201 253 286 353
#
# _framework density 19.933617000000002
#
# number of rings (size 3 to 8) (size 9 to 14) (size 15 to 20)
#    0.000    1.500    7.500    2.250    0.000    0.000 
#    0.000    0.000    0.000    6.000    0.000    0.000 
#    0.000    2.250    0.000    0.000    0.000    0.000 
#
# Total GULP energy -178194.925621 kJ/mol
# GULP energy per Si atom -5568.591426 kJ/mol
# Density = 1.988825 g / cm^3
# Si number density = 19.933617 Si / 1000 Ang^3
#
#
#
# Elastic Constant Matrix: (Units=GPa)
#
#
# Indices 1 2 3 4 5 6 
#
# 1 47.9552 42.8107 19.4492 0.0000 0.0000 0.0000
# 2 42.8107 106.1409 48.0576 0.0000 0.0000 0.0000
# 3 19.4492 48.0576 109.2180 0.0000 0.0000 0.0000
# 4 0.0000 0.0000 0.0000 23.3965 0.0000 0.0000
# 5 0.0000 0.0000 0.0000 0.0000 15.2560 0.0000
# 6 0.0000 0.0000 0.0000 0.0000 0.0000 26.0387
#
#
#
# Elastic Compliance Matrix: (Units=1/GPa)
#
#
# Indices 1 2 3 4 5 6 
#
# 1 0.032586 -0.013132 -0.000024 0.000000 0.000000 0.000000
# 2 -0.013132 0.017058 -0.005167 0.000000 0.000000 0.000000
# 3 -0.000024 -0.005167 0.011434 0.000000 0.000000 0.000000
# 4 0.000000 0.000000 0.000000 0.042741 0.000000 0.000000
# 5 0.000000 0.000000 0.000000 0.000000 0.065548 0.000000
# 6 0.000000 0.000000 0.000000 0.000000 0.000000 0.038404
#
#
# Mechanical properties :
#
#
# Convention : Reuss Voigt Hill
#
# Bulk Modulus (GPa) = 40.93283 53.77211 47.35247
# Shear Modulus (GPa) = 19.79708 23.13800 21.46754
#
# Velocity S-wave (km/s) = 3.15485 3.41068 3.28525
# Velocity P-wave (km/s) = 5.81807 6.52261 6.18039
#
# Compressibility (1/GPa) = 0.02443027
#
# Stress axis : x y z
#
# Youngs Moduli (GPa) = 30.68791 58.62467 87.45875
#
# Poissons Ratio (x) = 0.76987 0.00214
# Poissons Ratio (y) = 0.40300 0.45191
# Poissons Ratio (z) = 0.00075 0.30292
#
# Static dielectric constant tensor:
#      x y z
#    x 1.672230 0.000000 0.000000 
#    y 0.000000 1.893500 0.000000 
#    z 0.000000 0.000000 1.838680 
# 
# From -- ./inp_files/4695.got.cif
#   From: 2010.05.17/outbox.cif.g08.bks.cpg/sg60_3_cif.got.tgz:4695.got - 2010.06.03 14:59:27.
