data_PCOD9458997
_publ_section_title
;
Structure prediction by ZEFSAII (Michael W. Deem and Ramdas Pophale) SiO2 
 PCOD9458997
Probable space group: P B C A
;
_chemical_formula_sum "Si O2"
_cell_formula_units_Z 64
_cell_length_a 18.801413
_cell_length_b 8.857626
_cell_length_c 19.502180
_cell_angle_alpha 90.000000
_cell_angle_beta 90.000000
_cell_angle_gamma 90.000000
_cell_volume 3247.812798
_symmetry_space_group_name_H-M "P B C A"
_symmetry_group_IT_number 61
_symmetry_cell_setting 'orthorhombic'
loop_
_space_group_symop_operation_xyz
x,y,z
1/2-x,-y,1/2+z
1/2+x,1/2-y,-z
-x,1/2+y,1/2-z
-x,-y,-z
1/2+x,y,1/2-z
1/2-x,1/2+y,z
x,1/2-y,1/2+z
loop_
_atom_site_type_symbol
_atom_site_label
_atom_site_fract_x
_atom_site_fract_y
_atom_site_fract_z
Si Si1 0.400215 0.006402 0.942378
Si Si2 0.684482 0.900550 0.455253
Si Si3 0.931121 0.156651 0.049166
Si Si4 0.153318 0.126032 0.701168
Si Si5 0.548159 0.121309 0.921142
Si Si6 0.244778 0.857643 0.636785
Si Si7 0.159683 0.474044 0.352707
Si Si8 0.270055 0.677349 0.404944
O O1 0.386912 0.185390 0.941038
O O2 0.482543 0.001602 0.918181
O O3 0.342690 0.918037 0.899768
O O4 0.400099 0.940586 0.019677
O O5 0.602706 0.905173 0.479486
O O6 0.697537 0.768093 0.400895
O O7 0.733856 0.862940 0.521660
O O8 0.709799 0.055216 0.421066
O O9 0.010054 0.223863 0.053485
O O10 0.908336 0.036972 0.106295
O O11 0.086032 0.140153 0.650891
O O12 0.202515 0.271201 0.687925
O O13 0.138932 0.096167 0.780409
O O14 0.197089 0.981825 0.673560
O O15 0.213797 0.616163 0.349230
O O16 0.204485 0.348398 0.394831
#
# Coordination Sequence:
#
# PCOD9458997 Si02
#       8
#     8   8   8   8   8   8   8   8
#     4   9  18  36  60  87 112 152 191 241 312 359
#     4  10  17  31  55  87 111 137 188 251 300 344
#     4   9  18  35  56  85 111 151 194 234 294 354
#     4  11  22  41  54  82 118 160 196 241 295 352
#     4   9  20  36  63  82 122 154 188 242 308 372
#     4  10  21  32  59  83 112 147 190 246 304 350
#     4  11  23  36  58  82 119 159 204 245 277 353
#     4  11  20  35  58  89 115 148 198 254 296 346
#
# _framework density 19.705570000000002
#
# number of rings (size 3 to 8) (size 9 to 14) (size 15 to 20)
#    0.750    1.250    0.000    6.750    0.000    0.000 
#    2.250    2.500    0.000    0.000    0.000    0.000 
#    0.000    0.000    0.000    0.000    0.000    0.000 
#
# Total GULP energy -356803.339145 kJ/mol
# GULP energy per Si atom -5575.052174 kJ/mol
# Density = 1.966072 g / cm^3
# Si number density = 19.705570 Si / 1000 Ang^3
#
#
#
# Elastic Constant Matrix: (Units=GPa)
#
#
# Indices 1 2 3 4 5 6 
#
# 1 32.9150 13.6155 -0.3201 0.0000 0.0000 0.0000
# 2 13.6155 77.7724 19.4307 0.0000 0.0000 0.0000
# 3 -0.3201 19.4307 49.7344 0.0000 0.0000 0.0000
# 4 0.0000 0.0000 0.0000 21.6594 0.0000 0.0000
# 5 0.0000 0.0000 0.0000 0.0000 23.9090 0.0000
# 6 0.0000 0.0000 0.0000 0.0000 0.0000 33.1890
#
#
#
# Elastic Compliance Matrix: (Units=1/GPa)
#
#
# Indices 1 2 3 4 5 6 
#
# 1 0.033088 -0.006478 0.002744 0.000000 0.000000 0.000000
# 2 -0.006478 0.015517 -0.006104 0.000000 0.000000 0.000000
# 3 0.002744 -0.006104 0.022509 0.000000 0.000000 0.000000
# 4 0.000000 0.000000 0.000000 0.046169 0.000000 0.000000
# 5 0.000000 0.000000 0.000000 0.000000 0.041825 0.000000
# 6 0.000000 0.000000 0.000000 0.000000 0.000000 0.030130
#
#
# Mechanical properties :
#
#
# Convention : Reuss Voigt Hill
#
# Bulk Modulus (GPa) = 19.44105 25.09710 22.26907
# Shear Modulus (GPa) = 22.11784 24.26453 23.19119
#
# Velocity S-wave (km/s) = 3.35388 3.51287 3.43430
# Velocity P-wave (km/s) = 4.98851 5.40531 5.20109
#
# Compressibility (1/GPa) = 0.05143756
#
# Stress axis : x y z
#
# Youngs Moduli (GPa) = 30.22266 64.44459 44.42608
#
# Poissons Ratio (x) = 0.41748 -0.12190
# Poissons Ratio (y) = 0.19579 0.27118
# Poissons Ratio (z) = -0.08293 0.39338
#
# Static dielectric constant tensor:
#      x y z
#    x 1.725180 0.000000 0.000000 
#    y 0.000000 1.719140 0.000000 
#    z 0.000000 0.000000 1.694240 
# 
# From -- ./inp_files/10617.got.cif
#   From: 2010.05.17/outbox.cif.g08.bks.cpg/sg61_6_cif.got.tgz:10617.got - 2010.06.03 15:17:17.
