data_PCOD9458226
_publ_section_title
;
Structure prediction by ZEFSAII (Michael W. Deem and Ramdas Pophale) SiO2 
 PCOD9458226
Probable space group: P B C N
;
_chemical_formula_sum "Si O2"
_cell_formula_units_Z 40
_cell_length_a 9.070229
_cell_length_b 22.768068
_cell_length_c 8.810058
_cell_angle_alpha 90.000000
_cell_angle_beta 90.000000
_cell_angle_gamma 90.000000
_cell_volume 1819.379091
_symmetry_space_group_name_H-M "P B C N"
_symmetry_group_IT_number 60
_symmetry_cell_setting 'orthorhombic'
loop_
_space_group_symop_operation_xyz
x,y,z
1/2-x,1/2-y,1/2+z
1/2+x,1/2-y,-z
-x,y,1/2-z
-x,-y,-z
1/2+x,1/2+y,1/2-z
1/2-x,1/2+y,z
x,-y,1/2+z
loop_
_atom_site_type_symbol
_atom_site_label
_atom_site_fract_x
_atom_site_fract_y
_atom_site_fract_z
Si Si1 0.092770 0.906369 0.909610
Si Si2 0.862438 0.686144 0.349965
Si Si3 0.326541 0.009740 0.273860
Si Si4 0.627847 0.726848 0.126486
Si Si5 0.708444 0.426758 0.004655
O O1 0.240774 0.942677 0.879600
O O2 0.126093 0.838743 0.941571
O O3 0.000000 0.908703 0.750000
O O4 0.967428 0.927104 0.026339
O O5 0.774490 0.726501 0.229048
O O6 0.895477 0.726352 0.494987
O O7 0.766079 0.632819 0.422472
O O8 0.000000 0.663357 0.250000
O O9 0.500000 0.018088 0.250000
O O10 0.291147 0.945856 0.342702
O O11 0.252299 0.022703 0.113862
O O12 0.500000 0.732263 0.250000
#
# Coordination Sequence:
#
# PCOD9458226 Si02
#       5
#     8   8   8   8   8
#     4   9  19  41  67  87 132 180 214 272 348 403
#     4  12  25  42  72  99 135 181 226 289 350 402
#     4  11  22  40  65  94 133 175 224 279 337 402
#     4  11  22  46  69  98 140 177 227 283 346 417
#     4  11  23  43  65  94 136 179 223 280 343 412
#
# _framework density 21.985522
#
# number of rings (size 3 to 8) (size 9 to 14) (size 15 to 20)
#    0.000    1.200    6.000    3.000    0.000    0.800 
#    3.600    0.000    0.000    0.000    0.000    0.000 
#    0.000    0.000    0.000    0.000    0.000    0.000 
#
# Total GULP energy -223145.411200 kJ/mol
# GULP energy per Si atom -5578.635280 kJ/mol
# Density = 2.193548 g / cm^3
# Si number density = 21.985522 Si / 1000 Ang^3
#
#
#
# Elastic Constant Matrix: (Units=GPa)
#
#
# Indices 1 2 3 4 5 6 
#
# 1 137.2658 37.6315 23.4700 0.0000 0.0000 0.0000
# 2 37.6315 82.6288 43.3810 0.0000 0.0000 0.0000
# 3 23.4700 43.3810 55.1356 0.0000 0.0000 0.0000
# 4 0.0000 0.0000 0.0000 28.4650 0.0000 0.0000
# 5 0.0000 0.0000 0.0000 0.0000 18.0854 0.0000
# 6 0.0000 0.0000 0.0000 0.0000 0.0000 10.1374
#
#
#
# Elastic Compliance Matrix: (Units=1/GPa)
#
#
# Indices 1 2 3 4 5 6 
#
# 1 0.008354 -0.003301 -0.000959 0.000000 0.000000 0.000000
# 2 -0.003301 0.021925 -0.015845 0.000000 0.000000 0.000000
# 3 -0.000959 -0.015845 0.031012 0.000000 0.000000 0.000000
# 4 0.000000 0.000000 0.000000 0.035131 0.000000 0.000000
# 5 0.000000 0.000000 0.000000 0.000000 0.055293 0.000000
# 6 0.000000 0.000000 0.000000 0.000000 0.000000 0.098644
#
#
# Mechanical properties :
#
#
# Convention : Reuss Voigt Hill
#
# Bulk Modulus (GPa) = 47.43670 53.77723 50.60697
# Shear Modulus (GPa) = 16.80127 22.70743 19.75435
#
# Velocity S-wave (km/s) = 2.76741 3.21726 3.00078
# Velocity P-wave (km/s) = 5.64221 6.18987 5.92237
#
# Compressibility (1/GPa) = 0.02108072
#
# Stress axis : x y z
#
# Youngs Moduli (GPa) = 119.70139 45.61060 32.24544
#
# Poissons Ratio (x) = 0.15058 0.03091
# Poissons Ratio (y) = 0.39519 0.51093
# Poissons Ratio (z) = 0.11474 0.72271
#
# Static dielectric constant tensor:
#      x y z
#    x 1.953680 0.000000 0.000000 
#    y 0.000000 1.839480 0.000000 
#    z 0.000000 0.000000 1.825830 
# 
# From -- ./inp_files/3873.got.cif
#   From: 2010.05.17/outbox.cif.g08.bks.cpg/sg60_2_cif.got.tgz:3873.got - 2010.06.03 14:59:27.
