data_PCOD9458886
_publ_section_title
;
Structure prediction by ZEFSAII (Michael W. Deem and Ramdas Pophale) SiO2 
 PCOD9458886
Probable space group: P B C N
;
_chemical_formula_sum "Si O2"
_cell_formula_units_Z 52
_cell_length_a 12.000000
_cell_length_b 27.000000
_cell_length_c 9.000000
_cell_angle_alpha 90.000000
_cell_angle_beta 90.000000
_cell_angle_gamma 90.000000
_cell_volume 2916.000000
_symmetry_space_group_name_H-M "P B C N"
_symmetry_group_IT_number 60
_symmetry_cell_setting 'orthorhombic'
loop_
_space_group_symop_operation_xyz
x,y,z
1/2-x,1/2-y,1/2+z
1/2+x,1/2-y,-z
-x,y,1/2-z
-x,-y,-z
1/2+x,1/2+y,1/2-z
1/2-x,1/2+y,z
x,-y,1/2+z
loop_
_atom_site_type_symbol
_atom_site_label
_atom_site_fract_x
_atom_site_fract_y
_atom_site_fract_z
Si Si1 0.320970 0.254920 0.218345
Si Si2 0.332276 0.333320 0.631542
Si Si3 0.378045 0.556238 0.179581
Si Si4 0.481202 0.745163 0.003265
Si Si5 0.000000 0.671438 0.750000
Si Si6 0.376012 0.544218 0.820852
Si Si7 0.263888 0.858762 0.310313
O O1 0.231733 0.210881 0.214500
O O2 0.398908 0.252789 0.073676
O O3 0.394509 0.249598 0.367149
O O4 0.271734 0.309947 0.220314
O O5 0.336254 0.387449 0.705487
O O6 0.448892 0.307063 0.582122
O O7 0.266740 0.344765 0.479124
O O8 0.500000 0.557049 0.250000
O O9 0.326263 0.507902 0.260541
O O10 0.381989 0.546145 0.001354
O O11 0.473829 0.790750 0.115507
O O12 0.895087 0.637867 0.710277
O O13 0.500000 0.549353 0.750000
O O14 0.303530 0.591703 0.772610
#
# Coordination Sequence:
#
# PCOD9458886 Si02
#       7
#     8   8   8   8   4   8   8
#     4  10  20  38  53  84 114 155 188 219 299 328
#     4  10  20  36  56  86 115 148 186 230 281 343
#     4  10  21  37  58  85 112 146 181 239 293 335
#     4  10  22  34  55  79 121 148 185 236 268 351
#     4  12  20  38  52  84 114 152 192 224 278 328
#     4  10  21  40  57  83 113 143 189 235 291 337
#     4  10  22  34  58  80 116 153 185 235 278 342
#
# _framework density 17.832647000000001
#
# number of rings (size 3 to 8) (size 9 to 14) (size 15 to 20)
#    0.000    1.846    3.077    1.846    7.538    0.000 
#    5.538    0.000    0.000    5.538    0.000    0.000 
#    0.000    0.000    0.000    0.000    0.000    0.000 
#
# Total GULP energy -289899.397348 kJ/mol
# GULP energy per Si atom -5574.988411 kJ/mol
# Density = 1.779206 g / cm^3
# Si number density = 17.832647 Si / 1000 Ang^3
#
#
#
# Elastic Constant Matrix: (Units=GPa)
#
#
# Indices 1 2 3 4 5 6 
#
# 1 69.7780 53.1106 17.4328 0.0000 0.0000 0.0000
# 2 53.1106 178.9173 33.9127 0.0000 0.0000 0.0000
# 3 17.4328 33.9127 52.4532 0.0000 0.0000 0.0000
# 4 0.0000 0.0000 0.0000 -160.0523 0.0000 0.0000
# 5 0.0000 0.0000 0.0000 0.0000 11.8884 0.0000
# 6 0.0000 0.0000 0.0000 0.0000 0.0000 -16.1377
#
#
#
# Elastic Compliance Matrix: (Units=1/GPa)
#
#
# Indices 1 2 3 4 5 6 
#
# 1 0.018927 -0.005044 -0.003029 0.000000 0.000000 0.000000
# 2 -0.005044 0.007714 -0.003311 0.000000 0.000000 0.000000
# 3 -0.003029 -0.003311 0.022212 0.000000 0.000000 0.000000
# 4 0.000000 0.000000 0.000000 -0.006248 0.000000 0.000000
# 5 0.000000 0.000000 0.000000 0.000000 0.084116 0.000000
# 6 0.000000 0.000000 0.000000 0.000000 0.000000 -0.061967
#
#
# Mechanical properties :
#
#
# Convention : Reuss Voigt Hill
#
# Bulk Modulus (GPa) = 38.33685 56.67341 47.50513
# Shear Modulus (GPa) = 51.96523 -19.74750 16.10887
#
# Velocity S-wave (km/s) = 5.40405 -3.33134 3.00881
# Velocity P-wave (km/s) = 7.77709 4.12948 6.22638
#
# Compressibility (1/GPa) = 0.02608457
#
# Stress axis : x y z
#
# Youngs Moduli (GPa) = 52.83353 129.63229 45.02071
#
# Poissons Ratio (x) = 0.65391 0.13638
# Poissons Ratio (y) = 0.26651 0.14906
# Poissons Ratio (z) = 0.16004 0.42921
#
# Static dielectric constant tensor:
#      x y z
#    x 1.643490 0.000000 0.000000 
#    y 0.000000 1.623580 0.000000 
#    z 0.000000 0.000000 1.628080 
# 
# From -- ./inp_files/5211.got.cif
#   From: 2010.05.17/outbox.ucp.g08.bks.cvg/sg60_3_cif.got.tgz:5211.got - 2010.06.11 16:26:41.
