data_PCOD9458716
_publ_section_title
;
Structure prediction by ZEFSAII (Michael W. Deem and Ramdas Pophale) SiO2 
 PCOD9458716
Probable space group: P B C N
;
_chemical_formula_sum "Si O2"
_cell_formula_units_Z 32
_cell_length_a 8.710791
_cell_length_b 28.419068
_cell_length_c 5.386081
_cell_angle_alpha 90.000000
_cell_angle_beta 90.000000
_cell_angle_gamma 90.000000
_cell_volume 1333.338149
_symmetry_space_group_name_H-M "P B C N"
_symmetry_group_IT_number 60
_symmetry_cell_setting 'orthorhombic'
loop_
_space_group_symop_operation_xyz
x,y,z
1/2-x,1/2-y,1/2+z
1/2+x,1/2-y,-z
-x,y,1/2-z
-x,-y,-z
1/2+x,1/2+y,1/2-z
1/2-x,1/2+y,z
x,-y,1/2+z
loop_
_atom_site_type_symbol
_atom_site_label
_atom_site_fract_x
_atom_site_fract_y
_atom_site_fract_z
Si Si1 0.000000 0.968751 0.750000
Si Si2 0.500000 0.966422 0.750000
Si Si3 0.270675 0.691747 0.078807
Si Si4 0.500000 0.369996 0.250000
Si Si5 0.236515 0.898758 0.877297
Si Si6 0.000000 0.272657 0.250000
O O1 0.138580 0.932432 0.696328
O O2 0.000000 0.000000 0.500000
O O3 0.389230 0.927184 0.876103
O O4 0.500000 0.000000 0.500000
O O5 0.247553 0.655922 0.307774
O O6 0.363674 0.739585 0.137746
O O7 0.398231 0.663729 0.921973
O O8 0.105514 0.699079 0.947206
O O9 0.629377 0.400021 0.384193
#
# Coordination Sequence:
#
# PCOD9458716 Si02
#       6
#     4   4   8   4   8   4
#     4  12  24  44  76 110 146 200 260 328 387 479
#     4  12  32  53  79 124 164 210 272 346 422 512
#     4  12  27  49  75 118 153 219 260 351 402 509
#     4  12  23  50  77 111 156 210 277 329 420 499
#     4  12  27  48  78 111 159 209 268 333 425 493
#     4  12  27  49  80 111 170 202 289 333 423 488
#
# _framework density 23.999915999999999
#
# number of rings (size 3 to 8) (size 9 to 14) (size 15 to 20)
#    0.000    0.000    5.000    3.750    7.000    0.000 
#    0.000    0.000    0.000    0.000    0.000    0.000 
#    0.000    0.000    0.000    0.000    0.000    0.000 
#
# Total GULP energy -178142.278941 kJ/mol
# GULP energy per Si atom -5566.946217 kJ/mol
# Density = 2.394529 g / cm^3
# Si number density = 23.999916 Si / 1000 Ang^3
#
#
#
# Elastic Constant Matrix: (Units=GPa)
#
#
# Indices 1 2 3 4 5 6 
#
# 1 86.0170 42.4963 32.3741 0.0000 0.0000 0.0000
# 2 42.4963 102.6911 40.2632 0.0000 0.0000 0.0000
# 3 32.3741 40.2632 116.5020 0.0000 0.0000 0.0000
# 4 0.0000 0.0000 0.0000 37.6610 0.0000 0.0000
# 5 0.0000 0.0000 0.0000 0.0000 45.4764 0.0000
# 6 0.0000 0.0000 0.0000 0.0000 0.0000 50.6808
#
#
#
# Elastic Compliance Matrix: (Units=1/GPa)
#
#
# Indices 1 2 3 4 5 6 
#
# 1 0.015156 -0.005345 -0.002364 0.000000 0.000000 0.000000
# 2 -0.005345 0.013149 -0.003059 0.000000 0.000000 0.000000
# 3 -0.002364 -0.003059 0.010298 0.000000 0.000000 0.000000
# 4 0.000000 0.000000 0.000000 0.026553 0.000000 0.000000
# 5 0.000000 0.000000 0.000000 0.000000 0.021989 0.000000
# 6 0.000000 0.000000 0.000000 0.000000 0.000000 0.019731
#
#
# Mechanical properties :
#
#
# Convention : Reuss Voigt Hill
#
# Bulk Modulus (GPa) = 58.59535 59.49746 59.04640
# Shear Modulus (GPa) = 37.28493 39.43540 38.36016
#
# Velocity S-wave (km/s) = 3.94578 4.05797 4.00227
# Velocity P-wave (km/s) = 6.72508 6.84110 6.78334
#
# Compressibility (1/GPa) = 0.01706620
#
# Stress axis : x y z
#
# Youngs Moduli (GPa) = 65.97975 76.04993 97.10801
#
# Poissons Ratio (x) = 0.40648 0.22961
# Poissons Ratio (y) = 0.35266 0.29706
# Poissons Ratio (z) = 0.15600 0.23265
#
# Static dielectric constant tensor:
#      x y z
#    x 1.803010 0.000000 0.000000 
#    y 0.000000 1.992270 0.000000 
#    z 0.000000 0.000000 2.050460 
# 
# From -- ./inp_files/415.got.cif
#   From: 2010.05.17/outbox.cif.g08.bks.cpg/sg60_1_cif.got.tgz:415.got - 2010.06.03 14:59:27.
