data_PCOD9458584
_publ_section_title
;
Structure prediction by ZEFSAII (Michael W. Deem and Ramdas Pophale) SiO2 
 PCOD9458584
Probable space group: P B C N
;
_chemical_formula_sum "Si O2"
_cell_formula_units_Z 32
_cell_length_a 14.116766
_cell_length_b 4.924186
_cell_length_c 16.743496
_cell_angle_alpha 90.000000
_cell_angle_beta 90.000000
_cell_angle_gamma 90.000000
_cell_volume 1163.900374
_symmetry_space_group_name_H-M "P B C N"
_symmetry_group_IT_number 60
_symmetry_cell_setting 'orthorhombic'
loop_
_space_group_symop_operation_xyz
x,y,z
1/2-x,1/2-y,1/2+z
1/2+x,1/2-y,-z
-x,y,1/2-z
-x,-y,-z
1/2+x,1/2+y,1/2-z
1/2-x,1/2+y,z
x,-y,1/2+z
loop_
_atom_site_type_symbol
_atom_site_label
_atom_site_fract_x
_atom_site_fract_y
_atom_site_fract_z
Si Si1 0.890079 0.206995 0.159337
Si Si2 0.162985 0.681517 0.438781
Si Si3 0.162985 0.681518 0.061219
Si Si4 0.609921 0.293005 0.840663
O O1 0.825964 0.464957 0.133599
O O2 0.868825 0.123240 0.250000
O O3 1.000000 0.296029 0.157875
O O4 0.878541 0.952540 0.099519
O O5 0.250000 0.250000 0.500000
O O6 0.101151 0.499999 0.500000
O O7 0.121459 0.047459 0.599519
O O8 0.174035 0.464958 0.133599
#
# Coordination Sequence:
#
# PCOD9458584 Si02
#       4
#     8   8   8   8
#     4  11  25  47  76 109 146 192 249 313 377 442
#     4  12  25  46  71 106 152 195 247 302 372 454
#     4  12  25  46  71 106 152 195 247 302 372 454
#     4  11  25  47  76 109 146 192 249 313 377 442
#
# _framework density 27.493759000000001
#
# number of rings (size 3 to 8) (size 9 to 14) (size 15 to 20)
#    0.000    0.500    0.000    9.000    0.000   10.000 
#    0.000   25.000    0.000    0.000    0.000    0.000 
#    0.000    0.000    0.000    0.000    0.000    0.000 
#
# Total GULP energy -178652.723011 kJ/mol
# GULP energy per Si atom -5582.897594 kJ/mol
# Density = 2.743118 g / cm^3
# Si number density = 27.493759 Si / 1000 Ang^3
#
#
#
# Elastic Constant Matrix: (Units=GPa)
#
#
# Indices 1 2 3 4 5 6 
#
# 1 135.8551 25.8448 53.4378 0.0000 0.0000 0.0000
# 2 25.8448 231.2678 64.1047 0.0000 0.0000 0.0000
# 3 53.4378 64.1047 177.2831 0.0000 0.0000 0.0000
# 4 0.0000 0.0000 0.0000 69.9595 0.0000 0.0000
# 5 0.0000 0.0000 0.0000 0.0000 45.6886 0.0000
# 6 0.0000 0.0000 0.0000 0.0000 0.0000 27.4127
#
#
#
# Elastic Compliance Matrix: (Units=1/GPa)
#
#
# Indices 1 2 3 4 5 6 
#
# 1 0.008365 -0.000262 -0.002427 0.000000 0.000000 0.000000
# 2 -0.000262 0.004814 -0.001662 0.000000 0.000000 0.000000
# 3 -0.002427 -0.001662 0.006973 0.000000 0.000000 0.000000
# 4 0.000000 0.000000 0.000000 0.014294 0.000000 0.000000
# 5 0.000000 0.000000 0.000000 0.000000 0.021887 0.000000
# 6 0.000000 0.000000 0.000000 0.000000 0.000000 0.036479
#
#
# Mechanical properties :
#
#
# Convention : Reuss Voigt Hill
#
# Bulk Modulus (GPa) = 87.32829 92.35341 89.84085
# Shear Modulus (GPa) = 47.46948 55.34674 51.40811
#
# Velocity S-wave (km/s) = 4.15969 4.49159 4.32882
# Velocity P-wave (km/s) = 7.40963 7.78221 7.59820
#
# Compressibility (1/GPa) = 0.01145104
#
# Stress axis : x y z
#
# Youngs Moduli (GPa) = 119.54312 207.73266 143.41024
#
# Poissons Ratio (x) = 0.05446 0.34801
# Poissons Ratio (y) = 0.03134 0.23830
# Poissons Ratio (z) = 0.29009 0.34518
#
# Static dielectric constant tensor:
#      x y z
#    x 2.302770 0.000000 0.000000 
#    y 0.000000 2.482660 0.000000 
#    z 0.000000 0.000000 2.208880 
# 
# From -- ./inp_files/15723.got.cif
#   From: 2010.05.17/outbox.cif.g08.bks.cpg/sg60_8_cif.got.tgz:15723.got - 2010.06.03 14:59:27.
