data_PCOD9458142
_publ_section_title
;
Structure prediction by ZEFSAII (Michael W. Deem and Ramdas Pophale) SiO2 
 PCOD9458142
Probable space group: P B C N
;
_chemical_formula_sum "Si O2"
_cell_formula_units_Z 48
_cell_length_a 13.979758
_cell_length_b 8.689995
_cell_length_c 15.864477
_cell_angle_alpha 90.000000
_cell_angle_beta 90.000000
_cell_angle_gamma 90.000000
_cell_volume 1927.280554
_symmetry_space_group_name_H-M "P B C N"
_symmetry_group_IT_number 60
_symmetry_cell_setting 'orthorhombic'
loop_
_space_group_symop_operation_xyz
x,y,z
1/2-x,1/2-y,1/2+z
1/2+x,1/2-y,-z
-x,y,1/2-z
-x,-y,-z
1/2+x,1/2+y,1/2-z
1/2-x,1/2+y,z
x,-y,1/2+z
loop_
_atom_site_type_symbol
_atom_site_label
_atom_site_fract_x
_atom_site_fract_y
_atom_site_fract_z
Si Si1 0.102684 0.941085 0.460840
Si Si2 0.613813 0.435708 0.730066
Si Si3 0.892400 0.412702 0.209229
Si Si4 0.438082 0.097240 0.435297
Si Si5 0.778931 0.912339 0.392119
Si Si6 0.871188 0.390234 0.849737
O O1 0.107827 0.755512 0.464199
O O2 0.120525 0.992523 0.363947
O O3 0.177719 0.017017 0.523965
O O4 0.000000 0.000000 0.500000
O O5 0.500000 0.438829 0.750000
O O6 0.647200 0.256845 0.725078
O O7 0.667408 0.520043 0.807874
O O8 0.882570 0.461949 0.112859
O O9 0.855154 0.568485 0.253217
O O10 0.000000 0.402228 0.250000
O O11 0.521317 0.153809 0.369689
O O12 0.500000 0.000000 0.500000
O O13 0.801876 0.734457 0.387493
O O14 0.666607 0.949374 0.388295
#
# Coordination Sequence:
#
# PCOD9458142 Si02
#       6
#     8   8   8   8   8   8
#     4  12  23  42  69 102 131 179 233 277 338 406
#     4  11  21  41  68  96 130 172 224 277 333 410
#     4   9  21  39  68  95 127 173 219 268 337 402
#     4  11  23  40  70  98 134 172 230 281 333 408
#     4  12  26  43  69  96 140 177 225 282 345 398
#     4  11  24  44  63  96 135 178 220 281 341 401
#
# _framework density 24.905559
#
# number of rings (size 3 to 8) (size 9 to 14) (size 15 to 20)
#    0.000    1.000    3.333    3.000    7.000    1.333 
#    3.000    1.667    0.000    0.000    0.000    0.000 
#    0.000    0.000    0.000    0.000    0.000    0.000 
#
# Total GULP energy -268101.595110 kJ/mol
# GULP energy per Si atom -5585.449898 kJ/mol
# Density = 2.484887 g / cm^3
# Si number density = 24.905559 Si / 1000 Ang^3
#
#
#
# Elastic Constant Matrix: (Units=GPa)
#
#
# Indices 1 2 3 4 5 6 
#
# 1 51.3990 -18.1480 -0.6298 0.0000 0.0000 0.0000
# 2 -18.1480 132.4743 45.6251 0.0000 0.0000 0.0000
# 3 -0.6298 45.6251 160.7377 0.0000 0.0000 0.0000
# 4 0.0000 0.0000 0.0000 49.5595 0.0000 0.0000
# 5 0.0000 0.0000 0.0000 0.0000 25.2558 0.0000
# 6 0.0000 0.0000 0.0000 0.0000 0.0000 32.7219
#
#
#
# Elastic Compliance Matrix: (Units=1/GPa)
#
#
# Indices 1 2 3 4 5 6 
#
# 1 0.020536 0.003087 -0.000796 0.000000 0.000000 0.000000
# 2 0.003087 0.008831 -0.002494 0.000000 0.000000 0.000000
# 3 -0.000796 -0.002494 0.006926 0.000000 0.000000 0.000000
# 4 0.000000 0.000000 0.000000 0.020178 0.000000 0.000000
# 5 0.000000 0.000000 0.000000 0.000000 0.039595 0.000000
# 6 0.000000 0.000000 0.000000 0.000000 0.000000 0.030561
#
#
# Mechanical properties :
#
#
# Convention : Reuss Voigt Hill
#
# Bulk Modulus (GPa) = 27.86529 44.25617 36.06073
# Shear Modulus (GPa) = 35.97269 42.69170 39.33220
#
# Velocity S-wave (km/s) = 3.80460 4.14471 3.97829
# Velocity P-wave (km/s) = 5.52383 6.38068 5.96765
#
# Compressibility (1/GPa) = 0.03588694
#
# Stress axis : x y z
#
# Youngs Moduli (GPa) = 48.69509 113.24132 144.37825
#
# Poissons Ratio (x) = -0.34962 0.11491
# Poissons Ratio (y) = -0.15034 0.36015
# Poissons Ratio (z) = 0.03876 0.28248
#
# Static dielectric constant tensor:
#      x y z
#    x 2.055570 0.000000 0.000000 
#    y 0.000000 1.921410 0.000000 
#    z 0.000000 0.000000 2.330200 
# 
# From -- ./inp_files/17331.got.cif
#   From: 2010.05.17/outbox.cif.g08.bks.cpg/sg60_9_cif.got.tgz:17331.got - 2010.06.03 14:59:27.
