data_PCOD9458270
_publ_section_title
;
Structure prediction by ZEFSAII (Michael W. Deem and Ramdas Pophale) SiO2 
 PCOD9458270
Probable space group: P B C N
;
_chemical_formula_sum "Si O2"
_cell_formula_units_Z 48
_cell_length_a 13.791552
_cell_length_b 10.806663
_cell_length_c 14.612125
_cell_angle_alpha 90.000000
_cell_angle_beta 90.000000
_cell_angle_gamma 90.000000
_cell_volume 2177.800677
_symmetry_space_group_name_H-M "P B C N"
_symmetry_group_IT_number 60
_symmetry_cell_setting 'orthorhombic'
loop_
_space_group_symop_operation_xyz
x,y,z
1/2-x,1/2-y,1/2+z
1/2+x,1/2-y,-z
-x,y,1/2-z
-x,-y,-z
1/2+x,1/2+y,1/2-z
1/2-x,1/2+y,z
x,-y,1/2+z
loop_
_atom_site_type_symbol
_atom_site_label
_atom_site_fract_x
_atom_site_fract_y
_atom_site_fract_z
Si Si1 0.157705 0.450220 0.537958
Si Si2 0.350999 0.965886 0.834415
Si Si3 0.000000 0.049029 0.750000
Si Si4 0.806200 0.903605 0.807894
Si Si5 0.500000 0.138742 0.750000
Si Si6 0.504197 0.755595 0.594957
Si Si7 0.415987 0.215270 0.587923
O O1 0.177280 0.462821 0.428696
O O2 0.250004 0.463640 0.605031
O O3 0.095093 0.328300 0.565931
O O4 0.094523 0.572972 0.558906
O O5 0.263735 0.904604 0.779227
O O6 0.428385 0.861023 0.860424
O O7 0.406314 0.053419 0.762177
O O8 0.001149 0.142386 0.836260
O O9 0.904557 0.968085 0.772738
O O10 0.829850 0.770387 0.852197
O O11 0.502743 0.219048 0.659454
O O12 0.558355 0.712256 0.502714
#
# Coordination Sequence:
#
# PCOD9458270 Si02
#       7
#     8   8   4   8   4   8   8
#     4  11  23  45  76 108 136 184 250 303 358 439
#     4  11  22  42  75 106 135 181 243 299 360 427
#     4  12  30  48  64 102 150 194 232 302 376 440
#     4  12  28  46  65 105 149 190 236 296 371 439
#     4  12  18  42  72 104 136 176 236 304 346 434
#     4  11  23  47  79 103 141 186 245 305 367 427
#     4  11  24  43  70 103 142 181 239 297 357 425
#
# _framework density 22.040585
#
# number of rings (size 3 to 8) (size 9 to 14) (size 15 to 20)
#    0.000    0.667    5.000    3.000    7.000    0.667 
#    6.000    0.000    0.000    0.000    0.000    0.000 
#    0.000    0.000    0.000    0.000    0.000    0.000 
#
# Total GULP energy -267746.095230 kJ/mol
# GULP energy per Si atom -5578.043651 kJ/mol
# Density = 2.199042 g / cm^3
# Si number density = 22.040585 Si / 1000 Ang^3
#
#
#
# Elastic Constant Matrix: (Units=GPa)
#
#
# Indices 1 2 3 4 5 6 
#
# 1 88.8580 21.6862 45.1676 0.0000 0.0000 0.0000
# 2 21.6862 54.9752 33.2768 0.0000 0.0000 0.0000
# 3 45.1676 33.2768 165.1747 0.0000 0.0000 0.0000
# 4 0.0000 0.0000 0.0000 24.3033 0.0000 0.0000
# 5 0.0000 0.0000 0.0000 0.0000 36.6243 0.0000
# 6 0.0000 0.0000 0.0000 0.0000 0.0000 30.1175
#
#
#
# Elastic Compliance Matrix: (Units=1/GPa)
#
#
# Indices 1 2 3 4 5 6 
#
# 1 0.013657 -0.003561 -0.003017 0.000000 0.000000 0.000000
# 2 -0.003561 0.021645 -0.003387 0.000000 0.000000 0.000000
# 3 -0.003017 -0.003387 0.007562 0.000000 0.000000 0.000000
# 4 0.000000 0.000000 0.000000 0.041147 0.000000 0.000000
# 5 0.000000 0.000000 0.000000 0.000000 0.027304 0.000000
# 6 0.000000 0.000000 0.000000 0.000000 0.000000 0.033203
#
#
# Mechanical properties :
#
#
# Convention : Reuss Voigt Hill
#
# Bulk Modulus (GPa) = 43.60485 56.58545 50.09515
# Shear Modulus (GPa) = 29.05435 32.13418 30.59427
#
# Velocity S-wave (km/s) = 3.63467 3.82246 3.72975
# Velocity P-wave (km/s) = 6.11893 6.72389 6.42853
#
# Compressibility (1/GPa) = 0.02293323
#
# Stress axis : x y z
#
# Youngs Moduli (GPa) = 73.22489 46.20043 132.24778
#
# Poissons Ratio (x) = 0.16451 0.39900
# Poissons Ratio (y) = 0.26075 0.44791
# Poissons Ratio (z) = 0.22092 0.15648
#
# Static dielectric constant tensor:
#      x y z
#    x 1.888380 0.000000 0.000000 
#    y 0.000000 1.859000 0.000000 
#    z 0.000000 0.000000 1.866950 
# 
# From -- ./inp_files/16812.got.cif
#   From: 2010.05.17/outbox.cif.g08.bks.cpg/sg60_9_cif.got.tgz:16812.got - 2010.06.03 14:59:27.
