data_PCOD9458994
_publ_section_title
;
Structure prediction by ZEFSAII (Michael W. Deem and Ramdas Pophale) SiO2 
 PCOD9458994
Probable space group: P B C A
;
_chemical_formula_sum "Si O2"
_cell_formula_units_Z 48
_cell_length_a 14.294299
_cell_length_b 21.689725
_cell_length_c 5.669107
_cell_angle_alpha 90.000000
_cell_angle_beta 90.000000
_cell_angle_gamma 90.000000
_cell_volume 1757.646614
_symmetry_space_group_name_H-M "P B C A"
_symmetry_group_IT_number 61
_symmetry_cell_setting 'orthorhombic'
loop_
_space_group_symop_operation_xyz
x,y,z
1/2-x,-y,1/2+z
1/2+x,1/2-y,-z
-x,1/2+y,1/2-z
-x,-y,-z
1/2+x,y,1/2-z
1/2-x,1/2+y,z
x,1/2-y,1/2+z
loop_
_atom_site_type_symbol
_atom_site_label
_atom_site_fract_x
_atom_site_fract_y
_atom_site_fract_z
Si Si1 0.162945 0.336542 0.750000
Si Si2 0.947508 0.508277 0.750000
Si Si3 0.241083 0.534002 0.250000
Si Si4 0.881502 0.183768 0.250000
Si Si5 0.144450 0.354645 0.250000
Si Si6 0.628731 0.671258 0.750000
O O1 0.187545 0.409669 0.750000
O O2 0.267360 0.309803 0.750000
O O3 0.117313 0.323365 0.498195
O O4 0.117313 0.323365 0.001805
O O5 0.868750 0.455694 0.750000
O O6 0.897282 0.576137 0.750000
O O7 0.000000 0.500000 0.500000
O O8 0.000000 0.500000 0.000000
O O9 0.250000 0.500000 0.500000
O O10 0.900090 0.256661 0.250000
O O11 0.908150 0.152044 0.495518
O O12 0.908150 0.152044 0.004481
O O13 0.260009 0.349149 0.250000
#
# Coordination Sequence:
#
# PCOD9458994 Si02
#       6
#     8   8   8   8   8   8
#     4  10  17  30  50  73  96 128 168 215 264 303
#     4  12  24  36  50  74 108 145 182 220 260 309
#     4  12  21  36  55  74 100 145 180 220 263 311
#     4   8  14  23  40  67  98 115 147 206 264 307
#     4  10  18  31  49  69 100 134 168 214 259 306
#     4   8  14  24  40  65  96 123 147 197 270 300
#
# _framework density 27.309244
#
# number of rings (size 3 to 8) (size 9 to 14) (size 15 to 20)
#    0.000    2.000    3.333    2.000    0.000    0.000 
#    0.000    0.000    0.000    0.000    0.000    0.000 
#    0.000  128.000    0.000    0.000    0.000    0.000 
#
# Total GULP energy -267774.377236 kJ/mol
# GULP energy per Si atom -5578.632859 kJ/mol
# Density = 2.724709 g / cm^3
# Si number density = 27.309244 Si / 1000 Ang^3
#
#
#
# Elastic Constant Matrix: (Units=GPa)
#
#
# Indices 1 2 3 4 5 6 
#
# 1 107.4800 -11.0439 37.8533 0.0000 0.0000 0.0000
# 2 -11.0439 93.1380 50.4641 0.0000 0.0000 0.0000
# 3 37.8533 50.4641 365.5781 0.0000 0.0000 0.0000
# 4 0.0000 0.0000 0.0000 23.5854 0.0000 0.0000
# 5 0.0000 0.0000 0.0000 0.0000 11.6929 0.0000
# 6 0.0000 0.0000 0.0000 0.0000 0.0000 18.0599
#
#
#
# Elastic Compliance Matrix: (Units=1/GPa)
#
#
# Indices 1 2 3 4 5 6 
#
# 1 0.009951 0.001879 -0.001290 0.000000 0.000000 0.000000
# 2 0.001879 0.011959 -0.001845 0.000000 0.000000 0.000000
# 3 -0.001290 -0.001845 0.003124 0.000000 0.000000 0.000000
# 4 0.000000 0.000000 0.000000 0.042399 0.000000 0.000000
# 5 0.000000 0.000000 0.000000 0.000000 0.085522 0.000000
# 6 0.000000 0.000000 0.000000 0.000000 0.000000 0.055371
#
#
# Mechanical properties :
#
#
# Convention : Reuss Voigt Hill
#
# Bulk Modulus (GPa) = 44.40159 80.08257 62.24208
# Shear Modulus (GPa) = 22.89937 43.26249 33.08093
#
# Velocity S-wave (km/s) = 2.89886 3.98448 3.48421
# Velocity P-wave (km/s) = 5.24392 7.11028 6.24719
#
# Compressibility (1/GPa) = 0.02252172
#
# Stress axis : x y z
#
# Youngs Moduli (GPa) = 100.48895 83.61618 320.13558
#
# Poissons Ratio (x) = -0.15710 0.41289
# Poissons Ratio (y) = -0.18880 0.59078
# Poissons Ratio (z) = 0.12961 0.15431
#
# Static dielectric constant tensor:
#      x y z
#    x 2.040880 0.000000 0.000000 
#    y 0.000000 2.176040 0.000000 
#    z 0.000000 0.000000 2.206160 
# 
# From -- ./inp_files/571.got.cif
#   From: 2010.05.17/outbox.cif.g08.bks.cpg/sg61_1_cif.got.tgz:571.got - 2010.06.03 15:17:17.
