data_PCOD9458227
_publ_section_title
;
Structure prediction by ZEFSAII (Michael W. Deem and Ramdas Pophale) SiO2 
 PCOD9458227
Probable space group: P B C N
;
_chemical_formula_sum "Si O2"
_cell_formula_units_Z 32
_cell_length_a 5.085178
_cell_length_b 12.654056
_cell_length_c 21.616134
_cell_angle_alpha 90.000000
_cell_angle_beta 90.000000
_cell_angle_gamma 90.000000
_cell_volume 1390.957740
_symmetry_space_group_name_H-M "P B C N"
_symmetry_group_IT_number 60
_symmetry_cell_setting 'orthorhombic'
loop_
_space_group_symop_operation_xyz
x,y,z
1/2-x,1/2-y,1/2+z
1/2+x,1/2-y,-z
-x,y,1/2-z
-x,-y,-z
1/2+x,1/2+y,1/2-z
1/2-x,1/2+y,z
x,-y,1/2+z
loop_
_atom_site_type_symbol
_atom_site_label
_atom_site_fract_x
_atom_site_fract_y
_atom_site_fract_z
Si Si1 0.637370 0.995916 0.871695
Si Si2 0.144319 0.899275 0.315614
Si Si3 0.691137 0.402546 0.486500
Si Si4 0.440777 0.781456 0.903472
O O1 0.417150 0.038184 0.824143
O O2 0.588541 0.050197 0.939349
O O3 0.924342 0.035573 0.853211
O O4 0.633314 0.869896 0.875923
O O5 0.185694 0.786216 0.348629
O O6 0.000000 0.885741 0.250000
O O7 0.500000 0.500000 0.500000
O O8 0.762514 0.351694 0.551879
O O9 0.571215 0.304643 0.448286
#
# Coordination Sequence:
#
# PCOD9458227 Si02
#       4
#     8   8   8   8
#     4  11  24  43  66  96 133 174 222 280 340 406
#     4  11  26  45  66  95 131 177 235 286 333 399
#     4  11  22  40  67 105 142 175 221 281 348 429
#     4  11  22  40  68  98 133 178 217 271 345 410
#
# _framework density 23.005732999999999
#
# number of rings (size 3 to 8) (size 9 to 14) (size 15 to 20)
#    0.000    1.000    0.000    7.500    0.000    8.000 
#    0.000    0.000    0.000    0.000    0.000    0.000 
#    0.000    0.000    0.000    0.000    0.000    0.000 
#
# Total GULP energy -178889.252903 kJ/mol
# GULP energy per Si atom -5590.289153 kJ/mol
# Density = 2.295337 g / cm^3
# Si number density = 23.005733 Si / 1000 Ang^3
#
#
#
# Elastic Constant Matrix: (Units=GPa)
#
#
# Indices 1 2 3 4 5 6 
#
# 1 72.7089 37.9648 7.5870 0.0000 0.0000 0.0000
# 2 37.9648 187.8759 37.7223 0.0000 0.0000 0.0000
# 3 7.5870 37.7223 107.3110 0.0000 0.0000 0.0000
# 4 0.0000 0.0000 0.0000 20.5427 0.0000 0.0000
# 5 0.0000 0.0000 0.0000 0.0000 39.7448 0.0000
# 6 0.0000 0.0000 0.0000 0.0000 0.0000 34.1373
#
#
#
# Elastic Compliance Matrix: (Units=1/GPa)
#
#
# Indices 1 2 3 4 5 6 
#
# 1 0.015376 -0.003108 0.000005 0.000000 0.000000 0.000000
# 2 -0.003108 0.006355 -0.002014 0.000000 0.000000 0.000000
# 3 0.000005 -0.002014 0.010026 0.000000 0.000000 0.000000
# 4 0.000000 0.000000 0.000000 0.048679 0.000000 0.000000
# 5 0.000000 0.000000 0.000000 0.000000 0.025161 0.000000
# 6 0.000000 0.000000 0.000000 0.000000 0.000000 0.029294
#
#
# Mechanical properties :
#
#
# Convention : Reuss Voigt Hill
#
# Bulk Modulus (GPa) = 46.46070 59.38265 52.92168
# Shear Modulus (GPa) = 32.83020 37.85973 35.34497
#
# Velocity S-wave (km/s) = 3.78172 4.06108 3.92389
# Velocity P-wave (km/s) = 6.26958 6.91795 6.60173
#
# Compressibility (1/GPa) = 0.02152357
#
# Stress axis : x y z
#
# Youngs Moduli (GPa) = 65.03720 157.35240 99.73704
#
# Poissons Ratio (x) = 0.48908 -0.00055
# Poissons Ratio (y) = 0.20215 0.20089
# Poissons Ratio (z) = -0.00036 0.31694
#
# Static dielectric constant tensor:
#      x y z
#    x 1.907950 0.000000 0.000000 
#    y 0.000000 1.815330 0.000000 
#    z 0.000000 0.000000 1.965510 
# 
# From -- ./inp_files/21402.got.cif
#   From: 2010.05.17/outbox.cif.g08.bks.cpg/sg60_11_cif.got.tgz:21402.got - 2010.06.03 14:59:27.
