data_PCOD9458179
_publ_section_title
;
Structure prediction by ZEFSAII (Michael W. Deem and Ramdas Pophale) SiO2 
 PCOD9458179
Probable space group: P B C N
;
_chemical_formula_sum "Si O2"
_cell_formula_units_Z 32
_cell_length_a 17.165017
_cell_length_b 5.486678
_cell_length_c 13.376524
_cell_angle_alpha 90.000000
_cell_angle_beta 90.000000
_cell_angle_gamma 90.000000
_cell_volume 1259.786599
_symmetry_space_group_name_H-M "P B C N"
_symmetry_group_IT_number 60
_symmetry_cell_setting 'orthorhombic'
loop_
_space_group_symop_operation_xyz
x,y,z
1/2-x,1/2-y,1/2+z
1/2+x,1/2-y,-z
-x,y,1/2-z
-x,-y,-z
1/2+x,1/2+y,1/2-z
1/2-x,1/2+y,z
x,-y,1/2+z
loop_
_atom_site_type_symbol
_atom_site_label
_atom_site_fract_x
_atom_site_fract_y
_atom_site_fract_z
Si Si1 0.588145 0.313553 0.218259
Si Si2 0.294770 0.181556 0.442864
Si Si3 0.614882 0.976889 0.903074
Si Si4 0.537886 0.300178 0.575693
O O1 0.500000 0.254856 0.250000
O O2 0.627113 0.183586 0.124339
O O3 0.633456 0.205730 0.313162
O O4 0.577702 0.586398 0.174354
O O5 0.255407 0.441406 0.419894
O O6 0.319341 0.162723 0.559491
O O7 0.533889 0.126849 0.893286
O O8 0.600401 0.811715 0.000601
O O9 0.500000 0.500000 0.500000
#
# Coordination Sequence:
#
# PCOD9458179 Si02
#       4
#     8   8   8   8
#     4  12  25  47  81 120 154 209 276 348 413 492
#     4  12  29  51  75 111 164 219 278 337 414 517
#     4  11  25  46  74 110 158 211 259 334 424 488
#     4  11  21  46  75 117 154 194 263 341 411 494
#
# _framework density 25.401126999999999
#
# number of rings (size 3 to 8) (size 9 to 14) (size 15 to 20)
#    0.000    0.500    5.000    3.000    0.000    7.000 
#    0.000    0.000    0.000    0.000    0.000    0.000 
#    0.000    0.000    0.000    0.000    0.000    0.000 
#
# Total GULP energy -178683.565251 kJ/mol
# GULP energy per Si atom -5583.861414 kJ/mol
# Density = 2.534331 g / cm^3
# Si number density = 25.401127 Si / 1000 Ang^3
#
#
#
# Elastic Constant Matrix: (Units=GPa)
#
#
# Indices 1 2 3 4 5 6 
#
# 1 51.0713 17.9322 8.8917 0.0000 0.0000 0.0000
# 2 17.9322 111.9117 46.5845 0.0000 0.0000 0.0000
# 3 8.8917 46.5845 112.7383 0.0000 0.0000 0.0000
# 4 0.0000 0.0000 0.0000 58.0014 0.0000 0.0000
# 5 0.0000 0.0000 0.0000 0.0000 36.5208 0.0000
# 6 0.0000 0.0000 0.0000 0.0000 0.0000 34.8596
#
#
#
# Elastic Compliance Matrix: (Units=1/GPa)
#
#
# Indices 1 2 3 4 5 6 
#
# 1 0.020757 -0.003194 -0.000317 0.000000 0.000000 0.000000
# 2 -0.003194 0.011283 -0.004410 0.000000 0.000000 0.000000
# 3 -0.000317 -0.004410 0.010718 0.000000 0.000000 0.000000
# 4 0.000000 0.000000 0.000000 0.017241 0.000000 0.000000
# 5 0.000000 0.000000 0.000000 0.000000 0.027382 0.000000
# 6 0.000000 0.000000 0.000000 0.000000 0.000000 0.028686
#
#
# Mechanical properties :
#
#
# Convention : Reuss Voigt Hill
#
# Bulk Modulus (GPa) = 37.15459 46.94865 42.05162
# Shear Modulus (GPa) = 35.49064 39.36388 37.42726
#
# Velocity S-wave (km/s) = 3.74198 3.94088 3.84272
# Velocity P-wave (km/s) = 5.77311 6.26342 6.02325
#
# Compressibility (1/GPa) = 0.02691458
#
# Stress axis : x y z
#
# Youngs Moduli (GPa) = 48.17608 88.62659 93.30474
#
# Poissons Ratio (x) = 0.28307 0.02961
# Poissons Ratio (y) = 0.15387 0.41152
# Poissons Ratio (z) = 0.01529 0.39088
#
# Static dielectric constant tensor:
#      x y z
#    x 2.121920 0.000000 0.000000 
#    y 0.000000 2.108270 0.000000 
#    z 0.000000 0.000000 1.976460 
# 
# From -- ./inp_files/17145.got.cif
#   From: 2010.05.17/outbox.cif.g08.bks.cpg/sg60_9_cif.got.tgz:17145.got - 2010.06.03 14:59:27.
