data_PCOD9458021
_publ_section_title
;
Structure prediction by ZEFSAII (Michael W. Deem and Ramdas Pophale) SiO2 
 PCOD9458021
Probable space group: P B C N
;
_chemical_formula_sum "Si O2"
_cell_formula_units_Z 56
_cell_length_a 16.799221
_cell_length_b 11.337546
_cell_length_c 14.609616
_cell_angle_alpha 90.000000
_cell_angle_beta 90.000000
_cell_angle_gamma 90.000000
_cell_volume 2782.575818
_symmetry_space_group_name_H-M "P B C N"
_symmetry_group_IT_number 60
_symmetry_cell_setting 'orthorhombic'
loop_
_space_group_symop_operation_xyz
x,y,z
1/2-x,1/2-y,1/2+z
1/2+x,1/2-y,-z
-x,y,1/2-z
-x,-y,-z
1/2+x,1/2+y,1/2-z
1/2-x,1/2+y,z
x,-y,1/2+z
loop_
_atom_site_type_symbol
_atom_site_label
_atom_site_fract_x
_atom_site_fract_y
_atom_site_fract_z
Si Si1 0.920323 0.214836 0.187594
Si Si2 0.024626 0.170757 0.024663
Si Si3 0.329442 0.085954 0.123061
Si Si4 0.418949 0.928458 0.985194
Si Si5 0.148253 0.056917 0.158263
Si Si6 0.088862 0.517432 0.792700
Si Si7 0.060585 0.815423 0.164110
O O1 0.865274 0.132831 0.249152
O O2 0.894732 0.349646 0.174833
O O3 0.000000 0.219827 0.250000
O O4 0.946707 0.167641 0.089311
O O5 0.087836 0.089873 0.076077
O O6 0.064700 0.300736 0.026612
O O7 0.996509 0.151327 0.921450
O O8 0.234972 0.094642 0.123649
O O9 0.385947 0.201869 0.133757
O O10 0.351142 0.012320 0.213140
O O11 0.354473 0.005794 0.037496
O O12 0.404263 0.928312 0.877081
O O13 0.500000 0.000000 0.000000
O O14 0.122787 0.922372 0.181534
O O15 0.000000 0.511283 0.750000
O O16 0.000000 0.795402 0.250000
#
# Coordination Sequence:
#
# PCOD9458021 Si02
#       7
#     8   8   8   8   8   8   8
#     4   9  18  37  66  90 118 169 214 251 315 401
#     4  11  21  43  72  91 129 177 226 262 323 408
#     4  12  25  41  64 100 136 165 217 291 338 374
#     4  12  20  39  68 103 124 168 226 272 328 401
#     4  11  27  42  63  97 135 173 217 279 338 389
#     4  11  19  37  67  96 126 165 214 269 326 394
#     4  12  25  45  68  94 133 183 228 263 328 414
#
# _framework density 20.125238
#
# number of rings (size 3 to 8) (size 9 to 14) (size 15 to 20)
#    0.000    0.857    4.286    4.714    4.000    0.000 
#    5.143    2.857    0.000    0.000    0.000    0.000 
#    0.000    0.000    0.000    0.000    0.000    0.000 
#
# Total GULP energy -312593.446082 kJ/mol
# GULP energy per Si atom -5582.025823 kJ/mol
# Density = 2.007943 g / cm^3
# Si number density = 20.125238 Si / 1000 Ang^3
#
#
#
# Elastic Constant Matrix: (Units=GPa)
#
#
# Indices 1 2 3 4 5 6 
#
# 1 83.9874 35.9946 35.9029 0.0000 0.0000 0.0000
# 2 35.9946 82.8307 5.2459 0.0000 0.0000 0.0000
# 3 35.9029 5.2459 125.9072 0.0000 0.0000 0.0000
# 4 0.0000 0.0000 0.0000 30.0196 0.0000 0.0000
# 5 0.0000 0.0000 0.0000 0.0000 23.7184 0.0000
# 6 0.0000 0.0000 0.0000 0.0000 0.0000 27.0918
#
#
#
# Elastic Compliance Matrix: (Units=1/GPa)
#
#
# Indices 1 2 3 4 5 6 
#
# 1 0.016851 -0.007037 -0.004512 0.000000 0.000000 0.000000
# 2 -0.007037 0.015043 0.001380 0.000000 0.000000 0.000000
# 3 -0.004512 0.001380 0.009171 0.000000 0.000000 0.000000
# 4 0.000000 0.000000 0.000000 0.033312 0.000000 0.000000
# 5 0.000000 0.000000 0.000000 0.000000 0.042161 0.000000
# 6 0.000000 0.000000 0.000000 0.000000 0.000000 0.036911
#
#
# Mechanical properties :
#
#
# Convention : Reuss Voigt Hill
#
# Bulk Modulus (GPa) = 48.24446 49.66799 48.95623
# Shear Modulus (GPa) = 27.67049 30.53811 29.10430
#
# Velocity S-wave (km/s) = 3.71201 3.89961 3.80697
# Velocity P-wave (km/s) = 6.51123 6.70888 6.61079
#
# Compressibility (1/GPa) = 0.02072777
#
# Stress axis : x y z
#
# Youngs Moduli (GPa) = 59.34303 66.47427 109.03377
#
# Poissons Ratio (x) = 0.46778 0.49196
# Poissons Ratio (y) = 0.41760 -0.15045
# Poissons Ratio (z) = 0.26775 -0.09172
#
# Static dielectric constant tensor:
#      x y z
#    x 1.701590 0.000000 0.000000 
#    y 0.000000 1.709510 0.000000 
#    z 0.000000 0.000000 1.902680 
# 
# From -- ./inp_files/16867.got.cif
#   From: 2010.05.17/outbox.cif.g08.bks.cpg/sg60_9_cif.got.tgz:16867.got - 2010.06.03 14:59:27.
