data_PCOD9458938
_publ_section_title
;
Structure prediction by ZEFSAII (Michael W. Deem and Ramdas Pophale) SiO2 
 PCOD9458938
Probable space group: P B C N
;
_chemical_formula_sum "Si O2"
_cell_formula_units_Z 36
_cell_length_a 9.000000
_cell_length_b 21.000000
_cell_length_c 9.000000
_cell_angle_alpha 90.000000
_cell_angle_beta 90.000000
_cell_angle_gamma 90.000000
_cell_volume 1701.000000
_symmetry_space_group_name_H-M "P B C N"
_symmetry_group_IT_number 60
_symmetry_cell_setting 'orthorhombic'
loop_
_space_group_symop_operation_xyz
x,y,z
1/2-x,1/2-y,1/2+z
1/2+x,1/2-y,-z
-x,y,1/2-z
-x,-y,-z
1/2+x,1/2+y,1/2-z
1/2-x,1/2+y,z
x,-y,1/2+z
loop_
_atom_site_type_symbol
_atom_site_label
_atom_site_fract_x
_atom_site_fract_y
_atom_site_fract_z
Si Si1 0.942144 0.801307 0.914368
Si Si2 0.000000 0.993702 0.250000
Si Si3 0.531326 0.933976 0.576487
Si Si4 0.634610 0.583073 0.996044
Si Si5 0.591868 0.191066 0.406803
O O1 0.765659 0.794645 0.899895
O O2 0.000000 0.812744 0.750000
O O3 0.018696 0.858576 0.006512
O O4 0.009413 0.738266 0.984037
O O5 0.077713 0.036665 0.373619
O O6 0.880316 0.951807 0.338456
O O7 0.500000 0.943530 0.750000
O O8 0.694296 0.905642 0.539150
O O9 0.416766 0.879940 0.529348
O O10 0.500000 0.000000 0.500000
O O11 0.500000 0.193113 0.250000
#
# Coordination Sequence:
#
# PCOD9458938 Si02
#       5
#     8   4   8   8   8
#     4  12  24  45  70  96 134 174 225 277 333 401
#     4  10  24  38  68  94 136 168 228 258 338 390
#     4  11  24  42  66  97 137 171 219 274 336 400
#     4  11  23  42  66  98 131 179 218 276 331 403
#     4  11  26  45  67  97 131 176 224 275 336 397
#
# _framework density 21.164021000000002
#
# number of rings (size 3 to 8) (size 9 to 14) (size 15 to 20)
#    0.000    0.889    1.111    6.667    7.778    0.889 
#    4.000    0.000    0.000    0.000    0.000    0.000 
#    0.000    0.000    0.000    0.000    0.000    0.000 
#
# Total GULP energy -201022.373783 kJ/mol
# GULP energy per Si atom -5583.954827 kJ/mol
# Density = 2.111585 g / cm^3
# Si number density = 21.164021 Si / 1000 Ang^3
#
#
#
# Elastic Constant Matrix: (Units=GPa)
#
#
# Indices 1 2 3 4 5 6 
#
# 1 150.7135 14.6887 -1.4986 0.0000 0.0000 0.0000
# 2 14.6887 107.8866 25.4895 0.0000 0.0000 0.0000
# 3 -1.4986 25.4895 20.8744 0.0000 0.0000 0.0000
# 4 0.0000 0.0000 0.0000 -0.9175 0.0000 0.0000
# 5 0.0000 0.0000 0.0000 0.0000 28.6359 0.0000
# 6 0.0000 0.0000 0.0000 0.0000 0.0000 28.8975
#
#
#
# Elastic Compliance Matrix: (Units=1/GPa)
#
#
# Indices 1 2 3 4 5 6 
#
# 1 0.006800 -0.001463 0.002275 0.000000 0.000000 0.000000
# 2 -0.001463 0.013342 -0.016397 0.000000 0.000000 0.000000
# 3 0.002275 -0.016397 0.068091 0.000000 0.000000 0.000000
# 4 0.000000 0.000000 0.000000 -1.089874 0.000000 0.000000
# 5 0.000000 0.000000 0.000000 0.000000 0.034921 0.000000
# 6 0.000000 0.000000 0.000000 0.000000 0.000000 0.034605
#
#
# Mechanical properties :
#
#
# Convention : Reuss Voigt Hill
#
# Bulk Modulus (GPa) = 17.52446 39.64818 28.58632
# Shear Modulus (GPa) = -5.66943 27.37616 10.85336
#
# Velocity S-wave (km/s) = -1.63848 3.60046 2.26701
# Velocity P-wave (km/s) = 2.17228 6.00490 4.51540
#
# Compressibility (1/GPa) = 0.05706311
#
# Stress axis : x y z
#
# Youngs Moduli (GPa) = 147.05121 74.94992 14.68617
#
# Poissons Ratio (x) = 0.10968 -0.03341
# Poissons Ratio (y) = 0.21519 0.24081
# Poissons Ratio (z) = -0.33456 1.22896
#
# Static dielectric constant tensor:
#      x y z
#    x 1.955830 0.000000 0.000000 
#    y 0.000000 1.824810 0.000000 
#    z 0.000000 0.000000 1.632270 
# 
# From -- ./inp_files/3666.got.cif
#   From: 2010.05.17/outbox.ucp.g08.bks.cvg/sg60_2_cif.got.tgz:3666.got - 2010.06.11 16:26:41.
