data_PCOD9458796
_publ_section_title
;
Structure prediction by ZEFSAII (Michael W. Deem and Ramdas Pophale) SiO2 
 PCOD9458796
Probable space group: P B C N
;
_chemical_formula_sum "Si O2"
_cell_formula_units_Z 48
_cell_length_a 7.162890
_cell_length_b 9.637955
_cell_length_c 29.614881
_cell_angle_alpha 90.000000
_cell_angle_beta 90.000000
_cell_angle_gamma 90.000000
_cell_volume 2044.481419
_symmetry_space_group_name_H-M "P B C N"
_symmetry_group_IT_number 60
_symmetry_cell_setting 'orthorhombic'
loop_
_space_group_symop_operation_xyz
x,y,z
1/2-x,1/2-y,1/2+z
1/2+x,1/2-y,-z
-x,y,1/2-z
-x,-y,-z
1/2+x,1/2+y,1/2-z
1/2-x,1/2+y,z
x,-y,1/2+z
loop_
_atom_site_type_symbol
_atom_site_label
_atom_site_fract_x
_atom_site_fract_y
_atom_site_fract_z
Si Si1 0.175126 0.823317 0.917849
Si Si2 0.479508 0.961259 0.447940
Si Si3 0.134798 0.017506 0.605374
Si Si4 0.375171 0.726017 0.837518
Si Si5 0.713587 0.851638 0.810434
Si Si6 0.279407 0.093318 0.747663
O O1 0.136860 0.681543 0.944125
O O2 0.362068 0.910916 0.927134
O O3 0.197211 0.774689 0.865837
O O4 0.004966 0.928396 0.925462
O O5 0.677107 0.941432 0.421511
O O6 0.500000 0.000000 0.500000
O O7 0.192115 0.912443 0.645474
O O8 0.009738 0.139812 0.627980
O O9 0.492040 0.858324 0.820190
O O10 0.315993 0.640251 0.793655
O O11 0.735882 0.694623 0.794441
O O12 0.777572 0.941336 0.768046
O O13 0.500000 0.099001 0.750000
#
# Coordination Sequence:
#
# PCOD9458796 Si02
#       6
#     8   8   8   8   8   8
#     4  12  28  52  82 115 158 208 263 331 407 501
#     4  12  31  52  85 122 157 203 264 341 421 502
#     4  12  27  49  80 113 157 207 267 327 409 474
#     4  12  26  49  74 112 156 211 270 321 402 473
#     4  12  26  45  68 103 152 200 262 321 379 458
#     4  12  28  40  69 105 150 204 263 322 379 452
#
# _framework density 23.477836
#
# number of rings (size 3 to 8) (size 9 to 14) (size 15 to 20)
#    0.000    0.000    5.000    3.500   11.667    0.667 
#    0.000    0.000    0.000    0.000    0.000    0.000 
#    0.000    0.000    0.000    0.000    0.000    0.000 
#
# Total GULP energy -268598.632524 kJ/mol
# GULP energy per Si atom -5595.804844 kJ/mol
# Density = 2.342440 g / cm^3
# Si number density = 23.477836 Si / 1000 Ang^3
#
#
#
# Elastic Constant Matrix: (Units=GPa)
#
#
# Indices 1 2 3 4 5 6 
#
# 1 106.6918 23.3000 14.1686 0.0000 0.0000 0.0000
# 2 23.3000 94.4267 11.3606 0.0000 0.0000 0.0000
# 3 14.1686 11.3606 63.6418 0.0000 0.0000 0.0000
# 4 0.0000 0.0000 0.0000 25.6582 0.0000 0.0000
# 5 0.0000 0.0000 0.0000 0.0000 27.8029 0.0000
# 6 0.0000 0.0000 0.0000 0.0000 0.0000 35.8244
#
#
#
# Elastic Compliance Matrix: (Units=1/GPa)
#
#
# Indices 1 2 3 4 5 6 
#
# 1 0.010114 -0.002274 -0.001846 0.000000 0.000000 0.000000
# 2 -0.002274 0.011334 -0.001517 0.000000 0.000000 0.000000
# 3 -0.001846 -0.001517 0.016395 0.000000 0.000000 0.000000
# 4 0.000000 0.000000 0.000000 0.038974 0.000000 0.000000
# 5 0.000000 0.000000 0.000000 0.000000 0.035967 0.000000
# 6 0.000000 0.000000 0.000000 0.000000 0.000000 0.027914
#
#
# Mechanical properties :
#
#
# Convention : Reuss Voigt Hill
#
# Bulk Modulus (GPa) = 37.63676 40.26876 38.95276
# Shear Modulus (GPa) = 31.08913 32.25252 31.67082
#
# Velocity S-wave (km/s) = 3.64289 3.71043 3.67681
# Velocity P-wave (km/s) = 5.81032 5.96200 5.88664
#
# Compressibility (1/GPa) = 0.02656977
#
# Stress axis : x y z
#
# Youngs Moduli (GPa) = 98.86830 88.23186 60.99535
#
# Poissons Ratio (x) = 0.20061 0.11259
# Poissons Ratio (y) = 0.22480 0.09253
# Poissons Ratio (z) = 0.18250 0.13385
#
# Static dielectric constant tensor:
#      x y z
#    x 1.958090 0.000000 0.000000 
#    y 0.000000 1.895480 0.000000 
#    z 0.000000 0.000000 1.938420 
# 
# From -- ./inp_files/25935.got.cif
#   From: 2010.05.17/outbox.cif.g08.bks.cpg/sg60_13_cif.got.tgz:25935.got - 2010.06.03 14:59:27.
