data_PCOD9458539
_publ_section_title
;
Structure prediction by ZEFSAII (Michael W. Deem and Ramdas Pophale) SiO2 
 PCOD9458539
Probable space group: P B C N
;
_chemical_formula_sum "Si O2"
_cell_formula_units_Z 32
_cell_length_a 7.971461
_cell_length_b 18.791063
_cell_length_c 9.521582
_cell_angle_alpha 90.000000
_cell_angle_beta 90.000000
_cell_angle_gamma 90.000000
_cell_volume 1426.258961
_symmetry_space_group_name_H-M "P B C N"
_symmetry_group_IT_number 60
_symmetry_cell_setting 'orthorhombic'
loop_
_space_group_symop_operation_xyz
x,y,z
1/2-x,1/2-y,1/2+z
1/2+x,1/2-y,-z
-x,y,1/2-z
-x,-y,-z
1/2+x,1/2+y,1/2-z
1/2-x,1/2+y,z
x,-y,1/2+z
loop_
_atom_site_type_symbol
_atom_site_label
_atom_site_fract_x
_atom_site_fract_y
_atom_site_fract_z
Si Si1 0.593866 0.700760 0.101037
Si Si2 0.990145 0.324276 0.596796
Si Si3 0.134234 0.055515 0.448261
Si Si4 0.159347 0.524495 0.168670
O O1 0.500000 0.708151 0.250000
O O2 0.788410 0.675040 0.085329
O O3 0.567983 0.772928 0.017889
O O4 0.526188 0.628233 0.034843
O O5 0.912279 0.399635 0.891386
O O6 0.000000 0.288640 0.750000
O O7 0.201172 0.042822 0.288527
O O8 0.283686 0.032976 0.554450
O O9 0.000000 0.000000 0.500000
O O10 0.000000 0.492935 0.250000
#
# Coordination Sequence:
#
# PCOD9458539 Si02
#       4
#     8   8   8   8
#     4  12  26  49  76 108 147 191 246 302 366 432
#     4  11  25  47  76 105 149 193 241 302 361 438
#     4  12  26  45  78 108 150 191 247 306 359 441
#     4  11  24  49  70 106 149 195 235 300 371 429
#
# _framework density 22.436319999999998
#
# number of rings (size 3 to 8) (size 9 to 14) (size 15 to 20)
#    0.000    0.500    5.000    4.500    3.500    2.000 
#    4.500    0.000    0.000    0.000    0.000    0.000 
#    0.000    0.000    0.000    0.000    0.000    0.000 
#
# Total GULP energy -178266.170818 kJ/mol
# GULP energy per Si atom -5570.817838 kJ/mol
# Density = 2.238525 g / cm^3
# Si number density = 22.436320 Si / 1000 Ang^3
#
#
#
# Elastic Constant Matrix: (Units=GPa)
#
#
# Indices 1 2 3 4 5 6 
#
# 1 75.9083 12.7821 32.1050 0.0000 0.0000 0.0000
# 2 12.7821 88.9562 82.8829 0.0000 0.0000 0.0000
# 3 32.1050 82.8829 120.7023 0.0000 0.0000 0.0000
# 4 0.0000 0.0000 0.0000 48.2051 0.0000 0.0000
# 5 0.0000 0.0000 0.0000 0.0000 37.0535 0.0000
# 6 0.0000 0.0000 0.0000 0.0000 0.0000 31.4307
#
#
#
# Elastic Compliance Matrix: (Units=1/GPa)
#
#
# Indices 1 2 3 4 5 6 
#
# 1 0.015458 0.004469 -0.007180 0.000000 0.000000 0.000000
# 2 0.004469 0.032500 -0.023506 0.000000 0.000000 0.000000
# 3 -0.007180 -0.023506 0.026335 0.000000 0.000000 0.000000
# 4 0.000000 0.000000 0.000000 0.020745 0.000000 0.000000
# 5 0.000000 0.000000 0.000000 0.000000 0.026988 0.000000
# 6 0.000000 0.000000 0.000000 0.000000 0.000000 0.031816
#
#
# Mechanical properties :
#
#
# Convention : Reuss Voigt Hill
#
# Bulk Modulus (GPa) = 45.74637 60.12298 52.93468
# Shear Modulus (GPa) = 23.41225 33.85767 28.63496
#
# Velocity S-wave (km/s) = 3.23383 3.88887 3.57638
# Velocity P-wave (km/s) = 5.86321 6.85710 6.37954
#
# Compressibility (1/GPa) = 0.02185966
#
# Stress axis : x y z
#
# Youngs Moduli (GPa) = 64.69075 30.76894 37.97160
#
# Poissons Ratio (x) = -0.13751 0.27265
# Poissons Ratio (y) = -0.28910 0.89255
# Poissons Ratio (z) = 0.46450 0.72325
#
# Static dielectric constant tensor:
#      x y z
#    x 3.267810 0.000000 0.000000 
#    y 0.000000 2.090960 0.000000 
#    z 0.000000 0.000000 1.923970 
# 
# From -- ./inp_files/3589.got.cif
#   From: 2010.05.17/outbox.cif.g08.bks.cpg/sg60_2_cif.got.tgz:3589.got - 2010.06.03 14:59:27.
