data_PCOD9458842
_publ_section_title
;
Structure prediction by ZEFSAII (Michael W. Deem and Ramdas Pophale) SiO2 
 PCOD9458842
Probable space group: P B C N
;
_chemical_formula_sum "Si O2"
_cell_formula_units_Z 24
_cell_length_a 6.560280
_cell_length_b 13.480442
_cell_length_c 9.302594
_cell_angle_alpha 90.000000
_cell_angle_beta 90.000000
_cell_angle_gamma 90.000000
_cell_volume 822.679310
_symmetry_space_group_name_H-M "P B C N"
_symmetry_group_IT_number 60
_symmetry_cell_setting 'orthorhombic'
loop_
_space_group_symop_operation_xyz
x,y,z
1/2-x,1/2-y,1/2+z
1/2+x,1/2-y,-z
-x,y,1/2-z
-x,-y,-z
1/2+x,1/2+y,1/2-z
1/2-x,1/2+y,z
x,-y,1/2+z
loop_
_atom_site_type_symbol
_atom_site_label
_atom_site_fract_x
_atom_site_fract_y
_atom_site_fract_z
Si Si1 0.867192 0.438209 0.888054
Si Si2 0.000000 0.744618 0.750000
Si Si3 0.000000 0.943272 0.250000
Si Si4 0.859196 0.204867 0.951052
O O1 0.654416 0.486347 0.837562
O O2 0.869146 0.322081 0.924450
O O3 0.000000 0.447664 0.750000
O O4 0.000000 0.500000 0.000000
O O5 0.838768 0.683312 0.848707
O O6 0.875880 0.804367 0.624260
O O7 0.036192 0.862575 0.379481
#
# Coordination Sequence:
#
# PCOD9458842 Si02
#       4
#     8   4   4   8
#     4  12  31  55  83 132 180 238 315 380 463 564
#     4  12  29  52  91 128 180 244 313 378 477 554
#     4  12  29  56  93 130 184 250 313 384 473 556
#     4  12  28  55  87 129 183 246 302 388 465 558
#
# _framework density 29.172971
#
# number of rings (size 3 to 8) (size 9 to 14) (size 15 to 20)
#    0.000    0.000    1.667    5.000   18.667    1.333 
#    0.000    0.000    0.000    0.000    0.000    0.000 
#    0.000    0.000    0.000    0.000    0.000    0.000 
#
# Total GULP energy -134147.171130 kJ/mol
# GULP energy per Si atom -5589.465464 kJ/mol
# Density = 2.910657 g / cm^3
# Si number density = 29.172971 Si / 1000 Ang^3
#
#
#
# Elastic Constant Matrix: (Units=GPa)
#
#
# Indices 1 2 3 4 5 6 
#
# 1 133.1190 66.9440 84.3069 0.0000 0.0000 0.0000
# 2 66.9440 251.6977 90.9127 0.0000 0.0000 0.0000
# 3 84.3069 90.9127 302.5369 0.0000 0.0000 0.0000
# 4 0.0000 0.0000 0.0000 33.4626 0.0000 0.0000
# 5 0.0000 0.0000 0.0000 0.0000 92.3197 0.0000
# 6 0.0000 0.0000 0.0000 0.0000 0.0000 -35.7075
#
#
#
# Elastic Compliance Matrix: (Units=1/GPa)
#
#
# Indices 1 2 3 4 5 6 
#
# 1 0.009813 -0.001820 -0.002188 0.000000 0.000000 0.000000
# 2 -0.001820 0.004794 -0.000934 0.000000 0.000000 0.000000
# 3 -0.002188 -0.000934 0.004196 0.000000 0.000000 0.000000
# 4 0.000000 0.000000 0.000000 0.029884 0.000000 0.000000
# 5 0.000000 0.000000 0.000000 0.000000 0.010832 0.000000
# 6 0.000000 0.000000 0.000000 0.000000 0.000000 -0.028005
#
#
# Mechanical properties :
#
#
# Convention : Reuss Voigt Hill
#
# Bulk Modulus (GPa) = 112.10029 130.18676 121.14352
# Shear Modulus (GPa) = 112.69255 47.69428 80.19341
#
# Velocity S-wave (km/s) = 6.22197 4.04775 5.24868
# Velocity P-wave (km/s) = 9.49351 8.15895 8.85142
#
# Compressibility (1/GPa) = 0.00892058
#
# Stress axis : x y z
#
# Youngs Moduli (GPa) = 101.90920 208.58481 238.34815
#
# Poissons Ratio (x) = 0.37956 0.52142
# Poissons Ratio (y) = 0.18544 0.22252
# Poissons Ratio (z) = 0.22294 0.19473
#
# Static dielectric constant tensor:
#      x y z
#    x 2.470010 0.000000 0.000000 
#    y 0.000000 2.636880 0.000000 
#    z 0.000000 0.000000 2.173270 
# 
# From -- ./inp_files/3384.got.cif
#   From: 2010.05.17/outbox.cif.g08.bks.cpg/sg60_2_cif.got.tgz:3384.got - 2010.06.03 14:59:27.
