data_PCOD9458885
_publ_section_title
;
Structure prediction by ZEFSAII (Michael W. Deem and Ramdas Pophale) SiO2 
 PCOD9458885
Probable space group: P B C N
;
_chemical_formula_sum "Si O2"
_cell_formula_units_Z 60
_cell_length_a 12.000000
_cell_length_b 9.000000
_cell_length_c 27.000000
_cell_angle_alpha 90.000000
_cell_angle_beta 90.000000
_cell_angle_gamma 90.000000
_cell_volume 2916.000000
_symmetry_space_group_name_H-M "P B C N"
_symmetry_group_IT_number 60
_symmetry_cell_setting 'orthorhombic'
loop_
_space_group_symop_operation_xyz
x,y,z
1/2-x,1/2-y,1/2+z
1/2+x,1/2-y,-z
-x,y,1/2-z
-x,-y,-z
1/2+x,1/2+y,1/2-z
1/2-x,1/2+y,z
x,-y,1/2+z
loop_
_atom_site_type_symbol
_atom_site_label
_atom_site_fract_x
_atom_site_fract_y
_atom_site_fract_z
Si Si1 0.366887 0.975487 0.440071
Si Si2 0.520941 0.428679 0.850240
Si Si3 0.780036 0.268295 0.388636
Si Si4 0.125094 0.451203 0.555587
Si Si5 0.665263 0.388084 0.292409
Si Si6 0.225802 0.186382 0.269785
Si Si7 0.196944 0.174702 0.385676
Si Si8 0.000000 0.261510 0.250000
O O1 0.349479 0.930844 0.497398
O O2 0.342675 0.835675 0.404266
O O3 0.493600 0.030470 0.436511
O O4 0.286352 0.106286 0.422341
O O5 0.624547 0.354651 0.878419
O O6 0.554432 0.580307 0.823837
O O7 0.412799 0.429139 0.883719
O O8 0.499288 0.323909 0.802635
O O9 0.676600 0.181193 0.412135
O O10 0.821855 0.394675 0.425576
O O11 0.750710 0.347012 0.336619
O O12 0.664560 0.250616 0.255586
O O13 0.689897 0.536231 0.259426
O O14 0.237577 0.174570 0.328508
O O15 0.129302 0.311105 0.255353
#
# Coordination Sequence:
#
# PCOD9458885 Si02
#       8
#     8   8   8   8   8   8   8   4
#     4  11  25  46  66  92 129 168 221 271 332 389
#     4  10  20  35  62  91 126 166 207 254 318 378
#     4  12  20  40  65  94 129 165 214 270 328 372
#     4  11  25  43  68  96 125 167 219 281 326 389
#     4  11  19  36  59  98 129 165 211 259 307 386
#     4  10  20  34  60  89 129 167 214 256 311 385
#     4  11  23  44  66  92 132 177 210 264 330 390
#     4   8  16  32  52  84 116 170 194 236 304 366
#
# _framework density 20.576132000000001
#
# number of rings (size 3 to 8) (size 9 to 14) (size 15 to 20)
#    0.000    1.333    5.333    1.600    0.000    1.067 
#    0.000    4.667    0.000    6.400    0.000    0.000 
#    0.000    0.000    0.000    0.000    0.000    0.000 
#
# Total GULP energy -334334.096321 kJ/mol
# GULP energy per Si atom -5572.234939 kJ/mol
# Density = 2.052930 g / cm^3
# Si number density = 20.576132 Si / 1000 Ang^3
#
#
#
# Elastic Constant Matrix: (Units=GPa)
#
#
# Indices 1 2 3 4 5 6 
#
# 1 70.7183 25.9731 47.0109 0.0000 0.0000 0.0000
# 2 25.9731 21.5757 36.9695 0.0000 0.0000 0.0000
# 3 47.0109 36.9695 114.9395 0.0000 0.0000 0.0000
# 4 0.0000 0.0000 0.0000 11.7375 0.0000 0.0000
# 5 0.0000 0.0000 0.0000 0.0000 32.9073 0.0000
# 6 0.0000 0.0000 0.0000 0.0000 0.0000 23.8625
#
#
#
# Elastic Compliance Matrix: (Units=1/GPa)
#
#
# Indices 1 2 3 4 5 6 
#
# 1 0.025426 -0.028491 -0.001235 0.000000 0.000000 0.000000
# 2 -0.028491 0.135181 -0.031827 0.000000 0.000000 0.000000
# 3 -0.001235 -0.031827 0.019442 0.000000 0.000000 0.000000
# 4 0.000000 0.000000 0.000000 0.085197 0.000000 0.000000
# 5 0.000000 0.000000 0.000000 0.000000 0.030388 0.000000
# 6 0.000000 0.000000 0.000000 0.000000 0.000000 0.041907
#
#
# Mechanical properties :
#
#
# Convention : Reuss Voigt Hill
#
# Bulk Modulus (GPa) = 17.56162 47.46007 32.51084
# Shear Modulus (GPa) = 10.42471 20.18682 15.30576
#
# Velocity S-wave (km/s) = 2.25331 3.13562 2.73034
# Velocity P-wave (km/s) = 3.91451 6.01873 5.07683
#
# Compressibility (1/GPa) = 0.05694235
#
# Stress axis : x y z
#
# Youngs Moduli (GPa) = 39.32987 7.39747 51.43385
#
# Poissons Ratio (x) = 0.21076 0.06354
# Poissons Ratio (y) = 1.12056 1.63699
# Poissons Ratio (z) = 0.04859 0.23544
#
# Static dielectric constant tensor:
#      x y z
#    x 1.896110 0.000000 0.000000 
#    y 0.000000 1.737700 0.000000 
#    z 0.000000 0.000000 1.720920 
# 
# From -- ./inp_files/25360.got.cif
#   From: 2010.05.17/outbox.ucp.g08.bks.cvg/sg60_13_cif.got.tgz:25360.got - 2010.06.11 16:26:41.
