data_PCOD9458379
_publ_section_title
;
Structure prediction by ZEFSAII (Michael W. Deem and Ramdas Pophale) SiO2 
 PCOD9458379
Probable space group: P B C N
;
_chemical_formula_sum "Si O2"
_cell_formula_units_Z 48
_cell_length_a 8.861598
_cell_length_b 17.441167
_cell_length_c 13.417159
_cell_angle_alpha 90.000000
_cell_angle_beta 90.000000
_cell_angle_gamma 90.000000
_cell_volume 2073.710619
_symmetry_space_group_name_H-M "P B C N"
_symmetry_group_IT_number 60
_symmetry_cell_setting 'orthorhombic'
loop_
_space_group_symop_operation_xyz
x,y,z
1/2-x,1/2-y,1/2+z
1/2+x,1/2-y,-z
-x,y,1/2-z
-x,-y,-z
1/2+x,1/2+y,1/2-z
1/2-x,1/2+y,z
x,-y,1/2+z
loop_
_atom_site_type_symbol
_atom_site_label
_atom_site_fract_x
_atom_site_fract_y
_atom_site_fract_z
Si Si1 0.258680 0.589153 0.126484
Si Si2 0.340872 0.935005 0.017850
Si Si3 0.462982 0.355805 0.964794
Si Si4 0.872282 0.123820 0.669843
Si Si5 0.646734 0.988631 0.697422
Si Si6 0.099970 0.320389 0.448075
O O1 0.434957 0.609012 0.122251
O O2 0.189690 0.585441 0.236533
O O3 0.229701 0.503871 0.082045
O O4 0.178304 0.648636 0.050447
O O5 0.205972 0.883901 0.973952
O O6 0.401918 0.971683 0.915314
O O7 0.461102 0.878555 0.067984
O O8 0.462681 0.264350 0.960673
O O9 0.541407 0.385301 0.065932
O O10 0.789777 0.044774 0.698692
O O11 0.727733 0.176204 0.638527
O O12 0.000000 0.147384 0.750000
O O13 0.500000 0.023024 0.750000
#
# Coordination Sequence:
#
# PCOD9458379 Si02
#       6
#     8   8   8   8   8   8
#     4  11  23  43  72 106 141 193 252 305 371 444
#     4  12  22  43  75 101 145 194 249 308 365 446
#     4  11  25  45  71 103 152 198 241 306 386 449
#     4  11  25  46  74 107 142 187 250 312 372 445
#     4  12  24  41  75 112 141 186 254 313 368 441
#     4  11  23  47  71 102 150 198 239 302 387 447
#
# _framework density 23.146913000000001
#
# number of rings (size 3 to 8) (size 9 to 14) (size 15 to 20)
#    0.000    0.667    5.000    5.000    2.333    0.000 
#    6.000    0.000    7.333    0.000    0.000    0.000 
#    0.000    0.000    0.000    0.000    0.000    0.000 
#
# Total GULP energy -268428.341645 kJ/mol
# GULP energy per Si atom -5592.257118 kJ/mol
# Density = 2.309423 g / cm^3
# Si number density = 23.146913 Si / 1000 Ang^3
#
#
#
# Elastic Constant Matrix: (Units=GPa)
#
#
# Indices 1 2 3 4 5 6 
#
# 1 142.9673 52.7228 24.9323 0.0000 0.0000 0.0000
# 2 52.7228 106.0484 21.7278 0.0000 0.0000 0.0000
# 3 24.9323 21.7278 95.5144 0.0000 0.0000 0.0000
# 4 0.0000 0.0000 0.0000 5.1763 0.0000 0.0000
# 5 0.0000 0.0000 0.0000 0.0000 37.8002 0.0000
# 6 0.0000 0.0000 0.0000 0.0000 0.0000 23.2422
#
#
#
# Elastic Compliance Matrix: (Units=1/GPa)
#
#
# Indices 1 2 3 4 5 6 
#
# 1 0.008729 -0.004062 -0.001354 0.000000 0.000000 0.000000
# 2 -0.004062 0.011781 -0.001620 0.000000 0.000000 0.000000
# 3 -0.001354 -0.001620 0.011192 0.000000 0.000000 0.000000
# 4 0.000000 0.000000 0.000000 0.193186 0.000000 0.000000
# 5 0.000000 0.000000 0.000000 0.000000 0.026455 0.000000
# 6 0.000000 0.000000 0.000000 0.000000 0.000000 0.043025
#
#
# Mechanical properties :
#
#
# Convention : Reuss Voigt Hill
#
# Bulk Modulus (GPa) = 56.72444 60.36623 58.54533
# Shear Modulus (GPa) = 15.90753 29.58689 22.74721
#
# Velocity S-wave (km/s) = 2.62437 3.57910 3.13826
# Velocity P-wave (km/s) = 5.80884 6.57390 6.20317
#
# Compressibility (1/GPa) = 0.01762909
#
# Stress axis : x y z
#
# Youngs Moduli (GPa) = 114.56312 84.88241 89.35265
#
# Poissons Ratio (x) = 0.34480 0.12102
# Poissons Ratio (y) = 0.46537 0.14472
# Poissons Ratio (z) = 0.15517 0.13748
#
# Static dielectric constant tensor:
#      x y z
#    x 1.974350 0.000000 0.000000 
#    y 0.000000 1.828850 0.000000 
#    z 0.000000 0.000000 1.903550 
# 
# From -- ./inp_files/15003.got.cif
#   From: 2010.05.17/outbox.cif.g08.bks.cpg/sg60_8_cif.got.tgz:15003.got - 2010.06.03 14:59:27.
