data_PCOD9458404
_publ_section_title
;
Structure prediction by ZEFSAII (Michael W. Deem and Ramdas Pophale) SiO2 
 PCOD9458404
Probable space group: P B C N
;
_chemical_formula_sum "Si O2"
_cell_formula_units_Z 40
_cell_length_a 11.138607
_cell_length_b 7.468822
_cell_length_c 21.835233
_cell_angle_alpha 90.000000
_cell_angle_beta 90.000000
_cell_angle_gamma 90.000000
_cell_volume 1816.522665
_symmetry_space_group_name_H-M "P B C N"
_symmetry_group_IT_number 60
_symmetry_cell_setting 'orthorhombic'
loop_
_space_group_symop_operation_xyz
x,y,z
1/2-x,1/2-y,1/2+z
1/2+x,1/2-y,-z
-x,y,1/2-z
-x,-y,-z
1/2+x,1/2+y,1/2-z
1/2-x,1/2+y,z
x,-y,1/2+z
loop_
_atom_site_type_symbol
_atom_site_label
_atom_site_fract_x
_atom_site_fract_y
_atom_site_fract_z
Si Si1 0.370247 0.080838 0.273491
Si Si2 0.619149 0.531683 0.772982
Si Si3 0.955605 0.863616 0.408341
Si Si4 0.856359 0.862738 0.539570
Si Si5 0.108531 0.522867 0.410866
O O1 0.500000 0.015309 0.250000
O O2 0.381560 0.296071 0.272258
O O3 0.250790 0.049148 0.234360
O O4 0.352183 0.000909 0.340470
O O5 0.500000 0.425453 0.750000
O O6 0.601081 0.587324 0.843378
O O7 0.873507 0.895933 0.467587
O O8 0.996284 0.656644 0.409014
O O9 0.908086 0.668630 0.557899
O O10 0.929243 0.010648 0.578162
O O11 0.717259 0.876309 0.555693
#
# Coordination Sequence:
#
# PCOD9458404 Si02
#       5
#     8   8   8   8   8
#     4  11  24  43  69 101 134 187 234 287 360 420
#     4  11  23  45  69  98 144 179 232 299 344 425
#     4  11  24  46  65 102 141 176 237 289 349 426
#     4  11  25  40  72 100 132 187 231 288 360 413
#     4  12  21  46  69  95 141 181 233 292 350 426
#
# _framework density 22.020092000000002
#
# number of rings (size 3 to 8) (size 9 to 14) (size 15 to 20)
#    0.000    0.800    6.000    3.000    0.000    4.000 
#    3.600    0.000    0.000    0.000    0.000    0.000 
#    0.000    0.000    0.000    0.000    0.000    0.000 
#
# Total GULP energy -223590.786178 kJ/mol
# GULP energy per Si atom -5589.769654 kJ/mol
# Density = 2.196997 g / cm^3
# Si number density = 22.020092 Si / 1000 Ang^3
#
#
#
# Elastic Constant Matrix: (Units=GPa)
#
#
# Indices 1 2 3 4 5 6 
#
# 1 126.7685 6.0610 35.2184 0.0000 0.0000 0.0000
# 2 6.0610 66.2760 -7.7950 0.0000 0.0000 0.0000
# 3 35.2184 -7.7950 109.3672 0.0000 0.0000 0.0000
# 4 0.0000 0.0000 0.0000 22.0286 0.0000 0.0000
# 5 0.0000 0.0000 0.0000 0.0000 27.2655 0.0000
# 6 0.0000 0.0000 0.0000 0.0000 0.0000 3.0934
#
#
#
# Elastic Compliance Matrix: (Units=1/GPa)
#
#
# Indices 1 2 3 4 5 6 
#
# 1 0.008748 -0.001141 -0.002898 0.000000 0.000000 0.000000
# 2 -0.001141 0.015365 0.001463 0.000000 0.000000 0.000000
# 3 -0.002898 0.001463 0.010181 0.000000 0.000000 0.000000
# 4 0.000000 0.000000 0.000000 0.045396 0.000000 0.000000
# 5 0.000000 0.000000 0.000000 0.000000 0.036676 0.000000
# 6 0.000000 0.000000 0.000000 0.000000 0.000000 0.323270
#
#
# Mechanical properties :
#
#
# Convention : Reuss Voigt Hill
#
# Bulk Modulus (GPa) = 34.31665 41.04229 37.67947
# Shear Modulus (GPa) = 11.00102 28.40599 19.70350
#
# Velocity S-wave (km/s) = 2.23758 3.59556 2.99456
# Velocity P-wave (km/s) = 4.72162 5.99303 5.39491
#
# Compressibility (1/GPa) = 0.02914038
#
# Stress axis : x y z
#
# Youngs Moduli (GPa) = 114.30966 65.08398 98.22127
#
# Poissons Ratio (x) = 0.07426 0.28468
# Poissons Ratio (y) = 0.13042 -0.14365
# Poissons Ratio (z) = 0.33132 -0.09519
#
# Static dielectric constant tensor:
#      x y z
#    x 1.852600 0.000000 0.000000 
#    y 0.000000 1.825370 0.000000 
#    z 0.000000 0.000000 1.789280 
# 
# From -- ./inp_files/19838.got.cif
#   From: 2010.05.17/outbox.cif.g08.bks.cpg/sg60_10_cif.got.tgz:19838.got - 2010.06.03 14:59:27.
