data_PCOD9458030
_publ_section_title
;
Structure prediction by ZEFSAII (Michael W. Deem and Ramdas Pophale) SiO2 
 PCOD9458030
Probable space group: P B C N
;
_chemical_formula_sum "Si O2"
_cell_formula_units_Z 56
_cell_length_a 11.294423
_cell_length_b 18.521773
_cell_length_c 11.657717
_cell_angle_alpha 90.000000
_cell_angle_beta 90.000000
_cell_angle_gamma 90.000000
_cell_volume 2438.709749
_symmetry_space_group_name_H-M "P B C N"
_symmetry_group_IT_number 60
_symmetry_cell_setting 'orthorhombic'
loop_
_space_group_symop_operation_xyz
x,y,z
1/2-x,1/2-y,1/2+z
1/2+x,1/2-y,-z
-x,y,1/2-z
-x,-y,-z
1/2+x,1/2+y,1/2-z
1/2-x,1/2+y,z
x,-y,1/2+z
loop_
_atom_site_type_symbol
_atom_site_label
_atom_site_fract_x
_atom_site_fract_y
_atom_site_fract_z
Si Si1 0.701800 0.370995 0.597515
Si Si2 0.432347 0.239455 0.988585
Si Si3 0.622442 0.640607 0.516724
Si Si4 0.791200 0.678430 0.316577
Si Si5 0.753379 0.844374 0.247300
Si Si6 0.597649 0.444758 0.401511
Si Si7 0.000000 0.931021 0.750000
Si Si8 0.500000 0.838192 0.250000
O O1 0.677861 0.295385 0.532140
O O2 0.800248 0.364172 0.695867
O O3 0.693447 0.435417 0.504609
O O4 0.581031 0.382610 0.669453
O O5 0.466880 0.205627 0.865952
O O6 0.541881 0.288352 0.027391
O O7 0.398352 0.187240 0.093565
O O8 0.687284 0.645197 0.395256
O O9 0.721170 0.642877 0.614225
O O10 0.530809 0.576363 0.546767
O O11 0.755763 0.759825 0.278761
O O12 0.859009 0.883250 0.313850
O O13 0.624544 0.876230 0.277988
O O14 0.581003 0.514840 0.324908
#
# Coordination Sequence:
#
# PCOD9458030 Si02
#       8
#     8   8   8   8   8   8   4   4
#     4  11  22  37  61  95 131 174 217 269 340 415
#     4  11  21  35  57  90 135 173 213 272 344 421
#     4  11  20  35  57  86 126 173 222 266 347 411
#     4  12  21  34  60  91 133 177 212 276 348 425
#     4  12  22  36  57  87 130 173 225 275 349 405
#     4  11  24  42  60  93 136 175 222 285 336 395
#     4  12  23  42  66  96 136 179 232 282 334 392
#     4  12  21  34  56  88 126 169 216 272 334 424
#
# _framework density 22.962961
#
# number of rings (size 3 to 8) (size 9 to 14) (size 15 to 20)
#    0.000    0.571    8.571    2.571    0.000    0.000 
#    0.000    0.000    0.000    0.000    0.000    8.000 
#    0.000    0.000    0.000    0.000    0.000    0.000 
#
# Total GULP energy -312807.255882 kJ/mol
# GULP energy per Si atom -5585.843855 kJ/mol
# Density = 2.291070 g / cm^3
# Si number density = 22.962961 Si / 1000 Ang^3
#
#
#
# Elastic Constant Matrix: (Units=GPa)
#
#
# Indices 1 2 3 4 5 6 
#
# 1 62.2260 16.2729 15.9514 0.0000 0.0000 0.0000
# 2 16.2729 61.1058 25.8921 0.0000 0.0000 0.0000
# 3 15.9514 25.8921 140.8316 0.0000 0.0000 0.0000
# 4 0.0000 0.0000 0.0000 31.4592 0.0000 0.0000
# 5 0.0000 0.0000 0.0000 0.0000 44.1316 0.0000
# 6 0.0000 0.0000 0.0000 0.0000 0.0000 24.2879
#
#
#
# Elastic Compliance Matrix: (Units=1/GPa)
#
#
# Indices 1 2 3 4 5 6 
#
# 1 0.017464 -0.004135 -0.001218 0.000000 0.000000 0.000000
# 2 -0.004135 0.018727 -0.002975 0.000000 0.000000 0.000000
# 3 -0.001218 -0.002975 0.007786 0.000000 0.000000 0.000000
# 4 0.000000 0.000000 0.000000 0.031787 0.000000 0.000000
# 5 0.000000 0.000000 0.000000 0.000000 0.022660 0.000000
# 6 0.000000 0.000000 0.000000 0.000000 0.000000 0.041173
#
#
# Mechanical properties :
#
#
# Convention : Reuss Voigt Hill
#
# Bulk Modulus (GPa) = 36.60106 42.26625 39.43366
# Shear Modulus (GPa) = 30.23759 33.71220 31.97490
#
# Velocity S-wave (km/s) = 3.63271 3.83575 3.73561
# Velocity P-wave (km/s) = 5.79389 6.16957 5.98468
#
# Compressibility (1/GPa) = 0.02732161
#
# Stress axis : x y z
#
# Youngs Moduli (GPa) = 57.26087 53.40002 128.44377
#
# Poissons Ratio (x) = 0.22079 0.15643
# Poissons Ratio (y) = 0.23676 0.38207
# Poissons Ratio (z) = 0.06974 0.15884
#
# Static dielectric constant tensor:
#      x y z
#    x 1.913290 0.000000 0.000000 
#    y 0.000000 1.846440 0.000000 
#    z 0.000000 0.000000 1.949630 
# 
# From -- ./inp_files/11231.got.cif
#   From: 2010.05.17/outbox.cif.g08.bks.cpg/sg60_6_cif.got.tgz:11231.got - 2010.06.03 14:59:27.
