data_PCOD9458664
_publ_section_title
;
Structure prediction by ZEFSAII (Michael W. Deem and Ramdas Pophale) SiO2 
 PCOD9458664
Probable space group: P B C N
;
_chemical_formula_sum "Si O2"
_cell_formula_units_Z 48
_cell_length_a 19.251711
_cell_length_b 10.341633
_cell_length_c 6.748791
_cell_angle_alpha 90.000000
_cell_angle_beta 90.000000
_cell_angle_gamma 90.000000
_cell_volume 1343.644671
_symmetry_space_group_name_H-M "P B C N"
_symmetry_group_IT_number 60
_symmetry_cell_setting 'orthorhombic'
loop_
_space_group_symop_operation_xyz
x,y,z
1/2-x,1/2-y,1/2+z
1/2+x,1/2-y,-z
-x,y,1/2-z
-x,-y,-z
1/2+x,1/2+y,1/2-z
1/2-x,1/2+y,z
x,-y,1/2+z
loop_
_atom_site_type_symbol
_atom_site_label
_atom_site_fract_x
_atom_site_fract_y
_atom_site_fract_z
Si Si1 0.421550 0.696985 0.500000
Si Si2 0.098310 0.500000 1.000000
Si Si3 0.703596 1.000000 0.250000
Si Si4 0.191142 0.830615 0.750000
Si Si5 0.078450 0.803015 0.500000
Si Si6 0.308858 0.330615 0.250000
O O1 0.429058 0.852751 0.500000
O O2 0.401736 0.669771 0.750000
O O3 0.500000 0.641726 0.500000
O O4 0.328258 0.672496 0.500000
O O5 0.113088 0.500000 0.750000
O O6 0.070942 0.352751 0.999999
O O7 0.188516 0.500000 1.000000
O O8 0.716275 0.834137 0.250000
O O9 0.793926 0.000000 0.250000
O O10 0.098264 0.830229 0.750000
O O11 0.171742 0.827504 0.500000
O O12 0.283725 0.834137 0.750000
#
# Coordination Sequence:
#
# PCOD9458664 Si02
#       6
#     8   8   8   8   8   8
#     4  12  25  42  65  97 133 166 205 264 327 374
#     4  12  21  40  66  98 127 158 208 272 317 374
#     4  12  24  38  70  96 120 164 224 260 302 370
#     4  12  23  44  65  94 129 169 215 257 309 382
#     4  12  25  42  65  97 133 166 205 264 327 374
#     4  12  23  44  65  94 129 169 215 257 309 382
#
# _framework density 35.723730000000003
#
# number of rings (size 3 to 8) (size 9 to 14) (size 15 to 20)
#    0.000    0.000    6.667    4.500    0.000    0.000 
#    0.000   10.000    0.000    0.000    0.000    0.000 
#    0.000    0.000    0.000    0.000    0.000    0.000 
#
# Total GULP energy -269440.556140 kJ/mol
# GULP energy per Si atom -5613.344920 kJ/mol
# Density = 3.564242 g / cm^3
# Si number density = 35.723730 Si / 1000 Ang^3
#
#
#
# Elastic Constant Matrix: (Units=GPa)
#
#
# Indices 1 2 3 4 5 6 
#
# 1 360.5853 126.9343 215.5840 0.0000 0.0000 0.0000
# 2 126.9343 351.9068 100.3121 0.0000 0.0000 0.0000
# 3 215.5840 100.3121 551.7977 0.0000 0.0000 0.0000
# 4 0.0000 0.0000 0.0000 135.0234 0.0000 0.0000
# 5 0.0000 0.0000 0.0000 0.0000 116.5465 0.0000
# 6 0.0000 0.0000 0.0000 0.0000 0.0000 -42.1673
#
#
#
# Elastic Compliance Matrix: (Units=1/GPa)
#
#
# Indices 1 2 3 4 5 6 
#
# 1 0.003948 -0.001038 -0.001354 0.000000 0.000000 0.000000
# 2 -0.001038 0.003270 -0.000189 0.000000 0.000000 0.000000
# 3 -0.001354 -0.000189 0.002375 0.000000 0.000000 0.000000
# 4 0.000000 0.000000 0.000000 0.007406 0.000000 0.000000
# 5 0.000000 0.000000 0.000000 0.000000 0.008580 0.000000
# 6 0.000000 0.000000 0.000000 0.000000 0.000000 -0.023715
#
#
# Mechanical properties :
#
#
# Convention : Reuss Voigt Hill
#
# Bulk Modulus (GPa) = 225.63313 238.88340 232.25826
# Shear Modulus (GPa) = 587.96843 96.64449 342.30646
#
# Velocity S-wave (km/s) = 12.84309 5.20692 9.79941
# Velocity P-wave (km/s) = 16.82927 10.15698 13.89943
#
# Compressibility (1/GPa) = 0.00443197
#
# Stress axis : x y z
#
# Youngs Moduli (GPa) = 253.28479 305.81276 420.96461
#
# Poissons Ratio (x) = 0.31750 0.56989
# Poissons Ratio (y) = 0.26296 0.07949
# Poissons Ratio (z) = 0.34289 0.05775
#
# Static dielectric constant tensor:
#      x y z
#    x 2.872480 0.000000 0.000000 
#    y 0.000000 2.386770 0.000000 
#    z 0.000000 0.000000 2.639010 
# 
# From -- ./inp_files/7488.got.cif
#   From: 2010.05.17/outbox.cif.g08.bks.cpg/sg60_4_cif.got.tgz:7488.got - 2010.06.03 14:59:27.
