data_PCOD9458437
_publ_section_title
;
Structure prediction by ZEFSAII (Michael W. Deem and Ramdas Pophale) SiO2 
 PCOD9458437
Probable space group: P B C N
;
_chemical_formula_sum "Si O2"
_cell_formula_units_Z 20
_cell_length_a 4.773122
_cell_length_b 15.230264
_cell_length_c 10.259331
_cell_angle_alpha 90.000000
_cell_angle_beta 90.000000
_cell_angle_gamma 90.000000
_cell_volume 745.811384
_symmetry_space_group_name_H-M "P B C N"
_symmetry_group_IT_number 60
_symmetry_cell_setting 'orthorhombic'
loop_
_space_group_symop_operation_xyz
x,y,z
1/2-x,1/2-y,1/2+z
1/2+x,1/2-y,-z
-x,y,1/2-z
-x,-y,-z
1/2+x,1/2+y,1/2-z
1/2-x,1/2+y,z
x,-y,1/2+z
loop_
_atom_site_type_symbol
_atom_site_label
_atom_site_fract_x
_atom_site_fract_y
_atom_site_fract_z
Si Si1 0.620789 0.806205 0.479451
Si Si2 0.000000 0.128686 0.750000
Si Si3 0.666775 0.535371 0.126334
O O1 0.820558 0.733958 0.549261
O O2 0.618253 0.893851 0.569046
O O3 0.807993 0.821844 0.352175
O O4 0.774724 0.059289 0.687590
O O5 0.500000 0.578273 0.250000
O O6 0.500000 0.500000 0.000000
#
# Coordination Sequence:
#
# PCOD9458437 Si02
#       3
#     8   4   8
#     4  11  24  40  63  93 123 157 203 257 303 352
#     4   8  20  40  64  88 122 166 204 240 306 368
#     4   8  17  39  63  84 123 159 203 241 303 367
#
# _framework density 26.816431000000001
#
# number of rings (size 3 to 8) (size 9 to 14) (size 15 to 20)
#    1.200    1.600    0.000    0.000    5.600    0.000 
#    0.000   22.000    0.000    0.000    0.000    0.000 
#    0.000    0.000    0.000    0.000    0.000    0.000 
#
# Total GULP energy -111559.559936 kJ/mol
# GULP energy per Si atom -5577.977997 kJ/mol
# Density = 2.675540 g / cm^3
# Si number density = 26.816431 Si / 1000 Ang^3
#
#
#
# Elastic Constant Matrix: (Units=GPa)
#
#
# Indices 1 2 3 4 5 6 
#
# 1 135.8422 28.9591 38.5531 0.0000 0.0000 0.0000
# 2 28.9591 102.1798 8.0886 0.0000 0.0000 0.0000
# 3 38.5531 8.0886 133.0005 0.0000 0.0000 0.0000
# 4 0.0000 0.0000 0.0000 42.7490 0.0000 0.0000
# 5 0.0000 0.0000 0.0000 0.0000 21.4331 0.0000
# 6 0.0000 0.0000 0.0000 0.0000 0.0000 3.2858
#
#
#
# Elastic Compliance Matrix: (Units=1/GPa)
#
#
# Indices 1 2 3 4 5 6 
#
# 1 0.008496 -0.002224 -0.002328 0.000000 0.000000 0.000000
# 2 -0.002224 0.010416 0.000011 0.000000 0.000000 0.000000
# 3 -0.002328 0.000011 0.008193 0.000000 0.000000 0.000000
# 4 0.000000 0.000000 0.000000 0.023392 0.000000 0.000000
# 5 0.000000 0.000000 0.000000 0.000000 0.046657 0.000000
# 6 0.000000 0.000000 0.000000 0.000000 0.000000 0.304340
#
#
# Mechanical properties :
#
#
# Convention : Reuss Voigt Hill
#
# Bulk Modulus (GPa) = 55.47940 58.02490 56.75215
# Shear Modulus (GPa) = 12.00241 33.18836 22.59538
#
# Velocity S-wave (km/s) = 2.11790 3.52179 2.90590
# Velocity P-wave (km/s) = 5.16857 6.18240 5.69808
#
# Compressibility (1/GPa) = 0.01802471
#
# Stress axis : x y z
#
# Youngs Moduli (GPa) = 117.70112 96.00610 122.05872
#
# Poissons Ratio (x) = 0.21348 0.28410
# Poissons Ratio (y) = 0.26173 -0.00136
# Poissons Ratio (z) = 0.27395 -0.00107
#
# Static dielectric constant tensor:
#      x y z
#    x 2.097310 0.000000 0.000000 
#    y 0.000000 2.131640 0.000000 
#    z 0.000000 0.000000 2.461230 
# 
# From -- ./inp_files/8591.got.cif
#   From: 2010.05.17/outbox.cif.g08.bks.cpg/sg60_5_cif.got.tgz:8591.got - 2010.06.03 14:59:27.
