data_PCOD9458360
_publ_section_title
;
Structure prediction by ZEFSAII (Michael W. Deem and Ramdas Pophale) SiO2 
 PCOD9458360
Probable space group: P B C N
;
_chemical_formula_sum "Si O2"
_cell_formula_units_Z 48
_cell_length_a 13.388938
_cell_length_b 9.639089
_cell_length_c 16.660135
_cell_angle_alpha 90.000000
_cell_angle_beta 90.000000
_cell_angle_gamma 90.000000
_cell_volume 2150.109792
_symmetry_space_group_name_H-M "P B C N"
_symmetry_group_IT_number 60
_symmetry_cell_setting 'orthorhombic'
loop_
_space_group_symop_operation_xyz
x,y,z
1/2-x,1/2-y,1/2+z
1/2+x,1/2-y,-z
-x,y,1/2-z
-x,-y,-z
1/2+x,1/2+y,1/2-z
1/2-x,1/2+y,z
x,-y,1/2+z
loop_
_atom_site_type_symbol
_atom_site_label
_atom_site_fract_x
_atom_site_fract_y
_atom_site_fract_z
Si Si1 0.762760 0.089460 0.554448
Si Si2 0.969230 0.834297 0.123647
Si Si3 0.000000 0.409361 0.750000
Si Si4 0.814226 0.176971 0.956409
Si Si5 0.293376 0.948287 0.269512
Si Si6 0.500000 0.429838 0.750000
Si Si7 0.810859 0.815179 0.814470
O O1 0.871787 0.159610 0.567845
O O2 0.686089 0.207948 0.526693
O O3 0.728579 0.022404 0.638295
O O4 0.773245 0.967438 0.489911
O O5 0.981035 0.694155 0.175350
O O6 0.075150 0.848289 0.078500
O O7 0.953484 0.962754 0.185520
O O8 0.903571 0.505384 0.755464
O O9 0.738758 0.247141 0.891915
O O10 0.275024 0.785861 0.256827
O O11 0.226719 0.032249 0.206537
O O12 0.428435 0.332922 0.696785
#
# Coordination Sequence:
#
# PCOD9458360 Si02
#       7
#     8   8   4   8   8   4   8
#     4  12  26  46  70 105 147 191 236 295 371 436
#     4  11  23  44  73 103 142 193 238 294 362 432
#     4  11  23  42  72 106 132 182 244 308 348 414
#     4  12  26  45  71 106 149 188 236 302 365 435
#     4  12  24  46  72 102 140 185 243 294 354 428
#     4  11  23  42  78 108 132 184 258 298 348 430
#     4  12  24  45  73 105 139 187 242 299 352 427
#
# _framework density 22.324442000000001
#
# number of rings (size 3 to 8) (size 9 to 14) (size 15 to 20)
#    0.000    0.333    3.333    7.000    0.000    0.000 
#    3.000    1.667    0.000    0.000    0.000    0.000 
#    0.000    0.000    0.000    0.000    0.000    0.000 
#
# Total GULP energy -268393.460944 kJ/mol
# GULP energy per Si atom -5591.530436 kJ/mol
# Density = 2.227363 g / cm^3
# Si number density = 22.324442 Si / 1000 Ang^3
#
#
#
# Elastic Constant Matrix: (Units=GPa)
#
#
# Indices 1 2 3 4 5 6 
#
# 1 87.8310 10.8318 24.9452 0.0000 0.0000 0.0000
# 2 10.8318 91.0210 17.7151 0.0000 0.0000 0.0000
# 3 24.9452 17.7151 80.5134 0.0000 0.0000 0.0000
# 4 0.0000 0.0000 0.0000 34.7060 0.0000 0.0000
# 5 0.0000 0.0000 0.0000 0.0000 34.7151 0.0000
# 6 0.0000 0.0000 0.0000 0.0000 0.0000 21.5463
#
#
#
# Elastic Compliance Matrix: (Units=1/GPa)
#
#
# Indices 1 2 3 4 5 6 
#
# 1 0.012535 -0.000769 -0.003715 0.000000 0.000000 0.000000
# 2 -0.000769 0.011525 -0.002298 0.000000 0.000000 0.000000
# 3 -0.003715 -0.002298 0.014077 0.000000 0.000000 0.000000
# 4 0.000000 0.000000 0.000000 0.028814 0.000000 0.000000
# 5 0.000000 0.000000 0.000000 0.000000 0.028806 0.000000
# 6 0.000000 0.000000 0.000000 0.000000 0.000000 0.046412
#
#
# Mechanical properties :
#
#
# Convention : Reuss Voigt Hill
#
# Bulk Modulus (GPa) = 40.69164 40.70552 40.69858
# Shear Modulus (GPa) = 30.50228 31.91835 31.21031
#
# Velocity S-wave (km/s) = 3.70038 3.78530 3.74308
# Velocity P-wave (km/s) = 6.04352 6.11375 6.07873
#
# Compressibility (1/GPa) = 0.02457507
#
# Stress axis : x y z
#
# Youngs Moduli (GPa) = 79.77459 86.76676 71.03923
#
# Poissons Ratio (x) = 0.06670 0.26388
# Poissons Ratio (y) = 0.06133 0.16322
# Poissons Ratio (z) = 0.29633 0.19936
#
# Static dielectric constant tensor:
#      x y z
#    x 1.878660 0.000000 0.000000 
#    y 0.000000 1.803280 0.000000 
#    z 0.000000 0.000000 1.862070 
# 
# From -- ./inp_files/20539.got.cif
#   From: 2010.05.17/outbox.cif.g08.bks.cpg/sg60_11_cif.got.tgz:20539.got - 2010.06.03 14:59:27.
