data_PCOD9458956
_publ_section_title
;
Structure prediction by ZEFSAII (Michael W. Deem and Ramdas Pophale) SiO2 
 PCOD9458956
Probable space group: P B C N
;
_chemical_formula_sum "Si O2"
_cell_formula_units_Z 60
_cell_length_a 27.000000
_cell_length_b 9.000000
_cell_length_c 12.000000
_cell_angle_alpha 90.000000
_cell_angle_beta 90.000000
_cell_angle_gamma 90.000000
_cell_volume 2916.000000
_symmetry_space_group_name_H-M "P B C N"
_symmetry_group_IT_number 60
_symmetry_cell_setting 'orthorhombic'
loop_
_space_group_symop_operation_xyz
x,y,z
1/2-x,1/2-y,1/2+z
1/2+x,1/2-y,-z
-x,y,1/2-z
-x,-y,-z
1/2+x,1/2+y,1/2-z
1/2-x,1/2+y,z
x,-y,1/2+z
loop_
_atom_site_type_symbol
_atom_site_label
_atom_site_fract_x
_atom_site_fract_y
_atom_site_fract_z
Si Si1 0.772815 0.430048 0.876342
Si Si2 0.977656 0.787584 0.450891
Si Si3 0.000000 0.437670 0.750000
Si Si4 0.177651 0.708800 0.930574
Si Si5 0.424484 0.193355 0.818723
Si Si6 0.271285 0.673797 0.785182
Si Si7 0.327078 0.546696 0.990323
Si Si8 0.932276 0.104815 0.403073
O O1 0.759196 0.568749 0.799397
O O2 0.791248 0.304846 0.791191
O O3 0.811141 0.421806 0.979578
O O4 0.719306 0.401056 0.934366
O O5 0.945722 0.745076 0.560775
O O6 0.983880 0.663526 0.355461
O O7 0.030925 0.819989 0.507215
O O8 0.953584 0.936193 0.396907
O O9 0.954664 0.546406 0.716004
O O10 0.133605 0.672242 0.845460
O O11 0.229031 0.735892 0.866436
O O12 0.167995 0.867406 0.989382
O O13 0.432243 0.311801 0.717187
O O14 0.312366 0.596350 0.863944
O O15 0.377576 0.606396 0.043426
#
# Coordination Sequence:
#
# PCOD9458956 Si02
#       8
#     8   8   4   8   8   8   8   8
#     4  11  23  43  66  96 136 183 226 287 355 413
#     4  11  26  48  75 106 140 187 243 295 362 429
#     4  12  28  48  72 104 154 186 220 310 380 424
#     4  11  24  42  67 103 133 183 239 284 345 431
#     4  12  25  49  72 103 149 188 239 298 363 434
#     4  11  23  43  68  95 140 181 223 293 354 416
#     4  11  23  42  70 101 136 177 239 290 344 414
#     4  11  25  45  78 103 135 189 250 295 345 431
#
# _framework density 20.576132000000001
#
# number of rings (size 3 to 8) (size 9 to 14) (size 15 to 20)
#    0.000    0.800    5.333    1.200    3.733    1.067 
#    7.200    0.000    0.000    0.000    0.000    0.000 
#    0.000    0.000    0.000    0.000    0.000    0.000 
#
# Total GULP energy -335113.393720 kJ/mol
# GULP energy per Si atom -5585.223229 kJ/mol
# Density = 2.052930 g / cm^3
# Si number density = 20.576132 Si / 1000 Ang^3
#
#
#
# Elastic Constant Matrix: (Units=GPa)
#
#
# Indices 1 2 3 4 5 6 
#
# 1 111.5531 26.3569 38.7875 0.0000 0.0000 0.0000
# 2 26.3569 67.5419 51.6086 0.0000 0.0000 0.0000
# 3 38.7875 51.6086 130.7857 0.0000 0.0000 0.0000
# 4 0.0000 0.0000 0.0000 48.6326 0.0000 0.0000
# 5 0.0000 0.0000 0.0000 0.0000 38.6567 0.0000
# 6 0.0000 0.0000 0.0000 0.0000 0.0000 19.0208
#
#
#
# Elastic Compliance Matrix: (Units=1/GPa)
#
#
# Indices 1 2 3 4 5 6 
#
# 1 0.010261 -0.002404 -0.002095 0.000000 0.000000 0.000000
# 2 -0.002404 0.021760 -0.007874 0.000000 0.000000 0.000000
# 3 -0.002095 -0.007874 0.011374 0.000000 0.000000 0.000000
# 4 0.000000 0.000000 0.000000 0.020562 0.000000 0.000000
# 5 0.000000 0.000000 0.000000 0.000000 0.025869 0.000000
# 6 0.000000 0.000000 0.000000 0.000000 0.000000 0.052574
#
#
# Mechanical properties :
#
#
# Convention : Reuss Voigt Hill
#
# Bulk Modulus (GPa) = 53.61625 60.37631 56.99628
# Shear Modulus (GPa) = 28.84170 34.13722 31.48946
#
# Velocity S-wave (km/s) = 3.74800 4.07759 3.91626
# Velocity P-wave (km/s) = 6.69657 7.18161 6.94333
#
# Compressibility (1/GPa) = 0.01865106
#
# Stress axis : x y z
#
# Youngs Moduli (GPa) = 97.46104 45.95628 87.91761
#
# Poissons Ratio (x) = 0.11046 0.18415
# Poissons Ratio (y) = 0.23425 0.69224
# Poissons Ratio (z) = 0.20414 0.36185
#
# Static dielectric constant tensor:
#      x y z
#    x 1.739700 0.000000 0.000000 
#    y 0.000000 1.760570 0.000000 
#    z 0.000000 0.000000 1.743500 
# 
# From -- ./inp_files/13284.got.cif
#   From: 2010.05.17/outbox.ucp.g08.bks.cvg/sg60_7_cif.got.tgz:13284.got - 2010.06.11 16:26:41.
