data_PCOD9458862
_publ_section_title
;
Structure prediction by ZEFSAII (Michael W. Deem and Ramdas Pophale) SiO2 
 PCOD9458862
Probable space group: P B C N
;
_chemical_formula_sum "Si O2"
_cell_formula_units_Z 32
_cell_length_a 7.083844
_cell_length_b 19.981880
_cell_length_c 8.108734
_cell_angle_alpha 90.000000
_cell_angle_beta 90.000000
_cell_angle_gamma 90.000000
_cell_volume 1147.779303
_symmetry_space_group_name_H-M "P B C N"
_symmetry_group_IT_number 60
_symmetry_cell_setting 'orthorhombic'
loop_
_space_group_symop_operation_xyz
x,y,z
1/2-x,1/2-y,1/2+z
1/2+x,1/2-y,-z
-x,y,1/2-z
-x,-y,-z
1/2+x,1/2+y,1/2-z
1/2-x,1/2+y,z
x,-y,1/2+z
loop_
_atom_site_type_symbol
_atom_site_label
_atom_site_fract_x
_atom_site_fract_y
_atom_site_fract_z
Si Si1 0.179368 0.150952 0.567115
Si Si2 0.222333 0.104020 0.086933
Si Si3 0.788433 0.021498 0.064184
Si Si4 0.272409 0.733845 0.263560
O O1 0.479128 0.369896 0.514695
O O2 0.277997 0.079365 0.560417
O O3 0.269401 0.204619 0.442972
O O4 0.192540 0.192765 0.732644
O O5 0.307093 0.174748 0.144735
O O6 0.784848 0.058578 0.242218
O O7 0.307229 0.050670 0.958839
O O8 0.000000 0.000000 0.000000
O O9 0.500000 0.737840 0.250000
#
# Coordination Sequence:
#
# PCOD9458862 Si02
#       4
#     8   8   8   8
#     4   9  17  30  46  69 101 133 161 204 253 291
#     4   9  18  31  49  77 102 122 163 215 255 300
#     4   9  15  28  48  74  99 119 158 214 257 293
#     4   9  18  33  48  72 106 134 167 205 246 306
#
# _framework density 27.879923999999999
#
# number of rings (size 3 to 8) (size 9 to 14) (size 15 to 20)
#    0.000    3.000    0.000    7.500    0.000    2.000 
#    0.000   22.500    0.000    0.000    0.000   63.000 
#    0.000    0.000    0.000    0.000    0.000    0.000 
#
# Total GULP energy -178380.700884 kJ/mol
# GULP energy per Si atom -5574.396903 kJ/mol
# Density = 2.781647 g / cm^3
# Si number density = 27.879924 Si / 1000 Ang^3
#
#
#
# Elastic Constant Matrix: (Units=GPa)
#
#
# Indices 1 2 3 4 5 6 
#
# 1 111.8495 40.3241 22.3671 0.0000 0.0000 0.0000
# 2 40.3241 255.2160 84.3489 0.0000 0.0000 0.0000
# 3 22.3671 84.3489 111.0597 0.0000 0.0000 0.0000
# 4 0.0000 0.0000 0.0000 80.2546 0.0000 0.0000
# 5 0.0000 0.0000 0.0000 0.0000 9.8248 0.0000
# 6 0.0000 0.0000 0.0000 0.0000 0.0000 13.9788
#
#
#
# Elastic Compliance Matrix: (Units=1/GPa)
#
#
# Indices 1 2 3 4 5 6 
#
# 1 0.009570 -0.001168 -0.001040 0.000000 0.000000 0.000000
# 2 -0.001168 0.005374 -0.003846 0.000000 0.000000 0.000000
# 3 -0.001040 -0.003846 0.012135 0.000000 0.000000 0.000000
# 4 0.000000 0.000000 0.000000 0.012460 0.000000 0.000000
# 5 0.000000 0.000000 0.000000 0.000000 0.101783 0.000000
# 6 0.000000 0.000000 0.000000 0.000000 0.000000 0.071537
#
#
# Mechanical properties :
#
#
# Convention : Reuss Voigt Hill
#
# Bulk Modulus (GPa) = 66.80246 85.80059 76.30153
# Shear Modulus (GPa) = 21.74313 42.88398 32.31356
#
# Velocity S-wave (km/s) = 2.79567 3.92620 3.40814
# Velocity P-wave (km/s) = 5.86803 7.16905 6.55092
#
# Compressibility (1/GPa) = 0.01496951
#
# Stress axis : x y z
#
# Youngs Moduli (GPa) = 104.49585 186.08033 82.40755
#
# Poissons Ratio (x) = 0.21740 0.08570
# Poissons Ratio (y) = 0.12208 0.31696
# Poissons Ratio (z) = 0.10868 0.71571
#
# Static dielectric constant tensor:
#      x y z
#    x 2.382260 0.000000 0.000000 
#    y 0.000000 2.207150 0.000000 
#    z 0.000000 0.000000 2.329450 
# 
# From -- ./inp_files/10903.got.cif
#   From: 2010.05.17/outbox.cif.g08.bks.cpg/sg60_6_cif.got.tgz:10903.got - 2010.06.03 14:59:27.
