data_PCOD9458891
_publ_section_title
;
Structure prediction by ZEFSAII (Michael W. Deem and Ramdas Pophale) SiO2 
 PCOD9458891
Probable space group: P B C N
;
_chemical_formula_sum "Si O2"
_cell_formula_units_Z 60
_cell_length_a 12.000000
_cell_length_b 9.000000
_cell_length_c 27.000000
_cell_angle_alpha 90.000000
_cell_angle_beta 90.000000
_cell_angle_gamma 90.000000
_cell_volume 2916.000000
_symmetry_space_group_name_H-M "P B C N"
_symmetry_group_IT_number 60
_symmetry_cell_setting 'orthorhombic'
loop_
_space_group_symop_operation_xyz
x,y,z
1/2-x,1/2-y,1/2+z
1/2+x,1/2-y,-z
-x,y,1/2-z
-x,-y,-z
1/2+x,1/2+y,1/2-z
1/2-x,1/2+y,z
x,-y,1/2+z
loop_
_atom_site_type_symbol
_atom_site_label
_atom_site_fract_x
_atom_site_fract_y
_atom_site_fract_z
Si Si1 0.587482 0.023243 0.325963
Si Si2 0.204709 0.254630 0.310427
Si Si3 0.129070 0.463204 0.991502
Si Si4 0.000000 0.276835 0.250000
Si Si5 0.189827 0.051455 0.623229
Si Si6 0.356410 0.034736 0.373344
Si Si7 0.378062 0.671814 0.727341
Si Si8 0.268948 0.700428 0.054401
O O1 0.480094 0.078696 0.355749
O O2 0.630790 0.158130 0.292388
O O3 0.555542 0.887199 0.290232
O O4 0.679958 0.970813 0.364160
O O5 0.099478 0.194406 0.278569
O O6 0.272559 0.134731 0.341414
O O7 0.161152 0.370361 0.351389
O O8 0.284887 0.337031 0.270272
O O9 0.154429 0.455053 0.932570
O O10 0.201165 0.591050 0.018429
O O11 0.160410 0.311836 0.020341
O O12 0.000000 0.500000 0.000000
O O13 0.136877 0.074181 0.677460
O O14 0.187634 0.197202 0.588553
O O15 0.159649 0.905236 0.591585
O O16 0.500000 0.651445 0.750000
#
# Coordination Sequence:
#
# PCOD9458891 Si02
#       8
#     8   8   8   4   8   8   8   8
#     4  11  20  39  67  88 128 179 218 260 334 407
#     4  11  23  40  63  98 136 177 220 264 328 411
#     4  11  24  46  75  96 136 178 232 295 372 406
#     4  10  20  38  60  94 132 180 212 260 322 402
#     4  11  22  39  69  96 133 169 235 275 340 410
#     4  11  23  42  68  94 130 174 225 277 338 411
#     4  12  22  38  64  97 140 181 219 270 338 403
#     4  10  23  43  68 101 126 175 230 296 338 420
#
# _framework density 20.576132000000001
#
# number of rings (size 3 to 8) (size 9 to 14) (size 15 to 20)
#    0.000    1.067    4.667    3.200    0.000    0.000 
#    1.200    6.667    0.000    0.000    0.000    0.000 
#    0.000    0.000    0.000    0.000    0.000    0.000 
#
# Total GULP energy -335461.734290 kJ/mol
# GULP energy per Si atom -5591.028905 kJ/mol
# Density = 2.052930 g / cm^3
# Si number density = 20.576132 Si / 1000 Ang^3
#
#
#
# Elastic Constant Matrix: (Units=GPa)
#
#
# Indices 1 2 3 4 5 6 
#
# 1 94.3072 28.4408 48.7441 0.0000 0.0000 0.0000
# 2 28.4408 84.5163 44.5311 0.0000 0.0000 0.0000
# 3 48.7441 44.5311 175.6529 0.0000 0.0000 0.0000
# 4 0.0000 0.0000 0.0000 37.1359 0.0000 0.0000
# 5 0.0000 0.0000 0.0000 0.0000 37.0269 0.0000
# 6 0.0000 0.0000 0.0000 0.0000 0.0000 17.3167
#
#
#
# Elastic Compliance Matrix: (Units=1/GPa)
#
#
# Indices 1 2 3 4 5 6 
#
# 1 0.012945 -0.002843 -0.002872 0.000000 0.000000 0.000000
# 2 -0.002843 0.014281 -0.002831 0.000000 0.000000 0.000000
# 3 -0.002872 -0.002831 0.007208 0.000000 0.000000 0.000000
# 4 0.000000 0.000000 0.000000 0.026928 0.000000 0.000000
# 5 0.000000 0.000000 0.000000 0.000000 0.027007 0.000000
# 6 0.000000 0.000000 0.000000 0.000000 0.000000 0.057748
#
#
# Mechanical properties :
#
#
# Convention : Reuss Voigt Hill
#
# Bulk Modulus (GPa) = 57.66576 66.43427 62.05002
# Shear Modulus (GPa) = 29.58758 33.81324 31.70041
#
# Velocity S-wave (km/s) = 3.79615 4.05819 3.92936
# Velocity P-wave (km/s) = 6.87756 7.36992 7.12799
#
# Compressibility (1/GPa) = 0.01734131
#
# Stress axis : x y z
#
# Youngs Moduli (GPa) = 77.24809 70.02472 138.74023
#
# Poissons Ratio (x) = 0.19910 0.39840
# Poissons Ratio (y) = 0.21964 0.39283
# Poissons Ratio (z) = 0.22182 0.19827
#
# Static dielectric constant tensor:
#      x y z
#    x -1.169740 0.000000 0.000000 
#    y 0.000000 1.770450 0.000000 
#    z 0.000000 0.000000 1.722500 
# 
# From -- ./inp_files/25349.got.cif
#   From: 2010.05.17/outbox.ucp.g08.bks.cvg/sg60_13_cif.got.tgz:25349.got - 2010.06.11 16:26:41.
