data_PCOD9458229
_publ_section_title
;
Structure prediction by ZEFSAII (Michael W. Deem and Ramdas Pophale) SiO2 
 PCOD9458229
Probable space group: P B C N
;
_chemical_formula_sum "Si O2"
_cell_formula_units_Z 60
_cell_length_a 9.089226
_cell_length_b 19.765919
_cell_length_c 16.363467
_cell_angle_alpha 90.000000
_cell_angle_beta 90.000000
_cell_angle_gamma 90.000000
_cell_volume 2939.809834
_symmetry_space_group_name_H-M "P B C N"
_symmetry_group_IT_number 60
_symmetry_cell_setting 'orthorhombic'
loop_
_space_group_symop_operation_xyz
x,y,z
1/2-x,1/2-y,1/2+z
1/2+x,1/2-y,-z
-x,y,1/2-z
-x,-y,-z
1/2+x,1/2+y,1/2-z
1/2-x,1/2+y,z
x,-y,1/2+z
loop_
_atom_site_type_symbol
_atom_site_label
_atom_site_fract_x
_atom_site_fract_y
_atom_site_fract_z
Si Si1 0.442180 0.241618 0.665815
Si Si2 0.592430 0.599724 0.864188
Si Si3 0.909759 0.744731 0.330781
Si Si4 0.939738 0.886099 0.624243
Si Si5 0.945090 0.333881 0.001974
Si Si6 0.328704 0.577701 0.988460
Si Si7 0.000000 0.992963 0.750000
Si Si8 0.700115 0.927966 0.503217
O O1 0.500000 0.207304 0.750000
O O2 0.268372 0.257331 0.675485
O O3 0.525969 0.313121 0.659056
O O4 0.484513 0.204160 0.580523
O O5 0.557679 0.675428 0.838255
O O6 0.607706 0.544752 0.794201
O O7 0.455797 0.576010 0.920348
O O8 0.740154 0.596278 0.915947
O O9 0.000000 0.719577 0.250000
O O10 0.949148 0.709052 0.417589
O O11 0.081362 0.911170 0.572312
O O12 0.800712 0.885516 0.565506
O O13 0.913601 0.942597 0.691609
O O14 0.035897 0.402930 0.986504
O O15 0.780301 0.358995 0.021678
O O16 0.243340 0.506408 0.987588
#
# Coordination Sequence:
#
# PCOD9458229 Si02
#       8
#     8   8   8   8   8   8   4   8
#     4  12  28  45  69 103 138 181 228 283 344 410
#     4  11  22  40  71  94 129 175 231 274 330 406
#     4  12  28  45  69 103 138 181 228 283 344 410
#     4  11  22  40  71  94 129 175 231 274 330 406
#     4  12  27  44  68  99 144 178 222 286 346 409
#     4  11  22  43  67  97 129 179 224 276 339 403
#     4  12  20  38  68 102 124 166 230 290 314 396
#     4  11  22  43  67  97 129 179 224 276 339 403
#
# _framework density 20.409483000000002
#
# number of rings (size 3 to 8) (size 9 to 14) (size 15 to 20)
#    0.000    0.533    6.667    2.800    3.733    0.000 
#    0.000    0.000    0.000    3.200    0.000    0.000 
#    0.000    0.000    0.000    0.000    0.000    0.000 
#
# Total GULP energy -334982.154081 kJ/mol
# GULP energy per Si atom -5583.035901 kJ/mol
# Density = 2.036303 g / cm^3
# Si number density = 20.409483 Si / 1000 Ang^3
#
#
#
# Elastic Constant Matrix: (Units=GPa)
#
#
# Indices 1 2 3 4 5 6 
#
# 1 80.4196 10.6194 34.1153 0.0000 0.0000 0.0000
# 2 10.6194 81.3962 24.8037 0.0000 0.0000 0.0000
# 3 34.1153 24.8037 108.1041 0.0000 0.0000 0.0000
# 4 0.0000 0.0000 0.0000 99.4400 0.0000 0.0000
# 5 0.0000 0.0000 0.0000 0.0000 -5.5025 0.0000
# 6 0.0000 0.0000 0.0000 0.0000 0.0000 28.1257
#
#
#
# Elastic Compliance Matrix: (Units=1/GPa)
#
#
# Indices 1 2 3 4 5 6 
#
# 1 0.014378 -0.000530 -0.004416 0.000000 0.000000 0.000000
# 2 -0.000530 0.013229 -0.002868 0.000000 0.000000 0.000000
# 3 -0.004416 -0.002868 0.011302 0.000000 0.000000 0.000000
# 4 0.000000 0.000000 0.000000 0.010056 0.000000 0.000000
# 5 0.000000 0.000000 0.000000 0.000000 -0.181737 0.000000
# 6 0.000000 0.000000 0.000000 0.000000 0.000000 0.035555
#
#
# Mechanical properties :
#
#
# Convention : Reuss Voigt Hill
#
# Bulk Modulus (GPa) = 42.95375 45.44408 44.19892
# Shear Modulus (GPa) = -67.72404 37.77140 -14.97632
#
# Velocity S-wave (km/s) = -5.76669 4.30662 -2.71180
# Velocity P-wave (km/s) = 4.82161 6.85885 3.44934
#
# Compressibility (1/GPa) = 0.02328085
#
# Stress axis : x y z
#
# Youngs Moduli (GPa) = 69.55060 75.59320 88.48091
#
# Poissons Ratio (x) = 0.04008 0.39071
# Poissons Ratio (y) = 0.03688 0.25375
# Poissons Ratio (z) = 0.30712 0.21679
#
# Static dielectric constant tensor:
#      x y z
#    x 1.433540 0.000000 0.000000 
#    y 0.000000 1.720650 0.000000 
#    z 0.000000 0.000000 1.816600 
# 
# From -- ./inp_files/19568.got.cif
#   From: 2010.05.17/outbox.cif.g08.bks.cpg/sg60_10_cif.got.tgz:19568.got - 2010.06.03 14:59:27.
