data_PCOD9458345
_publ_section_title
;
Structure prediction by ZEFSAII (Michael W. Deem and Ramdas Pophale) SiO2 
 PCOD9458345
Probable space group: P B C N
;
_chemical_formula_sum "Si O2"
_cell_formula_units_Z 48
_cell_length_a 5.277769
_cell_length_b 14.427229
_cell_length_c 27.533900
_cell_angle_alpha 90.000000
_cell_angle_beta 90.000000
_cell_angle_gamma 90.000000
_cell_volume 2096.529772
_symmetry_space_group_name_H-M "P B C N"
_symmetry_group_IT_number 60
_symmetry_cell_setting 'orthorhombic'
loop_
_space_group_symop_operation_xyz
x,y,z
1/2-x,1/2-y,1/2+z
1/2+x,1/2-y,-z
-x,y,1/2-z
-x,-y,-z
1/2+x,1/2+y,1/2-z
1/2-x,1/2+y,z
x,-y,1/2+z
loop_
_atom_site_type_symbol
_atom_site_label
_atom_site_fract_x
_atom_site_fract_y
_atom_site_fract_z
Si Si1 0.067183 0.231414 0.970539
Si Si2 0.741379 0.131002 0.848582
Si Si3 0.837572 0.459116 0.796477
Si Si4 0.485136 0.701522 0.194542
Si Si5 0.860854 0.367654 0.616935
Si Si6 0.235984 0.070663 0.905274
O O1 0.036252 0.300280 0.924554
O O2 0.159582 0.130261 0.952440
O O3 0.299173 0.270975 0.002396
O O4 0.727569 0.236265 0.831273
O O5 0.510932 0.107667 0.886150
O O6 0.011819 0.099108 0.868182
O O7 0.683609 0.067859 0.801668
O O8 0.574371 0.406575 0.798040
O O9 0.000000 0.430055 0.750000
O O10 0.956947 0.421397 0.846178
O O11 0.500000 0.737083 0.250000
O O12 0.700033 0.696878 0.153742
O O13 0.730547 0.458407 0.591487
#
# Coordination Sequence:
#
# PCOD9458345 Si02
#       6
#     8   8   8   8   8   8
#     4  12  28  47  74 104 137 180 239 304 355 422
#     4  11  24  41  71 101 144 184 226 280 336 415
#     4  11  23  42  66 104 143 186 233 284 338 418
#     4  12  23  41  67 103 139 192 232 276 341 417
#     4  11  25  45  70  99 142 187 228 290 353 421
#     4  11  24  46  73 102 135 182 228 284 360 410
#
# _framework density 22.894977999999998
#
# number of rings (size 3 to 8) (size 9 to 14) (size 15 to 20)
#    0.000    0.667    5.000    2.500    2.333    1.333 
#    0.000    2.500    0.000    0.000    0.000    0.000 
#    0.000    0.000    0.000    0.000    0.000    0.000 
#
# Total GULP energy -267790.055236 kJ/mol
# GULP energy per Si atom -5578.959484 kJ/mol
# Density = 2.284287 g / cm^3
# Si number density = 22.894978 Si / 1000 Ang^3
#
#
#
# Elastic Constant Matrix: (Units=GPa)
#
#
# Indices 1 2 3 4 5 6 
#
# 1 46.5535 0.7679 13.0498 0.0000 0.0000 0.0000
# 2 0.7679 90.9049 18.4419 0.0000 0.0000 0.0000
# 3 13.0498 18.4419 100.7974 0.0000 0.0000 0.0000
# 4 0.0000 0.0000 0.0000 31.1561 0.0000 0.0000
# 5 0.0000 0.0000 0.0000 0.0000 36.4971 0.0000
# 6 0.0000 0.0000 0.0000 0.0000 0.0000 53.4972
#
#
#
# Elastic Compliance Matrix: (Units=1/GPa)
#
#
# Indices 1 2 3 4 5 6 
#
# 1 0.022304 0.000413 -0.002963 0.000000 0.000000 0.000000
# 2 0.000413 0.011432 -0.002145 0.000000 0.000000 0.000000
# 3 -0.002963 -0.002145 0.010697 0.000000 0.000000 0.000000
# 4 0.000000 0.000000 0.000000 0.032096 0.000000 0.000000
# 5 0.000000 0.000000 0.000000 0.000000 0.027399 0.000000
# 6 0.000000 0.000000 0.000000 0.000000 0.000000 0.018693
#
#
# Mechanical properties :
#
#
# Convention : Reuss Voigt Hill
#
# Bulk Modulus (GPa) = 28.53668 33.64168 31.08918
# Shear Modulus (GPa) = 34.79616 37.96316 36.37966
#
# Velocity S-wave (km/s) = 3.90271 4.07645 3.99053
# Velocity P-wave (km/s) = 5.72708 6.07309 5.90262
#
# Compressibility (1/GPa) = 0.03504262
#
# Stress axis : x y z
#
# Youngs Moduli (GPa) = 44.83403 87.47233 93.48427
#
# Poissons Ratio (x) = -0.03610 0.27701
# Poissons Ratio (y) = -0.01850 0.20053
# Poissons Ratio (z) = 0.13285 0.18763
#
# Static dielectric constant tensor:
#      x y z
#    x 1.911710 0.000000 0.000000 
#    y 0.000000 1.850150 0.000000 
#    z 0.000000 0.000000 2.015950 
# 
# From -- ./inp_files/24872.got.cif
#   From: 2010.05.17/outbox.cif.g08.bks.cpg/sg60_13_cif.got.tgz:24872.got - 2010.06.03 14:59:27.
