data_PCOD9458311
_publ_section_title
;
Structure prediction by ZEFSAII (Michael W. Deem and Ramdas Pophale) SiO2 
 PCOD9458311
Probable space group: P B C N
;
_chemical_formula_sum "Si O2"
_cell_formula_units_Z 36
_cell_length_a 24.637837
_cell_length_b 7.424330
_cell_length_c 7.476858
_cell_angle_alpha 90.000000
_cell_angle_beta 90.000000
_cell_angle_gamma 90.000000
_cell_volume 1367.662621
_symmetry_space_group_name_H-M "P B C N"
_symmetry_group_IT_number 60
_symmetry_cell_setting 'orthorhombic'
loop_
_space_group_symop_operation_xyz
x,y,z
1/2-x,1/2-y,1/2+z
1/2+x,1/2-y,-z
-x,y,1/2-z
-x,-y,-z
1/2+x,1/2+y,1/2-z
1/2-x,1/2+y,z
x,-y,1/2+z
loop_
_atom_site_type_symbol
_atom_site_label
_atom_site_fract_x
_atom_site_fract_y
_atom_site_fract_z
Si Si1 0.692974 0.548783 0.547427
Si Si2 0.080125 0.208369 0.025630
Si Si3 0.197421 0.304303 0.604819
Si Si4 0.500000 0.706720 0.750000
Si Si5 0.586376 0.023391 0.293060
O O1 0.635689 0.602959 0.459843
O O2 0.689746 0.333055 0.560649
O O3 0.746975 0.593824 0.434608
O O4 0.697402 0.672497 0.723055
O O5 0.087584 0.393489 0.909108
O O6 0.038127 0.108173 0.894207
O O7 0.068040 0.315259 0.206087
O O8 0.147601 0.436293 0.641226
O O9 0.459853 0.837406 0.638285
#
# Coordination Sequence:
#
# PCOD9458311 Si02
#       5
#     8   8   8   4   8
#     4  11  23  39  59  85 118 151 189 237 290 346
#     4   9  19  34  59  83 112 148 187 234 279 332
#     4  11  23  39  59  85 118 151 189 237 290 346
#     4   8  18  36  60  78 120 140 200 224 286 320
#     4   9  19  34  59  83 112 148 187 234 279 332
#
# _framework density 26.322279999999999
#
# number of rings (size 3 to 8) (size 9 to 14) (size 15 to 20)
#    1.333    0.889    0.000    3.333    0.000    7.111 
#    0.000    1.111    0.000    0.000    0.000    0.000 
#    0.000    0.000    0.000    0.000    0.000    0.000 
#
# Total GULP energy -200636.898922 kJ/mol
# GULP energy per Si atom -5573.247192 kJ/mol
# Density = 2.626237 g / cm^3
# Si number density = 26.322280 Si / 1000 Ang^3
#
#
#
# Elastic Constant Matrix: (Units=GPa)
#
#
# Indices 1 2 3 4 5 6 
#
# 1 151.7341 20.0277 26.7050 0.0000 0.0000 0.0000
# 2 20.0277 54.3995 5.5438 0.0000 0.0000 0.0000
# 3 26.7050 5.5438 41.7941 0.0000 0.0000 0.0000
# 4 0.0000 0.0000 0.0000 -2.3331 0.0000 0.0000
# 5 0.0000 0.0000 0.0000 0.0000 43.2723 0.0000
# 6 0.0000 0.0000 0.0000 0.0000 0.0000 -7.6323
#
#
#
# Elastic Compliance Matrix: (Units=1/GPa)
#
#
# Indices 1 2 3 4 5 6 
#
# 1 0.007716 -0.002370 -0.004616 0.000000 0.000000 0.000000
# 2 -0.002370 0.019363 -0.001054 0.000000 0.000000 0.000000
# 3 -0.004616 -0.001054 0.027016 0.000000 0.000000 0.000000
# 4 0.000000 0.000000 0.000000 -0.428611 0.000000 0.000000
# 5 0.000000 0.000000 0.000000 0.000000 0.023109 0.000000
# 6 0.000000 0.000000 0.000000 0.000000 0.000000 -0.131022
#
#
# Mechanical properties :
#
#
# Convention : Reuss Voigt Hill
#
# Bulk Modulus (GPa) = 26.30566 39.16451 32.73509
# Shear Modulus (GPa) = -11.02101 19.70479 4.34189
#
# Velocity S-wave (km/s) = -2.04842 2.73902 1.28573
# Velocity P-wave (km/s) = 2.10254 4.99140 3.82980
#
# Compressibility (1/GPa) = 0.03801463
#
# Stress axis : x y z
#
# Youngs Moduli (GPa) = 129.60632 51.64608 37.01527
#
# Poissons Ratio (x) = 0.12241 0.17085
# Poissons Ratio (y) = 0.30720 0.03901
# Poissons Ratio (z) = 0.59822 0.05443
#
# Static dielectric constant tensor:
#      x y z
#    x 2.020940 0.000000 0.000000 
#    y 0.000000 3.388930 0.000000 
#    z 0.000000 0.000000 2.314220 
# 
# From -- ./inp_files/8326.got.cif
#   From: 2010.05.17/outbox.cif.g08.bks.cpg/sg60_5_cif.got.tgz:8326.got - 2010.06.03 14:59:27.
