data_PCOD9458118
_publ_section_title
;
Structure prediction by ZEFSAII (Michael W. Deem and Ramdas Pophale) SiO2 
 PCOD9458118
Probable space group: P B C N
;
_chemical_formula_sum "Si O2"
_cell_formula_units_Z 52
_cell_length_a 17.888310
_cell_length_b 26.319019
_cell_length_c 5.556619
_cell_angle_alpha 90.000000
_cell_angle_beta 90.000000
_cell_angle_gamma 90.000000
_cell_volume 2616.071621
_symmetry_space_group_name_H-M "P B C N"
_symmetry_group_IT_number 60
_symmetry_cell_setting 'orthorhombic'
loop_
_space_group_symop_operation_xyz
x,y,z
1/2-x,1/2-y,1/2+z
1/2+x,1/2-y,-z
-x,y,1/2-z
-x,-y,-z
1/2+x,1/2+y,1/2-z
1/2-x,1/2+y,z
x,-y,1/2+z
loop_
_atom_site_type_symbol
_atom_site_label
_atom_site_fract_x
_atom_site_fract_y
_atom_site_fract_z
Si Si1 0.775902 0.617659 0.087731
Si Si2 0.779043 0.705149 0.727755
Si Si3 0.500000 0.229424 0.250000
Si Si4 0.348229 0.969689 0.145626
Si Si5 0.500000 0.088165 0.750000
Si Si6 0.500000 0.710101 0.250000
Si Si7 0.896815 0.350493 0.890153
Si Si8 0.166197 0.817242 0.643907
O O1 0.846827 0.607892 0.258971
O O2 0.703740 0.632049 0.244949
O O3 0.790573 0.671487 0.961329
O O4 0.784394 0.573838 0.891057
O O5 0.837981 0.681061 0.545159
O O6 0.696079 0.691217 0.629027
O O7 0.799592 0.764154 0.749432
O O8 0.512336 0.258828 0.500124
O O9 0.568259 0.190964 0.213929
O O10 0.431676 0.945119 0.147119
O O11 0.340335 0.995342 0.407965
O O12 0.539737 0.123394 0.550206
O O13 0.421872 0.682101 0.192540
#
# Coordination Sequence:
#
# PCOD9458118 Si02
#       8
#     8   8   4   8   4   4   8   8
#     4  11  24  43  62  89 126 174 227 277 326 399
#     4  11  21  39  61  90 126 180 219 259 321 401
#     4  12  24  36  55  88 136 176 222 259 310 380
#     4  12  27  46  67  94 131 176 230 287 340 386
#     4  12  23  44  63  98 132 180 226 287 327 386
#     4  12  27  40  58  96 132 174 216 278 323 384
#     4  11  23  37  59  89 135 180 229 265 320 380
#     4  11  24  38  65  91 132 173 219 268 329 400
#
# _framework density 19.877132
#
# number of rings (size 3 to 8) (size 9 to 14) (size 15 to 20)
#    0.000    0.615    4.615    3.692    6.462    1.231 
#    0.000    0.000    0.000    0.000    0.000    1.077 
#    0.000    0.000    0.000    0.000    0.000    0.000 
#
# Total GULP energy -290016.776183 kJ/mol
# GULP energy per Si atom -5577.245696 kJ/mol
# Density = 1.983189 g / cm^3
# Si number density = 19.877132 Si / 1000 Ang^3
#
#
#
# Elastic Constant Matrix: (Units=GPa)
#
#
# Indices 1 2 3 4 5 6 
#
# 1 112.6245 24.1965 28.6603 0.0000 0.0000 0.0000
# 2 24.1965 68.1074 29.6708 0.0000 0.0000 0.0000
# 3 28.6603 29.6708 81.0113 0.0000 0.0000 0.0000
# 4 0.0000 0.0000 0.0000 6.3397 0.0000 0.0000
# 5 0.0000 0.0000 0.0000 0.0000 34.4873 0.0000
# 6 0.0000 0.0000 0.0000 0.0000 0.0000 14.5397
#
#
#
# Elastic Compliance Matrix: (Units=1/GPa)
#
#
# Indices 1 2 3 4 5 6 
#
# 1 0.010080 -0.002412 -0.002683 0.000000 0.000000 0.000000
# 2 -0.002412 0.018048 -0.005757 0.000000 0.000000 0.000000
# 3 -0.002683 -0.005757 0.015401 0.000000 0.000000 0.000000
# 4 0.000000 0.000000 0.000000 0.157737 0.000000 0.000000
# 5 0.000000 0.000000 0.000000 0.000000 0.028996 0.000000
# 6 0.000000 0.000000 0.000000 0.000000 0.000000 0.068777
#
#
# Mechanical properties :
#
#
# Convention : Reuss Voigt Hill
#
# Bulk Modulus (GPa) = 45.81723 47.42204 46.61963
# Shear Modulus (GPa) = 15.24310 23.02105 19.13207
#
# Velocity S-wave (km/s) = 2.77224 3.40688 3.10581
# Velocity P-wave (km/s) = 5.77472 6.27576 6.03044
#
# Compressibility (1/GPa) = 0.02182585
#
# Stress axis : x y z
#
# Youngs Moduli (GPa) = 99.20625 55.40908 64.92944
#
# Poissons Ratio (x) = 0.13367 0.17418
# Poissons Ratio (y) = 0.23933 0.37377
# Poissons Ratio (z) = 0.26612 0.31896
#
# Static dielectric constant tensor:
#      x y z
#    x 1.990430 0.000000 0.000000 
#    y 0.000000 1.731620 0.000000 
#    z 0.000000 0.000000 1.864860 
# 
# From -- ./inp_files/1837.got.cif
#   From: 2010.05.17/outbox.cif.g08.bks.cpg/sg60_1_cif.got.tgz:1837.got - 2010.06.03 14:59:27.
