data_PCOD9458012
_publ_section_title
;
Structure prediction by ZEFSAII (Michael W. Deem and Ramdas Pophale) SiO2 
 PCOD9458012
Probable space group: P B C N
;
_chemical_formula_sum "Si O2"
_cell_formula_units_Z 48
_cell_length_a 5.233884
_cell_length_b 26.270695
_cell_length_c 15.201022
_cell_angle_alpha 90.000000
_cell_angle_beta 90.000000
_cell_angle_gamma 90.000000
_cell_volume 2090.106630
_symmetry_space_group_name_H-M "P B C N"
_symmetry_group_IT_number 60
_symmetry_cell_setting 'orthorhombic'
loop_
_space_group_symop_operation_xyz
x,y,z
1/2-x,1/2-y,1/2+z
1/2+x,1/2-y,-z
-x,y,1/2-z
-x,-y,-z
1/2+x,1/2+y,1/2-z
1/2-x,1/2+y,z
x,-y,1/2+z
loop_
_atom_site_type_symbol
_atom_site_label
_atom_site_fract_x
_atom_site_fract_y
_atom_site_fract_z
Si Si1 0.000000 0.576476 0.750000
Si Si2 0.526182 0.889812 0.431836
Si Si3 0.966536 0.078206 0.470945
Si Si4 0.832740 0.004874 0.327384
Si Si5 0.500000 0.092126 0.250000
Si Si6 0.911412 0.278467 0.518428
Si Si7 0.639920 0.663411 0.157425
O O1 0.065925 0.614697 0.830047
O O2 0.896760 0.534807 0.822993
O O3 0.305370 0.920706 0.482101
O O4 0.546408 0.832609 0.471060
O O5 0.801939 0.914168 0.460396
O O6 0.981103 0.026853 0.411115
O O7 0.976567 0.128703 0.409185
O O8 0.718910 0.056261 0.286640
O O9 0.000000 0.979776 0.250000
O O10 0.379933 0.126721 0.323764
O O11 0.689834 0.246450 0.468304
O O12 0.761286 0.288571 0.609883
O O13 0.500000 0.672325 0.250000
#
# Coordination Sequence:
#
# PCOD9458012 Si02
#       7
#     4   8   8   8   4   8   8
#     4  11  30  46  64  98 148 200 232 274 346 423
#     4  11  27  48  73  95 141 188 235 289 356 421
#     4  11  22  43  73 105 134 184 231 293 344 391
#     4  11  22  39  67 102 146 181 234 285 326 409
#     4  11  18  36  66 106 136 176 220 286 340 393
#     4  11  25  47  71 100 134 173 228 294 353 421
#     4  11  22  37  73 104 138 171 221 289 366 410
#
# _framework density 22.965335
#
# number of rings (size 3 to 8) (size 9 to 14) (size 15 to 20)
#    0.000    1.000    3.333    4.000    7.000    1.333 
#    1.500    0.000    3.667    0.000    0.000    0.000 
#    0.000    0.000    0.000    0.000    0.000    0.000 
#
# Total GULP energy -267369.734025 kJ/mol
# GULP energy per Si atom -5570.202792 kJ/mol
# Density = 2.291306 g / cm^3
# Si number density = 22.965335 Si / 1000 Ang^3
#
#
#
# Elastic Constant Matrix: (Units=GPa)
#
#
# Indices 1 2 3 4 5 6 
#
# 1 89.8424 15.0801 13.9130 0.0000 0.0000 0.0000
# 2 15.0801 53.0500 16.2863 0.0000 0.0000 0.0000
# 3 13.9130 16.2863 117.2880 0.0000 0.0000 0.0000
# 4 0.0000 0.0000 0.0000 20.7892 0.0000 0.0000
# 5 0.0000 0.0000 0.0000 0.0000 23.4187 0.0000
# 6 0.0000 0.0000 0.0000 0.0000 0.0000 -232.1536
#
#
#
# Elastic Compliance Matrix: (Units=1/GPa)
#
#
# Indices 1 2 3 4 5 6 
#
# 1 0.011794 -0.003053 -0.000975 0.000000 0.000000 0.000000
# 2 -0.003053 0.020480 -0.002482 0.000000 0.000000 0.000000
# 3 -0.000975 -0.002482 0.008986 0.000000 0.000000 0.000000
# 4 0.000000 0.000000 0.000000 0.048102 0.000000 0.000000
# 5 0.000000 0.000000 0.000000 0.000000 0.042701 0.000000
# 6 0.000000 0.000000 0.000000 0.000000 0.000000 -0.004307
#
#
# Mechanical properties :
#
#
# Convention : Reuss Voigt Hill
#
# Bulk Modulus (GPa) = 35.41027 38.97103 37.19065
# Shear Modulus (GPa) = 33.29138 -23.26242 5.01448
#
# Velocity S-wave (km/s) = 3.81154 -3.18612 1.47927
# Velocity P-wave (km/s) = 5.90110 1.86312 4.37574
#
# Compressibility (1/GPa) = 0.02824039
#
# Stress axis : x y z
#
# Youngs Moduli (GPa) = 84.78814 48.82829 111.28075
#
# Poissons Ratio (x) = 0.14909 0.10851
# Poissons Ratio (y) = 0.25888 0.27616
# Poissons Ratio (z) = 0.08267 0.12117
#
# Static dielectric constant tensor:
#      x y z
#    x 2.088250 0.000000 0.000000 
#    y 0.000000 1.874460 0.000000 
#    z 0.000000 0.000000 1.930100 
# 
# From -- ./inp_files/13955.got.cif
#   From: 2010.05.17/outbox.cif.g08.bks.cpg/sg60_7_cif.got.tgz:13955.got - 2010.06.03 14:59:27.
