data_PCOD9458291
_publ_section_title
;
Structure prediction by ZEFSAII (Michael W. Deem and Ramdas Pophale) SiO2 
 PCOD9458291
Probable space group: P B C N
;
_chemical_formula_sum "Si O2"
_cell_formula_units_Z 44
_cell_length_a 15.607302
_cell_length_b 9.311584
_cell_length_c 13.372888
_cell_angle_alpha 90.000000
_cell_angle_beta 90.000000
_cell_angle_gamma 90.000000
_cell_volume 1943.464476
_symmetry_space_group_name_H-M "P B C N"
_symmetry_group_IT_number 60
_symmetry_cell_setting 'orthorhombic'
loop_
_space_group_symop_operation_xyz
x,y,z
1/2-x,1/2-y,1/2+z
1/2+x,1/2-y,-z
-x,y,1/2-z
-x,-y,-z
1/2+x,1/2+y,1/2-z
1/2-x,1/2+y,z
x,-y,1/2+z
loop_
_atom_site_type_symbol
_atom_site_label
_atom_site_fract_x
_atom_site_fract_y
_atom_site_fract_z
Si Si1 0.500000 0.293767 0.250000
Si Si2 0.643808 0.904982 0.649601
Si Si3 0.089056 0.340746 0.482935
Si Si4 0.895690 0.271630 0.459775
Si Si5 0.697394 0.990187 0.349496
Si Si6 0.110993 0.056112 0.576803
O O1 0.432430 0.189003 0.303362
O O2 0.450422 0.386269 0.165833
O O3 0.668224 0.815630 0.550370
O O4 0.617590 0.062137 0.609425
O O5 0.704971 0.936818 0.741848
O O6 0.141431 0.406031 0.577611
O O7 0.108346 0.171954 0.487806
O O8 0.985831 0.346877 0.485571
O O9 0.856282 0.341588 0.359952
O O10 0.912161 0.104107 0.455391
O O11 0.791776 0.957903 0.386750
#
# Coordination Sequence:
#
# PCOD9458291 Si02
#       6
#     4   8   8   8   8   8
#     4  12  24  44  78  98 148 198 238 296 364 444
#     4  11  22  45  76  96 135 201 244 278 358 450
#     4  11  23  45  75 103 142 192 241 299 362 440
#     4  11  24  44  73 107 141 191 240 306 365 431
#     4  11  24  48  70 102 144 192 247 299 351 437
#     4  12  26  46  68 111 154 182 237 321 360 407
#
# _framework density 22.639980999999999
#
# number of rings (size 3 to 8) (size 9 to 14) (size 15 to 20)
#    0.000    0.727    3.636    4.909    0.000    1.455 
#   13.091    1.818    0.000    0.000    0.000    0.000 
#    0.000    0.000    0.000    0.000    0.000    0.000 
#
# Total GULP energy -245848.909673 kJ/mol
# GULP energy per Si atom -5587.475220 kJ/mol
# Density = 2.258845 g / cm^3
# Si number density = 22.639981 Si / 1000 Ang^3
#
#
#
# Elastic Constant Matrix: (Units=GPa)
#
#
# Indices 1 2 3 4 5 6 
#
# 1 98.2224 28.6759 22.3112 0.0000 0.0000 0.0000
# 2 28.6759 176.2129 32.0883 0.0000 0.0000 0.0000
# 3 22.3112 32.0883 82.7537 0.0000 0.0000 0.0000
# 4 0.0000 0.0000 0.0000 35.7194 0.0000 0.0000
# 5 0.0000 0.0000 0.0000 0.0000 20.3347 0.0000
# 6 0.0000 0.0000 0.0000 0.0000 0.0000 23.2332
#
#
#
# Elastic Compliance Matrix: (Units=1/GPa)
#
#
# Indices 1 2 3 4 5 6 
#
# 1 0.011141 -0.001362 -0.002476 0.000000 0.000000 0.000000
# 2 -0.001362 0.006273 -0.002065 0.000000 0.000000 0.000000
# 3 -0.002476 -0.002065 0.013552 0.000000 0.000000 0.000000
# 4 0.000000 0.000000 0.000000 0.027996 0.000000 0.000000
# 5 0.000000 0.000000 0.000000 0.000000 0.049177 0.000000
# 6 0.000000 0.000000 0.000000 0.000000 0.000000 0.043042
#
#
# Mechanical properties :
#
#
# Convention : Reuss Voigt Hill
#
# Bulk Modulus (GPa) = 52.19104 58.14886 55.16995
# Shear Modulus (GPa) = 29.52062 34.13169 31.82616
#
# Velocity S-wave (km/s) = 3.61489 3.88698 3.75340
# Velocity P-wave (km/s) = 6.36600 6.77382 6.57307
#
# Compressibility (1/GPa) = 0.01916038
#
# Stress axis : x y z
#
# Youngs Moduli (GPa) = 89.75859 159.42176 73.78879
#
# Poissons Ratio (x) = 0.21717 0.18267
# Poissons Ratio (y) = 0.12227 0.15237
# Poissons Ratio (z) = 0.22220 0.32921
#
# Static dielectric constant tensor:
#      x y z
#    x 1.838420 0.000000 0.000000 
#    y 0.000000 1.875950 0.000000 
#    z 0.000000 0.000000 1.884750 
# 
# From -- ./inp_files/17283.got.cif
#   From: 2010.05.17/outbox.cif.g08.bks.cpg/sg60_9_cif.got.tgz:17283.got - 2010.06.03 14:59:27.
