data_PCOD9458957
_publ_section_title
;
Structure prediction by ZEFSAII (Michael W. Deem and Ramdas Pophale) SiO2 
 PCOD9458957
Probable space group: P B C N
;
_chemical_formula_sum "Si O2"
_cell_formula_units_Z 60
_cell_length_a 9.000000
_cell_length_b 27.000000
_cell_length_c 12.000000
_cell_angle_alpha 90.000000
_cell_angle_beta 90.000000
_cell_angle_gamma 90.000000
_cell_volume 2916.000000
_symmetry_space_group_name_H-M "P B C N"
_symmetry_group_IT_number 60
_symmetry_cell_setting 'orthorhombic'
loop_
_space_group_symop_operation_xyz
x,y,z
1/2-x,1/2-y,1/2+z
1/2+x,1/2-y,-z
-x,y,1/2-z
-x,-y,-z
1/2+x,1/2+y,1/2-z
1/2-x,1/2+y,z
x,-y,1/2+z
loop_
_atom_site_type_symbol
_atom_site_label
_atom_site_fract_x
_atom_site_fract_y
_atom_site_fract_z
Si Si1 0.670369 0.963386 0.299461
Si Si2 0.829288 0.349208 0.745245
Si Si3 0.541851 0.625445 0.523530
Si Si4 0.353596 0.441358 0.679162
Si Si5 0.213391 0.198461 0.473919
Si Si6 0.077314 0.356911 0.128747
Si Si7 0.182288 0.313450 0.507584
Si Si8 0.500000 0.571867 0.750000
O O1 0.500000 0.971919 0.250000
O O2 0.638804 0.913260 0.370690
O O3 0.827426 0.949980 0.233002
O O4 0.733549 0.015399 0.347131
O O5 0.725657 0.397815 0.749920
O O6 0.805904 0.314965 0.637166
O O7 0.797660 0.319898 0.859980
O O8 0.000000 0.365440 0.750000
O O9 0.592689 0.583568 0.435979
O O10 0.424435 0.661477 0.466181
O O11 0.677308 0.661743 0.551666
O O12 0.481258 0.601587 0.635698
O O13 0.500000 0.458104 0.750000
O O14 0.298514 0.182010 0.587403
O O15 0.168277 0.255773 0.478248
O O16 0.000000 0.348612 0.250000
O O17 0.952185 0.346956 0.036399
#
# Coordination Sequence:
#
# PCOD9458957 Si02
#       8
#     8   8   8   8   8   8   8   4
#     4  11  24  46  75 105 143 191 242 305 373 432
#     4  11  24  45  68 101 146 179 245 303 358 449
#     4  11  25  43  68 101 142 186 235 304 361 436
#     4  11  23  46  71 103 141 188 239 300 375 443
#     4  12  24  44  70 103 142 194 234 303 370 428
#     4  11  24  46  69 102 145 185 244 305 356 434
#     4  11  26  43  68 103 139 190 247 290 370 439
#     4  12  24  46  72 102 146 180 244 298 358 444
#
# _framework density 20.576132000000001
#
# number of rings (size 3 to 8) (size 9 to 14) (size 15 to 20)
#    0.000    0.800    4.667    2.800    1.867    0.533 
#    2.400    3.333    0.000    0.000    0.000    0.000 
#    0.000    0.000    0.000    0.000    0.000    0.000 
#
# Total GULP energy -334285.239669 kJ/mol
# GULP energy per Si atom -5571.420661 kJ/mol
# Density = 2.052930 g / cm^3
# Si number density = 20.576132 Si / 1000 Ang^3
#
#
#
# Elastic Constant Matrix: (Units=GPa)
#
#
# Indices 1 2 3 4 5 6 
#
# 1 133.0563 48.7987 18.9033 0.0000 0.0000 0.0000
# 2 48.7987 121.0188 49.5757 0.0000 0.0000 0.0000
# 3 18.9033 49.5757 67.0639 0.0000 0.0000 0.0000
# 4 0.0000 0.0000 0.0000 21.2299 0.0000 0.0000
# 5 0.0000 0.0000 0.0000 0.0000 37.0745 0.0000
# 6 0.0000 0.0000 0.0000 0.0000 0.0000 -180.2398
#
#
#
# Elastic Compliance Matrix: (Units=1/GPa)
#
#
# Indices 1 2 3 4 5 6 
#
# 1 0.008822 -0.003641 0.000205 0.000000 0.000000 0.000000
# 2 -0.003641 0.013355 -0.008846 0.000000 0.000000 0.000000
# 3 0.000205 -0.008846 0.021393 0.000000 0.000000 0.000000
# 4 0.000000 0.000000 0.000000 0.047103 0.000000 0.000000
# 5 0.000000 0.000000 0.000000 0.000000 0.026973 0.000000
# 6 0.000000 0.000000 0.000000 0.000000 0.000000 -0.005548
#
#
# Mechanical properties :
#
#
# Convention : Reuss Voigt Hill
#
# Bulk Modulus (GPa) = 52.61747 61.74381 57.18064
# Shear Modulus (GPa) = 34.96550 -10.79631 12.08460
#
# Velocity S-wave (km/s) = 4.12676 -2.29312 2.42608
# Velocity P-wave (km/s) = 6.95230 4.80223 5.97478
#
# Compressibility (1/GPa) = 0.01900510
#
# Stress axis : x y z
#
# Youngs Moduli (GPa) = 113.35388 74.87608 46.74472
#
# Poissons Ratio (x) = 0.27265 -0.00959
# Poissons Ratio (y) = 0.41276 0.41352
# Poissons Ratio (z) = -0.02325 0.66238
#
# Static dielectric constant tensor:
#      x y z
#    x 1.851240 0.000000 0.000000 
#    y 0.000000 1.730340 0.000000 
#    z 0.000000 0.000000 1.668290 
# 
# From -- ./inp_files/10289.got.cif
#   From: 2010.05.17/outbox.ucp.g08.bks.cvg/sg60_6_cif.got.tgz:10289.got - 2010.06.11 16:26:41.
