data_PCOD9458252
_publ_section_title
;
Structure prediction by ZEFSAII (Michael W. Deem and Ramdas Pophale) SiO2 
 PCOD9458252
Probable space group: P B C N
;
_chemical_formula_sum "Si O2"
_cell_formula_units_Z 48
_cell_length_a 7.287811
_cell_length_b 14.574382
_cell_length_c 17.239824
_cell_angle_alpha 90.000000
_cell_angle_beta 90.000000
_cell_angle_gamma 90.000000
_cell_volume 1831.133793
_symmetry_space_group_name_H-M "P B C N"
_symmetry_group_IT_number 60
_symmetry_cell_setting 'orthorhombic'
loop_
_space_group_symop_operation_xyz
x,y,z
1/2-x,1/2-y,1/2+z
1/2+x,1/2-y,-z
-x,y,1/2-z
-x,-y,-z
1/2+x,1/2+y,1/2-z
1/2-x,1/2+y,z
x,-y,1/2+z
loop_
_atom_site_type_symbol
_atom_site_label
_atom_site_fract_x
_atom_site_fract_y
_atom_site_fract_z
Si Si1 0.751270 0.445283 0.956350
Si Si2 0.760707 0.803505 0.372546
Si Si3 0.777281 0.569237 0.735019
Si Si4 0.820700 0.389686 0.796142
Si Si5 0.649732 0.378039 0.531315
Si Si6 0.166494 0.689229 0.910410
O O1 0.855216 0.447172 0.875296
O O2 0.534769 0.427515 0.938611
O O3 0.776767 0.537117 0.006345
O O4 0.797298 0.358607 0.008192
O O5 0.809092 0.876640 0.306743
O O6 0.750350 0.705435 0.330162
O O7 0.882760 0.825136 0.448523
O O8 0.551914 0.814564 0.400073
O O9 0.719468 0.462702 0.740105
O O10 0.747978 0.627497 0.657477
O O11 0.000000 0.569397 0.750000
O O12 0.000000 0.363673 0.750000
O O13 0.719474 0.297042 0.586949
#
# Coordination Sequence:
#
# PCOD9458252 Si02
#       6
#     8   8   8   8   8   8
#     4  11  24  42  70 106 142 190 242 309 371 444
#     4  11  22  42  69  98 143 191 240 307 367 444
#     4   9  22  41  61  95 143 180 236 301 360 441
#     4  11  22  42  66 100 141 190 237 297 373 438
#     4  11  22  42  72 101 146 185 246 308 372 438
#     4  11  22  43  69 104 138 192 253 301 368 444
#
# _framework density 26.213269
#
# number of rings (size 3 to 8) (size 9 to 14) (size 15 to 20)
#    0.000    1.333    5.000    0.000    0.000    3.333 
#    3.000    0.000    0.000    0.000    0.000    0.000 
#    0.000    0.000    0.000    0.000    0.000    0.000 
#
# Total GULP energy -268644.547982 kJ/mol
# GULP energy per Si atom -5596.761416 kJ/mol
# Density = 2.615361 g / cm^3
# Si number density = 26.213269 Si / 1000 Ang^3
#
#
#
# Elastic Constant Matrix: (Units=GPa)
#
#
# Indices 1 2 3 4 5 6 
#
# 1 65.1627 0.8620 26.4303 0.0000 0.0000 0.0000
# 2 0.8620 163.6937 10.5571 0.0000 0.0000 0.0000
# 3 26.4303 10.5571 87.6239 0.0000 0.0000 0.0000
# 4 0.0000 0.0000 0.0000 61.4101 0.0000 0.0000
# 5 0.0000 0.0000 0.0000 0.0000 26.3154 0.0000
# 6 0.0000 0.0000 0.0000 0.0000 0.0000 18.0810
#
#
#
# Elastic Compliance Matrix: (Units=1/GPa)
#
#
# Indices 1 2 3 4 5 6 
#
# 1 0.017496 0.000250 -0.005307 0.000000 0.000000 0.000000
# 2 0.000250 0.006160 -0.000818 0.000000 0.000000 0.000000
# 3 -0.005307 -0.000818 0.013112 0.000000 0.000000 0.000000
# 4 0.000000 0.000000 0.000000 0.016284 0.000000 0.000000
# 5 0.000000 0.000000 0.000000 0.000000 0.038000 0.000000
# 6 0.000000 0.000000 0.000000 0.000000 0.000000 0.055307
#
#
# Mechanical properties :
#
#
# Convention : Reuss Voigt Hill
#
# Bulk Modulus (GPa) = 39.97125 43.57546 41.77336
# Shear Modulus (GPa) = 30.03938 39.73670 34.88804
#
# Velocity S-wave (km/s) = 3.38888 3.89768 3.65215
# Velocity P-wave (km/s) = 5.53121 6.07580 5.80989
#
# Compressibility (1/GPa) = 0.02501798
#
# Stress axis : x y z
#
# Youngs Moduli (GPa) = 57.15721 162.32750 76.26708
#
# Poissons Ratio (x) = -0.04061 0.40478
# Poissons Ratio (y) = -0.01430 0.06236
# Poissons Ratio (z) = 0.30336 0.13273
#
# Static dielectric constant tensor:
#      x y z
#    x 2.053690 0.000000 0.000000 
#    y 0.000000 2.100370 0.000000 
#    z 0.000000 0.000000 2.021570 
# 
# From -- ./inp_files/19339.got.cif
#   From: 2010.05.17/outbox.cif.g08.bks.cpg/sg60_10_cif.got.tgz:19339.got - 2010.06.03 14:59:27.
