data_PCOD9458037
_publ_section_title
;
Structure prediction by ZEFSAII (Michael W. Deem and Ramdas Pophale) SiO2 
 PCOD9458037
Probable space group: P B C N
;
_chemical_formula_sum "Si O2"
_cell_formula_units_Z 56
_cell_length_a 9.071061
_cell_length_b 16.863655
_cell_length_c 19.856309
_cell_angle_alpha 90.000000
_cell_angle_beta 90.000000
_cell_angle_gamma 90.000000
_cell_volume 3037.444273
_symmetry_space_group_name_H-M "P B C N"
_symmetry_group_IT_number 60
_symmetry_cell_setting 'orthorhombic'
loop_
_space_group_symop_operation_xyz
x,y,z
1/2-x,1/2-y,1/2+z
1/2+x,1/2-y,-z
-x,y,1/2-z
-x,-y,-z
1/2+x,1/2+y,1/2-z
1/2-x,1/2+y,z
x,-y,1/2+z
loop_
_atom_site_type_symbol
_atom_site_label
_atom_site_fract_x
_atom_site_fract_y
_atom_site_fract_z
Si Si1 0.500285 0.696482 0.956854
Si Si2 0.478276 0.686911 0.174630
Si Si3 0.153673 0.645549 0.719484
Si Si4 0.758658 0.704733 0.641920
Si Si5 0.672886 0.412239 0.941878
Si Si6 0.945679 0.637583 0.523957
Si Si7 0.746701 0.914002 0.418337
O O1 0.397458 0.717204 0.893369
O O2 0.658943 0.663654 0.936633
O O3 0.422725 0.626818 0.998942
O O4 0.510116 0.773399 0.003279
O O5 0.500000 0.653366 0.250000
O O6 0.391325 0.770242 0.185174
O O7 0.638770 0.716503 0.148120
O O8 0.388525 0.630693 0.124966
O O9 0.252237 0.666830 0.784035
O O10 0.216114 0.590771 0.661408
O O11 0.000000 0.613753 0.750000
O O12 0.849889 0.646576 0.592136
O O13 0.665775 0.506413 0.935395
O O14 0.841260 0.393115 0.963989
O O15 0.092795 0.589783 0.541320
#
# Coordination Sequence:
#
# PCOD9458037 Si02
#       7
#     8   8   8   8   8   8   8
#     4  11  22  36  60  90 117 151 206 246 300 359
#     4   9  17  37  63  81 110 161 208 241 291 365
#     4   9  17  36  63  77 111 157 212 236 282 363
#     4   9  18  35  61  85 107 152 209 248 277 351
#     4  11  23  37  57  91 124 150 197 249 311 354
#     4  11  20  37  63  84 115 161 203 241 294 359
#     4  12  22  37  58  90 124 158 189 258 309 352
#
# _framework density 18.436553
#
# number of rings (size 3 to 8) (size 9 to 14) (size 15 to 20)
#    0.000    2.000    4.286    3.429    0.000    0.571 
#    2.571    0.000    6.286    0.000    0.000    0.000 
#    0.000    0.000    0.000    0.000    0.000    0.000 
#
# Total GULP energy -312244.777331 kJ/mol
# GULP energy per Si atom -5575.799595 kJ/mol
# Density = 1.839459 g / cm^3
# Si number density = 18.436553 Si / 1000 Ang^3
#
#
#
# Elastic Constant Matrix: (Units=GPa)
#
#
# Indices 1 2 3 4 5 6 
#
# 1 63.5251 10.1063 38.1779 0.0000 0.0000 0.0000
# 2 10.1063 61.8834 24.5415 0.0000 0.0000 0.0000
# 3 38.1779 24.5415 101.2448 0.0000 0.0000 0.0000
# 4 0.0000 0.0000 0.0000 19.4741 0.0000 0.0000
# 5 0.0000 0.0000 0.0000 0.0000 15.5759 0.0000
# 6 0.0000 0.0000 0.0000 0.0000 0.0000 20.4798
#
#
#
# Elastic Compliance Matrix: (Units=1/GPa)
#
#
# Indices 1 2 3 4 5 6 
#
# 1 0.020360 -0.000310 -0.007602 0.000000 0.000000 0.000000
# 2 -0.000310 0.017883 -0.004218 0.000000 0.000000 0.000000
# 3 -0.007602 -0.004218 0.013766 0.000000 0.000000 0.000000
# 4 0.000000 0.000000 0.000000 0.051350 0.000000 0.000000
# 5 0.000000 0.000000 0.000000 0.000000 0.064202 0.000000
# 6 0.000000 0.000000 0.000000 0.000000 0.000000 0.048829
#
#
# Mechanical properties :
#
#
# Convention : Reuss Voigt Hill
#
# Bulk Modulus (GPa) = 36.03801 41.36719 38.70260
# Shear Modulus (GPa) = 20.00804 21.36113 20.68459
#
# Velocity S-wave (km/s) = 3.29787 3.40756 3.35316
# Velocity P-wave (km/s) = 5.83873 6.16184 6.00246
#
# Compressibility (1/GPa) = 0.02774848
#
# Stress axis : x y z
#
# Youngs Moduli (GPa) = 49.11573 55.91986 72.64197
#
# Poissons Ratio (x) = 0.01734 0.55225
# Poissons Ratio (y) = 0.01523 0.30639
# Poissons Ratio (z) = 0.37339 0.23586
#
# Static dielectric constant tensor:
#      x y z
#    x 1.663240 0.000000 0.000000 
#    y 0.000000 1.621150 0.000000 
#    z 0.000000 0.000000 1.655300 
# 
# From -- ./inp_files/22287.got.cif
#   From: 2010.05.17/outbox.cif.g08.bks.cpg/sg60_12_cif.got.tgz:22287.got - 2010.06.03 14:59:27.
