data_PCOD9458589
_publ_section_title
;
Structure prediction by ZEFSAII (Michael W. Deem and Ramdas Pophale) SiO2 
 PCOD9458589
Probable space group: P B C N
;
_chemical_formula_sum "Si O2"
_cell_formula_units_Z 40
_cell_length_a 8.109752
_cell_length_b 23.299202
_cell_length_c 8.670314
_cell_angle_alpha 90.000000
_cell_angle_beta 90.000000
_cell_angle_gamma 90.000000
_cell_volume 1638.262333
_symmetry_space_group_name_H-M "P B C N"
_symmetry_group_IT_number 60
_symmetry_cell_setting 'orthorhombic'
loop_
_space_group_symop_operation_xyz
x,y,z
1/2-x,1/2-y,1/2+z
1/2+x,1/2-y,-z
-x,y,1/2-z
-x,-y,-z
1/2+x,1/2+y,1/2-z
1/2-x,1/2+y,z
x,-y,1/2+z
loop_
_atom_site_type_symbol
_atom_site_label
_atom_site_fract_x
_atom_site_fract_y
_atom_site_fract_z
Si Si1 0.643823 0.274509 0.866109
Si Si2 0.368079 0.814354 0.872984
Si Si3 0.811387 0.598178 0.901172
Si Si4 0.703650 0.124175 0.565222
Si Si5 0.631594 0.522005 0.381851
O O1 0.500000 0.293669 0.750000
O O2 0.785616 0.266926 0.738336
O O3 0.585932 0.221773 0.972609
O O4 0.725072 0.320698 0.978936
O O5 0.500000 0.840000 0.750000
O O6 0.257239 0.866355 0.945040
O O7 0.744128 0.626208 0.744150
O O8 0.759274 0.532029 0.871951
O O9 0.008417 0.608704 0.920409
O O10 0.774689 0.073808 0.459971
O O11 0.500000 0.538254 0.250000
O O12 0.500000 0.500000 0.500000
#
# Coordination Sequence:
#
# PCOD9458589 Si02
#       5
#     8   8   8   8   8
#     4  12  27  45  75 108 149 195 249 313 371 445
#     4  12  26  48  72 110 147 196 247 304 378 453
#     4  11  26  46  74 102 150 197 246 305 372 452
#     4  11  25  48  72 105 147 198 251 302 372 450
#     4  12  26  47  72 109 149 189 248 311 374 444
#
# _framework density 24.416115000000001
#
# number of rings (size 3 to 8) (size 9 to 14) (size 15 to 20)
#    0.000    0.400    4.000    3.600    8.400    0.000 
#    3.600    0.000    0.000    0.000    0.000    0.000 
#    0.000    0.000    0.000    0.000    0.000    0.000 
#
# Total GULP energy -222683.530761 kJ/mol
# GULP energy per Si atom -5567.088269 kJ/mol
# Density = 2.436054 g / cm^3
# Si number density = 24.416115 Si / 1000 Ang^3
#
#
#
# Elastic Constant Matrix: (Units=GPa)
#
#
# Indices 1 2 3 4 5 6 
#
# 1 77.4969 52.4880 53.6413 0.0000 0.0000 0.0000
# 2 52.4880 151.2929 73.0605 0.0000 0.0000 0.0000
# 3 53.6413 73.0605 204.7533 0.0000 0.0000 0.0000
# 4 0.0000 0.0000 0.0000 44.8894 0.0000 0.0000
# 5 0.0000 0.0000 0.0000 0.0000 50.6311 0.0000
# 6 0.0000 0.0000 0.0000 0.0000 0.0000 25.5475
#
#
#
# Elastic Compliance Matrix: (Units=1/GPa)
#
#
# Indices 1 2 3 4 5 6 
#
# 1 0.018327 -0.004881 -0.003060 0.000000 0.000000 0.000000
# 2 -0.004881 0.009285 -0.002035 0.000000 0.000000 0.000000
# 3 -0.003060 -0.002035 0.006412 0.000000 0.000000 0.000000
# 4 0.000000 0.000000 0.000000 0.022277 0.000000 0.000000
# 5 0.000000 0.000000 0.000000 0.000000 0.019751 0.000000
# 6 0.000000 0.000000 0.000000 0.000000 0.000000 0.039143
#
#
# Mechanical properties :
#
#
# Convention : Reuss Voigt Hill
#
# Bulk Modulus (GPa) = 71.05277 87.99140 79.52209
# Shear Modulus (GPa) = 35.75604 41.17048 38.46326
#
# Velocity S-wave (km/s) = 3.83096 4.11079 3.97334
# Velocity P-wave (km/s) = 6.98085 7.65820 7.32735
#
# Compressibility (1/GPa) = 0.01407405
#
# Stress axis : x y z
#
# Youngs Moduli (GPa) = 54.56335 107.69513 155.96848
#
# Poissons Ratio (x) = 0.52562 0.47724
# Poissons Ratio (y) = 0.26630 0.31734
# Poissons Ratio (z) = 0.16696 0.21912
#
# Static dielectric constant tensor:
#      x y z
#    x 2.148750 0.000000 0.000000 
#    y 0.000000 2.006880 0.000000 
#    z 0.000000 0.000000 1.956440 
# 
# From -- ./inp_files/3805.got.cif
#   From: 2010.05.17/outbox.cif.g08.bks.cpg/sg60_2_cif.got.tgz:3805.got - 2010.06.03 14:59:27.
