data_PCOD9458197
_publ_section_title
;
Structure prediction by ZEFSAII (Michael W. Deem and Ramdas Pophale) SiO2 
 PCOD9458197
Probable space group: P B C N
;
_chemical_formula_sum "Si O2"
_cell_formula_units_Z 32
_cell_length_a 11.689018
_cell_length_b 19.738450
_cell_length_c 5.239617
_cell_angle_alpha 90.000000
_cell_angle_beta 90.000000
_cell_angle_gamma 90.000000
_cell_volume 1208.900663
_symmetry_space_group_name_H-M "P B C N"
_symmetry_group_IT_number 60
_symmetry_cell_setting 'orthorhombic'
loop_
_space_group_symop_operation_xyz
x,y,z
1/2-x,1/2-y,1/2+z
1/2+x,1/2-y,-z
-x,y,1/2-z
-x,-y,-z
1/2+x,1/2+y,1/2-z
1/2-x,1/2+y,z
x,-y,1/2+z
loop_
_atom_site_type_symbol
_atom_site_label
_atom_site_fract_x
_atom_site_fract_y
_atom_site_fract_z
Si Si1 0.159719 0.537816 0.995418
Si Si2 0.870446 0.093802 0.746424
Si Si3 0.804675 0.651851 0.148432
Si Si4 0.390344 0.725860 0.083941
O O1 0.122460 0.484677 0.213580
O O2 0.134508 0.609196 0.129977
O O3 0.296522 0.548552 0.949740
O O4 0.883790 0.170446 0.639741
O O5 0.000000 0.067268 0.750000
O O6 0.785738 0.105182 0.989778
O O7 0.724591 0.710406 0.261872
O O8 0.892556 0.695296 0.984724
O O9 0.500000 0.707600 0.250000
#
# Coordination Sequence:
#
# PCOD9458197 Si02
#       4
#     8   8   8   8
#     4  11  24  43  63  91 130 181 226 270 324 391
#     4  11  22  38  61  96 136 172 215 271 337 401
#     4  11  22  39  64  95 133 173 215 276 330 399
#     4  11  22  37  65  99 135 173 215 274 343 405
#
# _framework density 26.470329
#
# number of rings (size 3 to 8) (size 9 to 14) (size 15 to 20)
#    0.000    1.000    7.500    0.000    0.000    1.000 
#    0.000    0.000    0.000    1.500    0.000    0.000 
#    0.000    0.000    0.000    0.000    0.000    0.000 
#
# Total GULP energy -178782.297015 kJ/mol
# GULP energy per Si atom -5586.946782 kJ/mol
# Density = 2.641008 g / cm^3
# Si number density = 26.470329 Si / 1000 Ang^3
#
#
#
# Elastic Constant Matrix: (Units=GPa)
#
#
# Indices 1 2 3 4 5 6 
#
# 1 89.5378 0.9098 -10.6737 0.0000 0.0000 0.0000
# 2 0.9098 56.0946 -16.7395 0.0000 0.0000 0.0000
# 3 -10.6737 -16.7395 84.8407 0.0000 0.0000 0.0000
# 4 0.0000 0.0000 0.0000 1107.5762 0.0000 0.0000
# 5 0.0000 0.0000 0.0000 0.0000 2.4628 0.0000
# 6 0.0000 0.0000 0.0000 0.0000 0.0000 -59.7450
#
#
#
# Elastic Compliance Matrix: (Units=1/GPa)
#
#
# Indices 1 2 3 4 5 6 
#
# 1 0.011342 0.000257 0.001478 0.000000 0.000000 0.000000
# 2 0.000257 0.018948 0.003771 0.000000 0.000000 0.000000
# 3 0.001478 0.003771 0.012717 0.000000 0.000000 0.000000
# 4 0.000000 0.000000 0.000000 0.000903 0.000000 0.000000
# 5 0.000000 0.000000 0.000000 0.000000 0.406037 0.000000
# 6 0.000000 0.000000 0.000000 0.000000 0.000000 -0.016738
#
#
# Mechanical properties :
#
#
# Convention : Reuss Voigt Hill
#
# Bulk Modulus (GPa) = 18.51240 19.71850 19.11545
# Shear Modulus (GPa) = 11.35836 227.19056 119.27446
#
# Velocity S-wave (km/s) = 2.07371 9.27441 6.71993
# Velocity P-wave (km/s) = 3.56967 11.05223 8.21262
#
# Compressibility (1/GPa) = 0.05401785
#
# Stress axis : x y z
#
# Youngs Moduli (GPa) = 88.16790 52.77557 78.63669
#
# Poissons Ratio (x) = -0.01356 -0.11620
# Poissons Ratio (y) = -0.02266 -0.29653
# Poissons Ratio (z) = -0.13028 -0.19901
#
# Static dielectric constant tensor:
#      x y z
#    x 2.085010 0.000000 0.000000 
#    y 0.000000 2.072280 0.000000 
#    z 0.000000 0.000000 2.196970 
# 
# From -- ./inp_files/656.got.cif
#   From: 2010.05.17/outbox.cif.g08.bks.cpg/sg60_1_cif.got.tgz:656.got - 2010.06.03 14:59:27.
