data_PCOD9458014
_publ_section_title
;
Structure prediction by ZEFSAII (Michael W. Deem and Ramdas Pophale) SiO2 
 PCOD9458014
Probable space group: P B C N
;
_chemical_formula_sum "Si O2"
_cell_formula_units_Z 36
_cell_length_a 25.045986
_cell_length_b 7.987906
_cell_length_c 8.230843
_cell_angle_alpha 90.000000
_cell_angle_beta 90.000000
_cell_angle_gamma 90.000000
_cell_volume 1646.703455
_symmetry_space_group_name_H-M "P B C N"
_symmetry_group_IT_number 60
_symmetry_cell_setting 'orthorhombic'
loop_
_space_group_symop_operation_xyz
x,y,z
1/2-x,1/2-y,1/2+z
1/2+x,1/2-y,-z
-x,y,1/2-z
-x,-y,-z
1/2+x,1/2+y,1/2-z
1/2-x,1/2+y,z
x,-y,1/2+z
loop_
_atom_site_type_symbol
_atom_site_label
_atom_site_fract_x
_atom_site_fract_y
_atom_site_fract_z
Si Si1 0.860602 0.680012 0.181325
Si Si2 0.000000 0.615532 0.750000
Si Si3 0.575071 0.107121 0.483215
Si Si4 0.802460 0.137799 0.438527
Si Si5 0.734523 0.061790 0.731184
O O1 0.889517 0.708598 0.353307
O O2 0.852688 0.833075 0.055594
O O3 0.802045 0.602178 0.215723
O O4 0.890210 0.530114 0.082181
O O5 0.035728 0.497759 0.634240
O O6 0.959682 0.702378 0.621467
O O7 0.750643 0.124339 0.554679
O O8 0.798613 0.302015 0.328480
O O9 0.790159 0.983346 0.321195
#
# Coordination Sequence:
#
# PCOD9458014 Si02
#       5
#     8   4   8   8   8
#     4  11  19  31  52  76 105 145 177 212 265 313
#     4   8  16  30  48  72 112 132 158 214 290 332
#     4   9  17  30  49  77 106 138 163 218 276 338
#     4  12  22  36  51  74 108 156 188 221 259 300
#     4  12  22  36  52  74 111 154 186 222 255 302
#
# _framework density 21.861861000000001
#
# number of rings (size 3 to 8) (size 9 to 14) (size 15 to 20)
#    0.000    1.333    6.667    0.000    0.000    0.000 
#    0.000    0.000    0.000    0.000    0.000    0.000 
#    0.000   88.889    0.000    0.000    0.000    0.000 
#
# Total GULP energy -200584.215577 kJ/mol
# GULP energy per Si atom -5571.783766 kJ/mol
# Density = 2.181210 g / cm^3
# Si number density = 21.861861 Si / 1000 Ang^3
#
#
#
# Elastic Constant Matrix: (Units=GPa)
#
#
# Indices 1 2 3 4 5 6 
#
# 1 52.1807 -1.8708 17.6504 0.0000 0.0000 0.0000
# 2 -1.8708 14.6425 10.4623 0.0000 0.0000 0.0000
# 3 17.6504 10.4623 111.5699 0.0000 0.0000 0.0000
# 4 0.0000 0.0000 0.0000 31.2338 0.0000 0.0000
# 5 0.0000 0.0000 0.0000 0.0000 63.0265 0.0000
# 6 0.0000 0.0000 0.0000 0.0000 0.0000 5.7808
#
#
#
# Elastic Compliance Matrix: (Units=1/GPa)
#
#
# Indices 1 2 3 4 5 6 
#
# 1 0.020628 0.005324 -0.003763 0.000000 0.000000 0.000000
# 2 0.005324 0.074573 -0.007835 0.000000 0.000000 0.000000
# 3 -0.003763 -0.007835 0.010293 0.000000 0.000000 0.000000
# 4 0.000000 0.000000 0.000000 0.032017 0.000000 0.000000
# 5 0.000000 0.000000 0.000000 0.000000 0.015866 0.000000
# 6 0.000000 0.000000 0.000000 0.000000 0.000000 0.172987
#
#
# Mechanical properties :
#
#
# Convention : Reuss Voigt Hill
#
# Bulk Modulus (GPa) = 10.75896 25.65301 18.20598
# Shear Modulus (GPa) = 13.51742 30.15163 21.83452
#
# Velocity S-wave (km/s) = 2.48928 3.71777 3.16373
# Velocity P-wave (km/s) = 3.63236 5.49443 4.65740
#
# Compressibility (1/GPa) = 0.09294578
#
# Stress axis : x y z
#
# Youngs Moduli (GPa) = 48.47840 13.40971 97.15376
#
# Poissons Ratio (x) = -0.07139 0.36555
# Poissons Ratio (y) = -0.25809 0.76122
# Poissons Ratio (z) = 0.18240 0.10507
#
# Static dielectric constant tensor:
#      x y z
#    x 1.878670 0.000000 0.000000 
#    y 0.000000 1.777070 0.000000 
#    z 0.000000 0.000000 1.855410 
# 
# From -- ./inp_files/8064.got.cif
#   From: 2010.05.17/outbox.cif.g08.bks.cpg/sg60_5_cif.got.tgz:8064.got - 2010.06.03 14:59:27.
