data_PCOD9458740
_publ_section_title
;
Structure prediction by ZEFSAII (Michael W. Deem and Ramdas Pophale) SiO2 
 PCOD9458740
Probable space group: P B C N
;
_chemical_formula_sum "Si O2"
_cell_formula_units_Z 40
_cell_length_a 11.135087
_cell_length_b 18.892041
_cell_length_c 8.214042
_cell_angle_alpha 90.000000
_cell_angle_beta 90.000000
_cell_angle_gamma 90.000000
_cell_volume 1727.943004
_symmetry_space_group_name_H-M "P B C N"
_symmetry_group_IT_number 60
_symmetry_cell_setting 'orthorhombic'
loop_
_space_group_symop_operation_xyz
x,y,z
1/2-x,1/2-y,1/2+z
1/2+x,1/2-y,-z
-x,y,1/2-z
-x,-y,-z
1/2+x,1/2+y,1/2-z
1/2-x,1/2+y,z
x,-y,1/2+z
loop_
_atom_site_type_symbol
_atom_site_label
_atom_site_fract_x
_atom_site_fract_y
_atom_site_fract_z
Si Si1 0.534061 0.330718 0.434770
Si Si2 0.797979 0.854183 0.908698
Si Si3 0.358738 0.965149 0.783652
Si Si4 0.353467 0.228369 0.829895
Si Si5 0.794546 0.602801 0.874901
O O1 0.500000 0.312560 0.250000
O O2 0.430578 0.375268 0.527342
O O3 0.550079 0.260625 0.544856
O O4 0.661122 0.370268 0.417465
O O5 0.710888 0.915136 0.844817
O O6 0.809078 0.798387 0.761669
O O7 0.743772 0.809109 0.056181
O O8 0.500000 0.971222 0.750000
O O9 0.298974 0.042068 0.762233
O O10 0.345164 0.932099 0.961889
O O11 0.371336 0.168446 0.693240
#
# Coordination Sequence:
#
# PCOD9458740 Si02
#       5
#     8   8   8   8   8
#     4  12  26  48  76 115 156 199 264 323 392 459
#     4  12  24  46  75 114 151 208 257 322 390 464
#     4  12  29  51  76 112 159 208 266 316 395 472
#     4  12  24  47  75 113 154 197 257 317 393 455
#     4  12  27  53  75 118 154 209 262 320 392 467
#
# _framework density 23.148911999999999
#
# number of rings (size 3 to 8) (size 9 to 14) (size 15 to 20)
#    0.000    0.000    6.000    2.400    0.000    8.000 
#    0.000    0.000    0.000    0.000    0.000    0.000 
#    0.000    0.000    0.000    0.000    0.000    0.000 
#
# Total GULP energy -223859.409426 kJ/mol
# GULP energy per Si atom -5596.485236 kJ/mol
# Density = 2.309622 g / cm^3
# Si number density = 23.148912 Si / 1000 Ang^3
#
#
#
# Elastic Constant Matrix: (Units=GPa)
#
#
# Indices 1 2 3 4 5 6 
#
# 1 124.5021 58.3450 42.5183 0.0000 0.0000 0.0000
# 2 58.3450 124.5906 54.9184 0.0000 0.0000 0.0000
# 3 42.5183 54.9184 125.5312 0.0000 0.0000 0.0000
# 4 0.0000 0.0000 0.0000 37.5163 0.0000 0.0000
# 5 0.0000 0.0000 0.0000 0.0000 43.7888 0.0000
# 6 0.0000 0.0000 0.0000 0.0000 0.0000 23.5298
#
#
#
# Elastic Compliance Matrix: (Units=1/GPa)
#
#
# Indices 1 2 3 4 5 6 
#
# 1 0.010594 -0.004187 -0.001757 0.000000 0.000000 0.000000
# 2 -0.004187 0.011599 -0.003656 0.000000 0.000000 0.000000
# 3 -0.001757 -0.003656 0.010161 0.000000 0.000000 0.000000
# 4 0.000000 0.000000 0.000000 0.026655 0.000000 0.000000
# 5 0.000000 0.000000 0.000000 0.000000 0.022837 0.000000
# 6 0.000000 0.000000 0.000000 0.000000 0.000000 0.042499
#
#
# Mechanical properties :
#
#
# Convention : Reuss Voigt Hill
#
# Bulk Modulus (GPa) = 76.02185 76.24301 76.13243
# Shear Modulus (GPa) = 33.80023 35.55646 34.67834
#
# Velocity S-wave (km/s) = 3.82530 3.92342 3.87467
# Velocity P-wave (km/s) = 7.24032 7.31654 7.27853
#
# Compressibility (1/GPa) = 0.01315411
#
# Stress axis : x y z
#
# Youngs Moduli (GPa) = 94.39384 86.21792 98.41923
#
# Poissons Ratio (x) = 0.36098 0.17288
# Poissons Ratio (y) = 0.39521 0.35983
# Poissons Ratio (z) = 0.16581 0.31522
#
# Static dielectric constant tensor:
#      x y z
#    x 1.915780 0.000000 0.000000 
#    y 0.000000 1.815830 0.000000 
#    z 0.000000 0.000000 1.898640 
# 
# From -- ./inp_files/4777.got.cif
#   From: 2010.05.17/outbox.cif.g08.bks.cpg/sg60_3_cif.got.tgz:4777.got - 2010.06.03 14:59:27.
