data_PCOD9458136
_publ_section_title
;
Structure prediction by ZEFSAII (Michael W. Deem and Ramdas Pophale) SiO2 
 PCOD9458136
Probable space group: P B C N
;
_chemical_formula_sum "Si O2"
_cell_formula_units_Z 56
_cell_length_a 13.085933
_cell_length_b 14.150071
_cell_length_c 11.986901
_cell_angle_alpha 90.000000
_cell_angle_beta 90.000000
_cell_angle_gamma 90.000000
_cell_volume 2219.577072
_symmetry_space_group_name_H-M "P B C N"
_symmetry_group_IT_number 60
_symmetry_cell_setting 'orthorhombic'
loop_
_space_group_symop_operation_xyz
x,y,z
1/2-x,1/2-y,1/2+z
1/2+x,1/2-y,-z
-x,y,1/2-z
-x,-y,-z
1/2+x,1/2+y,1/2-z
1/2-x,1/2+y,z
x,-y,1/2+z
loop_
_atom_site_type_symbol
_atom_site_label
_atom_site_fract_x
_atom_site_fract_y
_atom_site_fract_z
Si Si1 0.771545 0.292760 0.178546
Si Si2 0.797673 0.409941 0.966599
Si Si3 0.728477 0.910318 0.580045
Si Si4 0.974940 0.656198 0.076144
Si Si5 0.109419 0.780651 0.625336
Si Si6 0.436828 0.580005 0.438026
Si Si7 0.075640 0.163140 0.673505
O O1 0.791724 0.377642 0.095460
O O2 0.747961 0.201746 0.101230
O O3 0.864678 0.266765 0.258065
O O4 0.676905 0.313523 0.259374
O O5 0.778765 0.522138 0.970598
O O6 0.710329 0.345228 0.907540
O O7 0.913635 0.389779 0.931497
O O8 0.611978 0.912346 0.626131
O O9 0.836395 0.948195 0.630725
O O10 0.998811 0.750951 0.143690
O O11 0.924793 0.698095 0.961730
O O12 0.016360 0.853540 0.622496
O O13 0.500000 0.500000 0.500000
O O14 0.394200 0.632900 0.549001
O O15 0.000000 0.098560 0.750000
#
# Coordination Sequence:
#
# PCOD9458136 Si02
#       7
#     8   8   8   8   8   8   8
#     4  12  24  45  71 107 136 183 240 287 354 422
#     4  12  25  46  70 103 139 181 233 289 349 417
#     4  12  25  44  68 103 139 182 236 289 348 426
#     4  11  23  45  71  97 140 191 222 280 360 422
#     4  11  23  45  71  97 138 186 226 285 353 409
#     4  11  24  43  67  99 139 182 232 287 356 414
#     4  11  21  40  73  95 132 187 231 276 353 427
#
# _framework density 25.230032999999999
#
# number of rings (size 3 to 8) (size 9 to 14) (size 15 to 20)
#    0.000    0.571    5.714    3.857    0.000    3.429 
#    2.571    1.429    0.000    0.000    0.000    0.000 
#    0.000    0.000    0.000    0.000    0.000    0.000 
#
# Total GULP energy -312378.730898 kJ/mol
# GULP energy per Si atom -5578.191623 kJ/mol
# Density = 2.517261 g / cm^3
# Si number density = 25.230033 Si / 1000 Ang^3
#
#
#
# Elastic Constant Matrix: (Units=GPa)
#
#
# Indices 1 2 3 4 5 6 
#
# 1 227.0016 35.8819 28.3502 0.0000 0.0000 0.0000
# 2 35.8819 63.5033 13.0872 0.0000 0.0000 0.0000
# 3 28.3502 13.0872 79.7647 0.0000 0.0000 0.0000
# 4 0.0000 0.0000 0.0000 -7.2863 0.0000 0.0000
# 5 0.0000 0.0000 0.0000 0.0000 53.8422 0.0000
# 6 0.0000 0.0000 0.0000 0.0000 0.0000 43.7122
#
#
#
# Elastic Compliance Matrix: (Units=1/GPa)
#
#
# Indices 1 2 3 4 5 6 
#
# 1 0.004974 -0.002532 -0.001353 0.000000 0.000000 0.000000
# 2 -0.002532 0.017587 -0.001986 0.000000 0.000000 0.000000
# 3 -0.001353 -0.001986 0.013343 0.000000 0.000000 0.000000
# 4 0.000000 0.000000 0.000000 -0.137244 0.000000 0.000000
# 5 0.000000 0.000000 0.000000 0.000000 0.018573 0.000000
# 6 0.000000 0.000000 0.000000 0.000000 0.000000 0.022877
#
#
# Mechanical properties :
#
#
# Convention : Reuss Voigt Hill
#
# Bulk Modulus (GPa) = 41.38303 58.32312 49.85307
# Shear Modulus (GPa) = -124.70753 37.58363 -43.56195
#
# Velocity S-wave (km/s) = -7.03815 3.86377 -4.15973
# Velocity P-wave (km/s) = 7.04340 6.56290 1.80800
#
# Compressibility (1/GPa) = 0.02416449
#
# Stress axis : x y z
#
# Youngs Moduli (GPa) = 201.02891 56.85988 74.94338
#
# Poissons Ratio (x) = 0.14397 0.10137
# Poissons Ratio (y) = 0.50900 0.14881
# Poissons Ratio (z) = 0.27191 0.11290
#
# Static dielectric constant tensor:
#      x y z
#    x 2.059440 0.000000 0.000000 
#    y 0.000000 2.065400 0.000000 
#    z 0.000000 0.000000 2.124270 
# 
# From -- ./inp_files/16157.got.cif
#   From: 2010.05.17/outbox.cif.g08.bks.cpg/sg60_9_cif.got.tgz:16157.got - 2010.06.03 14:59:27.
