data_PCOD9458520
_publ_section_title
;
Structure prediction by ZEFSAII (Michael W. Deem and Ramdas Pophale) SiO2 
 PCOD9458520
Probable space group: P B C N
;
_chemical_formula_sum "Si O2"
_cell_formula_units_Z 32
_cell_length_a 6.756418
_cell_length_b 18.249437
_cell_length_c 11.382516
_cell_angle_alpha 90.000000
_cell_angle_beta 90.000000
_cell_angle_gamma 90.000000
_cell_volume 1403.473609
_symmetry_space_group_name_H-M "P B C N"
_symmetry_group_IT_number 60
_symmetry_cell_setting 'orthorhombic'
loop_
_space_group_symop_operation_xyz
x,y,z
1/2-x,1/2-y,1/2+z
1/2+x,1/2-y,-z
-x,y,1/2-z
-x,-y,-z
1/2+x,1/2+y,1/2-z
1/2-x,1/2+y,z
x,-y,1/2+z
loop_
_atom_site_type_symbol
_atom_site_label
_atom_site_fract_x
_atom_site_fract_y
_atom_site_fract_z
Si Si1 0.963137 0.038819 0.371533
Si Si2 0.090995 0.418951 0.507907
Si Si3 0.121512 0.177247 0.867166
Si Si4 0.289861 0.672322 0.431193
O O1 0.744192 0.072241 0.384726
O O2 0.000000 0.995597 0.250000
O O3 0.116050 0.105277 0.361188
O O4 0.000000 0.000000 0.500000
O O5 0.228167 0.387718 0.402819
O O6 0.000000 0.500000 0.500000
O O7 0.916198 0.360755 0.522047
O O8 0.244176 0.252894 0.864399
O O9 0.000000 0.166542 0.750000
O O10 0.954172 0.185396 0.968307
#
# Coordination Sequence:
#
# PCOD9458520 Si02
#       4
#     8   8   8   8
#     4  11  26  46  73 110 153 201 258 320 382 468
#     4  11  24  50  71 104 151 199 251 319 394 460
#     4  11  26  45  77 110 150 199 263 322 387 473
#     4  11  24  47  69 105 151 197 251 317 389 459
#
# _framework density 22.80057
#
# number of rings (size 3 to 8) (size 9 to 14) (size 15 to 20)
#    0.000    1.000    5.000    0.000    3.500    5.000 
#    4.500    0.000    0.000    0.000    0.000    0.000 
#    0.000    0.000    0.000    0.000    0.000    0.000 
#
# Total GULP energy -178696.797734 kJ/mol
# GULP energy per Si atom -5584.274929 kJ/mol
# Density = 2.274867 g / cm^3
# Si number density = 22.800570 Si / 1000 Ang^3
#
#
#
# Elastic Constant Matrix: (Units=GPa)
#
#
# Indices 1 2 3 4 5 6 
#
# 1 136.1828 51.2983 37.5523 0.0000 0.0000 0.0000
# 2 51.2983 176.6009 54.8080 0.0000 0.0000 0.0000
# 3 37.5523 54.8080 119.5167 0.0000 0.0000 0.0000
# 4 0.0000 0.0000 0.0000 10.7585 0.0000 0.0000
# 5 0.0000 0.0000 0.0000 0.0000 7.5305 0.0000
# 6 0.0000 0.0000 0.0000 0.0000 0.0000 56.6471
#
#
#
# Elastic Compliance Matrix: (Units=1/GPa)
#
#
# Indices 1 2 3 4 5 6 
#
# 1 0.008568 -0.001928 -0.001808 0.000000 0.000000 0.000000
# 2 -0.001928 0.007036 -0.002621 0.000000 0.000000 0.000000
# 3 -0.001808 -0.002621 0.010137 0.000000 0.000000 0.000000
# 4 0.000000 0.000000 0.000000 0.092950 0.000000 0.000000
# 5 0.000000 0.000000 0.000000 0.000000 0.132794 0.000000
# 6 0.000000 0.000000 0.000000 0.000000 0.000000 0.017653
#
#
# Mechanical properties :
#
#
# Convention : Reuss Voigt Hill
#
# Bulk Modulus (GPa) = 76.76016 79.95749 78.35883
# Shear Modulus (GPa) = 17.47073 34.22999 25.85036
#
# Velocity S-wave (km/s) = 2.77111 3.87884 3.37079
# Velocity P-wave (km/s) = 6.63157 7.42999 7.04211
#
# Compressibility (1/GPa) = 0.01302759
#
# Stress axis : x y z
#
# Youngs Moduli (GPa) = 116.71690 142.13079 98.64878
#
# Poissons Ratio (x) = 0.27397 0.17836
# Poissons Ratio (y) = 0.22498 0.25854
# Poissons Ratio (z) = 0.21103 0.37250
#
# Static dielectric constant tensor:
#      x y z
#    x 1.877230 0.000000 0.000000 
#    y 0.000000 1.890570 0.000000 
#    z 0.000000 0.000000 1.935920 
# 
# From -- ./inp_files/8842.got.cif
#   From: 2010.05.17/outbox.cif.g08.bks.cpg/sg60_5_cif.got.tgz:8842.got - 2010.06.03 14:59:27.
