data_PCOD9458803
_publ_section_title
;
Structure prediction by ZEFSAII (Michael W. Deem and Ramdas Pophale) SiO2 
 PCOD9458803
Probable space group: P B C N
;
_chemical_formula_sum "Si O2"
_cell_formula_units_Z 40
_cell_length_a 19.995742
_cell_length_b 17.435884
_cell_length_c 5.134338
_cell_angle_alpha 90.000000
_cell_angle_beta 90.000000
_cell_angle_gamma 90.000000
_cell_volume 1790.053252
_symmetry_space_group_name_H-M "P B C N"
_symmetry_group_IT_number 60
_symmetry_cell_setting 'orthorhombic'
loop_
_space_group_symop_operation_xyz
x,y,z
1/2-x,1/2-y,1/2+z
1/2+x,1/2-y,-z
-x,y,1/2-z
-x,-y,-z
1/2+x,1/2+y,1/2-z
1/2-x,1/2+y,z
x,-y,1/2+z
loop_
_atom_site_type_symbol
_atom_site_label
_atom_site_fract_x
_atom_site_fract_y
_atom_site_fract_z
Si Si1 0.875250 0.950999 0.185400
Si Si2 0.299992 0.056130 0.187568
Si Si3 0.353033 0.808351 0.384765
Si Si4 0.000000 0.157838 0.750000
Si Si5 0.500000 0.235581 0.750000
Si Si6 0.223839 0.843846 0.042965
O O1 0.809517 0.904399 0.262620
O O2 0.936217 0.896147 0.249124
O O3 0.879124 0.020172 0.391893
O O4 0.304496 0.995825 0.948643
O O5 0.350828 0.122773 0.094665
O O6 0.237938 0.888483 0.773738
O O7 0.427917 0.805628 0.272051
O O8 0.295713 0.821942 0.165055
O O9 0.325822 0.728286 0.508789
O O10 0.997190 0.211072 0.500929
#
# Coordination Sequence:
#
# PCOD9458803 Si02
#       6
#     8   8   8   4   4   8
#     4  12  27  45  74 113 159 202 245 308 385 464
#     4  12  26  47  76 116 152 190 249 324 387 440
#     4  12  28  49  81 111 153 202 259 314 380 456
#     4  12  26  49  74 109 158 208 252 300 378 473
#     4  12  30  51  76 109 154 204 260 320 374 453
#     4  12  26  46  80 116 149 202 259 314 376 457
#
# _framework density 22.345704000000001
#
# number of rings (size 3 to 8) (size 9 to 14) (size 15 to 20)
#    0.000    0.000    6.000    3.000    8.400    0.000 
#    0.000    1.000    0.000    0.000    0.000    0.000 
#    0.000    0.000    0.000    0.000    0.000    0.000 
#
# Total GULP energy -223616.642082 kJ/mol
# GULP energy per Si atom -5590.416052 kJ/mol
# Density = 2.229484 g / cm^3
# Si number density = 22.345704 Si / 1000 Ang^3
#
#
#
# Elastic Constant Matrix: (Units=GPa)
#
#
# Indices 1 2 3 4 5 6 
#
# 1 130.4927 -10.5085 5.2301 0.0000 0.0000 0.0000
# 2 -10.5085 40.5305 -2.0861 0.0000 0.0000 0.0000
# 3 5.2301 -2.0861 100.9499 0.0000 0.0000 0.0000
# 4 0.0000 0.0000 0.0000 -21.2804 0.0000 0.0000
# 5 0.0000 0.0000 0.0000 0.0000 -53.7581 0.0000
# 6 0.0000 0.0000 0.0000 0.0000 0.0000 52.9053
#
#
#
# Elastic Compliance Matrix: (Units=1/GPa)
#
#
# Indices 1 2 3 4 5 6 
#
# 1 0.007840 0.002014 -0.000365 0.000000 0.000000 0.000000
# 2 0.002014 0.025216 0.000417 0.000000 0.000000 0.000000
# 3 -0.000365 0.000417 0.009933 0.000000 0.000000 0.000000
# 4 0.000000 0.000000 0.000000 -0.046992 0.000000 0.000000
# 5 0.000000 0.000000 0.000000 0.000000 -0.018602 0.000000
# 6 0.000000 0.000000 0.000000 0.000000 0.000000 0.018902
#
#
# Mechanical properties :
#
#
# Convention : Reuss Voigt Hill
#
# Bulk Modulus (GPa) = 21.22141 28.58265 24.90203
# Shear Modulus (GPa) = 635.06650 14.19588 324.63119
#
# Velocity S-wave (km/s) = 16.87654 2.52322 12.06616
# Velocity P-wave (km/s) = 19.73004 4.61603 14.32798
#
# Compressibility (1/GPa) = 0.04712222
#
# Stress axis : x y z
#
# Youngs Moduli (GPa) = 127.55003 39.65669 100.67047
#
# Poissons Ratio (x) = -0.07987 0.03670
# Poissons Ratio (y) = -0.25688 -0.04196
# Poissons Ratio (z) = 0.04650 -0.01653
#
# Static dielectric constant tensor:
#      x y z
#    x 1.871330 0.000000 0.000000 
#    y 0.000000 1.880610 0.000000 
#    z 0.000000 0.000000 1.864790 
# 
# From -- ./inp_files/1663.got.cif
#   From: 2010.05.17/outbox.cif.g08.bks.cpg/sg60_1_cif.got.tgz:1663.got - 2010.06.03 14:59:27.
