data_PCOD9458297
_publ_section_title
;
Structure prediction by ZEFSAII (Michael W. Deem and Ramdas Pophale) SiO2 
 PCOD9458297
Probable space group: P B C N
;
_chemical_formula_sum "Si O2"
_cell_formula_units_Z 36
_cell_length_a 12.366645
_cell_length_b 10.442456
_cell_length_c 10.883127
_cell_angle_alpha 90.000000
_cell_angle_beta 90.000000
_cell_angle_gamma 90.000000
_cell_volume 1405.426847
_symmetry_space_group_name_H-M "P B C N"
_symmetry_group_IT_number 60
_symmetry_cell_setting 'orthorhombic'
loop_
_space_group_symop_operation_xyz
x,y,z
1/2-x,1/2-y,1/2+z
1/2+x,1/2-y,-z
-x,y,1/2-z
-x,-y,-z
1/2+x,1/2+y,1/2-z
1/2-x,1/2+y,z
x,-y,1/2+z
loop_
_atom_site_type_symbol
_atom_site_label
_atom_site_fract_x
_atom_site_fract_y
_atom_site_fract_z
Si Si1 0.000000 0.829342 0.750000
Si Si2 0.969095 0.332074 0.884093
Si Si3 0.698650 0.895697 0.568989
Si Si4 0.332226 0.841179 0.391634
Si Si5 0.906654 0.043423 0.905400
O O1 0.066995 0.735858 0.837447
O O2 0.086864 0.927049 0.690260
O O3 0.000000 0.386862 0.750000
O O4 0.946494 0.182227 0.863312
O O5 0.074766 0.366857 0.965158
O O6 0.866345 0.371061 0.966664
O O7 0.735628 0.758673 0.622026
O O8 0.792510 0.930151 0.471370
O O9 0.696782 0.019451 0.658189
O O10 0.000000 0.000000 0.000000
#
# Coordination Sequence:
#
# PCOD9458297 Si02
#       5
#     4   8   8   8   8
#     4  12  24  46  76 104 152 192 240 316 372 430
#     4  11  24  45  73 108 152 189 246 309 362 450
#     4  11  25  47  73 104 146 199 245 301 383 431
#     4  11  27  47  73 108 149 188 252 306 368 456
#     4  11  22  47  70 105 151 191 248 308 368 453
#
# _framework density 25.614993999999999
#
# number of rings (size 3 to 8) (size 9 to 14) (size 15 to 20)
#    0.000    0.889    5.556    2.000    1.556    1.778 
#    8.000    0.000    0.000    0.000    0.000    0.000 
#    0.000    0.000    0.000    0.000    0.000    0.000 
#
# Total GULP energy -201042.798922 kJ/mol
# GULP energy per Si atom -5584.522192 kJ/mol
# Density = 2.555669 g / cm^3
# Si number density = 25.614994 Si / 1000 Ang^3
#
#
#
# Elastic Constant Matrix: (Units=GPa)
#
#
# Indices 1 2 3 4 5 6 
#
# 1 104.0003 71.4609 21.1143 0.0000 0.0000 0.0000
# 2 71.4609 183.4954 17.3434 0.0000 0.0000 0.0000
# 3 21.1143 17.3434 66.1178 0.0000 0.0000 0.0000
# 4 0.0000 0.0000 0.0000 16.5824 0.0000 0.0000
# 5 0.0000 0.0000 0.0000 0.0000 22.4926 0.0000
# 6 0.0000 0.0000 0.0000 0.0000 0.0000 45.9676
#
#
#
# Elastic Compliance Matrix: (Units=1/GPa)
#
#
# Indices 1 2 3 4 5 6 
#
# 1 0.013704 -0.005048 -0.003052 0.000000 0.000000 0.000000
# 2 -0.005048 0.007448 -0.000342 0.000000 0.000000 0.000000
# 3 -0.003052 -0.000342 0.016189 0.000000 0.000000 0.000000
# 4 0.000000 0.000000 0.000000 0.060305 0.000000 0.000000
# 5 0.000000 0.000000 0.000000 0.000000 0.044459 0.000000
# 6 0.000000 0.000000 0.000000 0.000000 0.000000 0.021754
#
#
# Mechanical properties :
#
#
# Convention : Reuss Voigt Hill
#
# Bulk Modulus (GPa) = 48.88343 63.71671 56.30007
# Shear Modulus (GPa) = 26.65786 33.25484 29.95635
#
# Velocity S-wave (km/s) = 3.22951 3.60704 3.42348
# Velocity P-wave (km/s) = 5.74732 6.50203 6.13629
#
# Compressibility (1/GPa) = 0.02045683
#
# Stress axis : x y z
#
# Youngs Moduli (GPa) = 72.97224 134.26302 61.77131
#
# Poissons Ratio (x) = 0.67781 0.18853
# Poissons Ratio (y) = 0.36839 0.02110
# Poissons Ratio (z) = 0.22271 0.04586
#
# Static dielectric constant tensor:
#      x y z
#    x 2.029780 0.000000 0.000000 
#    y 0.000000 1.991670 0.000000 
#    z 0.000000 0.000000 2.157110 
# 
# From -- ./inp_files/10671.got.cif
#   From: 2010.05.17/outbox.cif.g08.bks.cpg/sg60_6_cif.got.tgz:10671.got - 2010.06.03 14:59:27.
