data_PCOD9458838
_publ_section_title
;
Structure prediction by ZEFSAII (Michael W. Deem and Ramdas Pophale) SiO2 
 PCOD9458838
Probable space group: P B C N
;
_chemical_formula_sum "Si O2"
_cell_formula_units_Z 24
_cell_length_a 13.971763
_cell_length_b 7.201760
_cell_length_c 10.133439
_cell_angle_alpha 90.000000
_cell_angle_beta 90.000000
_cell_angle_gamma 90.000000
_cell_volume 1019.639643
_symmetry_space_group_name_H-M "P B C N"
_symmetry_group_IT_number 60
_symmetry_cell_setting 'orthorhombic'
loop_
_space_group_symop_operation_xyz
x,y,z
1/2-x,1/2-y,1/2+z
1/2+x,1/2-y,-z
-x,y,1/2-z
-x,-y,-z
1/2+x,1/2+y,1/2-z
1/2-x,1/2+y,z
x,-y,1/2+z
loop_
_atom_site_type_symbol
_atom_site_label
_atom_site_fract_x
_atom_site_fract_y
_atom_site_fract_z
Si Si1 0.195924 0.141689 0.031103
Si Si2 0.106178 0.879812 0.246168
Si Si3 0.897164 0.469373 0.929454
O O1 0.145926 0.108285 0.892064
O O2 0.148498 0.328471 0.088464
O O3 0.169593 0.990703 0.141506
O O4 0.309093 0.135466 0.996261
O O5 0.096680 0.665816 0.197025
O O6 0.000000 0.961974 0.250000
O O7 0.000000 0.500000 0.000000
#
# Coordination Sequence:
#
# PCOD9458838 Si02
#       3
#     8   8   8
#     4  12  29  50  80 116 164 204 269 333 392 480
#     4  12  28  50  81 120 157 212 267 326 408 472
#     4  12  28  50  78 115 160 212 265 322 401 477
#
# _framework density 23.537727
#
# number of rings (size 3 to 8) (size 9 to 14) (size 15 to 20)
#    0.000    0.000    6.667    1.000    4.667    4.000 
#    0.000    0.000    0.000    0.000    0.000    0.000 
#    0.000    0.000    0.000    0.000    0.000    0.000 
#
# Total GULP energy -134044.324330 kJ/mol
# GULP energy per Si atom -5585.180180 kJ/mol
# Density = 2.348415 g / cm^3
# Si number density = 23.537727 Si / 1000 Ang^3
#
#
#
# Elastic Constant Matrix: (Units=GPa)
#
#
# Indices 1 2 3 4 5 6 
#
# 1 184.4629 7.0767 12.5368 0.0000 0.0000 0.0000
# 2 7.0767 127.7965 7.2335 0.0000 0.0000 0.0000
# 3 12.5368 7.2335 96.6295 0.0000 0.0000 0.0000
# 4 0.0000 0.0000 0.0000 19.3144 0.0000 0.0000
# 5 0.0000 0.0000 0.0000 0.0000 42.6804 0.0000
# 6 0.0000 0.0000 0.0000 0.0000 0.0000 38.5936
#
#
#
# Elastic Compliance Matrix: (Units=1/GPa)
#
#
# Indices 1 2 3 4 5 6 
#
# 1 0.005478 -0.000264 -0.000691 0.000000 0.000000 0.000000
# 2 -0.000264 0.007871 -0.000555 0.000000 0.000000 0.000000
# 3 -0.000691 -0.000555 0.010480 0.000000 0.000000 0.000000
# 4 0.000000 0.000000 0.000000 0.051775 0.000000 0.000000
# 5 0.000000 0.000000 0.000000 0.000000 0.023430 0.000000
# 6 0.000000 0.000000 0.000000 0.000000 0.000000 0.025911
#
#
# Mechanical properties :
#
#
# Convention : Reuss Voigt Hill
#
# Bulk Modulus (GPa) = 48.05625 51.39808 49.72717
# Shear Modulus (GPa) = 37.06407 45.58715 41.32561
#
# Velocity S-wave (km/s) = 3.97251 4.40565 4.19467
# Velocity P-wave (km/s) = 6.44222 6.91112 6.68078
#
# Compressibility (1/GPa) = 0.02080895
#
# Stress axis : x y z
#
# Youngs Moduli (GPa) = 182.54027 127.04891 95.41986
#
# Poissons Ratio (x) = 0.03357 0.06593
# Poissons Ratio (y) = 0.04824 0.05295
# Poissons Ratio (z) = 0.12613 0.07050
#
# Static dielectric constant tensor:
#      x y z
#    x 1.930840 0.000000 0.000000 
#    y 0.000000 2.094840 0.000000 
#    z 0.000000 0.000000 1.766700 
# 
# From -- ./inp_files/5401.got.cif
#   From: 2010.05.17/outbox.cif.g08.bks.cpg/sg60_3_cif.got.tgz:5401.got - 2010.06.03 14:59:27.
