data_PCOD9458306
_publ_section_title
;
Structure prediction by ZEFSAII (Michael W. Deem and Ramdas Pophale) SiO2 
 PCOD9458306
Probable space group: P B C N
;
_chemical_formula_sum "Si O2"
_cell_formula_units_Z 64
_cell_length_a 12.800388
_cell_length_b 20.383754
_cell_length_c 11.550447
_cell_angle_alpha 90.000000
_cell_angle_beta 90.000000
_cell_angle_gamma 90.000000
_cell_volume 3013.742170
_symmetry_space_group_name_H-M "P B C N"
_symmetry_group_IT_number 60
_symmetry_cell_setting 'orthorhombic'
loop_
_space_group_symop_operation_xyz
x,y,z
1/2-x,1/2-y,1/2+z
1/2+x,1/2-y,-z
-x,y,1/2-z
-x,-y,-z
1/2+x,1/2+y,1/2-z
1/2-x,1/2+y,z
x,-y,1/2+z
loop_
_atom_site_type_symbol
_atom_site_label
_atom_site_fract_x
_atom_site_fract_y
_atom_site_fract_z
Si Si1 0.945084 0.089255 0.142350
Si Si2 0.382039 0.550765 0.765728
Si Si3 0.414130 0.733107 0.914828
Si Si4 0.149622 0.765855 0.157057
Si Si5 0.853547 0.609295 0.352113
Si Si6 0.849479 0.896721 0.987783
Si Si7 0.274823 0.387994 0.046577
Si Si8 0.917561 0.609632 0.087032
O O1 0.000000 0.127826 0.250000
O O2 0.041719 0.072992 0.057423
O O3 0.896885 0.025230 0.202866
O O4 0.852629 0.117327 0.063823
O O5 0.500000 0.577532 0.750000
O O6 0.323165 0.568335 0.648537
O O7 0.331991 0.581564 0.880407
O O8 0.352827 0.723260 0.794432
O O9 0.535029 0.714875 0.891262
O O10 0.414644 0.811258 0.932177
O O11 0.369881 0.681926 0.007283
O O12 0.157485 0.688437 0.137856
O O13 0.230765 0.814441 0.097982
O O14 0.747778 0.583845 0.408673
O O15 0.873599 0.595946 0.216353
O O16 0.961417 0.589429 0.415485
O O17 0.164978 0.416628 0.004637
#
# Coordination Sequence:
#
# PCOD9458306 Si02
#       8
#     8   8   8   8   8   8   8   8
#     4  11  25  36  56  89 116 148 197 253 309 353
#     4  11  23  38  57  88 115 156 196 245 315 363
#     4   9  16  30  55  84 120 155 199 227 288 361
#     4   9  16  31  55  87 118 160 192 229 287 369
#     4   9  20  36  58  86 122 155 200 235 289 355
#     4  12  19  35  58  85 115 157 193 247 295 359
#     4  12  20  37  61  83 119 160 201 241 304 357
#     4   9  20  37  56  86 116 163 198 239 285 361
#
# _framework density 21.236058
#
# number of rings (size 3 to 8) (size 9 to 14) (size 15 to 20)
#    0.000    1.750    3.750    3.375    1.750    0.000 
#    0.000    0.625    0.000    0.750    6.500    0.000 
#    0.000    0.000    0.000    0.000    0.000    0.000 
#
# Total GULP energy -357272.494289 kJ/mol
# GULP energy per Si atom -5582.382723 kJ/mol
# Density = 2.118772 g / cm^3
# Si number density = 21.236058 Si / 1000 Ang^3
#
#
#
# Elastic Constant Matrix: (Units=GPa)
#
#
# Indices 1 2 3 4 5 6 
#
# 1 104.3764 1.7073 34.7453 0.0000 0.0000 0.0000
# 2 1.7073 25.1373 13.4451 0.0000 0.0000 0.0000
# 3 34.7453 13.4451 64.9152 0.0000 0.0000 0.0000
# 4 0.0000 0.0000 0.0000 12.8184 0.0000 0.0000
# 5 0.0000 0.0000 0.0000 0.0000 42.0073 0.0000
# 6 0.0000 0.0000 0.0000 0.0000 0.0000 14.5394
#
#
#
# Elastic Compliance Matrix: (Units=1/GPa)
#
#
# Indices 1 2 3 4 5 6 
#
# 1 0.011844 0.002909 -0.006942 0.000000 0.000000 0.000000
# 2 0.002909 0.045452 -0.010971 0.000000 0.000000 0.000000
# 3 -0.006942 -0.010971 0.021392 0.000000 0.000000 0.000000
# 4 0.000000 0.000000 0.000000 0.078013 0.000000 0.000000
# 5 0.000000 0.000000 0.000000 0.000000 0.023805 0.000000
# 6 0.000000 0.000000 0.000000 0.000000 0.000000 0.068779
#
#
# Mechanical properties :
#
#
# Convention : Reuss Voigt Hill
#
# Bulk Modulus (GPa) = 20.54216 32.69161 26.61688
# Shear Modulus (GPa) = 16.91934 23.50844 20.21389
#
# Velocity S-wave (km/s) = 2.82570 3.33078 3.08858
# Velocity P-wave (km/s) = 4.51003 5.49727 5.02793
#
# Compressibility (1/GPa) = 0.04868037
#
# Stress axis : x y z
#
# Youngs Moduli (GPa) = 84.43130 22.00130 46.74542
#
# Poissons Ratio (x) = -0.06399 0.32450
# Poissons Ratio (y) = -0.24557 0.51283
# Poissons Ratio (z) = 0.58610 0.24137
#
# Static dielectric constant tensor:
#      x y z
#    x 1.786590 0.000000 0.000000 
#    y 0.000000 1.830520 0.000000 
#    z 0.000000 0.000000 1.774230 
# 
# From -- ./inp_files/11355.got.cif
#   From: 2010.05.17/outbox.cif.g08.bks.cpg/sg60_6_cif.got.tgz:11355.got - 2010.06.03 14:59:27.
