data_PCOD9458376
_publ_section_title
;
Structure prediction by ZEFSAII (Michael W. Deem and Ramdas Pophale) SiO2 
 PCOD9458376
Probable space group: P B C N
;
_chemical_formula_sum "Si O2"
_cell_formula_units_Z 64
_cell_length_a 7.531331
_cell_length_b 11.811584
_cell_length_c 30.155048
_cell_angle_alpha 90.000000
_cell_angle_beta 90.000000
_cell_angle_gamma 90.000000
_cell_volume 2682.501059
_symmetry_space_group_name_H-M "P B C N"
_symmetry_group_IT_number 60
_symmetry_cell_setting 'orthorhombic'
loop_
_space_group_symop_operation_xyz
x,y,z
1/2-x,1/2-y,1/2+z
1/2+x,1/2-y,-z
-x,y,1/2-z
-x,-y,-z
1/2+x,1/2+y,1/2-z
1/2-x,1/2+y,z
x,-y,1/2+z
loop_
_atom_site_type_symbol
_atom_site_label
_atom_site_fract_x
_atom_site_fract_y
_atom_site_fract_z
Si Si1 0.916197 0.234949 0.942649
Si Si2 0.101378 0.621075 0.138229
Si Si3 0.469435 0.205258 0.700878
Si Si4 0.408732 0.099088 0.889284
Si Si5 0.940941 0.947363 0.823223
Si Si6 0.537893 0.503597 0.079699
Si Si7 0.045015 0.800389 0.200004
Si Si8 0.170048 0.774784 0.959262
O O1 0.124327 0.273055 0.943978
O O2 0.829743 0.296036 0.900644
O O3 0.914745 0.099138 0.936148
O O4 0.835774 0.265525 0.990086
O O5 0.227756 0.568697 0.176591
O O6 0.972907 0.707358 0.165395
O O7 0.025554 0.513643 0.112569
O O8 0.500000 0.157726 0.750000
O O9 0.571655 0.149351 0.660024
O O10 0.521188 0.338410 0.700343
O O11 0.258077 0.198670 0.692145
O O12 0.442471 0.192751 0.926972
O O13 0.215353 0.056260 0.902662
O O14 0.968330 0.938658 0.875832
O O15 0.008107 0.068970 0.807637
O O16 0.588862 0.599774 0.044893
O O17 0.000000 0.768756 0.250000
#
# Coordination Sequence:
#
# PCOD9458376 Si02
#       8
#     8   8   8   8   8   8   8   8
#     4  11  25  43  67 100 134 175 222 276 337 394
#     4  11  24  45  67  96 135 177 219 271 333 394
#     4  11  25  43  65  98 132 172 220 271 330 392
#     4  11  24  45  67  94 134 175 221 271 335 392
#     4  11  23  43  70  95 129 174 221 272 331 396
#     4  11  23  43  71  95 130 177 225 274 332 400
#     4  11  25  43  68 100 133 172 220 273 332 393
#     4  11  25  43  67 100 134 174 222 277 332 402
#
# _framework density 23.858329999999999
#
# number of rings (size 3 to 8) (size 9 to 14) (size 15 to 20)
#    0.000    1.000    5.000    0.750    3.500    3.000 
#    0.000    0.000    0.000    0.000    0.000    0.000 
#    0.000    0.000    0.000    0.000    0.000    0.000 
#
# Total GULP energy -357664.161917 kJ/mol
# GULP energy per Si atom -5588.502530 kJ/mol
# Density = 2.380403 g / cm^3
# Si number density = 23.858330 Si / 1000 Ang^3
#
#
#
# Elastic Constant Matrix: (Units=GPa)
#
#
# Indices 1 2 3 4 5 6 
#
# 1 33.2049 13.9467 -1.4223 0.0000 0.0000 0.0000
# 2 13.9467 118.5958 44.6039 0.0000 0.0000 0.0000
# 3 -1.4223 44.6039 163.2012 0.0000 0.0000 0.0000
# 4 0.0000 0.0000 0.0000 16.4904 0.0000 0.0000
# 5 0.0000 0.0000 0.0000 0.0000 29.7855 0.0000
# 6 0.0000 0.0000 0.0000 0.0000 0.0000 16.2782
#
#
#
# Elastic Compliance Matrix: (Units=1/GPa)
#
#
# Indices 1 2 3 4 5 6 
#
# 1 0.031989 -0.004310 0.001457 0.000000 0.000000 0.000000
# 2 -0.004310 0.009979 -0.002765 0.000000 0.000000 0.000000
# 3 0.001457 -0.002765 0.006896 0.000000 0.000000 0.000000
# 4 0.000000 0.000000 0.000000 0.060641 0.000000 0.000000
# 5 0.000000 0.000000 0.000000 0.000000 0.033573 0.000000
# 6 0.000000 0.000000 0.000000 0.000000 0.000000 0.061432
#
#
# Mechanical properties :
#
#
# Convention : Reuss Voigt Hill
#
# Bulk Modulus (GPa) = 26.57641 47.69538 37.13589
# Shear Modulus (GPa) = 21.90222 29.70241 25.80231
#
# Velocity S-wave (km/s) = 3.03316 3.53221 3.29215
# Velocity P-wave (km/s) = 4.84047 6.05556 5.48179
#
# Compressibility (1/GPa) = 0.03762735
#
# Stress axis : x y z
#
# Youngs Moduli (GPa) = 31.26118 100.21407 145.01723
#
# Poissons Ratio (x) = 0.43189 -0.21124
# Poissons Ratio (y) = 0.13472 0.40094
# Poissons Ratio (z) = -0.04554 0.27707
#
# Static dielectric constant tensor:
#      x y z
#    x 2.113610 0.000000 0.000000 
#    y 0.000000 1.943570 0.000000 
#    z 0.000000 0.000000 1.848480 
# 
# From -- ./inp_files/26000.got.cif
#   From: 2010.05.17/outbox.cif.g08.bks.cpg/sg60_13_cif.got.tgz:26000.got - 2010.06.03 14:59:27.
