data_PCOD9458444
_publ_section_title
;
Structure prediction by ZEFSAII (Michael W. Deem and Ramdas Pophale) SiO2 
 PCOD9458444
Probable space group: P B C N
;
_chemical_formula_sum "Si O2"
_cell_formula_units_Z 48
_cell_length_a 4.902682
_cell_length_b 14.339276
_cell_length_c 27.188600
_cell_angle_alpha 90.000000
_cell_angle_beta 90.000000
_cell_angle_gamma 90.000000
_cell_volume 1911.383331
_symmetry_space_group_name_H-M "P B C N"
_symmetry_group_IT_number 60
_symmetry_cell_setting 'orthorhombic'
loop_
_space_group_symop_operation_xyz
x,y,z
1/2-x,1/2-y,1/2+z
1/2+x,1/2-y,-z
-x,y,1/2-z
-x,-y,-z
1/2+x,1/2+y,1/2-z
1/2-x,1/2+y,z
x,-y,1/2+z
loop_
_atom_site_type_symbol
_atom_site_label
_atom_site_fract_x
_atom_site_fract_y
_atom_site_fract_z
Si Si1 0.414446 0.186208 0.445205
Si Si2 0.558313 0.010376 0.847474
Si Si3 0.329482 0.788197 0.126964
Si Si4 0.756668 0.344398 0.782954
Si Si5 0.950059 0.970028 0.591748
Si Si6 0.192163 0.367134 0.465486
O O1 0.580865 0.236996 0.401430
O O2 0.156408 0.131717 0.422871
O O3 0.364894 0.276362 0.479014
O O4 0.534536 0.112965 0.484512
O O5 0.616645 0.939112 0.804400
O O6 0.242512 0.002714 0.862737
O O7 0.736538 0.970881 0.893408
O O8 0.679208 0.113880 0.842871
O O9 0.367271 0.715449 0.171595
O O10 0.518721 0.828161 0.081596
O O11 0.500000 0.366780 0.750000
O O12 0.000000 0.298769 0.750000
O O13 0.880318 0.048369 0.551711
#
# Coordination Sequence:
#
# PCOD9458444 Si02
#       6
#     8   8   8   8   8   8
#     4  12  22  42  67 102 147 189 233 278 337 417
#     4  11  24  46  70 100 136 178 227 289 349 409
#     4  11  25  45  70 101 142 184 230 287 352 416
#     4  12  28  47  74 102 131 180 234 297 364 418
#     4  11  24  41  71  99 142 188 227 280 336 406
#     4  11  24  41  66 108 143 192 233 281 340 415
#
# _framework density 25.112701000000001
#
# number of rings (size 3 to 8) (size 9 to 14) (size 15 to 20)
#    0.000    0.667    5.000    2.500    2.333    1.333 
#    0.000    3.333    0.000    0.000    0.000    0.000 
#    0.000    0.000    0.000    0.000    0.000    0.000 
#
# Total GULP energy -268076.741354 kJ/mol
# GULP energy per Si atom -5584.932112 kJ/mol
# Density = 2.505554 g / cm^3
# Si number density = 25.112701 Si / 1000 Ang^3
#
#
#
# Elastic Constant Matrix: (Units=GPa)
#
#
# Indices 1 2 3 4 5 6 
#
# 1 55.8711 -4.0132 23.3793 0.0000 0.0000 0.0000
# 2 -4.0132 117.1037 22.3283 0.0000 0.0000 0.0000
# 3 23.3793 22.3283 116.5004 0.0000 0.0000 0.0000
# 4 0.0000 0.0000 0.0000 22.5732 0.0000 0.0000
# 5 0.0000 0.0000 0.0000 0.0000 47.8461 0.0000
# 6 0.0000 0.0000 0.0000 0.0000 0.0000 20.7434
#
#
#
# Elastic Compliance Matrix: (Units=1/GPa)
#
#
# Indices 1 2 3 4 5 6 
#
# 1 0.019786 0.001490 -0.004256 0.000000 0.000000 0.000000
# 2 0.001490 0.008975 -0.002019 0.000000 0.000000 0.000000
# 3 -0.004256 -0.002019 0.009825 0.000000 0.000000 0.000000
# 4 0.000000 0.000000 0.000000 0.044300 0.000000 0.000000
# 5 0.000000 0.000000 0.000000 0.000000 0.020900 0.000000
# 6 0.000000 0.000000 0.000000 0.000000 0.000000 0.048208
#
#
# Mechanical properties :
#
#
# Convention : Reuss Voigt Hill
#
# Bulk Modulus (GPa) = 34.46479 41.42931 37.94705
# Shear Modulus (GPa) = 29.19903 34.75127 31.97515
#
# Velocity S-wave (km/s) = 3.41357 3.72400 3.57216
# Velocity P-wave (km/s) = 5.41206 5.91811 5.67074
#
# Compressibility (1/GPa) = 0.02901512
#
# Stress axis : x y z
#
# Youngs Moduli (GPa) = 50.53985 111.41458 101.78329
#
# Poissons Ratio (x) = -0.16597 0.43321
# Poissons Ratio (y) = -0.07529 0.20552
# Poissons Ratio (z) = 0.21511 0.22496
#
# Static dielectric constant tensor:
#      x y z
#    x 2.074020 0.000000 0.000000 
#    y 0.000000 2.005970 0.000000 
#    z 0.000000 0.000000 1.979280 
# 
# From -- ./inp_files/24863.got.cif
#   From: 2010.05.17/outbox.cif.g08.bks.cpg/sg60_13_cif.got.tgz:24863.got - 2010.06.03 14:59:27.
