data_PCOD9458578
_publ_section_title
;
Structure prediction by ZEFSAII (Michael W. Deem and Ramdas Pophale) SiO2 
 PCOD9458578
Probable space group: P B C N
;
_chemical_formula_sum "Si O2"
_cell_formula_units_Z 36
_cell_length_a 13.750133
_cell_length_b 10.076413
_cell_length_c 12.145194
_cell_angle_alpha 90.000000
_cell_angle_beta 90.000000
_cell_angle_gamma 90.000000
_cell_volume 1682.741149
_symmetry_space_group_name_H-M "P B C N"
_symmetry_group_IT_number 60
_symmetry_cell_setting 'orthorhombic'
loop_
_space_group_symop_operation_xyz
x,y,z
1/2-x,1/2-y,1/2+z
1/2+x,1/2-y,-z
-x,y,1/2-z
-x,-y,-z
1/2+x,1/2+y,1/2-z
1/2-x,1/2+y,z
x,-y,1/2+z
loop_
_atom_site_type_symbol
_atom_site_label
_atom_site_fract_x
_atom_site_fract_y
_atom_site_fract_z
Si Si1 0.500000 0.343493 0.750000
Si Si2 0.213589 0.045449 0.230907
Si Si3 0.631681 0.082099 0.077065
Si Si4 0.726881 0.706432 0.901565
Si Si5 0.542857 0.204406 0.522113
O O1 0.398254 0.421856 0.758609
O O2 0.497943 0.260949 0.635420
O O3 0.294533 0.079759 0.321739
O O4 0.242731 0.144905 0.131346
O O5 0.219610 0.890318 0.202839
O O6 0.592839 0.934383 0.055736
O O7 0.692403 0.138219 0.975758
O O8 0.535858 0.173968 0.073249
O O9 0.626935 0.706315 0.969714
#
# Coordination Sequence:
#
# PCOD9458578 Si02
#       5
#     4   8   8   8   8
#     4  12  24  44  70 106 142 188 238 298 358 424
#     4  12  27  44  74 104 145 187 238 295 362 422
#     4  11  25  46  75 105 145 187 239 296 360 432
#     4  12  25  48  70 106 142 188 236 297 356 428
#     4  11  25  46  76 105 141 191 243 292 360 434
#
# _framework density 21.393664999999999
#
# number of rings (size 3 to 8) (size 9 to 14) (size 15 to 20)
#    0.000    0.444    6.667    1.333    0.000    3.556 
#    0.000    0.000    0.000    0.000    0.000    0.000 
#    0.000    0.000    0.000    0.000    0.000    0.000 
#
# Total GULP energy -201104.872493 kJ/mol
# GULP energy per Si atom -5586.246458 kJ/mol
# Density = 2.134497 g / cm^3
# Si number density = 21.393665 Si / 1000 Ang^3
#
#
#
# Elastic Constant Matrix: (Units=GPa)
#
#
# Indices 1 2 3 4 5 6 
#
# 1 116.4386 11.1565 9.1159 0.0000 0.0000 0.0000
# 2 11.1565 48.7909 -12.1163 0.0000 0.0000 0.0000
# 3 9.1159 -12.1163 25.9826 0.0000 0.0000 0.0000
# 4 0.0000 0.0000 0.0000 14.9484 0.0000 0.0000
# 5 0.0000 0.0000 0.0000 0.0000 48.8652 0.0000
# 6 0.0000 0.0000 0.0000 0.0000 0.0000 4.2193
#
#
#
# Elastic Compliance Matrix: (Units=1/GPa)
#
#
# Indices 1 2 3 4 5 6 
#
# 1 0.009282 -0.003315 -0.004802 0.000000 0.000000 0.000000
# 2 -0.003315 0.024364 0.012524 0.000000 0.000000 0.000000
# 3 -0.004802 0.012524 0.046013 0.000000 0.000000 0.000000
# 4 0.000000 0.000000 0.000000 0.066897 0.000000 0.000000
# 5 0.000000 0.000000 0.000000 0.000000 0.020464 0.000000
# 6 0.000000 0.000000 0.000000 0.000000 0.000000 0.237009
#
#
# Mechanical properties :
#
#
# Convention : Reuss Voigt Hill
#
# Bulk Modulus (GPa) = 11.30293 23.05825 17.18059
# Shear Modulus (GPa) = 11.77289 25.81031 18.79160
#
# Velocity S-wave (km/s) = 2.34839 3.47716 2.96695
# Velocity P-wave (km/s) = 3.55640 5.18867 4.44805
#
# Compressibility (1/GPa) = 0.08847265
#
# Stress axis : x y z
#
# Youngs Moduli (GPa) = 107.73764 41.04442 21.73319
#
# Poissons Ratio (x) = 0.13606 0.10437
# Poissons Ratio (y) = 0.35714 -0.27220
# Poissons Ratio (z) = 0.51739 -0.51406
#
# Static dielectric constant tensor:
#      x y z
#    x 1.810140 0.000000 0.000000 
#    y 0.000000 1.747220 0.000000 
#    z 0.000000 0.000000 1.801590 
# 
# From -- ./inp_files/10647.got.cif
#   From: 2010.05.17/outbox.cif.g08.bks.cpg/sg60_6_cif.got.tgz:10647.got - 2010.06.03 14:59:27.
