data_PCOD9458512
_publ_section_title
;
Structure prediction by ZEFSAII (Michael W. Deem and Ramdas Pophale) SiO2 
 PCOD9458512
Probable space group: P B C N
;
_chemical_formula_sum "Si O2"
_cell_formula_units_Z 48
_cell_length_a 9.904014
_cell_length_b 13.393314
_cell_length_c 16.431714
_cell_angle_alpha 90.000000
_cell_angle_beta 90.000000
_cell_angle_gamma 90.000000
_cell_volume 2179.626923
_symmetry_space_group_name_H-M "P B C N"
_symmetry_group_IT_number 60
_symmetry_cell_setting 'orthorhombic'
loop_
_space_group_symop_operation_xyz
x,y,z
1/2-x,1/2-y,1/2+z
1/2+x,1/2-y,-z
-x,y,1/2-z
-x,-y,-z
1/2+x,1/2+y,1/2-z
1/2-x,1/2+y,z
x,-y,1/2+z
loop_
_atom_site_type_symbol
_atom_site_label
_atom_site_fract_x
_atom_site_fract_y
_atom_site_fract_z
Si Si1 0.453253 0.217540 0.073897
Si Si2 0.736941 0.652216 0.836943
Si Si3 0.231496 0.530735 0.824000
Si Si4 0.047228 0.504567 0.594741
Si Si5 0.847697 0.821278 0.729590
Si Si6 0.252616 0.703700 0.925231
O O1 0.402143 0.312704 0.124172
O O2 0.611388 0.234410 0.056963
O O3 0.428191 0.111126 0.117288
O O4 0.355383 0.211637 0.996487
O O5 0.720929 0.590028 0.755000
O O6 0.831143 0.582218 0.893002
O O7 0.802893 0.757188 0.808386
O O8 0.268236 0.418092 0.801797
O O9 0.291038 0.589143 0.902495
O O10 0.072820 0.537153 0.845163
O O11 0.000000 0.500000 0.500000
O O12 0.823301 0.746885 0.654003
O O13 0.000000 0.850713 0.750000
#
# Coordination Sequence:
#
# PCOD9458512 Si02
#       6
#     8   8   8   8   8   8
#     4  12  26  46  77 109 149 197 255 313 383 449
#     4  11  26  43  71 105 144 193 252 310 372 454
#     4  11  24  46  72 105 149 195 247 310 377 460
#     4  12  23  47  76 108 148 203 249 305 382 464
#     4  11  25  44  71 104 150 192 245 309 382 439
#     4  11  26  47  73 109 149 197 253 312 376 454
#
# _framework density 22.022117999999999
#
# number of rings (size 3 to 8) (size 9 to 14) (size 15 to 20)
#    0.000    0.667    3.333    4.500    4.667    2.000 
#    0.000    1.667    0.000    0.000    0.000    0.000 
#    0.000    0.000    0.000    0.000    0.000    0.000 
#
# Total GULP energy -267965.357179 kJ/mol
# GULP energy per Si atom -5582.611608 kJ/mol
# Density = 2.197199 g / cm^3
# Si number density = 22.022118 Si / 1000 Ang^3
#
#
#
# Elastic Constant Matrix: (Units=GPa)
#
#
# Indices 1 2 3 4 5 6 
#
# 1 102.0339 29.0783 34.7269 0.0000 0.0000 0.0000
# 2 29.0783 125.9320 20.3811 0.0000 0.0000 0.0000
# 3 34.7269 20.3811 77.8966 0.0000 0.0000 0.0000
# 4 0.0000 0.0000 0.0000 42.3956 0.0000 0.0000
# 5 0.0000 0.0000 0.0000 0.0000 23.4572 0.0000
# 6 0.0000 0.0000 0.0000 0.0000 0.0000 43.3454
#
#
#
# Elastic Compliance Matrix: (Units=1/GPa)
#
#
# Indices 1 2 3 4 5 6 
#
# 1 0.012014 -0.001992 -0.004835 0.000000 0.000000 0.000000
# 2 -0.001992 0.008622 -0.001368 0.000000 0.000000 0.000000
# 3 -0.004835 -0.001368 0.015351 0.000000 0.000000 0.000000
# 4 0.000000 0.000000 0.000000 0.023587 0.000000 0.000000
# 5 0.000000 0.000000 0.000000 0.000000 0.042631 0.000000
# 6 0.000000 0.000000 0.000000 0.000000 0.000000 0.023070
#
#
# Mechanical properties :
#
#
# Convention : Reuss Voigt Hill
#
# Bulk Modulus (GPa) = 51.02580 52.69280 51.85930
# Shear Modulus (GPa) = 33.73894 36.61804 35.17849
#
# Velocity S-wave (km/s) = 3.91838 4.08215 4.00111
# Velocity P-wave (km/s) = 6.61001 6.79689 6.70410
#
# Compressibility (1/GPa) = 0.01959793
#
# Stress axis : x y z
#
# Youngs Moduli (GPa) = 83.23823 115.98148 65.14308
#
# Poissons Ratio (x) = 0.23098 0.31495
# Poissons Ratio (y) = 0.16577 0.08912
# Poissons Ratio (z) = 0.40243 0.15867
#
# Static dielectric constant tensor:
#      x y z
#    x 1.807560 0.000000 0.000000 
#    y 0.000000 1.883760 0.000000 
#    z 0.000000 0.000000 1.823610 
# 
# From -- ./inp_files/19311.got.cif
#   From: 2010.05.17/outbox.cif.g08.bks.cpg/sg60_10_cif.got.tgz:19311.got - 2010.06.03 14:59:27.
