data_PCOD9458067
_publ_section_title
;
Structure prediction by ZEFSAII (Michael W. Deem and Ramdas Pophale) SiO2 
 PCOD9458067
Probable space group: P B C N
;
_chemical_formula_sum "Si O2"
_cell_formula_units_Z 48
_cell_length_a 9.114724
_cell_length_b 8.740566
_cell_length_c 30.625338
_cell_angle_alpha 90.000000
_cell_angle_beta 90.000000
_cell_angle_gamma 90.000000
_cell_volume 2439.854733
_symmetry_space_group_name_H-M "P B C N"
_symmetry_group_IT_number 60
_symmetry_cell_setting 'orthorhombic'
loop_
_space_group_symop_operation_xyz
x,y,z
1/2-x,1/2-y,1/2+z
1/2+x,1/2-y,-z
-x,y,1/2-z
-x,-y,-z
1/2+x,1/2+y,1/2-z
1/2-x,1/2+y,z
x,-y,1/2+z
loop_
_atom_site_type_symbol
_atom_site_label
_atom_site_fract_x
_atom_site_fract_y
_atom_site_fract_z
Si Si1 0.806290 0.204285 0.666104
Si Si2 0.553868 0.064754 0.545520
Si Si3 0.651377 0.844113 0.373568
Si Si4 0.305609 0.654857 0.424460
Si Si5 0.547418 0.013598 0.700216
Si Si6 0.545235 0.499225 0.874758
O O1 0.729104 0.252164 0.620254
O O2 0.885100 0.353026 0.684652
O O3 0.676267 0.138565 0.695289
O O4 0.927404 0.072358 0.658361
O O5 0.431505 0.105339 0.581852
O O6 0.646630 0.220765 0.540245
O O7 0.500000 0.000000 0.500000
O O8 0.661849 0.938569 0.565153
O O9 0.617320 0.665549 0.364419
O O10 0.581237 0.937723 0.333236
O O11 0.822308 0.882107 0.379503
O O12 0.441277 0.540125 0.416031
O O13 0.500000 0.004115 0.750000
#
# Coordination Sequence:
#
# PCOD9458067 Si02
#       6
#     8   8   8   8   8   8
#     4  12  20  46  70  92 134 189 229 272 350 415
#     4  11  24  41  68 101 135 176 236 279 339 413
#     4  11  23  42  63 103 135 177 232 289 340 401
#     4  11  20  44  70  92 130 193 220 274 348 408
#     4  12  25  42  69 101 135 179 237 285 340 412
#     4  11  22  39  73  91 131 186 223 280 347 405
#
# _framework density 19.673300000000001
#
# number of rings (size 3 to 8) (size 9 to 14) (size 15 to 20)
#    0.000    0.667    8.333    1.000    0.000    5.333 
#    0.000    3.333    0.000    0.000    0.000    0.000 
#    0.000    0.000    0.000    0.000    0.000    0.000 
#
# Total GULP energy -268120.139976 kJ/mol
# GULP energy per Si atom -5585.836250 kJ/mol
# Density = 1.962852 g / cm^3
# Si number density = 19.673300 Si / 1000 Ang^3
#
#
#
# Elastic Constant Matrix: (Units=GPa)
#
#
# Indices 1 2 3 4 5 6 
#
# 1 99.1982 12.6225 17.2604 0.0000 0.0000 0.0000
# 2 12.6225 48.3091 0.5891 0.0000 0.0000 0.0000
# 3 17.2604 0.5891 41.8473 0.0000 0.0000 0.0000
# 4 0.0000 0.0000 0.0000 23.8955 0.0000 0.0000
# 5 0.0000 0.0000 0.0000 0.0000 29.9578 0.0000
# 6 0.0000 0.0000 0.0000 0.0000 0.0000 40.5857
#
#
#
# Elastic Compliance Matrix: (Units=1/GPa)
#
#
# Indices 1 2 3 4 5 6 
#
# 1 0.011248 -0.002883 -0.004599 0.000000 0.000000 0.000000
# 2 -0.002883 0.021442 0.000887 0.000000 0.000000 0.000000
# 3 -0.004599 0.000887 0.025781 0.000000 0.000000 0.000000
# 4 0.000000 0.000000 0.000000 0.041849 0.000000 0.000000
# 5 0.000000 0.000000 0.000000 0.000000 0.033380 0.000000
# 6 0.000000 0.000000 0.000000 0.000000 0.000000 0.024639
#
#
# Mechanical properties :
#
#
# Convention : Reuss Voigt Hill
#
# Bulk Modulus (GPa) = 22.08369 27.81096 24.94732
# Shear Modulus (GPa) = 26.79210 29.47997 28.13603
#
# Velocity S-wave (km/s) = 3.69433 3.87521 3.78585
# Velocity P-wave (km/s) = 5.42651 5.84723 5.64080
#
# Compressibility (1/GPa) = 0.04528230
#
# Stress axis : x y z
#
# Youngs Moduli (GPa) = 88.90604 46.63650 38.78867
#
# Poissons Ratio (x) = 0.13444 0.17838
# Poissons Ratio (y) = 0.25630 -0.03441
# Poissons Ratio (z) = 0.40885 -0.04138
#
# Static dielectric constant tensor:
#      x y z
#    x 1.697930 0.000000 0.000000 
#    y 0.000000 1.718720 0.000000 
#    z 0.000000 0.000000 1.753130 
# 
# From -- ./inp_files/25934.got.cif
#   From: 2010.05.17/outbox.cif.g08.bks.cpg/sg60_13_cif.got.tgz:25934.got - 2010.06.03 14:59:27.
