data_PCOD9458481
_publ_section_title
;
Structure prediction by ZEFSAII (Michael W. Deem and Ramdas Pophale) SiO2 
 PCOD9458481
Probable space group: P B C N
;
_chemical_formula_sum "Si O2"
_cell_formula_units_Z 32
_cell_length_a 13.161129
_cell_length_b 9.996308
_cell_length_c 10.809688
_cell_angle_alpha 90.000000
_cell_angle_beta 90.000000
_cell_angle_gamma 90.000000
_cell_volume 1422.151730
_symmetry_space_group_name_H-M "P B C N"
_symmetry_group_IT_number 60
_symmetry_cell_setting 'orthorhombic'
loop_
_space_group_symop_operation_xyz
x,y,z
1/2-x,1/2-y,1/2+z
1/2+x,1/2-y,-z
-x,y,1/2-z
-x,-y,-z
1/2+x,1/2+y,1/2-z
1/2-x,1/2+y,z
x,-y,1/2+z
loop_
_atom_site_type_symbol
_atom_site_label
_atom_site_fract_x
_atom_site_fract_y
_atom_site_fract_z
Si Si1 0.925880 0.322885 0.400275
Si Si2 0.350889 0.850447 0.361866
Si Si3 0.765405 0.912099 0.532313
Si Si4 0.937712 0.991050 0.872094
O O1 0.883716 0.391845 0.275823
O O2 0.844861 0.352710 0.503887
O O3 0.921782 0.167453 0.362535
O O4 0.041048 0.360794 0.433391
O O5 0.319001 0.695892 0.380003
O O6 0.260502 0.943999 0.410056
O O7 0.834068 0.932174 0.409008
O O8 0.000000 0.036756 0.750000
O O9 0.000000 0.000000 0.000000
#
# Coordination Sequence:
#
# PCOD9458481 Si02
#       4
#     8   8   8   8
#     4  11  24  44  68  98 147 184 238 307 358 430
#     4  11  25  45  68 104 144 186 239 304 365 434
#     4  12  25  42  73 101 137 190 242 289 375 434
#     4  12  24  45  73 105 145 192 242 303 363 439
#
# _framework density 22.501116
#
# number of rings (size 3 to 8) (size 9 to 14) (size 15 to 20)
#    0.000    0.500    7.500    0.750    7.000    0.000 
#    0.000    0.000    0.000    3.000    0.000    0.000 
#    0.000    0.000    0.000    0.000    0.000    0.000 
#
# Total GULP energy -178642.339107 kJ/mol
# GULP energy per Si atom -5582.573097 kJ/mol
# Density = 2.244990 g / cm^3
# Si number density = 22.501116 Si / 1000 Ang^3
#
#
#
# Elastic Constant Matrix: (Units=GPa)
#
#
# Indices 1 2 3 4 5 6 
#
# 1 119.1631 28.8756 28.7091 0.0000 0.0000 0.0000
# 2 28.8756 81.4636 17.1040 0.0000 0.0000 0.0000
# 3 28.7091 17.1040 79.1336 0.0000 0.0000 0.0000
# 4 0.0000 0.0000 0.0000 11.7852 0.0000 0.0000
# 5 0.0000 0.0000 0.0000 0.0000 49.3658 0.0000
# 6 0.0000 0.0000 0.0000 0.0000 0.0000 67.7947
#
#
#
# Elastic Compliance Matrix: (Units=1/GPa)
#
#
# Indices 1 2 3 4 5 6 
#
# 1 0.009791 -0.002854 -0.002935 0.000000 0.000000 0.000000
# 2 -0.002854 0.013691 -0.001924 0.000000 0.000000 0.000000
# 3 -0.002935 -0.001924 0.014117 0.000000 0.000000 0.000000
# 4 0.000000 0.000000 0.000000 0.084852 0.000000 0.000000
# 5 0.000000 0.000000 0.000000 0.000000 0.020257 0.000000
# 6 0.000000 0.000000 0.000000 0.000000 0.000000 0.014750
#
#
# Mechanical properties :
#
#
# Convention : Reuss Voigt Hill
#
# Bulk Modulus (GPa) = 45.09943 47.68197 46.39070
# Shear Modulus (GPa) = 27.73534 39.46058 33.59796
#
# Velocity S-wave (km/s) = 3.51468 4.19228 3.86835
# Velocity P-wave (km/s) = 6.04627 6.68361 6.37291
#
# Compressibility (1/GPa) = 0.02217323
#
# Stress axis : x y z
#
# Youngs Moduli (GPa) = 102.13882 73.04069 70.83418
#
# Poissons Ratio (x) = 0.20847 0.20790
# Poissons Ratio (y) = 0.29152 0.13627
# Poissons Ratio (z) = 0.29978 0.14051
#
# Static dielectric constant tensor:
#      x y z
#    x 1.925960 0.000000 0.000000 
#    y 0.000000 1.837590 0.000000 
#    z 0.000000 0.000000 1.968610 
# 
# From -- ./inp_files/10584.got.cif
#   From: 2010.05.17/outbox.cif.g08.bks.cpg/sg60_6_cif.got.tgz:10584.got - 2010.06.03 14:59:27.
