data_PCOD9458445
_publ_section_title
;
Structure prediction by ZEFSAII (Michael W. Deem and Ramdas Pophale) SiO2 
 PCOD9458445
Probable space group: P B C N
;
_chemical_formula_sum "Si O2"
_cell_formula_units_Z 48
_cell_length_a 13.959655
_cell_length_b 10.244758
_cell_length_c 19.300234
_cell_angle_alpha 90.000000
_cell_angle_beta 90.000000
_cell_angle_gamma 90.000000
_cell_volume 2760.189909
_symmetry_space_group_name_H-M "P B C N"
_symmetry_group_IT_number 60
_symmetry_cell_setting 'orthorhombic'
loop_
_space_group_symop_operation_xyz
x,y,z
1/2-x,1/2-y,1/2+z
1/2+x,1/2-y,-z
-x,y,1/2-z
-x,-y,-z
1/2+x,1/2+y,1/2-z
1/2-x,1/2+y,z
x,-y,1/2+z
loop_
_atom_site_type_symbol
_atom_site_label
_atom_site_fract_x
_atom_site_fract_y
_atom_site_fract_z
Si Si1 0.965322 0.865816 0.466491
Si Si2 0.749275 0.380584 0.124504
Si Si3 0.454663 0.029976 0.824949
Si Si4 0.945746 0.384585 0.460303
Si Si5 0.945577 0.216155 0.677661
Si Si6 0.738481 0.370651 0.525416
O O1 0.851595 0.860927 0.474925
O O2 0.010986 0.750023 0.511881
O O3 0.999682 0.845778 0.387981
O O4 0.000000 0.000000 0.500000
O O5 0.850477 0.406284 0.162100
O O6 0.661258 0.343820 0.174785
O O7 0.756860 0.260049 0.071277
O O8 0.727209 0.508472 0.078401
O O9 0.500000 0.051664 0.750000
O O10 0.527685 0.089295 0.881064
O O11 0.442417 0.873132 0.834576
O O12 0.835395 0.388599 0.482045
O O13 0.000000 0.500000 0.500000
O O14 0.000000 0.193232 0.750000
#
# Coordination Sequence:
#
# PCOD9458445 Si02
#       6
#     8   8   8   8   8   8
#     4  12  22  38  62  97 125 158 212 264 308 367
#     4  12  20  41  64  92 118 173 203 255 330 369
#     4  11  24  41  66  93 128 167 214 262 315 389
#     4  12  20  40  64  92 119 167 218 255 300 376
#     4  11  24  42  64  92 132 167 204 265 329 382
#     4  12  22  35  68  93 124 162 215 260 306 376
#
# _framework density 17.390108000000001
#
# number of rings (size 3 to 8) (size 9 to 14) (size 15 to 20)
#    0.000    0.333   10.000    0.000    0.000    1.333 
#    0.000    3.333    0.000    0.000    0.000    0.000 
#    0.000    0.000    0.000    0.000    0.000    0.000 
#
# Total GULP energy -268200.937748 kJ/mol
# GULP energy per Si atom -5587.519536 kJ/mol
# Density = 1.735053 g / cm^3
# Si number density = 17.390108 Si / 1000 Ang^3
#
#
#
# Elastic Constant Matrix: (Units=GPa)
#
#
# Indices 1 2 3 4 5 6 
#
# 1 166.1716 29.9942 70.1038 0.0000 0.0000 0.0000
# 2 29.9942 111.0551 52.1272 0.0000 0.0000 0.0000
# 3 70.1038 52.1272 142.3535 0.0000 0.0000 0.0000
# 4 0.0000 0.0000 0.0000 20.8569 0.0000 0.0000
# 5 0.0000 0.0000 0.0000 0.0000 32.7641 0.0000
# 6 0.0000 0.0000 0.0000 0.0000 0.0000 29.4372
#
#
#
# Elastic Compliance Matrix: (Units=1/GPa)
#
#
# Indices 1 2 3 4 5 6 
#
# 1 0.007608 -0.000358 -0.003616 0.000000 0.000000 0.000000
# 2 -0.000358 0.010890 -0.003812 0.000000 0.000000 0.000000
# 3 -0.003616 -0.003812 0.010201 0.000000 0.000000 0.000000
# 4 0.000000 0.000000 0.000000 0.047946 0.000000 0.000000
# 5 0.000000 0.000000 0.000000 0.000000 0.030521 0.000000
# 6 0.000000 0.000000 0.000000 0.000000 0.000000 0.033971
#
#
# Mechanical properties :
#
#
# Convention : Reuss Voigt Hill
#
# Bulk Modulus (GPa) = 76.16564 80.44784 78.30674
# Shear Modulus (GPa) = 31.03988 34.43527 32.73758
#
# Velocity S-wave (km/s) = 4.22941 4.45473 4.34353
# Velocity P-wave (km/s) = 8.23067 8.53350 8.38345
#
# Compressibility (1/GPa) = 0.01312928
#
# Stress axis : x y z
#
# Youngs Moduli (GPa) = 131.44481 91.82501 98.02888
#
# Poissons Ratio (x) = 0.03284 0.35443
# Poissons Ratio (y) = 0.04701 0.37366
# Poissons Ratio (z) = 0.47525 0.35001
#
# Static dielectric constant tensor:
#      x y z
#    x 1.602280 0.000000 0.000000 
#    y 0.000000 1.584740 0.000000 
#    z 0.000000 0.000000 1.569000 
# 
# From -- ./inp_files/20504.got.cif
#   From: 2010.05.17/outbox.cif.g08.bks.cpg/sg60_11_cif.got.tgz:20504.got - 2010.06.03 14:59:27.
