data_PCOD9458478
_publ_section_title
;
Structure prediction by ZEFSAII (Michael W. Deem and Ramdas Pophale) SiO2 
 PCOD9458478
Probable space group: P B C N
;
_chemical_formula_sum "Si O2"
_cell_formula_units_Z 64
_cell_length_a 30.570491
_cell_length_b 11.296813
_cell_length_c 8.911962
_cell_angle_alpha 90.000000
_cell_angle_beta 90.000000
_cell_angle_gamma 90.000000
_cell_volume 3077.738235
_symmetry_space_group_name_H-M "P B C N"
_symmetry_group_IT_number 60
_symmetry_cell_setting 'orthorhombic'
loop_
_space_group_symop_operation_xyz
x,y,z
1/2-x,1/2-y,1/2+z
1/2+x,1/2-y,-z
-x,y,1/2-z
-x,-y,-z
1/2+x,1/2+y,1/2-z
1/2-x,1/2+y,z
x,-y,1/2+z
loop_
_atom_site_type_symbol
_atom_site_label
_atom_site_fract_x
_atom_site_fract_y
_atom_site_fract_z
Si Si1 0.734220 0.913615 0.500643
Si Si2 0.134966 0.782454 0.710209
Si Si3 0.118448 0.651915 0.232541
Si Si4 0.321685 0.282520 0.420865
Si Si5 0.452842 0.395095 0.674144
Si Si6 0.647513 0.065171 0.578620
Si Si7 0.547832 0.350629 0.186808
Si Si8 0.795422 0.013757 0.242597
O O1 0.716458 0.780690 0.486033
O O2 0.769108 0.951237 0.376557
O O3 0.692501 0.002664 0.518620
O O4 0.758882 0.912446 0.657592
O O5 0.138021 0.759708 0.532449
O O6 0.084635 0.810773 0.742463
O O7 0.164430 0.900316 0.723698
O O8 0.154197 0.675086 0.807648
O O9 0.164879 0.714979 0.270351
O O10 0.120229 0.534181 0.332889
O O11 0.120381 0.613337 0.061185
O O12 0.080967 0.745775 0.270973
O O13 0.311797 0.413880 0.372810
O O14 0.500000 0.373402 0.750000
O O15 0.454362 0.379546 0.492610
O O16 0.439883 0.528687 0.723726
O O17 0.500000 0.319056 0.250000
#
# Coordination Sequence:
#
# PCOD9458478 Si02
#       8
#     8   8   8   8   8   8   8   8
#     4  11  25  44  64  93 134 185 233 287 351 409
#     4  12  26  43  70 101 138 184 233 297 352 424
#     4  11  24  46  72  99 136 187 238 289 356 422
#     4  11  24  44  63  97 137 181 238 293 348 424
#     4  11  25  45  74 108 146 179 229 291 367 432
#     4  11  26  46  71  95 140 191 238 290 350 418
#     4  11  24  44  74 108 142 179 229 292 362 434
#     4  12  26  40  66 101 134 181 238 295 352 418
#
# _framework density 20.794491000000001
#
# number of rings (size 3 to 8) (size 9 to 14) (size 15 to 20)
#    0.000    0.750    2.500    6.000    8.750    0.000 
#    0.000    1.250    0.000    0.000    0.000    0.000 
#    0.000    0.000    0.000    0.000    0.000    0.000 
#
# Total GULP energy -357346.826233 kJ/mol
# GULP energy per Si atom -5583.544160 kJ/mol
# Density = 2.074716 g / cm^3
# Si number density = 20.794491 Si / 1000 Ang^3
#
#
#
# Elastic Constant Matrix: (Units=GPa)
#
#
# Indices 1 2 3 4 5 6 
#
# 1 48.9847 31.2122 24.7258 0.0000 0.0000 0.0000
# 2 31.2122 88.0462 41.0276 0.0000 0.0000 0.0000
# 3 24.7258 41.0276 110.4473 0.0000 0.0000 0.0000
# 4 0.0000 0.0000 0.0000 29.5482 0.0000 0.0000
# 5 0.0000 0.0000 0.0000 0.0000 20.7017 0.0000
# 6 0.0000 0.0000 0.0000 0.0000 0.0000 22.8566
#
#
#
# Elastic Compliance Matrix: (Units=1/GPa)
#
#
# Indices 1 2 3 4 5 6 
#
# 1 0.027185 -0.008225 -0.003031 0.000000 0.000000 0.000000
# 2 -0.008225 0.016224 -0.004185 0.000000 0.000000 0.000000
# 3 -0.003031 -0.004185 0.011287 0.000000 0.000000 0.000000
# 4 0.000000 0.000000 0.000000 0.033843 0.000000 0.000000
# 5 0.000000 0.000000 0.000000 0.000000 0.048305 0.000000
# 6 0.000000 0.000000 0.000000 0.000000 0.000000 0.043751
#
#
# Mechanical properties :
#
#
# Convention : Reuss Voigt Hill
#
# Bulk Modulus (GPa) = 41.99138 49.04549 45.51843
# Shear Modulus (GPa) = 22.78793 24.65550 23.72171
#
# Velocity S-wave (km/s) = 3.31397 3.44710 3.38119
# Velocity P-wave (km/s) = 5.90598 6.28334 6.09758
#
# Compressibility (1/GPa) = 0.02381441
#
# Stress axis : x y z
#
# Youngs Moduli (GPa) = 36.78501 61.63867 88.59558
#
# Poissons Ratio (x) = 0.50697 0.26850
# Poissons Ratio (y) = 0.30255 0.37079
# Poissons Ratio (z) = 0.11148 0.25797
#
# Static dielectric constant tensor:
#      x y z
#    x 1.766870 0.000000 0.000000 
#    y 0.000000 1.789910 0.000000 
#    z 0.000000 0.000000 1.825450 
# 
# From -- ./inp_files/8495.got.cif
#   From: 2010.05.17/outbox.cif.g08.bks.cpg/sg60_5_cif.got.tgz:8495.got - 2010.06.03 14:59:27.
