data_PCOD9458307
_publ_section_title
;
Structure prediction by ZEFSAII (Michael W. Deem and Ramdas Pophale) SiO2 
 PCOD9458307
Probable space group: P B C N
;
_chemical_formula_sum "Si O2"
_cell_formula_units_Z 48
_cell_length_a 28.787459
_cell_length_b 6.907946
_cell_length_c 9.056237
_cell_angle_alpha 90.000000
_cell_angle_beta 90.000000
_cell_angle_gamma 90.000000
_cell_volume 1800.943324
_symmetry_space_group_name_H-M "P B C N"
_symmetry_group_IT_number 60
_symmetry_cell_setting 'orthorhombic'
loop_
_space_group_symop_operation_xyz
x,y,z
1/2-x,1/2-y,1/2+z
1/2+x,1/2-y,-z
-x,y,1/2-z
-x,-y,-z
1/2+x,1/2+y,1/2-z
1/2-x,1/2+y,z
x,-y,1/2+z
loop_
_atom_site_type_symbol
_atom_site_label
_atom_site_fract_x
_atom_site_fract_y
_atom_site_fract_z
Si Si1 0.207176 0.892501 0.094298
Si Si2 0.701446 0.768951 0.243246
Si Si3 0.442831 0.730494 0.011599
Si Si4 0.955185 0.233311 0.934687
Si Si5 0.397259 0.797365 0.297859
Si Si6 0.878777 0.166034 0.713183
O O1 0.253423 0.876910 0.194899
O O2 0.164847 0.792510 0.183354
O O3 0.195404 0.116954 0.120729
O O4 0.210533 0.822165 0.923613
O O5 0.653511 0.887316 0.224380
O O6 0.451108 0.496833 0.026134
O O7 0.435981 0.817265 0.173304
O O8 0.491675 0.793647 0.941765
O O9 0.390263 0.745936 0.947410
O O10 0.926432 0.240189 0.785884
O O11 0.923477 0.343763 0.052485
O O12 0.382772 0.567777 0.300587
#
# Coordination Sequence:
#
# PCOD9458307 Si02
#       6
#     8   8   8   8   8   8
#     4  11  23  38  58  80 110 145 185 228 275 325
#     4  11  23  38  58  80 110 145 185 228 275 325
#     4   9  16  22  41  62  97 135 171 207 252 319
#     4   9  14  26  37  64  95 135 171 207 254 315
#     4   9  17  27  43  66  99 135 173 211 263 313
#     4   9  17  27  43  66  99 135 173 211 263 313
#
# _framework density 26.652698000000001
#
# number of rings (size 3 to 8) (size 9 to 14) (size 15 to 20)
#    0.000    2.333    1.667    2.000    9.333    4.000 
#    0.000    0.000    0.000    0.000    0.000    0.000 
#    0.000    8.000    0.000    0.000    0.000    0.000 
#
# Total GULP energy -267848.727257 kJ/mol
# GULP energy per Si atom -5580.181818 kJ/mol
# Density = 2.659204 g / cm^3
# Si number density = 26.652698 Si / 1000 Ang^3
#
#
#
# Elastic Constant Matrix: (Units=GPa)
#
#
# Indices 1 2 3 4 5 6 
#
# 1 218.5538 2.5781 57.6766 0.0000 0.0000 0.0000
# 2 2.5781 74.4803 -11.7037 0.0000 0.0000 0.0000
# 3 57.6766 -11.7037 58.0856 0.0000 0.0000 0.0000
# 4 0.0000 0.0000 0.0000 -27.6385 0.0000 0.0000
# 5 0.0000 0.0000 0.0000 0.0000 56.2115 0.0000
# 6 0.0000 0.0000 0.0000 0.0000 0.0000 18.2521
#
#
#
# Elastic Compliance Matrix: (Units=1/GPa)
#
#
# Indices 1 2 3 4 5 6 
#
# 1 0.006310 -0.001242 -0.006516 0.000000 0.000000 0.000000
# 2 -0.001242 0.014110 0.004077 0.000000 0.000000 0.000000
# 3 -0.006516 0.004077 0.024507 0.000000 0.000000 0.000000
# 4 0.000000 0.000000 0.000000 -0.036181 0.000000 0.000000
# 5 0.000000 0.000000 0.000000 0.000000 0.017790 0.000000
# 6 0.000000 0.000000 0.000000 0.000000 0.000000 0.054788
#
#
# Mechanical properties :
#
#
# Convention : Reuss Voigt Hill
#
# Bulk Modulus (GPa) = 26.62114 49.80240 38.21177
# Shear Modulus (GPa) = 49.40351 29.53624 39.46988
#
# Velocity S-wave (km/s) = 4.31002 3.33256 3.85242
# Velocity P-wave (km/s) = 5.89730 5.79087 5.84433
#
# Compressibility (1/GPa) = 0.03756414
#
# Stress axis : x y z
#
# Youngs Moduli (GPa) = 158.48769 70.87196 40.80465
#
# Poissons Ratio (x) = 0.08804 0.26586
# Poissons Ratio (y) = 0.19688 -0.16634
# Poissons Ratio (z) = 1.03263 -0.28891
#
# Static dielectric constant tensor:
#      x y z
#    x 2.051470 0.000000 0.000000 
#    y 0.000000 2.272470 0.000000 
#    z 0.000000 0.000000 2.062670 
# 
# From -- ./inp_files/8440.got.cif
#   From: 2010.05.17/outbox.cif.g08.bks.cpg/sg60_5_cif.got.tgz:8440.got - 2010.06.03 14:59:27.
