data_PCOD9458164
_publ_section_title
;
Structure prediction by ZEFSAII (Michael W. Deem and Ramdas Pophale) SiO2 
 PCOD9458164
Probable space group: P B C N
;
_chemical_formula_sum "Si O2"
_cell_formula_units_Z 36
_cell_length_a 8.108251
_cell_length_b 13.706387
_cell_length_c 15.004024
_cell_angle_alpha 90.000000
_cell_angle_beta 90.000000
_cell_angle_gamma 90.000000
_cell_volume 1667.469598
_symmetry_space_group_name_H-M "P B C N"
_symmetry_group_IT_number 60
_symmetry_cell_setting 'orthorhombic'
loop_
_space_group_symop_operation_xyz
x,y,z
1/2-x,1/2-y,1/2+z
1/2+x,1/2-y,-z
-x,y,1/2-z
-x,-y,-z
1/2+x,1/2+y,1/2-z
1/2-x,1/2+y,z
x,-y,1/2+z
loop_
_atom_site_type_symbol
_atom_site_label
_atom_site_fract_x
_atom_site_fract_y
_atom_site_fract_z
Si Si1 0.855059 0.296713 0.026881
Si Si2 0.500000 0.502605 0.750000
Si Si3 0.681993 0.101083 0.030282
Si Si4 0.133726 0.050584 0.064752
Si Si5 0.654604 0.939637 0.184245
O O1 0.824593 0.182243 0.031678
O O2 0.863935 0.343362 0.124714
O O3 0.705615 0.349968 0.974391
O O4 0.017683 0.335793 0.978754
O O5 0.441500 0.443402 0.662815
O O6 0.663990 0.563858 0.728009
O O7 0.667913 0.031215 0.115782
O O8 0.715766 0.028120 0.947086
O O9 0.000000 0.000000 0.000000
O O10 0.500000 0.951142 0.250000
#
# Coordination Sequence:
#
# PCOD9458164 Si02
#       5
#     8   4   8   8   8
#     4  11  23  42  69  96 137 183 230 282 347 409
#     4  12  22  40  78  92 136 174 230 272 354 396
#     4  11  23  42  69  96 137 183 230 282 347 409
#     4  11  21  43  68  96 135 179 222 277 344 408
#     4  11  24  46  65 105 137 182 230 287 344 417
#
# _framework density 21.589600000000001
#
# number of rings (size 3 to 8) (size 9 to 14) (size 15 to 20)
#    0.000    0.889    4.444    6.667    0.000    0.000 
#    4.000    2.222    0.000    0.000    0.000    0.000 
#    0.000    0.000    0.000    0.000    0.000    0.000 
#
# Total GULP energy -201160.967158 kJ/mol
# GULP energy per Si atom -5587.804643 kJ/mol
# Density = 2.154046 g / cm^3
# Si number density = 21.589600 Si / 1000 Ang^3
#
#
#
# Elastic Constant Matrix: (Units=GPa)
#
#
# Indices 1 2 3 4 5 6 
#
# 1 121.4299 21.4263 31.7000 0.0000 0.0000 0.0000
# 2 21.4263 133.6486 33.2576 0.0000 0.0000 0.0000
# 3 31.7000 33.2576 124.0432 0.0000 0.0000 0.0000
# 4 0.0000 0.0000 0.0000 8.9821 0.0000 0.0000
# 5 0.0000 0.0000 0.0000 0.0000 84.8895 0.0000
# 6 0.0000 0.0000 0.0000 0.0000 0.0000 34.8659
#
#
#
# Elastic Compliance Matrix: (Units=1/GPa)
#
#
# Indices 1 2 3 4 5 6 
#
# 1 0.008929 -0.000925 -0.002034 0.000000 0.000000 0.000000
# 2 -0.000925 0.008113 -0.001939 0.000000 0.000000 0.000000
# 3 -0.002034 -0.001939 0.009101 0.000000 0.000000 0.000000
# 4 0.000000 0.000000 0.000000 0.111333 0.000000 0.000000
# 5 0.000000 0.000000 0.000000 0.000000 0.011780 0.000000
# 6 0.000000 0.000000 0.000000 0.000000 0.000000 0.028681
#
#
# Mechanical properties :
#
#
# Convention : Reuss Voigt Hill
#
# Bulk Modulus (GPa) = 61.17039 61.32108 61.24573
# Shear Modulus (GPa) = 25.88218 45.26336 35.57277
#
# Velocity S-wave (km/s) = 3.46616 4.58376 4.06357
# Velocity P-wave (km/s) = 6.66437 7.51527 7.10257
#
# Compressibility (1/GPa) = 0.01634778
#
# Stress axis : x y z
#
# Youngs Moduli (GPa) = 111.98902 123.25726 109.87480
#
# Poissons Ratio (x) = 0.11407 0.22347
# Poissons Ratio (y) = 0.10364 0.21302
# Poissons Ratio (z) = 0.22777 0.23896
#
# Static dielectric constant tensor:
#      x y z
#    x 1.943810 0.000000 0.000000 
#    y 0.000000 1.729060 0.000000 
#    z 0.000000 0.000000 1.782610 
# 
# From -- ./inp_files/14541.got.cif
#   From: 2010.05.17/outbox.cif.g08.bks.cpg/sg60_8_cif.got.tgz:14541.got - 2010.06.03 14:59:27.
