data_PCOD9458277
_publ_section_title
;
Structure prediction by ZEFSAII (Michael W. Deem and Ramdas Pophale) SiO2 
 PCOD9458277
Probable space group: P B C N
;
_chemical_formula_sum "Si O2"
_cell_formula_units_Z 44
_cell_length_a 11.291856
_cell_length_b 10.776715
_cell_length_c 14.646898
_cell_angle_alpha 90.000000
_cell_angle_beta 90.000000
_cell_angle_gamma 90.000000
_cell_volume 1782.368039
_symmetry_space_group_name_H-M "P B C N"
_symmetry_group_IT_number 60
_symmetry_cell_setting 'orthorhombic'
loop_
_space_group_symop_operation_xyz
x,y,z
1/2-x,1/2-y,1/2+z
1/2+x,1/2-y,-z
-x,y,1/2-z
-x,-y,-z
1/2+x,1/2+y,1/2-z
1/2-x,1/2+y,z
x,-y,1/2+z
loop_
_atom_site_type_symbol
_atom_site_label
_atom_site_fract_x
_atom_site_fract_y
_atom_site_fract_z
Si Si1 0.000000 0.328845 0.750000
Si Si2 0.272870 0.910363 0.834319
Si Si3 0.814273 0.800426 0.384064
Si Si4 0.189206 0.656494 0.934343
Si Si5 0.407028 0.468466 0.674224
Si Si6 0.454121 0.193787 0.648496
O O1 0.086359 0.403504 0.817000
O O2 0.098308 0.255184 0.691811
O O3 0.231591 0.777552 0.875524
O O4 0.204812 0.932431 0.738588
O O5 0.250618 0.030545 0.898292
O O6 0.794201 0.700483 0.462631
O O7 0.682554 0.840609 0.355155
O O8 0.877834 0.931507 0.402499
O O9 0.048099 0.639868 0.921168
O O10 0.500000 0.515681 0.750000
O O11 0.457959 0.342241 0.634562
O O12 0.500000 0.169794 0.750000
#
# Coordination Sequence:
#
# PCOD9458277 Si02
#       6
#     4   8   8   8   8   8
#     4  12  26  46  74 108 146 198 254 294 368 450
#     4  12  27  48  75 107 148 197 247 307 366 445
#     4  12  28  45  74 113 150 194 246 313 367 436
#     4  12  30  47  74 112 154 187 245 317 372 425
#     4  11  22  43  76  98 142 200 253 287 364 448
#     4  11  23  48  72 104 144 202 243 293 375 442
#
# _framework density 24.686259
#
# number of rings (size 3 to 8) (size 9 to 14) (size 15 to 20)
#    0.000    0.364    6.364    2.182    8.909    1.455 
#    0.000    0.000    0.000    0.000    0.000    0.000 
#    0.000    0.000    0.000    0.000    0.000    0.000 
#
# Total GULP energy -246113.416318 kJ/mol
# GULP energy per Si atom -5593.486735 kJ/mol
# Density = 2.463007 g / cm^3
# Si number density = 24.686259 Si / 1000 Ang^3
#
#
#
# Elastic Constant Matrix: (Units=GPa)
#
#
# Indices 1 2 3 4 5 6 
#
# 1 144.5589 5.3374 15.8841 0.0000 0.0000 0.0000
# 2 5.3374 101.9162 4.8441 0.0000 0.0000 0.0000
# 3 15.8841 4.8441 48.1899 0.0000 0.0000 0.0000
# 4 0.0000 0.0000 0.0000 25.5408 0.0000 0.0000
# 5 0.0000 0.0000 0.0000 0.0000 28.4881 0.0000
# 6 0.0000 0.0000 0.0000 0.0000 0.0000 58.4634
#
#
#
# Elastic Compliance Matrix: (Units=1/GPa)
#
#
# Indices 1 2 3 4 5 6 
#
# 1 0.007185 -0.000265 -0.002342 0.000000 0.000000 0.000000
# 2 -0.000265 0.009869 -0.000905 0.000000 0.000000 0.000000
# 3 -0.002342 -0.000905 0.021614 0.000000 0.000000 0.000000
# 4 0.000000 0.000000 0.000000 0.039153 0.000000 0.000000
# 5 0.000000 0.000000 0.000000 0.000000 0.035102 0.000000
# 6 0.000000 0.000000 0.000000 0.000000 0.000000 0.017105
#
#
# Mechanical properties :
#
#
# Convention : Reuss Voigt Hill
#
# Bulk Modulus (GPa) = 31.60045 38.53291 35.06668
# Shear Modulus (GPa) = 33.87572 40.40510 37.14041
#
# Velocity S-wave (km/s) = 3.70841 4.05006 3.88299
# Velocity P-wave (km/s) = 5.58256 6.12483 5.85997
#
# Compressibility (1/GPa) = 0.03164512
#
# Stress axis : x y z
#
# Youngs Moduli (GPa) = 139.18526 101.32882 46.26635
#
# Poissons Ratio (x) = 0.02685 0.10833
# Poissons Ratio (y) = 0.03688 0.04186
# Poissons Ratio (z) = 0.32591 0.09167
#
# Static dielectric constant tensor:
#      x y z
#    x 1.972030 0.000000 0.000000 
#    y 0.000000 2.032470 0.000000 
#    z 0.000000 0.000000 1.967280 
# 
# From -- ./inp_files/19957.got.cif
#   From: 2010.05.17/outbox.cif.g08.bks.cpg/sg60_10_cif.got.tgz:19957.got - 2010.06.03 14:59:27.
