data_PCOD9458459
_publ_section_title
;
Structure prediction by ZEFSAII (Michael W. Deem and Ramdas Pophale) SiO2 
 PCOD9458459
Probable space group: P B C N
;
_chemical_formula_sum "Si O2"
_cell_formula_units_Z 40
_cell_length_a 21.542350
_cell_length_b 12.001764
_cell_length_c 7.428177
_cell_angle_alpha 90.000000
_cell_angle_beta 90.000000
_cell_angle_gamma 90.000000
_cell_volume 1920.526942
_symmetry_space_group_name_H-M "P B C N"
_symmetry_group_IT_number 60
_symmetry_cell_setting 'orthorhombic'
loop_
_space_group_symop_operation_xyz
x,y,z
1/2-x,1/2-y,1/2+z
1/2+x,1/2-y,-z
-x,y,1/2-z
-x,-y,-z
1/2+x,1/2+y,1/2-z
1/2-x,1/2+y,z
x,-y,1/2+z
loop_
_atom_site_type_symbol
_atom_site_label
_atom_site_fract_x
_atom_site_fract_y
_atom_site_fract_z
Si Si1 0.448029 0.840569 0.455081
Si Si2 0.000000 0.512432 0.250000
Si Si3 0.817960 0.719573 0.532570
Si Si4 0.362440 0.393762 0.662356
Si Si5 0.798567 0.882358 0.203428
Si Si6 0.000000 0.136871 0.250000
O O1 0.493488 0.904374 0.586113
O O2 0.380700 0.835358 0.539001
O O3 0.475829 0.721441 0.404564
O O4 0.444838 0.923340 0.282791
O O5 0.841839 0.796677 0.699186
O O6 0.795092 0.797154 0.370173
O O7 0.767090 0.632786 0.602116
O O8 0.320144 0.500073 0.713604
O O9 0.348066 0.359276 0.457098
O O10 0.436000 0.421778 0.688825
#
# Coordination Sequence:
#
# PCOD9458459 Si02
#       6
#     8   4   8   8   8   4
#     4   9  20  38  61  89 128 167 211 268 323 383
#     4   9  18  38  59  94 124 162 221 258 317 394
#     4  11  24  43  63  96 129 171 218 270 330 383
#     4  11  24  44  66  99 133 168 221 270 329 391
#     4  12  24  43  67  92 131 172 220 272 321 397
#     4   9  22  42  63  96 136 166 213 274 325 400
#
# _framework density 20.827618999999999
#
# number of rings (size 3 to 8) (size 9 to 14) (size 15 to 20)
#    0.000    1.600    4.000    0.000    2.800    2.400 
#    0.000    0.000    0.000    0.000    0.000    0.000 
#    0.000    0.000    0.000    0.000    0.000    0.000 
#
# Total GULP energy -222740.256299 kJ/mol
# GULP energy per Si atom -5568.506407 kJ/mol
# Density = 2.078021 g / cm^3
# Si number density = 20.827619 Si / 1000 Ang^3
#
#
#
# Elastic Constant Matrix: (Units=GPa)
#
#
# Indices 1 2 3 4 5 6 
#
# 1 109.1523 23.8129 0.3217 0.0000 0.0000 0.0000
# 2 23.8129 48.7733 0.0865 0.0000 0.0000 0.0000
# 3 0.3217 0.0865 63.7042 0.0000 0.0000 0.0000
# 4 0.0000 0.0000 0.0000 15.6527 0.0000 0.0000
# 5 0.0000 0.0000 0.0000 0.0000 22.0049 0.0000
# 6 0.0000 0.0000 0.0000 0.0000 0.0000 15.6860
#
#
#
# Elastic Compliance Matrix: (Units=1/GPa)
#
#
# Indices 1 2 3 4 5 6 
#
# 1 0.010254 -0.005006 -0.000045 0.000000 0.000000 0.000000
# 2 -0.005006 0.022947 -0.000006 0.000000 0.000000 0.000000
# 3 -0.000045 -0.000006 0.015698 0.000000 0.000000 0.000000
# 4 0.000000 0.000000 0.000000 0.063887 0.000000 0.000000
# 5 0.000000 0.000000 0.000000 0.000000 0.045444 0.000000
# 6 0.000000 0.000000 0.000000 0.000000 0.000000 0.063751
#
#
# Mechanical properties :
#
#
# Convention : Reuss Voigt Hill
#
# Bulk Modulus (GPa) = 25.78334 30.00799 27.89567
# Shear Modulus (GPa) = 20.40623 23.82932 22.11777
#
# Velocity S-wave (km/s) = 3.13352 3.38616 3.26228
# Velocity P-wave (km/s) = 5.04957 5.45226 5.25478
#
# Compressibility (1/GPa) = 0.03878473
#
# Stress axis : x y z
#
# Youngs Moduli (GPa) = 97.52477 43.57824 63.70321
#
# Poissons Ratio (x) = 0.21816 0.00287
# Poissons Ratio (y) = 0.48823 0.00037
# Poissons Ratio (z) = 0.00439 0.00026
#
# Static dielectric constant tensor:
#      x y z
#    x 1.812880 0.000000 0.000000 
#    y 0.000000 1.739700 0.000000 
#    z 0.000000 0.000000 2.123140 
# 
# From -- ./inp_files/6556.got.cif
#   From: 2010.05.17/outbox.cif.g08.bks.cpg/sg60_4_cif.got.tgz:6556.got - 2010.06.03 14:59:27.
