data_PCOD9458396
_publ_section_title
;
Structure prediction by ZEFSAII (Michael W. Deem and Ramdas Pophale) SiO2 
 PCOD9458396
Probable space group: P B C N
;
_chemical_formula_sum "Si O2"
_cell_formula_units_Z 48
_cell_length_a 9.094274
_cell_length_b 18.472765
_cell_length_c 13.198806
_cell_angle_alpha 90.000000
_cell_angle_beta 90.000000
_cell_angle_gamma 90.000000
_cell_volume 2217.351713
_symmetry_space_group_name_H-M "P B C N"
_symmetry_group_IT_number 60
_symmetry_cell_setting 'orthorhombic'
loop_
_space_group_symop_operation_xyz
x,y,z
1/2-x,1/2-y,1/2+z
1/2+x,1/2-y,-z
-x,y,1/2-z
-x,-y,-z
1/2+x,1/2+y,1/2-z
1/2-x,1/2+y,z
x,-y,1/2+z
loop_
_atom_site_type_symbol
_atom_site_label
_atom_site_fract_x
_atom_site_fract_y
_atom_site_fract_z
Si Si1 0.629244 0.748899 0.176263
Si Si2 0.600580 0.161202 0.481590
Si Si3 0.303881 0.092404 0.565168
Si Si4 0.377378 0.717586 0.676482
Si Si5 0.611752 0.585042 0.127489
Si Si6 0.282706 0.450114 0.654204
O O1 0.500000 0.777574 0.250000
O O2 0.768876 0.739798 0.248106
O O3 0.578446 0.671268 0.133572
O O4 0.664722 0.801283 0.082761
O O5 0.458539 0.118327 0.520897
O O6 0.558440 0.226388 0.405195
O O7 0.709582 0.109640 0.418952
O O8 0.219787 0.158263 0.619393
O O9 0.205000 0.068427 0.470556
O O10 0.306134 0.023981 0.638737
O O11 0.500000 0.684276 0.750000
O O12 0.707053 0.569271 0.227528
O O13 0.456303 0.544260 0.127429
#
# Coordination Sequence:
#
# PCOD9458396 Si02
#       6
#     8   8   8   8   8   8
#     4  12  22  45  72 106 136 184 237 298 360 415
#     4  12  26  46  73 103 143 189 235 298 356 427
#     4  12  27  45  69 107 140 188 240 292 359 428
#     4  12  27  41  72 106 139 182 247 304 351 426
#     4  11  23  44  74  97 142 186 236 292 354 422
#     4  11  26  45  70 102 147 190 231 291 365 428
#
# _framework density 21.647444
#
# number of rings (size 3 to 8) (size 9 to 14) (size 15 to 20)
#    0.000    0.333    6.667    2.000    4.667    1.333 
#    0.000    0.000    0.000    0.000    0.000    0.000 
#    0.000    0.000    0.000    0.000    0.000    0.000 
#
# Total GULP energy -268460.553084 kJ/mol
# GULP energy per Si atom -5592.928189 kJ/mol
# Density = 2.159817 g / cm^3
# Si number density = 21.647444 Si / 1000 Ang^3
#
#
#
# Elastic Constant Matrix: (Units=GPa)
#
#
# Indices 1 2 3 4 5 6 
#
# 1 68.4298 15.7509 44.7377 0.0000 0.0000 0.0000
# 2 15.7509 87.8790 38.7486 0.0000 0.0000 0.0000
# 3 44.7377 38.7486 108.8723 0.0000 0.0000 0.0000
# 4 0.0000 0.0000 0.0000 16.1781 0.0000 0.0000
# 5 0.0000 0.0000 0.0000 0.0000 42.1432 0.0000
# 6 0.0000 0.0000 0.0000 0.0000 0.0000 16.1389
#
#
#
# Elastic Compliance Matrix: (Units=1/GPa)
#
#
# Indices 1 2 3 4 5 6 
#
# 1 0.019982 0.000046 -0.008227 0.000000 0.000000 0.000000
# 2 0.000046 0.013498 -0.004823 0.000000 0.000000 0.000000
# 3 -0.008227 -0.004823 0.014282 0.000000 0.000000 0.000000
# 4 0.000000 0.000000 0.000000 0.061812 0.000000 0.000000
# 5 0.000000 0.000000 0.000000 0.000000 0.023729 0.000000
# 6 0.000000 0.000000 0.000000 0.000000 0.000000 0.061962
#
#
# Mechanical properties :
#
#
# Convention : Reuss Voigt Hill
#
# Bulk Modulus (GPa) = 45.96923 51.51728 48.74326
# Shear Modulus (GPa) = 21.87959 25.95496 23.91727
#
# Velocity S-wave (km/s) = 3.18264 3.46639 3.32754
# Velocity P-wave (km/s) = 5.89806 6.31436 6.10976
#
# Compressibility (1/GPa) = 0.02175368
#
# Stress axis : x y z
#
# Youngs Moduli (GPa) = 50.04584 74.08743 70.01644
#
# Poissons Ratio (x) = -0.00343 0.57605
# Poissons Ratio (y) = -0.00232 0.33768
# Poissons Ratio (z) = 0.41174 0.35732
#
# Static dielectric constant tensor:
#      x y z
#    x 1.782400 0.000000 0.000000 
#    y 0.000000 1.788870 0.000000 
#    z 0.000000 0.000000 1.774250 
# 
# From -- ./inp_files/14979.got.cif
#   From: 2010.05.17/outbox.cif.g08.bks.cpg/sg60_8_cif.got.tgz:14979.got - 2010.06.03 14:59:27.
