data_PCOD9458656
_publ_section_title
;
Structure prediction by ZEFSAII (Michael W. Deem and Ramdas Pophale) SiO2 
 PCOD9458656
Probable space group: P B C N
;
_chemical_formula_sum "Si O2"
_cell_formula_units_Z 36
_cell_length_a 13.632972
_cell_length_b 21.177773
_cell_length_c 5.888007
_cell_angle_alpha 90.000000
_cell_angle_beta 90.000000
_cell_angle_gamma 90.000000
_cell_volume 1699.961749
_symmetry_space_group_name_H-M "P B C N"
_symmetry_group_IT_number 60
_symmetry_cell_setting 'orthorhombic'
loop_
_space_group_symop_operation_xyz
x,y,z
1/2-x,1/2-y,1/2+z
1/2+x,1/2-y,-z
-x,y,1/2-z
-x,-y,-z
1/2+x,1/2+y,1/2-z
1/2-x,1/2+y,z
x,-y,1/2+z
loop_
_atom_site_type_symbol
_atom_site_label
_atom_site_fract_x
_atom_site_fract_y
_atom_site_fract_z
Si Si1 0.281598 0.526092 0.181839
Si Si2 0.087960 0.150779 0.610844
Si Si3 0.381688 0.753823 0.266575
Si Si4 0.266188 0.344632 0.469667
Si Si5 0.500000 0.554991 0.250000
O O1 0.248234 0.503870 0.436503
O O2 0.401037 0.519963 0.179134
O O3 0.254931 0.601004 0.157357
O O4 0.138134 0.205144 0.470123
O O5 0.166070 0.122090 0.780478
O O6 0.000000 0.181318 0.750000
O O7 0.035922 0.101243 0.448775
O O8 0.500000 0.758761 0.250000
O O9 0.329506 0.818010 0.344390
O O10 0.328766 0.715949 0.060776
#
# Coordination Sequence:
#
# PCOD9458656 Si02
#       5
#     8   8   8   8   4
#     4  12  26  41  61  91 134 178 224 265 319 396
#     4  12  19  36  61  91 136 165 202 267 331 397
#     4  12  23  40  65  96 129 166 217 276 335 399
#     4  12  25  38  65  94 130 172 213 268 336 390
#     4  12  22  36  62  92 134 172 216 258 328 408
#
# _framework density 21.176946000000001
#
# number of rings (size 3 to 8) (size 9 to 14) (size 15 to 20)
#    0.000    0.000   10.000    2.000    0.000    0.000 
#    0.000    0.000    0.000    1.333    0.000    0.000 
#    0.000    0.000    0.000    0.000    0.000    0.000 
#
# Total GULP energy -200884.865522 kJ/mol
# GULP energy per Si atom -5580.135153 kJ/mol
# Density = 2.112875 g / cm^3
# Si number density = 21.176946 Si / 1000 Ang^3
#
#
#
# Elastic Constant Matrix: (Units=GPa)
#
#
# Indices 1 2 3 4 5 6 
#
# 1 70.9850 34.9765 27.4634 0.0000 0.0000 0.0000
# 2 34.9765 78.5356 29.8669 0.0000 0.0000 0.0000
# 3 27.4634 29.8669 110.2719 0.0000 0.0000 0.0000
# 4 0.0000 0.0000 0.0000 29.1253 0.0000 0.0000
# 5 0.0000 0.0000 0.0000 0.0000 19.5807 0.0000
# 6 0.0000 0.0000 0.0000 0.0000 0.0000 34.3574
#
#
#
# Elastic Compliance Matrix: (Units=1/GPa)
#
#
# Indices 1 2 3 4 5 6 
#
# 1 0.018734 -0.007323 -0.002682 0.000000 0.000000 0.000000
# 2 -0.007323 0.017058 -0.002796 0.000000 0.000000 0.000000
# 3 -0.002682 -0.002796 0.010494 0.000000 0.000000 0.000000
# 4 0.000000 0.000000 0.000000 0.034334 0.000000 0.000000
# 5 0.000000 0.000000 0.000000 0.000000 0.051071 0.000000
# 6 0.000000 0.000000 0.000000 0.000000 0.000000 0.029106
#
#
# Mechanical properties :
#
#
# Convention : Reuss Voigt Hill
#
# Bulk Modulus (GPa) = 48.35076 49.37845 48.86461
# Shear Modulus (GPa) = 25.86741 27.77838 26.82290
#
# Velocity S-wave (km/s) = 3.49877 3.62571 3.56281
# Velocity P-wave (km/s) = 6.26125 6.39495 6.32845
#
# Compressibility (1/GPa) = 0.02068220
#
# Stress axis : x y z
#
# Youngs Moduli (GPa) = 53.38028 58.62384 95.29382
#
# Poissons Ratio (x) = 0.42931 0.25559
# Poissons Ratio (y) = 0.39091 0.26647
# Poissons Ratio (z) = 0.14317 0.16393
#
# Static dielectric constant tensor:
#      x y z
#    x 1.743250 0.000000 0.000000 
#    y 0.000000 1.808000 0.000000 
#    z 0.000000 0.000000 1.868720 
# 
# From -- ./inp_files/1136.got.cif
#   From: 2010.05.17/outbox.cif.g08.bks.cpg/sg60_1_cif.got.tgz:1136.got - 2010.06.03 14:59:27.
