data_PCOD9458411
_publ_section_title
;
Structure prediction by ZEFSAII (Michael W. Deem and Ramdas Pophale) SiO2 
 PCOD9458411
Probable space group: P B C N
;
_chemical_formula_sum "Si O2"
_cell_formula_units_Z 56
_cell_length_a 13.184421
_cell_length_b 13.042148
_cell_length_c 14.927955
_cell_angle_alpha 90.000000
_cell_angle_beta 90.000000
_cell_angle_gamma 90.000000
_cell_volume 2566.909184
_symmetry_space_group_name_H-M "P B C N"
_symmetry_group_IT_number 60
_symmetry_cell_setting 'orthorhombic'
loop_
_space_group_symop_operation_xyz
x,y,z
1/2-x,1/2-y,1/2+z
1/2+x,1/2-y,-z
-x,y,1/2-z
-x,-y,-z
1/2+x,1/2+y,1/2-z
1/2-x,1/2+y,z
x,-y,1/2+z
loop_
_atom_site_type_symbol
_atom_site_label
_atom_site_fract_x
_atom_site_fract_y
_atom_site_fract_z
Si Si1 0.000000 0.044384 0.750000
Si Si2 0.194993 0.285381 0.691640
Si Si3 0.500000 0.914972 0.750000
Si Si4 0.615274 0.930305 0.136809
Si Si5 0.220977 0.569345 0.039420
Si Si6 0.784605 0.952035 0.289809
Si Si7 0.602188 0.693163 0.190633
Si Si8 0.084899 0.011868 0.926139
O O1 0.894485 0.993256 0.784449
O O2 0.954209 0.084247 0.655697
O O3 0.095955 0.344122 0.727129
O O4 0.214286 0.322748 0.590442
O O5 0.182893 0.164711 0.696452
O O6 0.293339 0.309922 0.752340
O O7 0.471389 0.993516 0.829138
O O8 0.712023 0.957184 0.202801
O O9 0.597732 0.808891 0.150312
O O10 0.634480 0.948850 0.032653
O O11 0.227008 0.491738 0.122869
O O12 0.320024 0.557507 0.978008
O O13 0.500000 0.686347 0.250000
O O14 0.603211 0.601082 0.117643
O O15 0.000000 0.000000 0.000000
#
# Coordination Sequence:
#
# PCOD9458411 Si02
#       8
#     4   8   4   8   8   8   8   8
#     4  12  21  41  70  98 142 188 237 302 361 420
#     4  11  26  45  71 101 146 191 239 297 362 431
#     4  12  23  51  70 102 140 190 237 298 367 430
#     4  11  25  43  74 100 142 191 237 294 367 433
#     4  12  24  43  68 104 141 187 239 302 356 430
#     4  11  24  46  67 106 147 188 241 297 363 432
#     4  11  23  46  72 102 141 192 239 297 363 441
#     4  12  23  37  68 102 136 183 238 295 360 418
#
# _framework density 21.816120999999999
#
# number of rings (size 3 to 8) (size 9 to 14) (size 15 to 20)
#    0.000    0.571    5.714    3.000    2.000    0.571 
#    0.000    0.000    0.000    0.000    0.000    0.000 
#    0.000    0.000    0.000    0.000    0.000    0.000 
#
# Total GULP energy -312590.621330 kJ/mol
# GULP energy per Si atom -5581.975381 kJ/mol
# Density = 2.176647 g / cm^3
# Si number density = 21.816121 Si / 1000 Ang^3
#
#
#
# Elastic Constant Matrix: (Units=GPa)
#
#
# Indices 1 2 3 4 5 6 
#
# 1 117.4182 46.5529 41.9511 0.0000 0.0000 0.0000
# 2 46.5529 90.9481 35.5981 0.0000 0.0000 0.0000
# 3 41.9511 35.5981 162.7494 0.0000 0.0000 0.0000
# 4 0.0000 0.0000 0.0000 29.2871 0.0000 0.0000
# 5 0.0000 0.0000 0.0000 0.0000 51.4483 0.0000
# 6 0.0000 0.0000 0.0000 0.0000 0.0000 22.5933
#
#
#
# Elastic Compliance Matrix: (Units=1/GPa)
#
#
# Indices 1 2 3 4 5 6 
#
# 1 0.011135 -0.005005 -0.001776 0.000000 0.000000 0.000000
# 2 -0.005005 0.014274 -0.001832 0.000000 0.000000 0.000000
# 3 -0.001776 -0.001832 0.007003 0.000000 0.000000 0.000000
# 4 0.000000 0.000000 0.000000 0.034145 0.000000 0.000000
# 5 0.000000 0.000000 0.000000 0.000000 0.019437 0.000000
# 6 0.000000 0.000000 0.000000 0.000000 0.000000 0.044261
#
#
# Mechanical properties :
#
#
# Convention : Reuss Voigt Hill
#
# Bulk Modulus (GPa) = 65.84448 68.81333 67.32890
# Shear Modulus (GPa) = 32.77787 37.13331 34.95559
#
# Velocity S-wave (km/s) = 3.88036 4.13013 4.00719
# Velocity P-wave (km/s) = 7.09390 7.37258 7.23458
#
# Compressibility (1/GPa) = 0.01518730
#
# Stress axis : x y z
#
# Youngs Moduli (GPa) = 89.80564 70.05688 142.79919
#
# Poissons Ratio (x) = 0.35061 0.25355
# Poissons Ratio (y) = 0.44945 0.26163
# Poissons Ratio (z) = 0.15946 0.12835
#
# Static dielectric constant tensor:
#      x y z
#    x 1.840300 0.000000 0.000000 
#    y 0.000000 1.887020 0.000000 
#    z 0.000000 0.000000 1.785540 
# 
# From -- ./inp_files/16211.got.cif
#   From: 2010.05.17/outbox.cif.g08.bks.cpg/sg60_9_cif.got.tgz:16211.got - 2010.06.03 14:59:27.
