data_PCOD9458951
_publ_section_title
;
Structure prediction by ZEFSAII (Michael W. Deem and Ramdas Pophale) SiO2 
 PCOD9458951
Probable space group: P B C N
;
_chemical_formula_sum "Si O2"
_cell_formula_units_Z 60
_cell_length_a 18.000000
_cell_length_b 18.000000
_cell_length_c 9.000000
_cell_angle_alpha 90.000000
_cell_angle_beta 90.000000
_cell_angle_gamma 90.000000
_cell_volume 2916.000000
_symmetry_space_group_name_H-M "P B C N"
_symmetry_group_IT_number 60
_symmetry_cell_setting 'orthorhombic'
loop_
_space_group_symop_operation_xyz
x,y,z
1/2-x,1/2-y,1/2+z
1/2+x,1/2-y,-z
-x,y,1/2-z
-x,-y,-z
1/2+x,1/2+y,1/2-z
1/2-x,1/2+y,z
x,-y,1/2+z
loop_
_atom_site_type_symbol
_atom_site_label
_atom_site_fract_x
_atom_site_fract_y
_atom_site_fract_z
Si Si1 0.849082 0.026774 0.410388
Si Si2 0.180149 0.696844 0.784591
Si Si3 0.720146 0.323730 0.942020
Si Si4 0.962118 0.760724 0.581658
Si Si5 0.500000 0.197266 0.250000
Si Si6 0.852025 0.403692 0.756048
Si Si7 0.932836 0.067385 0.131859
Si Si8 0.689745 0.050526 0.917884
O O1 0.834142 0.107770 0.479640
O O2 0.863858 0.046984 0.239002
O O3 0.916879 0.985325 0.491530
O O4 0.775383 0.976963 0.421529
O O5 0.182669 0.760404 0.658090
O O6 0.108766 0.708261 0.889541
O O7 0.181871 0.618920 0.697210
O O8 0.247704 0.704392 0.901402
O O9 0.786211 0.357969 0.839206
O O10 0.937998 0.847525 0.577390
O O11 0.000000 0.754301 0.750000
O O12 0.997083 0.739778 0.416289
O O13 0.573614 0.145771 0.251924
O O14 0.832189 0.425635 0.585310
O O15 0.856210 0.480157 0.852402
O O16 0.000000 0.057259 0.250000
#
# Coordination Sequence:
#
# PCOD9458951 Si02
#       8
#     8   8   8   8   4   8   8   8
#     4  11  22  44  69  99 138 185 233 301 361 435
#     4  12  23  43  68 103 138 186 237 308 364 426
#     4  11  23  41  70 102 137 180 248 294 369 429
#     4  11  26  49  72 104 149 191 241 302 358 436
#     4  12  26  50  78 104 150 196 248 290 368 448
#     4  11  24  44  67 106 140 188 239 296 357 443
#     4  11  24  45  67 101 143 185 241 294 363 439
#     4  11  24  41  70 102 145 181 240 305 362 426
#
# _framework density 20.576132000000001
#
# number of rings (size 3 to 8) (size 9 to 14) (size 15 to 20)
#    0.000    0.800    2.667    6.000    1.867    0.533 
#    7.200    0.000    0.000    0.000    0.000    0.000 
#    0.000    0.000    0.000    0.000    0.000    0.000 
#
# Total GULP energy -334960.387055 kJ/mol
# GULP energy per Si atom -5582.673118 kJ/mol
# Density = 2.052930 g / cm^3
# Si number density = 20.576132 Si / 1000 Ang^3
#
#
#
# Elastic Constant Matrix: (Units=GPa)
#
#
# Indices 1 2 3 4 5 6 
#
# 1 46.4460 45.5091 30.3982 0.0000 0.0000 0.0000
# 2 45.5091 129.0362 52.6932 0.0000 0.0000 0.0000
# 3 30.3982 52.6932 141.3594 0.0000 0.0000 0.0000
# 4 0.0000 0.0000 0.0000 46.3728 0.0000 0.0000
# 5 0.0000 0.0000 0.0000 0.0000 46.4408 0.0000
# 6 0.0000 0.0000 0.0000 0.0000 0.0000 29.9153
#
#
#
# Elastic Compliance Matrix: (Units=1/GPa)
#
#
# Indices 1 2 3 4 5 6 
#
# 1 0.034210 -0.010688 -0.003372 0.000000 0.000000 0.000000
# 2 -0.010688 0.012481 -0.002354 0.000000 0.000000 0.000000
# 3 -0.003372 -0.002354 0.008677 0.000000 0.000000 0.000000
# 4 0.000000 0.000000 0.000000 0.021564 0.000000 0.000000
# 5 0.000000 0.000000 0.000000 0.000000 0.021533 0.000000
# 6 0.000000 0.000000 0.000000 0.000000 0.000000 0.033428
#
#
# Mechanical properties :
#
#
# Convention : Reuss Voigt Hill
#
# Bulk Modulus (GPa) = 44.36854 63.78252 54.07553
# Shear Modulus (GPa) = 29.03018 37.09519 33.06269
#
# Velocity S-wave (km/s) = 3.76023 4.25058 4.01290
# Velocity P-wave (km/s) = 6.36100 7.42667 6.91440
#
# Compressibility (1/GPa) = 0.02253849
#
# Stress axis : x y z
#
# Youngs Moduli (GPa) = 29.23096 80.12457 115.24969
#
# Poissons Ratio (x) = 0.85639 0.38868
# Poissons Ratio (y) = 0.31243 0.27128
# Poissons Ratio (z) = 0.09858 0.18860
#
# Static dielectric constant tensor:
#      x y z
#    x 1.799190 0.000000 0.000000 
#    y 0.000000 1.732250 0.000000 
#    z 0.000000 0.000000 1.762210 
# 
# From -- ./inp_files/6908.got.cif
#   From: 2010.05.17/outbox.ucp.g08.bks.cvg/sg60_4_cif.got.tgz:6908.got - 2010.06.11 16:26:41.
