data_PCOD9458255
_publ_section_title
;
Structure prediction by ZEFSAII (Michael W. Deem and Ramdas Pophale) SiO2 
 PCOD9458255
Probable space group: P B C N
;
_chemical_formula_sum "Si O2"
_cell_formula_units_Z 40
_cell_length_a 12.329565
_cell_length_b 15.472165
_cell_length_c 9.234231
_cell_angle_alpha 90.000000
_cell_angle_beta 90.000000
_cell_angle_gamma 90.000000
_cell_volume 1761.568668
_symmetry_space_group_name_H-M "P B C N"
_symmetry_group_IT_number 60
_symmetry_cell_setting 'orthorhombic'
loop_
_space_group_symop_operation_xyz
x,y,z
1/2-x,1/2-y,1/2+z
1/2+x,1/2-y,-z
-x,y,1/2-z
-x,-y,-z
1/2+x,1/2+y,1/2-z
1/2-x,1/2+y,z
x,-y,1/2+z
loop_
_atom_site_type_symbol
_atom_site_label
_atom_site_fract_x
_atom_site_fract_y
_atom_site_fract_z
Si Si1 0.754664 0.571808 0.803831
Si Si2 0.394805 0.907547 0.674576
Si Si3 0.575554 0.515598 0.138408
Si Si4 0.755801 0.161620 0.084242
Si Si5 0.090914 0.674033 0.874867
O O1 0.806214 0.481849 0.861689
O O2 0.633184 0.558875 0.737530
O O3 0.829388 0.597116 0.670517
O O4 0.776212 0.650406 0.916383
O O5 0.500000 0.949104 0.750000
O O6 0.335593 0.846121 0.792994
O O7 0.440120 0.854382 0.537556
O O8 0.500000 0.566454 0.250000
O O9 0.674324 0.574161 0.093560
O O10 0.500000 0.500000 0.000000
O O11 0.835101 0.240955 0.111230
O O12 0.000000 0.682910 0.750000
#
# Coordination Sequence:
#
# PCOD9458255 Si02
#       5
#     8   8   8   8   8
#     4  11  24  44  70  97 135 179 235 284 341 426
#     4  11  24  44  71  98 134 183 233 286 349 429
#     4  11  22  42  68 100 131 180 226 279 339 411
#     4  11  24  44  65 101 138 175 229 285 351 415
#     4  12  26  45  66  99 137 180 225 293 353 415
#
# _framework density 22.707035000000001
#
# number of rings (size 3 to 8) (size 9 to 14) (size 15 to 20)
#    0.000    0.800    2.000    6.000    2.800    2.400 
#   10.800    0.000    0.000    0.000    0.000    0.000 
#    0.000    0.000    0.000    0.000    0.000    0.000 
#
# Total GULP energy -223013.843969 kJ/mol
# GULP energy per Si atom -5575.346099 kJ/mol
# Density = 2.265535 g / cm^3
# Si number density = 22.707035 Si / 1000 Ang^3
#
#
#
# Elastic Constant Matrix: (Units=GPa)
#
#
# Indices 1 2 3 4 5 6 
#
# 1 110.0901 25.0718 64.1361 0.0000 0.0000 0.0000
# 2 25.0718 69.8829 38.5398 0.0000 0.0000 0.0000
# 3 64.1361 38.5398 155.4947 0.0000 0.0000 0.0000
# 4 0.0000 0.0000 0.0000 22.6616 0.0000 0.0000
# 5 0.0000 0.0000 0.0000 0.0000 20.7286 0.0000
# 6 0.0000 0.0000 0.0000 0.0000 0.0000 22.0594
#
#
#
# Elastic Compliance Matrix: (Units=1/GPa)
#
#
# Indices 1 2 3 4 5 6 
#
# 1 0.012159 -0.001849 -0.004557 0.000000 0.000000 0.000000
# 2 -0.001849 0.016857 -0.003415 0.000000 0.000000 0.000000
# 3 -0.004557 -0.003415 0.009157 0.000000 0.000000 0.000000
# 4 0.000000 0.000000 0.000000 0.044127 0.000000 0.000000
# 5 0.000000 0.000000 0.000000 0.000000 0.048243 0.000000
# 6 0.000000 0.000000 0.000000 0.000000 0.000000 0.045332
#
#
# Mechanical properties :
#
#
# Convention : Reuss Voigt Hill
#
# Bulk Modulus (GPa) = 53.96588 65.66256 59.81422
# Shear Modulus (GPa) = 24.78992 26.93793 25.86392
#
# Velocity S-wave (km/s) = 3.30772 3.44804 3.37861
# Velocity P-wave (km/s) = 6.19724 6.69567 6.45127
#
# Compressibility (1/GPa) = 0.01853023
#
# Stress axis : x y z
#
# Youngs Moduli (GPa) = 82.24079 59.32412 109.20439
#
# Poissons Ratio (x) = 0.10971 0.49764
# Poissons Ratio (y) = 0.15209 0.37295
# Poissons Ratio (z) = 0.37477 0.20260
#
# Static dielectric constant tensor:
#      x y z
#    x 1.844790 0.000000 0.000000 
#    y 0.000000 1.820710 0.000000 
#    z 0.000000 0.000000 2.109130 
# 
# From -- ./inp_files/4762.got.cif
#   From: 2010.05.17/outbox.cif.g08.bks.cpg/sg60_3_cif.got.tgz:4762.got - 2010.06.03 14:59:27.
