data_PCOD9458064
_publ_section_title
;
Structure prediction by ZEFSAII (Michael W. Deem and Ramdas Pophale) SiO2 
 PCOD9458064
Probable space group: P B C N
;
_chemical_formula_sum "Si O2"
_cell_formula_units_Z 64
_cell_length_a 10.872072
_cell_length_b 28.662427
_cell_length_c 8.907053
_cell_angle_alpha 90.000000
_cell_angle_beta 90.000000
_cell_angle_gamma 90.000000
_cell_volume 2775.615589
_symmetry_space_group_name_H-M "P B C N"
_symmetry_group_IT_number 60
_symmetry_cell_setting 'orthorhombic'
loop_
_space_group_symop_operation_xyz
x,y,z
1/2-x,1/2-y,1/2+z
1/2+x,1/2-y,-z
-x,y,1/2-z
-x,-y,-z
1/2+x,1/2+y,1/2-z
1/2-x,1/2+y,z
x,-y,1/2+z
loop_
_atom_site_type_symbol
_atom_site_label
_atom_site_fract_x
_atom_site_fract_y
_atom_site_fract_z
Si Si1 0.634771 0.886112 0.176300
Si Si2 0.219076 0.297335 0.836115
Si Si3 0.374155 0.895449 0.830956
Si Si4 0.282340 0.696746 0.978245
Si Si5 0.747375 0.952102 0.409671
Si Si6 0.230432 0.556048 0.074833
Si Si7 0.993557 0.057273 0.079080
Si Si8 0.966843 0.165526 0.084973
O O1 0.500000 0.880319 0.250000
O O2 0.730950 0.911335 0.288379
O O3 0.688808 0.838307 0.106787
O O4 0.633261 0.924606 0.043874
O O5 0.126290 0.340466 0.868599
O O6 0.241297 0.297292 0.654377
O O7 0.335555 0.312220 0.939571
O O8 0.197029 0.245456 0.893091
O O9 0.500000 0.907717 0.750000
O O10 0.269918 0.905548 0.706016
O O11 0.337681 0.931164 0.959397
O O12 0.418365 0.674890 0.980632
O O13 0.885454 0.960486 0.471767
O O14 0.703672 0.004112 0.365467
O O15 0.369389 0.556654 0.012382
O O16 0.000000 0.037407 0.250000
O O17 0.953592 0.110686 0.095850
O O18 0.000000 0.184574 0.250000
#
# Coordination Sequence:
#
# PCOD9458064 Si02
#       8
#     8   8   8   8   8   8   8   8
#     4  12  28  48  70 106 154 189 238 305 352 427
#     4  11  24  45  74 106 142 186 239 296 367 429
#     4  12  25  46  73 103 144 194 246 292 354 437
#     4  11  25  46  74 107 142 190 236 297 363 431
#     4  12  27  42  75 109 141 193 245 296 361 430
#     4  12  24  49  71 103 147 193 241 298 366 422
#     4  11  20  43  74 102 142 182 237 300 356 416
#     4   9  18  42  71  97 137 182 225 291 353 415
#
# _framework density 23.057948
#
# number of rings (size 3 to 8) (size 9 to 14) (size 15 to 20)
#    0.000    0.750    5.000    2.625    1.750    6.000 
#    0.000    1.250    0.000    0.000    0.000    0.000 
#    0.000    0.000    0.000    0.000    0.000    0.000 
#
# Total GULP energy -357260.252740 kJ/mol
# GULP energy per Si atom -5582.191449 kJ/mol
# Density = 2.300547 g / cm^3
# Si number density = 23.057948 Si / 1000 Ang^3
#
#
#
# Elastic Constant Matrix: (Units=GPa)
#
#
# Indices 1 2 3 4 5 6 
#
# 1 103.2392 24.9635 29.0217 0.0000 0.0000 0.0000
# 2 24.9635 128.9439 33.6742 0.0000 0.0000 0.0000
# 3 29.0217 33.6742 61.1771 0.0000 0.0000 0.0000
# 4 0.0000 0.0000 0.0000 31.4520 0.0000 0.0000
# 5 0.0000 0.0000 0.0000 0.0000 37.8368 0.0000
# 6 0.0000 0.0000 0.0000 0.0000 0.0000 5.9273
#
#
#
# Elastic Compliance Matrix: (Units=1/GPa)
#
#
# Indices 1 2 3 4 5 6 
#
# 1 0.011269 -0.000917 -0.004841 0.000000 0.000000 0.000000
# 2 -0.000917 0.009132 -0.004591 0.000000 0.000000 0.000000
# 3 -0.004841 -0.004591 0.021170 0.000000 0.000000 0.000000
# 4 0.000000 0.000000 0.000000 0.031794 0.000000 0.000000
# 5 0.000000 0.000000 0.000000 0.000000 0.026429 0.000000
# 6 0.000000 0.000000 0.000000 0.000000 0.000000 0.168712
#
#
# Mechanical properties :
#
#
# Convention : Reuss Voigt Hill
#
# Bulk Modulus (GPa) = 47.91278 52.07546 49.99412
# Shear Modulus (GPa) = 16.88260 28.75659 22.81960
#
# Velocity S-wave (km/s) = 2.70882 3.53532 3.14930
# Velocity P-wave (km/s) = 5.53245 6.26884 5.91212
#
# Compressibility (1/GPa) = 0.02087126
#
# Stress axis : x y z
#
# Youngs Moduli (GPa) = 88.73982 109.50522 47.23738
#
# Poissons Ratio (x) = 0.10047 0.22867
# Poissons Ratio (y) = 0.08141 0.21688
# Poissons Ratio (z) = 0.42957 0.50278
#
# Static dielectric constant tensor:
#      x y z
#    x 1.903710 0.000000 0.000000 
#    y 0.000000 1.822060 0.000000 
#    z 0.000000 0.000000 1.988050 
# 
# From -- ./inp_files/5359.got.cif
#   From: 2010.05.17/outbox.cif.g08.bks.cpg/sg60_3_cif.got.tgz:5359.got - 2010.06.03 14:59:27.
