data_PCOD9458565
_publ_section_title
;
Structure prediction by ZEFSAII (Michael W. Deem and Ramdas Pophale) SiO2 
 PCOD9458565
Probable space group: P B C N
;
_chemical_formula_sum "Si O2"
_cell_formula_units_Z 32
_cell_length_a 14.511571
_cell_length_b 9.192755
_cell_length_c 8.782086
_cell_angle_alpha 90.000000
_cell_angle_beta 90.000000
_cell_angle_gamma 90.000000
_cell_volume 1171.541837
_symmetry_space_group_name_H-M "P B C N"
_symmetry_group_IT_number 60
_symmetry_cell_setting 'orthorhombic'
loop_
_space_group_symop_operation_xyz
x,y,z
1/2-x,1/2-y,1/2+z
1/2+x,1/2-y,-z
-x,y,1/2-z
-x,-y,-z
1/2+x,1/2+y,1/2-z
1/2-x,1/2+y,z
x,-y,1/2+z
loop_
_atom_site_type_symbol
_atom_site_label
_atom_site_fract_x
_atom_site_fract_y
_atom_site_fract_z
Si Si1 0.250827 0.370134 0.996253
Si Si2 0.063054 0.208628 0.045501
Si Si3 0.818777 0.634327 0.330428
Si Si4 0.000000 0.950500 0.250000
Si Si5 0.500000 0.050141 0.750000
O O1 0.159959 0.287713 0.054405
O O2 0.231444 0.533644 0.044882
O O3 0.331896 0.289353 0.086823
O O4 0.247196 0.353750 0.816321
O O5 0.994581 0.336449 0.107592
O O6 0.048619 0.149787 0.875474
O O7 0.058002 0.067365 0.151568
O O8 0.910629 0.551128 0.272770
#
# Coordination Sequence:
#
# PCOD9458565 Si02
#       5
#     8   8   8   4   4
#     4  11  25  45  70 101 141 187 238 294 358 425
#     4   9  20  38  66 105 141 185 234 288 354 421
#     4  11  25  47  73 105 144 187 238 295 357 426
#     4   9  18  37  66 102 148 184 228 288 354 424
#     4   9  22  45  72 104 140 184 240 296 352 420
#
# _framework density 27.314433999999999
#
# number of rings (size 3 to 8) (size 9 to 14) (size 15 to 20)
#    0.000    2.000    0.000    1.500    0.000   11.000 
#    0.000   10.000    0.000    6.000    0.000    0.000 
#    0.000    0.000    0.000    0.000    0.000    0.000 
#
# Total GULP energy -179508.999976 kJ/mol
# GULP energy per Si atom -5609.656249 kJ/mol
# Density = 2.725227 g / cm^3
# Si number density = 27.314434 Si / 1000 Ang^3
#
#
#
# Elastic Constant Matrix: (Units=GPa)
#
#
# Indices 1 2 3 4 5 6 
#
# 1 69.3323 20.3724 17.0557 0.0000 0.0000 0.0000
# 2 20.3724 146.3962 20.1144 0.0000 0.0000 0.0000
# 3 17.0557 20.1144 154.2715 0.0000 0.0000 0.0000
# 4 0.0000 0.0000 0.0000 54.0850 0.0000 0.0000
# 5 0.0000 0.0000 0.0000 0.0000 35.5973 0.0000
# 6 0.0000 0.0000 0.0000 0.0000 0.0000 56.1423
#
#
#
# Elastic Compliance Matrix: (Units=1/GPa)
#
#
# Indices 1 2 3 4 5 6 
#
# 1 0.015348 -0.001937 -0.001444 0.000000 0.000000 0.000000
# 2 -0.001937 0.007200 -0.000725 0.000000 0.000000 0.000000
# 3 -0.001444 -0.000725 0.006736 0.000000 0.000000 0.000000
# 4 0.000000 0.000000 0.000000 0.018489 0.000000 0.000000
# 5 0.000000 0.000000 0.000000 0.000000 0.028092 0.000000
# 6 0.000000 0.000000 0.000000 0.000000 0.000000 0.017812
#
#
# Mechanical properties :
#
#
# Convention : Reuss Voigt Hill
#
# Bulk Modulus (GPa) = 47.45694 53.89832 50.67763
# Shear Modulus (GPa) = 45.90799 49.99541 47.95170
#
# Velocity S-wave (km/s) = 4.10411 4.28292 4.19447
# Velocity P-wave (km/s) = 6.31429 6.65081 6.48473
#
# Compressibility (1/GPa) = 0.02107173
#
# Stress axis : x y z
#
# Youngs Moduli (GPa) = 65.15577 138.89016 148.45134
#
# Poissons Ratio (x) = 0.26908 0.21439
# Poissons Ratio (y) = 0.12623 0.10756
# Poissons Ratio (z) = 0.09410 0.10063
#
# Static dielectric constant tensor:
#      x y z
#    x 2.203870 0.000000 0.000000 
#    y 0.000000 2.091340 0.000000 
#    z 0.000000 0.000000 2.100260 
# 
# From -- ./inp_files/6490.got.cif
#   From: 2010.05.17/outbox.cif.g08.bks.cpg/sg60_4_cif.got.tgz:6490.got - 2010.06.03 14:59:27.
