data_PCOD9458011
_publ_section_title
;
Structure prediction by ZEFSAII (Michael W. Deem and Ramdas Pophale) SiO2 
 PCOD9458011
Probable space group: P B C N
;
_chemical_formula_sum "Si O2"
_cell_formula_units_Z 64
_cell_length_a 14.581404
_cell_length_b 22.277396
_cell_length_c 8.654530
_cell_angle_alpha 90.000000
_cell_angle_beta 90.000000
_cell_angle_gamma 90.000000
_cell_volume 2811.300407
_symmetry_space_group_name_H-M "P B C N"
_symmetry_group_IT_number 60
_symmetry_cell_setting 'orthorhombic'
loop_
_space_group_symop_operation_xyz
x,y,z
1/2-x,1/2-y,1/2+z
1/2+x,1/2-y,-z
-x,y,1/2-z
-x,-y,-z
1/2+x,1/2+y,1/2-z
1/2-x,1/2+y,z
x,-y,1/2+z
loop_
_atom_site_type_symbol
_atom_site_label
_atom_site_fract_x
_atom_site_fract_y
_atom_site_fract_z
Si Si1 0.347759 0.594750 0.095864
Si Si2 0.221496 0.190365 0.318969
Si Si3 0.820426 0.467216 0.633913
Si Si4 0.778500 0.690366 0.818963
Si Si5 0.652246 0.905250 0.095859
Si Si6 0.095116 0.647033 0.194840
Si Si7 0.095114 0.852967 0.305166
Si Si8 0.320426 0.467215 0.133916
O O1 0.331435 0.630830 0.254884
O O2 0.380433 0.525835 0.094276
O O3 0.250002 0.593714 0.000002
O O4 0.412817 0.631975 0.984751
O O5 0.174032 0.250000 0.250001
O O6 0.249997 0.191890 0.500004
O O7 0.317058 0.187073 0.225460
O O8 0.880431 0.525836 0.594268
O O9 0.878176 0.414050 0.709693
O O10 0.749999 0.447248 0.500000
O O11 0.750000 0.500001 0.749999
O O12 0.831431 0.630830 0.754881
O O13 0.682941 0.687074 0.725447
O O14 0.587188 0.868024 0.984747
O O15 0.000000 0.672491 0.250000
O O16 0.121824 0.914048 0.209697
O O17 0.000000 0.827508 0.250000
#
# Coordination Sequence:
#
# PCOD9458011 Si02
#       8
#     8   8   8   8   8   8   8   8
#     4   9  19  36  57  84 117 153 201 243 279 361
#     4  11  22  40  67  87 109 156 207 247 293 361
#     4  11  18  35  61  83 116 160 202 240 285 351
#     4  11  22  40  67  87 109 156 207 247 293 361
#     4   9  19  36  57  84 117 153 201 243 279 361
#     4  11  23  37  57  90 126 156 191 247 306 348
#     4  11  23  37  57  90 126 156 191 247 306 348
#     4  11  18  35  61  83 116 160 202 240 285 351
#
# _framework density 22.765266
#
# number of rings (size 3 to 8) (size 9 to 14) (size 15 to 20)
#    0.000    1.500    7.500    3.000    0.000    1.500 
#    0.000    1.250    0.000    1.500    0.000    0.000 
#    0.000    0.000    0.000    0.000    0.000    0.000 
#
# Total GULP energy -356658.204660 kJ/mol
# GULP energy per Si atom -5572.784448 kJ/mol
# Density = 2.271345 g / cm^3
# Si number density = 22.765266 Si / 1000 Ang^3
#
#
#
# Elastic Constant Matrix: (Units=GPa)
#
#
# Indices 1 2 3 4 5 6 
#
# 1 19.7793 -18.4306 -20.5669 0.0000 0.0000 0.0000
# 2 -18.4306 131.7534 27.9579 0.0000 0.0000 0.0000
# 3 -20.5669 27.9579 129.1574 0.0000 0.0000 0.0000
# 4 0.0000 0.0000 0.0000 31.7899 0.0000 0.0000
# 5 0.0000 0.0000 0.0000 0.0000 20.9246 0.0000
# 6 0.0000 0.0000 0.0000 0.0000 0.0000 5.1829
#
#
#
# Elastic Compliance Matrix: (Units=1/GPa)
#
#
# Indices 1 2 3 4 5 6 
#
# 1 0.066891 0.007439 0.009041 0.000000 0.000000 0.000000
# 2 0.007439 0.008783 -0.000717 0.000000 0.000000 0.000000
# 3 0.009041 -0.000717 0.009337 0.000000 0.000000 0.000000
# 4 0.000000 0.000000 0.000000 0.031456 0.000000 0.000000
# 5 0.000000 0.000000 0.000000 0.000000 0.047791 0.000000
# 6 0.000000 0.000000 0.000000 0.000000 0.000000 0.192941
#
#
# Mechanical properties :
#
#
# Convention : Reuss Voigt Hill
#
# Bulk Modulus (GPa) = 8.58090 28.73452 18.65771
# Shear Modulus (GPa) = 13.71673 31.02814 22.37243
#
# Velocity S-wave (km/s) = 2.45731 3.69583 3.13828
# Velocity P-wave (km/s) = 3.43928 5.55533 4.62009
#
# Compressibility (1/GPa) = 0.11653785
#
# Stress axis : x y z
#
# Youngs Moduli (GPa) = 14.94971 113.86201 107.09661
#
# Poissons Ratio (x) = -0.84697 -0.96831
# Poissons Ratio (y) = -0.11121 0.07674
# Poissons Ratio (z) = -0.13517 0.08159
#
# Static dielectric constant tensor:
#      x y z
#    x 1.858830 0.000000 0.000000 
#    y 0.000000 2.089500 0.000000 
#    z 0.000000 0.000000 2.004140 
# 
# From -- ./inp_files/6325.got.cif
#   From: 2010.05.17/outbox.cif.g08.bks.cpg/sg60_4_cif.got.tgz:6325.got - 2010.06.03 14:59:27.
