data_PCOD9458693
_publ_section_title
;
Structure prediction by ZEFSAII (Michael W. Deem and Ramdas Pophale) SiO2 
 PCOD9458693
Probable space group: P B C N
;
_chemical_formula_sum "Si O2"
_cell_formula_units_Z 24
_cell_length_a 13.227734
_cell_length_b 12.044048
_cell_length_c 7.068531
_cell_angle_alpha 90.000000
_cell_angle_beta 90.000000
_cell_angle_gamma 90.000000
_cell_volume 1126.126291
_symmetry_space_group_name_H-M "P B C N"
_symmetry_group_IT_number 60
_symmetry_cell_setting 'orthorhombic'
loop_
_space_group_symop_operation_xyz
x,y,z
1/2-x,1/2-y,1/2+z
1/2+x,1/2-y,-z
-x,y,1/2-z
-x,-y,-z
1/2+x,1/2+y,1/2-z
1/2-x,1/2+y,z
x,-y,1/2+z
loop_
_atom_site_type_symbol
_atom_site_label
_atom_site_fract_x
_atom_site_fract_y
_atom_site_fract_z
Si Si1 0.397640 0.414516 0.162374
Si Si2 0.713296 0.368632 0.971624
Si Si3 0.602790 0.231079 0.651721
O O1 0.500000 0.465501 0.250000
O O2 0.320212 0.490623 0.597167
O O3 0.349046 0.349090 0.336347
O O4 0.829799 0.354262 0.030073
O O5 0.674587 0.282995 0.814380
O O6 0.421759 0.331974 0.991751
O O7 0.500000 0.190382 0.750000
#
# Coordination Sequence:
#
# PCOD9458693 Si02
#       3
#     8   8   8
#     4  12  23  41  71 102 132 177 235 282 333 406
#     4  12  24  40  68 101 138 173 229 289 337 396
#     4  12  25  42  68 103 137 179 229 282 343 405
#
# _framework density 21.311997999999999
#
# number of rings (size 3 to 8) (size 9 to 14) (size 15 to 20)
#    0.000    0.000   10.000    2.000    0.000    0.000 
#    0.000    1.667    0.000    0.000    0.000    0.000 
#    0.000    0.000    0.000    0.000    0.000    0.000 
#
# Total GULP energy -134164.414505 kJ/mol
# GULP energy per Si atom -5590.183938 kJ/mol
# Density = 2.126349 g / cm^3
# Si number density = 21.311998 Si / 1000 Ang^3
#
#
#
# Elastic Constant Matrix: (Units=GPa)
#
#
# Indices 1 2 3 4 5 6 
#
# 1 149.5382 61.2564 53.7619 0.0000 0.0000 0.0000
# 2 61.2564 48.4437 23.0829 0.0000 0.0000 0.0000
# 3 53.7619 23.0829 124.8011 0.0000 0.0000 0.0000
# 4 0.0000 0.0000 0.0000 20.1980 0.0000 0.0000
# 5 0.0000 0.0000 0.0000 0.0000 54.9770 0.0000
# 6 0.0000 0.0000 0.0000 0.0000 0.0000 34.4500
#
#
#
# Elastic Compliance Matrix: (Units=1/GPa)
#
#
# Indices 1 2 3 4 5 6 
#
# 1 0.014976 -0.017396 -0.003234 0.000000 0.000000 0.000000
# 2 -0.017396 0.042845 -0.000431 0.000000 0.000000 0.000000
# 3 -0.003234 -0.000431 0.009485 0.000000 0.000000 0.000000
# 4 0.000000 0.000000 0.000000 0.049510 0.000000 0.000000
# 5 0.000000 0.000000 0.000000 0.000000 0.018189 0.000000
# 6 0.000000 0.000000 0.000000 0.000000 0.000000 0.029028
#
#
# Mechanical properties :
#
#
# Convention : Reuss Voigt Hill
#
# Bulk Modulus (GPa) = 39.70570 66.55392 53.12981
# Shear Modulus (GPa) = 23.30474 34.23714 28.77094
#
# Velocity S-wave (km/s) = 3.31040 4.01243 3.67820
# Velocity P-wave (km/s) = 5.76913 7.26377 6.55916
#
# Compressibility (1/GPa) = 0.02518530
#
# Stress axis : x y z
#
# Youngs Moduli (GPa) = 66.77389 23.34011 105.42455
#
# Poissons Ratio (x) = 0.40602 0.34092
# Poissons Ratio (y) = 1.16160 0.04539
# Poissons Ratio (z) = 0.21593 0.01005
#
# Static dielectric constant tensor:
#      x y z
#    x 1.837740 0.000000 0.000000 
#    y 0.000000 1.757140 0.000000 
#    z 0.000000 0.000000 1.793610 
# 
# From -- ./inp_files/679.got.cif
#   From: 2010.05.17/outbox.cif.g08.bks.cpg/sg60_1_cif.got.tgz:679.got - 2010.06.03 14:59:27.
