data_PCOD9458428
_publ_section_title
;
Structure prediction by ZEFSAII (Michael W. Deem and Ramdas Pophale) SiO2 
 PCOD9458428
Probable space group: P B C N
;
_chemical_formula_sum "Si O2"
_cell_formula_units_Z 60
_cell_length_a 19.241417
_cell_length_b 8.289806
_cell_length_c 14.172120
_cell_angle_alpha 90.000000
_cell_angle_beta 90.000000
_cell_angle_gamma 90.000000
_cell_volume 2260.561048
_symmetry_space_group_name_H-M "P B C N"
_symmetry_group_IT_number 60
_symmetry_cell_setting 'orthorhombic'
loop_
_space_group_symop_operation_xyz
x,y,z
1/2-x,1/2-y,1/2+z
1/2+x,1/2-y,-z
-x,y,1/2-z
-x,-y,-z
1/2+x,1/2+y,1/2-z
1/2-x,1/2+y,z
x,-y,1/2+z
loop_
_atom_site_type_symbol
_atom_site_label
_atom_site_fract_x
_atom_site_fract_y
_atom_site_fract_z
Si Si1 0.688973 0.171137 0.078524
Si Si2 0.697852 0.346418 0.411401
Si Si3 0.430399 0.136301 0.105094
Si Si4 0.895175 0.147891 0.442563
Si Si5 0.384351 0.656021 0.264688
Si Si6 0.238893 0.958582 0.295583
Si Si7 0.017918 0.323297 0.397813
Si Si8 0.500000 0.379919 0.250000
O O1 0.702431 0.316477 0.148971
O O2 0.693944 0.013370 0.144344
O O3 0.745189 0.175184 0.992917
O O4 0.619418 0.223172 0.023937
O O5 0.650474 0.190998 0.383056
O O6 0.642222 0.476646 0.453986
O O7 0.732901 0.416398 0.315318
O O8 0.476400 0.264809 0.163961
O O9 0.463138 0.962280 0.128818
O O10 0.442218 0.140973 0.993285
O O11 0.865210 0.201956 0.341472
O O12 0.976412 0.156838 0.420691
O O13 0.312255 0.611449 0.311624
O O14 0.429341 0.787995 0.315400
O O15 0.433065 0.495807 0.264623
#
# Coordination Sequence:
#
# PCOD9458428 Si02
#       8
#     8   8   8   8   8   8   8   4
#     4  12  27  47  71 108 144 194 263 316 372 447
#     4  11  25  51  73 103 150 199 253 310 381 453
#     4  11  26  43  71 115 150 190 246 314 378 450
#     4  11  24  45  71 104 141 200 241 308 376 445
#     4  11  23  48  72 106 143 204 248 295 392 463
#     4  11  27  47  74 107 144 203 253 314 381 454
#     4  11  25  44  73 112 152 193 246 312 383 470
#     4  12  22  42  76 108 144 192 242 306 376 476
#
# _framework density 26.542082000000001
#
# number of rings (size 3 to 8) (size 9 to 14) (size 15 to 20)
#    0.000    0.800    5.333    0.800    9.333    1.067 
#    0.000    0.000    0.000    0.000    0.000    0.000 
#    0.000    0.000    0.000    0.000    0.000    0.000 
#
# Total GULP energy -335792.983249 kJ/mol
# GULP energy per Si atom -5596.549721 kJ/mol
# Density = 2.648167 g / cm^3
# Si number density = 26.542082 Si / 1000 Ang^3
#
#
#
# Elastic Constant Matrix: (Units=GPa)
#
#
# Indices 1 2 3 4 5 6 
#
# 1 58.4268 34.5116 21.0478 0.0000 0.0000 0.0000
# 2 34.5116 86.1416 42.4614 0.0000 0.0000 0.0000
# 3 21.0478 42.4614 133.9708 0.0000 0.0000 0.0000
# 4 0.0000 0.0000 0.0000 46.7206 0.0000 0.0000
# 5 0.0000 0.0000 0.0000 0.0000 44.6380 0.0000
# 6 0.0000 0.0000 0.0000 0.0000 0.0000 53.0109
#
#
#
# Elastic Compliance Matrix: (Units=1/GPa)
#
#
# Indices 1 2 3 4 5 6 
#
# 1 0.022494 -0.008616 -0.000803 0.000000 0.000000 0.000000
# 2 -0.008616 0.017059 -0.004053 0.000000 0.000000 0.000000
# 3 -0.000803 -0.004053 0.008875 0.000000 0.000000 0.000000
# 4 0.000000 0.000000 0.000000 0.021404 0.000000 0.000000
# 5 0.000000 0.000000 0.000000 0.000000 0.022402 0.000000
# 6 0.000000 0.000000 0.000000 0.000000 0.000000 0.018864
#
#
# Mechanical properties :
#
#
# Convention : Reuss Voigt Hill
#
# Bulk Modulus (GPa) = 46.54784 52.73119 49.63951
# Shear Modulus (GPa) = 34.43439 40.90845 37.67142
#
# Velocity S-wave (km/s) = 3.60578 3.93016 3.77146
# Velocity P-wave (km/s) = 5.90855 6.36435 6.14068
#
# Compressibility (1/GPa) = 0.02148328
#
# Stress axis : x y z
#
# Youngs Moduli (GPa) = 44.45601 58.62159 112.67522
#
# Poissons Ratio (x) = 0.50509 0.09050
# Poissons Ratio (y) = 0.38304 0.45667
# Poissons Ratio (z) = 0.03571 0.23759
#
# Static dielectric constant tensor:
#      x y z
#    x 2.110560 0.000000 0.000000 
#    y 0.000000 2.167150 0.000000 
#    z 0.000000 0.000000 2.055460 
# 
# From -- ./inp_files/17900.got.cif
#   From: 2010.05.17/outbox.cif.g08.bks.cpg/sg60_9_cif.got.tgz:17900.got - 2010.06.03 14:59:27.
