data_PCOD9458457
_publ_section_title
;
Structure prediction by ZEFSAII (Michael W. Deem and Ramdas Pophale) SiO2 
 PCOD9458457
Probable space group: P B C N
;
_chemical_formula_sum "Si O2"
_cell_formula_units_Z 28
_cell_length_a 24.875992
_cell_length_b 4.609537
_cell_length_c 8.193652
_cell_angle_alpha 90.000000
_cell_angle_beta 90.000000
_cell_angle_gamma 90.000000
_cell_volume 939.539901
_symmetry_space_group_name_H-M "P B C N"
_symmetry_group_IT_number 60
_symmetry_cell_setting 'orthorhombic'
loop_
_space_group_symop_operation_xyz
x,y,z
1/2-x,1/2-y,1/2+z
1/2+x,1/2-y,-z
-x,y,1/2-z
-x,-y,-z
1/2+x,1/2+y,1/2-z
1/2-x,1/2+y,z
x,-y,1/2+z
loop_
_atom_site_type_symbol
_atom_site_label
_atom_site_fract_x
_atom_site_fract_y
_atom_site_fract_z
Si Si1 0.287576 0.288387 0.005091
Si Si2 0.645377 0.822471 0.301786
Si Si3 0.500000 0.282559 0.250000
Si Si4 0.422688 0.351139 0.984708
O O1 0.231507 0.116515 0.024844
O O2 0.330504 0.113137 0.116719
O O3 0.307185 0.284408 0.819314
O O4 0.616758 0.592726 0.426963
O O5 0.603486 0.857208 0.151071
O O6 0.456304 0.167252 0.118281
O O7 0.463218 0.471762 0.370198
#
# Coordination Sequence:
#
# PCOD9458457 Si02
#       4
#     8   8   4   8
#     4  12  27  48  73 107 150 197 253 322 387 454
#     4  11  24  42  73 112 152 204 262 319 390 466
#     4   8  16  36  74 114 160 204 256 322 396 464
#     4   9  19  40  75 116 158 206 261 324 391 473
#
# _framework density 29.801819999999999
#
# number of rings (size 3 to 8) (size 9 to 14) (size 15 to 20)
#    0.000    1.714    0.000    3.429    0.000    9.143 
#    0.000    0.000    0.000   85.714    0.000    0.000 
#    0.000    0.000    0.000    0.000    0.000    0.000 
#
# Total GULP energy -156371.479290 kJ/mol
# GULP energy per Si atom -5584.695689 kJ/mol
# Density = 2.973399 g / cm^3
# Si number density = 29.801820 Si / 1000 Ang^3
#
#
#
# Elastic Constant Matrix: (Units=GPa)
#
#
# Indices 1 2 3 4 5 6 
#
# 1 137.9590 35.0255 79.7267 0.0000 0.0000 0.0000
# 2 35.0255 102.4775 45.4723 0.0000 0.0000 0.0000
# 3 79.7267 45.4723 226.1106 0.0000 0.0000 0.0000
# 4 0.0000 0.0000 0.0000 63.6757 0.0000 0.0000
# 5 0.0000 0.0000 0.0000 0.0000 115.8902 0.0000
# 6 0.0000 0.0000 0.0000 0.0000 0.0000 20.6593
#
#
#
# Elastic Compliance Matrix: (Units=1/GPa)
#
#
# Indices 1 2 3 4 5 6 
#
# 1 0.009436 -0.001920 -0.002941 0.000000 0.000000 0.000000
# 2 -0.001920 0.011105 -0.001556 0.000000 0.000000 0.000000
# 3 -0.002941 -0.001556 0.005773 0.000000 0.000000 0.000000
# 4 0.000000 0.000000 0.000000 0.015705 0.000000 0.000000
# 5 0.000000 0.000000 0.000000 0.000000 0.008629 0.000000
# 6 0.000000 0.000000 0.000000 0.000000 0.000000 0.048404
#
#
# Mechanical properties :
#
#
# Convention : Reuss Voigt Hill
#
# Bulk Modulus (GPa) = 74.19055 87.44403 80.81729
# Shear Modulus (GPa) = 42.96337 60.46653 51.71495
#
# Velocity S-wave (km/s) = 3.80101 4.50928 4.17021
# Velocity P-wave (km/s) = 6.64923 7.51778 7.09680
#
# Compressibility (1/GPa) = 0.01347881
#
# Stress axis : x y z
#
# Youngs Moduli (GPa) = 105.98270 90.04908 173.23399
#
# Poissons Ratio (x) = 0.17289 0.50945
# Poissons Ratio (y) = 0.20349 0.26961
# Poissons Ratio (z) = 0.31168 0.14014
#
# Static dielectric constant tensor:
#      x y z
#    x 2.681120 0.000000 0.000000 
#    y 0.000000 2.219560 0.000000 
#    z 0.000000 0.000000 2.207400 
# 
# From -- ./inp_files/8052.got.cif
#   From: 2010.05.17/outbox.cif.g08.bks.cpg/sg60_5_cif.got.tgz:8052.got - 2010.06.03 14:59:27.
