data_PCOD9458712
_publ_section_title
;
Structure prediction by ZEFSAII (Michael W. Deem and Ramdas Pophale) SiO2 
 PCOD9458712
Probable space group: P B C N
;
_chemical_formula_sum "Si O2"
_cell_formula_units_Z 32
_cell_length_a 6.371469
_cell_length_b 18.427628
_cell_length_c 11.602511
_cell_angle_alpha 90.000000
_cell_angle_beta 90.000000
_cell_angle_gamma 90.000000
_cell_volume 1362.263122
_symmetry_space_group_name_H-M "P B C N"
_symmetry_group_IT_number 60
_symmetry_cell_setting 'orthorhombic'
loop_
_space_group_symop_operation_xyz
x,y,z
1/2-x,1/2-y,1/2+z
1/2+x,1/2-y,-z
-x,y,1/2-z
-x,-y,-z
1/2+x,1/2+y,1/2-z
1/2-x,1/2+y,z
x,-y,1/2+z
loop_
_atom_site_type_symbol
_atom_site_label
_atom_site_fract_x
_atom_site_fract_y
_atom_site_fract_z
Si Si1 0.500000 0.429927 0.750000
Si Si2 0.371428 0.747590 0.860272
Si Si3 0.825565 0.476435 0.400437
Si Si4 0.377085 0.360332 0.979050
Si Si5 0.500000 0.845212 0.250000
O O1 0.292596 0.476075 0.701809
O O2 0.471224 0.374927 0.854868
O O3 0.500000 0.774026 0.750000
O O4 0.326779 0.813292 0.946633
O O5 0.168768 0.706369 0.810573
O O6 0.495348 0.687206 0.931684
O O7 0.642986 0.441281 0.475127
O O8 0.000000 0.500000 0.500000
O O9 0.908978 0.402831 0.340963
#
# Coordination Sequence:
#
# PCOD9458712 Si02
#       5
#     4   8   8   8   4
#     4  12  27  46  74 112 153 200 254 318 378 484
#     4  12  27  48  76 110 147 199 249 326 383 454
#     4  12  25  45  72 107 151 201 251 311 386 460
#     4  12  27  46  75 106 153 192 257 307 386 456
#     4  12  23  48  74 104 147 190 250 314 376 454
#
# _framework density 23.490323
#
# number of rings (size 3 to 8) (size 9 to 14) (size 15 to 20)
#    0.000    0.000    2.500    7.500    7.000    0.000 
#    0.000    0.000    0.000    0.000    0.000    0.000 
#    0.000    0.000    0.000    0.000    0.000    0.000 
#
# Total GULP energy -178286.881954 kJ/mol
# GULP energy per Si atom -5571.465061 kJ/mol
# Density = 2.343686 g / cm^3
# Si number density = 23.490323 Si / 1000 Ang^3
#
#
#
# Elastic Constant Matrix: (Units=GPa)
#
#
# Indices 1 2 3 4 5 6 
#
# 1 68.6708 39.0603 37.5312 0.0000 0.0000 0.0000
# 2 39.0603 98.6800 21.1794 0.0000 0.0000 0.0000
# 3 37.5312 21.1794 122.6798 0.0000 0.0000 0.0000
# 4 0.0000 0.0000 0.0000 121.7400 0.0000 0.0000
# 5 0.0000 0.0000 0.0000 0.0000 66.7951 0.0000
# 6 0.0000 0.0000 0.0000 0.0000 0.0000 49.8009
#
#
#
# Elastic Compliance Matrix: (Units=1/GPa)
#
#
# Indices 1 2 3 4 5 6 
#
# 1 0.021731 -0.007451 -0.005362 0.000000 0.000000 0.000000
# 2 -0.007451 0.013078 0.000022 0.000000 0.000000 0.000000
# 3 -0.005362 0.000022 0.009788 0.000000 0.000000 0.000000
# 4 0.000000 0.000000 0.000000 0.008214 0.000000 0.000000
# 5 0.000000 0.000000 0.000000 0.000000 0.014971 0.000000
# 6 0.000000 0.000000 0.000000 0.000000 0.000000 0.020080
#
#
# Mechanical properties :
#
#
# Convention : Reuss Voigt Hill
#
# Bulk Modulus (GPa) = 52.59013 53.95250 53.27131
# Shear Modulus (GPa) = 41.74230 60.48451 51.11340
#
# Velocity S-wave (km/s) = 4.22002 5.07982 4.66975
# Velocity P-wave (km/s) = 6.79569 7.57786 7.19741
#
# Compressibility (1/GPa) = 0.01901498
#
# Stress axis : x y z
#
# Youngs Moduli (GPa) = 46.01790 76.46206 102.16729
#
# Poissons Ratio (x) = 0.56971 0.54779
# Poissons Ratio (y) = 0.34287 -0.00220
# Poissons Ratio (z) = 0.24673 -0.00165
#
# Static dielectric constant tensor:
#      x y z
#    x 2.122110 0.000000 0.000000 
#    y 0.000000 2.181300 0.000000 
#    z 0.000000 0.000000 1.880920 
# 
# From -- ./inp_files/8859.got.cif
#   From: 2010.05.17/outbox.cif.g08.bks.cpg/sg60_5_cif.got.tgz:8859.got - 2010.06.03 14:59:27.
