data_PCOD9458878
_publ_section_title
;
Structure prediction by ZEFSAII (Michael W. Deem and Ramdas Pophale) SiO2 
 PCOD9458878
Probable space group: P B C N
;
_chemical_formula_sum "Si O2"
_cell_formula_units_Z 56
_cell_length_a 15.000000
_cell_length_b 21.000000
_cell_length_c 9.000000
_cell_angle_alpha 90.000000
_cell_angle_beta 90.000000
_cell_angle_gamma 90.000000
_cell_volume 2835.000000
_symmetry_space_group_name_H-M "P B C N"
_symmetry_group_IT_number 60
_symmetry_cell_setting 'orthorhombic'
loop_
_space_group_symop_operation_xyz
x,y,z
1/2-x,1/2-y,1/2+z
1/2+x,1/2-y,-z
-x,y,1/2-z
-x,-y,-z
1/2+x,1/2+y,1/2-z
1/2-x,1/2+y,z
x,-y,1/2+z
loop_
_atom_site_type_symbol
_atom_site_label
_atom_site_fract_x
_atom_site_fract_y
_atom_site_fract_z
Si Si1 0.338362 0.431660 0.070167
Si Si2 0.994131 0.717371 0.928386
Si Si3 0.063171 0.528618 0.376140
Si Si4 0.681765 0.571208 0.571535
Si Si5 0.331795 0.140389 0.534126
Si Si6 0.993689 0.147935 0.572089
Si Si7 0.866970 0.390354 0.128850
O O1 0.325405 0.436694 0.248847
O O2 0.272195 0.375047 0.014408
O O3 0.436363 0.407303 0.033361
O O4 0.322225 0.501207 0.000809
O O5 0.897135 0.699516 0.999559
O O6 0.000000 0.727083 0.750000
O O7 0.057366 0.653960 0.946172
O O8 0.018986 0.784569 0.000400
O O9 0.125804 0.580320 0.448817
O O10 0.109329 0.463161 0.325076
O O11 0.000000 0.556562 0.250000
O O12 0.000000 0.500000 0.500000
O O13 0.602670 0.619485 0.528821
O O14 0.777273 0.602679 0.534823
O O15 0.345668 0.139377 0.711833
O O16 0.000000 0.155892 0.750000
#
# Coordination Sequence:
#
# PCOD9458878 Si02
#       7
#     8   8   8   8   8   8   8
#     4  10  21  38  60  83 113 144 185 235 286 334
#     4  10  21  38  58  78 112 152 187 222 277 342
#     4  12  19  30  53  81 118 150 176 223 281 337
#     4  10  21  37  60  84 113 143 185 236 286 332
#     4  10  20  35  55  84 113 147 182 228 282 336
#     4  10  23  41  56  79 112 151 190 237 277 322
#     4  10  19  35  55  83 114 147 180 227 284 336
#
# _framework density 19.753086
#
# number of rings (size 3 to 8) (size 9 to 14) (size 15 to 20)
#    0.000    1.714    4.286    0.857    0.000    2.857 
#    0.000    0.000    0.000    0.000    0.000    0.000 
#    0.000    0.000    0.000    0.000    0.000    0.000 
#
# Total GULP energy -311743.866505 kJ/mol
# GULP energy per Si atom -5566.854759 kJ/mol
# Density = 1.970813 g / cm^3
# Si number density = 19.753086 Si / 1000 Ang^3
#
#
#
# Elastic Constant Matrix: (Units=GPa)
#
#
# Indices 1 2 3 4 5 6 
#
# 1 75.4497 16.3654 21.1287 0.0000 0.0000 0.0000
# 2 16.3654 74.9951 17.3613 0.0000 0.0000 0.0000
# 3 21.1287 17.3613 24.9628 0.0000 0.0000 0.0000
# 4 0.0000 0.0000 0.0000 12.2166 0.0000 0.0000
# 5 0.0000 0.0000 0.0000 0.0000 13.3102 0.0000
# 6 0.0000 0.0000 0.0000 0.0000 0.0000 -5.2159
#
#
#
# Elastic Compliance Matrix: (Units=1/GPa)
#
#
# Indices 1 2 3 4 5 6 
#
# 1 0.017385 -0.000462 -0.014393 0.000000 0.000000 0.000000
# 2 -0.000462 0.015905 -0.010671 0.000000 0.000000 0.000000
# 3 -0.014393 -0.010671 0.059664 0.000000 0.000000 0.000000
# 4 0.000000 0.000000 0.000000 0.081856 0.000000 0.000000
# 5 0.000000 0.000000 0.000000 0.000000 0.075130 0.000000
# 6 0.000000 0.000000 0.000000 0.000000 0.000000 -0.191721
#
#
# Mechanical properties :
#
#
# Convention : Reuss Voigt Hill
#
# Bulk Modulus (GPa) = 23.86554 31.67981 27.77268
# Shear Modulus (GPa) = 40.57174 12.09900 26.33537
#
# Velocity S-wave (km/s) = 4.53696 2.47758 3.65530
# Velocity P-wave (km/s) = 6.28916 4.92517 5.64849
#
# Compressibility (1/GPa) = 0.04190141
#
# Stress axis : x y z
#
# Youngs Moduli (GPa) = 57.52193 62.87205 16.76054
#
# Poissons Ratio (x) = 0.02902 0.24124
# Poissons Ratio (y) = 0.02655 0.17886
# Poissons Ratio (z) = 0.82794 0.67092
#
# Static dielectric constant tensor:
#      x y z
#    x 1.720090 0.000000 0.000000 
#    y 0.000000 1.820820 0.000000 
#    z 0.000000 0.000000 1.700380 
# 
# From -- ./inp_files/6151.got.cif
#   From: 2010.05.17/outbox.ucp.g08.bks.cvg/sg60_4_cif.got.tgz:6151.got - 2010.06.11 16:26:41.
