data_PCOD9458909
_publ_section_title
;
Structure prediction by ZEFSAII (Michael W. Deem and Ramdas Pophale) SiO2 
 PCOD9458909
Probable space group: P B C N
;
_chemical_formula_sum "Si O2"
_cell_formula_units_Z 56
_cell_length_a 21.000000
_cell_length_b 15.000000
_cell_length_c 9.000000
_cell_angle_alpha 90.000000
_cell_angle_beta 90.000000
_cell_angle_gamma 90.000000
_cell_volume 2835.000000
_symmetry_space_group_name_H-M "P B C N"
_symmetry_group_IT_number 60
_symmetry_cell_setting 'orthorhombic'
loop_
_space_group_symop_operation_xyz
x,y,z
1/2-x,1/2-y,1/2+z
1/2+x,1/2-y,-z
-x,y,1/2-z
-x,-y,-z
1/2+x,1/2+y,1/2-z
1/2-x,1/2+y,z
x,-y,1/2+z
loop_
_atom_site_type_symbol
_atom_site_label
_atom_site_fract_x
_atom_site_fract_y
_atom_site_fract_z
Si Si1 0.930924 0.270024 0.177609
Si Si2 0.649046 0.526386 0.911780
Si Si3 0.299435 0.147267 0.797840
Si Si4 0.794747 0.283653 0.541052
Si Si5 0.743686 0.452891 0.663030
Si Si6 0.092338 0.155516 0.046298
Si Si7 0.039521 0.170743 0.603467
O O1 0.875325 0.341529 0.194224
O O2 0.908303 0.185925 0.280396
O O3 0.000000 0.294266 0.250000
O O4 0.931581 0.246124 0.003271
O O5 0.694239 0.477078 0.792905
O O6 0.619145 0.440831 0.990171
O O7 0.593405 0.595605 0.865299
O O8 0.696817 0.570205 0.027230
O O9 0.284747 0.178862 0.627406
O O10 0.259025 0.213439 0.904650
O O11 0.281033 0.046674 0.843828
O O12 0.790102 0.367018 0.656683
O O13 0.862542 0.229510 0.534140
O O14 0.018921 0.143306 0.002826
O O15 0.000000 0.197655 0.750000
#
# Coordination Sequence:
#
# PCOD9458909 Si02
#       7
#     8   8   8   8   8   8   8
#     4   9  21  41  63  86 124 171 219 268 336 398
#     4  12  22  39  58  94 132 170 219 268 331 402
#     4  11  23  41  67  96 126 177 221 285 337 396
#     4  11  23  40  63  93 132 169 227 276 336 404
#     4  12  24  39  62  98 132 173 221 279 340 398
#     4  10  21  39  60  86 126 176 215 264 331 400
#     4  11  23  37  60  95 131 171 216 266 327 399
#
# _framework density 19.753086
#
# number of rings (size 3 to 8) (size 9 to 14) (size 15 to 20)
#    0.000    1.143    2.857    4.714    0.000    1.714 
#    0.000    0.000    0.000    8.571    0.000    0.000 
#    0.000    0.000    0.000    0.000    0.000    0.000 
#
# Total GULP energy -311818.235659 kJ/mol
# GULP energy per Si atom -5568.182780 kJ/mol
# Density = 1.970813 g / cm^3
# Si number density = 19.753086 Si / 1000 Ang^3
#
#
#
# Elastic Constant Matrix: (Units=GPa)
#
#
# Indices 1 2 3 4 5 6 
#
# 1 38.6968 -0.3663 -5.3395 0.0000 0.0000 0.0000
# 2 -0.3663 51.6199 -3.7419 0.0000 0.0000 0.0000
# 3 -5.3395 -3.7419 56.0920 0.0000 0.0000 0.0000
# 4 0.0000 0.0000 0.0000 20.5018 0.0000 0.0000
# 5 0.0000 0.0000 0.0000 0.0000 32.5967 0.0000
# 6 0.0000 0.0000 0.0000 0.0000 0.0000 29.1832
#
#
#
# Elastic Compliance Matrix: (Units=1/GPa)
#
#
# Indices 1 2 3 4 5 6 
#
# 1 0.026193 0.000368 0.002518 0.000000 0.000000 0.000000
# 2 0.000368 0.019472 0.001334 0.000000 0.000000 0.000000
# 3 0.002518 0.001334 0.018157 0.000000 0.000000 0.000000
# 4 0.000000 0.000000 0.000000 0.048776 0.000000 0.000000
# 5 0.000000 0.000000 0.000000 0.000000 0.030678 0.000000
# 6 0.000000 0.000000 0.000000 0.000000 0.000000 0.034266
#
#
# Mechanical properties :
#
#
# Convention : Reuss Voigt Hill
#
# Bulk Modulus (GPa) = 13.83858 14.16814 14.00336
# Shear Modulus (GPa) = 25.88153 26.84678 26.36416
#
# Velocity S-wave (km/s) = 3.62367 3.69062 3.65730
# Velocity P-wave (km/s) = 4.95267 5.03479 4.99390
#
# Compressibility (1/GPa) = 0.07226177
#
# Stress axis : x y z
#
# Youngs Moduli (GPa) = 38.17837 51.35659 55.07659
#
# Poissons Ratio (x) = -0.01892 -0.13868
# Poissons Ratio (y) = -0.01406 -0.07347
# Poissons Ratio (z) = -0.09613 -0.06851
#
# Static dielectric constant tensor:
#      x y z
#    x 1.772590 0.000000 0.000000 
#    y 0.000000 1.723940 0.000000 
#    z 0.000000 0.000000 1.810220 
# 
# From -- ./inp_files/7412.got.cif
#   From: 2010.05.17/outbox.ucp.g08.bks.cvg/sg60_4_cif.got.tgz:7412.got - 2010.06.11 16:26:41.
