data_PCOD9458617
_publ_section_title
;
Structure prediction by ZEFSAII (Michael W. Deem and Ramdas Pophale) SiO2 
 PCOD9458617
Probable space group: P B C N
;
_chemical_formula_sum "Si O2"
_cell_formula_units_Z 24
_cell_length_a 7.302010
_cell_length_b 8.848732
_cell_length_c 14.393376
_cell_angle_alpha 90.000000
_cell_angle_beta 90.000000
_cell_angle_gamma 90.000000
_cell_volume 930.006826
_symmetry_space_group_name_H-M "P B C N"
_symmetry_group_IT_number 60
_symmetry_cell_setting 'orthorhombic'
loop_
_space_group_symop_operation_xyz
x,y,z
1/2-x,1/2-y,1/2+z
1/2+x,1/2-y,-z
-x,y,1/2-z
-x,-y,-z
1/2+x,1/2+y,1/2-z
1/2-x,1/2+y,z
x,-y,1/2+z
loop_
_atom_site_type_symbol
_atom_site_label
_atom_site_fract_x
_atom_site_fract_y
_atom_site_fract_z
Si Si1 0.846388 0.272000 0.614763
Si Si2 0.534630 0.854806 0.413728
Si Si3 0.706950 0.853807 0.819697
O O1 0.684941 0.155900 0.591341
O O2 0.888065 0.357522 0.518239
O O3 0.778445 0.352877 0.709124
O O4 0.052741 0.229728 0.647199
O O5 0.610467 0.698614 0.369816
O O6 0.621410 0.989266 0.353863
#
# Coordination Sequence:
#
# PCOD9458617 Si02
#       3
#     8   8   8
#     4  11  26  47  77 109 151 197 251 308 371 446
#     4  12  26  51  77 111 153 198 253 311 374 451
#     4  11  28  47  77 113 150 200 250 306 380 451
#
# _framework density 25.806260999999999
#
# number of rings (size 3 to 8) (size 9 to 14) (size 15 to 20)
#    0.000    0.667    3.333    2.000    9.333    4.000 
#    6.000    0.000    0.000    0.000    0.000    0.000 
#    0.000    0.000    0.000    0.000    0.000    0.000 
#
# Total GULP energy -134143.723776 kJ/mol
# GULP energy per Si atom -5589.321824 kJ/mol
# Density = 2.574752 g / cm^3
# Si number density = 25.806261 Si / 1000 Ang^3
#
#
#
# Elastic Constant Matrix: (Units=GPa)
#
#
# Indices 1 2 3 4 5 6 
#
# 1 158.7764 54.6704 41.7634 0.0000 0.0000 0.0000
# 2 54.6704 87.6432 59.0459 0.0000 0.0000 0.0000
# 3 41.7634 59.0459 255.3424 0.0000 0.0000 0.0000
# 4 0.0000 0.0000 0.0000 36.9790 0.0000 0.0000
# 5 0.0000 0.0000 0.0000 0.0000 44.5464 0.0000
# 6 0.0000 0.0000 0.0000 0.0000 0.0000 23.2734
#
#
#
# Elastic Compliance Matrix: (Units=1/GPa)
#
#
# Indices 1 2 3 4 5 6 
#
# 1 0.008028 -0.004884 -0.000184 0.000000 0.000000 0.000000
# 2 -0.004884 0.016487 -0.003014 0.000000 0.000000 0.000000
# 3 -0.000184 -0.003014 0.004643 0.000000 0.000000 0.000000
# 4 0.000000 0.000000 0.000000 0.027042 0.000000 0.000000
# 5 0.000000 0.000000 0.000000 0.000000 0.022449 0.000000
# 6 0.000000 0.000000 0.000000 0.000000 0.000000 0.042968
#
#
# Mechanical properties :
#
#
# Convention : Reuss Voigt Hill
#
# Bulk Modulus (GPa) = 76.95001 90.30240 83.62620
# Shear Modulus (GPa) = 35.18368 44.04523 39.61446
#
# Velocity S-wave (km/s) = 3.69640 4.13578 3.92225
# Velocity P-wave (km/s) = 6.93548 7.60754 7.27927
#
# Compressibility (1/GPa) = 0.01299545
#
# Stress axis : x y z
#
# Youngs Moduli (GPa) = 124.56105 60.65451 215.36771
#
# Poissons Ratio (x) = 0.29624 0.03956
# Poissons Ratio (y) = 0.60837 0.64903
# Poissons Ratio (z) = 0.02288 0.18279
#
# Static dielectric constant tensor:
#      x y z
#    x 2.014710 0.000000 0.000000 
#    y 0.000000 2.149090 0.000000 
#    z 0.000000 0.000000 1.987900 
# 
# From -- ./inp_files/14203.got.cif
#   From: 2010.05.17/outbox.cif.g08.bks.cpg/sg60_8_cif.got.tgz:14203.got - 2010.06.03 14:59:27.
