data_PCOD9458224
_publ_section_title
;
Structure prediction by ZEFSAII (Michael W. Deem and Ramdas Pophale) SiO2 
 PCOD9458224
Probable space group: P B C N
;
_chemical_formula_sum "Si O2"
_cell_formula_units_Z 48
_cell_length_a 14.170036
_cell_length_b 24.690857
_cell_length_c 5.466413
_cell_angle_alpha 90.000000
_cell_angle_beta 90.000000
_cell_angle_gamma 90.000000
_cell_volume 1912.535734
_symmetry_space_group_name_H-M "P B C N"
_symmetry_group_IT_number 60
_symmetry_cell_setting 'orthorhombic'
loop_
_space_group_symop_operation_xyz
x,y,z
1/2-x,1/2-y,1/2+z
1/2+x,1/2-y,-z
-x,y,1/2-z
-x,-y,-z
1/2+x,1/2+y,1/2-z
1/2-x,1/2+y,z
x,-y,1/2+z
loop_
_atom_site_type_symbol
_atom_site_label
_atom_site_fract_x
_atom_site_fract_y
_atom_site_fract_z
Si Si1 0.500000 0.133846 0.750000
Si Si2 0.762052 0.698460 0.136596
Si Si3 0.335490 0.616768 0.025245
Si Si4 0.651260 0.529652 0.127123
Si Si5 0.301762 0.909878 0.135741
Si Si6 0.094707 0.731780 0.031295
Si Si7 0.000000 0.172516 0.750000
O O1 0.586164 0.096294 0.842369
O O2 0.549020 0.176845 0.564663
O O3 0.723660 0.665831 0.368798
O O4 0.688741 0.746399 0.099330
O O5 0.865826 0.719966 0.196305
O O6 0.769193 0.651259 0.936840
O O7 0.257587 0.579707 0.885041
O O8 0.414693 0.636312 0.841400
O O9 0.381974 0.586715 0.257953
O O10 0.621696 0.492081 0.360130
O O11 0.760671 0.547735 0.062892
O O12 0.031343 0.785309 0.039540
#
# Coordination Sequence:
#
# PCOD9458224 Si02
#       7
#     4   8   8   8   8   8   4
#     4  12  24  40  64 106 140 198 242 294 352 412
#     4  11  22  40  63  94 142 200 241 292 350 397
#     4  11  23  45  70 101 145 181 233 299 366 428
#     4  11  24  48  83 106 132 184 235 300 382 453
#     4  11  23  45  70 101 145 181 233 299 366 428
#     4  12  22  38  64  98 148 192 258 284 330 418
#     4  12  24  40  64 106 140 198 242 294 352 412
#
# _framework density 25.097570000000001
#
# number of rings (size 3 to 8) (size 9 to 14) (size 15 to 20)
#    0.000    0.667    5.000    4.000    0.000    0.000 
#    0.000    1.667    0.000    0.000    0.000    0.000 
#    0.000    0.000    0.000    0.000    0.000    0.000 
#
# Total GULP energy -267950.601058 kJ/mol
# GULP energy per Si atom -5582.304189 kJ/mol
# Density = 2.504045 g / cm^3
# Si number density = 25.097570 Si / 1000 Ang^3
#
#
#
# Elastic Constant Matrix: (Units=GPa)
#
#
# Indices 1 2 3 4 5 6 
#
# 1 110.3173 8.2596 25.0659 0.0000 0.0000 0.0000
# 2 8.2596 76.2483 28.8154 0.0000 0.0000 0.0000
# 3 25.0659 28.8154 111.2057 0.0000 0.0000 0.0000
# 4 0.0000 0.0000 0.0000 37.1154 0.0000 0.0000
# 5 0.0000 0.0000 0.0000 0.0000 39.9471 0.0000
# 6 0.0000 0.0000 0.0000 0.0000 0.0000 -0.5487
#
#
#
# Elastic Compliance Matrix: (Units=1/GPa)
#
#
# Indices 1 2 3 4 5 6 
#
# 1 0.009558 -0.000245 -0.002091 0.000000 0.000000 0.000000
# 2 -0.000245 0.014545 -0.003714 0.000000 0.000000 0.000000
# 3 -0.002091 -0.003714 0.010426 0.000000 0.000000 0.000000
# 4 0.000000 0.000000 0.000000 0.026943 0.000000 0.000000
# 5 0.000000 0.000000 0.000000 0.000000 0.025033 0.000000
# 6 0.000000 0.000000 0.000000 0.000000 0.000000 -1.822494
#
#
# Mechanical properties :
#
#
# Convention : Reuss Voigt Hill
#
# Bulk Modulus (GPa) = 44.58373 46.89481 45.73927
# Shear Modulus (GPa) = -2.91305 31.01144 14.04919
#
# Velocity S-wave (km/s) = -1.07852 3.51897 2.36854
# Velocity P-wave (km/s) = 4.03135 5.93603 5.07387
#
# Compressibility (1/GPa) = 0.02242971
#
# Stress axis : x y z
#
# Youngs Moduli (GPa) = 104.62216 68.75197 95.91498
#
# Poissons Ratio (x) = 0.01686 0.20055
# Poissons Ratio (y) = 0.02565 0.35619
# Poissons Ratio (z) = 0.21875 0.25532
#
# Static dielectric constant tensor:
#      x y z
#    x 2.006400 0.000000 0.000000 
#    y 0.000000 2.044570 0.000000 
#    z 0.000000 0.000000 2.129600 
# 
# From -- ./inp_files/1365.got.cif
#   From: 2010.05.17/outbox.cif.g08.bks.cpg/sg60_1_cif.got.tgz:1365.got - 2010.06.03 14:59:27.
