data_PCOD9458418
_publ_section_title
;
Structure prediction by ZEFSAII (Michael W. Deem and Ramdas Pophale) SiO2 
 PCOD9458418
Probable space group: P B C N
;
_chemical_formula_sum "Si O2"
_cell_formula_units_Z 40
_cell_length_a 23.631849
_cell_length_b 8.288868
_cell_length_c 9.013252
_cell_angle_alpha 90.000000
_cell_angle_beta 90.000000
_cell_angle_gamma 90.000000
_cell_volume 1765.527311
_symmetry_space_group_name_H-M "P B C N"
_symmetry_group_IT_number 60
_symmetry_cell_setting 'orthorhombic'
loop_
_space_group_symop_operation_xyz
x,y,z
1/2-x,1/2-y,1/2+z
1/2+x,1/2-y,-z
-x,y,1/2-z
-x,-y,-z
1/2+x,1/2+y,1/2-z
1/2-x,1/2+y,z
x,-y,1/2+z
loop_
_atom_site_type_symbol
_atom_site_label
_atom_site_fract_x
_atom_site_fract_y
_atom_site_fract_z
Si Si1 0.966214 0.127989 0.104791
Si Si2 0.377672 0.172355 0.065525
Si Si3 0.676447 0.827908 0.439800
Si Si4 0.134928 0.104921 0.841271
Si Si5 0.783238 0.169896 0.146530
O O1 0.936114 0.272389 0.013058
O O2 0.000000 0.184932 0.250000
O O3 0.914766 0.022474 0.168598
O O4 0.000000 0.000000 0.000000
O O5 0.326502 0.252517 0.971785
O O6 0.362068 0.984941 0.077553
O O7 0.375874 0.254138 0.225753
O O8 0.638333 0.679114 0.494513
O O9 0.710055 0.776300 0.293550
O O10 0.722502 0.848733 0.571001
O O11 0.192395 0.006373 0.815216
#
# Coordination Sequence:
#
# PCOD9458418 Si02
#       5
#     8   8   8   8   8
#     4  11  23  46  76  99 134 188 237 281 360 430
#     4  11  24  42  67 104 137 179 237 295 342 418
#     4  12  25  43  68 103 141 179 233 294 348 415
#     4  11  24  43  69  98 133 184 233 281 350 435
#     4  11  24  42  68  95 141 189 224 277 358 431
#
# _framework density 22.656120000000001
#
# number of rings (size 3 to 8) (size 9 to 14) (size 15 to 20)
#    0.000    0.800    2.000    6.000    2.800    4.800 
#    0.000    4.000    0.000    0.000    0.000    0.000 
#    0.000    0.000    0.000    0.000    0.000    0.000 
#
# Total GULP energy -223926.184535 kJ/mol
# GULP energy per Si atom -5598.154613 kJ/mol
# Density = 2.260455 g / cm^3
# Si number density = 22.656120 Si / 1000 Ang^3
#
#
#
# Elastic Constant Matrix: (Units=GPa)
#
#
# Indices 1 2 3 4 5 6 
#
# 1 53.6924 21.1142 19.5392 0.0000 0.0000 0.0000
# 2 21.1142 114.4431 21.0361 0.0000 0.0000 0.0000
# 3 19.5392 21.0361 100.8998 0.0000 0.0000 0.0000
# 4 0.0000 0.0000 0.0000 34.9943 0.0000 0.0000
# 5 0.0000 0.0000 0.0000 0.0000 38.6000 0.0000
# 6 0.0000 0.0000 0.0000 0.0000 0.0000 29.9433
#
#
#
# Elastic Compliance Matrix: (Units=1/GPa)
#
#
# Indices 1 2 3 4 5 6 
#
# 1 0.021155 -0.003275 -0.003414 0.000000 0.000000 0.000000
# 2 -0.003275 0.009593 -0.001366 0.000000 0.000000 0.000000
# 3 -0.003414 -0.001366 0.010857 0.000000 0.000000 0.000000
# 4 0.000000 0.000000 0.000000 0.028576 0.000000 0.000000
# 5 0.000000 0.000000 0.000000 0.000000 0.025907 0.000000
# 6 0.000000 0.000000 0.000000 0.000000 0.000000 0.033396
#
#
# Mechanical properties :
#
#
# Convention : Reuss Voigt Hill
#
# Bulk Modulus (GPa) = 39.22355 43.60159 41.41257
# Shear Modulus (GPa) = 32.44802 34.53056 33.48929
#
# Velocity S-wave (km/s) = 3.78854 3.90823 3.84885
# Velocity P-wave (km/s) = 6.04049 6.29701 6.17009
#
# Compressibility (1/GPa) = 0.02549489
#
# Stress axis : x y z
#
# Youngs Moduli (GPa) = 47.27022 104.23914 92.10951
#
# Poissons Ratio (x) = 0.34143 0.31444
# Poissons Ratio (y) = 0.15483 0.12580
# Poissons Ratio (z) = 0.16137 0.14237
#
# Static dielectric constant tensor:
#      x y z
#    x 1.869680 0.000000 0.000000 
#    y 0.000000 1.850990 0.000000 
#    z 0.000000 0.000000 1.841870 
# 
# From -- ./inp_files/7739.got.cif
#   From: 2010.05.17/outbox.cif.g08.bks.cpg/sg60_4_cif.got.tgz:7739.got - 2010.06.03 14:59:27.
