data_PCOD9458802
_publ_section_title
;
Structure prediction by ZEFSAII (Michael W. Deem and Ramdas Pophale) SiO2 
 PCOD9458802
Probable space group: P B C N
;
_chemical_formula_sum "Si O2"
_cell_formula_units_Z 40
_cell_length_a 4.876812
_cell_length_b 13.508782
_cell_length_c 24.465080
_cell_angle_alpha 90.000000
_cell_angle_beta 90.000000
_cell_angle_gamma 90.000000
_cell_volume 1611.754337
_symmetry_space_group_name_H-M "P B C N"
_symmetry_group_IT_number 60
_symmetry_cell_setting 'orthorhombic'
loop_
_space_group_symop_operation_xyz
x,y,z
1/2-x,1/2-y,1/2+z
1/2+x,1/2-y,-z
-x,y,1/2-z
-x,-y,-z
1/2+x,1/2+y,1/2-z
1/2-x,1/2+y,z
x,-y,1/2+z
loop_
_atom_site_type_symbol
_atom_site_label
_atom_site_fract_x
_atom_site_fract_y
_atom_site_fract_z
Si Si1 0.511131 0.756552 0.536985
Si Si2 0.990441 0.468529 0.563232
Si Si3 0.824991 0.059188 0.340660
Si Si4 0.102559 0.119304 0.870533
Si Si5 0.825814 0.312835 0.696400
O O1 0.248102 0.783995 0.501721
O O2 0.630204 0.857093 0.562988
O O3 0.432904 0.675106 0.581707
O O4 0.825488 0.549633 0.598975
O O5 0.000000 0.500000 0.500000
O O6 0.283954 0.450237 0.593232
O O7 0.530634 0.100370 0.324389
O O8 0.034929 0.132458 0.311000
O O9 0.924607 0.948288 0.329888
O O10 0.216894 0.212423 0.837563
O O11 0.000000 0.282473 0.750000
#
# Coordination Sequence:
#
# PCOD9458802 Si02
#       5
#     8   8   8   8   8
#     4  12  27  43  72 111 162 216 264 311 396 498
#     4  12  26  46  79 119 166 215 262 320 409 506
#     4  12  27  52  77 115 159 202 271 337 407 488
#     4  12  27  47  79 112 164 201 268 333 408 483
#     4  12  30  53  82 110 151 210 273 349 411 483
#
# _framework density 24.817675999999999
#
# number of rings (size 3 to 8) (size 9 to 14) (size 15 to 20)
#    0.000    0.000    6.000    1.800    8.400    3.200 
#    0.000    0.000    0.000    0.000    0.000    0.000 
#    0.000    0.000    0.000    0.000    0.000    0.000 
#
# Total GULP energy -223228.059733 kJ/mol
# GULP energy per Si atom -5580.701493 kJ/mol
# Density = 2.476119 g / cm^3
# Si number density = 24.817676 Si / 1000 Ang^3
#
#
#
# Elastic Constant Matrix: (Units=GPa)
#
#
# Indices 1 2 3 4 5 6 
#
# 1 86.1497 -6.7192 10.0446 0.0000 0.0000 0.0000
# 2 -6.7192 151.7497 26.2347 0.0000 0.0000 0.0000
# 3 10.0446 26.2347 88.5137 0.0000 0.0000 0.0000
# 4 0.0000 0.0000 0.0000 25.0876 0.0000 0.0000
# 5 0.0000 0.0000 0.0000 0.0000 38.8841 0.0000
# 6 0.0000 0.0000 0.0000 0.0000 0.0000 22.6372
#
#
#
# Elastic Compliance Matrix: (Units=1/GPa)
#
#
# Indices 1 2 3 4 5 6 
#
# 1 0.011854 0.000798 -0.001582 0.000000 0.000000 0.000000
# 2 0.000798 0.006999 -0.002165 0.000000 0.000000 0.000000
# 3 -0.001582 -0.002165 0.012119 0.000000 0.000000 0.000000
# 4 0.000000 0.000000 0.000000 0.039860 0.000000 0.000000
# 5 0.000000 0.000000 0.000000 0.000000 0.025717 0.000000
# 6 0.000000 0.000000 0.000000 0.000000 0.000000 0.044175
#
#
# Mechanical properties :
#
#
# Convention : Reuss Voigt Hill
#
# Bulk Modulus (GPa) = 39.87965 42.83703 41.35834
# Shear Modulus (GPa) = 32.26192 37.11198 34.68695
#
# Velocity S-wave (km/s) = 3.60940 3.87122 3.74260
# Velocity P-wave (km/s) = 5.78570 6.10573 5.94787
#
# Compressibility (1/GPa) = 0.02507545
#
# Stress axis : x y z
#
# Youngs Moduli (GPa) = 84.35679 142.86802 82.51552
#
# Poissons Ratio (x) = -0.11406 0.13053
# Poissons Ratio (y) = -0.06735 0.17866
# Poissons Ratio (z) = 0.13344 0.30933
#
# Static dielectric constant tensor:
#      x y z
#    x 2.007340 0.000000 0.000000 
#    y 0.000000 1.974210 0.000000 
#    z 0.000000 0.000000 2.142240 
# 
# From -- ./inp_files/24739.got.cif
#   From: 2010.05.17/outbox.cif.g08.bks.cpg/sg60_13_cif.got.tgz:24739.got - 2010.06.03 14:59:27.
