data_PCOD9458172
_publ_section_title
;
Structure prediction by ZEFSAII (Michael W. Deem and Ramdas Pophale) SiO2 
 PCOD9458172
Probable space group: P B C N
;
_chemical_formula_sum "Si O2"
_cell_formula_units_Z 64
_cell_length_a 12.110510
_cell_length_b 15.342681
_cell_length_c 16.745212
_cell_angle_alpha 90.000000
_cell_angle_beta 90.000000
_cell_angle_gamma 90.000000
_cell_volume 3111.389188
_symmetry_space_group_name_H-M "P B C N"
_symmetry_group_IT_number 60
_symmetry_cell_setting 'orthorhombic'
loop_
_space_group_symop_operation_xyz
x,y,z
1/2-x,1/2-y,1/2+z
1/2+x,1/2-y,-z
-x,y,1/2-z
-x,-y,-z
1/2+x,1/2+y,1/2-z
1/2-x,1/2+y,z
x,-y,1/2+z
loop_
_atom_site_type_symbol
_atom_site_label
_atom_site_fract_x
_atom_site_fract_y
_atom_site_fract_z
Si Si1 0.797123 0.639712 0.603909
Si Si2 0.618888 0.223341 0.759681
Si Si3 0.869103 0.437716 0.863976
Si Si4 0.946371 0.188319 0.665581
Si Si5 0.808551 0.352390 0.711275
Si Si6 0.862561 0.745531 0.451946
Si Si7 0.671298 0.119617 0.916059
Si Si8 0.384055 0.048148 0.425170
O O1 0.854979 0.655572 0.688925
O O2 0.665179 0.645654 0.625954
O O3 0.845463 0.713485 0.543574
O O4 0.833721 0.547733 0.566810
O O5 0.500000 0.264103 0.750000
O O6 0.708305 0.299077 0.748834
O O7 0.620183 0.170375 0.841845
O O8 0.849805 0.425234 0.771046
O O9 0.840751 0.344792 0.903862
O O10 0.799062 0.521120 0.891082
O O11 0.996982 0.456748 0.883532
O O12 0.901345 0.280296 0.697385
O O13 0.000000 0.149171 0.750000
O O14 0.030939 0.212082 0.593493
O O15 0.795603 0.397721 0.626336
O O16 0.771908 0.819779 0.440063
O O17 0.596596 0.101654 0.993474
#
# Coordination Sequence:
#
# PCOD9458172 Si02
#       8
#     8   8   8   8   8   8   8   8
#     4  11  26  43  67 105 140 176 237 290 343 424
#     4  11  24  41  63  95 138 179 220 281 357 416
#     4  12  23  41  71  98 133 176 228 288 346 407
#     4  11  21  44  72  96 138 199 232 278 365 431
#     4  11  22  43  66  98 131 179 231 283 341 424
#     4  12  24  43  70  99 137 180 228 288 345 412
#     4  12  25  42  65 103 134 172 227 287 342 410
#     4  12  24  41  68 102 135 170 235 295 340 406
#
# _framework density 20.569590000000002
#
# number of rings (size 3 to 8) (size 9 to 14) (size 15 to 20)
#    0.000    0.500    5.000    4.500    1.750    0.000 
#    0.000    2.500    0.000    0.000    0.000    0.000 
#    0.000    0.000    0.000    0.000    0.000    0.000 
#
# Total GULP energy -356900.403719 kJ/mol
# GULP energy per Si atom -5576.568808 kJ/mol
# Density = 2.052277 g / cm^3
# Si number density = 20.569590 Si / 1000 Ang^3
#
#
#
# Elastic Constant Matrix: (Units=GPa)
#
#
# Indices 1 2 3 4 5 6 
#
# 1 96.7797 48.9259 52.3013 0.0000 0.0000 0.0000
# 2 48.9259 105.0317 32.5518 0.0000 0.0000 0.0000
# 3 52.3013 32.5518 141.2018 0.0000 0.0000 0.0000
# 4 0.0000 0.0000 0.0000 24.9145 0.0000 0.0000
# 5 0.0000 0.0000 0.0000 0.0000 17.3225 0.0000
# 6 0.0000 0.0000 0.0000 0.0000 0.0000 -7.2187
#
#
#
# Elastic Compliance Matrix: (Units=1/GPa)
#
#
# Indices 1 2 3 4 5 6 
#
# 1 0.015756 -0.005956 -0.004463 0.000000 0.000000 0.000000
# 2 -0.005956 0.012505 -0.000677 0.000000 0.000000 0.000000
# 3 -0.004463 -0.000677 0.008891 0.000000 0.000000 0.000000
# 4 0.000000 0.000000 0.000000 0.040137 0.000000 0.000000
# 5 0.000000 0.000000 0.000000 0.000000 0.057728 0.000000
# 6 0.000000 0.000000 0.000000 0.000000 0.000000 -0.138529
#
#
# Mechanical properties :
#
#
# Convention : Reuss Voigt Hill
#
# Bulk Modulus (GPa) = 66.84245 67.84123 67.34184
# Shear Modulus (GPa) = 211.27046 20.95260 116.11153
#
# Velocity S-wave (km/s) = 10.14559 3.19505 7.52135
# Velocity P-wave (km/s) = 13.03113 6.83111 10.40371
#
# Compressibility (1/GPa) = 0.01496055
#
# Stress axis : x y z
#
# Youngs Moduli (GPa) = 63.46960 79.96701 112.47221
#
# Poissons Ratio (x) = 0.47630 0.50194
# Poissons Ratio (y) = 0.37803 0.07611
# Poissons Ratio (z) = 0.28325 0.05411
#
# Static dielectric constant tensor:
#      x y z
#    x 1.741770 0.000000 0.000000 
#    y 0.000000 1.719520 0.000000 
#    z 0.000000 0.000000 1.849840 
# 
# From -- ./inp_files/20199.got.cif
#   From: 2010.05.17/outbox.cif.g08.bks.cpg/sg60_11_cif.got.tgz:20199.got - 2010.06.03 14:59:27.
