data_PCOD9458355
_publ_section_title
;
Structure prediction by ZEFSAII (Michael W. Deem and Ramdas Pophale) SiO2 
 PCOD9458355
Probable space group: P B C N
;
_chemical_formula_sum "Si O2"
_cell_formula_units_Z 32
_cell_length_a 13.973626
_cell_length_b 12.385828
_cell_length_c 7.534044
_cell_angle_alpha 90.000000
_cell_angle_beta 90.000000
_cell_angle_gamma 90.000000
_cell_volume 1303.954124
_symmetry_space_group_name_H-M "P B C N"
_symmetry_group_IT_number 60
_symmetry_cell_setting 'orthorhombic'
loop_
_space_group_symop_operation_xyz
x,y,z
1/2-x,1/2-y,1/2+z
1/2+x,1/2-y,-z
-x,y,1/2-z
-x,-y,-z
1/2+x,1/2+y,1/2-z
1/2-x,1/2+y,z
x,-y,1/2+z
loop_
_atom_site_type_symbol
_atom_site_label
_atom_site_fract_x
_atom_site_fract_y
_atom_site_fract_z
Si Si1 0.802704 0.872248 0.193703
Si Si2 0.397639 0.923300 0.166915
Si Si3 0.424210 0.564010 0.120884
Si Si4 0.104817 0.336733 0.768789
O O1 0.690916 0.891432 0.209687
O O2 0.823668 0.757343 0.283423
O O3 0.857056 0.973790 0.285674
O O4 0.853228 0.867888 0.001311
O O5 0.500000 0.893874 0.250000
O O6 0.395826 0.053796 0.156576
O O7 0.382070 0.875730 0.971444
O O8 0.500000 0.624052 0.250000
O O9 0.500000 0.500000 0.000000
O O10 0.000000 0.285355 0.750000
#
# Coordination Sequence:
#
# PCOD9458355 Si02
#       4
#     8   8   8   8
#     4  11  23  42  69  99 134 181 228 280 347 414
#     4  11  25  44  67  97 138 180 230 286 338 408
#     4   9  19  38  63  99 138 167 213 281 340 401
#     4  11  24  44  68  95 133 180 227 283 347 409
#
# _framework density 24.540738999999999
#
# number of rings (size 3 to 8) (size 9 to 14) (size 15 to 20)
#    0.000    1.500    0.000    6.750    0.000    7.000 
#    0.000   10.000    0.000    1.500    0.000    0.000 
#    0.000    0.000    0.000    0.000    0.000    0.000 
#
# Total GULP energy -179068.033688 kJ/mol
# GULP energy per Si atom -5595.876053 kJ/mol
# Density = 2.448488 g / cm^3
# Si number density = 24.540739 Si / 1000 Ang^3
#
#
#
# Elastic Constant Matrix: (Units=GPa)
#
#
# Indices 1 2 3 4 5 6 
#
# 1 212.1660 35.6718 38.7457 0.0000 0.0000 0.0000
# 2 35.6718 97.3480 -2.0490 0.0000 0.0000 0.0000
# 3 38.7457 -2.0490 74.7671 0.0000 0.0000 0.0000
# 4 0.0000 0.0000 0.0000 8.6525 0.0000 0.0000
# 5 0.0000 0.0000 0.0000 0.0000 39.1436 0.0000
# 6 0.0000 0.0000 0.0000 0.0000 0.0000 32.2114
#
#
#
# Elastic Compliance Matrix: (Units=1/GPa)
#
#
# Indices 1 2 3 4 5 6 
#
# 1 0.005611 -0.002119 -0.002966 0.000000 0.000000 0.000000
# 2 -0.002119 0.011078 0.001401 0.000000 0.000000 0.000000
# 3 -0.002966 0.001401 0.014950 0.000000 0.000000 0.000000
# 4 0.000000 0.000000 0.000000 0.115573 0.000000 0.000000
# 5 0.000000 0.000000 0.000000 0.000000 0.025547 0.000000
# 6 0.000000 0.000000 0.000000 0.000000 0.000000 0.031045
#
#
# Mechanical properties :
#
#
# Convention : Reuss Voigt Hill
#
# Bulk Modulus (GPa) = 41.19679 58.77981 49.98830
# Shear Modulus (GPa) = 22.80381 36.79568 29.79975
#
# Velocity S-wave (km/s) = 3.05162 3.87637 3.48846
# Velocity P-wave (km/s) = 5.40741 6.63618 6.05306
#
# Compressibility (1/GPa) = 0.02427373
#
# Stress axis : x y z
#
# Youngs Moduli (GPa) = 178.21804 90.26714 66.88861
#
# Poissons Ratio (x) = 0.19123 0.19838
# Poissons Ratio (y) = 0.37756 -0.09374
# Poissons Ratio (z) = 0.52857 -0.12651
#
# Static dielectric constant tensor:
#      x y z
#    x 2.074290 0.000000 0.000000 
#    y 0.000000 2.444310 0.000000 
#    z 0.000000 0.000000 2.058670 
# 
# From -- ./inp_files/5468.got.cif
#   From: 2010.05.17/outbox.cif.g08.bks.cpg/sg60_3_cif.got.tgz:5468.got - 2010.06.03 14:59:27.
