data_PCOD9458568
_publ_section_title
;
Structure prediction by ZEFSAII (Michael W. Deem and Ramdas Pophale) SiO2 
 PCOD9458568
Probable space group: P B C N
;
_chemical_formula_sum "Si O2"
_cell_formula_units_Z 32
_cell_length_a 6.915629
_cell_length_b 26.784113
_cell_length_c 6.702586
_cell_angle_alpha 90.000000
_cell_angle_beta 90.000000
_cell_angle_gamma 90.000000
_cell_volume 1241.513226
_symmetry_space_group_name_H-M "P B C N"
_symmetry_group_IT_number 60
_symmetry_cell_setting 'orthorhombic'
loop_
_space_group_symop_operation_xyz
x,y,z
1/2-x,1/2-y,1/2+z
1/2+x,1/2-y,-z
-x,y,1/2-z
-x,-y,-z
1/2+x,1/2+y,1/2-z
1/2-x,1/2+y,z
x,-y,1/2+z
loop_
_atom_site_type_symbol
_atom_site_label
_atom_site_fract_x
_atom_site_fract_y
_atom_site_fract_z
Si Si1 0.699874 0.705867 0.351984
Si Si2 0.000000 0.212244 0.750000
Si Si3 0.847947 0.502538 0.130765
Si Si4 0.500000 0.568544 0.750000
Si Si5 0.806818 0.110865 0.121620
O O1 0.500000 0.722293 0.250000
O O2 0.847660 0.751068 0.359617
O O3 0.630676 0.688339 0.572595
O O4 0.779973 0.662094 0.205955
O O5 0.901536 0.491460 0.379462
O O6 0.653334 0.466978 0.129770
O O7 0.807554 0.561182 0.165024
O O8 0.371611 0.603614 0.606607
O O9 0.000000 0.107738 0.250000
#
# Coordination Sequence:
#
# PCOD9458568 Si02
#       5
#     8   4   8   4   8
#     4  11  26  47  82 114 155 189 255 318 391 473
#     4  12  24  53  84 116 148 202 240 322 405 468
#     4  12  23  42  75 105 149 207 261 308 376 442
#     4  12  24  49  70 102 164 202 254 316 381 448
#     4  11  25  45  72 112 147 200 251 320 369 455
#
# _framework density 25.774996999999999
#
# number of rings (size 3 to 8) (size 9 to 14) (size 15 to 20)
#    0.000    0.500    6.250    2.250    1.750    4.000 
#    0.000    0.000   13.750    0.000    0.000    0.000 
#    0.000    0.000    0.000    0.000    0.000    0.000 
#
# Total GULP energy -178593.599330 kJ/mol
# GULP energy per Si atom -5581.049979 kJ/mol
# Density = 2.571633 g / cm^3
# Si number density = 25.774997 Si / 1000 Ang^3
#
#
#
# Elastic Constant Matrix: (Units=GPa)
#
#
# Indices 1 2 3 4 5 6 
#
# 1 83.8867 20.4489 36.3944 0.0000 0.0000 0.0000
# 2 20.4489 94.5346 44.0512 0.0000 0.0000 0.0000
# 3 36.3944 44.0512 191.5521 0.0000 0.0000 0.0000
# 4 0.0000 0.0000 0.0000 46.2617 0.0000 0.0000
# 5 0.0000 0.0000 0.0000 0.0000 62.1527 0.0000
# 6 0.0000 0.0000 0.0000 0.0000 0.0000 17.9958
#
#
#
# Elastic Compliance Matrix: (Units=1/GPa)
#
#
# Indices 1 2 3 4 5 6 
#
# 1 0.013290 -0.001902 -0.002088 0.000000 0.000000 0.000000
# 2 -0.001902 0.012120 -0.002426 0.000000 0.000000 0.000000
# 3 -0.002088 -0.002426 0.006175 0.000000 0.000000 0.000000
# 4 0.000000 0.000000 0.000000 0.021616 0.000000 0.000000
# 5 0.000000 0.000000 0.000000 0.000000 0.016089 0.000000
# 6 0.000000 0.000000 0.000000 0.000000 0.000000 0.055569
#
#
# Mechanical properties :
#
#
# Convention : Reuss Voigt Hill
#
# Bulk Modulus (GPa) = 53.32161 63.52916 58.42539
# Shear Modulus (GPa) = 34.73623 43.22061 38.97842
#
# Velocity S-wave (km/s) = 3.67505 4.09937 3.89299
# Velocity P-wave (km/s) = 6.22416 6.86349 6.55163
#
# Compressibility (1/GPa) = 0.01875412
#
# Stress axis : x y z
#
# Youngs Moduli (GPa) = 75.24318 82.50849 161.94218
#
# Poissons Ratio (x) = 0.15693 0.33809
# Poissons Ratio (y) = 0.14311 0.39285
# Poissons Ratio (z) = 0.15709 0.20015
#
# Static dielectric constant tensor:
#      x y z
#    x 2.075940 0.000000 0.000000 
#    y 0.000000 2.051270 0.000000 
#    z 0.000000 0.000000 2.187840 
# 
# From -- ./inp_files/397.got.cif
#   From: 2010.05.17/outbox.cif.g08.bks.cpg/sg60_1_cif.got.tgz:397.got - 2010.06.03 14:59:27.
