data_PCOD9458123
_publ_section_title
;
Structure prediction by ZEFSAII (Michael W. Deem and Ramdas Pophale) SiO2 
 PCOD9458123
Probable space group: P B C N
;
_chemical_formula_sum "Si O2"
_cell_formula_units_Z 48
_cell_length_a 11.001864
_cell_length_b 8.179470
_cell_length_c 24.427441
_cell_angle_alpha 90.000000
_cell_angle_beta 90.000000
_cell_angle_gamma 90.000000
_cell_volume 2198.211163
_symmetry_space_group_name_H-M "P B C N"
_symmetry_group_IT_number 60
_symmetry_cell_setting 'orthorhombic'
loop_
_space_group_symop_operation_xyz
x,y,z
1/2-x,1/2-y,1/2+z
1/2+x,1/2-y,-z
-x,y,1/2-z
-x,-y,-z
1/2+x,1/2+y,1/2-z
1/2-x,1/2+y,z
x,-y,1/2+z
loop_
_atom_site_type_symbol
_atom_site_label
_atom_site_fract_x
_atom_site_fract_y
_atom_site_fract_z
Si Si1 0.135926 0.157339 0.101178
Si Si2 0.826433 0.533595 0.963958
Si Si3 0.374784 0.743334 0.228689
Si Si4 0.376931 0.620915 0.774249
Si Si5 0.800840 0.267554 0.042723
Si Si6 0.100296 0.970498 0.398946
O O1 0.104536 0.316989 0.064913
O O2 0.130685 0.218895 0.163445
O O3 0.040841 0.009738 0.092543
O O4 0.264728 0.082304 0.081862
O O5 0.873829 0.413762 0.012321
O O6 0.722233 0.634486 0.995996
O O7 0.500000 0.827408 0.250000
O O8 0.379501 0.563878 0.253740
O O9 0.249531 0.814015 0.251294
O O10 0.500000 0.702373 0.750000
O O11 0.381806 0.607704 0.839521
O O12 0.847017 0.156137 0.092970
O O13 0.673128 0.350296 0.060736
#
# Coordination Sequence:
#
# PCOD9458123 Si02
#       6
#     8   8   8   8   8   8
#     4  11  21  39  66  91 127 173 210 273 327 388
#     4   9  21  39  61  94 127 163 213 266 325 388
#     4  11  23  42  66  98 133 171 222 272 330 394
#     4  11  23  42  66  97 130 172 219 270 329 393
#     4   9  21  39  61  94 127 164 211 269 323 390
#     4  11  21  39  66  90 128 171 212 271 330 384
#
# _framework density 21.835937000000001
#
# number of rings (size 3 to 8) (size 9 to 14) (size 15 to 20)
#    0.000    1.667    3.333    2.000    0.000    7.333 
#    0.000    5.000    0.000    0.000    0.000    0.000 
#    0.000    0.000    0.000    0.000    0.000    0.000 
#
# Total GULP energy -267300.241133 kJ/mol
# GULP energy per Si atom -5568.755024 kJ/mol
# Density = 2.178624 g / cm^3
# Si number density = 21.835937 Si / 1000 Ang^3
#
#
#
# Elastic Constant Matrix: (Units=GPa)
#
#
# Indices 1 2 3 4 5 6 
#
# 1 127.9460 25.7566 44.3555 0.0000 0.0000 0.0000
# 2 25.7566 56.1767 23.2250 0.0000 0.0000 0.0000
# 3 44.3555 23.2250 128.7402 0.0000 0.0000 0.0000
# 4 0.0000 0.0000 0.0000 13.9546 0.0000 0.0000
# 5 0.0000 0.0000 0.0000 0.0000 17.3823 0.0000
# 6 0.0000 0.0000 0.0000 0.0000 0.0000 40.5521
#
#
#
# Elastic Compliance Matrix: (Units=1/GPa)
#
#
# Indices 1 2 3 4 5 6 
#
# 1 0.009381 -0.003204 -0.002654 0.000000 0.000000 0.000000
# 2 -0.003204 0.020330 -0.002564 0.000000 0.000000 0.000000
# 3 -0.002654 -0.002564 0.009144 0.000000 0.000000 0.000000
# 4 0.000000 0.000000 0.000000 0.071661 0.000000 0.000000
# 5 0.000000 0.000000 0.000000 0.000000 0.057530 0.000000
# 6 0.000000 0.000000 0.000000 0.000000 0.000000 0.024660
#
#
# Mechanical properties :
#
#
# Convention : Reuss Voigt Hill
#
# Bulk Modulus (GPa) = 45.42974 55.50410 50.46692
# Shear Modulus (GPa) = 23.05360 29.01287 26.03323
#
# Velocity S-wave (km/s) = 3.25278 3.64905 3.45660
# Velocity P-wave (km/s) = 5.91250 6.57480 6.25242
#
# Compressibility (1/GPa) = 0.02201201
#
# Stress axis : x y z
#
# Youngs Moduli (GPa) = 106.60032 49.18891 109.35543
#
# Poissons Ratio (x) = 0.15759 0.29024
# Poissons Ratio (y) = 0.34152 0.28036
# Poissons Ratio (z) = 0.28292 0.12611
#
# Static dielectric constant tensor:
#      x y z
#    x 0.373740 0.000000 0.000000 
#    y 0.000000 1.780210 0.000000 
#    z 0.000000 0.000000 1.833920 
# 
# From -- ./inp_files/25280.got.cif
#   From: 2010.05.17/outbox.cif.g08.bks.cpg/sg60_13_cif.got.tgz:25280.got - 2010.06.03 14:59:27.
