data_PCOD9458299
_publ_section_title
;
Structure prediction by ZEFSAII (Michael W. Deem and Ramdas Pophale) SiO2 
 PCOD9458299
Probable space group: P B C N
;
_chemical_formula_sum "Si O2"
_cell_formula_units_Z 32
_cell_length_a 5.369477
_cell_length_b 9.460181
_cell_length_c 24.747605
_cell_angle_alpha 90.000000
_cell_angle_beta 90.000000
_cell_angle_gamma 90.000000
_cell_volume 1257.084894
_symmetry_space_group_name_H-M "P B C N"
_symmetry_group_IT_number 60
_symmetry_cell_setting 'orthorhombic'
loop_
_space_group_symop_operation_xyz
x,y,z
1/2-x,1/2-y,1/2+z
1/2+x,1/2-y,-z
-x,y,1/2-z
-x,-y,-z
1/2+x,1/2+y,1/2-z
1/2-x,1/2+y,z
x,-y,1/2+z
loop_
_atom_site_type_symbol
_atom_site_label
_atom_site_fract_x
_atom_site_fract_y
_atom_site_fract_z
Si Si1 0.701755 0.664462 0.012158
Si Si2 0.848033 0.023552 0.412942
Si Si3 0.442828 0.243168 0.155522
Si Si4 0.751419 0.351080 0.240149
O O1 0.904141 0.110856 0.069715
O O2 0.456604 0.747154 0.988781
O O3 0.745811 0.536670 0.970411
O O4 0.904045 0.887631 0.377193
O O5 0.645554 0.116967 0.382033
O O6 0.709846 0.266318 0.184704
O O7 0.266806 0.245994 0.208732
O O8 0.500000 0.439318 0.250000
O O9 0.000000 0.435239 0.250000
#
# Coordination Sequence:
#
# PCOD9458299 Si02
#       4
#     8   8   8   8
#     4  11  26  49  70 110 153 201 259 317 369 454
#     4  11  22  48  74 111 145 211 246 317 378 451
#     4   9  22  44  72 108 145 195 248 307 379 449
#     4   8  20  46  66 102 141 184 235 304 367 449
#
# _framework density 25.455718000000001
#
# number of rings (size 3 to 8) (size 9 to 14) (size 15 to 20)
#    1.500    0.500    2.500    0.000    0.000    6.000 
#   18.000    0.000    0.000    0.000    0.000    0.000 
#    0.000    0.000    0.000    0.000    0.000    0.000 
#
# Total GULP energy -178485.178872 kJ/mol
# GULP energy per Si atom -5577.661840 kJ/mol
# Density = 2.539778 g / cm^3
# Si number density = 25.455718 Si / 1000 Ang^3
#
#
#
# Elastic Constant Matrix: (Units=GPa)
#
#
# Indices 1 2 3 4 5 6 
#
# 1 176.9049 61.0207 42.4559 0.0000 0.0000 0.0000
# 2 61.0207 106.1877 58.3857 0.0000 0.0000 0.0000
# 3 42.4559 58.3857 141.9605 0.0000 0.0000 0.0000
# 4 0.0000 0.0000 0.0000 14.3852 0.0000 0.0000
# 5 0.0000 0.0000 0.0000 0.0000 30.7405 0.0000
# 6 0.0000 0.0000 0.0000 0.0000 0.0000 12.8628
#
#
#
# Elastic Compliance Matrix: (Units=1/GPa)
#
#
# Indices 1 2 3 4 5 6 
#
# 1 0.007086 -0.003756 -0.000574 0.000000 0.000000 0.000000
# 2 -0.003756 0.014160 -0.004700 0.000000 0.000000 0.000000
# 3 -0.000574 -0.004700 0.009149 0.000000 0.000000 0.000000
# 4 0.000000 0.000000 0.000000 0.069516 0.000000 0.000000
# 5 0.000000 0.000000 0.000000 0.000000 0.032530 0.000000
# 6 0.000000 0.000000 0.000000 0.000000 0.000000 0.077744
#
#
# Mechanical properties :
#
#
# Convention : Reuss Voigt Hill
#
# Bulk Modulus (GPa) = 81.08017 83.19753 82.13885
# Shear Modulus (GPa) = 21.51838 29.14374 25.33106
#
# Velocity S-wave (km/s) = 2.91060 3.38728 3.15795
# Velocity P-wave (km/s) = 6.57389 6.93198 6.75531
#
# Compressibility (1/GPa) = 0.01233347
#
# Stress axis : x y z
#
# Youngs Moduli (GPa) = 141.11758 70.61972 109.29895
#
# Poissons Ratio (x) = 0.26527 0.06278
# Poissons Ratio (y) = 0.53008 0.51376
# Poissons Ratio (z) = 0.08106 0.33195
#
# Static dielectric constant tensor:
#      x y z
#    x 2.178770 0.000000 0.000000 
#    y 0.000000 1.982320 0.000000 
#    z 0.000000 0.000000 2.054590 
# 
# From -- ./inp_files/25574.got.cif
#   From: 2010.05.17/outbox.cif.g08.bks.cpg/sg60_13_cif.got.tgz:25574.got - 2010.06.03 14:59:27.
