data_PCOD9458496
_publ_section_title
;
Structure prediction by ZEFSAII (Michael W. Deem and Ramdas Pophale) SiO2 
 PCOD9458496
Probable space group: P B C N
;
_chemical_formula_sum "Si O2"
_cell_formula_units_Z 28
_cell_length_a 7.289304
_cell_length_b 16.150148
_cell_length_c 11.601249
_cell_angle_alpha 90.000000
_cell_angle_beta 90.000000
_cell_angle_gamma 90.000000
_cell_volume 1365.737762
_symmetry_space_group_name_H-M "P B C N"
_symmetry_group_IT_number 60
_symmetry_cell_setting 'orthorhombic'
loop_
_space_group_symop_operation_xyz
x,y,z
1/2-x,1/2-y,1/2+z
1/2+x,1/2-y,-z
-x,y,1/2-z
-x,-y,-z
1/2+x,1/2+y,1/2-z
1/2-x,1/2+y,z
x,-y,1/2+z
loop_
_atom_site_type_symbol
_atom_site_label
_atom_site_fract_x
_atom_site_fract_y
_atom_site_fract_z
Si Si1 0.243640 0.400539 0.332175
Si Si2 0.989049 0.842089 0.533203
Si Si3 0.619738 0.159858 0.904047
Si Si4 0.000000 0.956603 0.750000
O O1 0.385777 0.365252 0.424332
O O2 0.213900 0.340484 0.222236
O O3 0.329835 0.484075 0.281719
O O4 0.044810 0.406070 0.392216
O O5 0.025944 0.747280 0.567097
O O6 0.778625 0.856309 0.495943
O O7 0.039455 0.900137 0.639907
#
# Coordination Sequence:
#
# PCOD9458496 Si02
#       4
#     8   8   8   4
#     4  11  24  45  68 102 141 178 227 293 345 413
#     4  12  24  46  71 101 138 184 234 292 340 418
#     4  11  24  45  73  97 135 184 240 279 347 410
#     4  12  26  44  70 102 148 180 230 286 362 408
#
# _framework density 20.501740000000002
#
# number of rings (size 3 to 8) (size 9 to 14) (size 15 to 20)
#    0.000    0.571    5.714    2.571    0.000    1.143 
#    5.143    0.000    0.000    0.000    0.000    0.000 
#    0.000    0.000    0.000    0.000    0.000    0.000 
#
# Total GULP energy -156532.900818 kJ/mol
# GULP energy per Si atom -5590.460744 kJ/mol
# Density = 2.045508 g / cm^3
# Si number density = 20.501740 Si / 1000 Ang^3
#
#
#
# Elastic Constant Matrix: (Units=GPa)
#
#
# Indices 1 2 3 4 5 6 
#
# 1 140.2775 51.0426 49.0078 0.0000 0.0000 0.0000
# 2 51.0426 56.6560 37.2792 0.0000 0.0000 0.0000
# 3 49.0078 37.2792 75.2162 0.0000 0.0000 0.0000
# 4 0.0000 0.0000 0.0000 111.3722 0.0000 0.0000
# 5 0.0000 0.0000 0.0000 0.0000 47.4749 0.0000
# 6 0.0000 0.0000 0.0000 0.0000 0.0000 8.8471
#
#
#
# Elastic Compliance Matrix: (Units=1/GPa)
#
#
# Indices 1 2 3 4 5 6 
#
# 1 0.011161 -0.007821 -0.003396 0.000000 0.000000 0.000000
# 2 -0.007821 0.031672 -0.010602 0.000000 0.000000 0.000000
# 3 -0.003396 -0.010602 0.020762 0.000000 0.000000 0.000000
# 4 0.000000 0.000000 0.000000 0.008979 0.000000 0.000000
# 5 0.000000 0.000000 0.000000 0.000000 0.021064 0.000000
# 6 0.000000 0.000000 0.000000 0.000000 0.000000 0.113031
#
#
# Mechanical properties :
#
#
# Convention : Reuss Voigt Hill
#
# Bulk Modulus (GPa) = 50.10437 60.75656 55.43046
# Shear Modulus (GPa) = 19.45841 42.52686 30.99263
#
# Velocity S-wave (km/s) = 3.08411 4.55939 3.89229
# Velocity P-wave (km/s) = 6.09708 7.57737 6.87717
#
# Compressibility (1/GPa) = 0.01995834
#
# Stress axis : x y z
#
# Youngs Moduli (GPa) = 89.59978 31.57351 48.16436
#
# Poissons Ratio (x) = 0.24692 0.16356
# Poissons Ratio (y) = 0.70072 0.51064
# Poissons Ratio (z) = 0.30426 0.33474
#
# Static dielectric constant tensor:
#      x y z
#    x 1.757760 0.000000 0.000000 
#    y 0.000000 1.703700 0.000000 
#    z 0.000000 0.000000 1.720030 
# 
# From -- ./inp_files/9433.got.cif
#   From: 2010.05.17/outbox.cif.g08.bks.cpg/sg60_5_cif.got.tgz:9433.got - 2010.06.03 14:59:27.
