data_PCOD9458137
_publ_section_title
;
Structure prediction by ZEFSAII (Michael W. Deem and Ramdas Pophale) SiO2 
 PCOD9458137
Probable space group: P B C N
;
_chemical_formula_sum "Si O2"
_cell_formula_units_Z 40
_cell_length_a 9.198172
_cell_length_b 22.564958
_cell_length_c 8.919344
_cell_angle_alpha 90.000000
_cell_angle_beta 90.000000
_cell_angle_gamma 90.000000
_cell_volume 1851.266618
_symmetry_space_group_name_H-M "P B C N"
_symmetry_group_IT_number 60
_symmetry_cell_setting 'orthorhombic'
loop_
_space_group_symop_operation_xyz
x,y,z
1/2-x,1/2-y,1/2+z
1/2+x,1/2-y,-z
-x,y,1/2-z
-x,-y,-z
1/2+x,1/2+y,1/2-z
1/2-x,1/2+y,z
x,-y,1/2+z
loop_
_atom_site_type_symbol
_atom_site_label
_atom_site_fract_x
_atom_site_fract_y
_atom_site_fract_z
Si Si1 0.934099 0.556229 0.084937
Si Si2 0.156405 0.151028 0.683566
Si Si3 0.352259 0.388293 0.842500
Si Si4 0.405583 0.152940 0.881064
Si Si5 0.160427 0.288982 0.678979
O O1 0.762042 0.558682 0.121435
O O2 0.000000 0.561376 0.250000
O O3 0.000000 0.500000 0.000000
O O4 0.989789 0.610304 0.979684
O O5 0.133830 0.137392 0.509532
O O6 0.278289 0.119729 0.787845
O O7 0.196435 0.220401 0.700868
O O8 0.000000 0.139576 0.750000
O O9 0.500000 0.402377 0.750000
O O10 0.267492 0.337197 0.750194
O O11 0.500000 0.181823 0.750000
O O12 0.343670 0.197753 0.002438
O O13 0.000000 0.297244 0.750000
#
# Coordination Sequence:
#
# PCOD9458137 Si02
#       5
#     8   8   8   8   8
#     4  12  26  49  77 101 127 180 236 293 362 427
#     4  11  25  37  64 104 145 188 229 280 341 412
#     4  12  24  45  67 101 142 179 226 299 349 413
#     4  12  21  41  69  97 136 181 236 288 337 419
#     4  11  21  41  63  99 143 194 232 266 340 419
#
# _framework density 21.606829000000001
#
# number of rings (size 3 to 8) (size 9 to 14) (size 15 to 20)
#    0.000    0.400    6.000    3.000    0.000    6.400 
#    0.000    2.000    0.000    0.000    0.000    0.000 
#    0.000    0.000    0.000    0.000    0.000    0.000 
#
# Total GULP energy -223224.554564 kJ/mol
# GULP energy per Si atom -5580.613864 kJ/mol
# Density = 2.155765 g / cm^3
# Si number density = 21.606829 Si / 1000 Ang^3
#
#
#
# Elastic Constant Matrix: (Units=GPa)
#
#
# Indices 1 2 3 4 5 6 
#
# 1 168.5375 19.3173 74.3216 0.0000 0.0000 0.0000
# 2 19.3173 33.5282 18.4089 0.0000 0.0000 0.0000
# 3 74.3216 18.4089 208.1112 0.0000 0.0000 0.0000
# 4 0.0000 0.0000 0.0000 12.5140 0.0000 0.0000
# 5 0.0000 0.0000 0.0000 0.0000 59.8749 0.0000
# 6 0.0000 0.0000 0.0000 0.0000 0.0000 -1.7084
#
#
#
# Elastic Compliance Matrix: (Units=1/GPa)
#
#
# Indices 1 2 3 4 5 6 
#
# 1 0.007304 -0.002918 -0.002350 0.000000 0.000000 0.000000
# 2 -0.002918 0.032514 -0.001834 0.000000 0.000000 0.000000
# 3 -0.002350 -0.001834 0.005807 0.000000 0.000000 0.000000
# 4 0.000000 0.000000 0.000000 0.079911 0.000000 0.000000
# 5 0.000000 0.000000 0.000000 0.000000 0.016701 0.000000
# 6 0.000000 0.000000 0.000000 0.000000 0.000000 -0.585340
#
#
# Mechanical properties :
#
#
# Convention : Reuss Voigt Hill
#
# Bulk Modulus (GPa) = 31.82669 70.47470 51.15070
# Shear Modulus (GPa) = -11.94957 34.01138 11.03090
#
# Velocity S-wave (km/s) = -2.35424 3.97180 2.26194
# Velocity P-wave (km/s) = 2.71513 7.32948 5.52690
#
# Compressibility (1/GPa) = 0.03142016
#
# Stress axis : x y z
#
# Youngs Moduli (GPa) = 136.90497 30.75622 172.21306
#
# Poissons Ratio (x) = 0.08974 0.40478
# Poissons Ratio (y) = 0.39947 0.31584
# Poissons Ratio (z) = 0.32179 0.05641
#
# Static dielectric constant tensor:
#      x y z
#    x 1.807500 0.000000 0.000000 
#    y 0.000000 1.839990 0.000000 
#    z 0.000000 0.000000 1.680360 
# 
# From -- ./inp_files/3984.got.cif
#   From: 2010.05.17/outbox.cif.g08.bks.cpg/sg60_2_cif.got.tgz:3984.got - 2010.06.03 14:59:27.
