data_PCOD9458933
_publ_section_title
;
Structure prediction by ZEFSAII (Michael W. Deem and Ramdas Pophale) SiO2 
 PCOD9458933
Probable space group: P B C N
;
_chemical_formula_sum "Si O2"
_cell_formula_units_Z 48
_cell_length_a 9.000000
_cell_length_b 18.000000
_cell_length_c 15.000000
_cell_angle_alpha 90.000000
_cell_angle_beta 90.000000
_cell_angle_gamma 90.000000
_cell_volume 2430.000000
_symmetry_space_group_name_H-M "P B C N"
_symmetry_group_IT_number 60
_symmetry_cell_setting 'orthorhombic'
loop_
_space_group_symop_operation_xyz
x,y,z
1/2-x,1/2-y,1/2+z
1/2+x,1/2-y,-z
-x,y,1/2-z
-x,-y,-z
1/2+x,1/2+y,1/2-z
1/2-x,1/2+y,z
x,-y,1/2+z
loop_
_atom_site_type_symbol
_atom_site_label
_atom_site_fract_x
_atom_site_fract_y
_atom_site_fract_z
Si Si1 0.066264 0.646863 0.492769
Si Si2 0.389843 0.709732 0.486297
Si Si3 0.635133 0.694720 0.811529
Si Si4 0.131558 0.590100 0.689868
Si Si5 0.095318 0.418516 0.669525
Si Si6 0.884189 0.177833 0.330710
O O1 0.219043 0.689141 0.463095
O O2 0.106141 0.611292 0.587041
O O3 0.929622 0.703327 0.508478
O O4 0.006178 0.591774 0.417703
O O5 0.417759 0.683252 0.587279
O O6 0.510837 0.680245 0.417057
O O7 0.500000 0.718680 0.750000
O O8 0.710768 0.619843 0.777168
O O9 0.777567 0.749919 0.818065
O O10 0.123028 0.502777 0.693866
O O11 0.000000 0.622793 0.750000
O O12 0.257294 0.383472 0.660599
O O13 0.000000 0.383421 0.750000
O O14 0.000000 0.170120 0.250000
#
# Coordination Sequence:
#
# PCOD9458933 Si02
#       6
#     8   8   8   8   8   8
#     4  11  21  39  61  93 122 164 205 252 306 360
#     4  11  22  38  62  92 126 155 203 260 299 357
#     4  11  24  39  62  92 122 158 205 257 305 360
#     4  10  23  42  63  87 124 163 205 245 308 370
#     4  11  23  42  62  89 124 163 204 253 303 364
#     4  12  24  38  62  92 122 160 207 253 309 359
#
# _framework density 19.753086
#
# number of rings (size 3 to 8) (size 9 to 14) (size 15 to 20)
#    0.000    1.000    5.000    2.500    2.333    2.000 
#    0.000    3.333    0.000    0.000    0.000    0.000 
#    0.000    0.000    0.000    0.000    0.000    0.000 
#
# Total GULP energy -267620.062336 kJ/mol
# GULP energy per Si atom -5575.417965 kJ/mol
# Density = 1.970813 g / cm^3
# Si number density = 19.753086 Si / 1000 Ang^3
#
#
#
# Elastic Constant Matrix: (Units=GPa)
#
#
# Indices 1 2 3 4 5 6 
#
# 1 125.3132 36.3787 44.2555 0.0000 0.0000 0.0000
# 2 36.3787 69.6015 0.4134 0.0000 0.0000 0.0000
# 3 44.2555 0.4134 69.8854 0.0000 0.0000 0.0000
# 4 0.0000 0.0000 0.0000 17.4734 0.0000 0.0000
# 5 0.0000 0.0000 0.0000 0.0000 36.4249 0.0000
# 6 0.0000 0.0000 0.0000 0.0000 0.0000 28.6392
#
#
#
# Elastic Compliance Matrix: (Units=1/GPa)
#
#
# Indices 1 2 3 4 5 6 
#
# 1 0.012731 -0.006607 -0.008023 0.000000 0.000000 0.000000
# 2 -0.006607 0.017796 0.004078 0.000000 0.000000 0.000000
# 3 -0.008023 0.004078 0.019366 0.000000 0.000000 0.000000
# 4 0.000000 0.000000 0.000000 0.057230 0.000000 0.000000
# 5 0.000000 0.000000 0.000000 0.000000 0.027454 0.000000
# 6 0.000000 0.000000 0.000000 0.000000 0.000000 0.034917
#
#
# Mechanical properties :
#
#
# Convention : Reuss Voigt Hill
#
# Bulk Modulus (GPa) = 34.73337 47.43283 41.08310
# Shear Modulus (GPa) = 24.97577 28.75766 26.86672
#
# Velocity S-wave (km/s) = 3.55970 3.81971 3.69199
# Velocity P-wave (km/s) = 5.87513 6.59686 6.24643
#
# Compressibility (1/GPa) = 0.02879076
#
# Stress axis : x y z
#
# Youngs Moduli (GPa) = 78.54592 56.19115 51.63750
#
# Poissons Ratio (x) = 0.37124 0.41430
# Poissons Ratio (y) = 0.51893 -0.21060
# Poissons Ratio (z) = 0.63019 -0.22917
#
# Static dielectric constant tensor:
#      x y z
#    x 1.695750 0.000000 0.000000 
#    y 0.000000 1.787080 0.000000 
#    z 0.000000 0.000000 1.484560 
# 
# From -- ./inp_files/14990.got.cif
#   From: 2010.05.17/outbox.ucp.g08.bks.cvg/sg60_8_cif.got.tgz:14990.got - 2010.06.11 16:26:41.
