data_PCOD9458616
_publ_section_title
;
Structure prediction by ZEFSAII (Michael W. Deem and Ramdas Pophale) SiO2 
 PCOD9458616
Probable space group: P B C N
;
_chemical_formula_sum "Si O2"
_cell_formula_units_Z 32
_cell_length_a 8.008280
_cell_length_b 19.947788
_cell_length_c 8.764565
_cell_angle_alpha 90.000000
_cell_angle_beta 90.000000
_cell_angle_gamma 90.000000
_cell_volume 1400.117099
_symmetry_space_group_name_H-M "P B C N"
_symmetry_group_IT_number 60
_symmetry_cell_setting 'orthorhombic'
loop_
_space_group_symop_operation_xyz
x,y,z
1/2-x,1/2-y,1/2+z
1/2+x,1/2-y,-z
-x,y,1/2-z
-x,-y,-z
1/2+x,1/2+y,1/2-z
1/2-x,1/2+y,z
x,-y,1/2+z
loop_
_atom_site_type_symbol
_atom_site_label
_atom_site_fract_x
_atom_site_fract_y
_atom_site_fract_z
Si Si1 0.321954 0.050935 0.829462
Si Si2 0.647433 0.553805 0.985617
Si Si3 0.133778 0.321460 0.530903
Si Si4 0.252346 0.314043 0.875202
O O1 0.500000 0.052638 0.750000
O O2 0.193009 0.059483 0.691121
O O3 0.308138 0.111606 0.946800
O O4 0.295155 0.981826 0.918571
O O5 0.500000 0.500000 0.000000
O O6 0.630186 0.626522 0.061276
O O7 0.223790 0.315946 0.694311
O O8 0.178342 0.256991 0.430058
O O9 0.933688 0.324105 0.554814
#
# Coordination Sequence:
#
# PCOD9458616 Si02
#       4
#     8   8   8   8
#     4  12  25  47  74 104 146 199 248 303 376 446
#     4  12  27  46  73 110 152 192 248 315 376 446
#     4  11  26  47  77 106 146 198 250 307 366 454
#     4  11  26  48  74 110 148 195 248 306 377 441
#
# _framework density 22.855231
#
# number of rings (size 3 to 8) (size 9 to 14) (size 15 to 20)
#    0.000    0.500    2.500    4.500    7.000    0.000 
#    0.000    0.000    0.000    0.000    0.000    0.000 
#    0.000    0.000    0.000    0.000    0.000    0.000 
#
# Total GULP energy -179460.132478 kJ/mol
# GULP energy per Si atom -5608.129140 kJ/mol
# Density = 2.280321 g / cm^3
# Si number density = 22.855231 Si / 1000 Ang^3
#
#
#
# Elastic Constant Matrix: (Units=GPa)
#
#
# Indices 1 2 3 4 5 6 
#
# 1 70.7162 -8.1290 26.7709 0.0000 0.0000 0.0000
# 2 -8.1290 73.0924 -2.3575 0.0000 0.0000 0.0000
# 3 26.7709 -2.3575 102.1363 0.0000 0.0000 0.0000
# 4 0.0000 0.0000 0.0000 46.8570 0.0000 0.0000
# 5 0.0000 0.0000 0.0000 0.0000 34.7861 0.0000
# 6 0.0000 0.0000 0.0000 0.0000 0.0000 34.1377
#
#
#
# Elastic Compliance Matrix: (Units=1/GPa)
#
#
# Indices 1 2 3 4 5 6 
#
# 1 0.015891 0.001634 -0.004128 0.000000 0.000000 0.000000
# 2 0.001634 0.013860 -0.000108 0.000000 0.000000 0.000000
# 3 -0.004128 -0.000108 0.010870 0.000000 0.000000 0.000000
# 4 0.000000 0.000000 0.000000 0.021342 0.000000 0.000000
# 5 0.000000 0.000000 0.000000 0.000000 0.028747 0.000000
# 6 0.000000 0.000000 0.000000 0.000000 0.000000 0.029293
#
#
# Mechanical properties :
#
#
# Convention : Reuss Voigt Hill
#
# Bulk Modulus (GPa) = 28.23447 30.94595 29.59021
# Shear Modulus (GPa) = 36.49301 38.46684 37.47993
#
# Velocity S-wave (km/s) = 4.00021 4.10697 4.05394
# Velocity P-wave (km/s) = 5.80655 6.00491 5.90656
#
# Compressibility (1/GPa) = 0.03541771
#
# Stress axis : x y z
#
# Youngs Moduli (GPa) = 62.92684 72.15228 91.99454
#
# Poissons Ratio (x) = -0.11791 0.37971
# Poissons Ratio (y) = -0.10284 0.00998
# Poissons Ratio (z) = 0.25974 0.00782
#
# Static dielectric constant tensor:
#      x y z
#    x 1.917610 0.000000 0.000000 
#    y 0.000000 1.767250 0.000000 
#    z 0.000000 0.000000 1.796810 
# 
# From -- ./inp_files/3603.got.cif
#   From: 2010.05.17/outbox.cif.g08.bks.cpg/sg60_2_cif.got.tgz:3603.got - 2010.06.03 14:59:27.
