data_PCOD9458661
_publ_section_title
;
Structure prediction by ZEFSAII (Michael W. Deem and Ramdas Pophale) SiO2 
 PCOD9458661
Probable space group: P B C N
;
_chemical_formula_sum "Si O2"
_cell_formula_units_Z 36
_cell_length_a 12.228839
_cell_length_b 26.620667
_cell_length_c 5.074381
_cell_angle_alpha 90.000000
_cell_angle_beta 90.000000
_cell_angle_gamma 90.000000
_cell_volume 1651.913234
_symmetry_space_group_name_H-M "P B C N"
_symmetry_group_IT_number 60
_symmetry_cell_setting 'orthorhombic'
loop_
_space_group_symop_operation_xyz
x,y,z
1/2-x,1/2-y,1/2+z
1/2+x,1/2-y,-z
-x,y,1/2-z
-x,-y,-z
1/2+x,1/2+y,1/2-z
1/2-x,1/2+y,z
x,-y,1/2+z
loop_
_atom_site_type_symbol
_atom_site_label
_atom_site_fract_x
_atom_site_fract_y
_atom_site_fract_z
Si Si1 0.325187 0.743642 0.980412
Si Si2 0.797419 0.388009 0.222204
Si Si3 0.574707 0.634898 0.494620
Si Si4 0.615954 0.843684 0.723467
Si Si5 0.000000 0.464194 0.250000
O O1 0.258626 0.740280 0.707443
O O2 0.382497 0.691829 0.058840
O O3 0.404386 0.790310 0.915591
O O4 0.679229 0.397955 0.092819
O O5 0.797821 0.369463 0.524790
O O6 0.889991 0.430662 0.226906
O O7 0.841646 0.345200 0.020415
O O8 0.500000 0.639079 0.750000
O O9 0.500000 0.617606 0.250000
O O10 0.500000 0.871370 0.750000
O O11 0.000000 0.500000 0.500000
#
# Coordination Sequence:
#
# PCOD9458661 Si02
#       5
#     8   8   8   8   4
#     4  12  22  38  58  91 137 191 242 289 317 370
#     4  12  24  44  69  99 135 174 223 278 363 421
#     4  12  25  42  64  94 142 196 236 276 330 405
#     4  12  21  38  63  93 133 180 224 281 338 396
#     4  12  26  48  78 108 132 158 214 302 380 434
#
# _framework density 21.792911
#
# number of rings (size 3 to 8) (size 9 to 14) (size 15 to 20)
#    0.000    0.000    6.667    4.667    0.000    1.778 
#    0.000    0.000    0.000    4.000    0.000    0.000 
#    0.000    0.000    0.000    0.000    0.000    0.000 
#
# Total GULP energy -200927.854859 kJ/mol
# GULP energy per Si atom -5581.329302 kJ/mol
# Density = 2.174331 g / cm^3
# Si number density = 21.792911 Si / 1000 Ang^3
#
#
#
# Elastic Constant Matrix: (Units=GPa)
#
#
# Indices 1 2 3 4 5 6 
#
# 1 128.5027 33.5245 28.6502 0.0000 0.0000 0.0000
# 2 33.5245 77.7618 27.4535 0.0000 0.0000 0.0000
# 3 28.6502 27.4535 132.8337 0.0000 0.0000 0.0000
# 4 0.0000 0.0000 0.0000 19.0903 0.0000 0.0000
# 5 0.0000 0.0000 0.0000 0.0000 50.2117 0.0000
# 6 0.0000 0.0000 0.0000 0.0000 0.0000 20.9759
#
#
#
# Elastic Compliance Matrix: (Units=1/GPa)
#
#
# Indices 1 2 3 4 5 6 
#
# 1 0.008948 -0.003426 -0.001222 0.000000 0.000000 0.000000
# 2 -0.003426 0.015184 -0.002399 0.000000 0.000000 0.000000
# 3 -0.001222 -0.002399 0.008288 0.000000 0.000000 0.000000
# 4 0.000000 0.000000 0.000000 0.052383 0.000000 0.000000
# 5 0.000000 0.000000 0.000000 0.000000 0.019916 0.000000
# 6 0.000000 0.000000 0.000000 0.000000 0.000000 0.047674
#
#
# Mechanical properties :
#
#
# Convention : Reuss Voigt Hill
#
# Bulk Modulus (GPa) = 54.57007 57.59496 56.08252
# Shear Modulus (GPa) = 28.96954 34.68690 31.82822
#
# Velocity S-wave (km/s) = 3.64993 3.99389 3.82578
# Velocity P-wave (km/s) = 6.54655 6.91042 6.73094
#
# Compressibility (1/GPa) = 0.01832506
#
# Stress axis : x y z
#
# Youngs Moduli (GPa) = 111.75374 65.85897 120.66240
#
# Poissons Ratio (x) = 0.22566 0.14743
# Poissons Ratio (y) = 0.38291 0.28949
# Poissons Ratio (z) = 0.13655 0.15800
#
# Static dielectric constant tensor:
#      x y z
#    x 1.950000 0.000000 0.000000 
#    y 0.000000 1.818100 0.000000 
#    z 0.000000 0.000000 1.763440 
# 
# From -- ./inp_files/909.got.cif
#   From: 2010.05.17/outbox.cif.g08.bks.cpg/sg60_1_cif.got.tgz:909.got - 2010.06.03 14:59:27.
