data_PCOD9458373
_publ_section_title
;
Structure prediction by ZEFSAII (Michael W. Deem and Ramdas Pophale) SiO2 
 PCOD9458373
Probable space group: P B C N
;
_chemical_formula_sum "Si O2"
_cell_formula_units_Z 40
_cell_length_a 5.192185
_cell_length_b 26.099035
_cell_length_c 11.895152
_cell_angle_alpha 90.000000
_cell_angle_beta 90.000000
_cell_angle_gamma 90.000000
_cell_volume 1611.924157
_symmetry_space_group_name_H-M "P B C N"
_symmetry_group_IT_number 60
_symmetry_cell_setting 'orthorhombic'
loop_
_space_group_symop_operation_xyz
x,y,z
1/2-x,1/2-y,1/2+z
1/2+x,1/2-y,-z
-x,y,1/2-z
-x,-y,-z
1/2+x,1/2+y,1/2-z
1/2-x,1/2+y,z
x,-y,1/2+z
loop_
_atom_site_type_symbol
_atom_site_label
_atom_site_fract_x
_atom_site_fract_y
_atom_site_fract_z
Si Si1 0.500000 0.120115 0.250000
Si Si2 0.500000 0.313391 0.750000
Si Si3 0.765338 0.778505 0.519604
Si Si4 0.053145 0.869671 0.124111
Si Si5 0.175771 0.522366 0.643339
Si Si6 0.320571 0.074363 0.037502
O O1 0.243696 0.151338 0.224227
O O2 0.527333 0.092043 0.130852
O O3 0.402841 0.283924 0.859334
O O4 0.475558 0.759056 0.538218
O O5 0.767222 0.829941 0.443868
O O6 0.156743 0.926430 0.151990
O O7 0.000000 0.847673 0.250000
O O8 0.831388 0.882173 0.031269
O O9 0.329050 0.471173 0.605391
O O10 0.000000 0.510474 0.750000
O O11 0.967351 0.542766 0.555707
#
# Coordination Sequence:
#
# PCOD9458373 Si02
#       6
#     4   4   8   8   8   8
#     4  12  24  46  76 109 144 207 242 314 364 450
#     4  12  26  50  78 103 152 189 258 308 384 448
#     4  12  30  50  77 110 144 192 250 317 387 453
#     4  12  26  46  73 104 146 193 248 313 378 450
#     4  11  23  43  69 106 151 195 250 300 368 448
#     4  11  24  44  68 107 151 195 251 295 369 446
#
# _framework density 24.815062999999999
#
# number of rings (size 3 to 8) (size 9 to 14) (size 15 to 20)
#    0.000    0.400    5.000    3.000    5.600    0.000 
#    1.800    0.000    0.000    0.000    0.000    0.000 
#    0.000    0.000    0.000    0.000    0.000    0.000 
#
# Total GULP energy -223228.995090 kJ/mol
# GULP energy per Si atom -5580.724877 kJ/mol
# Density = 2.475858 g / cm^3
# Si number density = 24.815063 Si / 1000 Ang^3
#
#
#
# Elastic Constant Matrix: (Units=GPa)
#
#
# Indices 1 2 3 4 5 6 
#
# 1 64.0035 14.8010 11.4750 0.0000 0.0000 0.0000
# 2 14.8010 53.4388 22.0525 0.0000 0.0000 0.0000
# 3 11.4750 22.0525 154.2821 0.0000 0.0000 0.0000
# 4 0.0000 0.0000 0.0000 39.3877 0.0000 0.0000
# 5 0.0000 0.0000 0.0000 0.0000 32.8819 0.0000
# 6 0.0000 0.0000 0.0000 0.0000 0.0000 36.9027
#
#
#
# Elastic Compliance Matrix: (Units=1/GPa)
#
#
# Indices 1 2 3 4 5 6 
#
# 1 0.016749 -0.004383 -0.000619 0.000000 0.000000 0.000000
# 2 -0.004383 0.021033 -0.002680 0.000000 0.000000 0.000000
# 3 -0.000619 -0.002680 0.006911 0.000000 0.000000 0.000000
# 4 0.000000 0.000000 0.000000 0.025389 0.000000 0.000000
# 5 0.000000 0.000000 0.000000 0.000000 0.030412 0.000000
# 6 0.000000 0.000000 0.000000 0.000000 0.000000 0.027098
#
#
# Mechanical properties :
#
#
# Convention : Reuss Voigt Hill
#
# Bulk Modulus (GPa) = 34.09841 40.93125 37.51483
# Shear Modulus (GPa) = 32.73682 36.72751 34.73216
#
# Velocity S-wave (km/s) = 3.63606 3.85131 3.74524
# Velocity P-wave (km/s) = 5.60346 6.02554 5.81833
#
# Compressibility (1/GPa) = 0.02932688
#
# Stress axis : x y z
#
# Youngs Moduli (GPa) = 59.70568 47.54394 144.70085
#
# Poissons Ratio (x) = 0.20840 0.08959
# Poissons Ratio (y) = 0.26171 0.38785
# Poissons Ratio (z) = 0.03697 0.12744
#
# Static dielectric constant tensor:
#      x y z
#    x 1.939940 0.000000 0.000000 
#    y 0.000000 2.113320 0.000000 
#    z 0.000000 0.000000 2.054980 
# 
# From -- ./inp_files/9107.got.cif
#   From: 2010.05.17/outbox.cif.g08.bks.cpg/sg60_5_cif.got.tgz:9107.got - 2010.06.03 14:59:27.
