data_PCOD9458906
_publ_section_title
;
Structure prediction by ZEFSAII (Michael W. Deem and Ramdas Pophale) SiO2 
 PCOD9458906
Probable space group: P B C N
;
_chemical_formula_sum "Si O2"
_cell_formula_units_Z 60
_cell_length_a 27.000000
_cell_length_b 9.000000
_cell_length_c 12.000000
_cell_angle_alpha 90.000000
_cell_angle_beta 90.000000
_cell_angle_gamma 90.000000
_cell_volume 2916.000000
_symmetry_space_group_name_H-M "P B C N"
_symmetry_group_IT_number 60
_symmetry_cell_setting 'orthorhombic'
loop_
_space_group_symop_operation_xyz
x,y,z
1/2-x,1/2-y,1/2+z
1/2+x,1/2-y,-z
-x,y,1/2-z
-x,-y,-z
1/2+x,1/2+y,1/2-z
1/2-x,1/2+y,z
x,-y,1/2+z
loop_
_atom_site_type_symbol
_atom_site_label
_atom_site_fract_x
_atom_site_fract_y
_atom_site_fract_z
Si Si1 0.989996 0.248072 0.908860
Si Si2 0.428137 0.406488 0.281090
Si Si3 0.000000 0.519590 0.750000
Si Si4 0.316393 0.558343 0.806682
Si Si5 0.722652 0.922775 0.333200
Si Si6 0.261064 0.328456 0.513565
Si Si7 0.172128 0.725311 0.848778
Si Si8 0.438146 0.258659 0.858853
O O1 0.952255 0.151113 0.833126
O O2 0.989830 0.411623 0.854446
O O3 0.043277 0.178497 0.880108
O O4 0.974594 0.241235 0.036028
O O5 0.370064 0.375451 0.285872
O O6 0.437701 0.581311 0.299614
O O7 0.954900 0.628779 0.723309
O O8 0.273657 0.623226 0.728974
O O9 0.321259 0.382135 0.785381
O O10 0.298006 0.581660 0.933325
O O11 0.711537 0.810402 0.432752
O O12 0.681617 0.907877 0.238137
O O13 0.736348 0.075566 0.389764
O O14 0.215276 0.278113 0.438381
O O15 0.117624 0.726324 0.898531
#
# Coordination Sequence:
#
# PCOD9458906 Si02
#       8
#     8   8   4   8   8   8   8   8
#     4  10  22  42  63  90 123 161 198 253 324 349
#     4   9  21  39  62  92 115 157 211 250 295 368
#     4  10  22  42  60  90 126 154 196 256 306 370
#     4  10  21  38  60  88 121 152 206 247 290 363
#     4  11  22  40  60  84 123 157 194 246 299 348
#     4  11  22  39  61  85 121 162 195 245 304 351
#     4  10  23  39  58  93 115 157 206 242 293 366
#     4  11  22  41  65  87 123 160 205 252 304 368
#
# _framework density 20.576132000000001
#
# number of rings (size 3 to 8) (size 9 to 14) (size 15 to 20)
#    0.000    1.867    2.667    1.600    1.867    1.067 
#    9.600    0.000    0.000    0.000    0.000    0.000 
#    0.000    0.000    0.000    0.000    0.000    0.000 
#
# Total GULP energy -334732.962673 kJ/mol
# GULP energy per Si atom -5578.882711 kJ/mol
# Density = 2.052930 g / cm^3
# Si number density = 20.576132 Si / 1000 Ang^3
#
#
#
# Elastic Constant Matrix: (Units=GPa)
#
#
# Indices 1 2 3 4 5 6 
#
# 1 73.5851 6.2190 2.4816 0.0000 0.0000 0.0000
# 2 6.2190 69.1036 10.1788 0.0000 0.0000 0.0000
# 3 2.4816 10.1788 26.4024 0.0000 0.0000 0.0000
# 4 0.0000 0.0000 0.0000 17.3595 0.0000 0.0000
# 5 0.0000 0.0000 0.0000 0.0000 4.2811 0.0000
# 6 0.0000 0.0000 0.0000 0.0000 0.0000 12.2281
#
#
#
# Elastic Compliance Matrix: (Units=1/GPa)
#
#
# Indices 1 2 3 4 5 6 
#
# 1 0.013712 -0.001107 -0.000862 0.000000 0.000000 0.000000
# 2 -0.001107 0.015432 -0.005845 0.000000 0.000000 0.000000
# 3 -0.000862 -0.005845 0.040210 0.000000 0.000000 0.000000
# 4 0.000000 0.000000 0.000000 0.057605 0.000000 0.000000
# 5 0.000000 0.000000 0.000000 0.000000 0.233587 0.000000
# 6 0.000000 0.000000 0.000000 0.000000 0.000000 0.081779
#
#
# Mechanical properties :
#
#
# Convention : Reuss Voigt Hill
#
# Bulk Modulus (GPa) = 18.61326 22.98333 20.79829
# Shear Modulus (GPa) = 10.50724 16.78784 13.64754
#
# Velocity S-wave (km/s) = 2.26221 2.85948 2.57820
# Velocity P-wave (km/s) = 3.98612 4.70067 4.35806
#
# Compressibility (1/GPa) = 0.05372515
#
# Stress axis : x y z
#
# Youngs Moduli (GPa) = 72.92698 64.80189 24.86954
#
# Poissons Ratio (x) = 0.07174 0.02144
# Poissons Ratio (y) = 0.08074 0.14537
# Poissons Ratio (z) = 0.06287 0.37878
#
# Static dielectric constant tensor:
#      x y z
#    x 1.718050 0.000000 0.000000 
#    y 0.000000 1.732060 0.000000 
#    z 0.000000 0.000000 1.746040 
# 
# From -- ./inp_files/13298.got.cif
#   From: 2010.05.17/outbox.ucp.g08.bks.cvg/sg60_7_cif.got.tgz:13298.got - 2010.06.11 16:26:41.
