data_PCOD9458946
_publ_section_title
;
Structure prediction by ZEFSAII (Michael W. Deem and Ramdas Pophale) SiO2 
 PCOD9458946
Probable space group: P B C N
;
_chemical_formula_sum "Si O2"
_cell_formula_units_Z 48
_cell_length_a 18.000000
_cell_length_b 15.000000
_cell_length_c 9.000000
_cell_angle_alpha 90.000000
_cell_angle_beta 90.000000
_cell_angle_gamma 90.000000
_cell_volume 2430.000000
_symmetry_space_group_name_H-M "P B C N"
_symmetry_group_IT_number 60
_symmetry_cell_setting 'orthorhombic'
loop_
_space_group_symop_operation_xyz
x,y,z
1/2-x,1/2-y,1/2+z
1/2+x,1/2-y,-z
-x,y,1/2-z
-x,-y,-z
1/2+x,1/2+y,1/2-z
1/2-x,1/2+y,z
x,-y,1/2+z
loop_
_atom_site_type_symbol
_atom_site_label
_atom_site_fract_x
_atom_site_fract_y
_atom_site_fract_z
Si Si1 0.540016 0.267995 0.896667
Si Si2 0.218955 0.182876 0.734437
Si Si3 0.633069 0.440750 0.822995
Si Si4 0.058613 0.879413 0.119659
Si Si5 0.764102 0.993906 0.080207
Si Si6 0.172576 0.668751 0.465659
O O1 0.500000 0.229570 0.750000
O O2 0.599342 0.344184 0.849232
O O3 0.477206 0.325120 0.984129
O O4 0.587445 0.196442 0.993645
O O5 0.140077 0.156230 0.661971
O O6 0.278959 0.196899 0.607988
O O7 0.201900 0.268813 0.833176
O O8 0.247303 0.097487 0.829146
O O9 0.571855 0.513559 0.875560
O O10 0.664303 0.458345 0.658381
O O11 0.705776 0.460828 0.922007
O O12 0.000000 0.861054 0.250000
O O13 0.697773 0.066063 0.067256
#
# Coordination Sequence:
#
# PCOD9458946 Si02
#       6
#     8   8   8   8   8   8
#     4  12  24  37  62  99 134 172 212 269 335 403
#     4  11  25  41  65  96 128 170 224 273 326 390
#     4  11  20  38  61  94 135 170 212 263 342 391
#     4  11  20  39  57  93 134 170 207 267 336 394
#     4  11  21  40  61  96 131 171 219 266 324 383
#     4  12  24  42  66  96 134 176 220 270 330 395
#
# _framework density 19.753086
#
# number of rings (size 3 to 8) (size 9 to 14) (size 15 to 20)
#    0.000    0.667    6.667    4.000    2.333    0.000 
#    0.000    0.000    0.000    1.000    0.000    0.000 
#    0.000    0.000    0.000    0.000    0.000    0.000 
#
# Total GULP energy -268042.806148 kJ/mol
# GULP energy per Si atom -5584.225128 kJ/mol
# Density = 1.970813 g / cm^3
# Si number density = 19.753086 Si / 1000 Ang^3
#
#
#
# Elastic Constant Matrix: (Units=GPa)
#
#
# Indices 1 2 3 4 5 6 
#
# 1 69.5356 28.8573 7.1943 0.0000 0.0000 0.0000
# 2 28.8573 43.0531 -6.7722 0.0000 0.0000 0.0000
# 3 7.1943 -6.7722 50.4889 0.0000 0.0000 0.0000
# 4 0.0000 0.0000 0.0000 27.0326 0.0000 0.0000
# 5 0.0000 0.0000 0.0000 0.0000 28.0176 0.0000
# 6 0.0000 0.0000 0.0000 0.0000 0.0000 35.5214
#
#
#
# Elastic Compliance Matrix: (Units=1/GPa)
#
#
# Indices 1 2 3 4 5 6 
#
# 1 0.021094 -0.014926 -0.005008 0.000000 0.000000 0.000000
# 2 -0.014926 0.034290 0.006726 0.000000 0.000000 0.000000
# 3 -0.005008 0.006726 0.021422 0.000000 0.000000 0.000000
# 4 0.000000 0.000000 0.000000 0.036992 0.000000 0.000000
# 5 0.000000 0.000000 0.000000 0.000000 0.035692 0.000000
# 6 0.000000 0.000000 0.000000 0.000000 0.000000 0.028152
#
#
# Mechanical properties :
#
#
# Convention : Reuss Voigt Hill
#
# Bulk Modulus (GPa) = 19.84518 24.62625 22.23571
# Shear Modulus (GPa) = 22.63942 27.03421 24.83681
#
# Velocity S-wave (km/s) = 3.38911 3.70348 3.54978
# Velocity P-wave (km/s) = 5.03818 5.54814 5.29929
#
# Compressibility (1/GPa) = 0.05039008
#
# Stress axis : x y z
#
# Youngs Moduli (GPa) = 47.40780 29.16324 46.68080
#
# Poissons Ratio (x) = 0.43529 0.23377
# Poissons Ratio (y) = 0.70762 -0.31399
# Poissons Ratio (z) = 0.23741 -0.19616
#
# Static dielectric constant tensor:
#      x y z
#    x 1.689780 0.000000 0.000000 
#    y 0.000000 1.698360 0.000000 
#    z 0.000000 0.000000 1.789360 
# 
# From -- ./inp_files/6715.got.cif
#   From: 2010.05.17/outbox.ucp.g08.bks.cvg/sg60_4_cif.got.tgz:6715.got - 2010.06.11 16:26:41.
