data_PCOD9458892
_publ_section_title
;
Structure prediction by ZEFSAII (Michael W. Deem and Ramdas Pophale) SiO2 
 PCOD9458892
Probable space group: P B C N
;
_chemical_formula_sum "Si O2"
_cell_formula_units_Z 56
_cell_length_a 15.000000
_cell_length_b 9.000000
_cell_length_c 21.000000
_cell_angle_alpha 90.000000
_cell_angle_beta 90.000000
_cell_angle_gamma 90.000000
_cell_volume 2835.000000
_symmetry_space_group_name_H-M "P B C N"
_symmetry_group_IT_number 60
_symmetry_cell_setting 'orthorhombic'
loop_
_space_group_symop_operation_xyz
x,y,z
1/2-x,1/2-y,1/2+z
1/2+x,1/2-y,-z
-x,y,1/2-z
-x,-y,-z
1/2+x,1/2+y,1/2-z
1/2-x,1/2+y,z
x,-y,1/2+z
loop_
_atom_site_type_symbol
_atom_site_label
_atom_site_fract_x
_atom_site_fract_y
_atom_site_fract_z
Si Si1 0.000000 1.000000 0.250000
Si Si2 0.558193 0.248728 0.341570
Si Si3 0.122564 0.277766 0.076088
Si Si4 0.296534 0.894019 0.575766
Si Si5 0.703466 0.105981 0.575766
Si Si6 0.500000 0.000000 0.750000
Si Si7 0.441807 0.248728 0.841570
Si Si8 0.877436 0.277766 0.576088
O O1 0.056217 0.106925 0.296743
O O2 0.056217 0.893075 0.203257
O O3 0.640503 0.222821 0.388089
O O4 0.557079 0.107915 0.294261
O O5 0.466708 0.241021 0.382686
O O6 0.169310 0.438255 0.089176
O O7 0.194398 0.148556 0.090732
O O8 0.033292 0.258979 0.117314
O O9 0.102147 0.274220 1.000000
O O10 0.306516 0.872320 0.500000
O O11 0.640503 0.222821 0.611911
O O12 0.805602 0.148556 0.590732
O O13 0.669310 0.938255 0.589176
O O14 0.442921 0.107915 0.794261
#
# Coordination Sequence:
#
# PCOD9458892 Si02
#       8
#     4   8   8   8   8   4   8   8
#     4  10  28  38  60  86 120 156 216 240 282 338
#     4  11  21  43  60  83 120 161 197 247 288 348
#     4  10  21  38  64  94 119 149 193 244 302 359
#     4  10  21  38  64  94 119 149 193 244 302 359
#     4  10  21  38  64  94 119 149 193 244 302 359
#     4  10  20  38  64  78 108 164 208 232 274 350
#     4  11  21  43  60  83 120 161 197 247 288 348
#     4  10  21  38  64  94 119 149 193 244 302 359
#
# _framework density 19.753086
#
# number of rings (size 3 to 8) (size 9 to 14) (size 15 to 20)
#    0.000    1.714    2.857    0.857    4.000    2.286 
#    0.000   10.000    0.000    0.000    0.000    0.000 
#    0.000    0.000    0.000    0.000    0.000    0.000 
#
# Total GULP energy -312798.596951 kJ/mol
# GULP energy per Si atom -5585.689231 kJ/mol
# Density = 1.970813 g / cm^3
# Si number density = 19.753086 Si / 1000 Ang^3
#
#
#
# Elastic Constant Matrix: (Units=GPa)
#
#
# Indices 1 2 3 4 5 6 
#
# 1 86.5555 7.4174 44.9207 0.0000 0.0000 0.0000
# 2 7.4174 79.5177 28.0558 0.0000 0.0000 0.0000
# 3 44.9207 28.0558 65.5931 0.0000 0.0000 0.0000
# 4 0.0000 0.0000 0.0000 40.1956 0.0000 0.0000
# 5 0.0000 0.0000 0.0000 0.0000 7.7583 0.0000
# 6 0.0000 0.0000 0.0000 0.0000 0.0000 14.8961
#
#
#
# Elastic Compliance Matrix: (Units=1/GPa)
#
#
# Indices 1 2 3 4 5 6 
#
# 1 0.018611 0.003252 -0.014136 0.000000 0.000000 0.000000
# 2 0.003252 0.015379 -0.008805 0.000000 0.000000 0.000000
# 3 -0.014136 -0.008805 0.028693 0.000000 0.000000 0.000000
# 4 0.000000 0.000000 0.000000 0.024878 0.000000 0.000000
# 5 0.000000 0.000000 0.000000 0.000000 0.128895 0.000000
# 6 0.000000 0.000000 0.000000 0.000000 0.000000 0.067132
#
#
# Mechanical properties :
#
#
# Convention : Reuss Voigt Hill
#
# Bulk Modulus (GPa) = 42.91173 43.60601 43.25887
# Shear Modulus (GPa) = 15.11782 22.65481 18.88632
#
# Velocity S-wave (km/s) = 2.76948 3.39027 3.09547
# Velocity P-wave (km/s) = 5.65667 6.11953 5.89265
#
# Compressibility (1/GPa) = 0.02330365
#
# Stress axis : x y z
#
# Youngs Moduli (GPa) = 53.73108 65.02342 34.85197
#
# Poissons Ratio (x) = -0.21143 0.49268
# Poissons Ratio (y) = -0.17471 0.30687
# Poissons Ratio (z) = 0.75957 0.57252
#
# Static dielectric constant tensor:
#      x y z
#    x 1.658910 0.000000 0.000000 
#    y 0.000000 1.718920 0.000000 
#    z 0.000000 0.000000 1.686370 
# 
# From -- ./inp_files/22940.got.cif
#   From: 2010.05.17/outbox.ucp.g08.bks.cvg/sg60_12_cif.got.tgz:22940.got - 2010.06.11 16:26:41.
