data_PCOD9458044
_publ_section_title
;
Structure prediction by ZEFSAII (Michael W. Deem and Ramdas Pophale) SiO2 
 PCOD9458044
Probable space group: P B C N
;
_chemical_formula_sum "Si O2"
_cell_formula_units_Z 60
_cell_length_a 10.887680
_cell_length_b 15.834711
_cell_length_c 16.333139
_cell_angle_alpha 90.000000
_cell_angle_beta 90.000000
_cell_angle_gamma 90.000000
_cell_volume 2815.886512
_symmetry_space_group_name_H-M "P B C N"
_symmetry_group_IT_number 60
_symmetry_cell_setting 'orthorhombic'
loop_
_space_group_symop_operation_xyz
x,y,z
1/2-x,1/2-y,1/2+z
1/2+x,1/2-y,-z
-x,y,1/2-z
-x,-y,-z
1/2+x,1/2+y,1/2-z
1/2-x,1/2+y,z
x,-y,1/2+z
loop_
_atom_site_type_symbol
_atom_site_label
_atom_site_fract_x
_atom_site_fract_y
_atom_site_fract_z
Si Si1 0.453385 0.841717 0.654974
Si Si2 0.348451 0.812118 0.361472
Si Si3 0.024007 0.152564 0.419950
Si Si4 0.000000 0.083415 0.750000
Si Si5 0.460367 0.018854 0.844047
Si Si6 0.690736 0.295418 0.795137
Si Si7 0.929546 0.818028 0.096107
Si Si8 0.812933 0.042150 0.180759
O O1 0.500000 0.842240 0.750000
O O2 0.457819 0.939486 0.625270
O O3 0.319136 0.798649 0.656307
O O4 0.544440 0.781981 0.604109
O O5 0.381229 0.730117 0.414332
O O6 0.338264 0.783391 0.265218
O O7 0.211838 0.838327 0.386520
O O8 0.447334 0.886098 0.377661
O O9 0.092167 0.068133 0.390319
O O10 0.920587 0.181378 0.354766
O O11 0.969193 0.147156 0.509313
O O12 0.006086 0.140589 0.669869
O O13 0.881018 0.025164 0.738028
O O14 0.500000 0.029755 0.750000
O O15 0.320220 0.986088 0.847249
O O16 0.703337 0.373156 0.732687
#
# Coordination Sequence:
#
# PCOD9458044 Si02
#       8
#     8   8   8   4   8   8   8   8
#     4  11  20  39  66  94 131 177 225 272 335 406
#     4  11  22  43  68  97 134 176 230 282 336 411
#     4  11  26  41  68  99 136 176 229 282 348 408
#     4  12  22  42  70  96 126 174 234 268 332 418
#     4  11  21  38  68 102 130 169 228 284 332 398
#     4  11  20  42  69  94 132 182 220 276 342 412
#     4  12  25  43  67  97 133 181 228 278 335 421
#     4  11  20  40  66  99 131 170 220 283 341 399
#
# _framework density 21.307677000000002
#
# number of rings (size 3 to 8) (size 9 to 14) (size 15 to 20)
#    0.000    0.800    7.333    2.800    1.867    0.533 
#    0.000    0.667    0.000    0.000    0.000    0.000 
#    0.000    0.000    0.000    0.000    0.000    0.000 
#
# Total GULP energy -335104.663866 kJ/mol
# GULP energy per Si atom -5585.077731 kJ/mol
# Density = 2.125918 g / cm^3
# Si number density = 21.307677 Si / 1000 Ang^3
#
#
#
# Elastic Constant Matrix: (Units=GPa)
#
#
# Indices 1 2 3 4 5 6 
#
# 1 82.1312 3.0882 18.6101 0.0000 0.0000 0.0000
# 2 3.0882 72.5723 -0.5220 0.0000 0.0000 0.0000
# 3 18.6101 -0.5220 74.6861 0.0000 0.0000 0.0000
# 4 0.0000 0.0000 0.0000 -19.8335 0.0000 0.0000
# 5 0.0000 0.0000 0.0000 0.0000 13.1801 0.0000
# 6 0.0000 0.0000 0.0000 0.0000 0.0000 27.3859
#
#
#
# Elastic Compliance Matrix: (Units=1/GPa)
#
#
# Indices 1 2 3 4 5 6 
#
# 1 0.012928 -0.000573 -0.003225 0.000000 0.000000 0.000000
# 2 -0.000573 0.013805 0.000239 0.000000 0.000000 0.000000
# 3 -0.003225 0.000239 0.014195 0.000000 0.000000 0.000000
# 4 0.000000 0.000000 0.000000 -0.050420 0.000000 0.000000
# 5 0.000000 0.000000 0.000000 0.000000 0.075872 0.000000
# 6 0.000000 0.000000 0.000000 0.000000 0.000000 0.036515
#
#
# Mechanical properties :
#
#
# Convention : Reuss Voigt Hill
#
# Bulk Modulus (GPa) = 29.57746 30.19358 29.88552
# Shear Modulus (GPa) = 41.22552 18.02738 29.62645
#
# Velocity S-wave (km/s) = 4.40338 2.91185 3.73287
# Velocity P-wave (km/s) = 6.30589 5.05037 5.71272
#
# Compressibility (1/GPa) = 0.03380953
#
# Stress axis : x y z
#
# Youngs Moduli (GPa) = 77.35128 72.43501 70.44865
#
# Poissons Ratio (x) = 0.04153 0.22722
# Poissons Ratio (y) = 0.04435 -0.01686
# Poissons Ratio (z) = 0.24949 -0.01734
#
# Static dielectric constant tensor:
#      x y z
#    x 1.847940 0.000000 0.000000 
#    y 0.000000 1.830980 0.000000 
#    z 0.000000 0.000000 1.764480 
# 
# From -- ./inp_files/20165.got.cif
#   From: 2010.05.17/outbox.cif.g08.bks.cpg/sg60_11_cif.got.tgz:20165.got - 2010.06.03 14:59:27.
