data_PCOD9458996
_publ_section_title
;
Structure prediction by ZEFSAII (Michael W. Deem and Ramdas Pophale) SiO2 
 PCOD9458996
Probable space group: P B C A
;
_chemical_formula_sum "Si O2"
_cell_formula_units_Z 64
_cell_length_a 11.913602
_cell_length_b 14.107656
_cell_length_c 17.099259
_cell_angle_alpha 90.000000
_cell_angle_beta 90.000000
_cell_angle_gamma 90.000000
_cell_volume 2873.923736
_symmetry_space_group_name_H-M "P B C A"
_symmetry_group_IT_number 61
_symmetry_cell_setting 'orthorhombic'
loop_
_space_group_symop_operation_xyz
x,y,z
1/2-x,-y,1/2+z
1/2+x,1/2-y,-z
-x,1/2+y,1/2-z
-x,-y,-z
1/2+x,y,1/2-z
1/2-x,1/2+y,z
x,1/2-y,1/2+z
loop_
_atom_site_type_symbol
_atom_site_label
_atom_site_fract_x
_atom_site_fract_y
_atom_site_fract_z
Si Si1 0.401408 0.303910 0.663095
Si Si2 0.746976 0.470816 0.998708
Si Si3 0.381344 0.985288 0.341883
Si Si4 0.074738 0.883899 0.080518
Si Si5 0.103809 0.112534 0.424602
Si Si6 0.517459 0.336298 0.815738
Si Si7 0.615685 0.297117 0.970859
Si Si8 0.721008 0.419987 0.741849
O O1 0.372736 0.211492 0.614076
O O2 0.477262 0.373395 0.608461
O O3 0.482304 0.280909 0.737958
O O4 0.297820 0.349987 0.707608
O O5 0.691966 0.458804 0.083898
O O6 0.863188 0.523313 0.020290
O O7 0.724157 0.366230 0.964427
O O8 0.667007 0.542277 0.949788
O O9 0.417533 0.096189 0.345817
O O10 0.297276 0.985875 0.268157
O O11 0.491875 0.923662 0.352308
O O12 0.987861 0.856197 0.010768
O O13 0.132800 0.206470 0.474582
O O14 0.180098 0.107948 0.345907
O O15 0.606312 0.416006 0.788599
O O16 0.569733 0.274921 0.884618
#
# Coordination Sequence:
#
# PCOD9458996 Si02
#       8
#     8   8   8   8   8   8   8   8
#     4   9  20  34  48  72 112 139 172 213 270 326
#     4  10  17  31  56  81  98 135 182 220 265 317
#     4   9  16  32  51  72 100 126 179 220 257 309
#     4  10  17  31  52  81  97 137 176 227 257 314
#     4   9  20  34  52  78 106 138 175 228 269 306
#     4  10  17  32  50  76 100 138 170 215 266 316
#     4  10  18  32  55  80 108 133 179 230 263 309
#     4   9  19  33  50  70 104 145 170 206 273 335
#
# _framework density 22.269207000000002
#
# number of rings (size 3 to 8) (size 9 to 14) (size 15 to 20)
#    0.000    2.500    2.500    0.750    1.750    0.000 
#    0.000   10.000    0.000    0.750    0.000    0.000 
#    0.000    0.000    0.000    0.000    0.000    0.000 
#
# Total GULP energy -356301.998434 kJ/mol
# GULP energy per Si atom -5567.218726 kJ/mol
# Density = 2.221852 g / cm^3
# Si number density = 22.269207 Si / 1000 Ang^3
#
#
#
# Elastic Constant Matrix: (Units=GPa)
#
#
# Indices 1 2 3 4 5 6 
#
# 1 52.9881 -0.3501 7.8878 0.0000 0.0000 0.0000
# 2 -0.3501 39.2029 18.8118 0.0000 0.0000 0.0000
# 3 7.8878 18.8118 73.0838 0.0000 0.0000 0.0000
# 4 0.0000 0.0000 0.0000 19.1932 0.0000 0.0000
# 5 0.0000 0.0000 0.0000 0.0000 14.7353 0.0000
# 6 0.0000 0.0000 0.0000 0.0000 0.0000 20.5843
#
#
#
# Elastic Compliance Matrix: (Units=1/GPa)
#
#
# Indices 1 2 3 4 5 6 
#
# 1 0.019241 0.001333 -0.002420 0.000000 0.000000 0.000000
# 2 0.001333 0.029195 -0.007659 0.000000 0.000000 0.000000
# 3 -0.002420 -0.007659 0.015915 0.000000 0.000000 0.000000
# 4 0.000000 0.000000 0.000000 0.052102 0.000000 0.000000
# 5 0.000000 0.000000 0.000000 0.000000 0.067864 0.000000
# 6 0.000000 0.000000 0.000000 0.000000 0.000000 0.048581
#
#
# Mechanical properties :
#
#
# Convention : Reuss Voigt Hill
#
# Bulk Modulus (GPa) = 21.33978 24.21930 22.77954
# Shear Modulus (GPa) = 18.79630 20.16427 19.48029
#
# Velocity S-wave (km/s) = 2.90840 3.01238 2.96085
# Velocity P-wave (km/s) = 4.56967 4.79568 4.68404
#
# Compressibility (1/GPa) = 0.04686085
#
# Stress axis : x y z
#
# Youngs Moduli (GPa) = 51.97192 34.25208 62.83203
#
# Poissons Ratio (x) = -0.04566 0.15204
# Poissons Ratio (y) = -0.06928 0.48121
# Poissons Ratio (z) = 0.12576 0.26233
#
# Static dielectric constant tensor:
#      x y z
#    x 1.915570 0.000000 0.000000 
#    y 0.000000 1.805230 0.000000 
#    z 0.000000 0.000000 1.845990 
# 
# From -- ./inp_files/9578.got.cif
#   From: 2010.05.17/outbox.cif.g08.bks.cpg/sg61_5_cif.got.tgz:9578.got - 2010.06.03 15:17:17.
