data_PCOD9458176
_publ_section_title
;
Structure prediction by ZEFSAII (Michael W. Deem and Ramdas Pophale) SiO2 
 PCOD9458176
Probable space group: P B C N
;
_chemical_formula_sum "Si O2"
_cell_formula_units_Z 56
_cell_length_a 12.148417
_cell_length_b 13.788688
_cell_length_c 13.738600
_cell_angle_alpha 90.000000
_cell_angle_beta 90.000000
_cell_angle_gamma 90.000000
_cell_volume 2301.362939
_symmetry_space_group_name_H-M "P B C N"
_symmetry_group_IT_number 60
_symmetry_cell_setting 'orthorhombic'
loop_
_space_group_symop_operation_xyz
x,y,z
1/2-x,1/2-y,1/2+z
1/2+x,1/2-y,-z
-x,y,1/2-z
-x,-y,-z
1/2+x,1/2+y,1/2-z
1/2-x,1/2+y,z
x,-y,1/2+z
loop_
_atom_site_type_symbol
_atom_site_label
_atom_site_fract_x
_atom_site_fract_y
_atom_site_fract_z
Si Si1 0.924948 0.827473 0.673169
Si Si2 0.309747 0.341463 0.026052
Si Si3 0.876557 0.465705 0.764450
Si Si4 0.502802 0.541138 0.862442
Si Si5 0.278220 0.224128 0.221261
Si Si6 0.631934 0.002725 0.984282
Si Si7 0.264008 0.600277 0.872598
O O1 0.873952 0.798507 0.568424
O O2 0.823232 0.843734 0.746311
O O3 0.000000 0.765391 0.750000
O O4 0.990858 0.925224 0.645752
O O5 0.395249 0.415585 0.079085
O O6 0.276543 0.268193 0.113057
O O7 0.201843 0.400309 0.987521
O O8 0.877486 0.349329 0.762009
O O9 0.793168 0.516612 0.691742
O O10 0.000000 0.502898 0.750000
O O11 0.843308 0.495568 0.871445
O O12 0.500000 0.576807 0.750000
O O13 0.387096 0.576571 0.906194
O O14 0.271101 0.309226 0.300649
O O15 0.685354 0.908976 0.034936
O O16 0.500000 0.000000 0.000000
#
# Coordination Sequence:
#
# PCOD9458176 Si02
#       7
#     8   8   8   8   8   8   8
#     4  11  27  48  73 113 159 200 259 339 391 468
#     4  12  26  48  80 117 149 210 270 322 413 483
#     4  12  26  49  72 108 158 207 260 317 389 486
#     4  11  21  45  77 109 150 198 257 328 393 471
#     4  12  28  48  74 115 157 199 266 324 402 476
#     4  12  26  47  79 109 148 213 264 316 397 489
#     4  12  25  49  76 108 157 199 262 325 397 470
#
# _framework density 24.333407000000001
#
# number of rings (size 3 to 8) (size 9 to 14) (size 15 to 20)
#    0.000    0.286    7.143    0.429    6.000    1.714 
#    0.000    0.000    0.000    0.000    0.000    0.000 
#    0.000    0.000    0.000    0.000    0.000    0.000 
#
# Total GULP energy -312602.682806 kJ/mol
# GULP energy per Si atom -5582.190764 kJ/mol
# Density = 2.427802 g / cm^3
# Si number density = 24.333407 Si / 1000 Ang^3
#
#
#
# Elastic Constant Matrix: (Units=GPa)
#
#
# Indices 1 2 3 4 5 6 
#
# 1 121.3208 5.8730 1.5055 0.0000 0.0000 0.0000
# 2 5.8730 68.0062 -4.7793 0.0000 0.0000 0.0000
# 3 1.5055 -4.7793 123.0455 0.0000 0.0000 0.0000
# 4 0.0000 0.0000 0.0000 30.2711 0.0000 0.0000
# 5 0.0000 0.0000 0.0000 0.0000 16.9679 0.0000
# 6 0.0000 0.0000 0.0000 0.0000 0.0000 18.3820
#
#
#
# Elastic Compliance Matrix: (Units=1/GPa)
#
#
# Indices 1 2 3 4 5 6 
#
# 1 0.008279 -0.000724 -0.000129 0.000000 0.000000 0.000000
# 2 -0.000724 0.014808 0.000584 0.000000 0.000000 0.000000
# 3 -0.000129 0.000584 0.008151 0.000000 0.000000 0.000000
# 4 0.000000 0.000000 0.000000 0.033035 0.000000 0.000000
# 5 0.000000 0.000000 0.000000 0.000000 0.058935 0.000000
# 6 0.000000 0.000000 0.000000 0.000000 0.000000 0.054401
#
#
# Mechanical properties :
#
#
# Convention : Reuss Voigt Hill
#
# Bulk Modulus (GPa) = 32.57354 35.28566 33.92960
# Shear Modulus (GPa) = 26.54186 33.77575 30.15880
#
# Velocity S-wave (km/s) = 3.30625 3.72968 3.52433
# Velocity P-wave (km/s) = 5.29060 5.75150 5.52586
#
# Compressibility (1/GPa) = 0.03069976
#
# Stress axis : x y z
#
# Youngs Moduli (GPa) = 120.78365 67.53054 122.67917
#
# Poissons Ratio (x) = 0.04890 0.01588
# Poissons Ratio (y) = 0.08746 -0.07165
# Poissons Ratio (z) = 0.01563 -0.03944
#
# Static dielectric constant tensor:
#      x y z
#    x 2.039310 0.000000 0.000000 
#    y 0.000000 1.982740 0.000000 
#    z 0.000000 0.000000 1.791920 
# 
# From -- ./inp_files/16179.got.cif
#   From: 2010.05.17/outbox.cif.g08.bks.cpg/sg60_9_cif.got.tgz:16179.got - 2010.06.03 14:59:27.
