data_PCOD9458840
_publ_section_title
;
Structure prediction by ZEFSAII (Michael W. Deem and Ramdas Pophale) SiO2 
 PCOD9458840
Probable space group: P B C N
;
_chemical_formula_sum "Si O2"
_cell_formula_units_Z 28
_cell_length_a 7.029562
_cell_length_b 9.314223
_cell_length_c 16.520791
_cell_angle_alpha 90.000000
_cell_angle_beta 90.000000
_cell_angle_gamma 90.000000
_cell_volume 1081.697272
_symmetry_space_group_name_H-M "P B C N"
_symmetry_group_IT_number 60
_symmetry_cell_setting 'orthorhombic'
loop_
_space_group_symop_operation_xyz
x,y,z
1/2-x,1/2-y,1/2+z
1/2+x,1/2-y,-z
-x,y,1/2-z
-x,-y,-z
1/2+x,1/2+y,1/2-z
1/2-x,1/2+y,z
x,-y,1/2+z
loop_
_atom_site_type_symbol
_atom_site_label
_atom_site_fract_x
_atom_site_fract_y
_atom_site_fract_z
Si Si1 0.000000 0.102060 0.250000
Si Si2 0.945089 0.822822 0.059999
Si Si3 0.805466 0.460989 0.631684
Si Si4 0.627185 0.181598 0.888475
O O1 0.089561 0.202330 0.180818
O O2 0.171922 0.015406 0.290792
O O3 0.151825 0.848340 0.096887
O O4 0.817189 0.965146 0.060131
O O5 0.949983 0.747880 0.972875
O O6 0.839600 0.706100 0.116999
O O7 0.005752 0.540974 0.632525
#
# Coordination Sequence:
#
# PCOD9458840 Si02
#       4
#     4   8   8   8
#     4  12  30  50  76 120 170 202 264 338 416 468
#     4  12  28  52  86 115 164 216 276 324 399 487
#     4  12  28  54  77 126 157 214 269 332 404 477
#     4  12  28  51  82 119 160 214 270 332 398 482
#
# _framework density 25.885245000000001
#
# number of rings (size 3 to 8) (size 9 to 14) (size 15 to 20)
#    0.000    0.000    5.714    0.857    8.000    3.429 
#    0.000    0.000    0.000    0.000    0.000    0.000 
#    0.000    0.000    0.000    0.000    0.000    0.000 
#
# Total GULP energy -157380.921561 kJ/mol
# GULP energy per Si atom -5620.747199 kJ/mol
# Density = 2.582633 g / cm^3
# Si number density = 25.885245 Si / 1000 Ang^3
#
#
#
# Elastic Constant Matrix: (Units=GPa)
#
#
# Indices 1 2 3 4 5 6 
#
# 1 212.7235 58.8269 37.8236 0.0000 0.0000 0.0000
# 2 58.8269 103.8803 9.6502 0.0000 0.0000 0.0000
# 3 37.8236 9.6502 105.2472 0.0000 0.0000 0.0000
# 4 0.0000 0.0000 0.0000 33.6787 0.0000 0.0000
# 5 0.0000 0.0000 0.0000 0.0000 52.3611 0.0000
# 6 0.0000 0.0000 0.0000 0.0000 0.0000 43.8550
#
#
#
# Elastic Compliance Matrix: (Units=1/GPa)
#
#
# Indices 1 2 3 4 5 6 
#
# 1 0.005904 -0.003173 -0.001831 0.000000 0.000000 0.000000
# 2 -0.003173 0.011415 0.000094 0.000000 0.000000 0.000000
# 3 -0.001831 0.000094 0.010151 0.000000 0.000000 0.000000
# 4 0.000000 0.000000 0.000000 0.029692 0.000000 0.000000
# 5 0.000000 0.000000 0.000000 0.000000 0.019098 0.000000
# 6 0.000000 0.000000 0.000000 0.000000 0.000000 0.022802
#
#
# Mechanical properties :
#
#
# Convention : Reuss Voigt Hill
#
# Bulk Modulus (GPa) = 56.66073 70.49469 63.57771
# Shear Modulus (GPa) = 43.56683 47.01565 45.29124
#
# Velocity S-wave (km/s) = 4.10698 4.26644 4.18747
# Velocity P-wave (km/s) = 6.66532 7.18072 6.92781
#
# Compressibility (1/GPa) = 0.01764891
#
# Stress axis : x y z
#
# Youngs Moduli (GPa) = 169.37587 87.60557 98.51441
#
# Poissons Ratio (x) = 0.27800 0.18036
# Poissons Ratio (y) = 0.53749 -0.00924
# Poissons Ratio (z) = 0.31010 -0.00822
#
# Static dielectric constant tensor:
#      x y z
#    x 2.008990 0.000000 0.000000 
#    y 0.000000 1.987690 0.000000 
#    z 0.000000 0.000000 2.050930 
# 
# From -- ./inp_files/14283.got.cif
#   From: 2010.05.17/outbox.cif.g08.bks.cpg/sg60_8_cif.got.tgz:14283.got - 2010.06.03 14:59:27.
