data_PCOD9458779
_publ_section_title
;
Structure prediction by ZEFSAII (Michael W. Deem and Ramdas Pophale) SiO2 
 PCOD9458779
Probable space group: P B C N
;
_chemical_formula_sum "Si O2"
_cell_formula_units_Z 60
_cell_length_a 11.495246
_cell_length_b 8.954284
_cell_length_c 23.806641
_cell_angle_alpha 90.000000
_cell_angle_beta 90.000000
_cell_angle_gamma 90.000000
_cell_volume 2450.457966
_symmetry_space_group_name_H-M "P B C N"
_symmetry_group_IT_number 60
_symmetry_cell_setting 'orthorhombic'
loop_
_space_group_symop_operation_xyz
x,y,z
1/2-x,1/2-y,1/2+z
1/2+x,1/2-y,-z
-x,y,1/2-z
-x,-y,-z
1/2+x,1/2+y,1/2-z
1/2-x,1/2+y,z
x,-y,1/2+z
loop_
_atom_site_type_symbol
_atom_site_label
_atom_site_fract_x
_atom_site_fract_y
_atom_site_fract_z
Si Si1 0.708736 0.279678 0.704953
Si Si2 0.715069 0.346911 0.577126
Si Si3 0.370547 0.438698 0.244435
Si Si4 0.085735 0.852196 0.450431
Si Si5 0.021102 0.350204 0.463668
Si Si6 0.500000 0.076488 0.750000
Si Si7 0.888967 0.511883 0.868241
Si Si8 0.356312 0.669924 0.618672
O O1 0.685719 0.340864 0.643078
O O2 0.826044 0.183298 0.711008
O O3 0.710774 0.418131 0.747696
O O4 0.603606 0.174853 0.723863
O O5 0.669382 0.504655 0.554239
O O6 0.848192 0.292161 0.575816
O O7 0.648072 0.221957 0.540600
O O8 0.500000 0.497288 0.250000
O O9 0.372720 0.364583 0.184176
O O10 0.054551 0.786586 0.511443
O O11 0.964671 0.889270 0.418303
O O12 0.987715 0.399805 0.401602
O O13 0.000000 0.500000 0.500000
O O14 0.436640 0.001285 0.695919
O O15 0.772565 0.602305 0.886848
O O16 0.863561 0.346438 0.889977
#
# Coordination Sequence:
#
# PCOD9458779 Si02
#       8
#     8   8   8   8   8   4   8   8
#     4  12  25  46  75 109 156 205 257 320 383 474
#     4  12  27  51  77 115 159 212 271 329 408 475
#     4  12  26  44  72 110 156 200 257 314 382 469
#     4  12  29  50  83 113 160 208 274 335 405 478
#     4  12  27  53  80 116 155 211 269 341 400 484
#     4  12  26  48  76 112 152 208 252 316 398 464
#     4  12  29  50  83 110 167 203 270 326 405 479
#     4  12  28  49  76 123 156 212 260 333 399 474
#
# _framework density 24.485218
#
# number of rings (size 3 to 8) (size 9 to 14) (size 15 to 20)
#    0.000    0.000    4.667    4.400    4.667    2.133 
#    0.000    0.000    0.000    0.000    0.000    0.000 
#    0.000    0.000    0.000    0.000    0.000    0.000 
#
# Total GULP energy -335427.900868 kJ/mol
# GULP energy per Si atom -5590.465014 kJ/mol
# Density = 2.442949 g / cm^3
# Si number density = 24.485218 Si / 1000 Ang^3
#
#
#
# Elastic Constant Matrix: (Units=GPa)
#
#
# Indices 1 2 3 4 5 6 
#
# 1 84.6812 61.9897 19.4700 0.0000 0.0000 0.0000
# 2 61.9897 128.2053 25.3917 0.0000 0.0000 0.0000
# 3 19.4700 25.3917 67.1323 0.0000 0.0000 0.0000
# 4 0.0000 0.0000 0.0000 47.2069 0.0000 0.0000
# 5 0.0000 0.0000 0.0000 0.0000 18.2804 0.0000
# 6 0.0000 0.0000 0.0000 0.0000 0.0000 36.6117
#
#
#
# Elastic Compliance Matrix: (Units=1/GPa)
#
#
# Indices 1 2 3 4 5 6 
#
# 1 0.018561 -0.008549 -0.002150 0.000000 0.000000 0.000000
# 2 -0.008549 0.012369 -0.002199 0.000000 0.000000 0.000000
# 3 -0.002150 -0.002199 0.016351 0.000000 0.000000 0.000000
# 4 0.000000 0.000000 0.000000 0.021183 0.000000 0.000000
# 5 0.000000 0.000000 0.000000 0.000000 0.054703 0.000000
# 6 0.000000 0.000000 0.000000 0.000000 0.000000 0.027314
#
#
# Mechanical properties :
#
#
# Convention : Reuss Voigt Hill
#
# Bulk Modulus (GPa) = 46.54146 54.85794 50.69970
# Shear Modulus (GPa) = 27.25692 31.96432 29.61062
#
# Velocity S-wave (km/s) = 3.34008 3.61703 3.48131
# Velocity P-wave (km/s) = 5.82444 6.31641 6.07541
#
# Compressibility (1/GPa) = 0.02148622
#
# Stress axis : x y z
#
# Youngs Moduli (GPa) = 53.87503 80.84636 61.15776
#
# Poissons Ratio (x) = 0.69116 0.13147
# Poissons Ratio (y) = 0.46058 0.13449
# Poissons Ratio (z) = 0.11582 0.17778
#
# Static dielectric constant tensor:
#      x y z
#    x 1.947560 0.000000 0.000000 
#    y 0.000000 1.909400 0.000000 
#    z 0.000000 0.000000 1.939010 
# 
# From -- ./inp_files/25361.got.cif
#   From: 2010.05.17/outbox.cif.g08.bks.cpg/sg60_13_cif.got.tgz:25361.got - 2010.06.03 14:59:27.
