data_PCOD9458897
_publ_section_title
;
Structure prediction by ZEFSAII (Michael W. Deem and Ramdas Pophale) SiO2 
 PCOD9458897
Probable space group: P B C N
;
_chemical_formula_sum "Si O2"
_cell_formula_units_Z 40
_cell_length_a 12.000000
_cell_length_b 9.000000
_cell_length_c 18.000000
_cell_angle_alpha 90.000000
_cell_angle_beta 90.000000
_cell_angle_gamma 90.000000
_cell_volume 1944.000000
_symmetry_space_group_name_H-M "P B C N"
_symmetry_group_IT_number 60
_symmetry_cell_setting 'orthorhombic'
loop_
_space_group_symop_operation_xyz
x,y,z
1/2-x,1/2-y,1/2+z
1/2+x,1/2-y,-z
-x,y,1/2-z
-x,-y,-z
1/2+x,1/2+y,1/2-z
1/2-x,1/2+y,z
x,-y,1/2+z
loop_
_atom_site_type_symbol
_atom_site_label
_atom_site_fract_x
_atom_site_fract_y
_atom_site_fract_z
Si Si1 0.302619 0.546885 0.391189
Si Si2 0.478245 0.672013 0.489283
Si Si3 0.876556 0.440643 0.475503
Si Si4 0.095625 0.676757 0.138824
Si Si5 0.644247 0.756356 0.697086
O O1 0.395180 0.664159 0.419940
O O2 0.217118 0.525474 0.461870
O O3 0.239627 0.632918 0.326967
O O4 0.346149 0.394521 0.352733
O O5 0.500000 0.500000 0.500000
O O6 0.590989 0.765894 0.474618
O O7 0.414292 0.725773 0.563661
O O8 0.856010 0.522877 0.396370
O O9 0.000000 0.500000 0.500000
O O10 0.147769 0.752265 0.212761
O O11 0.968617 0.663698 0.167987
#
# Coordination Sequence:
#
# PCOD9458897 Si02
#       5
#     8   8   8   8   8
#     4  12  22  40  69  95 127 176 221 263 335 398
#     4  11  21  39  69 100 127 167 228 272 315 397
#     4  10  20  40  65  93 128 174 219 269 321 396
#     4  10  22  42  60  88 134 171 208 275 333 374
#     4  11  23  39  64  91 131 170 213 275 329 392
#
# _framework density 20.576132000000001
#
# number of rings (size 3 to 8) (size 9 to 14) (size 15 to 20)
#    0.000    1.200    6.000    2.400    0.000    1.600 
#    0.000    2.000    0.000    0.000    0.000    0.000 
#    0.000    0.000    0.000    0.000    0.000    0.000 
#
# Total GULP energy -222768.794491 kJ/mol
# GULP energy per Si atom -5569.219862 kJ/mol
# Density = 2.052930 g / cm^3
# Si number density = 20.576132 Si / 1000 Ang^3
#
#
#
# Elastic Constant Matrix: (Units=GPa)
#
#
# Indices 1 2 3 4 5 6 
#
# 1 37.8859 10.0235 30.9467 0.0000 0.0000 0.0000
# 2 10.0235 107.2452 56.7027 0.0000 0.0000 0.0000
# 3 30.9467 56.7027 157.0451 0.0000 0.0000 0.0000
# 4 0.0000 0.0000 0.0000 29.8440 0.0000 0.0000
# 5 0.0000 0.0000 0.0000 0.0000 38.5827 0.0000
# 6 0.0000 0.0000 0.0000 0.0000 0.0000 22.9361
#
#
#
# Elastic Compliance Matrix: (Units=1/GPa)
#
#
# Indices 1 2 3 4 5 6 
#
# 1 0.031474 0.000417 -0.006353 0.000000 0.000000 0.000000
# 2 0.000417 0.011530 -0.004245 0.000000 0.000000 0.000000
# 3 -0.006353 -0.004245 0.009152 0.000000 0.000000 0.000000
# 4 0.000000 0.000000 0.000000 0.033508 0.000000 0.000000
# 5 0.000000 0.000000 0.000000 0.000000 0.025918 0.000000
# 6 0.000000 0.000000 0.000000 0.000000 0.000000 0.043599
#
#
# Mechanical properties :
#
#
# Convention : Reuss Voigt Hill
#
# Bulk Modulus (GPa) = 31.45206 55.28022 43.36614
# Shear Modulus (GPa) = 26.86137 31.90612 29.38375
#
# Velocity S-wave (km/s) = 3.61704 3.94209 3.78305
# Velocity P-wave (km/s) = 5.72388 6.90250 6.34064
#
# Compressibility (1/GPa) = 0.03179442
#
# Stress axis : x y z
#
# Youngs Moduli (GPa) = 31.77247 86.73053 109.26316
#
# Poissons Ratio (x) = -0.03618 0.69412
# Poissons Ratio (y) = -0.01325 0.46385
# Poissons Ratio (z) = 0.20184 0.36819
#
# Static dielectric constant tensor:
#      x y z
#    x 1.662110 0.000000 0.000000 
#    y 0.000000 1.844810 0.000000 
#    z 0.000000 0.000000 1.543540 
# 
# From -- ./inp_files/19837.got.cif
#   From: 2010.05.17/outbox.ucp.g08.bks.cvg/sg60_10_cif.got.tgz:19837.got - 2010.06.11 16:26:41.
