data_PCOD9458472
_publ_section_title
;
Structure prediction by ZEFSAII (Michael W. Deem and Ramdas Pophale) SiO2 
 PCOD9458472
Probable space group: P B C N
;
_chemical_formula_sum "Si O2"
_cell_formula_units_Z 56
_cell_length_a 13.453416
_cell_length_b 14.415051
_cell_length_c 12.313170
_cell_angle_alpha 90.000000
_cell_angle_beta 90.000000
_cell_angle_gamma 90.000000
_cell_volume 2387.913717
_symmetry_space_group_name_H-M "P B C N"
_symmetry_group_IT_number 60
_symmetry_cell_setting 'orthorhombic'
loop_
_space_group_symop_operation_xyz
x,y,z
1/2-x,1/2-y,1/2+z
1/2+x,1/2-y,-z
-x,y,1/2-z
-x,-y,-z
1/2+x,1/2+y,1/2-z
1/2-x,1/2+y,z
x,-y,1/2+z
loop_
_atom_site_type_symbol
_atom_site_label
_atom_site_fract_x
_atom_site_fract_y
_atom_site_fract_z
Si Si1 0.603759 0.546378 0.789127
Si Si2 0.000000 0.353248 0.750000
Si Si3 0.000000 0.316484 0.250000
Si Si4 0.869030 0.840365 0.858869
Si Si5 0.787669 0.700213 0.178536
Si Si6 0.038298 0.470977 0.114865
Si Si7 0.239373 0.573272 0.532445
Si Si8 0.215192 0.889085 0.418301
O O1 0.500000 0.589335 0.750000
O O2 0.586756 0.440537 0.826658
O O3 0.664639 0.589325 0.890829
O O4 0.667276 0.551983 0.679410
O O5 0.093072 0.298334 0.800680
O O6 0.050081 0.430074 0.672052
O O7 0.064617 0.244411 0.181030
O O8 0.961230 0.396692 0.166515
O O9 0.767754 0.831857 0.788082
O O10 0.854116 0.842127 0.988277
O O11 0.743958 0.799806 0.144179
O O12 0.765914 0.634938 0.075126
O O13 0.142312 0.417583 0.106443
O O14 0.000000 0.500000 0.000000
O O15 0.232528 0.466983 0.490931
#
# Coordination Sequence:
#
# PCOD9458472 Si02
#       8
#     8   4   4   8   8   8   8   8
#     4  11  25  48  75 104 148 196 252 308 386 460
#     4  11  24  44  65 108 148 184 251 312 371 460
#     4  11  26  44  75 108 148 186 255 316 367 476
#     4  11  25  48  71 106 146 195 253 305 382 460
#     4  12  26  45  72 107 148 197 250 320 380 457
#     4  11  24  43  75 104 145 196 245 309 395 442
#     4  11  25  48  72 106 148 197 252 316 381 466
#     4  11  27  44  75 103 145 196 250 307 387 452
#
# _framework density 23.451433999999999
#
# number of rings (size 3 to 8) (size 9 to 14) (size 15 to 20)
#    0.000    0.857    3.571    2.571    7.000    3.429 
#    0.000    0.000    0.000    0.000    0.000    0.000 
#    0.000    0.000    0.000    0.000    0.000    0.000 
#
# Total GULP energy -312360.977728 kJ/mol
# GULP energy per Si atom -5577.874602 kJ/mol
# Density = 2.339806 g / cm^3
# Si number density = 23.451434 Si / 1000 Ang^3
#
#
#
# Elastic Constant Matrix: (Units=GPa)
#
#
# Indices 1 2 3 4 5 6 
#
# 1 55.4374 5.8869 9.3527 0.0000 0.0000 0.0000
# 2 5.8869 87.2542 22.8994 0.0000 0.0000 0.0000
# 3 9.3527 22.8994 123.4725 0.0000 0.0000 0.0000
# 4 0.0000 0.0000 0.0000 34.6071 0.0000 0.0000
# 5 0.0000 0.0000 0.0000 0.0000 31.3206 0.0000
# 6 0.0000 0.0000 0.0000 0.0000 0.0000 25.5377
#
#
#
# Elastic Compliance Matrix: (Units=1/GPa)
#
#
# Indices 1 2 3 4 5 6 
#
# 1 0.018341 -0.000918 -0.001219 0.000000 0.000000 0.000000
# 2 -0.000918 0.012093 -0.002173 0.000000 0.000000 0.000000
# 3 -0.001219 -0.002173 0.008594 0.000000 0.000000 0.000000
# 4 0.000000 0.000000 0.000000 0.028896 0.000000 0.000000
# 5 0.000000 0.000000 0.000000 0.000000 0.031928 0.000000
# 6 0.000000 0.000000 0.000000 0.000000 0.000000 0.039158
#
#
# Mechanical properties :
#
#
# Convention : Reuss Voigt Hill
#
# Bulk Modulus (GPa) = 32.88502 38.04912 35.46707
# Shear Modulus (GPa) = 31.69240 33.49476 32.59358
#
# Velocity S-wave (km/s) = 3.68013 3.78333 3.73209
# Velocity P-wave (km/s) = 5.66665 5.94514 5.80756
#
# Compressibility (1/GPa) = 0.03040898
#
# Stress axis : x y z
#
# Youngs Moduli (GPa) = 54.52125 82.69217 116.35511
#
# Poissons Ratio (x) = 0.07587 0.14186
# Poissons Ratio (y) = 0.05002 0.25287
# Poissons Ratio (z) = 0.06647 0.17971
#
# Static dielectric constant tensor:
#      x y z
#    x 1.997470 0.000000 0.000000 
#    y 0.000000 1.820320 0.000000 
#    z 0.000000 0.000000 1.902280 
# 
# From -- ./inp_files/12001.got.cif
#   From: 2010.05.17/outbox.cif.g08.bks.cpg/sg60_7_cif.got.tgz:12001.got - 2010.06.03 14:59:27.
