data_PCOD9458500
_publ_section_title
;
Structure prediction by ZEFSAII (Michael W. Deem and Ramdas Pophale) SiO2 
 PCOD9458500
Probable space group: P B C N
;
_chemical_formula_sum "Si O2"
_cell_formula_units_Z 36
_cell_length_a 11.257378
_cell_length_b 12.294555
_cell_length_c 11.749901
_cell_angle_alpha 90.000000
_cell_angle_beta 90.000000
_cell_angle_gamma 90.000000
_cell_volume 1626.238620
_symmetry_space_group_name_H-M "P B C N"
_symmetry_group_IT_number 60
_symmetry_cell_setting 'orthorhombic'
loop_
_space_group_symop_operation_xyz
x,y,z
1/2-x,1/2-y,1/2+z
1/2+x,1/2-y,-z
-x,y,1/2-z
-x,-y,-z
1/2+x,1/2+y,1/2-z
1/2-x,1/2+y,z
x,-y,1/2+z
loop_
_atom_site_type_symbol
_atom_site_label
_atom_site_fract_x
_atom_site_fract_y
_atom_site_fract_z
Si Si1 0.339304 0.072043 0.100941
Si Si2 0.000000 0.582811 0.750000
Si Si3 0.382930 0.430577 0.031060
Si Si4 0.667154 0.220139 0.604905
Si Si5 0.867170 0.235073 0.758513
O O1 0.294649 0.161656 0.192532
O O2 0.437630 0.993920 0.155873
O O3 0.231435 0.005766 0.047418
O O4 0.382131 0.149012 0.999564
O O5 0.102368 0.664410 0.790048
O O6 0.381643 0.362675 0.150779
O O7 0.500000 0.500000 0.000000
O O8 0.360915 0.342510 0.931484
O O9 0.805820 0.206779 0.638907
O O10 0.000000 0.278630 0.750000
#
# Coordination Sequence:
#
# PCOD9458500 Si02
#       5
#     8   4   8   8   8
#     4  11  25  45  71 105 141 196 243 295 369 435
#     4  12  24  48  76 100 148 194 242 300 364 442
#     4  11  26  45  72 107 148 188 242 309 373 429
#     4  11  27  44  71 108 146 187 251 299 363 449
#     4  11  24  45  70 106 146 193 244 296 360 446
#
# _framework density 22.136973000000001
#
# number of rings (size 3 to 8) (size 9 to 14) (size 15 to 20)
#    0.000    0.889    3.333    2.000    6.222    5.333 
#    0.000    0.000    0.000    0.000    0.000    0.000 
#    0.000    0.000    0.000    0.000    0.000    0.000 
#
# Total GULP energy -200846.951746 kJ/mol
# GULP energy per Si atom -5579.081993 kJ/mol
# Density = 2.208659 g / cm^3
# Si number density = 22.136973 Si / 1000 Ang^3
#
#
#
# Elastic Constant Matrix: (Units=GPa)
#
#
# Indices 1 2 3 4 5 6 
#
# 1 106.5695 54.5090 20.6066 0.0000 0.0000 0.0000
# 2 54.5090 138.1486 36.1778 0.0000 0.0000 0.0000
# 3 20.6066 36.1778 58.5300 0.0000 0.0000 0.0000
# 4 0.0000 0.0000 0.0000 20.5294 0.0000 0.0000
# 5 0.0000 0.0000 0.0000 0.0000 29.3401 0.0000
# 6 0.0000 0.0000 0.0000 0.0000 0.0000 34.4600
#
#
#
# Elastic Compliance Matrix: (Units=1/GPa)
#
#
# Indices 1 2 3 4 5 6 
#
# 1 0.011870 -0.004282 -0.001532 0.000000 0.000000 0.000000
# 2 -0.004282 0.010181 -0.004786 0.000000 0.000000 0.000000
# 3 -0.001532 -0.004786 0.020583 0.000000 0.000000 0.000000
# 4 0.000000 0.000000 0.000000 0.048711 0.000000 0.000000
# 5 0.000000 0.000000 0.000000 0.000000 0.034083 0.000000
# 6 0.000000 0.000000 0.000000 0.000000 0.000000 0.029019
#
#
# Mechanical properties :
#
#
# Convention : Reuss Voigt Hill
#
# Bulk Modulus (GPa) = 46.65449 58.42610 52.54030
# Shear Modulus (GPa) = 27.35349 29.66288 28.50819
#
# Velocity S-wave (km/s) = 3.51899 3.66453 3.59250
# Velocity P-wave (km/s) = 6.13451 6.65998 6.40264
#
# Compressibility (1/GPa) = 0.02143416
#
# Stress axis : x y z
#
# Youngs Moduli (GPa) = 84.24466 98.21751 48.58453
#
# Poissons Ratio (x) = 0.42060 0.07444
# Poissons Ratio (y) = 0.36077 0.23250
# Poissons Ratio (z) = 0.12908 0.47003
#
# Static dielectric constant tensor:
#      x y z
#    x 1.834150 0.000000 0.000000 
#    y 0.000000 1.872870 0.000000 
#    z 0.000000 0.000000 1.941450 
# 
# From -- ./inp_files/10655.got.cif
#   From: 2010.05.17/outbox.cif.g08.bks.cpg/sg60_6_cif.got.tgz:10655.got - 2010.06.03 14:59:27.
