data_PCOD9458126
_publ_section_title
;
Structure prediction by ZEFSAII (Michael W. Deem and Ramdas Pophale) SiO2 
 PCOD9458126
Probable space group: P B C N
;
_chemical_formula_sum "Si O2"
_cell_formula_units_Z 60
_cell_length_a 17.280372
_cell_length_b 8.799472
_cell_length_c 19.093077
_cell_angle_alpha 90.000000
_cell_angle_beta 90.000000
_cell_angle_gamma 90.000000
_cell_volume 2903.257958
_symmetry_space_group_name_H-M "P B C N"
_symmetry_group_IT_number 60
_symmetry_cell_setting 'orthorhombic'
loop_
_space_group_symop_operation_xyz
x,y,z
1/2-x,1/2-y,1/2+z
1/2+x,1/2-y,-z
-x,y,1/2-z
-x,-y,-z
1/2+x,1/2+y,1/2-z
1/2-x,1/2+y,z
x,-y,1/2+z
loop_
_atom_site_type_symbol
_atom_site_label
_atom_site_fract_x
_atom_site_fract_y
_atom_site_fract_z
Si Si1 0.086006 0.568953 0.739479
Si Si2 0.393934 0.141256 0.885839
Si Si3 0.500000 0.406196 0.250000
Si Si4 0.110338 0.862050 0.662231
Si Si5 0.071170 0.719956 0.382536
Si Si6 0.240629 0.622985 0.250608
Si Si7 0.273423 0.377784 0.352546
Si Si8 0.982339 0.834232 0.972483
O O1 0.099529 0.684431 0.804282
O O2 0.156537 0.450787 0.735843
O O3 0.000000 0.505674 0.750000
O O4 0.088232 0.685802 0.676423
O O5 0.302452 0.145425 0.899746
O O6 0.449012 0.247789 0.930665
O O7 0.415910 0.961820 0.879475
O O8 0.440203 0.518830 0.208852
O O9 0.533411 0.300279 0.186408
O O10 0.198437 0.886030 0.687928
O O11 0.088427 0.868316 0.580814
O O12 0.151775 0.811202 0.388659
O O13 0.029742 0.741422 0.456398
O O14 0.272565 0.548415 0.323254
O O15 0.229508 0.794367 0.276300
O O16 0.000000 0.000000 0.000000
#
# Coordination Sequence:
#
# PCOD9458126 Si02
#       8
#     8   8   4   8   8   8   8   8
#     4  11  21  39  73 101 131 181 233 288 358 408
#     4  11  24  44  69 101 140 182 237 297 346 425
#     4  12  24  38  74 106 136 170 246 294 350 418
#     4  12  22  42  67 107 139 178 227 299 352 420
#     4  12  26  43  69 104 139 187 235 297 357 427
#     4  11  22  39  67 106 136 172 233 297 350 415
#     4  11  22  40  71 100 134 180 238 292 348 413
#     4  12  27  45  69  99 144 192 233 282 369 437
#
# _framework density 20.666437999999999
#
# number of rings (size 3 to 8) (size 9 to 14) (size 15 to 20)
#    0.000    0.533   10.000    0.400    2.800    0.000 
#    0.000    2.667    2.933    0.000    0.000    0.000 
#    0.000    0.000    0.000    0.000    0.000    0.000 
#
# Total GULP energy -334375.316739 kJ/mol
# GULP energy per Si atom -5572.921946 kJ/mol
# Density = 2.061940 g / cm^3
# Si number density = 20.666438 Si / 1000 Ang^3
#
#
#
# Elastic Constant Matrix: (Units=GPa)
#
#
# Indices 1 2 3 4 5 6 
#
# 1 119.5765 27.7439 25.3669 0.0000 0.0000 0.0000
# 2 27.7439 83.5513 8.6462 0.0000 0.0000 0.0000
# 3 25.3669 8.6462 90.3353 0.0000 0.0000 0.0000
# 4 0.0000 0.0000 0.0000 23.8423 0.0000 0.0000
# 5 0.0000 0.0000 0.0000 0.0000 34.9074 0.0000
# 6 0.0000 0.0000 0.0000 0.0000 0.0000 31.5348
#
#
#
# Elastic Compliance Matrix: (Units=1/GPa)
#
#
# Indices 1 2 3 4 5 6 
#
# 1 0.009551 -0.002923 -0.002402 0.000000 0.000000 0.000000
# 2 -0.002923 0.012983 -0.000422 0.000000 0.000000 0.000000
# 3 -0.002402 -0.000422 0.011785 0.000000 0.000000 0.000000
# 4 0.000000 0.000000 0.000000 0.041942 0.000000 0.000000
# 5 0.000000 0.000000 0.000000 0.000000 0.028647 0.000000
# 6 0.000000 0.000000 0.000000 0.000000 0.000000 0.031711
#
#
# Mechanical properties :
#
#
# Convention : Reuss Voigt Hill
#
# Bulk Modulus (GPa) = 43.81225 46.33080 45.07153
# Shear Modulus (GPa) = 32.10882 33.50399 32.80640
#
# Velocity S-wave (km/s) = 3.94594 4.03075 3.98857
# Velocity P-wave (km/s) = 6.48123 6.64302 6.56262
#
# Compressibility (1/GPa) = 0.02282466
#
# Stress axis : x y z
#
# Youngs Moduli (GPa) = 104.70586 77.02450 84.85520
#
# Poissons Ratio (x) = 0.22512 0.20383
# Poissons Ratio (y) = 0.30603 0.03580
# Poissons Ratio (z) = 0.25152 0.03250
#
# Static dielectric constant tensor:
#      x y z
#    x 1.823800 0.000000 0.000000 
#    y 0.000000 -0.082740 0.000000 
#    z 0.000000 0.000000 1.610330 
# 
# From -- ./inp_files/20878.got.cif
#   From: 2010.05.17/outbox.cif.g08.bks.cpg/sg60_11_cif.got.tgz:20878.got - 2010.06.03 14:59:27.
