data_PCOD9458940
_publ_section_title
;
Structure prediction by ZEFSAII (Michael W. Deem and Ramdas Pophale) SiO2 
 PCOD9458940
Probable space group: P B C N
;
_chemical_formula_sum "Si O2"
_cell_formula_units_Z 60
_cell_length_a 12.000000
_cell_length_b 9.000000
_cell_length_c 27.000000
_cell_angle_alpha 90.000000
_cell_angle_beta 90.000000
_cell_angle_gamma 90.000000
_cell_volume 2916.000000
_symmetry_space_group_name_H-M "P B C N"
_symmetry_group_IT_number 60
_symmetry_cell_setting 'orthorhombic'
loop_
_space_group_symop_operation_xyz
x,y,z
1/2-x,1/2-y,1/2+z
1/2+x,1/2-y,-z
-x,y,1/2-z
-x,-y,-z
1/2+x,1/2+y,1/2-z
1/2-x,1/2+y,z
x,-y,1/2+z
loop_
_atom_site_type_symbol
_atom_site_label
_atom_site_fract_x
_atom_site_fract_y
_atom_site_fract_z
Si Si1 0.151244 0.793607 0.166589
Si Si2 0.286640 0.012460 0.496296
Si Si3 0.124609 0.144203 0.193410
Si Si4 0.671697 0.609345 0.667082
Si Si5 0.378661 0.266408 0.051435
Si Si6 0.500000 0.725394 0.750000
Si Si7 0.122076 0.210097 0.940949
Si Si8 0.376342 0.295772 0.810390
O O1 0.277279 0.742346 0.171983
O O2 0.120372 0.758805 0.110683
O O3 0.080432 0.704390 0.208519
O O4 0.134061 0.970164 0.178006
O O5 0.358577 0.895750 0.528008
O O6 0.207916 0.906698 0.463847
O O7 0.214489 0.119378 0.532123
O O8 0.350343 0.124918 0.460065
O O9 0.132233 0.160092 0.252673
O O10 0.006233 0.212244 0.177722
O O11 0.588224 0.643138 0.713206
O O12 0.630287 0.693156 0.618229
O O13 0.669006 0.434337 0.658429
O O14 0.796070 0.658839 0.680336
O O15 0.500247 0.326241 0.038382
#
# Coordination Sequence:
#
# PCOD9458940 Si02
#       8
#     8   8   8   8   8   4   8   8
#     4  12  22  40  65  90 126 168 203 246 311 367
#     4  10  24  42  62  92 120 152 210 262 302 364
#     4  11  21  39  57  85 124 165 204 251 292 354
#     4  12  22  40  65  90 126 168 203 246 311 367
#     4  11  22  41  65  90 121 160 200 255 314 361
#     4  12  20  40  62  94 128 168 196 252 296 374
#     4  11  22  41  65  90 121 160 200 255 314 361
#     4  11  21  39  57  85 124 165 204 251 292 354
#
# _framework density 20.576132000000001
#
# number of rings (size 3 to 8) (size 9 to 14) (size 15 to 20)
#    0.000    0.800    5.333    2.400    0.000    0.000 
#    2.400    6.667    0.000    0.000    0.000    0.000 
#    0.000    0.000    0.000    0.000    0.000    0.000 
#
# Total GULP energy -334884.613043 kJ/mol
# GULP energy per Si atom -5581.410217 kJ/mol
# Density = 2.052930 g / cm^3
# Si number density = 20.576132 Si / 1000 Ang^3
#
#
#
# Elastic Constant Matrix: (Units=GPa)
#
#
# Indices 1 2 3 4 5 6 
#
# 1 119.1991 25.4725 13.3417 0.0000 0.0000 0.0000
# 2 25.4725 22.8071 8.7535 0.0000 0.0000 0.0000
# 3 13.3417 8.7535 87.5628 0.0000 0.0000 0.0000
# 4 0.0000 0.0000 0.0000 13.2020 0.0000 0.0000
# 5 0.0000 0.0000 0.0000 0.0000 53.4821 0.0000
# 6 0.0000 0.0000 0.0000 0.0000 0.0000 16.8698
#
#
#
# Elastic Compliance Matrix: (Units=1/GPa)
#
#
# Indices 1 2 3 4 5 6 
#
# 1 0.011038 -0.012148 -0.000467 0.000000 0.000000 0.000000
# 2 -0.012148 0.058966 -0.004044 0.000000 0.000000 0.000000
# 3 -0.000467 -0.004044 0.011896 0.000000 0.000000 0.000000
# 4 0.000000 0.000000 0.000000 0.075746 0.000000 0.000000
# 5 0.000000 0.000000 0.000000 0.000000 0.018698 0.000000
# 6 0.000000 0.000000 0.000000 0.000000 0.000000 0.059277
#
#
# Mechanical properties :
#
#
# Convention : Reuss Voigt Hill
#
# Bulk Modulus (GPa) = 20.58428 36.07827 28.33127
# Shear Modulus (GPa) = 17.53568 28.84421 23.18995
#
# Velocity S-wave (km/s) = 2.92247 3.74816 3.36077
# Velocity P-wave (km/s) = 4.62747 6.02526 5.37202
#
# Compressibility (1/GPa) = 0.04858077
#
# Stress axis : x y z
#
# Youngs Moduli (GPa) = 90.59890 16.95898 84.06304
#
# Poissons Ratio (x) = 0.20602 0.03929
# Poissons Ratio (y) = 1.10061 0.33993
# Poissons Ratio (z) = 0.04234 0.06858
#
# Static dielectric constant tensor:
#      x y z
#    x 1.811780 0.000000 0.000000 
#    y 0.000000 1.718830 0.000000 
#    z 0.000000 0.000000 1.729490 
# 
# From -- ./inp_files/25348.got.cif
#   From: 2010.05.17/outbox.ucp.g08.bks.cvg/sg60_13_cif.got.tgz:25348.got - 2010.06.11 16:26:41.
