data_PCOD9458351
_publ_section_title
;
Structure prediction by ZEFSAII (Michael W. Deem and Ramdas Pophale) SiO2 
 PCOD9458351
Probable space group: P B C N
;
_chemical_formula_sum "Si O2"
_cell_formula_units_Z 48
_cell_length_a 13.558192
_cell_length_b 29.832437
_cell_length_c 5.185427
_cell_angle_alpha 90.000000
_cell_angle_beta 90.000000
_cell_angle_gamma 90.000000
_cell_volume 2097.369927
_symmetry_space_group_name_H-M "P B C N"
_symmetry_group_IT_number 60
_symmetry_cell_setting 'orthorhombic'
loop_
_space_group_symop_operation_xyz
x,y,z
1/2-x,1/2-y,1/2+z
1/2+x,1/2-y,-z
-x,y,1/2-z
-x,-y,-z
1/2+x,1/2+y,1/2-z
1/2-x,1/2+y,z
x,-y,1/2+z
loop_
_atom_site_type_symbol
_atom_site_label
_atom_site_fract_x
_atom_site_fract_y
_atom_site_fract_z
Si Si1 0.142942 0.389695 0.994216
Si Si2 0.500000 0.033733 0.250000
Si Si3 0.375543 0.171052 0.998373
Si Si4 0.658837 0.306918 0.976860
Si Si5 0.500000 0.649375 0.750000
Si Si6 0.000000 0.029834 0.250000
Si Si7 0.000000 0.259494 0.250000
Si Si8 0.862780 0.896028 0.636951
O O1 0.129124 0.351473 0.777127
O O2 0.259369 0.401432 0.009730
O O3 0.082875 0.431042 0.864365
O O4 0.116661 0.367554 0.273492
O O5 0.500000 0.000000 0.500000
O O6 0.461571 0.206691 0.966673
O O7 0.272773 0.198486 0.962413
O O8 0.593338 0.270510 0.830895
O O9 0.652943 0.354352 0.827106
O O10 0.592885 0.317685 0.223843
O O11 0.457424 0.617114 0.533526
O O12 0.899235 0.058696 0.264283
O O13 0.000000 0.000000 0.500000
#
# Coordination Sequence:
#
# PCOD9458351 Si02
#       8
#     8   4   8   8   4   4   4   8
#     4  11  25  48  73  98 139 187 236 285 357 441
#     4  12  26  47  77 110 138 176 232 292 356 426
#     4  11  26  45  69 104 139 194 236 294 363 429
#     4  11  24  40  68  96 132 189 238 286 344 426
#     4  12  17  40  71  93 126 182 241 275 342 409
#     4  12  26  38  62 100 136 164 212 280 349 415
#     4  12  25  45  66 105 152 178 247 317 365 408
#     4  11  23  42  67  95 134 184 231 274 350 429
#
# _framework density 22.885802999999999
#
# number of rings (size 3 to 8) (size 9 to 14) (size 15 to 20)
#    0.000    0.667    5.000    2.500    0.000    6.667 
#    0.000    0.000    0.000    0.000    0.000    0.000 
#    0.000    0.000    0.000    0.000    0.000    0.000 
#
# Total GULP energy -267755.469792 kJ/mol
# GULP energy per Si atom -5578.238954 kJ/mol
# Density = 2.283371 g / cm^3
# Si number density = 22.885803 Si / 1000 Ang^3
#
#
#
# Elastic Constant Matrix: (Units=GPa)
#
#
# Indices 1 2 3 4 5 6 
#
# 1 115.9712 45.9148 9.4859 0.0000 0.0000 0.0000
# 2 45.9148 103.5729 28.5409 0.0000 0.0000 0.0000
# 3 9.4859 28.5409 105.2230 0.0000 0.0000 0.0000
# 4 0.0000 0.0000 0.0000 -29.6115 0.0000 0.0000
# 5 0.0000 0.0000 0.0000 0.0000 29.4142 0.0000
# 6 0.0000 0.0000 0.0000 0.0000 0.0000 4.7836
#
#
#
# Elastic Compliance Matrix: (Units=1/GPa)
#
#
# Indices 1 2 3 4 5 6 
#
# 1 0.010470 -0.004735 0.000341 0.000000 0.000000 0.000000
# 2 -0.004735 0.012577 -0.002984 0.000000 0.000000 0.000000
# 3 0.000341 -0.002984 0.010282 0.000000 0.000000 0.000000
# 4 0.000000 0.000000 0.000000 -0.033771 0.000000 0.000000
# 5 0.000000 0.000000 0.000000 0.000000 0.033997 0.000000
# 6 0.000000 0.000000 0.000000 0.000000 0.000000 0.209047
#
#
# Mechanical properties :
#
#
# Convention : Reuss Voigt Hill
#
# Bulk Modulus (GPa) = 53.84854 54.73892 54.29373
# Shear Modulus (GPa) = 18.97167 16.97230 17.97198
#
# Velocity S-wave (km/s) = 2.88231 2.72620 2.80534
# Velocity P-wave (km/s) = 5.88704 5.82063 5.85393
#
# Compressibility (1/GPa) = 0.01857061
#
# Stress axis : x y z
#
# Youngs Moduli (GPa) = 95.51372 79.51294 97.25325
#
# Poissons Ratio (x) = 0.37651 -0.03312
# Poissons Ratio (y) = 0.45227 0.29024
# Poissons Ratio (z) = -0.03252 0.23730
#
# Static dielectric constant tensor:
#      x y z
#    x 2.047470 0.000000 0.000000 
#    y 0.000000 1.952540 0.000000 
#    z 0.000000 0.000000 1.931510 
# 
# From -- ./inp_files/1378.got.cif
#   From: 2010.05.17/outbox.cif.g08.bks.cpg/sg60_1_cif.got.tgz:1378.got - 2010.06.03 14:59:27.
