data_PCOD9458551
_publ_section_title
;
Structure prediction by ZEFSAII (Michael W. Deem and Ramdas Pophale) SiO2 
 PCOD9458551
Probable space group: P B C N
;
_chemical_formula_sum "Si O2"
_cell_formula_units_Z 40
_cell_length_a 11.521041
_cell_length_b 23.971469
_cell_length_c 5.813361
_cell_angle_alpha 90.000000
_cell_angle_beta 90.000000
_cell_angle_gamma 90.000000
_cell_volume 1605.512399
_symmetry_space_group_name_H-M "P B C N"
_symmetry_group_IT_number 60
_symmetry_cell_setting 'orthorhombic'
loop_
_space_group_symop_operation_xyz
x,y,z
1/2-x,1/2-y,1/2+z
1/2+x,1/2-y,-z
-x,y,1/2-z
-x,-y,-z
1/2+x,1/2+y,1/2-z
1/2-x,1/2+y,z
x,-y,1/2+z
loop_
_atom_site_type_symbol
_atom_site_label
_atom_site_fract_x
_atom_site_fract_y
_atom_site_fract_z
Si Si1 0.059407 0.574844 0.502506
Si Si2 0.876340 0.185137 0.629914
Si Si3 0.329568 0.805889 0.020699
Si Si4 0.182260 0.027488 0.493938
Si Si5 0.127360 0.138662 0.276717
O O1 0.085996 0.641264 0.518335
O O2 0.180269 0.541151 0.493498
O O3 0.000000 0.566535 0.250000
O O4 0.000000 0.560793 0.750000
O O5 0.756345 0.193027 0.764135
O O6 0.888293 0.246866 0.516505
O O7 0.851027 0.127558 0.490325
O O8 0.000000 0.177380 0.750000
O O9 0.232095 0.820244 0.829381
O O10 0.125452 0.088076 0.448872
O O11 0.153789 0.003109 0.747592
O O12 0.000000 0.164566 0.250000
#
# Coordination Sequence:
#
# PCOD9458551 Si02
#       5
#     8   8   8   8   8
#     4  11  26  45  73 105 143 186 235 294 360 430
#     4  12  24  41  71 101 142 189 237 286 353 429
#     4  11  25  41  67 102 144 186 232 289 346 426
#     4  11  27  47  74 104 140 182 242 305 362 422
#     4  11  25  44  68 100 138 185 236 288 359 422
#
# _framework density 24.914162000000001
#
# number of rings (size 3 to 8) (size 9 to 14) (size 15 to 20)
#    0.000    0.800    4.000    1.800   11.200    5.600 
#    0.000    0.000    0.000    0.000    0.000    0.000 
#    0.000    0.000    0.000    0.000    0.000    0.000 
#
# Total GULP energy -222797.579175 kJ/mol
# GULP energy per Si atom -5569.939479 kJ/mol
# Density = 2.485746 g / cm^3
# Si number density = 24.914162 Si / 1000 Ang^3
#
#
#
# Elastic Constant Matrix: (Units=GPa)
#
#
# Indices 1 2 3 4 5 6 
#
# 1 86.9958 29.2863 33.3987 0.0000 0.0000 0.0000
# 2 29.2863 95.3369 69.6463 0.0000 0.0000 0.0000
# 3 33.3987 69.6463 152.0932 0.0000 0.0000 0.0000
# 4 0.0000 0.0000 0.0000 39.6895 0.0000 0.0000
# 5 0.0000 0.0000 0.0000 0.0000 31.9754 0.0000
# 6 0.0000 0.0000 0.0000 0.0000 0.0000 19.8335
#
#
#
# Elastic Compliance Matrix: (Units=1/GPa)
#
#
# Indices 1 2 3 4 5 6 
#
# 1 0.013059 -0.002880 -0.001549 0.000000 0.000000 0.000000
# 2 -0.002880 0.016397 -0.006876 0.000000 0.000000 0.000000
# 3 -0.001549 -0.006876 0.010064 0.000000 0.000000 0.000000
# 4 0.000000 0.000000 0.000000 0.025196 0.000000 0.000000
# 5 0.000000 0.000000 0.000000 0.000000 0.031274 0.000000
# 6 0.000000 0.000000 0.000000 0.000000 0.000000 0.050420
#
#
# Mechanical properties :
#
#
# Convention : Reuss Voigt Hill
#
# Bulk Modulus (GPa) = 59.13749 66.56539 62.85144
# Shear Modulus (GPa) = 28.62779 31.77266 30.20022
#
# Velocity S-wave (km/s) = 3.39345 3.57499 3.48540
# Velocity P-wave (km/s) = 6.25636 6.61941 6.44044
#
# Compressibility (1/GPa) = 0.01690975
#
# Stress axis : x y z
#
# Youngs Moduli (GPa) = 76.57568 60.98690 99.36719
#
# Poissons Ratio (x) = 0.17565 0.15390
# Poissons Ratio (y) = 0.22055 0.68325
# Poissons Ratio (z) = 0.11860 0.41935
#
# Static dielectric constant tensor:
#      x y z
#    x 1.939020 0.000000 0.000000 
#    y 0.000000 2.015230 0.000000 
#    z 0.000000 0.000000 2.279730 
# 
# From -- ./inp_files/832.got.cif
#   From: 2010.05.17/outbox.cif.g08.bks.cpg/sg60_1_cif.got.tgz:832.got - 2010.06.03 14:59:27.
