data_PCOD9458094
_publ_section_title
;
Structure prediction by ZEFSAII (Michael W. Deem and Ramdas Pophale) SiO2 
 PCOD9458094
Probable space group: P B C N
;
_chemical_formula_sum "Si O2"
_cell_formula_units_Z 60
_cell_length_a 17.021551
_cell_length_b 8.807436
_cell_length_c 19.451664
_cell_angle_alpha 90.000000
_cell_angle_beta 90.000000
_cell_angle_gamma 90.000000
_cell_volume 2916.119960
_symmetry_space_group_name_H-M "P B C N"
_symmetry_group_IT_number 60
_symmetry_cell_setting 'orthorhombic'
loop_
_space_group_symop_operation_xyz
x,y,z
1/2-x,1/2-y,1/2+z
1/2+x,1/2-y,-z
-x,y,1/2-z
-x,-y,-z
1/2+x,1/2+y,1/2-z
1/2-x,1/2+y,z
x,-y,1/2+z
loop_
_atom_site_type_symbol
_atom_site_label
_atom_site_fract_x
_atom_site_fract_y
_atom_site_fract_z
Si Si1 0.025692 0.262426 0.993383
Si Si2 0.500000 0.910024 0.750000
Si Si3 0.166240 0.342388 0.177576
Si Si4 0.705361 0.844104 0.896188
Si Si5 0.556093 0.667410 0.859237
Si Si6 0.122524 0.361511 0.321005
Si Si7 0.518687 0.661122 0.357880
Si Si8 0.868241 0.458915 0.027836
O O1 0.101894 0.369721 0.985392
O O2 0.005589 0.184468 0.921672
O O3 0.031256 0.156936 0.059865
O O4 0.948396 0.364919 0.010654
O O5 0.435515 0.010449 0.789572
O O6 0.538788 0.798836 0.805225
O O7 0.181880 0.510098 0.149509
O O8 0.214386 0.223689 0.131763
O O9 0.182721 0.330041 0.259047
O O10 0.075791 0.294721 0.167922
O O11 0.642402 0.707705 0.887252
O O12 0.697063 0.904223 0.973965
O O13 0.545940 0.499916 0.829241
O O14 0.153393 0.423569 0.393663
O O15 0.068442 0.214501 0.337635
#
# Coordination Sequence:
#
# PCOD9458094 Si02
#       8
#     8   4   8   8   8   8   8   8
#     4   9  17  33  61  90 121 156 198 257 315 364
#     4  12  20  34  62  92 126 160 202 268 320 380
#     4  12  23  40  61  86 123 171 208 261 311 383
#     4  11  23  42  61  85 121 167 218 246 313 390
#     4  11  22  35  59  96 126 155 205 263 317 382
#     4  11  21  39  63  92 126 162 209 264 325 375
#     4  11  21  36  62  96 130 159 206 263 324 370
#     4   9  18  36  62  88 116 161 206 258 310 381
#
# _framework density 20.575285999999998
#
# number of rings (size 3 to 8) (size 9 to 14) (size 15 to 20)
#    0.000    1.333    5.333    1.200    1.867    0.000 
#    0.000    1.333    2.933    0.000    0.000    0.000 
#    0.000    0.000    0.000    0.000    0.000    0.000 
#
# Total GULP energy -335002.232186 kJ/mol
# GULP energy per Si atom -5583.370536 kJ/mol
# Density = 2.052846 g / cm^3
# Si number density = 20.575286 Si / 1000 Ang^3
#
#
#
# Elastic Constant Matrix: (Units=GPa)
#
#
# Indices 1 2 3 4 5 6 
#
# 1 32.2054 12.9988 30.7638 0.0000 0.0000 0.0000
# 2 12.9988 90.1349 18.1432 0.0000 0.0000 0.0000
# 3 30.7638 18.1432 152.7490 0.0000 0.0000 0.0000
# 4 0.0000 0.0000 0.0000 20.9174 0.0000 0.0000
# 5 0.0000 0.0000 0.0000 0.0000 25.1396 0.0000
# 6 0.0000 0.0000 0.0000 0.0000 0.0000 16.1867
#
#
#
# Elastic Compliance Matrix: (Units=1/GPa)
#
#
# Indices 1 2 3 4 5 6 
#
# 1 0.039973 -0.004246 -0.007546 0.000000 0.000000 0.000000
# 2 -0.004246 0.011817 -0.000549 0.000000 0.000000 0.000000
# 3 -0.007546 -0.000549 0.008132 0.000000 0.000000 0.000000
# 4 0.000000 0.000000 0.000000 0.047807 0.000000 0.000000
# 5 0.000000 0.000000 0.000000 0.000000 0.039778 0.000000
# 6 0.000000 0.000000 0.000000 0.000000 0.000000 0.061779
#
#
# Mechanical properties :
#
#
# Convention : Reuss Voigt Hill
#
# Bulk Modulus (GPa) = 28.37632 44.32235 36.34934
# Shear Modulus (GPa) = 20.34889 26.66097 23.50493
#
# Velocity S-wave (km/s) = 3.14824 3.60359 3.38359
# Velocity P-wave (km/s) = 5.19968 6.23721 5.74193
#
# Compressibility (1/GPa) = 0.03524065
#
# Stress axis : x y z
#
# Youngs Moduli (GPa) = 25.01703 84.62247 122.97603
#
# Poissons Ratio (x) = 0.35928 0.92801
# Poissons Ratio (y) = 0.10621 0.06746
# Poissons Ratio (z) = 0.18879 0.04642
#
# Static dielectric constant tensor:
#      x y z
#    x 1.734540 0.000000 0.000000 
#    y 0.000000 1.731960 0.000000 
#    z 0.000000 0.000000 1.773590 
# 
# From -- ./inp_files/20907.got.cif
#   From: 2010.05.17/outbox.cif.g08.bks.cpg/sg60_11_cif.got.tgz:20907.got - 2010.06.03 14:59:27.
