data_PCOD9458992
_publ_section_title
;
Structure prediction by ZEFSAII (Michael W. Deem and Ramdas Pophale) SiO2 
 PCOD9458992
Probable space group: P B C A
;
_chemical_formula_sum "Si O2"
_cell_formula_units_Z 64
_cell_length_a 19.457719
_cell_length_b 8.396694
_cell_length_c 14.128745
_cell_angle_alpha 90.000000
_cell_angle_beta 90.000000
_cell_angle_gamma 90.000000
_cell_volume 2308.361597
_symmetry_space_group_name_H-M "P B C A"
_symmetry_group_IT_number 61
_symmetry_cell_setting 'orthorhombic'
loop_
_space_group_symop_operation_xyz
x,y,z
1/2-x,-y,1/2+z
1/2+x,1/2-y,-z
-x,1/2+y,1/2-z
-x,-y,-z
1/2+x,y,1/2-z
1/2-x,1/2+y,z
x,1/2-y,1/2+z
loop_
_atom_site_type_symbol
_atom_site_label
_atom_site_fract_x
_atom_site_fract_y
_atom_site_fract_z
Si Si1 0.258588 0.887841 0.018715
Si Si2 0.111035 0.935594 0.520746
Si Si3 0.396988 0.126875 0.234524
Si Si4 0.147610 0.360882 0.750036
Si Si5 0.771534 0.164959 0.755661
Si Si6 0.021079 0.324932 0.254374
Si Si7 0.143248 0.095099 0.020194
Si Si8 0.483419 0.773373 0.028367
O O1 0.309885 0.037051 0.996295
O O2 0.183634 0.940709 0.983378
O O3 0.240447 0.858370 0.130660
O O4 0.307525 0.742595 0.990198
O O5 0.116684 0.949684 0.633274
O O6 0.062786 0.785010 0.499859
O O7 0.062064 0.079678 0.487017
O O8 0.323324 0.189506 0.266561
O O9 0.444244 0.283121 0.215619
O O10 0.444536 0.992533 0.283156
O O11 0.188860 0.513587 0.784660
O O12 0.195470 0.210499 0.775125
O O13 0.072447 0.316639 0.785301
O O14 0.144339 0.387596 0.635918
O O15 0.017281 0.305128 0.140736
O O16 0.063524 0.124770 0.998085
#
# Coordination Sequence:
#
# PCOD9458992 Si02
#       8
#     8   8   8   8   8   8   8   8
#     4   9  15  25  45  72  96 117 155 206 253 293
#     4   9  16  29  50  75  96 127 170 220 262 310
#     4  11  20  31  50  74 102 133 173 215 260 309
#     4   9  16  28  46  69  98 127 164 209 258 305
#     4  10  17  28  48  75 100 126 163 215 262 304
#     4  10  20  33  49  74 106 142 175 215 264 321
#     4   8  14  24  42  66  93 123 153 200 248 299
#     4   8  16  30  48  70  99 130 169 211 265 315
#
# _framework density 27.725292
#
# number of rings (size 3 to 8) (size 9 to 14) (size 15 to 20)
#    0.000    2.750    0.000    6.000    0.000    0.000 
#    0.000    0.000    0.000   20.250    0.000   10.500 
#    0.000    0.000    0.000    0.000    0.000    0.000 
#
# Total GULP energy -357423.664646 kJ/mol
# GULP energy per Si atom -5584.744760 kJ/mol
# Density = 2.766219 g / cm^3
# Si number density = 27.725292 Si / 1000 Ang^3
#
#
#
# Elastic Constant Matrix: (Units=GPa)
#
#
# Indices 1 2 3 4 5 6 
#
# 1 182.7028 34.6554 20.5298 0.0000 0.0000 0.0000
# 2 34.6554 59.0824 32.1085 0.0000 0.0000 0.0000
# 3 20.5298 32.1085 62.3901 0.0000 0.0000 0.0000
# 4 0.0000 0.0000 0.0000 6.0375 0.0000 0.0000
# 5 0.0000 0.0000 0.0000 0.0000 8.6691 0.0000
# 6 0.0000 0.0000 0.0000 0.0000 0.0000 61.1758
#
#
#
# Elastic Compliance Matrix: (Units=1/GPa)
#
#
# Indices 1 2 3 4 5 6 
#
# 1 0.006161 -0.003487 -0.000233 0.000000 0.000000 0.000000
# 2 -0.003487 0.025471 -0.011961 0.000000 0.000000 0.000000
# 3 -0.000233 -0.011961 0.022260 0.000000 0.000000 0.000000
# 4 0.000000 0.000000 0.000000 0.165631 0.000000 0.000000
# 5 0.000000 0.000000 0.000000 0.000000 0.115353 0.000000
# 6 0.000000 0.000000 0.000000 0.000000 0.000000 0.016346
#
#
# Mechanical properties :
#
#
# Convention : Reuss Voigt Hill
#
# Bulk Modulus (GPa) = 44.38393 53.19586 48.78990
# Shear Modulus (GPa) = 12.81739 29.63524 21.22632
#
# Velocity S-wave (km/s) = 2.15245 3.27293 2.76994
# Velocity P-wave (km/s) = 4.71387 5.78889 5.27882
#
# Compressibility (1/GPa) = 0.02253068
#
# Stress axis : x y z
#
# Youngs Moduli (GPa) = 162.31125 39.25977 44.92296
#
# Poissons Ratio (x) = 0.13692 0.01045
# Poissons Ratio (y) = 0.56605 0.53733
# Poissons Ratio (z) = 0.03774 0.46959
#
# Static dielectric constant tensor:
#      x y z
#    x 2.078870 0.000000 0.000000 
#    y 0.000000 2.277770 0.000000 
#    z 0.000000 0.000000 2.165970 
# 
# From -- ./inp_files/11130.got.cif
#   From: 2010.05.17/outbox.cif.g08.bks.cpg/sg61_6_cif.got.tgz:11130.got - 2010.06.03 15:17:17.
