data_PCOD9458889
_publ_section_title
;
Structure prediction by ZEFSAII (Michael W. Deem and Ramdas Pophale) SiO2 
 PCOD9458889
Probable space group: P B C N
;
_chemical_formula_sum "Si O2"
_cell_formula_units_Z 60
_cell_length_a 9.000000
_cell_length_b 18.000000
_cell_length_c 18.000000
_cell_angle_alpha 90.000000
_cell_angle_beta 90.000000
_cell_angle_gamma 90.000000
_cell_volume 2916.000000
_symmetry_space_group_name_H-M "P B C N"
_symmetry_group_IT_number 60
_symmetry_cell_setting 'orthorhombic'
loop_
_space_group_symop_operation_xyz
x,y,z
1/2-x,1/2-y,1/2+z
1/2+x,1/2-y,-z
-x,y,1/2-z
-x,-y,-z
1/2+x,1/2+y,1/2-z
1/2-x,1/2+y,z
x,-y,1/2+z
loop_
_atom_site_type_symbol
_atom_site_label
_atom_site_fract_x
_atom_site_fract_y
_atom_site_fract_z
Si Si1 0.108898 0.450462 0.129260
Si Si2 0.500000 0.279594 0.250000
Si Si3 0.931771 0.050700 0.066712
Si Si4 0.033965 0.274382 0.587683
Si Si5 0.741237 0.593554 0.430839
Si Si6 0.784034 0.562239 0.604121
Si Si7 0.168810 0.345288 0.258090
Si Si8 0.275129 0.834615 0.014242
O O1 0.216987 0.514911 0.104462
O O2 0.144018 0.420770 0.210829
O O3 0.941855 0.478257 0.114612
O O4 0.135158 0.378603 0.077616
O O5 0.523496 0.241010 0.170523
O O6 0.332634 0.314903 0.235017
O O7 0.801174 0.102331 0.036195
O O8 0.068480 0.102906 0.089970
O O9 0.854754 0.991601 0.121837
O O10 0.000000 0.000000 0.000000
O O11 0.143363 0.344834 0.594003
O O12 0.141300 0.211536 0.551884
O O13 0.893789 0.288265 0.533521
O O14 0.762092 0.587126 0.519575
O O15 0.803469 0.632551 0.656873
O O16 0.000000 0.308601 0.250000
#
# Coordination Sequence:
#
# PCOD9458889 Si02
#       8
#     8   4   8   8   8   8   8   8
#     4  11  20  42  68  97 130 173 232 293 344 412
#     4  12  28  48  70  96 150 192 234 292 368 442
#     4  10  21  36  67 101 131 164 230 288 344 407
#     4  12  28  44  70 101 143 190 237 288 370 437
#     4  11  22  40  66  98 136 172 231 293 335 425
#     4  10  20  37  67  98 126 174 221 293 347 403
#     4  10  25  42  71 101 136 181 239 291 359 427
#     4  12  23  43  68  99 133 183 232 290 347 429
#
# _framework density 20.576132000000001
#
# number of rings (size 3 to 8) (size 9 to 14) (size 15 to 20)
#    0.000    1.067    5.333    2.000    7.467    0.000 
#    8.400    0.000    0.000    0.000    0.000    0.000 
#    0.000    0.000    0.000    0.000    0.000    0.000 
#
# Total GULP energy -334337.864082 kJ/mol
# GULP energy per Si atom -5572.297735 kJ/mol
# Density = 2.052930 g / cm^3
# Si number density = 20.576132 Si / 1000 Ang^3
#
#
#
# Elastic Constant Matrix: (Units=GPa)
#
#
# Indices 1 2 3 4 5 6 
#
# 1 118.1923 11.7437 18.8211 0.0000 0.0000 0.0000
# 2 11.7437 41.1502 21.5066 0.0000 0.0000 0.0000
# 3 18.8211 21.5066 52.9921 0.0000 0.0000 0.0000
# 4 0.0000 0.0000 0.0000 -0.2332 0.0000 0.0000
# 5 0.0000 0.0000 0.0000 0.0000 29.6883 0.0000
# 6 0.0000 0.0000 0.0000 0.0000 0.0000 -42.3756
#
#
#
# Elastic Compliance Matrix: (Units=1/GPa)
#
#
# Indices 1 2 3 4 5 6 
#
# 1 0.009010 -0.001141 -0.002737 0.000000 0.000000 0.000000
# 2 -0.001141 0.030988 -0.012171 0.000000 0.000000 0.000000
# 3 -0.002737 -0.012171 0.024782 0.000000 0.000000 0.000000
# 4 0.000000 0.000000 0.000000 -4.288484 0.000000 0.000000
# 5 0.000000 0.000000 0.000000 0.000000 0.033683 0.000000
# 6 0.000000 0.000000 0.000000 0.000000 0.000000 -0.023598
#
#
# Mechanical properties :
#
#
# Convention : Reuss Voigt Hill
#
# Bulk Modulus (GPa) = 30.59761 35.16417 32.88089
# Shear Modulus (GPa) = -1.19886 8.10012 3.45063
#
# Velocity S-wave (km/s) = -0.76414 1.98625 1.29640
# Velocity P-wave (km/s) = 3.75821 4.73151 4.27266
#
# Compressibility (1/GPa) = 0.03268229
#
# Stress axis : x y z
#
# Youngs Moduli (GPa) = 110.98778 32.27073 40.35114
#
# Poissons Ratio (x) = 0.03682 0.11044
# Poissons Ratio (y) = 0.12662 0.49112
# Poissons Ratio (z) = 0.30378 0.39277
#
# Static dielectric constant tensor:
#      x y z
#    x 1.797100 0.000000 0.000000 
#    y 0.000000 1.765940 0.000000 
#    z 0.000000 0.000000 1.757630 
# 
# From -- ./inp_files/19575.got.cif
#   From: 2010.05.17/outbox.ucp.g08.bks.cvg/sg60_10_cif.got.tgz:19575.got - 2010.06.11 16:26:41.
