data_PCOD9458538
_publ_section_title
;
Structure prediction by ZEFSAII (Michael W. Deem and Ramdas Pophale) SiO2 
 PCOD9458538
Probable space group: P B C N
;
_chemical_formula_sum "Si O2"
_cell_formula_units_Z 60
_cell_length_a 8.065101
_cell_length_b 12.321567
_cell_length_c 25.506144
_cell_angle_alpha 90.000000
_cell_angle_beta 90.000000
_cell_angle_gamma 90.000000
_cell_volume 2534.664958
_symmetry_space_group_name_H-M "P B C N"
_symmetry_group_IT_number 60
_symmetry_cell_setting 'orthorhombic'
loop_
_space_group_symop_operation_xyz
x,y,z
1/2-x,1/2-y,1/2+z
1/2+x,1/2-y,-z
-x,y,1/2-z
-x,-y,-z
1/2+x,1/2+y,1/2-z
1/2-x,1/2+y,z
x,-y,1/2+z
loop_
_atom_site_type_symbol
_atom_site_label
_atom_site_fract_x
_atom_site_fract_y
_atom_site_fract_z
Si Si1 0.458081 0.630748 0.868094
Si Si2 0.619200 0.055075 0.596359
Si Si3 0.675884 0.580261 0.378649
Si Si4 0.647500 0.743407 0.289056
Si Si5 0.994820 0.233539 0.450318
Si Si6 0.500000 0.705236 0.750000
Si Si7 0.384596 0.182339 0.438238
Si Si8 0.546973 0.987606 0.307348
O O1 0.306227 0.595694 0.906387
O O2 0.589702 0.536963 0.880324
O O3 0.454155 0.640723 0.804258
O O4 0.470215 0.754304 0.889364
O O5 0.583181 0.946095 0.565178
O O6 0.615454 0.033121 0.658750
O O7 0.494806 0.151360 0.580772
O O8 0.603369 0.669443 0.338428
O O9 0.641861 0.645152 0.432202
O O10 0.844983 0.555044 0.348212
O O11 0.500000 0.717639 0.250000
O O12 0.831150 0.731008 0.265163
O O13 0.635695 0.871650 0.300097
O O14 0.182610 0.190916 0.439954
O O15 0.961559 0.265118 0.510001
O O16 0.500000 0.026567 0.250000
#
# Coordination Sequence:
#
# PCOD9458538 Si02
#       8
#     8   8   8   8   8   4   8   8
#     4  11  26  47  71 109 149 195 246 310 381 456
#     4  11  24  48  77 106 146 195 254 312 377 453
#     4  12  26  46  71 106 150 194 242 315 379 448
#     4  11  26  44  69 105 149 203 245 314 368 452
#     4  11  26  50  74 111 145 194 252 313 393 441
#     4  12  26  46  72 108 156 198 262 298 378 468
#     4  11  27  47  77 105 149 195 252 319 377 461
#     4  11  25  43  68 107 148 196 254 298 377 465
#
# _framework density 23.671769999999999
#
# number of rings (size 3 to 8) (size 9 to 14) (size 15 to 20)
#    0.000    0.800    4.000    2.000    7.467    1.600 
#    0.000    0.000    0.000    0.000    0.000    0.000 
#    0.000    0.000    0.000    0.000    0.000    0.000 
#
# Total GULP energy -334634.667759 kJ/mol
# GULP energy per Si atom -5577.244463 kJ/mol
# Density = 2.361789 g / cm^3
# Si number density = 23.671770 Si / 1000 Ang^3
#
#
#
# Elastic Constant Matrix: (Units=GPa)
#
#
# Indices 1 2 3 4 5 6 
#
# 1 60.1831 19.1425 6.2048 0.0000 0.0000 0.0000
# 2 19.1425 98.0370 4.1383 0.0000 0.0000 0.0000
# 3 6.2048 4.1383 85.5078 0.0000 0.0000 0.0000
# 4 0.0000 0.0000 0.0000 20.2597 0.0000 0.0000
# 5 0.0000 0.0000 0.0000 0.0000 33.9659 0.0000
# 6 0.0000 0.0000 0.0000 0.0000 0.0000 104.3804
#
#
#
# Elastic Compliance Matrix: (Units=1/GPa)
#
#
# Indices 1 2 3 4 5 6 
#
# 1 0.017824 -0.003433 -0.001127 0.000000 0.000000 0.000000
# 2 -0.003433 0.010882 -0.000278 0.000000 0.000000 0.000000
# 3 -0.001127 -0.000278 0.011790 0.000000 0.000000 0.000000
# 4 0.000000 0.000000 0.000000 0.049359 0.000000 0.000000
# 5 0.000000 0.000000 0.000000 0.000000 0.029441 0.000000
# 6 0.000000 0.000000 0.000000 0.000000 0.000000 0.009580
#
#
# Mechanical properties :
#
#
# Convention : Reuss Voigt Hill
#
# Bulk Modulus (GPa) = 32.44513 33.63322 33.03917
# Shear Modulus (GPa) = 33.59633 46.00402 39.80017
#
# Velocity S-wave (km/s) = 3.77139 4.41320 4.10486
# Velocity P-wave (km/s) = 5.71844 6.34093 6.03771
#
# Compressibility (1/GPa) = 0.03082127
#
# Stress axis : x y z
#
# Youngs Moduli (GPa) = 56.10401 91.89307 84.81718
#
# Poissons Ratio (x) = 0.31544 0.09561
# Poissons Ratio (y) = 0.19259 0.02354
# Poissons Ratio (z) = 0.06324 0.02551
#
# Static dielectric constant tensor:
#      x y z
#    x 2.044930 0.000000 0.000000 
#    y 0.000000 1.976680 0.000000 
#    z 0.000000 0.000000 1.906500 
# 
# From -- ./inp_files/25205.got.cif
#   From: 2010.05.17/outbox.cif.g08.bks.cpg/sg60_13_cif.got.tgz:25205.got - 2010.06.03 14:59:27.
