data_PCOD9458612
_publ_section_title
;
Structure prediction by ZEFSAII (Michael W. Deem and Ramdas Pophale) SiO2 
 PCOD9458612
Probable space group: P B C N
;
_chemical_formula_sum "Si O2"
_cell_formula_units_Z 40
_cell_length_a 21.732222
_cell_length_b 8.122094
_cell_length_c 8.074554
_cell_angle_alpha 90.000000
_cell_angle_beta 90.000000
_cell_angle_gamma 90.000000
_cell_volume 1425.248812
_symmetry_space_group_name_H-M "P B C N"
_symmetry_group_IT_number 60
_symmetry_cell_setting 'orthorhombic'
loop_
_space_group_symop_operation_xyz
x,y,z
1/2-x,1/2-y,1/2+z
1/2+x,1/2-y,-z
-x,y,1/2-z
-x,-y,-z
1/2+x,1/2+y,1/2-z
1/2-x,1/2+y,z
x,-y,1/2+z
loop_
_atom_site_type_symbol
_atom_site_label
_atom_site_fract_x
_atom_site_fract_y
_atom_site_fract_z
Si Si1 0.102205 0.085495 0.291233
Si Si2 0.280785 0.657002 0.519574
Si Si3 0.947166 0.788729 0.389571
Si Si4 0.069760 0.423674 0.183922
Si Si5 0.199180 0.553274 0.244011
O O1 0.164179 0.099968 0.399140
O O2 0.050056 0.123097 0.431460
O O3 0.090463 0.231700 0.155216
O O4 0.100578 0.907686 0.207324
O O5 0.221540 0.653461 0.401781
O O6 0.302467 0.831147 0.584059
O O7 0.252737 0.569423 0.682315
O O8 0.936962 0.593974 0.423661
O O9 0.000000 0.788914 0.250000
O O10 0.132364 0.479622 0.277280
O O11 0.000000 0.411532 0.250000
#
# Coordination Sequence:
#
# PCOD9458612 Si02
#       5
#     8   8   8   8   8
#     4  12  25  49  75 113 154 205 255 324 389 453
#     4  12  26  47  74 111 148 202 259 318 393 459
#     4  11  26  46  75 113 152 206 261 314 388 464
#     4  11  27  50  77 114 159 203 258 321 387 465
#     4  12  26  49  75 110 152 202 258 320 392 463
#
# _framework density 28.065276999999998
#
# number of rings (size 3 to 8) (size 9 to 14) (size 15 to 20)
#    0.000    0.400    2.000    6.000    2.800    4.800 
#    0.000    0.000    0.000    0.000    0.000    0.000 
#    0.000    0.000    0.000    0.000    0.000    0.000 
#
# Total GULP energy -223038.555245 kJ/mol
# GULP energy per Si atom -5575.963881 kJ/mol
# Density = 2.800140 g / cm^3
# Si number density = 28.065277 Si / 1000 Ang^3
#
#
#
# Elastic Constant Matrix: (Units=GPa)
#
#
# Indices 1 2 3 4 5 6 
#
# 1 162.6863 79.0127 28.0897 0.0000 0.0000 0.0000
# 2 79.0127 103.7204 48.3179 0.0000 0.0000 0.0000
# 3 28.0897 48.3179 101.3504 0.0000 0.0000 0.0000
# 4 0.0000 0.0000 0.0000 38.0724 0.0000 0.0000
# 5 0.0000 0.0000 0.0000 0.0000 54.3245 0.0000
# 6 0.0000 0.0000 0.0000 0.0000 0.0000 32.8095
#
#
#
# Elastic Compliance Matrix: (Units=1/GPa)
#
#
# Indices 1 2 3 4 5 6 
#
# 1 0.009849 -0.008010 0.001089 0.000000 0.000000 0.000000
# 2 -0.008010 0.018909 -0.006794 0.000000 0.000000 0.000000
# 3 0.001089 -0.006794 0.012804 0.000000 0.000000 0.000000
# 4 0.000000 0.000000 0.000000 0.026266 0.000000 0.000000
# 5 0.000000 0.000000 0.000000 0.000000 0.018408 0.000000
# 6 0.000000 0.000000 0.000000 0.000000 0.000000 0.030479
#
#
# Mechanical properties :
#
#
# Convention : Reuss Voigt Hill
#
# Bulk Modulus (GPa) = 70.76832 75.39972 73.08402
# Shear Modulus (GPa) = 33.58953 39.19708 36.39330
#
# Velocity S-wave (km/s) = 3.46328 3.74122 3.60493
# Velocity P-wave (km/s) = 6.42361 6.75177 6.58974
#
# Compressibility (1/GPa) = 0.01413062
#
# Stress axis : x y z
#
# Youngs Moduli (GPa) = 101.53149 52.88597 78.10011
#
# Poissons Ratio (x) = 0.42363 -0.08506
# Poissons Ratio (y) = 0.81330 0.53064
# Poissons Ratio (z) = -0.11058 0.35933
#
# Static dielectric constant tensor:
#      x y z
#    x 2.230600 0.000000 0.000000 
#    y 0.000000 2.263680 0.000000 
#    z 0.000000 0.000000 2.256980 
# 
# From -- ./inp_files/7758.got.cif
#   From: 2010.05.17/outbox.cif.g08.bks.cpg/sg60_4_cif.got.tgz:7758.got - 2010.06.03 14:59:27.
