data_PCOD9458335
_publ_section_title
;
Structure prediction by ZEFSAII (Michael W. Deem and Ramdas Pophale) SiO2 
 PCOD9458335
Probable space group: P B C N
;
_chemical_formula_sum "Si O2"
_cell_formula_units_Z 40
_cell_length_a 28.821532
_cell_length_b 6.771853
_cell_length_c 7.980460
_cell_angle_alpha 90.000000
_cell_angle_beta 90.000000
_cell_angle_gamma 90.000000
_cell_volume 1557.587701
_symmetry_space_group_name_H-M "P B C N"
_symmetry_group_IT_number 60
_symmetry_cell_setting 'orthorhombic'
loop_
_space_group_symop_operation_xyz
x,y,z
1/2-x,1/2-y,1/2+z
1/2+x,1/2-y,-z
-x,y,1/2-z
-x,-y,-z
1/2+x,1/2+y,1/2-z
1/2-x,1/2+y,z
x,-y,1/2+z
loop_
_atom_site_type_symbol
_atom_site_label
_atom_site_fract_x
_atom_site_fract_y
_atom_site_fract_z
Si Si1 0.206218 0.285689 0.498560
Si Si2 0.600216 0.429536 0.071238
Si Si3 0.389282 0.824240 0.594238
Si Si4 0.194268 0.118819 0.127083
Si Si5 0.967049 0.352018 0.398405
O O1 0.161567 0.415496 0.549901
O O2 0.197900 0.216358 0.308457
O O3 0.259635 0.338355 0.518745
O O4 0.199432 0.116603 0.637775
O O5 0.599216 0.669240 0.058247
O O6 0.645910 0.360695 0.968663
O O7 0.554305 0.333739 0.993828
O O8 0.606109 0.328704 0.251333
O O9 0.423711 0.001718 0.636762
O O10 0.000000 0.282525 0.250000
O O11 0.000000 0.500000 0.500000
#
# Coordination Sequence:
#
# PCOD9458335 Si02
#       5
#     8   8   8   8   8
#     4  11  23  41  66  98 135 177 225 273 342 409
#     4  11  25  45  71 100 141 180 230 287 347 411
#     4  11  25  45  71 101 139 182 229 287 348 411
#     4  11  23  41  66  98 135 178 223 276 339 412
#     4  12  28  48  70 105 137 182 238 284 347 411
#
# _framework density 25.680734999999999
#
# number of rings (size 3 to 8) (size 9 to 14) (size 15 to 20)
#    0.000    0.800    2.000    7.200    8.400    1.600 
#    0.000    0.000    0.000    0.000    0.000    0.000 
#    0.000    0.000    0.000    0.000    0.000    0.000 
#
# Total GULP energy -223644.177769 kJ/mol
# GULP energy per Si atom -5591.104444 kJ/mol
# Density = 2.562228 g / cm^3
# Si number density = 25.680735 Si / 1000 Ang^3
#
#
#
# Elastic Constant Matrix: (Units=GPa)
#
#
# Indices 1 2 3 4 5 6 
#
# 1 141.2721 9.6659 31.6978 0.0000 0.0000 0.0000
# 2 9.6659 58.3784 2.9378 0.0000 0.0000 0.0000
# 3 31.6978 2.9378 71.1229 0.0000 0.0000 0.0000
# 4 0.0000 0.0000 0.0000 26.7048 0.0000 0.0000
# 5 0.0000 0.0000 0.0000 0.0000 47.2114 0.0000
# 6 0.0000 0.0000 0.0000 0.0000 0.0000 51.7808
#
#
#
# Elastic Compliance Matrix: (Units=1/GPa)
#
#
# Indices 1 2 3 4 5 6 
#
# 1 0.007940 -0.001139 -0.003492 0.000000 0.000000 0.000000
# 2 -0.001139 0.017329 -0.000208 0.000000 0.000000 0.000000
# 3 -0.003492 -0.000208 0.015625 0.000000 0.000000 0.000000
# 4 0.000000 0.000000 0.000000 0.037446 0.000000 0.000000
# 5 0.000000 0.000000 0.000000 0.000000 0.021181 0.000000
# 6 0.000000 0.000000 0.000000 0.000000 0.000000 0.019312
#
#
# Mechanical properties :
#
#
# Convention : Reuss Voigt Hill
#
# Bulk Modulus (GPa) = 32.03479 39.93071 35.98275
# Shear Modulus (GPa) = 35.99293 40.23752 38.11522
#
# Velocity S-wave (km/s) = 3.74779 3.96262 3.85670
# Velocity P-wave (km/s) = 5.58832 6.04311 5.82016
#
# Compressibility (1/GPa) = 0.03121606
#
# Stress axis : x y z
#
# Youngs Moduli (GPa) = 125.94641 57.70779 64.00053
#
# Poissons Ratio (x) = 0.06572 0.22346
# Poissons Ratio (y) = 0.14344 0.01332
# Poissons Ratio (z) = 0.43975 0.01201
#
# Static dielectric constant tensor:
#      x y z
#    x 2.157920 0.000000 0.000000 
#    y 0.000000 2.076160 0.000000 
#    z 0.000000 0.000000 2.082940 
# 
# From -- ./inp_files/7750.got.cif
#   From: 2010.05.17/outbox.cif.g08.bks.cpg/sg60_4_cif.got.tgz:7750.got - 2010.06.03 14:59:27.
