data_PCOD9458751
_publ_section_title
;
Structure prediction by ZEFSAII (Michael W. Deem and Ramdas Pophale) SiO2 
 PCOD9458751
Probable space group: P B C N
;
_chemical_formula_sum "Si O2"
_cell_formula_units_Z 36
_cell_length_a 8.837249
_cell_length_b 18.316421
_cell_length_c 8.280682
_cell_angle_alpha 90.000000
_cell_angle_beta 90.000000
_cell_angle_gamma 90.000000
_cell_volume 1340.367275
_symmetry_space_group_name_H-M "P B C N"
_symmetry_group_IT_number 60
_symmetry_cell_setting 'orthorhombic'
loop_
_space_group_symop_operation_xyz
x,y,z
1/2-x,1/2-y,1/2+z
1/2+x,1/2-y,-z
-x,y,1/2-z
-x,-y,-z
1/2+x,1/2+y,1/2-z
1/2-x,1/2+y,z
x,-y,1/2+z
loop_
_atom_site_type_symbol
_atom_site_label
_atom_site_fract_x
_atom_site_fract_y
_atom_site_fract_z
Si Si1 0.829509 0.907858 0.779243
Si Si2 0.500000 0.378083 0.250000
Si Si3 0.275073 0.042033 0.562857
Si Si4 0.022228 0.352764 0.950751
Si Si5 0.202427 0.786526 0.498978
O O1 0.750409 0.934712 0.620236
O O2 0.830778 0.823869 0.828084
O O3 0.000000 0.930151 0.750000
O O4 0.747294 0.955770 0.916519
O O5 0.364275 0.423714 0.165290
O O6 0.411418 0.327889 0.377762
O O7 0.440722 0.078397 0.569275
O O8 0.000000 0.361035 0.750000
O O9 0.877039 0.308634 0.018373
O O10 0.162162 0.297514 0.985246
#
# Coordination Sequence:
#
# PCOD9458751 Si02
#       5
#     8   4   8   8   8
#     4  12  24  47  83 115 160 214 261 328 396 481
#     4  12  24  48  76 116 154 204 272 324 388 480
#     4  12  26  48  80 117 159 207 266 324 404 472
#     4  12  28  53  79 116 161 208 268 333 396 473
#     4  12  27  49  80 113 155 212 267 328 398 468
#
# _framework density 26.858311
#
# number of rings (size 3 to 8) (size 9 to 14) (size 15 to 20)
#    0.000    0.000    6.667    3.333    0.000    1.778 
#    0.000    0.000    0.000    0.000    0.000    0.000 
#    0.000    0.000    0.000    0.000    0.000    0.000 
#
# Total GULP energy -201323.157638 kJ/mol
# GULP energy per Si atom -5592.309934 kJ/mol
# Density = 2.679718 g / cm^3
# Si number density = 26.858311 Si / 1000 Ang^3
#
#
#
# Elastic Constant Matrix: (Units=GPa)
#
#
# Indices 1 2 3 4 5 6 
#
# 1 151.3333 19.9677 12.6443 0.0000 0.0000 0.0000
# 2 19.9677 106.4713 17.2097 0.0000 0.0000 0.0000
# 3 12.6443 17.2097 99.4827 0.0000 0.0000 0.0000
# 4 0.0000 0.0000 0.0000 34.4334 0.0000 0.0000
# 5 0.0000 0.0000 0.0000 0.0000 57.6967 0.0000
# 6 0.0000 0.0000 0.0000 0.0000 0.0000 44.9348
#
#
#
# Elastic Compliance Matrix: (Units=1/GPa)
#
#
# Indices 1 2 3 4 5 6 
#
# 1 0.006818 -0.001171 -0.000664 0.000000 0.000000 0.000000
# 2 -0.001171 0.009864 -0.001557 0.000000 0.000000 0.000000
# 3 -0.000664 -0.001557 0.010406 0.000000 0.000000 0.000000
# 4 0.000000 0.000000 0.000000 0.029042 0.000000 0.000000
# 5 0.000000 0.000000 0.000000 0.000000 0.017332 0.000000
# 6 0.000000 0.000000 0.000000 0.000000 0.000000 0.022254
#
#
# Mechanical properties :
#
#
# Convention : Reuss Voigt Hill
#
# Bulk Modulus (GPa) = 49.25633 50.77008 50.01320
# Shear Modulus (GPa) = 45.75899 47.91070 46.83484
#
# Velocity S-wave (km/s) = 4.13209 4.22812 4.18038
# Velocity P-wave (km/s) = 6.41441 6.54064 6.47784
#
# Compressibility (1/GPa) = 0.02030196
#
# Stress axis : x y z
#
# Youngs Moduli (GPa) = 146.67157 101.38273 96.10010
#
# Poissons Ratio (x) = 0.11875 0.06380
# Poissons Ratio (y) = 0.17180 0.14967
# Poissons Ratio (z) = 0.09738 0.15790
#
# Static dielectric constant tensor:
#      x y z
#    x 2.061310 0.000000 0.000000 
#    y 0.000000 2.132920 0.000000 
#    z 0.000000 0.000000 2.095790 
# 
# From -- ./inp_files/3691.got.cif
#   From: 2010.05.17/outbox.cif.g08.bks.cpg/sg60_2_cif.got.tgz:3691.got - 2010.06.03 14:59:27.
