data_PCOD9458435
_publ_section_title
;
Structure prediction by ZEFSAII (Michael W. Deem and Ramdas Pophale) SiO2 
 PCOD9458435
Probable space group: P B C N
;
_chemical_formula_sum "Si O2"
_cell_formula_units_Z 64
_cell_length_a 21.549137
_cell_length_b 15.883641
_cell_length_c 8.019554
_cell_angle_alpha 90.000000
_cell_angle_beta 90.000000
_cell_angle_gamma 90.000000
_cell_volume 2744.922967
_symmetry_space_group_name_H-M "P B C N"
_symmetry_group_IT_number 60
_symmetry_cell_setting 'orthorhombic'
loop_
_space_group_symop_operation_xyz
x,y,z
1/2-x,1/2-y,1/2+z
1/2+x,1/2-y,-z
-x,y,1/2-z
-x,-y,-z
1/2+x,1/2+y,1/2-z
1/2-x,1/2+y,z
x,-y,1/2+z
loop_
_atom_site_type_symbol
_atom_site_label
_atom_site_fract_x
_atom_site_fract_y
_atom_site_fract_z
Si Si1 0.940478 0.562063 0.498828
Si Si2 0.622217 0.682746 0.996433
Si Si3 0.666359 0.068874 0.999131
Si Si4 0.998085 0.735112 0.549226
Si Si5 0.127288 0.736653 0.368072
Si Si6 0.663427 0.155290 0.667082
Si Si7 0.699550 0.461165 0.645768
Si Si8 0.711444 0.625229 0.501060
O O1 0.883732 0.500987 0.440313
O O2 0.970975 0.652522 0.448977
O O3 0.900389 0.602806 0.649878
O O4 0.000000 0.500000 0.500000
O O5 0.631737 0.726504 0.817339
O O6 0.548449 0.687174 0.022661
O O7 0.647650 0.748001 0.136538
O O8 0.656504 0.595726 0.027620
O O9 0.564097 0.254012 0.031869
O O10 0.688234 0.124321 0.842381
O O11 0.634730 0.135737 0.124326
O O12 0.000000 0.718523 0.750000
O O13 0.228961 0.538254 0.415148
O O14 0.181277 0.784775 0.467706
O O15 0.715347 0.135627 0.530286
O O16 0.682665 0.559070 0.633800
O O17 0.698496 0.418057 0.825096
#
# Coordination Sequence:
#
# PCOD9458435 Si02
#       8
#     8   8   8   8   8   8   8   8
#     4  11  24  39  64  99 142 186 232 272 345 406
#     4  11  25  44  68  98 138 181 237 286 353 413
#     4  12  24  42  68  96 142 185 235 285 352 417
#     4  11  24  47  68 100 141 186 236 285 344 416
#     4  12  24  44  69 100 135 186 233 291 348 417
#     4  11  24  43  63  99 136 185 233 288 344 420
#     4  12  25  45  69 101 134 179 229 297 352 419
#     4  12  25  44  71  99 136 176 235 291 357 411
#
# _framework density 23.315773
#
# number of rings (size 3 to 8) (size 9 to 14) (size 15 to 20)
#    0.000    0.500    2.500    7.125    0.000    2.000 
#    4.500    0.625    0.000    0.000    0.000    0.000 
#    0.000    0.000    0.000    0.000    0.000    0.000 
#
# Total GULP energy -357157.462188 kJ/mol
# GULP energy per Si atom -5580.585347 kJ/mol
# Density = 2.326270 g / cm^3
# Si number density = 23.315773 Si / 1000 Ang^3
#
#
#
# Elastic Constant Matrix: (Units=GPa)
#
#
# Indices 1 2 3 4 5 6 
#
# 1 123.3719 37.3775 12.8712 0.0000 0.0000 0.0000
# 2 37.3775 71.6016 5.2191 0.0000 0.0000 0.0000
# 3 12.8712 5.2191 87.1201 0.0000 0.0000 0.0000
# 4 0.0000 0.0000 0.0000 26.1731 0.0000 0.0000
# 5 0.0000 0.0000 0.0000 0.0000 21.6133 0.0000
# 6 0.0000 0.0000 0.0000 0.0000 0.0000 34.8760
#
#
#
# Elastic Compliance Matrix: (Units=1/GPa)
#
#
# Indices 1 2 3 4 5 6 
#
# 1 0.009740 -0.005001 -0.001139 0.000000 0.000000 0.000000
# 2 -0.005001 0.016596 -0.000255 0.000000 0.000000 0.000000
# 3 -0.001139 -0.000255 0.011662 0.000000 0.000000 0.000000
# 4 0.000000 0.000000 0.000000 0.038207 0.000000 0.000000
# 5 0.000000 0.000000 0.000000 0.000000 0.046268 0.000000
# 6 0.000000 0.000000 0.000000 0.000000 0.000000 0.028673
#
#
# Mechanical properties :
#
#
# Convention : Reuss Voigt Hill
#
# Bulk Modulus (GPa) = 39.67397 43.66991 41.67194
# Shear Modulus (GPa) = 29.01264 31.64088 30.32676
#
# Velocity S-wave (km/s) = 3.53134 3.68782 3.61043
# Velocity P-wave (km/s) = 5.80345 6.07485 5.94070
#
# Compressibility (1/GPa) = 0.02520545
#
# Stress axis : x y z
#
# Youngs Moduli (GPa) = 102.67311 60.25716 85.74842
#
# Poissons Ratio (x) = 0.30136 0.09770
# Poissons Ratio (y) = 0.51349 0.02189
# Poissons Ratio (z) = 0.11698 0.01538
#
# Static dielectric constant tensor:
#      x y z
#    x 1.860100 0.000000 0.000000 
#    y 0.000000 1.924060 0.000000 
#    z 0.000000 0.000000 1.953470 
# 
# From -- ./inp_files/7981.got.cif
#   From: 2010.05.17/outbox.cif.g08.bks.cpg/sg60_4_cif.got.tgz:7981.got - 2010.06.03 14:59:27.
