data_PCOD9458183
_publ_section_title
;
Structure prediction by ZEFSAII (Michael W. Deem and Ramdas Pophale) SiO2 
 PCOD9458183
Probable space group: P B C N
;
_chemical_formula_sum "Si O2"
_cell_formula_units_Z 64
_cell_length_a 9.565184
_cell_length_b 27.537257
_cell_length_c 10.582118
_cell_angle_alpha 90.000000
_cell_angle_beta 90.000000
_cell_angle_gamma 90.000000
_cell_volume 2787.318559
_symmetry_space_group_name_H-M "P B C N"
_symmetry_group_IT_number 60
_symmetry_cell_setting 'orthorhombic'
loop_
_space_group_symop_operation_xyz
x,y,z
1/2-x,1/2-y,1/2+z
1/2+x,1/2-y,-z
-x,y,1/2-z
-x,-y,-z
1/2+x,1/2+y,1/2-z
1/2-x,1/2+y,z
x,-y,1/2+z
loop_
_atom_site_type_symbol
_atom_site_label
_atom_site_fract_x
_atom_site_fract_y
_atom_site_fract_z
Si Si1 0.988112 0.315631 0.506798
Si Si2 0.411334 0.621214 0.987114
Si Si3 0.836451 0.987615 0.032551
Si Si4 0.841218 0.514559 0.280530
Si Si5 0.303461 0.126424 0.191222
Si Si6 0.710885 0.348201 0.527408
Si Si7 0.616058 0.741894 0.160280
Si Si8 0.617189 0.279656 0.153831
O O1 0.086970 0.342171 0.608889
O O2 0.073945 0.293952 0.392367
O O3 0.856099 0.345985 0.453410
O O4 0.926944 0.265789 0.567215
O O5 0.348648 0.626540 0.126733
O O6 0.580553 0.619313 0.986381
O O7 0.344140 0.570702 0.942702
O O8 0.359686 0.670101 0.918939
O O9 0.762115 0.008772 0.158794
O O10 0.740499 0.001633 0.909695
O O11 0.000000 0.000000 0.000000
O O12 0.858037 0.571794 0.306377
O O13 0.000000 0.495309 0.250000
O O14 0.273602 0.141840 0.333555
O O15 0.643234 0.295002 0.546158
O O16 0.500000 0.721064 0.250000
O O17 0.757181 0.754896 0.232249
O O18 0.500000 0.292983 0.250000
#
# Coordination Sequence:
#
# PCOD9458183 Si02
#       8
#     8   8   8   8   8   8   8   8
#     4  11  22  39  60  92 132 175 225 276 329 401
#     4  11  23  41  63  95 130 169 221 281 341 413
#     4  11  25  45  75 107 143 185 235 306 372 443
#     4  11  24  46  77 108 144 186 240 305 379 448
#     4  11  22  42  67  97 131 172 232 278 337 415
#     4  11  22  34  63  91 123 175 221 274 329 405
#     4  11  23  37  59  85 127 176 221 270 328 398
#     4  11  24  38  59  89 129 175 220 267 333 396
#
# _framework density 22.961136
#
# number of rings (size 3 to 8) (size 9 to 14) (size 15 to 20)
#    0.000    1.000    2.500    5.250    1.750    3.000 
#    0.000    0.625    2.750    0.000    0.000    0.000 
#    0.000    0.000    0.000    0.000    0.000    0.000 
#
# Total GULP energy -356917.241601 kJ/mol
# GULP energy per Si atom -5576.831900 kJ/mol
# Density = 2.290888 g / cm^3
# Si number density = 22.961136 Si / 1000 Ang^3
#
#
#
# Elastic Constant Matrix: (Units=GPa)
#
#
# Indices 1 2 3 4 5 6 
#
# 1 98.6221 4.6894 13.8771 0.0000 0.0000 0.0000
# 2 4.6894 66.9591 4.5862 0.0000 0.0000 0.0000
# 3 13.8771 4.5862 54.1943 0.0000 0.0000 0.0000
# 4 0.0000 0.0000 0.0000 29.9471 0.0000 0.0000
# 5 0.0000 0.0000 0.0000 0.0000 16.8489 0.0000
# 6 0.0000 0.0000 0.0000 0.0000 0.0000 14.3514
#
#
#
# Elastic Compliance Matrix: (Units=1/GPa)
#
#
# Indices 1 2 3 4 5 6 
#
# 1 0.010539 -0.000556 -0.002652 0.000000 0.000000 0.000000
# 2 -0.000556 0.015051 -0.001131 0.000000 0.000000 0.000000
# 3 -0.002652 -0.001131 0.019227 0.000000 0.000000 0.000000
# 4 0.000000 0.000000 0.000000 0.033392 0.000000 0.000000
# 5 0.000000 0.000000 0.000000 0.000000 0.059351 0.000000
# 6 0.000000 0.000000 0.000000 0.000000 0.000000 0.069680
#
#
# Mechanical properties :
#
#
# Convention : Reuss Voigt Hill
#
# Bulk Modulus (GPa) = 27.67134 29.56454 28.61794
# Shear Modulus (GPa) = 21.93319 25.33765 23.63542
#
# Velocity S-wave (km/s) = 3.09403 3.32550 3.21185
# Velocity P-wave (km/s) = 4.98414 5.25825 5.12302
#
# Compressibility (1/GPa) = 0.03613847
#
# Stress axis : x y z
#
# Youngs Moduli (GPa) = 94.88312 66.44105 52.01064
#
# Poissons Ratio (x) = 0.03697 0.13791
# Poissons Ratio (y) = 0.05280 0.05883
# Poissons Ratio (z) = 0.25159 0.07516
#
# Static dielectric constant tensor:
#      x y z
#    x 2.203280 0.000000 0.000000 
#    y 0.000000 1.912550 0.000000 
#    z 0.000000 0.000000 2.002620 
# 
# From -- ./inp_files/10387.got.cif
#   From: 2010.05.17/outbox.cif.g08.bks.cpg/sg60_6_cif.got.tgz:10387.got - 2010.06.03 14:59:27.
