data_PCOD9458510
_publ_section_title
;
Structure prediction by ZEFSAII (Michael W. Deem and Ramdas Pophale) SiO2 
 PCOD9458510
Probable space group: P B C N
;
_chemical_formula_sum "Si O2"
_cell_formula_units_Z 56
_cell_length_a 20.116347
_cell_length_b 15.288077
_cell_length_c 8.688396
_cell_angle_alpha 90.000000
_cell_angle_beta 90.000000
_cell_angle_gamma 90.000000
_cell_volume 2672.031581
_symmetry_space_group_name_H-M "P B C N"
_symmetry_group_IT_number 60
_symmetry_cell_setting 'orthorhombic'
loop_
_space_group_symop_operation_xyz
x,y,z
1/2-x,1/2-y,1/2+z
1/2+x,1/2-y,-z
-x,y,1/2-z
-x,-y,-z
1/2+x,1/2+y,1/2-z
1/2-x,1/2+y,z
x,-y,1/2+z
loop_
_atom_site_type_symbol
_atom_site_label
_atom_site_fract_x
_atom_site_fract_y
_atom_site_fract_z
Si Si1 0.843473 0.449972 0.344472
Si Si2 0.316711 0.319883 0.059787
Si Si3 0.055083 0.251793 0.459157
Si Si4 0.750819 0.512847 0.089826
Si Si5 0.959877 0.430170 0.895281
Si Si6 0.596593 0.758256 0.379054
Si Si7 0.283943 0.319743 0.422897
O O1 0.776821 0.481989 0.257612
O O2 0.821016 0.458980 0.519315
O O3 0.901706 0.516589 0.315355
O O4 0.873915 0.353697 0.334747
O O5 0.292415 0.317176 0.237499
O O6 0.395957 0.304295 0.065431
O O7 0.296608 0.406592 0.960267
O O8 0.278669 0.239799 0.974143
O O9 0.068620 0.353432 0.498890
O O10 0.079168 0.222184 0.289943
O O11 0.974890 0.252084 0.463843
O O12 0.724855 0.420249 0.028095
O O13 0.000000 0.392032 0.750000
O O14 0.000000 0.500000 0.000000
O O15 0.652325 0.715745 0.485356
#
# Coordination Sequence:
#
# PCOD9458510 Si02
#       7
#     8   8   8   8   8   8   8
#     4  12  23  41  66 100 140 181 233 288 358 427
#     4  12  27  44  69 106 140 191 240 292 368 434
#     4  11  26  43  66 101 147 182 234 292 355 433
#     4  12  26  44  67 102 141 185 236 301 355 425
#     4  12  24  38  65 100 145 192 231 284 364 438
#     4  11  24  46  70 101 138 185 234 296 359 423
#     4  12  26  46  72 102 140 188 244 302 356 429
#
# _framework density 20.957836
#
# number of rings (size 3 to 8) (size 9 to 14) (size 15 to 20)
#    0.000    0.286    4.286    5.143    8.000    0.000 
#    0.000    0.714    0.000    0.000    0.000    0.000 
#    0.000    0.000    0.000    0.000    0.000    0.000 
#
# Total GULP energy -312079.230300 kJ/mol
# GULP energy per Si atom -5572.843398 kJ/mol
# Density = 2.091014 g / cm^3
# Si number density = 20.957836 Si / 1000 Ang^3
#
#
#
# Elastic Constant Matrix: (Units=GPa)
#
#
# Indices 1 2 3 4 5 6 
#
# 1 102.4294 54.0391 43.0198 0.0000 0.0000 0.0000
# 2 54.0391 104.4338 12.0628 0.0000 0.0000 0.0000
# 3 43.0198 12.0628 66.8935 0.0000 0.0000 0.0000
# 4 0.0000 0.0000 0.0000 28.1329 0.0000 0.0000
# 5 0.0000 0.0000 0.0000 0.0000 44.0477 0.0000
# 6 0.0000 0.0000 0.0000 0.0000 0.0000 43.0244
#
#
#
# Elastic Compliance Matrix: (Units=1/GPa)
#
#
# Indices 1 2 3 4 5 6 
#
# 1 0.018582 -0.008410 -0.010433 0.000000 0.000000 0.000000
# 2 -0.008410 0.013585 0.002959 0.000000 0.000000 0.000000
# 3 -0.010433 0.002959 0.021125 0.000000 0.000000 0.000000
# 4 0.000000 0.000000 0.000000 0.035546 0.000000 0.000000
# 5 0.000000 0.000000 0.000000 0.000000 0.022703 0.000000
# 6 0.000000 0.000000 0.000000 0.000000 0.000000 0.023243
#
#
# Mechanical properties :
#
#
# Convention : Reuss Voigt Hill
#
# Bulk Modulus (GPa) = 46.46183 54.66666 50.56424
# Shear Modulus (GPa) = 28.78074 34.01666 31.39870
#
# Velocity S-wave (km/s) = 3.70978 4.03314 3.87484
# Velocity P-wave (km/s) = 6.36925 6.91586 6.64817
#
# Compressibility (1/GPa) = 0.02152305
#
# Stress axis : x y z
#
# Youngs Moduli (GPa) = 53.81641 73.60846 47.33620
#
# Poissons Ratio (x) = 0.61904 0.49388
# Poissons Ratio (y) = 0.45259 -0.14005
# Poissons Ratio (z) = 0.56149 -0.21778
#
# Static dielectric constant tensor:
#      x y z
#    x 1.793950 0.000000 0.000000 
#    y 0.000000 1.836100 0.000000 
#    z 0.000000 0.000000 2.277620 
# 
# From -- ./inp_files/7425.got.cif
#   From: 2010.05.17/outbox.cif.g08.bks.cpg/sg60_4_cif.got.tgz:7425.got - 2010.06.03 14:59:27.
