data_PCOD9458326
_publ_section_title
;
Structure prediction by ZEFSAII (Michael W. Deem and Ramdas Pophale) SiO2 
 PCOD9458326
Probable space group: P B C N
;
_chemical_formula_sum "Si O2"
_cell_formula_units_Z 48
_cell_length_a 8.385459
_cell_length_b 14.385809
_cell_length_c 18.847202
_cell_angle_alpha 90.000000
_cell_angle_beta 90.000000
_cell_angle_gamma 90.000000
_cell_volume 2273.568350
_symmetry_space_group_name_H-M "P B C N"
_symmetry_group_IT_number 60
_symmetry_cell_setting 'orthorhombic'
loop_
_space_group_symop_operation_xyz
x,y,z
1/2-x,1/2-y,1/2+z
1/2+x,1/2-y,-z
-x,y,1/2-z
-x,-y,-z
1/2+x,1/2+y,1/2-z
1/2-x,1/2+y,z
x,-y,1/2+z
loop_
_atom_site_type_symbol
_atom_site_label
_atom_site_fract_x
_atom_site_fract_y
_atom_site_fract_z
Si Si1 0.362262 0.518228 0.338407
Si Si2 0.830639 0.405494 0.270099
Si Si3 0.871482 0.437030 0.538917
Si Si4 0.348364 0.413095 0.093445
Si Si5 0.964607 0.291834 0.865091
Si Si6 0.259121 0.694600 0.257465
O O1 0.312862 0.446983 0.276517
O O2 0.214332 0.518504 0.392938
O O3 0.516899 0.486879 0.382501
O O4 0.363917 0.618140 0.298810
O O5 0.795994 0.424925 0.351560
O O6 0.832966 0.295384 0.256001
O O7 0.000000 0.448427 0.250000
O O8 0.726836 0.416899 0.484358
O O9 0.000000 0.500000 0.500000
O O10 0.971315 0.349915 0.568632
O O11 0.418225 0.311091 0.110098
O O12 0.818235 0.334638 0.818556
O O13 0.111213 0.288217 0.810460
#
# Coordination Sequence:
#
# PCOD9458326 Si02
#       6
#     8   8   8   8   8   8
#     4  11  23  41  71  94 134 174 221 276 334 393
#     4  11  23  40  65  98 130 169 224 274 334 391
#     4  11  25  42  62 101 137 176 222 269 337 401
#     4  11  23  44  67  97 134 181 218 278 336 407
#     4   9  20  42  65  91 132 176 218 274 332 394
#     4   9  20  40  66  97 125 167 229 277 326 391
#
# _framework density 21.112189000000001
#
# number of rings (size 3 to 8) (size 9 to 14) (size 15 to 20)
#    0.000    1.667    1.667    2.000    7.000    2.667 
#    9.000    0.000    0.000    0.000    0.000    0.000 
#    0.000    0.000    0.000    0.000    0.000    0.000 
#
# Total GULP energy -268099.101386 kJ/mol
# GULP energy per Si atom -5585.397946 kJ/mol
# Density = 2.106414 g / cm^3
# Si number density = 21.112189 Si / 1000 Ang^3
#
#
#
# Elastic Constant Matrix: (Units=GPa)
#
#
# Indices 1 2 3 4 5 6 
#
# 1 41.8222 11.7045 25.2711 0.0000 0.0000 0.0000
# 2 11.7045 70.3242 24.3057 0.0000 0.0000 0.0000
# 3 25.2711 24.3057 99.2402 0.0000 0.0000 0.0000
# 4 0.0000 0.0000 0.0000 23.8037 0.0000 0.0000
# 5 0.0000 0.0000 0.0000 0.0000 45.5111 0.0000
# 6 0.0000 0.0000 0.0000 0.0000 0.0000 19.5317
#
#
#
# Elastic Compliance Matrix: (Units=1/GPa)
#
#
# Indices 1 2 3 4 5 6 
#
# 1 0.028641 -0.002454 -0.006692 0.000000 0.000000 0.000000
# 2 -0.002454 0.015745 -0.003231 0.000000 0.000000 0.000000
# 3 -0.006692 -0.003231 0.012572 0.000000 0.000000 0.000000
# 4 0.000000 0.000000 0.000000 0.042010 0.000000 0.000000
# 5 0.000000 0.000000 0.000000 0.000000 0.021973 0.000000
# 6 0.000000 0.000000 0.000000 0.000000 0.000000 0.051199
#
#
# Mechanical properties :
#
#
# Convention : Reuss Voigt Hill
#
# Bulk Modulus (GPa) = 31.05272 37.10546 34.07909
# Shear Modulus (GPa) = 24.08125 27.77631 25.92878
#
# Velocity S-wave (km/s) = 3.38099 3.63113 3.50829
# Velocity P-wave (km/s) = 5.47556 5.93242 5.70857
#
# Compressibility (1/GPa) = 0.03220330
#
# Stress axis : x y z
#
# Youngs Moduli (GPa) = 34.91448 63.51177 79.54079
#
# Poissons Ratio (x) = 0.15585 0.53232
# Poissons Ratio (y) = 0.08568 0.25703
# Poissons Ratio (z) = 0.23366 0.20523
#
# Static dielectric constant tensor:
#      x y z
#    x 1.776820 0.000000 0.000000 
#    y 0.000000 1.762400 0.000000 
#    z 0.000000 0.000000 1.743320 
# 
# From -- ./inp_files/19301.got.cif
#   From: 2010.05.17/outbox.cif.g08.bks.cpg/sg60_10_cif.got.tgz:19301.got - 2010.06.03 14:59:27.
