data_PCOD9458008
_publ_section_title
;
Structure prediction by ZEFSAII (Michael W. Deem and Ramdas Pophale) SiO2 
 PCOD9458008
Probable space group: P B C N
;
_chemical_formula_sum "Si O2"
_cell_formula_units_Z 52
_cell_length_a 11.605146
_cell_length_b 18.201368
_cell_length_c 13.826937
_cell_angle_alpha 90.000000
_cell_angle_beta 90.000000
_cell_angle_gamma 90.000000
_cell_volume 2920.657446
_symmetry_space_group_name_H-M "P B C N"
_symmetry_group_IT_number 60
_symmetry_cell_setting 'orthorhombic'
loop_
_space_group_symop_operation_xyz
x,y,z
1/2-x,1/2-y,1/2+z
1/2+x,1/2-y,-z
-x,y,1/2-z
-x,-y,-z
1/2+x,1/2+y,1/2-z
1/2-x,1/2+y,z
x,-y,1/2+z
loop_
_atom_site_type_symbol
_atom_site_label
_atom_site_fract_x
_atom_site_fract_y
_atom_site_fract_z
Si Si1 0.020590 0.347389 0.134955
Si Si2 0.901655 0.810281 0.926886
Si Si3 0.798489 0.597966 0.515798
Si Si4 0.779267 0.464752 0.377661
Si Si5 0.000000 0.891655 0.750000
Si Si6 0.459070 0.422618 0.048703
Si Si7 0.640743 0.524329 0.677157
O O1 0.075053 0.275290 0.085315
O O2 0.111001 0.413438 0.129445
O O3 0.000000 0.333173 0.250000
O O4 0.907514 0.370833 0.074032
O O5 0.919898 0.845066 0.820658
O O6 0.782246 0.836588 0.974833
O O7 0.997406 0.852236 0.991197
O O8 0.815607 0.542130 0.425826
O O9 0.726853 0.548377 0.592152
O O10 0.676968 0.427822 0.440188
O O11 0.715491 0.470695 0.274431
O O12 0.082089 0.944290 0.813784
O O13 0.529458 0.425396 0.149825
O O14 0.500000 0.500000 0.000000
#
# Coordination Sequence:
#
# PCOD9458008 Si02
#       7
#     8   8   8   8   4   8   8
#     4  12  27  41  59  91 131 178 204 256 328 396
#     4  11  23  38  61  89 127 159 210 264 315 377
#     4  11  23  43  61  91 124 165 218 258 308 384
#     4  12  21  39  65  89 123 165 209 259 316 370
#     4  12  16  34  64  98 116 152 208 270 314 352
#     4  11  18  35  62  95 118 153 211 265 308 358
#     4  11  18  33  64  94 117 151 212 265 304 358
#
# _framework density 17.804210999999999
#
# number of rings (size 3 to 8) (size 9 to 14) (size 15 to 20)
#    0.000    0.615   10.000    0.462    2.154    0.000 
#    0.000    0.000    0.000    0.000    0.000    0.000 
#    0.000    0.000    0.000    0.000    0.000    0.000 
#
# Total GULP energy -289681.638087 kJ/mol
# GULP energy per Si atom -5570.800732 kJ/mol
# Density = 1.776369 g / cm^3
# Si number density = 17.804211 Si / 1000 Ang^3
#
#
#
# Elastic Constant Matrix: (Units=GPa)
#
#
# Indices 1 2 3 4 5 6 
#
# 1 113.2837 48.5499 45.0139 0.0000 0.0000 0.0000
# 2 48.5499 96.3812 41.5466 0.0000 0.0000 0.0000
# 3 45.0139 41.5466 103.8629 0.0000 0.0000 0.0000
# 4 0.0000 0.0000 0.0000 24.6141 0.0000 0.0000
# 5 0.0000 0.0000 0.0000 0.0000 35.6668 0.0000
# 6 0.0000 0.0000 0.0000 0.0000 0.0000 26.1956
#
#
#
# Elastic Compliance Matrix: (Units=1/GPa)
#
#
# Indices 1 2 3 4 5 6 
#
# 1 0.012183 -0.004665 -0.003414 0.000000 0.000000 0.000000
# 2 -0.004665 0.014324 -0.003708 0.000000 0.000000 0.000000
# 3 -0.003414 -0.003708 0.012591 0.000000 0.000000 0.000000
# 4 0.000000 0.000000 0.000000 0.040627 0.000000 0.000000
# 5 0.000000 0.000000 0.000000 0.000000 0.028037 0.000000
# 6 0.000000 0.000000 0.000000 0.000000 0.000000 0.038174
#
#
# Mechanical properties :
#
#
# Convention : Reuss Voigt Hill
#
# Bulk Modulus (GPa) = 64.41763 64.86095 64.63929
# Shear Modulus (GPa) = 28.62280 29.18980 28.90630
#
# Velocity S-wave (km/s) = 4.01389 4.05345 4.03372
# Velocity P-wave (km/s) = 7.59878 7.64307 7.62096
#
# Compressibility (1/GPa) = 0.01552370
#
# Stress axis : x y z
#
# Youngs Moduli (GPa) = 82.07851 69.81354 79.42271
#
# Poissons Ratio (x) = 0.32571 0.27115
# Poissons Ratio (y) = 0.38294 0.29448
# Poissons Ratio (z) = 0.28022 0.25885
#
# Static dielectric constant tensor:
#      x y z
#    x 1.622230 0.000000 0.000000 
#    y 0.000000 1.581070 0.000000 
#    z 0.000000 0.000000 1.704810 
# 
# From -- ./inp_files/16280.got.cif
#   From: 2010.05.17/outbox.cif.g08.bks.cpg/sg60_9_cif.got.tgz:16280.got - 2010.06.03 14:59:27.
