data_PCOD9458549
_publ_section_title
;
Structure prediction by ZEFSAII (Michael W. Deem and Ramdas Pophale) SiO2 
 PCOD9458549
Probable space group: P B C N
;
_chemical_formula_sum "Si O2"
_cell_formula_units_Z 56
_cell_length_a 5.180785
_cell_length_b 18.498853
_cell_length_c 27.421124
_cell_angle_alpha 90.000000
_cell_angle_beta 90.000000
_cell_angle_gamma 90.000000
_cell_volume 2628.001590
_symmetry_space_group_name_H-M "P B C N"
_symmetry_group_IT_number 60
_symmetry_cell_setting 'orthorhombic'
loop_
_space_group_symop_operation_xyz
x,y,z
1/2-x,1/2-y,1/2+z
1/2+x,1/2-y,-z
-x,y,1/2-z
-x,-y,-z
1/2+x,1/2+y,1/2-z
1/2-x,1/2+y,z
x,-y,1/2+z
loop_
_atom_site_type_symbol
_atom_site_label
_atom_site_fract_x
_atom_site_fract_y
_atom_site_fract_z
Si Si1 0.249553 0.883206 0.220546
Si Si2 0.236080 0.789329 0.607908
Si Si3 0.247578 0.207216 0.220706
Si Si4 0.717235 0.059037 0.558275
Si Si5 0.218410 0.878498 0.107275
Si Si6 0.478037 0.093846 0.458550
Si Si7 0.122263 0.785049 0.976955
O O1 0.500000 0.908235 0.250000
O O2 0.253159 0.795199 0.221416
O O3 0.235935 0.902186 0.163726
O O4 0.000000 0.907717 0.250000
O O5 0.228925 0.812086 0.663972
O O6 0.343799 0.707359 0.605407
O O7 0.394339 0.848663 0.577713
O O8 0.962888 0.782475 0.579499
O O9 0.500000 0.183340 0.250000
O O10 0.000000 0.181398 0.250000
O O11 0.498120 0.107848 0.583834
O O12 0.679798 0.070018 0.500193
O O13 0.993875 0.078570 0.579671
O O14 0.635868 0.976234 0.567242
O O15 0.245537 0.136702 0.484938
O O16 0.857915 0.766658 0.005940
#
# Coordination Sequence:
#
# PCOD9458549 Si02
#       7
#     8   8   8   8   8   8   8
#     4   9  17  35  61  92 129 161 206 271 338 386
#     4  11  26  40  72 101 131 175 227 281 344 384
#     4   9  20  37  60  95 132 162 209 274 336 399
#     4  11  28  44  63  92 140 183 224 266 338 404
#     4  11  25  40  67 102 128 171 226 283 326 398
#     4  11  28  45  65  93 138 188 220 271 339 408
#     4  12  26  40  66 100 133 170 220 280 325 392
#
# _framework density 21.308966999999999
#
# number of rings (size 3 to 8) (size 9 to 14) (size 15 to 20)
#    0.000    1.429    1.429    1.714   12.000    3.429 
#    0.000    0.000    0.000    3.429    0.000    0.000 
#    0.000    0.000    0.000    0.000    0.000    0.000 
#
# Total GULP energy -313124.209765 kJ/mol
# GULP energy per Si atom -5591.503746 kJ/mol
# Density = 2.126047 g / cm^3
# Si number density = 21.308967 Si / 1000 Ang^3
#
#
#
# Elastic Constant Matrix: (Units=GPa)
#
#
# Indices 1 2 3 4 5 6 
#
# 1 141.8876 11.5260 56.2881 0.0000 0.0000 0.0000
# 2 11.5260 81.5326 13.7386 0.0000 0.0000 0.0000
# 3 56.2881 13.7386 144.4263 0.0000 0.0000 0.0000
# 4 0.0000 0.0000 0.0000 12.1235 0.0000 0.0000
# 5 0.0000 0.0000 0.0000 0.0000 29.8250 0.0000
# 6 0.0000 0.0000 0.0000 0.0000 0.0000 13.6824
#
#
#
# Elastic Compliance Matrix: (Units=1/GPa)
#
#
# Indices 1 2 3 4 5 6 
#
# 1 0.008370 -0.000644 -0.003201 0.000000 0.000000 0.000000
# 2 -0.000644 0.012514 -0.000939 0.000000 0.000000 0.000000
# 3 -0.003201 -0.000939 0.008261 0.000000 0.000000 0.000000
# 4 0.000000 0.000000 0.000000 0.082485 0.000000 0.000000
# 5 0.000000 0.000000 0.000000 0.000000 0.033529 0.000000
# 6 0.000000 0.000000 0.000000 0.000000 0.000000 0.073087
#
#
# Mechanical properties :
#
#
# Convention : Reuss Voigt Hill
#
# Bulk Modulus (GPa) = 51.08108 58.99466 55.03787
# Shear Modulus (GPa) = 21.33661 30.21243 25.77452
#
# Velocity S-wave (km/s) = 3.16776 3.76949 3.48165
# Velocity P-wave (km/s) = 6.11582 6.83307 6.48437
#
# Compressibility (1/GPa) = 0.01957672
#
# Stress axis : x y z
#
# Youngs Moduli (GPa) = 119.47536 79.90818 121.05383
#
# Poissons Ratio (x) = 0.05145 0.38747
# Poissons Ratio (y) = 0.07693 0.11373
# Poissons Ratio (z) = 0.38242 0.07507
#
# Static dielectric constant tensor:
#      x y z
#    x 1.771130 0.000000 0.000000 
#    y 0.000000 1.778660 0.000000 
#    z 0.000000 0.000000 1.789320 
# 
# From -- ./inp_files/25021.got.cif
#   From: 2010.05.17/outbox.cif.g08.bks.cpg/sg60_13_cif.got.tgz:25021.got - 2010.06.03 14:59:27.
