data_PCOD9458286
_publ_section_title
;
Structure prediction by ZEFSAII (Michael W. Deem and Ramdas Pophale) SiO2 
 PCOD9458286
Probable space group: P B C N
;
_chemical_formula_sum "Si O2"
_cell_formula_units_Z 40
_cell_length_a 17.892301
_cell_length_b 12.715516
_cell_length_c 7.027960
_cell_angle_alpha 90.000000
_cell_angle_beta 90.000000
_cell_angle_gamma 90.000000
_cell_volume 1598.930053
_symmetry_space_group_name_H-M "P B C N"
_symmetry_group_IT_number 60
_symmetry_cell_setting 'orthorhombic'
loop_
_space_group_symop_operation_xyz
x,y,z
1/2-x,1/2-y,1/2+z
1/2+x,1/2-y,-z
-x,y,1/2-z
-x,-y,-z
1/2+x,1/2+y,1/2-z
1/2-x,1/2+y,z
x,-y,1/2+z
loop_
_atom_site_type_symbol
_atom_site_label
_atom_site_fract_x
_atom_site_fract_y
_atom_site_fract_z
Si Si1 0.469760 0.786013 0.031959
Si Si2 0.080276 0.920393 0.657648
Si Si3 0.828514 0.877477 0.479530
Si Si4 0.631734 0.153764 0.429674
Si Si5 0.835502 0.422457 0.352528
O O1 0.500000 0.779879 0.250000
O O2 0.439267 0.667844 0.998862
O O3 0.542997 0.824916 0.924945
O O4 0.403041 0.868309 0.033195
O O5 0.000000 0.947111 0.750000
O O6 0.121556 0.025936 0.596153
O O7 0.136650 0.865775 0.809047
O O8 0.835188 0.766125 0.372650
O O9 0.742911 0.908282 0.457254
O O10 0.661238 0.130286 0.644272
O O11 0.650520 0.045961 0.327248
#
# Coordination Sequence:
#
# PCOD9458286 Si02
#       5
#     8   8   8   8   8
#     4   9  19  43  71  88 134 179 215 268 333 394
#     4  11  22  45  69  96 138 179 224 280 332 403
#     4  12  25  42  71 101 136 175 227 283 341 394
#     4  11  24  46  66 101 133 183 221 274 338 405
#     4  11  24  42  69  96 139 168 223 280 336 393
#
# _framework density 25.016729999999999
#
# number of rings (size 3 to 8) (size 9 to 14) (size 15 to 20)
#    0.000    1.200    6.000    2.400    2.800    1.600 
#    3.600    3.000    0.000    0.000    0.000    0.000 
#    0.000    0.000    0.000    0.000    0.000    0.000 
#
# Total GULP energy -224002.523989 kJ/mol
# GULP energy per Si atom -5600.063100 kJ/mol
# Density = 2.495979 g / cm^3
# Si number density = 25.016730 Si / 1000 Ang^3
#
#
#
# Elastic Constant Matrix: (Units=GPa)
#
#
# Indices 1 2 3 4 5 6 
#
# 1 205.5796 104.2973 37.7055 0.0000 0.0000 0.0000
# 2 104.2973 235.6134 25.9647 0.0000 0.0000 0.0000
# 3 37.7055 25.9647 32.6416 0.0000 0.0000 0.0000
# 4 0.0000 0.0000 0.0000 29.4390 0.0000 0.0000
# 5 0.0000 0.0000 0.0000 0.0000 28.8882 0.0000
# 6 0.0000 0.0000 0.0000 0.0000 0.0000 24.9193
#
#
#
# Elastic Compliance Matrix: (Units=1/GPa)
#
#
# Indices 1 2 3 4 5 6 
#
# 1 0.007335 -0.002535 -0.006456 0.000000 0.000000 0.000000
# 2 -0.002535 0.005528 -0.001469 0.000000 0.000000 0.000000
# 3 -0.006456 -0.001469 0.039261 0.000000 0.000000 0.000000
# 4 0.000000 0.000000 0.000000 0.033969 0.000000 0.000000
# 5 0.000000 0.000000 0.000000 0.000000 0.034616 0.000000
# 6 0.000000 0.000000 0.000000 0.000000 0.000000 0.040130
#
#
# Mechanical properties :
#
#
# Convention : Reuss Voigt Hill
#
# Bulk Modulus (GPa) = 32.04670 89.97441 61.01056
# Shear Modulus (GPa) = 26.01996 37.04044 31.53020
#
# Velocity S-wave (km/s) = 3.22856 3.85207 3.55401
# Velocity P-wave (km/s) = 5.17069 7.47184 6.42512
#
# Compressibility (1/GPa) = 0.03120446
#
# Stress axis : x y z
#
# Youngs Moduli (GPa) = 136.33992 180.88376 25.47030
#
# Poissons Ratio (x) = 0.45860 0.16443
# Poissons Ratio (y) = 0.34567 0.03741
# Poissons Ratio (z) = 0.88018 0.26570
#
# Static dielectric constant tensor:
#      x y z
#    x 1.892430 0.000000 0.000000 
#    y 0.000000 1.946860 0.000000 
#    z 0.000000 0.000000 2.109850 
# 
# From -- ./inp_files/5669.got.cif
#   From: 2010.05.17/outbox.cif.g08.bks.cpg/sg60_3_cif.got.tgz:5669.got - 2010.06.03 14:59:27.
