data_PCOD9458193
_publ_section_title
;
Structure prediction by ZEFSAII (Michael W. Deem and Ramdas Pophale) SiO2 
 PCOD9458193
Probable space group: P B C N
;
_chemical_formula_sum "Si O2"
_cell_formula_units_Z 48
_cell_length_a 19.041217
_cell_length_b 9.304540
_cell_length_c 11.353871
_cell_angle_alpha 90.000000
_cell_angle_beta 90.000000
_cell_angle_gamma 90.000000
_cell_volume 2011.562659
_symmetry_space_group_name_H-M "P B C N"
_symmetry_group_IT_number 60
_symmetry_cell_setting 'orthorhombic'
loop_
_space_group_symop_operation_xyz
x,y,z
1/2-x,1/2-y,1/2+z
1/2+x,1/2-y,-z
-x,y,1/2-z
-x,-y,-z
1/2+x,1/2+y,1/2-z
1/2-x,1/2+y,z
x,-y,1/2+z
loop_
_atom_site_type_symbol
_atom_site_label
_atom_site_fract_x
_atom_site_fract_y
_atom_site_fract_z
Si Si1 0.960969 0.526761 0.874615
Si Si2 0.213658 0.509286 0.977650
Si Si3 0.619085 0.246724 0.278910
Si Si4 0.837958 0.043335 0.374356
Si Si5 0.221397 0.783634 0.820243
Si Si6 0.096034 0.265059 0.977291
O O1 0.904194 0.394730 0.853205
O O2 0.000000 0.526337 0.750000
O O3 0.947312 0.694311 0.907159
O O4 0.000000 0.500000 0.000000
O O5 0.199948 0.657557 0.910068
O O6 0.268276 0.425158 0.896155
O O7 0.147973 0.403183 0.979686
O O8 0.254898 0.513645 0.100800
O O9 0.619005 0.400357 0.343983
O O10 0.700956 0.243006 0.235455
O O11 0.572743 0.245356 0.158233
O O12 0.833793 0.169908 0.277648
O O13 0.865277 0.119206 0.491724
#
# Coordination Sequence:
#
# PCOD9458193 Si02
#       6
#     8   8   8   8   8   8
#     4  12  27  52  78  99 133 185 252 321 375 425
#     4  11  22  38  61 103 151 188 225 276 344 449
#     4  11  24  44  68 102 145 185 236 303 349 437
#     4  12  22  40  64 101 148 188 225 277 366 442
#     4  11  22  37  61 102 149 189 223 271 349 437
#     4  11  25  43  68 106 138 188 246 293 362 438
#
# _framework density 23.862044999999998
#
# number of rings (size 3 to 8) (size 9 to 14) (size 15 to 20)
#    0.000    0.667    6.667    2.000    7.000    0.000 
#    3.000    1.667    0.000    0.000    0.000    0.000 
#    0.000    0.000    0.000    0.000    0.000    0.000 
#
# Total GULP energy -267370.878998 kJ/mol
# GULP energy per Si atom -5570.226646 kJ/mol
# Density = 2.380773 g / cm^3
# Si number density = 23.862045 Si / 1000 Ang^3
#
#
#
# Elastic Constant Matrix: (Units=GPa)
#
#
# Indices 1 2 3 4 5 6 
#
# 1 17.1126 21.0515 16.2212 0.0000 0.0000 0.0000
# 2 21.0515 85.2518 55.6833 0.0000 0.0000 0.0000
# 3 16.2212 55.6833 121.3686 0.0000 0.0000 0.0000
# 4 0.0000 0.0000 0.0000 10.9884 0.0000 0.0000
# 5 0.0000 0.0000 0.0000 0.0000 29.5084 0.0000
# 6 0.0000 0.0000 0.0000 0.0000 0.0000 26.6834
#
#
#
# Elastic Compliance Matrix: (Units=1/GPa)
#
#
# Indices 1 2 3 4 5 6 
#
# 1 0.084442 -0.019248 -0.002455 0.000000 0.000000 0.000000
# 2 -0.019248 0.021137 -0.007125 0.000000 0.000000 0.000000
# 3 -0.002455 -0.007125 0.011836 0.000000 0.000000 0.000000
# 4 0.000000 0.000000 0.000000 0.091005 0.000000 0.000000
# 5 0.000000 0.000000 0.000000 0.000000 0.033889 0.000000
# 6 0.000000 0.000000 0.000000 0.000000 0.000000 0.037477
#
#
# Mechanical properties :
#
#
# Convention : Reuss Voigt Hill
#
# Bulk Modulus (GPa) = 16.73382 45.51611 31.12496
# Shear Modulus (GPa) = 13.99149 22.15451 18.07300
#
# Velocity S-wave (km/s) = 2.42409 3.05034 2.75507
# Velocity P-wave (km/s) = 3.85525 5.61446 4.81586
#
# Compressibility (1/GPa) = 0.05975923
#
# Stress axis : x y z
#
# Youngs Moduli (GPa) = 11.84245 47.31135 84.48584
#
# Poissons Ratio (x) = 0.91065 0.20741
# Poissons Ratio (y) = 0.22794 0.60195
# Poissons Ratio (z) = 0.02907 0.33708
#
# Static dielectric constant tensor:
#      x y z
#    x 2.159300 0.000000 0.000000 
#    y 0.000000 2.347280 0.000000 
#    z 0.000000 0.000000 2.511290 
# 
# From -- ./inp_files/13070.got.cif
#   From: 2010.05.17/outbox.cif.g08.bks.cpg/sg60_7_cif.got.tgz:13070.got - 2010.06.03 14:59:27.
