data_PCOD9458799
_publ_section_title
;
Structure prediction by ZEFSAII (Michael W. Deem and Ramdas Pophale) SiO2 
 PCOD9458799
Probable space group: P B C N
;
_chemical_formula_sum "Si O2"
_cell_formula_units_Z 32
_cell_length_a 11.166223
_cell_length_b 14.260697
_cell_length_c 8.445542
_cell_angle_alpha 90.000000
_cell_angle_beta 90.000000
_cell_angle_gamma 90.000000
_cell_volume 1344.852254
_symmetry_space_group_name_H-M "P B C N"
_symmetry_group_IT_number 60
_symmetry_cell_setting 'orthorhombic'
loop_
_space_group_symop_operation_xyz
x,y,z
1/2-x,1/2-y,1/2+z
1/2+x,1/2-y,-z
-x,y,1/2-z
-x,-y,-z
1/2+x,1/2+y,1/2-z
1/2-x,1/2+y,z
x,-y,1/2+z
loop_
_atom_site_type_symbol
_atom_site_label
_atom_site_fract_x
_atom_site_fract_y
_atom_site_fract_z
Si Si1 0.748221 0.623771 0.402308
Si Si2 0.237220 0.296298 0.938023
Si Si3 0.590600 0.560170 0.891841
Si Si4 0.499002 0.105230 0.558526
O O1 0.731439 0.682003 0.242452
O O2 0.692510 0.688948 0.538347
O O3 0.697493 0.519478 0.370238
O O4 0.882956 0.637455 0.465978
O O5 0.345592 0.348226 0.034482
O O6 0.120380 0.351498 0.991140
O O7 0.500000 0.583123 0.750000
O O8 0.500000 0.500000 0.000000
O O9 0.500000 0.114902 0.750000
O O10 0.500000 0.000000 0.500000
#
# Coordination Sequence:
#
# PCOD9458799 Si02
#       4
#     8   8   8   8
#     4  12  28  48  76 112 149 199 250 309 378 447
#     4  12  28  48  76 110 150 196 250 310 378 449
#     4  12  28  49  76 106 152 198 251 310 381 451
#     4  12  26  46  74 104 146 191 247 302 368 445
#
# _framework density 23.794436999999999
#
# number of rings (size 3 to 8) (size 9 to 14) (size 15 to 20)
#    0.000    0.000    5.000    3.750   10.500    1.000 
#    0.000    0.000    0.000    0.000    0.000    0.000 
#    0.000    0.000    0.000    0.000    0.000    0.000 
#
# Total GULP energy -178380.262557 kJ/mol
# GULP energy per Si atom -5574.383205 kJ/mol
# Density = 2.374028 g / cm^3
# Si number density = 23.794437 Si / 1000 Ang^3
#
#
#
# Elastic Constant Matrix: (Units=GPa)
#
#
# Indices 1 2 3 4 5 6 
#
# 1 117.5685 2.1083 13.3820 0.0000 0.0000 0.0000
# 2 2.1083 94.5548 -11.9668 0.0000 0.0000 0.0000
# 3 13.3820 -11.9668 85.4168 0.0000 0.0000 0.0000
# 4 0.0000 0.0000 0.0000 47.1972 0.0000 0.0000
# 5 0.0000 0.0000 0.0000 0.0000 54.4724 0.0000
# 6 0.0000 0.0000 0.0000 0.0000 0.0000 209.6753
#
#
#
# Elastic Compliance Matrix: (Units=1/GPa)
#
#
# Indices 1 2 3 4 5 6 
#
# 1 0.008673 -0.000372 -0.001411 0.000000 0.000000 0.000000
# 2 -0.000372 0.010783 0.001569 0.000000 0.000000 0.000000
# 3 -0.001411 0.001569 0.012148 0.000000 0.000000 0.000000
# 4 0.000000 0.000000 0.000000 0.021188 0.000000 0.000000
# 5 0.000000 0.000000 0.000000 0.000000 0.018358 0.000000
# 6 0.000000 0.000000 0.000000 0.000000 0.000000 0.004769
#
#
# Mechanical properties :
#
#
# Convention : Reuss Voigt Hill
#
# Bulk Modulus (GPa) = 32.07591 33.84300 32.95945
# Shear Modulus (GPa) = 57.64453 81.87009 69.75731
#
# Velocity S-wave (km/s) = 4.92734 5.87213 5.42036
# Velocity P-wave (km/s) = 6.77357 7.76079 7.28392
#
# Compressibility (1/GPa) = 0.03117604
#
# Stress axis : x y z
#
# Youngs Moduli (GPa) = 115.30118 92.74084 82.31711
#
# Poissons Ratio (x) = 0.03449 0.11614
# Poissons Ratio (y) = 0.04289 -0.12915
# Poissons Ratio (z) = 0.16268 -0.14550
#
# Static dielectric constant tensor:
#      x y z
#    x 2.562850 0.000000 0.000000 
#    y 0.000000 1.683590 0.000000 
#    z 0.000000 0.000000 1.737950 
# 
# From -- ./inp_files/4546.got.cif
#   From: 2010.05.17/outbox.cif.g08.bks.cpg/sg60_3_cif.got.tgz:4546.got - 2010.06.03 14:59:27.
