data_PCOD9458652
_publ_section_title
;
Structure prediction by ZEFSAII (Michael W. Deem and Ramdas Pophale) SiO2 
 PCOD9458652
Probable space group: P B C N
;
_chemical_formula_sum "Si O2"
_cell_formula_units_Z 20
_cell_length_a 8.167923
_cell_length_b 10.578531
_cell_length_c 8.076064
_cell_angle_alpha 90.000000
_cell_angle_beta 90.000000
_cell_angle_gamma 90.000000
_cell_volume 697.809295
_symmetry_space_group_name_H-M "P B C N"
_symmetry_group_IT_number 60
_symmetry_cell_setting 'orthorhombic'
loop_
_space_group_symop_operation_xyz
x,y,z
1/2-x,1/2-y,1/2+z
1/2+x,1/2-y,-z
-x,y,1/2-z
-x,-y,-z
1/2+x,1/2+y,1/2-z
1/2-x,1/2+y,z
x,-y,1/2+z
loop_
_atom_site_type_symbol
_atom_site_label
_atom_site_fract_x
_atom_site_fract_y
_atom_site_fract_z
Si Si1 0.000000 0.105897 0.750000
Si Si2 0.600693 0.258567 0.576099
Si Si3 0.327864 0.018350 0.341640
O O1 0.009107 0.183488 0.580887
O O2 0.165693 0.025053 0.742165
O O3 0.500000 0.263364 0.750000
O O4 0.758879 0.350521 0.587843
O O5 0.642171 0.110526 0.552390
O O6 0.500000 0.034406 0.250000
#
# Coordination Sequence:
#
# PCOD9458652 Si02
#       3
#     4   8   8
#     4  12  28  54  82 112 182 208 278 354 414 502
#     4  11  28  55  82 123 169 220 278 350 422 502
#     4  11  28  50  84 124 161 223 282 340 426 500
#
# _framework density 28.661125999999999
#
# number of rings (size 3 to 8) (size 9 to 14) (size 15 to 20)
#    0.000    0.800    2.000    1.200   14.000    1.600 
#    0.000    8.000    0.000    0.000    0.000    0.000 
#    0.000    0.000    0.000    0.000    0.000    0.000 
#
# Total GULP energy -112080.763625 kJ/mol
# GULP energy per Si atom -5604.038181 kJ/mol
# Density = 2.859589 g / cm^3
# Si number density = 28.661126 Si / 1000 Ang^3
#
#
#
# Elastic Constant Matrix: (Units=GPa)
#
#
# Indices 1 2 3 4 5 6 
#
# 1 257.6837 112.9838 106.3373 0.0000 0.0000 0.0000
# 2 112.9838 238.8584 85.9160 0.0000 0.0000 0.0000
# 3 106.3373 85.9160 170.7643 0.0000 0.0000 0.0000
# 4 0.0000 0.0000 0.0000 25.0662 0.0000 0.0000
# 5 0.0000 0.0000 0.0000 0.0000 44.3729 0.0000
# 6 0.0000 0.0000 0.0000 0.0000 0.0000 74.3471
#
#
#
# Elastic Compliance Matrix: (Units=1/GPa)
#
#
# Indices 1 2 3 4 5 6 
#
# 1 0.005768 -0.001754 -0.002709 0.000000 0.000000 0.000000
# 2 -0.001754 0.005645 -0.001748 0.000000 0.000000 0.000000
# 3 -0.002709 -0.001748 0.008423 0.000000 0.000000 0.000000
# 4 0.000000 0.000000 0.000000 0.039894 0.000000 0.000000
# 5 0.000000 0.000000 0.000000 0.000000 0.022536 0.000000
# 6 0.000000 0.000000 0.000000 0.000000 0.000000 0.013450
#
#
# Mechanical properties :
#
#
# Convention : Reuss Voigt Hill
#
# Bulk Modulus (GPa) = 134.89559 141.97564 138.43562
# Shear Modulus (GPa) = 45.20418 52.89520 49.04969
#
# Velocity S-wave (km/s) = 3.97570 4.30063 4.14135
# Velocity P-wave (km/s) = 8.26092 8.61998 8.44236
#
# Compressibility (1/GPa) = 0.00741314
#
# Stress axis : x y z
#
# Youngs Moduli (GPa) = 173.38000 177.15234 118.72788
#
# Poissons Ratio (x) = 0.31067 0.32167
# Poissons Ratio (y) = 0.30405 0.20754
# Poissons Ratio (z) = 0.46974 0.30967
#
# Static dielectric constant tensor:
#      x y z
#    x 2.173190 0.000000 0.000000 
#    y 0.000000 2.224690 0.000000 
#    z 0.000000 0.000000 2.320670 
# 
# From -- ./inp_files/3222.got.cif
#   From: 2010.05.17/outbox.cif.g08.bks.cpg/sg60_2_cif.got.tgz:3222.got - 2010.06.03 14:59:27.
