data_PCOD9458263
_publ_section_title
;
Structure prediction by ZEFSAII (Michael W. Deem and Ramdas Pophale) SiO2 
 PCOD9458263
Probable space group: P B C N
;
_chemical_formula_sum "Si O2"
_cell_formula_units_Z 56
_cell_length_a 12.401354
_cell_length_b 10.557258
_cell_length_c 19.666545
_cell_angle_alpha 90.000000
_cell_angle_beta 90.000000
_cell_angle_gamma 90.000000
_cell_volume 2574.828514
_symmetry_space_group_name_H-M "P B C N"
_symmetry_group_IT_number 60
_symmetry_cell_setting 'orthorhombic'
loop_
_space_group_symop_operation_xyz
x,y,z
1/2-x,1/2-y,1/2+z
1/2+x,1/2-y,-z
-x,y,1/2-z
-x,-y,-z
1/2+x,1/2+y,1/2-z
1/2-x,1/2+y,z
x,-y,1/2+z
loop_
_atom_site_type_symbol
_atom_site_label
_atom_site_fract_x
_atom_site_fract_y
_atom_site_fract_z
Si Si1 0.393975 0.532172 0.727851
Si Si2 0.586375 0.105901 0.972946
Si Si3 0.729530 0.051825 0.381401
Si Si4 0.826372 0.604758 0.109812
Si Si5 0.592236 0.391429 0.997241
Si Si6 0.278358 0.640080 0.860186
Si Si7 0.961424 0.709530 0.325885
O O1 0.500000 0.453922 0.750000
O O2 0.301153 0.469803 0.684971
O O3 0.340950 0.602764 0.792054
O O4 0.443834 0.641275 0.680018
O O5 0.647165 0.060010 0.905086
O O6 0.681337 0.104648 0.029235
O O7 0.545988 0.251407 0.975911
O O8 0.500000 0.000000 0.000000
O O9 0.813648 0.081188 0.441915
O O10 0.647813 0.160759 0.358891
O O11 0.747628 0.711648 0.140402
O O12 0.815038 0.463277 0.135470
O O13 0.942513 0.660393 0.127880
O O14 0.650112 0.382659 0.071443
O O15 0.500000 0.500000 0.000000
O O16 0.000000 0.667230 0.250000
#
# Coordination Sequence:
#
# PCOD9458263 Si02
#       7
#     8   8   8   8   8   8   8
#     4  11  23  41  69  96 135 190 236 286 351 430
#     4  11  24  43  69 101 136 180 232 291 357 423
#     4  12  24  43  71 103 144 181 244 296 355 425
#     4  11  22  42  70 100 135 183 232 287 354 421
#     4  11  26  43  69 104 138 187 235 295 358 427
#     4  11  23  43  67 103 137 184 232 287 355 418
#     4  11  22  42  69  98 133 188 238 280 351 429
#
# _framework density 21.749020999999999
#
# number of rings (size 3 to 8) (size 9 to 14) (size 15 to 20)
#    0.000    0.857    5.714    2.571    2.000    2.286 
#    0.000    0.000    0.000    0.000    0.000    0.000 
#    0.000    0.000    0.000    0.000    0.000    0.000 
#
# Total GULP energy -312193.600021 kJ/mol
# GULP energy per Si atom -5574.885715 kJ/mol
# Density = 2.169952 g / cm^3
# Si number density = 21.749021 Si / 1000 Ang^3
#
#
#
# Elastic Constant Matrix: (Units=GPa)
#
#
# Indices 1 2 3 4 5 6 
#
# 1 74.9397 37.1641 5.7710 0.0000 0.0000 0.0000
# 2 37.1641 91.8407 -2.9260 0.0000 0.0000 0.0000
# 3 5.7710 -2.9260 47.6175 0.0000 0.0000 0.0000
# 4 0.0000 0.0000 0.0000 23.8842 0.0000 0.0000
# 5 0.0000 0.0000 0.0000 0.0000 42.0186 0.0000
# 6 0.0000 0.0000 0.0000 0.0000 0.0000 35.7580
#
#
#
# Elastic Compliance Matrix: (Units=1/GPa)
#
#
# Indices 1 2 3 4 5 6 
#
# 1 0.016983 -0.006951 -0.002485 0.000000 0.000000 0.000000
# 2 -0.006951 0.013755 0.001688 0.000000 0.000000 0.000000
# 3 -0.002485 0.001688 0.021406 0.000000 0.000000 0.000000
# 4 0.000000 0.000000 0.000000 0.041869 0.000000 0.000000
# 5 0.000000 0.000000 0.000000 0.000000 0.023799 0.000000
# 6 0.000000 0.000000 0.000000 0.000000 0.000000 0.027966
#
#
# Mechanical properties :
#
#
# Convention : Reuss Voigt Hill
#
# Bulk Modulus (GPa) = 27.28859 32.71292 30.00076
# Shear Modulus (GPa) = 28.82004 31.95806 30.38905
#
# Velocity S-wave (km/s) = 3.64417 3.83744 3.74205
# Velocity P-wave (km/s) = 5.50281 5.89138 5.70040
#
# Compressibility (1/GPa) = 0.03664535
#
# Stress axis : x y z
#
# Youngs Moduli (GPa) = 58.88302 72.70004 46.71668
#
# Poissons Ratio (x) = 0.50537 0.11611
# Poissons Ratio (y) = 0.40932 -0.07884
# Poissons Ratio (z) = 0.14635 -0.12270
#
# Static dielectric constant tensor:
#      x y z
#    x 1.840280 0.000000 0.000000 
#    y 0.000000 1.857730 0.000000 
#    z 0.000000 0.000000 1.609380 
# 
# From -- ./inp_files/22631.got.cif
#   From: 2010.05.17/outbox.cif.g08.bks.cpg/sg60_12_cif.got.tgz:22631.got - 2010.06.03 14:59:27.
