data_PCOD9458322
_publ_section_title
;
Structure prediction by ZEFSAII (Michael W. Deem and Ramdas Pophale) SiO2 
 PCOD9458322
Probable space group: P B C N
;
_chemical_formula_sum "Si O2"
_cell_formula_units_Z 32
_cell_length_a 8.795072
_cell_length_b 19.179003
_cell_length_c 8.279281
_cell_angle_alpha 90.000000
_cell_angle_beta 90.000000
_cell_angle_gamma 90.000000
_cell_volume 1396.555016
_symmetry_space_group_name_H-M "P B C N"
_symmetry_group_IT_number 60
_symmetry_cell_setting 'orthorhombic'
loop_
_space_group_symop_operation_xyz
x,y,z
1/2-x,1/2-y,1/2+z
1/2+x,1/2-y,-z
-x,y,1/2-z
-x,-y,-z
1/2+x,1/2+y,1/2-z
1/2-x,1/2+y,z
x,-y,1/2+z
loop_
_atom_site_type_symbol
_atom_site_label
_atom_site_fract_x
_atom_site_fract_y
_atom_site_fract_z
Si Si1 0.668520 0.344279 0.177183
Si Si2 0.678924 0.483728 0.001521
Si Si3 0.325376 0.091655 0.298274
Si Si4 0.167410 0.777297 0.678320
O O1 0.500000 0.343882 0.250000
O O2 0.711748 0.423362 0.133846
O O3 0.777605 0.301416 0.295439
O O4 0.670814 0.303613 0.005424
O O5 0.776654 0.552494 0.039035
O O6 0.500000 0.500000 0.000000
O O7 0.723601 0.448060 0.834502
O O8 0.500000 0.083163 0.250000
O O9 0.278626 0.171907 0.279977
O O10 0.000000 0.786064 0.750000
#
# Coordination Sequence:
#
# PCOD9458322 Si02
#       4
#     8   8   8   8
#     4  11  23  41  64  94 129 171 223 277 338 411
#     4  11  23  42  67  96 130 176 225 278 341 407
#     4  11  23  40  63  93 129 169 220 277 334 398
#     4  11  24  41  63  91 128 174 219 274 341 408
#
# _framework density 22.913526000000001
#
# number of rings (size 3 to 8) (size 9 to 14) (size 15 to 20)
#    0.000    1.000    0.000    8.250    0.000    5.000 
#    0.000    0.000    0.000    0.000    0.000    0.000 
#    0.000    0.000    0.000    0.000    0.000    0.000 
#
# Total GULP energy -179217.588507 kJ/mol
# GULP energy per Si atom -5600.549641 kJ/mol
# Density = 2.286137 g / cm^3
# Si number density = 22.913526 Si / 1000 Ang^3
#
#
#
# Elastic Constant Matrix: (Units=GPa)
#
#
# Indices 1 2 3 4 5 6 
#
# 1 70.9794 -0.1544 -22.5618 0.0000 0.0000 0.0000
# 2 -0.1544 124.2256 29.5018 0.0000 0.0000 0.0000
# 3 -22.5618 29.5018 53.2957 0.0000 0.0000 0.0000
# 4 0.0000 0.0000 0.0000 50.8458 0.0000 0.0000
# 5 0.0000 0.0000 0.0000 0.0000 37.5151 0.0000
# 6 0.0000 0.0000 0.0000 0.0000 0.0000 26.2523
#
#
#
# Elastic Compliance Matrix: (Units=1/GPa)
#
#
# Indices 1 2 3 4 5 6 
#
# 1 0.016662 -0.001905 0.008108 0.000000 0.000000 0.000000
# 2 -0.001905 0.009486 -0.006057 0.000000 0.000000 0.000000
# 3 0.008108 -0.006057 0.025549 0.000000 0.000000 0.000000
# 4 0.000000 0.000000 0.000000 0.019667 0.000000 0.000000
# 5 0.000000 0.000000 0.000000 0.000000 0.026656 0.000000
# 6 0.000000 0.000000 0.000000 0.000000 0.000000 0.038092
#
#
# Mechanical properties :
#
#
# Convention : Reuss Voigt Hill
#
# Bulk Modulus (GPa) = 19.23538 29.11912 24.17725
# Shear Modulus (GPa) = 32.64791 39.03699 35.84245
#
# Velocity S-wave (km/s) = 3.77879 4.13203 3.95935
# Velocity P-wave (km/s) = 5.23946 5.95825 5.61038
#
# Compressibility (1/GPa) = 0.05198755
#
# Stress axis : x y z
#
# Youngs Moduli (GPa) = 60.01815 105.41811 39.14115
#
# Poissons Ratio (x) = 0.20080 -0.31735
# Poissons Ratio (y) = 0.11432 0.23709
# Poissons Ratio (z) = -0.48661 0.63855
#
# Static dielectric constant tensor:
#      x y z
#    x 1.765520 0.000000 0.000000 
#    y 0.000000 1.850190 0.000000 
#    z 0.000000 0.000000 1.881380 
# 
# From -- ./inp_files/3568.got.cif
#   From: 2010.05.17/outbox.cif.g08.bks.cpg/sg60_2_cif.got.tgz:3568.got - 2010.06.03 14:59:27.
