data_PCOD9458907
_publ_section_title
;
Structure prediction by ZEFSAII (Michael W. Deem and Ramdas Pophale) SiO2 
 PCOD9458907
Probable space group: P B C N
;
_chemical_formula_sum "Si O2"
_cell_formula_units_Z 64
_cell_length_a 9.000000
_cell_length_b 18.000000
_cell_length_c 21.000000
_cell_angle_alpha 90.000000
_cell_angle_beta 90.000000
_cell_angle_gamma 90.000000
_cell_volume 3402.000000
_symmetry_space_group_name_H-M "P B C N"
_symmetry_group_IT_number 60
_symmetry_cell_setting 'orthorhombic'
loop_
_space_group_symop_operation_xyz
x,y,z
1/2-x,1/2-y,1/2+z
1/2+x,1/2-y,-z
-x,y,1/2-z
-x,-y,-z
1/2+x,1/2+y,1/2-z
1/2-x,1/2+y,z
x,-y,1/2+z
loop_
_atom_site_type_symbol
_atom_site_label
_atom_site_fract_x
_atom_site_fract_y
_atom_site_fract_z
Si Si1 0.705668 0.299594 0.431468
Si Si2 0.623630 0.046093 0.923071
Si Si3 0.425786 0.565911 0.381321
Si Si4 0.662816 0.311883 0.279458
Si Si5 0.789868 0.452302 0.046102
Si Si6 0.326552 0.654917 0.267500
Si Si7 0.913074 0.168348 0.486103
Si Si8 0.808666 0.006748 0.801624
O O1 0.791913 0.377607 0.440256
O O2 0.670810 0.297491 0.355620
O O3 0.814827 0.233031 0.453376
O O4 0.554924 0.301598 0.473728
O O5 0.447329 0.060175 0.919396
O O6 0.688513 0.014756 0.857528
O O7 0.663705 0.987821 0.978336
O O8 0.313142 0.510812 0.416713
O O9 0.335707 0.628466 0.341217
O O10 0.525643 0.610610 0.432595
O O11 0.531858 0.514738 0.335170
O O12 0.500000 0.305183 0.250000
O O13 0.749946 0.236187 0.249650
O O14 0.694258 0.405600 0.272896
O O15 0.694283 0.378789 0.032644
O O16 0.500000 0.665311 0.250000
O O17 0.277365 0.573571 0.235139
#
# Coordination Sequence:
#
# PCOD9458907 Si02
#       8
#     8   8   8   8   8   8   8   8
#     4  11  24  41  62  94 132 169 218 271 331 399
#     4  10  21  38  61  93 128 163 211 264 322 391
#     4  11  21  40  67  94 128 175 222 266 334 414
#     4  11  24  43  65  94 127 171 223 276 330 391
#     4  11  21  37  64  94 129 168 207 262 329 396
#     4  10  23  43  66  93 126 177 225 271 333 397
#     4  12  23  40  65  97 134 172 215 272 340 401
#     4  10  21  43  68  90 129 175 223 269 330 395
#
# _framework density 18.812463000000001
#
# number of rings (size 3 to 8) (size 9 to 14) (size 15 to 20)
#    0.000    1.250    2.500    5.250    0.000    2.000 
#    2.250   10.625    0.000    0.000    0.000    0.000 
#    0.000    0.000    0.000    0.000    0.000    0.000 
#
# Total GULP energy -356391.786064 kJ/mol
# GULP energy per Si atom -5568.621657 kJ/mol
# Density = 1.876965 g / cm^3
# Si number density = 18.812463 Si / 1000 Ang^3
#
#
#
# Elastic Constant Matrix: (Units=GPa)
#
#
# Indices 1 2 3 4 5 6 
#
# 1 116.1998 48.1888 26.0625 0.0000 0.0000 0.0000
# 2 48.1888 121.2448 15.1328 0.0000 0.0000 0.0000
# 3 26.0625 15.1328 37.0881 0.0000 0.0000 0.0000
# 4 0.0000 0.0000 0.0000 38.4370 0.0000 0.0000
# 5 0.0000 0.0000 0.0000 0.0000 34.2131 0.0000
# 6 0.0000 0.0000 0.0000 0.0000 0.0000 47.8273
#
#
#
# Elastic Compliance Matrix: (Units=1/GPa)
#
#
# Indices 1 2 3 4 5 6 
#
# 1 0.011678 -0.003811 -0.006651 0.000000 0.000000 0.000000
# 2 -0.003811 0.009934 -0.001375 0.000000 0.000000 0.000000
# 3 -0.006651 -0.001375 0.032198 0.000000 0.000000 0.000000
# 4 0.000000 0.000000 0.000000 0.026017 0.000000 0.000000
# 5 0.000000 0.000000 0.000000 0.000000 0.029229 0.000000
# 6 0.000000 0.000000 0.000000 0.000000 0.000000 0.020909
#
#
# Mechanical properties :
#
#
# Convention : Reuss Voigt Hill
#
# Bulk Modulus (GPa) = 33.18426 50.36676 41.77551
# Shear Modulus (GPa) = 30.54648 36.43872 33.49260
#
# Velocity S-wave (km/s) = 4.03393 4.40585 4.22399
# Velocity P-wave (km/s) = 6.27492 7.26039 6.78557
#
# Compressibility (1/GPa) = 0.03013477
#
# Stress axis : x y z
#
# Youngs Moduli (GPa) = 85.62881 100.66204 31.05784
#
# Poissons Ratio (x) = 0.38366 0.20658
# Poissons Ratio (y) = 0.32636 0.04271
# Poissons Ratio (z) = 0.56955 0.13842
#
# Static dielectric constant tensor:
#      x y z
#    x 1.649840 0.000000 0.000000 
#    y 0.000000 1.681220 0.000000 
#    z 0.000000 0.000000 1.693030 
# 
# From -- ./inp_files/22382.got.cif
#   From: 2010.05.17/outbox.ucp.g08.bks.cvg/sg60_12_cif.got.tgz:22382.got - 2010.06.11 16:26:41.
