data_PCOD9458023
_publ_section_title
;
Structure prediction by ZEFSAII (Michael W. Deem and Ramdas Pophale) SiO2 
 PCOD9458023
Probable space group: P B C N
;
_chemical_formula_sum "Si O2"
_cell_formula_units_Z 40
_cell_length_a 6.616094
_cell_length_b 15.897751
_cell_length_c 17.376919
_cell_angle_alpha 90.000000
_cell_angle_beta 90.000000
_cell_angle_gamma 90.000000
_cell_volume 1827.721978
_symmetry_space_group_name_H-M "P B C N"
_symmetry_group_IT_number 60
_symmetry_cell_setting 'orthorhombic'
loop_
_space_group_symop_operation_xyz
x,y,z
1/2-x,1/2-y,1/2+z
1/2+x,1/2-y,-z
-x,y,1/2-z
-x,-y,-z
1/2+x,1/2+y,1/2-z
1/2-x,1/2+y,z
x,-y,1/2+z
loop_
_atom_site_type_symbol
_atom_site_label
_atom_site_fract_x
_atom_site_fract_y
_atom_site_fract_z
Si Si1 0.628384 0.438911 0.056280
Si Si2 0.491483 0.298495 0.342696
Si Si3 0.365569 0.314523 0.822841
Si Si4 0.428458 0.032214 0.327927
Si Si5 0.252875 0.854929 0.589589
O O1 0.485591 0.385828 0.113287
O O2 0.789772 0.483916 0.111500
O O3 0.500000 0.500000 0.000000
O O4 0.745635 0.374162 0.000319
O O5 0.500000 0.305088 0.250000
O O6 0.267293 0.260701 0.355376
O O7 0.643016 0.230439 0.379851
O O8 0.500000 0.289148 0.750000
O O9 0.206907 0.387599 0.800371
O O10 0.522168 0.351641 0.883247
O O11 0.500000 0.986178 0.250000
O O12 0.621381 0.070117 0.371366
#
# Coordination Sequence:
#
# PCOD9458023 Si02
#       5
#     8   8   8   8   8
#     4  12  28  45  67 105 145 184 228 295 364 416
#     4  11  26  45  69 103 134 179 238 284 345 424
#     4  11  19  42  74 101 130 184 235 283 343 414
#     4  11  23  43  70 103 139 188 233 281 352 425
#     4  11  23  45  72  96 140 181 230 291 345 412
#
# _framework density 21.885169000000001
#
# number of rings (size 3 to 8) (size 9 to 14) (size 15 to 20)
#    0.000    0.800    6.000    1.800    2.800    3.200 
#    3.600    0.000    0.000    0.000    0.000    0.000 
#    0.000    0.000    0.000    0.000    0.000    0.000 
#
# Total GULP energy -223547.302118 kJ/mol
# GULP energy per Si atom -5588.682553 kJ/mol
# Density = 2.183536 g / cm^3
# Si number density = 21.885169 Si / 1000 Ang^3
#
#
#
# Elastic Constant Matrix: (Units=GPa)
#
#
# Indices 1 2 3 4 5 6 
#
# 1 97.6733 25.3443 47.9634 0.0000 0.0000 0.0000
# 2 25.3443 74.9252 74.0275 0.0000 0.0000 0.0000
# 3 47.9634 74.0275 170.3375 0.0000 0.0000 0.0000
# 4 0.0000 0.0000 0.0000 28.8661 0.0000 0.0000
# 5 0.0000 0.0000 0.0000 0.0000 29.5890 0.0000
# 6 0.0000 0.0000 0.0000 0.0000 0.0000 13.9357
#
#
#
# Elastic Compliance Matrix: (Units=1/GPa)
#
#
# Indices 1 2 3 4 5 6 
#
# 1 0.011948 -0.001258 -0.002818 0.000000 0.000000 0.000000
# 2 -0.001258 0.023522 -0.009869 0.000000 0.000000 0.000000
# 3 -0.002818 -0.009869 0.010953 0.000000 0.000000 0.000000
# 4 0.000000 0.000000 0.000000 0.034643 0.000000 0.000000
# 5 0.000000 0.000000 0.000000 0.000000 0.033796 0.000000
# 6 0.000000 0.000000 0.000000 0.000000 0.000000 0.071758
#
#
# Mechanical properties :
#
#
# Convention : Reuss Voigt Hill
#
# Bulk Modulus (GPa) = 53.95009 70.84516 62.39762
# Shear Modulus (GPa) = 22.65648 27.51820 25.08734
#
# Velocity S-wave (km/s) = 3.22101 3.54982 3.38940
# Velocity P-wave (km/s) = 6.20791 7.01735 6.62500
#
# Compressibility (1/GPa) = 0.01853565
#
# Stress axis : x y z
#
# Youngs Moduli (GPa) = 83.69420 42.51278 91.29960
#
# Poissons Ratio (x) = 0.05346 0.25727
# Poissons Ratio (y) = 0.10525 0.90099
# Poissons Ratio (z) = 0.23584 0.41954
#
# Static dielectric constant tensor:
#      x y z
#    x 1.789610 0.000000 0.000000 
#    y 0.000000 1.833430 0.000000 
#    z 0.000000 0.000000 1.827200 
# 
# From -- ./inp_files/18535.got.cif
#   From: 2010.05.17/outbox.cif.g08.bks.cpg/sg60_10_cif.got.tgz:18535.got - 2010.06.03 14:59:27.
