data_PCOD9458998
_publ_section_title
;
Structure prediction by ZEFSAII (Michael W. Deem and Ramdas Pophale) SiO2 
 PCOD9458998
Probable space group: P B C A
;
_chemical_formula_sum "Si O2"
_cell_formula_units_Z 48
_cell_length_a 20.696488
_cell_length_b 12.182957
_cell_length_c 8.110519
_cell_angle_alpha 90.000000
_cell_angle_beta 90.000000
_cell_angle_gamma 90.000000
_cell_volume 2045.022136
_symmetry_space_group_name_H-M "P B C A"
_symmetry_group_IT_number 61
_symmetry_cell_setting 'orthorhombic'
loop_
_space_group_symop_operation_xyz
x,y,z
1/2-x,-y,1/2+z
1/2+x,1/2-y,-z
-x,1/2+y,1/2-z
-x,-y,-z
1/2+x,y,1/2-z
1/2-x,1/2+y,z
x,1/2-y,1/2+z
loop_
_atom_site_type_symbol
_atom_site_label
_atom_site_fract_x
_atom_site_fract_y
_atom_site_fract_z
Si Si1 0.979806 0.895888 0.842574
Si Si2 0.601026 0.022548 0.612795
Si Si3 0.865038 0.144185 0.588770
Si Si4 0.955338 0.231177 0.859740
Si Si5 0.695566 0.033408 0.886982
Si Si6 0.789659 0.354404 0.626535
O O1 0.017938 0.835031 0.989049
O O2 0.913988 0.926774 0.933919
O O3 0.985389 0.807800 0.699520
O O4 0.030991 0.994046 0.808176
O O5 0.646190 0.081070 0.749303
O O6 0.641934 0.912023 0.583049
O O7 0.921477 0.156279 0.722397
O O8 0.897932 0.189903 0.421714
O O9 0.841964 0.024557 0.538401
O O10 0.806532 0.225979 0.639498
O O11 0.728433 0.928944 0.788066
O O12 0.742953 0.117760 0.974636
#
# Coordination Sequence:
#
# PCOD9458998 Si02
#       6
#     8   8   8   8   8   8
#     4  10  18  34  60  78 113 139 187 238 290 330
#     4   9  19  36  53  83 113 144 177 240 290 330
#     4  11  18  36  55  86 109 141 203 230 270 348
#     4  10  17  31  60  84 100 147 189 228 278 343
#     4  10  21  36  57  83 114 151 190 234 284 337
#     4  10  21  35  58  82 111 154 188 237 283 330
#
# _framework density 23.471629
#
# number of rings (size 3 to 8) (size 9 to 14) (size 15 to 20)
#    1.000    1.000    6.667    0.000    2.333    0.000 
#    0.000    2.500    7.333    0.000    0.000    0.000 
#    0.000    0.000    0.000    0.000    0.000    0.000 
#
# Total GULP energy -267355.664315 kJ/mol
# GULP energy per Si atom -5569.909673 kJ/mol
# Density = 2.341821 g / cm^3
# Si number density = 23.471629 Si / 1000 Ang^3
#
#
#
# Elastic Constant Matrix: (Units=GPa)
#
#
# Indices 1 2 3 4 5 6 
#
# 1 32.8738 10.5866 0.3199 0.0000 0.0000 0.0000
# 2 10.5866 15.6121 -5.1104 0.0000 0.0000 0.0000
# 3 0.3199 -5.1104 38.9446 0.0000 0.0000 0.0000
# 4 0.0000 0.0000 0.0000 29.2262 0.0000 0.0000
# 5 0.0000 0.0000 0.0000 0.0000 15.4812 0.0000
# 6 0.0000 0.0000 0.0000 0.0000 0.0000 30.8518
#
#
#
# Elastic Compliance Matrix: (Units=1/GPa)
#
#
# Indices 1 2 3 4 5 6 
#
# 1 0.039509 -0.028105 -0.004013 0.000000 0.000000 0.000000
# 2 -0.028105 0.086920 0.011637 0.000000 0.000000 0.000000
# 3 -0.004013 0.011637 0.027237 0.000000 0.000000 0.000000
# 4 0.000000 0.000000 0.000000 0.034216 0.000000 0.000000
# 5 0.000000 0.000000 0.000000 0.000000 0.064595 0.000000
# 6 0.000000 0.000000 0.000000 0.000000 0.000000 0.032413
#
#
# Mechanical properties :
#
#
# Convention : Reuss Voigt Hill
#
# Bulk Modulus (GPa) = 8.87266 11.00250 9.93758
# Shear Modulus (GPa) = 13.75821 20.55413 17.15617
#
# Velocity S-wave (km/s) = 2.42371 2.96244 2.70651
# Velocity P-wave (km/s) = 3.40894 4.04958 3.74299
#
# Compressibility (1/GPa) = 0.11270573
#
# Stress axis : x y z
#
# Youngs Moduli (GPa) = 25.31057 11.50484 36.71412
#
# Poissons Ratio (x) = 0.32334 0.14732
# Poissons Ratio (y) = 0.71135 -0.42723
# Poissons Ratio (z) = 0.10156 -0.13388
#
# Static dielectric constant tensor:
#      x y z
#    x 1.932500 0.000000 0.000000 
#    y 0.000000 1.993370 0.000000 
#    z 0.000000 0.000000 1.950650 
# 
# From -- ./inp_files/4261.got.cif
#   From: 2010.05.17/outbox.cif.g08.bks.cpg/sg61_3_cif.got.tgz:4261.got - 2010.06.03 15:17:17.
