data_PCOD9458352
_publ_section_title
;
Structure prediction by ZEFSAII (Michael W. Deem and Ramdas Pophale) SiO2 
 PCOD9458352
Probable space group: P B C N
;
_chemical_formula_sum "Si O2"
_cell_formula_units_Z 48
_cell_length_a 14.095715
_cell_length_b 9.798445
_cell_length_c 17.052054
_cell_angle_alpha 90.000000
_cell_angle_beta 90.000000
_cell_angle_gamma 90.000000
_cell_volume 2355.162994
_symmetry_space_group_name_H-M "P B C N"
_symmetry_group_IT_number 60
_symmetry_cell_setting 'orthorhombic'
loop_
_space_group_symop_operation_xyz
x,y,z
1/2-x,1/2-y,1/2+z
1/2+x,1/2-y,-z
-x,y,1/2-z
-x,-y,-z
1/2+x,1/2+y,1/2-z
1/2-x,1/2+y,z
x,-y,1/2+z
loop_
_atom_site_type_symbol
_atom_site_label
_atom_site_fract_x
_atom_site_fract_y
_atom_site_fract_z
Si Si1 0.656362 0.944091 0.586903
Si Si2 0.743262 0.308514 0.178606
Si Si3 0.619791 0.411905 0.320633
Si Si4 0.965952 0.633202 0.338425
Si Si5 0.819392 0.436259 0.402614
Si Si6 0.407560 0.719932 0.204808
O O1 0.701620 0.804728 0.620676
O O2 0.544841 0.932029 0.605887
O O3 0.672237 0.956922 0.494671
O O4 0.704435 0.069689 0.632875
O O5 0.661597 0.367273 0.235778
O O6 0.819436 0.237119 0.236009
O O7 0.548241 0.294801 0.347968
O O8 0.711253 0.417159 0.376858
O O9 0.577663 0.562433 0.316225
O O10 0.865133 0.563224 0.355665
O O11 0.000000 0.607778 0.250000
O O12 0.879844 0.307701 0.371080
O O13 0.500000 0.773406 0.250000
#
# Coordination Sequence:
#
# PCOD9458352 Si02
#       6
#     8   8   8   8   8   8
#     4  12  26  42  70  99 137 175 225 283 340 404
#     4  11  23  44  66  96 131 179 225 274 334 398
#     4  11  23  42  68  96 131 176 225 270 330 393
#     4  12  23  44  69  98 129 179 227 272 330 407
#     4  11  25  43  65  99 137 175 218 277 343 395
#     4  11  23  42  67  98 127 178 227 275 320 405
#
# _framework density 20.380754
#
# number of rings (size 3 to 8) (size 9 to 14) (size 15 to 20)
#    0.000    0.667    3.333    6.500    4.667    0.000 
#    0.000    0.833    0.000    0.000    0.000    0.000 
#    0.000    0.000    0.000    0.000    0.000    0.000 
#
# Total GULP energy -268680.496444 kJ/mol
# GULP energy per Si atom -5597.510343 kJ/mol
# Density = 2.033437 g / cm^3
# Si number density = 20.380754 Si / 1000 Ang^3
#
#
#
# Elastic Constant Matrix: (Units=GPa)
#
#
# Indices 1 2 3 4 5 6 
#
# 1 51.3315 -11.1047 1.6071 0.0000 0.0000 0.0000
# 2 -11.1047 102.3672 4.1973 0.0000 0.0000 0.0000
# 3 1.6071 4.1973 95.6613 0.0000 0.0000 0.0000
# 4 0.0000 0.0000 0.0000 -61.4107 0.0000 0.0000
# 5 0.0000 0.0000 0.0000 0.0000 24.7466 0.0000
# 6 0.0000 0.0000 0.0000 0.0000 0.0000 33.1268
#
#
#
# Elastic Compliance Matrix: (Units=1/GPa)
#
#
# Indices 1 2 3 4 5 6 
#
# 1 0.019967 0.002184 -0.000431 0.000000 0.000000 0.000000
# 2 0.002184 0.010025 -0.000477 0.000000 0.000000 0.000000
# 3 -0.000431 -0.000477 0.010482 0.000000 0.000000 0.000000
# 4 0.000000 0.000000 0.000000 -0.016284 0.000000 0.000000
# 5 0.000000 0.000000 0.000000 0.000000 0.040410 0.000000
# 6 0.000000 0.000000 0.000000 0.000000 0.000000 0.030187
#
#
# Mechanical properties :
#
#
# Convention : Reuss Voigt Hill
#
# Bulk Modulus (GPa) = 23.24188 26.52881 24.88535
# Shear Modulus (GPa) = 46.91445 16.26990 31.59218
#
# Velocity S-wave (km/s) = 4.80302 2.82848 3.94140
# Velocity P-wave (km/s) = 6.49517 4.86949 5.74017
#
# Compressibility (1/GPa) = 0.04302578
#
# Stress axis : x y z
#
# Youngs Moduli (GPa) = 50.08236 99.74887 95.40433
#
# Poissons Ratio (x) = -0.21782 0.04114
# Poissons Ratio (y) = -0.10936 0.04547
# Poissons Ratio (z) = 0.02160 0.04754
#
# Static dielectric constant tensor:
#      x y z
#    x 1.756490 0.000000 0.000000 
#    y 0.000000 1.732050 0.000000 
#    z 0.000000 0.000000 1.682240 
# 
# From -- ./inp_files/20497.got.cif
#   From: 2010.05.17/outbox.cif.g08.bks.cpg/sg60_11_cif.got.tgz:20497.got - 2010.06.03 14:59:27.
