data_PCOD9458106
_publ_section_title
;
Structure prediction by ZEFSAII (Michael W. Deem and Ramdas Pophale) SiO2 
 PCOD9458106
Probable space group: P B C N
;
_chemical_formula_sum "Si O2"
_cell_formula_units_Z 40
_cell_length_a 10.185462
_cell_length_b 22.195338
_cell_length_c 8.931430
_cell_angle_alpha 90.000000
_cell_angle_beta 90.000000
_cell_angle_gamma 90.000000
_cell_volume 2019.126342
_symmetry_space_group_name_H-M "P B C N"
_symmetry_group_IT_number 60
_symmetry_cell_setting 'orthorhombic'
loop_
_space_group_symop_operation_xyz
x,y,z
1/2-x,1/2-y,1/2+z
1/2+x,1/2-y,-z
-x,y,1/2-z
-x,-y,-z
1/2+x,1/2+y,1/2-z
1/2-x,1/2+y,z
x,-y,1/2+z
loop_
_atom_site_type_symbol
_atom_site_label
_atom_site_fract_x
_atom_site_fract_y
_atom_site_fract_z
Si Si1 0.980736 0.305151 0.571442
Si Si2 0.806800 0.380708 0.125581
Si Si3 0.603029 0.983332 0.623012
Si Si4 0.248748 0.126822 0.524176
Si Si5 0.474162 0.333294 0.428494
O O1 0.073577 0.348975 0.468053
O O2 0.997206 0.235774 0.524676
O O3 0.000000 0.312038 0.750000
O O4 0.827358 0.319310 0.551440
O O5 0.823057 0.453056 0.143501
O O6 0.791376 0.364563 0.301492
O O7 0.671243 0.359445 0.047274
O O8 0.500000 0.962400 0.750000
O O9 0.500000 0.000000 0.500000
O O10 0.695580 0.932265 0.557019
O O11 0.093393 0.128555 0.505492
O O12 0.500000 0.334369 0.250000
#
# Coordination Sequence:
#
# PCOD9458106 Si02
#       5
#     8   8   8   8   8
#     4  11  21  37  63  89 119 156 204 249 291 361
#     4  11  22  40  63  86 119 161 199 248 304 355
#     4  12  22  38  64  93 117 155 208 249 295 358
#     4  11  22  39  63  87 122 158 199 249 299 360
#     4   9  22  40  59  89 122 158 197 246 309 357
#
# _framework density 19.810549000000002
#
# number of rings (size 3 to 8) (size 9 to 14) (size 15 to 20)
#    0.000    1.200    4.000    2.400    0.000    0.800 
#    0.000    3.000    0.000    0.000    0.000    0.000 
#    0.000    0.000    0.000    0.000    0.000    0.000 
#
# Total GULP energy -222715.408328 kJ/mol
# GULP energy per Si atom -5567.885208 kJ/mol
# Density = 1.976546 g / cm^3
# Si number density = 19.810549 Si / 1000 Ang^3
#
#
#
# Elastic Constant Matrix: (Units=GPa)
#
#
# Indices 1 2 3 4 5 6 
#
# 1 132.7775 45.8080 20.5081 0.0000 0.0000 0.0000
# 2 45.8080 97.3778 8.5438 0.0000 0.0000 0.0000
# 3 20.5081 8.5438 59.4964 0.0000 0.0000 0.0000
# 4 0.0000 0.0000 0.0000 -18.6486 0.0000 0.0000
# 5 0.0000 0.0000 0.0000 0.0000 23.5451 0.0000
# 6 0.0000 0.0000 0.0000 0.0000 0.0000 18.1092
#
#
#
# Elastic Compliance Matrix: (Units=1/GPa)
#
#
# Indices 1 2 3 4 5 6 
#
# 1 0.009381 -0.004182 -0.002633 0.000000 0.000000 0.000000
# 2 -0.004182 0.012265 -0.000320 0.000000 0.000000 0.000000
# 3 -0.002633 -0.000320 0.017761 0.000000 0.000000 0.000000
# 4 0.000000 0.000000 0.000000 -0.053623 0.000000 0.000000
# 5 0.000000 0.000000 0.000000 0.000000 0.042472 0.000000
# 6 0.000000 0.000000 0.000000 0.000000 0.000000 0.055221
#
#
# Mechanical properties :
#
#
# Convention : Reuss Voigt Hill
#
# Bulk Modulus (GPa) = 39.78139 48.81905 44.30022
# Shear Modulus (GPa) = 47.11488 18.92061 33.01774
#
# Velocity S-wave (km/s) = 4.88204 3.09379 4.08692
# Velocity P-wave (km/s) = 7.20442 6.12033 6.68439
#
# Compressibility (1/GPa) = 0.02513738
#
# Stress axis : x y z
#
# Youngs Moduli (GPa) = 106.60063 81.53588 56.30241
#
# Poissons Ratio (x) = 0.34097 0.14824
# Poissons Ratio (y) = 0.44579 0.01800
# Poissons Ratio (z) = 0.28068 0.02607
#
# Static dielectric constant tensor:
#      x y z
#    x 1.685550 0.000000 0.000000 
#    y 0.000000 1.821320 0.000000 
#    z 0.000000 0.000000 1.688440 
# 
# From -- ./inp_files/3847.got.cif
#   From: 2010.05.17/outbox.cif.g08.bks.cpg/sg60_2_cif.got.tgz:3847.got - 2010.06.03 14:59:27.
