data_PCOD9458341
_publ_section_title
;
Structure prediction by ZEFSAII (Michael W. Deem and Ramdas Pophale) SiO2 
 PCOD9458341
Probable space group: P B C N
;
_chemical_formula_sum "Si O2"
_cell_formula_units_Z 40
_cell_length_a 20.278724
_cell_length_b 7.932529
_cell_length_c 9.671745
_cell_angle_alpha 90.000000
_cell_angle_beta 90.000000
_cell_angle_gamma 90.000000
_cell_volume 1555.812049
_symmetry_space_group_name_H-M "P B C N"
_symmetry_group_IT_number 60
_symmetry_cell_setting 'orthorhombic'
loop_
_space_group_symop_operation_xyz
x,y,z
1/2-x,1/2-y,1/2+z
1/2+x,1/2-y,-z
-x,y,1/2-z
-x,-y,-z
1/2+x,1/2+y,1/2-z
1/2-x,1/2+y,z
x,-y,1/2+z
loop_
_atom_site_type_symbol
_atom_site_label
_atom_site_fract_x
_atom_site_fract_y
_atom_site_fract_z
Si Si1 0.911446 0.691886 0.815230
Si Si2 0.098639 0.402567 0.483177
Si Si3 0.779443 0.196098 0.234214
Si Si4 0.454300 0.569587 0.622765
Si Si5 0.743031 0.434472 0.034047
O O1 0.928657 0.567668 0.939187
O O2 0.935857 0.634553 0.664402
O O3 0.832733 0.676908 0.794764
O O4 0.919684 0.893015 0.833336
O O5 0.087007 0.232493 0.573396
O O6 0.176893 0.439506 0.458255
O O7 0.722951 0.294457 0.150346
O O8 0.766393 0.092569 0.372430
O O9 0.799253 0.084523 0.100838
O O10 0.500000 0.624382 0.750000
O O11 0.500000 0.500000 0.500000
#
# Coordination Sequence:
#
# PCOD9458341 Si02
#       5
#     8   8   8   8   8
#     4  11  27  46  76 110 147 203 253 316 391 465
#     4  11  26  48  73 109 153 196 256 316 384 469
#     4  11  24  41  69 106 151 192 248 296 379 468
#     4  12  28  51  75 110 148 200 265 329 396 450
#     4  11  23  42  65 107 147 197 240 298 375 457
#
# _framework density 25.710045999999998
#
# number of rings (size 3 to 8) (size 9 to 14) (size 15 to 20)
#    0.000    0.800    2.000    4.800   11.200    1.600 
#    0.000    0.000    0.000    0.000    0.000    0.000 
#    0.000    0.000    0.000    0.000    0.000    0.000 
#
# Total GULP energy -222874.362143 kJ/mol
# GULP energy per Si atom -5571.859054 kJ/mol
# Density = 2.565153 g / cm^3
# Si number density = 25.710046 Si / 1000 Ang^3
#
#
#
# Elastic Constant Matrix: (Units=GPa)
#
#
# Indices 1 2 3 4 5 6 
#
# 1 59.3474 2.6830 26.7868 0.0000 0.0000 0.0000
# 2 2.6830 98.1145 20.2345 0.0000 0.0000 0.0000
# 3 26.7868 20.2345 104.2640 0.0000 0.0000 0.0000
# 4 0.0000 0.0000 0.0000 65.9685 0.0000 0.0000
# 5 0.0000 0.0000 0.0000 0.0000 30.5796 0.0000
# 6 0.0000 0.0000 0.0000 0.0000 0.0000 33.4630
#
#
#
# Elastic Compliance Matrix: (Units=1/GPa)
#
#
# Indices 1 2 3 4 5 6 
#
# 1 0.019085 0.000510 -0.005002 0.000000 0.000000 0.000000
# 2 0.000510 0.010631 -0.002194 0.000000 0.000000 0.000000
# 3 -0.005002 -0.002194 0.011302 0.000000 0.000000 0.000000
# 4 0.000000 0.000000 0.000000 0.015159 0.000000 0.000000
# 5 0.000000 0.000000 0.000000 0.000000 0.032702 0.000000
# 6 0.000000 0.000000 0.000000 0.000000 0.000000 0.029884
#
#
# Mechanical properties :
#
#
# Convention : Reuss Voigt Hill
#
# Bulk Modulus (GPa) = 36.17353 40.12605 38.14979
# Shear Modulus (GPa) = 35.37350 40.13700 37.75525
#
# Velocity S-wave (km/s) = 3.71329 3.95541 3.83626
# Velocity P-wave (km/s) = 5.69956 6.04164 5.87309
#
# Compressibility (1/GPa) = 0.02764453
#
# Stress axis : x y z
#
# Youngs Moduli (GPa) = 52.39836 94.06702 88.48063
#
# Poissons Ratio (x) = -0.04795 0.44258
# Poissons Ratio (y) = -0.02671 0.19413
# Poissons Ratio (z) = 0.26210 0.20639
#
# Static dielectric constant tensor:
#      x y z
#    x 2.165960 0.000000 0.000000 
#    y 0.000000 2.412960 0.000000 
#    z 0.000000 0.000000 2.026490 
# 
# From -- ./inp_files/7760.got.cif
#   From: 2010.05.17/outbox.cif.g08.bks.cpg/sg60_4_cif.got.tgz:7760.got - 2010.06.03 14:59:27.
