data_PCOD9458757
_publ_section_title
;
Structure prediction by ZEFSAII (Michael W. Deem and Ramdas Pophale) SiO2 
 PCOD9458757
Probable space group: P B C N
;
_chemical_formula_sum "Si O2"
_cell_formula_units_Z 40
_cell_length_a 10.845504
_cell_length_b 18.958358
_cell_length_c 7.888907
_cell_angle_alpha 90.000000
_cell_angle_beta 90.000000
_cell_angle_gamma 90.000000
_cell_volume 1622.061421
_symmetry_space_group_name_H-M "P B C N"
_symmetry_group_IT_number 60
_symmetry_cell_setting 'orthorhombic'
loop_
_space_group_symop_operation_xyz
x,y,z
1/2-x,1/2-y,1/2+z
1/2+x,1/2-y,-z
-x,y,1/2-z
-x,-y,-z
1/2+x,1/2+y,1/2-z
1/2-x,1/2+y,z
x,-y,1/2+z
loop_
_atom_site_type_symbol
_atom_site_label
_atom_site_fract_x
_atom_site_fract_y
_atom_site_fract_z
Si Si1 0.363777 0.842611 0.522812
Si Si2 0.500000 0.500000 0.000000
Si Si3 0.137729 0.392077 0.045602
Si Si4 0.239188 0.784196 0.830386
Si Si5 0.500000 0.629115 0.250000
Si Si6 0.728581 0.027279 0.621512
O O1 0.228031 0.671161 0.497736
O O2 0.348555 0.800653 0.698429
O O3 0.292720 0.794179 0.386761
O O4 0.300612 0.919053 0.531399
O O5 0.507715 0.420891 0.915325
O O6 0.374610 0.514378 0.879474
O O7 0.001941 0.359798 0.035999
O O8 0.178282 0.432096 0.215225
O O9 0.156865 0.454565 0.908711
O O10 0.118142 0.820452 0.754272
#
# Coordination Sequence:
#
# PCOD9458757 Si02
#       6
#     8   4   8   8   4   8
#     4  12  28  49  79 110 158 210 267 336 422 497
#     4  12  24  48  78 112 154 204 262 332 396 484
#     4  12  27  50  80 117 160 209 272 344 415 493
#     4  12  28  51  74 113 155 211 272 337 420 504
#     4  12  26  48  76 108 160 200 268 332 402 490
#     4  12  25  48  78 119 154 208 267 336 408 494
#
# _framework density 24.659976
#
# number of rings (size 3 to 8) (size 9 to 14) (size 15 to 20)
#    0.000    0.000    4.000    5.400    5.600    1.600 
#    0.000    0.000    0.000    0.000    0.000    0.000 
#    0.000    0.000    0.000    0.000    0.000    0.000 
#
# Total GULP energy -223081.071246 kJ/mol
# GULP energy per Si atom -5577.026781 kJ/mol
# Density = 2.460385 g / cm^3
# Si number density = 24.659976 Si / 1000 Ang^3
#
#
#
# Elastic Constant Matrix: (Units=GPa)
#
#
# Indices 1 2 3 4 5 6 
#
# 1 144.1407 39.9638 29.2158 0.0000 0.0000 0.0000
# 2 39.9638 148.3516 29.2252 0.0000 0.0000 0.0000
# 3 29.2158 29.2252 119.0467 0.0000 0.0000 0.0000
# 4 0.0000 0.0000 0.0000 35.0719 0.0000 0.0000
# 5 0.0000 0.0000 0.0000 0.0000 34.3585 0.0000
# 6 0.0000 0.0000 0.0000 0.0000 0.0000 24.2077
#
#
#
# Elastic Compliance Matrix: (Units=1/GPa)
#
#
# Indices 1 2 3 4 5 6 
#
# 1 0.007731 -0.001796 -0.001456 0.000000 0.000000 0.000000
# 2 -0.001796 0.007500 -0.001401 0.000000 0.000000 0.000000
# 3 -0.001456 -0.001401 0.009101 0.000000 0.000000 0.000000
# 4 0.000000 0.000000 0.000000 0.028513 0.000000 0.000000
# 5 0.000000 0.000000 0.000000 0.000000 0.029105 0.000000
# 6 0.000000 0.000000 0.000000 0.000000 0.000000 0.041309
#
#
# Mechanical properties :
#
#
# Convention : Reuss Voigt Hill
#
# Bulk Modulus (GPa) = 66.54646 67.59429 67.07038
# Shear Modulus (GPa) = 36.34418 39.60325 37.97371
#
# Velocity S-wave (km/s) = 3.84319 4.01181 3.92840
# Velocity P-wave (km/s) = 6.83650 6.99496 6.91618
#
# Compressibility (1/GPa) = 0.01502710
#
# Stress axis : x y z
#
# Youngs Moduli (GPa) = 129.35410 133.32651 109.87405
#
# Poissons Ratio (x) = 0.23941 0.16002
# Poissons Ratio (y) = 0.23227 0.15389
# Poissons Ratio (z) = 0.18839 0.18674
#
# Static dielectric constant tensor:
#      x y z
#    x 1.958220 0.000000 0.000000 
#    y 0.000000 1.882980 0.000000 
#    z 0.000000 0.000000 2.174650 
# 
# From -- ./inp_files/6637.got.cif
#   From: 2010.05.17/outbox.cif.g08.bks.cpg/sg60_4_cif.got.tgz:6637.got - 2010.06.03 14:59:27.
