data_PCOD9458302
_publ_section_title
;
Structure prediction by ZEFSAII (Michael W. Deem and Ramdas Pophale) SiO2 
 PCOD9458302
Probable space group: P B C N
;
_chemical_formula_sum "Si O2"
_cell_formula_units_Z 36
_cell_length_a 5.710103
_cell_length_b 20.365337
_cell_length_c 12.569642
_cell_angle_alpha 90.000000
_cell_angle_beta 90.000000
_cell_angle_gamma 90.000000
_cell_volume 1461.700690
_symmetry_space_group_name_H-M "P B C N"
_symmetry_group_IT_number 60
_symmetry_cell_setting 'orthorhombic'
loop_
_space_group_symop_operation_xyz
x,y,z
1/2-x,1/2-y,1/2+z
1/2+x,1/2-y,-z
-x,y,1/2-z
-x,-y,-z
1/2+x,1/2+y,1/2-z
1/2-x,1/2+y,z
x,-y,1/2+z
loop_
_atom_site_type_symbol
_atom_site_label
_atom_site_fract_x
_atom_site_fract_y
_atom_site_fract_z
Si Si1 0.338430 0.938291 0.355839
Si Si2 0.144187 0.239463 0.143103
Si Si3 0.001815 0.341856 0.527353
Si Si4 0.500000 0.339193 0.250000
Si Si5 0.246387 0.916399 0.812577
O O1 0.500000 0.936539 0.250000
O O2 0.465454 0.906685 0.456527
O O3 0.135068 0.886913 0.329501
O O4 0.248724 0.011972 0.368680
O O5 0.275711 0.175712 0.099934
O O6 0.337665 0.292004 0.181736
O O7 0.000000 0.228589 0.250000
O O8 0.016196 0.279198 0.049778
O O9 0.782130 0.357196 0.603418
O O10 0.500000 0.916054 0.750000
O O11 0.000000 0.914549 0.750000
#
# Coordination Sequence:
#
# PCOD9458302 Si02
#       5
#     8   8   8   4   8
#     4  11  22  49  78 113 155 203 262 329 394 472
#     4  12  28  49  74 113 160 203 262 329 392 473
#     4  12  26  49  78 114 151 215 267 318 404 483
#     4  12  20  46  80 102 154 200 252 322 394 462
#     4  11  28  50  78 117 162 206 264 339 397 464
#
# _framework density 24.628848000000001
#
# number of rings (size 3 to 8) (size 9 to 14) (size 15 to 20)
#    0.000    0.444    5.556    2.000    1.556    4.444 
#    0.000    4.444    0.000    0.000    0.000    0.000 
#    0.000    0.000    0.000    0.000    0.000    0.000 
#
# Total GULP energy -201660.989694 kJ/mol
# GULP energy per Si atom -5601.694158 kJ/mol
# Density = 2.457279 g / cm^3
# Si number density = 24.628848 Si / 1000 Ang^3
#
#
#
# Elastic Constant Matrix: (Units=GPa)
#
#
# Indices 1 2 3 4 5 6 
#
# 1 122.4644 39.8131 81.5582 0.0000 0.0000 0.0000
# 2 39.8131 131.7187 68.3400 0.0000 0.0000 0.0000
# 3 81.5582 68.3400 135.4292 0.0000 0.0000 0.0000
# 4 0.0000 0.0000 0.0000 23.5755 0.0000 0.0000
# 5 0.0000 0.0000 0.0000 0.0000 56.3264 0.0000
# 6 0.0000 0.0000 0.0000 0.0000 0.0000 160.5460
#
#
#
# Elastic Compliance Matrix: (Units=1/GPa)
#
#
# Indices 1 2 3 4 5 6 
#
# 1 0.013637 0.000188 -0.008308 0.000000 0.000000 0.000000
# 2 0.000188 0.010287 -0.005304 0.000000 0.000000 0.000000
# 3 -0.008308 -0.005304 0.015064 0.000000 0.000000 0.000000
# 4 0.000000 0.000000 0.000000 0.042417 0.000000 0.000000
# 5 0.000000 0.000000 0.000000 0.000000 0.017754 0.000000
# 6 0.000000 0.000000 0.000000 0.000000 0.000000 0.006229
#
#
# Mechanical properties :
#
#
# Convention : Reuss Voigt Hill
#
# Bulk Modulus (GPa) = 82.36951 85.44833 83.90892
# Shear Modulus (GPa) = 36.68881 61.41631 49.05256
#
# Velocity S-wave (km/s) = 3.86381 4.99909 4.46766
# Velocity P-wave (km/s) = 7.30905 8.25172 7.79465
#
# Compressibility (1/GPa) = 0.01214041
#
# Stress axis : x y z
#
# Youngs Moduli (GPa) = 73.32986 97.20850 66.38508
#
# Poissons Ratio (x) = -0.01831 0.55149
# Poissons Ratio (y) = -0.01381 0.35214
# Poissons Ratio (z) = 0.60919 0.51564
#
# Static dielectric constant tensor:
#      x y z
#    x 2.031250 0.000000 0.000000 
#    y 0.000000 1.903140 0.000000 
#    z 0.000000 0.000000 2.009190 
# 
# From -- ./inp_files/8992.got.cif
#   From: 2010.05.17/outbox.cif.g08.bks.cpg/sg60_5_cif.got.tgz:8992.got - 2010.06.03 14:59:27.
