data_PCOD9458974
_publ_section_title
;
Structure prediction by ZEFSAII (Michael W. Deem and Ramdas Pophale) SiO2 
 PCOD9458974
Probable space group: P B C A
;
_chemical_formula_sum "Si O2"
_cell_formula_units_Z 56
_cell_length_a 17.438246
_cell_length_b 22.406996
_cell_length_c 5.585996
_cell_angle_alpha 90.000000
_cell_angle_beta 90.000000
_cell_angle_gamma 90.000000
_cell_volume 2182.664862
_symmetry_space_group_name_H-M "P B C A"
_symmetry_group_IT_number 61
_symmetry_cell_setting 'orthorhombic'
loop_
_space_group_symop_operation_xyz
x,y,z
1/2-x,-y,1/2+z
1/2+x,1/2-y,-z
-x,1/2+y,1/2-z
-x,-y,-z
1/2+x,y,1/2-z
1/2-x,1/2+y,z
x,1/2-y,1/2+z
loop_
_atom_site_type_symbol
_atom_site_label
_atom_site_fract_x
_atom_site_fract_y
_atom_site_fract_z
Si Si1 0.484238 0.089505 0.700633
Si Si2 0.857584 0.317550 0.842039
Si Si3 0.466892 0.786563 0.858060
Si Si4 0.363965 0.886522 0.992384
Si Si5 0.589987 0.477700 0.873974
Si Si6 0.785526 0.520691 0.726918
Si Si7 0.652611 0.673835 0.843122
O O1 0.556060 0.101836 0.866132
O O2 0.518067 0.061520 0.456965
O O3 0.432943 0.146573 0.654808
O O4 0.431787 0.034434 0.785211
O O5 0.818625 0.343608 0.604753
O O6 0.847466 0.245686 0.841930
O O7 0.950895 0.322291 0.852698
O O8 0.820522 0.343267 0.080503
O O9 0.467998 0.752310 0.603195
O O10 0.386080 0.822439 0.883352
O O11 0.301007 0.910969 0.180224
O O12 0.359498 0.931313 0.771237
O O13 0.633393 0.499848 0.112248
O O14 0.736330 0.511737 0.479538
#
# Coordination Sequence:
#
# PCOD9458974 Si02
#       7
#     8   8   8   8   8   8   8
#     4  10  20  33  51  87 123 163 187 232 293 367
#     4  10  16  27  43  67 101 155 187 224 261 336
#     4  12  21  31  51  82 121 152 191 232 292 371
#     4  11  22  36  62  84 129 159 196 243 306 352
#     4  10  22  36  57  85 121 160 197 241 296 355
#     4  11  23  43  64  83 111 153 207 258 297 354
#     4  10  17  28  44  66 106 151 187 219 266 331
#
# _framework density 25.656711999999999
#
# number of rings (size 3 to 8) (size 9 to 14) (size 15 to 20)
#    0.000    1.429    5.714    1.286    4.000    0.000 
#    0.000    0.000    0.000    0.000    0.000    0.000 
#   25.714    0.000    0.000    0.000    0.000    0.000 
#
# Total GULP energy -311901.075905 kJ/mol
# GULP energy per Si atom -5569.662070 kJ/mol
# Density = 2.559832 g / cm^3
# Si number density = 25.656712 Si / 1000 Ang^3
#
#
#
# Elastic Constant Matrix: (Units=GPa)
#
#
# Indices 1 2 3 4 5 6 
#
# 1 35.6992 23.3237 29.1419 0.0000 0.0000 0.0000
# 2 23.3237 53.2112 40.9501 0.0000 0.0000 0.0000
# 3 29.1419 40.9501 230.3513 0.0000 0.0000 0.0000
# 4 0.0000 0.0000 0.0000 38.9246 0.0000 0.0000
# 5 0.0000 0.0000 0.0000 0.0000 30.6604 0.0000
# 6 0.0000 0.0000 0.0000 0.0000 0.0000 10.8189
#
#
#
# Elastic Compliance Matrix: (Units=1/GPa)
#
#
# Indices 1 2 3 4 5 6 
#
# 1 0.040248 -0.015898 -0.002266 0.000000 0.000000 0.000000
# 2 -0.015898 0.028051 -0.002975 0.000000 0.000000 0.000000
# 3 -0.002266 -0.002975 0.005157 0.000000 0.000000 0.000000
# 4 0.000000 0.000000 0.000000 0.025691 0.000000 0.000000
# 5 0.000000 0.000000 0.000000 0.000000 0.032615 0.000000
# 6 0.000000 0.000000 0.000000 0.000000 0.000000 0.092431
#
#
# Mechanical properties :
#
#
# Convention : Reuss Voigt Hill
#
# Bulk Modulus (GPa) = 32.07398 56.23258 44.15328
# Shear Modulus (GPa) = 18.05937 31.13717 24.59827
#
# Velocity S-wave (km/s) = 2.65596 3.48747 3.09972
# Velocity P-wave (km/s) = 4.68336 6.17911 5.48248
#
# Compressibility (1/GPa) = 0.03117792
#
# Stress axis : x y z
#
# Youngs Moduli (GPa) = 24.84589 35.64880 193.91971
#
# Poissons Ratio (x) = 0.56675 0.43934
# Poissons Ratio (y) = 0.39500 0.57701
# Poissons Ratio (z) = 0.05629 0.10607
#
# Static dielectric constant tensor:
#      x y z
#    x 2.207950 0.000000 0.000000 
#    y 0.000000 2.144420 0.000000 
#    z 0.000000 0.000000 2.070580 
# 
# From -- ./inp_files/1240.got.cif
#   From: 2010.05.17/outbox.cif.g08.bks.cpg/sg61_1_cif.got.tgz:1240.got - 2010.06.03 15:17:17.
