data_PCOD9458016
_publ_section_title
;
Structure prediction by ZEFSAII (Michael W. Deem and Ramdas Pophale) SiO2 
 PCOD9458016
Probable space group: P B C N
;
_chemical_formula_sum "Si O2"
_cell_formula_units_Z 48
_cell_length_a 7.822285
_cell_length_b 16.075119
_cell_length_c 16.613104
_cell_angle_alpha 90.000000
_cell_angle_beta 90.000000
_cell_angle_gamma 90.000000
_cell_volume 2089.000844
_symmetry_space_group_name_H-M "P B C N"
_symmetry_group_IT_number 60
_symmetry_cell_setting 'orthorhombic'
loop_
_space_group_symop_operation_xyz
x,y,z
1/2-x,1/2-y,1/2+z
1/2+x,1/2-y,-z
-x,y,1/2-z
-x,-y,-z
1/2+x,1/2+y,1/2-z
1/2-x,1/2+y,z
x,-y,1/2+z
loop_
_atom_site_type_symbol
_atom_site_label
_atom_site_fract_x
_atom_site_fract_y
_atom_site_fract_z
Si Si1 0.340510 0.714758 0.188574
Si Si2 0.002760 0.674291 0.927506
Si Si3 0.270007 0.128763 0.783922
Si Si4 0.174710 0.969905 0.697064
Si Si5 0.702862 0.555741 0.976328
Si Si6 0.151590 0.113247 0.949026
O O1 0.500000 0.706583 0.250000
O O2 0.413187 0.741247 0.101439
O O3 0.240751 0.794131 0.224231
O O4 0.256147 0.624172 0.190052
O O5 0.062397 0.640151 0.839631
O O6 0.186519 0.671788 0.971816
O O7 0.867677 0.613393 0.968355
O O8 0.126403 0.130450 0.854003
O O9 0.278939 0.040093 0.743131
O O10 0.000000 0.966993 0.750000
O O11 0.164495 0.006025 0.606722
O O12 0.533288 0.610895 0.989799
O O13 0.719976 0.481762 0.040655
#
# Coordination Sequence:
#
# PCOD9458016 Si02
#       6
#     8   8   8   8   8   8
#     4   9  18  32  59  82 108 151 187 235 289 335
#     4   9  18  35  59  77 111 147 183 230 286 339
#     4   9  18  35  56  82 112 143 190 233 283 335
#     4  11  19  32  60  87 109 151 194 236 289 342
#     4  11  19  34  60  80 116 147 189 233 289 336
#     4   9  21  33  55  87 107 154 187 229 280 351
#
# _framework density 22.977491000000001
#
# number of rings (size 3 to 8) (size 9 to 14) (size 15 to 20)
#    1.000    1.333    3.333    0.500    0.000    0.000 
#    0.000    0.000   22.000    0.000    0.000    0.000 
#    0.000    0.000    0.000    0.000    0.000    0.000 
#
# Total GULP energy -267301.124853 kJ/mol
# GULP energy per Si atom -5568.773434 kJ/mol
# Density = 2.292519 g / cm^3
# Si number density = 22.977491 Si / 1000 Ang^3
#
#
#
# Elastic Constant Matrix: (Units=GPa)
#
#
# Indices 1 2 3 4 5 6 
#
# 1 70.0300 37.2870 26.0817 0.0000 0.0000 0.0000
# 2 37.2870 142.3661 42.4066 0.0000 0.0000 0.0000
# 3 26.0817 42.4066 57.4635 0.0000 0.0000 0.0000
# 4 0.0000 0.0000 0.0000 27.8139 0.0000 0.0000
# 5 0.0000 0.0000 0.0000 0.0000 30.9275 0.0000
# 6 0.0000 0.0000 0.0000 0.0000 0.0000 28.3847
#
#
#
# Elastic Compliance Matrix: (Units=1/GPa)
#
#
# Indices 1 2 3 4 5 6 
#
# 1 0.018096 -0.002939 -0.006044 0.000000 0.000000 0.000000
# 2 -0.002939 0.009481 -0.005662 0.000000 0.000000 0.000000
# 3 -0.006044 -0.005662 0.024325 0.000000 0.000000 0.000000
# 4 0.000000 0.000000 0.000000 0.035953 0.000000 0.000000
# 5 0.000000 0.000000 0.000000 0.000000 0.032334 0.000000
# 6 0.000000 0.000000 0.000000 0.000000 0.000000 0.035230
#
#
# Mechanical properties :
#
#
# Convention : Reuss Voigt Hill
#
# Bulk Modulus (GPa) = 44.23007 53.49002 48.86005
# Shear Modulus (GPa) = 26.00836 28.36417 27.18626
#
# Velocity S-wave (km/s) = 3.36803 3.51726 3.44345
# Velocity P-wave (km/s) = 5.86651 6.31068 6.09264
#
# Compressibility (1/GPa) = 0.02260905
#
# Stress axis : x y z
#
# Youngs Moduli (GPa) = 55.26210 105.47901 41.11073
#
# Poissons Ratio (x) = 0.31000 0.24849
# Poissons Ratio (y) = 0.16241 0.23279
# Poissons Ratio (z) = 0.33403 0.59727
#
# Static dielectric constant tensor:
#      x y z
#    x 1.932220 0.000000 0.000000 
#    y 0.000000 1.893650 0.000000 
#    z 0.000000 0.000000 1.925330 
# 
# From -- ./inp_files/22075.got.cif
#   From: 2010.05.17/outbox.cif.g08.bks.cpg/sg60_12_cif.got.tgz:22075.got - 2010.06.03 14:59:27.
