data_PCOD9458099
_publ_section_title
;
Structure prediction by ZEFSAII (Michael W. Deem and Ramdas Pophale) SiO2 
 PCOD9458099
Probable space group: P B C N
;
_chemical_formula_sum "Si O2"
_cell_formula_units_Z 64
_cell_length_a 19.911368
_cell_length_b 18.756310
_cell_length_c 10.038782
_cell_angle_alpha 90.000000
_cell_angle_beta 90.000000
_cell_angle_gamma 90.000000
_cell_volume 3749.121580
_symmetry_space_group_name_H-M "P B C N"
_symmetry_group_IT_number 60
_symmetry_cell_setting 'orthorhombic'
loop_
_space_group_symop_operation_xyz
x,y,z
1/2-x,1/2-y,1/2+z
1/2+x,1/2-y,-z
-x,y,1/2-z
-x,-y,-z
1/2+x,1/2+y,1/2-z
1/2-x,1/2+y,z
x,-y,1/2+z
loop_
_atom_site_type_symbol
_atom_site_label
_atom_site_fract_x
_atom_site_fract_y
_atom_site_fract_z
Si Si1 0.747764 0.000412 0.244171
Si Si2 0.073409 0.338737 0.530439
Si Si3 0.355355 0.214158 0.781075
Si Si4 0.349277 0.010271 0.006059
Si Si5 0.288547 0.645511 0.855657
Si Si6 0.143909 0.286724 0.780242
Si Si7 0.418191 0.863808 0.031054
Si Si8 0.214941 0.850297 0.675960
O O1 0.792729 0.931701 0.212076
O O2 0.708190 0.998970 0.383430
O O3 0.788628 0.074031 0.249604
O O4 0.688959 0.998528 0.133584
O O5 0.104466 0.287272 0.418479
O O6 0.114550 0.413465 0.519992
O O7 0.086497 0.305277 0.674673
O O8 0.995748 0.350901 0.500159
O O9 0.283987 0.176386 0.810890
O O10 0.395769 0.168560 0.672173
O O11 0.338602 0.292183 0.724924
O O12 0.402442 0.947420 0.025161
O O13 0.342416 0.703716 0.807985
O O14 0.289081 0.640641 0.016312
O O15 0.212023 0.318794 0.715891
O O16 0.127080 0.325503 0.918497
#
# Coordination Sequence:
#
# PCOD9458099 Si02
#       8
#     8   8   8   8   8   8   8   8
#     4  12  20  34  59  82 119 150 182 232 300 342
#     4  12  23  40  53  82 124 156 202 231 265 336
#     4  11  22  37  57  83 110 155 196 241 281 330
#     4  12  21  36  50  88 120 158 193 222 266 350
#     4  11  21  37  59  83 117 145 191 246 290 340
#     4  11  22  37  57  83 110 155 196 241 281 330
#     4  12  23  36  59  80 116 168 196 223 279 330
#     4  11  21  37  59  83 117 145 191 246 290 340
#
# _framework density 17.070665000000002
#
# number of rings (size 3 to 8) (size 9 to 14) (size 15 to 20)
#    0.000    0.500    8.750    1.125    0.000    1.000 
#    0.000    3.750    0.000    0.000    0.000    5.250 
#    0.000    0.000    0.000    0.000    0.000    0.000 
#
# Total GULP energy -357524.712187 kJ/mol
# GULP energy per Si atom -5586.323628 kJ/mol
# Density = 1.703181 g / cm^3
# Si number density = 17.070665 Si / 1000 Ang^3
#
#
#
# Elastic Constant Matrix: (Units=GPa)
#
#
# Indices 1 2 3 4 5 6 
#
# 1 23.9604 29.5812 -7.9527 0.0000 0.0000 0.0000
# 2 29.5812 129.3836 16.2310 0.0000 0.0000 0.0000
# 3 -7.9527 16.2310 45.7873 0.0000 0.0000 0.0000
# 4 0.0000 0.0000 0.0000 28.3285 0.0000 0.0000
# 5 0.0000 0.0000 0.0000 0.0000 15.3528 0.0000
# 6 0.0000 0.0000 0.0000 0.0000 0.0000 16.0699
#
#
#
# Elastic Compliance Matrix: (Units=1/GPa)
#
#
# Indices 1 2 3 4 5 6 
#
# 1 0.070984 -0.018603 0.018924 0.000000 0.000000 0.000000
# 2 -0.018603 0.012964 -0.007827 0.000000 0.000000 0.000000
# 3 0.018924 -0.007827 0.027901 0.000000 0.000000 0.000000
# 4 0.000000 0.000000 0.000000 0.035300 0.000000 0.000000
# 5 0.000000 0.000000 0.000000 0.000000 0.065135 0.000000
# 6 0.000000 0.000000 0.000000 0.000000 0.000000 0.062228
#
#
# Mechanical properties :
#
#
# Convention : Reuss Voigt Hill
#
# Bulk Modulus (GPa) = 10.32666 30.53891 20.43279
# Shear Modulus (GPa) = 15.53742 22.70169 19.11955
#
# Velocity S-wave (km/s) = 3.02020 3.65069 3.35031
# Velocity P-wave (km/s) = 4.26903 5.97483 5.19246
#
# Compressibility (1/GPa) = 0.09683671
#
# Stress axis : x y z
#
# Youngs Moduli (GPa) = 14.08775 77.13635 35.84051
#
# Poissons Ratio (x) = 1.43497 -0.67823
# Poissons Ratio (y) = 0.26208 0.28051
# Poissons Ratio (z) = -0.26659 0.60372
#
# Static dielectric constant tensor:
#      x y z
#    x 1.552410 0.000000 0.000000 
#    y 0.000000 1.594920 0.000000 
#    z 0.000000 0.000000 1.575660 
# 
# From -- ./inp_files/7575.got.cif
#   From: 2010.05.17/outbox.cif.g08.bks.cpg/sg60_4_cif.got.tgz:7575.got - 2010.06.03 14:59:27.
