data_PCOD9458543
_publ_section_title
;
Structure prediction by ZEFSAII (Michael W. Deem and Ramdas Pophale) SiO2 
 PCOD9458543
Probable space group: P B C N
;
_chemical_formula_sum "Si O2"
_cell_formula_units_Z 16
_cell_length_a 7.498702
_cell_length_b 6.885599
_cell_length_c 13.335167
_cell_angle_alpha 90.000000
_cell_angle_beta 90.000000
_cell_angle_gamma 90.000000
_cell_volume 688.535411
_symmetry_space_group_name_H-M "P B C N"
_symmetry_group_IT_number 60
_symmetry_cell_setting 'orthorhombic'
loop_
_space_group_symop_operation_xyz
x,y,z
1/2-x,1/2-y,1/2+z
1/2+x,1/2-y,-z
-x,y,1/2-z
-x,-y,-z
1/2+x,1/2+y,1/2-z
1/2-x,1/2+y,z
x,-y,1/2+z
loop_
_atom_site_type_symbol
_atom_site_label
_atom_site_fract_x
_atom_site_fract_y
_atom_site_fract_z
Si Si1 0.107924 0.311880 0.535247
Si Si2 0.482955 0.564148 0.133684
O O1 0.290535 0.370244 0.589770
O O2 0.000000 0.500000 0.500000
O O3 0.123010 0.180228 0.434860
O O4 0.007702 0.165011 0.611059
O O5 0.500000 0.607791 0.250000
#
# Coordination Sequence:
#
# PCOD9458543 Si02
#       2
#     8   8
#     4  11  24  50  73 108 153 193 252 309 364 454
#     4  11  26  47  78 112 150 200 249 311 380 443
#
# _framework density 23.237732000000001
#
# number of rings (size 3 to 8) (size 9 to 14) (size 15 to 20)
#    0.000    1.000    5.000    0.000    0.000   10.000 
#    0.000    0.000    0.000    0.000    0.000    0.000 
#    0.000    0.000    0.000    0.000    0.000    0.000 
#
# Total GULP energy -89506.048111 kJ/mol
# GULP energy per Si atom -5594.128007 kJ/mol
# Density = 2.318484 g / cm^3
# Si number density = 23.237732 Si / 1000 Ang^3
#
#
#
# Elastic Constant Matrix: (Units=GPa)
#
#
# Indices 1 2 3 4 5 6 
#
# 1 157.1322 63.8942 72.5849 0.0000 0.0000 0.0000
# 2 63.8942 148.3824 44.2755 0.0000 0.0000 0.0000
# 3 72.5849 44.2755 229.9219 0.0000 0.0000 0.0000
# 4 0.0000 0.0000 0.0000 19.9938 0.0000 0.0000
# 5 0.0000 0.0000 0.0000 0.0000 34.6522 0.0000
# 6 0.0000 0.0000 0.0000 0.0000 0.0000 38.4683
#
#
#
# Elastic Compliance Matrix: (Units=1/GPa)
#
#
# Indices 1 2 3 4 5 6 
#
# 1 0.008591 -0.003066 -0.002122 0.000000 0.000000 0.000000
# 2 -0.003066 0.008245 -0.000620 0.000000 0.000000 0.000000
# 3 -0.002122 -0.000620 0.005138 0.000000 0.000000 0.000000
# 4 0.000000 0.000000 0.000000 0.050016 0.000000 0.000000
# 5 0.000000 0.000000 0.000000 0.000000 0.028858 0.000000
# 6 0.000000 0.000000 0.000000 0.000000 0.000000 0.025995
#
#
# Mechanical properties :
#
#
# Convention : Reuss Voigt Hill
#
# Bulk Modulus (GPa) = 96.53552 99.66063 98.09808
# Shear Modulus (GPa) = 35.23332 42.26831 38.75082
#
# Velocity S-wave (km/s) = 3.89808 4.26954 4.08803
# Velocity P-wave (km/s) = 7.86720 8.20280 8.03675
#
# Compressibility (1/GPa) = 0.01035888
#
# Stress axis : x y z
#
# Youngs Moduli (GPa) = 116.40164 121.29188 194.61240
#
# Poissons Ratio (x) = 0.37191 0.41290
# Poissons Ratio (y) = 0.35691 0.12059
# Poissons Ratio (z) = 0.24696 0.07516
#
# Static dielectric constant tensor:
#      x y z
#    x 1.975890 0.000000 0.000000 
#    y 0.000000 1.941370 0.000000 
#    z 0.000000 0.000000 1.822630 
# 
# From -- ./inp_files/3189.got.cif
#   From: 2010.05.17/outbox.cif.g08.bks.cpg/sg60_2_cif.got.tgz:3189.got - 2010.06.03 14:59:27.
