data_PCOD9458249
_publ_section_title
;
Structure prediction by ZEFSAII (Michael W. Deem and Ramdas Pophale) SiO2 
 PCOD9458249
Probable space group: P B C N
;
_chemical_formula_sum "Si O2"
_cell_formula_units_Z 40
_cell_length_a 9.867507
_cell_length_b 14.493392
_cell_length_c 11.125052
_cell_angle_alpha 90.000000
_cell_angle_beta 90.000000
_cell_angle_gamma 90.000000
_cell_volume 1591.034260
_symmetry_space_group_name_H-M "P B C N"
_symmetry_group_IT_number 60
_symmetry_cell_setting 'orthorhombic'
loop_
_space_group_symop_operation_xyz
x,y,z
1/2-x,1/2-y,1/2+z
1/2+x,1/2-y,-z
-x,y,1/2-z
-x,-y,-z
1/2+x,1/2+y,1/2-z
1/2-x,1/2+y,z
x,-y,1/2+z
loop_
_atom_site_type_symbol
_atom_site_label
_atom_site_fract_x
_atom_site_fract_y
_atom_site_fract_z
Si Si1 0.130882 0.884303 0.332672
Si Si2 0.777526 0.194238 0.242583
Si Si3 0.002672 0.177229 0.060001
Si Si4 0.437079 0.137594 0.069277
Si Si5 0.120086 0.510356 0.842855
O O1 0.207614 0.786369 0.310231
O O2 0.078424 0.892401 0.470268
O O3 0.233938 0.964097 0.292548
O O4 0.000000 0.886169 0.250000
O O5 0.887255 0.217729 0.347005
O O6 0.665980 0.137618 0.319313
O O7 0.872211 0.149618 0.138786
O O8 0.955276 0.258558 0.971945
O O9 0.577906 0.088949 0.104613
O O10 0.386166 0.078615 0.957337
O O11 0.000000 0.534931 0.750000
#
# Coordination Sequence:
#
# PCOD9458249 Si02
#       5
#     8   8   8   8   8
#     4  12  24  42  74 114 155 203 263 333 392 469
#     4  11  22  41  74 115 154 194 263 335 391 470
#     4  11  22  41  73 117 152 191 268 332 391 464
#     4  11  23  43  73 114 150 209 260 317 400 486
#     4  11  25  47  72 106 161 209 260 318 408 486
#
# _framework density 25.140882000000001
#
# number of rings (size 3 to 8) (size 9 to 14) (size 15 to 20)
#    0.000    0.800    6.000    1.200    2.800    0.000 
#    0.000    0.000    4.400   13.200    0.000    0.000 
#    0.000    0.000    0.000    0.000    0.000    0.000 
#
# Total GULP energy -223925.550537 kJ/mol
# GULP energy per Si atom -5598.138763 kJ/mol
# Density = 2.508366 g / cm^3
# Si number density = 25.140882 Si / 1000 Ang^3
#
#
#
# Elastic Constant Matrix: (Units=GPa)
#
#
# Indices 1 2 3 4 5 6 
#
# 1 179.7223 42.8425 55.0758 0.0000 0.0000 0.0000
# 2 42.8425 77.4911 20.4301 0.0000 0.0000 0.0000
# 3 55.0758 20.4301 130.2349 0.0000 0.0000 0.0000
# 4 0.0000 0.0000 0.0000 27.9110 0.0000 0.0000
# 5 0.0000 0.0000 0.0000 0.0000 62.3944 0.0000
# 6 0.0000 0.0000 0.0000 0.0000 0.0000 9.8010
#
#
#
# Elastic Compliance Matrix: (Units=1/GPa)
#
#
# Indices 1 2 3 4 5 6 
#
# 1 0.007108 -0.003273 -0.002493 0.000000 0.000000 0.000000
# 2 -0.003273 0.014968 -0.000964 0.000000 0.000000 0.000000
# 3 -0.002493 -0.000964 0.008884 0.000000 0.000000 0.000000
# 4 0.000000 0.000000 0.000000 0.035828 0.000000 0.000000
# 5 0.000000 0.000000 0.000000 0.000000 0.016027 0.000000
# 6 0.000000 0.000000 0.000000 0.000000 0.000000 0.102030
#
#
# Mechanical properties :
#
#
# Convention : Reuss Voigt Hill
#
# Bulk Modulus (GPa) = 57.13829 69.34944 63.24386
# Shear Modulus (GPa) = 24.49320 37.96127 31.22724
#
# Velocity S-wave (km/s) = 3.12466 3.89001 3.52815
# Velocity P-wave (km/s) = 5.98286 6.91524 6.46588
#
# Compressibility (1/GPa) = 0.01750140
#
# Stress axis : x y z
#
# Youngs Moduli (GPa) = 140.68346 66.80802 112.56468
#
# Poissons Ratio (x) = 0.21864 0.28058
# Poissons Ratio (y) = 0.46042 0.10852
# Poissons Ratio (z) = 0.35067 0.06441
#
# Static dielectric constant tensor:
#      x y z
#    x 2.050540 0.000000 0.000000 
#    y 0.000000 1.999360 0.000000 
#    z 0.000000 0.000000 1.989530 
# 
# From -- ./inp_files/9758.got.cif
#   From: 2010.05.17/outbox.cif.g08.bks.cpg/sg60_5_cif.got.tgz:9758.got - 2010.06.03 14:59:27.
