data_PCOD9458005
_publ_section_title
;
Structure prediction by ZEFSAII (Michael W. Deem and Ramdas Pophale) SiO2 
 PCOD9458005
Probable space group: P B C N
;
_chemical_formula_sum "Si O2"
_cell_formula_units_Z 40
_cell_length_a 21.836857
_cell_length_b 8.670720
_cell_length_c 9.051470
_cell_angle_alpha 90.000000
_cell_angle_beta 90.000000
_cell_angle_gamma 90.000000
_cell_volume 1713.816850
_symmetry_space_group_name_H-M "P B C N"
_symmetry_group_IT_number 60
_symmetry_cell_setting 'orthorhombic'
loop_
_space_group_symop_operation_xyz
x,y,z
1/2-x,1/2-y,1/2+z
1/2+x,1/2-y,-z
-x,y,1/2-z
-x,-y,-z
1/2+x,1/2+y,1/2-z
1/2-x,1/2+y,z
x,-y,1/2+z
loop_
_atom_site_type_symbol
_atom_site_label
_atom_site_fract_x
_atom_site_fract_y
_atom_site_fract_z
Si Si1 0.000000 0.290357 0.250000
Si Si2 0.420688 0.663828 0.004682
Si Si3 0.591126 0.054341 0.195016
Si Si4 0.207557 0.076752 0.927417
Si Si5 0.279833 0.134968 0.225628
Si Si6 0.000000 0.794120 0.250000
O O1 0.956194 0.185832 0.346737
O O2 0.951739 0.407378 0.171312
O O3 0.403785 0.840416 0.952434
O O4 0.359548 0.566285 0.998714
O O5 0.468773 0.614410 0.879961
O O6 0.658830 0.031053 0.257898
O O7 0.553385 0.174243 0.300438
O O8 0.203457 0.197896 0.790771
O O9 0.231665 0.926415 0.846162
O O10 0.252327 0.127113 0.061593
#
# Coordination Sequence:
#
# PCOD9458005 Si02
#       6
#     4   8   8   8   8   4
#     4  11  18  30  60  93 130 155 222 281 326 379
#     4   9  20  36  55  94 126 162 218 271 337 379
#     4   8  19  31  59  92 124 160 217 285 327 370
#     4  11  25  44  65 102 133 182 223 278 332 410
#     4  11  24  42  68  97 137 174 229 271 343 393
#     4   7  16  36  54  85 126 157 208 277 314 381
#
# _framework density 23.339718000000001
#
# number of rings (size 3 to 8) (size 9 to 14) (size 15 to 20)
#    1.200    1.200    0.000    1.800    8.400    0.000 
#    0.000    0.000    0.000    3.600    0.000    0.000 
#    0.000    0.000    0.000    0.000    0.000    0.000 
#
# Total GULP energy -223084.915441 kJ/mol
# GULP energy per Si atom -5577.122886 kJ/mol
# Density = 2.328660 g / cm^3
# Si number density = 23.339718 Si / 1000 Ang^3
#
#
#
# Elastic Constant Matrix: (Units=GPa)
#
#
# Indices 1 2 3 4 5 6 
#
# 1 103.4272 5.0624 11.4394 0.0000 0.0000 0.0000
# 2 5.0624 37.6661 -1.4283 0.0000 0.0000 0.0000
# 3 11.4394 -1.4283 71.9244 0.0000 0.0000 0.0000
# 4 0.0000 0.0000 0.0000 18.9498 0.0000 0.0000
# 5 0.0000 0.0000 0.0000 0.0000 41.2830 0.0000
# 6 0.0000 0.0000 0.0000 0.0000 0.0000 -52.5030
#
#
#
# Elastic Compliance Matrix: (Units=1/GPa)
#
#
# Indices 1 2 3 4 5 6 
#
# 1 0.009914 -0.001393 -0.001605 0.000000 0.000000 0.000000
# 2 -0.001393 0.026765 0.000753 0.000000 0.000000 0.000000
# 3 -0.001605 0.000753 0.014174 0.000000 0.000000 0.000000
# 4 0.000000 0.000000 0.000000 0.052771 0.000000 0.000000
# 5 0.000000 0.000000 0.000000 0.000000 0.024223 0.000000
# 6 0.000000 0.000000 0.000000 0.000000 0.000000 -0.019047
#
#
# Mechanical properties :
#
#
# Convention : Reuss Voigt Hill
#
# Bulk Modulus (GPa) = 21.56873 27.01828 24.29351
# Shear Modulus (GPa) = 38.83664 14.74223 26.78944
#
# Velocity S-wave (km/s) = 4.08361 2.51597 3.39160
# Velocity P-wave (km/s) = 5.61211 4.47676 5.07627
#
# Compressibility (1/GPa) = 0.04636341
#
# Stress axis : x y z
#
# Youngs Moduli (GPa) = 100.86440 37.36233 70.55351
#
# Poissons Ratio (x) = 0.05206 0.11320
# Poissons Ratio (y) = 0.14054 -0.05314
# Poissons Ratio (z) = 0.16184 -0.02814
#
# Static dielectric constant tensor:
#      x y z
#    x 1.894650 0.000000 0.000000 
#    y 0.000000 1.898990 0.000000 
#    z 0.000000 0.000000 1.862290 
# 
# From -- ./inp_files/7265.got.cif
#   From: 2010.05.17/outbox.cif.g08.bks.cpg/sg60_4_cif.got.tgz:7265.got - 2010.06.03 14:59:27.
