data_PCOD9458821
_publ_section_title
;
Structure prediction by ZEFSAII (Michael W. Deem and Ramdas Pophale) SiO2 
 PCOD9458821
Probable space group: P B C N
;
_chemical_formula_sum "Si O2"
_cell_formula_units_Z 40
_cell_length_a 9.278179
_cell_length_b 10.037190
_cell_length_c 16.923560
_cell_angle_alpha 90.000000
_cell_angle_beta 90.000000
_cell_angle_gamma 90.000000
_cell_volume 1576.037757
_symmetry_space_group_name_H-M "P B C N"
_symmetry_group_IT_number 60
_symmetry_cell_setting 'orthorhombic'
loop_
_space_group_symop_operation_xyz
x,y,z
1/2-x,1/2-y,1/2+z
1/2+x,1/2-y,-z
-x,y,1/2-z
-x,-y,-z
1/2+x,1/2+y,1/2-z
1/2-x,1/2+y,z
x,-y,1/2+z
loop_
_atom_site_type_symbol
_atom_site_label
_atom_site_fract_x
_atom_site_fract_y
_atom_site_fract_z
Si Si1 0.645478 0.375290 0.718079
Si Si2 0.591578 0.451917 0.075403
Si Si3 0.628235 0.850099 0.112117
Si Si4 0.679137 0.017916 0.856753
Si Si5 0.622255 0.742574 0.941234
O O1 0.500000 0.309773 0.750000
O O2 0.564382 0.470779 0.655417
O O3 0.708012 0.243289 0.676519
O O4 0.750283 0.461319 0.774517
O O5 0.763549 0.459464 0.076059
O O6 0.537645 0.300678 0.083325
O O7 0.500000 0.500000 0.000000
O O8 0.481968 0.919569 0.141793
O O9 0.610679 0.754682 0.035889
O O10 0.776792 0.129567 0.900824
O O11 0.671997 0.883222 0.907912
#
# Coordination Sequence:
#
# PCOD9458821 Si02
#       5
#     8   8   8   8   8
#     4  12  28  51  81 122 180 224 286 370 443 515
#     4  12  27  51  79 119 167 231 289 354 440 525
#     4  12  29  49  87 122 167 238 295 359 440 535
#     4  12  29  53  85 130 176 226 302 368 442 530
#     4  12  26  53  83 122 176 230 294 360 439 531
#
# _framework density 25.380102999999998
#
# number of rings (size 3 to 8) (size 9 to 14) (size 15 to 20)
#    0.000    0.000    4.000    4.200    8.400    0.000 
#    0.000    0.000    0.000    0.000    0.000    0.000 
#    0.000    0.000    0.000    0.000    0.000    0.000 
#
# Total GULP energy -223080.037249 kJ/mol
# GULP energy per Si atom -5577.000931 kJ/mol
# Density = 2.532234 g / cm^3
# Si number density = 25.380103 Si / 1000 Ang^3
#
#
#
# Elastic Constant Matrix: (Units=GPa)
#
#
# Indices 1 2 3 4 5 6 
#
# 1 175.4458 52.0324 67.2706 0.0000 0.0000 0.0000
# 2 52.0324 159.8919 69.8873 0.0000 0.0000 0.0000
# 3 67.2706 69.8873 129.0887 0.0000 0.0000 0.0000
# 4 0.0000 0.0000 0.0000 -7.9919 0.0000 0.0000
# 5 0.0000 0.0000 0.0000 0.0000 21.5840 0.0000
# 6 0.0000 0.0000 0.0000 0.0000 0.0000 40.9418
#
#
#
# Elastic Compliance Matrix: (Units=1/GPa)
#
#
# Indices 1 2 3 4 5 6 
#
# 1 0.007226 -0.000924 -0.003265 0.000000 0.000000 0.000000
# 2 -0.000924 0.008311 -0.004018 0.000000 0.000000 0.000000
# 3 -0.003265 -0.004018 0.011623 0.000000 0.000000 0.000000
# 4 0.000000 0.000000 0.000000 -0.125127 0.000000 0.000000
# 5 0.000000 0.000000 0.000000 0.000000 0.046331 0.000000
# 6 0.000000 0.000000 0.000000 0.000000 0.000000 0.024425
#
#
# Mechanical properties :
#
#
# Convention : Reuss Voigt Hill
#
# Bulk Modulus (GPa) = 93.06010 93.64521 93.35266
# Shear Modulus (GPa) = -693.04350 29.25586 -331.89382
#
# Velocity S-wave (km/s) = -16.54263 3.39884 -11.44785
# Velocity P-wave (km/s) = 18.11441 7.23740 11.74206
#
# Compressibility (1/GPa) = 0.01074574
#
# Stress axis : x y z
#
# Youngs Moduli (GPa) = 138.39274 120.31936 86.03342
#
# Poissons Ratio (x) = 0.11121 0.28091
# Poissons Ratio (y) = 0.12792 0.34568
# Poissons Ratio (z) = 0.45187 0.48344
#
# Static dielectric constant tensor:
#      x y z
#    x 2.141760 0.000000 0.000000 
#    y 0.000000 2.106270 0.000000 
#    z 0.000000 0.000000 1.713880 
# 
# From -- ./inp_files/19018.got.cif
#   From: 2010.05.17/outbox.cif.g08.bks.cpg/sg60_10_cif.got.tgz:19018.got - 2010.06.03 14:59:27.
