data_PCOD9458676
_publ_section_title
;
Structure prediction by ZEFSAII (Michael W. Deem and Ramdas Pophale) SiO2 
 PCOD9458676
Probable space group: P B C N
;
_chemical_formula_sum "Si O2"
_cell_formula_units_Z 48
_cell_length_a 14.479423
_cell_length_b 8.587235
_cell_length_c 16.894990
_cell_angle_alpha 90.000000
_cell_angle_beta 90.000000
_cell_angle_gamma 90.000000
_cell_volume 2100.692780
_symmetry_space_group_name_H-M "P B C N"
_symmetry_group_IT_number 60
_symmetry_cell_setting 'orthorhombic'
loop_
_space_group_symop_operation_xyz
x,y,z
1/2-x,1/2-y,1/2+z
1/2+x,1/2-y,-z
-x,y,1/2-z
-x,-y,-z
1/2+x,1/2+y,1/2-z
1/2-x,1/2+y,z
x,-y,1/2+z
loop_
_atom_site_type_symbol
_atom_site_label
_atom_site_fract_x
_atom_site_fract_y
_atom_site_fract_z
Si Si1 0.831547 0.989517 0.935680
Si Si2 0.842202 0.678118 0.179503
Si Si3 0.762869 0.395088 0.278994
Si Si4 0.434040 0.291649 0.678742
Si Si5 0.962952 0.521404 0.588604
Si Si6 0.294415 0.767183 0.458615
O O1 0.918560 0.914954 0.891110
O O2 0.775411 0.857635 0.983204
O O3 0.766105 0.054103 0.866116
O O4 0.848009 0.132544 0.994370
O O5 0.816444 0.532512 0.234910
O O6 0.826515 0.833540 0.231037
O O7 0.938182 0.636082 0.136228
O O8 0.766401 0.693464 0.110450
O O9 0.833975 0.251302 0.285927
O O10 0.500000 0.340657 0.750000
O O11 0.472019 0.132519 0.640016
O O12 0.866757 0.612977 0.577752
O O13 0.000000 0.500000 0.500000
#
# Coordination Sequence:
#
# PCOD9458676 Si02
#       6
#     8   8   8   8   8   8
#     4  12  24  44  73  98 136 182 236 275 336 419
#     4  12  22  43  72 101 130 184 237 274 334 422
#     4  12  23  43  73  97 132 186 236 272 332 425
#     4  12  24  43  66  99 141 174 216 297 348 386
#     4  12  26  43  68 103 142 173 224 292 357 392
#     4  12  23  45  72 100 131 186 233 279 334 421
#
# _framework density 22.849603999999999
#
# number of rings (size 3 to 8) (size 9 to 14) (size 15 to 20)
#    0.000    0.000    8.333    2.000    0.000    0.667 
#    3.000    0.000    0.000    0.000    0.000    0.000 
#    0.000    0.000    0.000    0.000    0.000    0.000 
#
# Total GULP energy -268738.297999 kJ/mol
# GULP energy per Si atom -5598.714542 kJ/mol
# Density = 2.279760 g / cm^3
# Si number density = 22.849604 Si / 1000 Ang^3
#
#
#
# Elastic Constant Matrix: (Units=GPa)
#
#
# Indices 1 2 3 4 5 6 
#
# 1 33.7898 -4.9225 2.6738 0.0000 0.0000 0.0000
# 2 -4.9225 34.3874 5.1878 0.0000 0.0000 0.0000
# 3 2.6738 5.1878 91.3288 0.0000 0.0000 0.0000
# 4 0.0000 0.0000 0.0000 38.7309 0.0000 0.0000
# 5 0.0000 0.0000 0.0000 0.0000 49.8430 0.0000
# 6 0.0000 0.0000 0.0000 0.0000 0.0000 38.9597
#
#
#
# Elastic Compliance Matrix: (Units=1/GPa)
#
#
# Indices 1 2 3 4 5 6 
#
# 1 0.030343 0.004516 -0.001145 0.000000 0.000000 0.000000
# 2 0.004516 0.030004 -0.001837 0.000000 0.000000 0.000000
# 3 -0.001145 -0.001837 0.011087 0.000000 0.000000 0.000000
# 4 0.000000 0.000000 0.000000 0.025819 0.000000 0.000000
# 5 0.000000 0.000000 0.000000 0.000000 0.020063 0.000000
# 6 0.000000 0.000000 0.000000 0.000000 0.000000 0.025668
#
#
# Mechanical properties :
#
#
# Convention : Reuss Voigt Hill
#
# Bulk Modulus (GPa) = 13.42205 18.37601 15.89903
# Shear Modulus (GPa) = 30.34915 35.94453 33.14684
#
# Velocity S-wave (km/s) = 3.64842 3.97053 3.81288
# Velocity P-wave (km/s) = 4.86156 5.39256 5.13393
#
# Compressibility (1/GPa) = 0.07450424
#
# Stress axis : x y z
#
# Youngs Moduli (GPa) = 32.95622 33.32894 90.19341
#
# Poissons Ratio (x) = -0.15052 0.10326
# Poissons Ratio (y) = -0.14884 0.16564
# Poissons Ratio (z) = 0.03773 0.06121
#
# Static dielectric constant tensor:
#      x y z
#    x 1.869500 0.000000 0.000000 
#    y 0.000000 1.882370 0.000000 
#    z 0.000000 0.000000 1.844850 
# 
# From -- ./inp_files/20500.got.cif
#   From: 2010.05.17/outbox.cif.g08.bks.cpg/sg60_11_cif.got.tgz:20500.got - 2010.06.03 14:59:27.
