data_PCOD9458199
_publ_section_title
;
Structure prediction by ZEFSAII (Michael W. Deem and Ramdas Pophale) SiO2 
 PCOD9458199
Probable space group: P B C N
;
_chemical_formula_sum "Si O2"
_cell_formula_units_Z 44
_cell_length_a 15.914732
_cell_length_b 11.061094
_cell_length_c 10.485186
_cell_angle_alpha 90.000000
_cell_angle_beta 90.000000
_cell_angle_gamma 90.000000
_cell_volume 1845.752867
_symmetry_space_group_name_H-M "P B C N"
_symmetry_group_IT_number 60
_symmetry_cell_setting 'orthorhombic'
loop_
_space_group_symop_operation_xyz
x,y,z
1/2-x,1/2-y,1/2+z
1/2+x,1/2-y,-z
-x,y,1/2-z
-x,-y,-z
1/2+x,1/2+y,1/2-z
1/2-x,1/2+y,z
x,-y,1/2+z
loop_
_atom_site_type_symbol
_atom_site_label
_atom_site_fract_x
_atom_site_fract_y
_atom_site_fract_z
Si Si1 0.500000 0.698581 0.250000
Si Si2 0.832589 0.503800 0.237711
Si Si3 0.814020 0.149181 0.179923
Si Si4 0.250264 0.671936 0.599743
Si Si5 0.413834 0.744465 0.692338
Si Si6 0.535869 0.878398 0.058879
O O1 0.415160 0.636046 0.304812
O O2 0.474235 0.791391 0.137158
O O3 0.741258 0.527812 0.179606
O O4 0.810777 0.442562 0.374566
O O5 0.880482 0.633138 0.237594
O O6 0.889509 0.415707 0.154202
O O7 0.785929 0.221477 0.308717
O O8 0.775311 0.203637 0.046253
O O9 0.340655 0.650151 0.667163
O O10 0.500000 0.697397 0.750000
O O11 0.434234 0.798296 0.555709
O O12 0.500000 0.000000 0.000000
#
# Coordination Sequence:
#
# PCOD9458199 Si02
#       6
#     4   8   8   8   8   8
#     4  12  24  44  68 102 138 186 234 296 350 416
#     4  11  23  41  69 100 139 185 230 286 353 424
#     4  11  26  43  73 100 144 186 236 292 361 427
#     4  11  23  46  66 104 139 186 234 287 362 426
#     4  11  22  38  62 100 133 170 225 288 342 408
#     4  12  22  39  70 105 133 176 234 291 352 416
#
# _framework density 23.838509999999999
#
# number of rings (size 3 to 8) (size 9 to 14) (size 15 to 20)
#    0.000    0.727    5.455    2.182    2.545    1.455 
#    1.636    0.909    0.000    0.000    0.000    0.000 
#    0.000    0.000    0.000    0.000    0.000    0.000 
#
# Total GULP energy -245150.763179 kJ/mol
# GULP energy per Si atom -5571.608254 kJ/mol
# Density = 2.378425 g / cm^3
# Si number density = 23.838510 Si / 1000 Ang^3
#
#
#
# Elastic Constant Matrix: (Units=GPa)
#
#
# Indices 1 2 3 4 5 6 
#
# 1 158.1346 14.5589 50.1013 0.0000 0.0000 0.0000
# 2 14.5589 9.0345 13.6473 0.0000 0.0000 0.0000
# 3 50.1013 13.6473 115.9920 0.0000 0.0000 0.0000
# 4 0.0000 0.0000 0.0000 32.4279 0.0000 0.0000
# 5 0.0000 0.0000 0.0000 0.0000 45.9557 0.0000
# 6 0.0000 0.0000 0.0000 0.0000 0.0000 34.5081
#
#
#
# Elastic Compliance Matrix: (Units=1/GPa)
#
#
# Indices 1 2 3 4 5 6 
#
# 1 0.007912 -0.009228 -0.002332 0.000000 0.000000 0.000000
# 2 -0.009228 0.145374 -0.013118 0.000000 0.000000 0.000000
# 3 -0.002332 -0.013118 0.011172 0.000000 0.000000 0.000000
# 4 0.000000 0.000000 0.000000 0.030838 0.000000 0.000000
# 5 0.000000 0.000000 0.000000 0.000000 0.021760 0.000000
# 6 0.000000 0.000000 0.000000 0.000000 0.000000 0.028979
#
#
# Mechanical properties :
#
#
# Convention : Reuss Voigt Hill
#
# Bulk Modulus (GPa) = 8.68796 48.86400 28.77598
# Shear Modulus (GPa) = 14.98094 36.23528 25.60811
#
# Velocity S-wave (km/s) = 2.50958 3.90299 3.28110
# Velocity P-wave (km/s) = 3.47127 6.39167 5.14311
#
# Compressibility (1/GPa) = 0.11510180
#
# Stress axis : x y z
#
# Youngs Moduli (GPa) = 126.38918 6.87882 89.50982
#
# Poissons Ratio (x) = 0.06348 0.20872
# Poissons Ratio (y) = 1.16629 1.17423
# Poissons Ratio (z) = 0.29472 0.09024
#
# Static dielectric constant tensor:
#      x y z
#    x 2.014130 0.000000 0.000000 
#    y 0.000000 2.096720 0.000000 
#    z 0.000000 0.000000 1.998990 
# 
# From -- ./inp_files/11831.got.cif
#   From: 2010.05.17/outbox.cif.g08.bks.cpg/sg60_6_cif.got.tgz:11831.got - 2010.06.03 14:59:27.
