data_PCOD9458407
_publ_section_title
;
Structure prediction by ZEFSAII (Michael W. Deem and Ramdas Pophale) SiO2 
 PCOD9458407
Probable space group: P B C N
;
_chemical_formula_sum "Si O2"
_cell_formula_units_Z 36
_cell_length_a 5.633665
_cell_length_b 19.975845
_cell_length_c 13.981708
_cell_angle_alpha 90.000000
_cell_angle_beta 90.000000
_cell_angle_gamma 90.000000
_cell_volume 1573.462533
_symmetry_space_group_name_H-M "P B C N"
_symmetry_group_IT_number 60
_symmetry_cell_setting 'orthorhombic'
loop_
_space_group_symop_operation_xyz
x,y,z
1/2-x,1/2-y,1/2+z
1/2+x,1/2-y,-z
-x,y,1/2-z
-x,-y,-z
1/2+x,1/2+y,1/2-z
1/2-x,1/2+y,z
x,-y,1/2+z
loop_
_atom_site_type_symbol
_atom_site_label
_atom_site_fract_x
_atom_site_fract_y
_atom_site_fract_z
Si Si1 0.470238 0.885851 0.483674
Si Si2 0.246212 0.671398 0.803773
Si Si3 0.000000 0.064470 0.250000
Si Si4 0.179607 0.674364 0.337727
Si Si5 0.292643 0.493417 0.078262
O O1 0.274600 0.863691 0.407332
O O2 0.554371 0.830704 0.559285
O O3 0.386408 0.947733 0.547963
O O4 0.688580 0.919296 0.427844
O O5 0.500000 0.660447 0.750000
O O6 0.224766 0.751229 0.822831
O O7 0.000000 0.652570 0.750000
O O8 0.130899 0.114840 0.323660
O O9 0.148795 0.014438 0.185269
O O10 0.000000 0.662495 0.250000
O O11 0.500000 0.500000 0.000000
#
# Coordination Sequence:
#
# PCOD9458407 Si02
#       5
#     8   8   4   8   8
#     4  11  26  47  71 107 147 195 252 309 376 452
#     4  11  28  49  75 113 154 199 251 318 384 448
#     4  12  22  42  76 102 146 194 240 314 364 456
#     4  11  23  45  74 106 147 192 252 305 376 451
#     4  11  25  43  70 107 143 194 249 303 373 448
#
# _framework density 22.879477000000001
#
# number of rings (size 3 to 8) (size 9 to 14) (size 15 to 20)
#    0.000    0.889    5.556    0.000    3.111    7.111 
#    0.000    0.000    0.000    0.000    0.000    0.000 
#    0.000    0.000    0.000    0.000    0.000    0.000 
#
# Total GULP energy -201121.410372 kJ/mol
# GULP energy per Si atom -5586.705844 kJ/mol
# Density = 2.282740 g / cm^3
# Si number density = 22.879477 Si / 1000 Ang^3
#
#
#
# Elastic Constant Matrix: (Units=GPa)
#
#
# Indices 1 2 3 4 5 6 
#
# 1 81.4395 20.1819 49.5968 0.0000 0.0000 0.0000
# 2 20.1819 39.8834 42.7500 0.0000 0.0000 0.0000
# 3 49.5968 42.7500 142.4405 0.0000 0.0000 0.0000
# 4 0.0000 0.0000 0.0000 20.3804 0.0000 0.0000
# 5 0.0000 0.0000 0.0000 0.0000 45.2211 0.0000
# 6 0.0000 0.0000 0.0000 0.0000 0.0000 0.3248
#
#
#
# Elastic Compliance Matrix: (Units=1/GPa)
#
#
# Indices 1 2 3 4 5 6 
#
# 1 0.015840 -0.003101 -0.004584 0.000000 0.000000 0.000000
# 2 -0.003101 0.037572 -0.010196 0.000000 0.000000 0.000000
# 3 -0.004584 -0.010196 0.011677 0.000000 0.000000 0.000000
# 4 0.000000 0.000000 0.000000 0.049067 0.000000 0.000000
# 5 0.000000 0.000000 0.000000 0.000000 0.022114 0.000000
# 6 0.000000 0.000000 0.000000 0.000000 0.000000 3.079257
#
#
# Mechanical properties :
#
#
# Convention : Reuss Voigt Hill
#
# Bulk Modulus (GPa) = 34.10179 54.31345 44.20762
# Shear Modulus (GPa) = 1.53324 23.26756 12.40040
#
# Velocity S-wave (km/s) = 0.81951 3.19244 2.33059
# Velocity P-wave (km/s) = 3.97904 6.11387 5.15811
#
# Compressibility (1/GPa) = 0.02932397
#
# Stress axis : x y z
#
# Youngs Moduli (GPa) = 63.13317 26.61588 85.63883
#
# Poissons Ratio (x) = 0.08254 0.39261
# Poissons Ratio (y) = 0.19579 0.87320
# Poissons Ratio (z) = 0.28943 0.27139
#
# Static dielectric constant tensor:
#      x y z
#    x 1.937930 0.000000 0.000000 
#    y 0.000000 1.837160 0.000000 
#    z 0.000000 0.000000 1.889810 
# 
# From -- ./inp_files/13733.got.cif
#   From: 2010.05.17/outbox.cif.g08.bks.cpg/sg60_7_cif.got.tgz:13733.got - 2010.06.03 14:59:27.
