data_PCOD9458304
_publ_section_title
;
Structure prediction by ZEFSAII (Michael W. Deem and Ramdas Pophale) SiO2 
 PCOD9458304
Probable space group: P B C N
;
_chemical_formula_sum "Si O2"
_cell_formula_units_Z 48
_cell_length_a 13.348902
_cell_length_b 22.878005
_cell_length_c 7.837170
_cell_angle_alpha 90.000000
_cell_angle_beta 90.000000
_cell_angle_gamma 90.000000
_cell_volume 2393.442303
_symmetry_space_group_name_H-M "P B C N"
_symmetry_group_IT_number 60
_symmetry_cell_setting 'orthorhombic'
loop_
_space_group_symop_operation_xyz
x,y,z
1/2-x,1/2-y,1/2+z
1/2+x,1/2-y,-z
-x,y,1/2-z
-x,-y,-z
1/2+x,1/2+y,1/2-z
1/2-x,1/2+y,z
x,-y,1/2+z
loop_
_atom_site_type_symbol
_atom_site_label
_atom_site_fract_x
_atom_site_fract_y
_atom_site_fract_z
Si Si1 0.893533 0.954149 0.659633
Si Si2 0.768027 0.813166 0.105792
Si Si3 0.924398 0.706710 0.095640
Si Si4 0.610511 0.414947 0.269163
Si Si5 0.241184 0.147786 0.287571
Si Si6 0.084673 0.239323 0.348940
O O1 0.886450 0.934332 0.464633
O O2 0.805207 0.915846 0.742615
O O3 0.000000 0.941197 0.750000
O O4 0.883092 0.023962 0.667596
O O5 0.854412 0.764015 0.114551
O O6 0.808232 0.870299 0.199194
O O7 0.669517 0.787092 0.196991
O O8 0.747750 0.824076 0.903116
O O9 0.845286 0.653883 0.111101
O O10 0.000000 0.700642 0.250000
O O11 0.001859 0.721094 0.945685
O O12 0.500000 0.387313 0.250000
O O13 0.161149 0.186945 0.396639
O O14 0.000000 0.202284 0.250000
#
# Coordination Sequence:
#
# PCOD9458304 Si02
#       6
#     8   8   8   8   8   8
#     4  11  23  39  62  87 121 153 195 244 300 351
#     4  11  23  37  60  88 119 158 199 241 296 354
#     4  11  23  38  57  86 122 158 195 239 295 350
#     4  11  23  39  61  88 118 155 195 245 298 355
#     4  11  23  37  59  87 120 158 198 243 294 351
#     4  11  23  38  58  86 122 157 195 243 293 353
#
# _framework density 20.054797000000001
#
# number of rings (size 3 to 8) (size 9 to 14) (size 15 to 20)
#    0.000    1.000    3.333    5.000    7.000    0.000 
#    0.000    0.000    0.000    2.000    0.000    0.000 
#    0.000    0.000    0.000    0.000    0.000    0.000 
#
# Total GULP energy -267272.996539 kJ/mol
# GULP energy per Si atom -5568.187428 kJ/mol
# Density = 2.000915 g / cm^3
# Si number density = 20.054797 Si / 1000 Ang^3
#
#
#
# Elastic Constant Matrix: (Units=GPa)
#
#
# Indices 1 2 3 4 5 6 
#
# 1 151.1951 48.0567 24.6694 0.0000 0.0000 0.0000
# 2 48.0567 86.8181 13.9870 0.0000 0.0000 0.0000
# 3 24.6694 13.9870 55.3121 0.0000 0.0000 0.0000
# 4 0.0000 0.0000 0.0000 19.2612 0.0000 0.0000
# 5 0.0000 0.0000 0.0000 0.0000 23.4721 0.0000
# 6 0.0000 0.0000 0.0000 0.0000 0.0000 29.0686
#
#
#
# Elastic Compliance Matrix: (Units=1/GPa)
#
#
# Indices 1 2 3 4 5 6 
#
# 1 0.008390 -0.004213 -0.002677 0.000000 0.000000 0.000000
# 2 -0.004213 0.014123 -0.001692 0.000000 0.000000 0.000000
# 3 -0.002677 -0.001692 0.019701 0.000000 0.000000 0.000000
# 4 0.000000 0.000000 0.000000 0.051918 0.000000 0.000000
# 5 0.000000 0.000000 0.000000 0.000000 0.042604 0.000000
# 6 0.000000 0.000000 0.000000 0.000000 0.000000 0.034401
#
#
# Mechanical properties :
#
#
# Convention : Reuss Voigt Hill
#
# Bulk Modulus (GPa) = 39.92000 51.86130 45.89065
# Shear Modulus (GPa) = 25.42587 28.13451 26.78019
#
# Velocity S-wave (km/s) = 3.56451 3.74957 3.65821
# Velocity P-wave (km/s) = 6.07368 6.68294 6.38558
#
# Compressibility (1/GPa) = 0.02505010
#
# Stress axis : x y z
#
# Youngs Moduli (GPa) = 119.19394 70.80695 50.75904
#
# Poissons Ratio (x) = 0.29829 0.13586
# Poissons Ratio (y) = 0.50214 0.08591
# Poissons Ratio (z) = 0.31903 0.11983
#
# Static dielectric constant tensor:
#      x y z
#    x 1.697680 0.000000 0.000000 
#    y 0.000000 1.726950 0.000000 
#    z 0.000000 0.000000 1.869450 
# 
# From -- ./inp_files/5079.got.cif
#   From: 2010.05.17/outbox.cif.g08.bks.cpg/sg60_3_cif.got.tgz:5079.got - 2010.06.03 14:59:27.
