data_PCOD9458266
_publ_section_title
;
Structure prediction by ZEFSAII (Michael W. Deem and Ramdas Pophale) SiO2 
 PCOD9458266
Probable space group: P B C N
;
_chemical_formula_sum "Si O2"
_cell_formula_units_Z 64
_cell_length_a 10.788554
_cell_length_b 9.651878
_cell_length_c 29.910407
_cell_angle_alpha 90.000000
_cell_angle_beta 90.000000
_cell_angle_gamma 90.000000
_cell_volume 3114.564908
_symmetry_space_group_name_H-M "P B C N"
_symmetry_group_IT_number 60
_symmetry_cell_setting 'orthorhombic'
loop_
_space_group_symop_operation_xyz
x,y,z
1/2-x,1/2-y,1/2+z
1/2+x,1/2-y,-z
-x,y,1/2-z
-x,-y,-z
1/2+x,1/2+y,1/2-z
1/2-x,1/2+y,z
x,-y,1/2+z
loop_
_atom_site_type_symbol
_atom_site_label
_atom_site_fract_x
_atom_site_fract_y
_atom_site_fract_z
Si Si1 0.836156 0.860296 0.454470
Si Si2 0.634871 0.332160 0.808842
Si Si3 0.286788 0.935321 0.136107
Si Si4 0.094208 0.851757 0.426120
Si Si5 0.252893 0.094000 0.846027
Si Si6 0.679594 0.081914 0.509542
Si Si7 0.536469 0.030974 0.090484
Si Si8 0.341568 0.355653 0.794422
O O1 0.790117 0.861980 0.403516
O O2 0.846622 0.708563 0.476286
O O3 0.975712 0.918687 0.450057
O O4 0.741786 0.953279 0.483402
O O5 0.706066 0.453578 0.835995
O O6 0.660704 0.186338 0.832788
O O7 0.487741 0.360524 0.805586
O O8 0.677235 0.320030 0.757355
O O9 0.401037 0.008033 0.110508
O O10 0.135767 0.916774 0.379248
O O11 0.212357 0.864055 0.457725
O O12 0.065980 0.691907 0.416002
O O13 0.281056 0.246853 0.828707
O O14 0.368531 0.035882 0.873995
O O15 0.223241 0.000916 0.803678
O O16 0.566822 0.040827 0.542578
#
# Coordination Sequence:
#
# PCOD9458266 Si02
#       8
#     8   8   8   8   8   8   8   8
#     4  12  25  42  66  93 136 176 222 283 330 400
#     4  11  25  45  69 103 135 174 227 277 342 405
#     4  12  25  45  68  97 140 179 222 277 344 400
#     4  11  23  41  66  97 132 168 233 272 332 403
#     4  11  22  42  70  99 132 178 221 273 343 396
#     4  11  25  43  64  98 131 175 228 278 335 394
#     4  11  23  42  69  94 136 177 220 281 327 411
#     4  11  23  44  72 100 136 173 223 284 332 412
#
# _framework density 20.548615000000002
#
# number of rings (size 3 to 8) (size 9 to 14) (size 15 to 20)
#    0.000    0.750    3.750    4.125    1.750    1.000 
#    2.250    0.000    0.000    0.000    0.000    0.000 
#    0.000    0.000    0.000    0.000    0.000    0.000 
#
# Total GULP energy -357826.491589 kJ/mol
# GULP energy per Si atom -5591.038931 kJ/mol
# Density = 2.050185 g / cm^3
# Si number density = 20.548615 Si / 1000 Ang^3
#
#
#
# Elastic Constant Matrix: (Units=GPa)
#
#
# Indices 1 2 3 4 5 6 
#
# 1 67.9809 9.1899 39.9221 0.0000 0.0000 0.0000
# 2 9.1899 58.4487 26.6488 0.0000 0.0000 0.0000
# 3 39.9221 26.6488 123.1780 0.0000 0.0000 0.0000
# 4 0.0000 0.0000 0.0000 42.1696 0.0000 0.0000
# 5 0.0000 0.0000 0.0000 0.0000 35.3071 0.0000
# 6 0.0000 0.0000 0.0000 0.0000 0.0000 25.9886
#
#
#
# Elastic Compliance Matrix: (Units=1/GPa)
#
#
# Indices 1 2 3 4 5 6 
#
# 1 0.018170 -0.000191 -0.005848 0.000000 0.000000 0.000000
# 2 -0.000191 0.018983 -0.004045 0.000000 0.000000 0.000000
# 3 -0.005848 -0.004045 0.010889 0.000000 0.000000 0.000000
# 4 0.000000 0.000000 0.000000 0.023714 0.000000 0.000000
# 5 0.000000 0.000000 0.000000 0.000000 0.028323 0.000000
# 6 0.000000 0.000000 0.000000 0.000000 0.000000 0.038478
#
#
# Mechanical properties :
#
#
# Convention : Reuss Voigt Hill
#
# Bulk Modulus (GPa) = 35.87450 44.56994 40.22222
# Shear Modulus (GPa) = 29.75916 32.28284 31.02100
#
# Velocity S-wave (km/s) = 3.80969 3.96794 3.88962
# Velocity P-wave (km/s) = 6.07025 6.53681 6.30784
#
# Compressibility (1/GPa) = 0.02787495
#
# Stress axis : x y z
#
# Youngs Moduli (GPa) = 55.03628 52.67783 91.83848
#
# Poissons Ratio (x) = 0.01005 0.53703
# Poissons Ratio (y) = 0.01050 0.37150
# Poissons Ratio (z) = 0.32183 0.21309
#
# Static dielectric constant tensor:
#      x y z
#    x 1.753760 0.000000 0.000000 
#    y 0.000000 1.691790 0.000000 
#    z 0.000000 0.000000 1.725770 
# 
# From -- ./inp_files/26118.got.cif
#   From: 2010.05.17/outbox.cif.g08.bks.cpg/sg60_14_cif.got.tgz:26118.got - 2010.06.03 14:59:27.
