data_PCOD9458282
_publ_section_title
;
Structure prediction by ZEFSAII (Michael W. Deem and Ramdas Pophale) SiO2 
 PCOD9458282
Probable space group: P B C N
;
_chemical_formula_sum "Si O2"
_cell_formula_units_Z 60
_cell_length_a 9.516569
_cell_length_b 17.392033
_cell_length_c 13.861134
_cell_angle_alpha 90.000000
_cell_angle_beta 90.000000
_cell_angle_gamma 90.000000
_cell_volume 2294.190693
_symmetry_space_group_name_H-M "P B C N"
_symmetry_group_IT_number 60
_symmetry_cell_setting 'orthorhombic'
loop_
_space_group_symop_operation_xyz
x,y,z
1/2-x,1/2-y,1/2+z
1/2+x,1/2-y,-z
-x,y,1/2-z
-x,-y,-z
1/2+x,1/2+y,1/2-z
1/2-x,1/2+y,z
x,-y,1/2+z
loop_
_atom_site_type_symbol
_atom_site_label
_atom_site_fract_x
_atom_site_fract_y
_atom_site_fract_z
Si Si1 0.070121 0.186210 0.487544
Si Si2 0.000000 0.739716 0.250000
Si Si3 0.265309 0.525895 0.136798
Si Si4 0.468111 0.147911 0.898961
Si Si5 0.968291 0.595946 0.109262
Si Si6 0.153991 0.937852 0.833124
Si Si7 0.166858 0.089183 0.924747
Si Si8 0.763170 0.846636 0.333896
O O1 0.091106 0.125244 0.402805
O O2 0.202148 0.185819 0.559089
O O3 0.055431 0.267535 0.439829
O O4 0.939054 0.158221 0.552545
O O5 0.017695 0.680176 0.339976
O O6 0.135730 0.794428 0.232614
O O7 0.346186 0.574505 0.218848
O O8 0.294611 0.437207 0.159081
O O9 0.099981 0.546075 0.145792
O O10 0.303673 0.551001 0.029220
O O11 0.313513 0.114920 0.877098
O O12 0.595876 0.155194 0.824772
O O13 0.520691 0.100566 0.993588
O O14 0.819750 0.561583 0.139007
O O15 0.099071 0.021840 0.861868
#
# Coordination Sequence:
#
# PCOD9458282 Si02
#       8
#     8   4   8   8   8   8   8   8
#     4  12  25  42  70 109 144 189 244 311 385 435
#     4  12  26  42  74 114 152 192 250 322 396 446
#     4  11  25  44  72 103 146 196 251 300 377 454
#     4  11  24  46  76 100 144 196 243 304 378 462
#     4  11  22  44  73 104 145 200 252 303 381 466
#     4  12  24  43  73 102 144 192 251 306 372 453
#     4  11  26  45  70 105 144 190 244 304 371 449
#     4  12  26  46  74 108 146 193 250 314 378 453
#
# _framework density 26.153013999999999
#
# number of rings (size 3 to 8) (size 9 to 14) (size 15 to 20)
#    0.000    0.533    5.333    2.000    3.733    2.667 
#    0.000    0.000    0.000    0.000    0.000    0.000 
#    0.000    0.000    0.000    0.000    0.000    0.000 
#
# Total GULP energy -336695.806871 kJ/mol
# GULP energy per Si atom -5611.596781 kJ/mol
# Density = 2.609349 g / cm^3
# Si number density = 26.153014 Si / 1000 Ang^3
#
#
#
# Elastic Constant Matrix: (Units=GPa)
#
#
# Indices 1 2 3 4 5 6 
#
# 1 140.8872 47.0964 47.5301 0.0000 0.0000 0.0000
# 2 47.0964 136.6417 16.1909 0.0000 0.0000 0.0000
# 3 47.5301 16.1909 112.5455 0.0000 0.0000 0.0000
# 4 0.0000 0.0000 0.0000 27.9189 0.0000 0.0000
# 5 0.0000 0.0000 0.0000 0.0000 57.6496 0.0000
# 6 0.0000 0.0000 0.0000 0.0000 0.0000 32.6441
#
#
#
# Elastic Compliance Matrix: (Units=1/GPa)
#
#
# Indices 1 2 3 4 5 6 
#
# 1 0.009196 -0.002756 -0.003487 0.000000 0.000000 0.000000
# 2 -0.002756 0.008271 -0.000026 0.000000 0.000000 0.000000
# 3 -0.003487 -0.000026 0.010362 0.000000 0.000000 0.000000
# 4 0.000000 0.000000 0.000000 0.035818 0.000000 0.000000
# 5 0.000000 0.000000 0.000000 0.000000 0.017346 0.000000
# 6 0.000000 0.000000 0.000000 0.000000 0.000000 0.030633
#
#
# Mechanical properties :
#
#
# Convention : Reuss Voigt Hill
#
# Bulk Modulus (GPa) = 65.40042 67.96770 66.68406
# Shear Modulus (GPa) = 38.68127 42.25965 40.47046
#
# Velocity S-wave (km/s) = 3.85000 4.02414 3.93803
# Velocity P-wave (km/s) = 6.69510 6.90192 6.79930
#
# Compressibility (1/GPa) = 0.01529042
#
# Stress axis : x y z
#
# Youngs Moduli (GPa) = 108.74728 120.89715 96.50984
#
# Poissons Ratio (x) = 0.33323 0.33653
# Poissons Ratio (y) = 0.29974 0.00250
# Poissons Ratio (z) = 0.37920 0.00313
#
# Static dielectric constant tensor:
#      x y z
#    x 2.066470 0.000000 0.000000 
#    y 0.000000 1.974860 0.000000 
#    z 0.000000 0.000000 2.102830 
# 
# From -- ./inp_files/19578.got.cif
#   From: 2010.05.17/outbox.cif.g08.bks.cpg/sg60_10_cif.got.tgz:19578.got - 2010.06.03 14:59:27.
