data_PCOD9458144
_publ_section_title
;
Structure prediction by ZEFSAII (Michael W. Deem and Ramdas Pophale) SiO2 
 PCOD9458144
Probable space group: P B C N
;
_chemical_formula_sum "Si O2"
_cell_formula_units_Z 60
_cell_length_a 8.948718
_cell_length_b 27.210638
_cell_length_c 12.966608
_cell_angle_alpha 90.000000
_cell_angle_beta 90.000000
_cell_angle_gamma 90.000000
_cell_volume 3157.373276
_symmetry_space_group_name_H-M "P B C N"
_symmetry_group_IT_number 60
_symmetry_cell_setting 'orthorhombic'
loop_
_space_group_symop_operation_xyz
x,y,z
1/2-x,1/2-y,1/2+z
1/2+x,1/2-y,-z
-x,y,1/2-z
-x,-y,-z
1/2+x,1/2+y,1/2-z
1/2-x,1/2+y,z
x,-y,1/2+z
loop_
_atom_site_type_symbol
_atom_site_label
_atom_site_fract_x
_atom_site_fract_y
_atom_site_fract_z
Si Si1 0.124989 0.836375 0.342685
Si Si2 0.000000 0.115992 0.250000
Si Si3 0.226551 0.541175 0.241352
Si Si4 0.569301 0.322322 0.545506
Si Si5 0.069429 0.280604 0.355478
Si Si6 0.852879 0.366928 0.436465
Si Si7 0.320951 0.428287 0.241171
Si Si8 0.498853 0.049432 0.432582
O O1 0.261288 0.798524 0.336071
O O2 0.204189 0.889801 0.333411
O O3 0.000000 0.830979 0.250000
O O4 0.038894 0.832604 0.449471
O O5 0.138656 0.078756 0.250335
O O6 0.013898 0.149340 0.352358
O O7 0.260427 0.483029 0.242261
O O8 0.122859 0.548042 0.341086
O O9 0.150048 0.552959 0.132167
O O10 0.571372 0.264011 0.564658
O O11 0.733118 0.341561 0.512412
O O12 0.000000 0.260624 0.250000
O O13 0.959470 0.325414 0.387072
O O14 0.753012 0.398485 0.354525
O O15 0.957652 0.405146 0.495706
O O16 0.500000 0.434101 0.250000
O O17 0.500000 0.000000 0.500000
#
# Coordination Sequence:
#
# PCOD9458144 Si02
#       8
#     8   4   8   8   8   8   8   8
#     4  11  24  44  71 102 133 171 233 296 342 404
#     4  12  26  44  66  94 142 186 226 278 344 430
#     4  11  25  42  66 101 138 179 233 272 345 425
#     4  12  25  48  66  98 141 184 234 288 348 419
#     4  12  25  43  72 103 133 179 237 285 358 414
#     4  12  24  45  69  99 140 179 231 295 342 415
#     4  11  21  41  69 100 133 176 225 285 340 405
#     4  11  25  42  65 101 137 179 224 286 346 405
#
# _framework density 19.003138
#
# number of rings (size 3 to 8) (size 9 to 14) (size 15 to 20)
#    0.000    0.533    8.000    0.800    3.733    0.000 
#    0.000    4.000    0.000    0.000    0.000    0.000 
#    0.000    0.000    0.000    0.000    0.000    0.000 
#
# Total GULP energy -334814.520931 kJ/mol
# GULP energy per Si atom -5580.242016 kJ/mol
# Density = 1.895989 g / cm^3
# Si number density = 19.003138 Si / 1000 Ang^3
#
#
#
# Elastic Constant Matrix: (Units=GPa)
#
#
# Indices 1 2 3 4 5 6 
#
# 1 66.5535 36.7350 44.2152 0.0000 0.0000 0.0000
# 2 36.7350 120.9116 40.2781 0.0000 0.0000 0.0000
# 3 44.2152 40.2781 103.6514 0.0000 0.0000 0.0000
# 4 0.0000 0.0000 0.0000 28.0728 0.0000 0.0000
# 5 0.0000 0.0000 0.0000 0.0000 29.3226 0.0000
# 6 0.0000 0.0000 0.0000 0.0000 0.0000 0.0773
#
#
#
# Elastic Compliance Matrix: (Units=1/GPa)
#
#
# Indices 1 2 3 4 5 6 
#
# 1 0.022696 -0.004216 -0.008043 0.000000 0.000000 0.000000
# 2 -0.004216 0.010283 -0.002198 0.000000 0.000000 0.000000
# 3 -0.008043 -0.002198 0.013933 0.000000 0.000000 0.000000
# 4 0.000000 0.000000 0.000000 0.035622 0.000000 0.000000
# 5 0.000000 0.000000 0.000000 0.000000 0.034103 0.000000
# 6 0.000000 0.000000 0.000000 0.000000 0.000000 12.937785
#
#
# Mechanical properties :
#
#
# Convention : Reuss Voigt Hill
#
# Bulk Modulus (GPa) = 55.56029 59.28591 57.42310
# Shear Modulus (GPa) = 0.38199 22.82043 11.60121
#
# Velocity S-wave (km/s) = 0.44883 3.46913 2.47349
# Velocity P-wave (km/s) = 5.43778 6.87838 6.20007
#
# Compressibility (1/GPa) = 0.01799847
#
# Stress axis : x y z
#
# Youngs Moduli (GPa) = 44.06011 97.24326 71.77321
#
# Poissons Ratio (x) = 0.40999 0.57730
# Poissons Ratio (y) = 0.18576 0.15773
# Poissons Ratio (z) = 0.35439 0.21370
#
# Static dielectric constant tensor:
#      x y z
#    x 1.814230 0.000000 0.000000 
#    y 0.000000 1.648150 0.000000 
#    z 0.000000 0.000000 1.650540 
# 
# From -- ./inp_files/10295.got.cif
#   From: 2010.05.17/outbox.cif.g08.bks.cpg/sg60_6_cif.got.tgz:10295.got - 2010.06.03 14:59:27.
