data_PCOD9458865
_publ_section_title
;
Structure prediction by ZEFSAII (Michael W. Deem and Ramdas Pophale) SiO2 
 PCOD9458865
Probable space group: P B C N
;
_chemical_formula_sum "Si O2"
_cell_formula_units_Z 48
_cell_length_a 7.005191
_cell_length_b 19.551500
_cell_length_c 12.106011
_cell_angle_alpha 90.000000
_cell_angle_beta 90.000000
_cell_angle_gamma 90.000000
_cell_volume 1658.063380
_symmetry_space_group_name_H-M "P B C N"
_symmetry_group_IT_number 60
_symmetry_cell_setting 'orthorhombic'
loop_
_space_group_symop_operation_xyz
x,y,z
1/2-x,1/2-y,1/2+z
1/2+x,1/2-y,-z
-x,y,1/2-z
-x,-y,-z
1/2+x,1/2+y,1/2-z
1/2-x,1/2+y,z
x,-y,1/2+z
loop_
_atom_site_type_symbol
_atom_site_label
_atom_site_fract_x
_atom_site_fract_y
_atom_site_fract_z
Si Si1 0.325042 0.350175 0.581544
Si Si2 0.707698 0.974272 0.629944
Si Si3 0.208676 0.826939 0.336077
Si Si4 0.872639 0.674133 0.114636
Si Si5 0.250607 0.502627 0.129542
Si Si6 0.854949 0.302901 0.372776
O O1 0.370398 0.353697 0.450669
O O2 0.362396 0.425194 0.625542
O O3 0.397852 0.278884 0.632611
O O4 0.096685 0.338783 0.597438
O O5 0.712234 0.894180 0.663712
O O6 0.480891 0.991967 0.626434
O O7 0.783930 0.016944 0.737535
O O8 0.779452 0.978023 0.501014
O O9 0.160297 0.746238 0.330728
O O10 0.201777 0.840149 0.205615
O O11 0.437447 0.835300 0.356483
O O12 0.784591 0.685294 0.994891
#
# Coordination Sequence:
#
# PCOD9458865 Si02
#       6
#     8   8   8   8   8   8
#     4   9  17  29  45  65  89 117 148 181 219 264
#     4   9  17  28  43  64  88 114 146 184 223 261
#     4   9  17  28  43  65  91 117 145 179 220 264
#     4   9  17  29  45  65  89 117 148 181 219 264
#     4   9  17  28  43  64  88 114 146 184 223 261
#     4   9  17  28  43  65  91 117 145 179 220 264
#
# _framework density 28.949437
#
# number of rings (size 3 to 8) (size 9 to 14) (size 15 to 20)
#    0.000    3.000    0.000    1.000    0.000    3.333 
#    0.000    6.667    0.000    1.000    0.000    0.000 
#    0.000    0.000    0.000    0.000    0.000    0.000 
#
# Total GULP energy -267636.125673 kJ/mol
# GULP energy per Si atom -5575.752618 kJ/mol
# Density = 2.888355 g / cm^3
# Si number density = 28.949437 Si / 1000 Ang^3
#
#
#
# Elastic Constant Matrix: (Units=GPa)
#
#
# Indices 1 2 3 4 5 6 
#
# 1 100.9524 -10.2493 6.6223 0.0000 0.0000 0.0000
# 2 -10.2493 90.7747 18.0824 0.0000 0.0000 0.0000
# 3 6.6223 18.0824 250.3525 0.0000 0.0000 0.0000
# 4 0.0000 0.0000 0.0000 28.0524 0.0000 0.0000
# 5 0.0000 0.0000 0.0000 0.0000 21.7955 0.0000
# 6 0.0000 0.0000 0.0000 0.0000 0.0000 10.4105
#
#
#
# Elastic Compliance Matrix: (Units=1/GPa)
#
#
# Indices 1 2 3 4 5 6 
#
# 1 0.010051 0.001205 -0.000353 0.000000 0.000000 0.000000
# 2 0.001205 0.011322 -0.000850 0.000000 0.000000 0.000000
# 3 -0.000353 -0.000850 0.004065 0.000000 0.000000 0.000000
# 4 0.000000 0.000000 0.000000 0.035648 0.000000 0.000000
# 5 0.000000 0.000000 0.000000 0.000000 0.045881 0.000000
# 6 0.000000 0.000000 0.000000 0.000000 0.000000 0.096057
#
#
# Mechanical properties :
#
#
# Convention : Reuss Voigt Hill
#
# Bulk Modulus (GPa) = 39.30334 52.33224 45.81779
# Shear Modulus (GPa) = 23.64073 40.55995 32.10034
#
# Velocity S-wave (km/s) = 2.86076 3.74714 3.33354
# Velocity P-wave (km/s) = 4.95156 6.06941 5.53876
#
# Compressibility (1/GPa) = 0.02544313
#
# Stress axis : x y z
#
# Youngs Moduli (GPa) = 99.49094 88.32668 245.99827
#
# Poissons Ratio (x) = -0.10645 0.08682
# Poissons Ratio (y) = -0.11990 0.20900
# Poissons Ratio (z) = 0.03511 0.07504
#
# Static dielectric constant tensor:
#      x y z
#    x 2.226010 0.000000 0.000000 
#    y 0.000000 2.270580 0.000000 
#    z 0.000000 0.000000 2.274520 
# 
# From -- ./inp_files/11000.got.cif
#   From: 2010.05.17/outbox.cif.g08.bks.cpg/sg60_6_cif.got.tgz:11000.got - 2010.06.03 14:59:27.
