data_PCOD9458181
_publ_section_title
;
Structure prediction by ZEFSAII (Michael W. Deem and Ramdas Pophale) SiO2 
 PCOD9458181
Probable space group: P B C N
;
_chemical_formula_sum "Si O2"
_cell_formula_units_Z 40
_cell_length_a 13.935128
_cell_length_b 11.366659
_cell_length_c 10.961835
_cell_angle_alpha 90.000000
_cell_angle_beta 90.000000
_cell_angle_gamma 90.000000
_cell_volume 1736.309152
_symmetry_space_group_name_H-M "P B C N"
_symmetry_group_IT_number 60
_symmetry_cell_setting 'orthorhombic'
loop_
_space_group_symop_operation_xyz
x,y,z
1/2-x,1/2-y,1/2+z
1/2+x,1/2-y,-z
-x,y,1/2-z
-x,-y,-z
1/2+x,1/2+y,1/2-z
1/2-x,1/2+y,z
x,-y,1/2+z
loop_
_atom_site_type_symbol
_atom_site_label
_atom_site_fract_x
_atom_site_fract_y
_atom_site_fract_z
Si Si1 0.001984 0.728819 0.440014
Si Si2 0.500000 0.380319 0.750000
Si Si3 0.884400 0.678440 0.670311
Si Si4 0.118562 0.950967 0.123011
Si Si5 0.000000 0.523382 0.250000
Si Si6 0.680512 0.599604 0.602098
O O1 0.970407 0.689210 0.572998
O O2 0.918688 0.819112 0.397635
O O3 0.005030 0.611223 0.362399
O O4 0.099466 0.802347 0.425509
O O5 0.405317 0.299464 0.759701
O O6 0.476373 0.466323 0.638128
O O7 0.783246 0.663086 0.607262
O O8 0.908248 0.562490 0.747449
O O9 0.164481 0.949913 0.259366
O O10 0.175562 0.003546 0.007544
#
# Coordination Sequence:
#
# PCOD9458181 Si02
#       6
#     8   4   8   8   4   8
#     4  12  23  49  72 105 152 199 247 313 379 446
#     4  11  21  48  74 108 151 197 246 310 386 431
#     4  11  28  43  73 111 152 201 244 310 381 462
#     4  12  24  47  80 110 147 194 257 323 365 444
#     4  11  25  48  68  98 157 197 240 306 388 437
#     4  12  26  46  80 114 144 197 256 311 376 453
#
# _framework density 23.037371
#
# number of rings (size 3 to 8) (size 9 to 14) (size 15 to 20)
#    0.000    0.400    6.000    2.400    2.800    4.800 
#    0.000    0.000    0.000    0.000    0.000    0.000 
#    0.000    0.000    0.000    0.000    0.000    0.000 
#
# Total GULP energy -223515.039160 kJ/mol
# GULP energy per Si atom -5587.875979 kJ/mol
# Density = 2.298494 g / cm^3
# Si number density = 23.037371 Si / 1000 Ang^3
#
#
#
# Elastic Constant Matrix: (Units=GPa)
#
#
# Indices 1 2 3 4 5 6 
#
# 1 110.0331 33.6617 41.0502 0.0000 0.0000 0.0000
# 2 33.6617 135.1870 30.2478 0.0000 0.0000 0.0000
# 3 41.0502 30.2478 113.9138 0.0000 0.0000 0.0000
# 4 0.0000 0.0000 0.0000 -61.2788 0.0000 0.0000
# 5 0.0000 0.0000 0.0000 0.0000 28.6058 0.0000
# 6 0.0000 0.0000 0.0000 0.0000 0.0000 25.0826
#
#
#
# Elastic Compliance Matrix: (Units=1/GPa)
#
#
# Indices 1 2 3 4 5 6 
#
# 1 0.010969 -0.001964 -0.003431 0.000000 0.000000 0.000000
# 2 -0.001964 0.008216 -0.001474 0.000000 0.000000 0.000000
# 3 -0.003431 -0.001474 0.010407 0.000000 0.000000 0.000000
# 4 0.000000 0.000000 0.000000 -0.016319 0.000000 0.000000
# 5 0.000000 0.000000 0.000000 0.000000 0.034958 0.000000
# 6 0.000000 0.000000 0.000000 0.000000 0.000000 0.039868
#
#
# Mechanical properties :
#
#
# Convention : Reuss Voigt Hill
#
# Bulk Modulus (GPa) = 63.07756 63.22816 63.15286
# Shear Modulus (GPa) = 46.67608 15.42686 31.05147
#
# Velocity S-wave (km/s) = 4.50611 2.59056 3.67532
# Velocity P-wave (km/s) = 7.38331 6.03767 6.74414
#
# Compressibility (1/GPa) = 0.01585350
#
# Stress axis : x y z
#
# Youngs Moduli (GPa) = 91.16577 121.71538 96.09360
#
# Poissons Ratio (x) = 0.23899 0.32974
# Poissons Ratio (y) = 0.17901 0.14164
# Poissons Ratio (z) = 0.31283 0.17941
#
# Static dielectric constant tensor:
#      x y z
#    x 1.857660 0.000000 0.000000 
#    y 0.000000 1.892780 0.000000 
#    z 0.000000 0.000000 -0.494470 
# 
# From -- ./inp_files/11746.got.cif
#   From: 2010.05.17/outbox.cif.g08.bks.cpg/sg60_6_cif.got.tgz:11746.got - 2010.06.03 14:59:27.
