data_PCOD9458288
_publ_section_title
;
Structure prediction by ZEFSAII (Michael W. Deem and Ramdas Pophale) SiO2 
 PCOD9458288
Probable space group: P B C N
;
_chemical_formula_sum "Si O2"
_cell_formula_units_Z 40
_cell_length_a 8.051819
_cell_length_b 24.097147
_cell_length_c 8.461480
_cell_angle_alpha 90.000000
_cell_angle_beta 90.000000
_cell_angle_gamma 90.000000
_cell_volume 1641.745985
_symmetry_space_group_name_H-M "P B C N"
_symmetry_group_IT_number 60
_symmetry_cell_setting 'orthorhombic'
loop_
_space_group_symop_operation_xyz
x,y,z
1/2-x,1/2-y,1/2+z
1/2+x,1/2-y,-z
-x,y,1/2-z
-x,-y,-z
1/2+x,1/2+y,1/2-z
1/2-x,1/2+y,z
x,-y,1/2+z
loop_
_atom_site_type_symbol
_atom_site_label
_atom_site_fract_x
_atom_site_fract_y
_atom_site_fract_z
Si Si1 0.864817 0.549494 0.983481
Si Si2 0.176631 0.966500 0.331287
Si Si3 0.698268 0.233131 0.748760
Si Si4 0.408149 0.355634 0.423322
Si Si5 0.251244 0.334349 0.931483
O O1 0.809104 0.550079 0.802322
O O2 0.716540 0.523243 0.084635
O O3 0.870166 0.612849 0.045435
O O4 0.000000 0.500000 0.000000
O O5 0.178160 0.914672 0.450256
O O6 0.000000 0.972035 0.250000
O O7 0.500000 0.236351 0.750000
O O8 0.777493 0.193012 0.613322
O O9 0.772731 0.294238 0.717593
O O10 0.736907 0.204794 0.914602
O O11 0.500000 0.360391 0.250000
O O12 0.553345 0.349806 0.551120
#
# Coordination Sequence:
#
# PCOD9458288 Si02
#       5
#     8   8   8   8   8
#     4  12  26  44  70 108 144 188 250 307 369 441
#     4  11  22  45  72  94 140 194 233 298 374 443
#     4  11  23  42  73 102 140 188 241 301 368 435
#     4   9  19  41  68  92 134 186 229 281 365 439
#     4  11  24  46  66 105 145 189 239 297 375 450
#
# _framework density 24.364308000000001
#
# number of rings (size 3 to 8) (size 9 to 14) (size 15 to 20)
#    0.000    1.200    6.000    2.400    2.800    0.800 
#    3.600    6.000    0.000    0.000    0.000    0.000 
#    0.000    0.000    0.000    0.000    0.000    0.000 
#
# Total GULP energy -223378.594639 kJ/mol
# GULP energy per Si atom -5584.464866 kJ/mol
# Density = 2.430885 g / cm^3
# Si number density = 24.364308 Si / 1000 Ang^3
#
#
#
# Elastic Constant Matrix: (Units=GPa)
#
#
# Indices 1 2 3 4 5 6 
#
# 1 84.7466 37.2295 12.6774 0.0000 0.0000 0.0000
# 2 37.2295 186.6793 49.7409 0.0000 0.0000 0.0000
# 3 12.6774 49.7409 31.5257 0.0000 0.0000 0.0000
# 4 0.0000 0.0000 0.0000 18.1397 0.0000 0.0000
# 5 0.0000 0.0000 0.0000 0.0000 14.6909 0.0000
# 6 0.0000 0.0000 0.0000 0.0000 0.0000 7.4289
#
#
#
# Elastic Compliance Matrix: (Units=1/GPa)
#
#
# Indices 1 2 3 4 5 6 
#
# 1 0.013003 -0.002070 -0.001962 0.000000 0.000000 0.000000
# 2 -0.002070 0.009572 -0.014270 0.000000 0.000000 0.000000
# 3 -0.001962 -0.014270 0.055024 0.000000 0.000000 0.000000
# 4 0.000000 0.000000 0.000000 0.055128 0.000000 0.000000
# 5 0.000000 0.000000 0.000000 0.000000 0.068070 0.000000
# 6 0.000000 0.000000 0.000000 0.000000 0.000000 0.134610
#
#
# Mechanical properties :
#
#
# Convention : Reuss Voigt Hill
#
# Bulk Modulus (GPa) = 24.39388 55.80526 40.09957
# Shear Modulus (GPa) = 12.96425 21.60547 17.28486
#
# Velocity S-wave (km/s) = 2.30923 2.98109 2.66641
# Velocity P-wave (km/s) = 4.14052 5.89945 5.09644
#
# Compressibility (1/GPa) = 0.04099388
#
# Stress axis : x y z
#
# Youngs Moduli (GPa) = 76.90575 104.47260 18.17382
#
# Poissons Ratio (x) = 0.21629 0.03566
# Poissons Ratio (y) = 0.15922 0.25934
# Poissons Ratio (z) = 0.15092 1.49081
#
# Static dielectric constant tensor:
#      x y z
#    x 2.277510 0.000000 0.000000 
#    y 0.000000 1.996560 0.000000 
#    z 0.000000 0.000000 1.828640 
# 
# From -- ./inp_files/3875.got.cif
#   From: 2010.05.17/outbox.cif.g08.bks.cpg/sg60_2_cif.got.tgz:3875.got - 2010.06.03 14:59:27.
