data_PCOD9458983
_publ_section_title
;
Structure prediction by ZEFSAII (Michael W. Deem and Ramdas Pophale) SiO2 
 PCOD9458983
Probable space group: P B C A
;
_chemical_formula_sum "Si O2"
_cell_formula_units_Z 64
_cell_length_a 7.654652
_cell_length_b 25.761873
_cell_length_c 13.000563
_cell_angle_alpha 90.000000
_cell_angle_beta 90.000000
_cell_angle_gamma 90.000000
_cell_volume 2563.687267
_symmetry_space_group_name_H-M "P B C A"
_symmetry_group_IT_number 61
_symmetry_cell_setting 'orthorhombic'
loop_
_space_group_symop_operation_xyz
x,y,z
1/2-x,-y,1/2+z
1/2+x,1/2-y,-z
-x,1/2+y,1/2-z
-x,-y,-z
1/2+x,y,1/2-z
1/2-x,1/2+y,z
x,1/2-y,1/2+z
loop_
_atom_site_type_symbol
_atom_site_label
_atom_site_fract_x
_atom_site_fract_y
_atom_site_fract_z
Si Si1 0.656414 0.787889 0.130046
Si Si2 0.303313 0.677542 0.669470
Si Si3 0.472967 0.046550 0.151301
Si Si4 0.232870 0.024684 0.808696
Si Si5 0.491641 0.139543 0.319080
Si Si6 0.131885 0.311273 0.865644
Si Si7 0.971428 0.102772 0.819256
Si Si8 0.811345 0.130166 0.471232
O O1 0.692487 0.788380 0.251925
O O2 0.448056 0.788307 0.113115
O O3 0.778674 0.741169 0.093769
O O4 0.720352 0.842100 0.079576
O O5 0.421190 0.639298 0.740503
O O6 0.161582 0.639414 0.616886
O O7 0.352102 0.005495 0.211430
O O8 0.655045 0.017797 0.131270
O O9 0.492726 0.091839 0.238056
O O10 0.393752 0.073621 0.050188
O O11 0.093166 0.059157 0.871504
O O12 0.357763 0.066899 0.756844
O O13 0.557310 0.188524 0.251032
O O14 0.297658 0.149711 0.359650
O O15 0.635426 0.131385 0.405601
O O16 0.963942 0.332308 0.925728
#
# Coordination Sequence:
#
# PCOD9458983 Si02
#       8
#     8   8   8   8   8   8   8   8
#     4  11  24  41  62  86 111 167 213 253 300 362
#     4   9  19  40  61  78 114 155 212 253 301 347
#     4  10  16  32  55  89 120 159 184 231 306 373
#     4   9  15  26  59  91 113 146 206 228 291 386
#     4  11  20  38  61  86 132 160 193 248 304 365
#     4  11  22  39  60  89 121 164 201 244 302 361
#     4   8  16  31  57  88 107 149 206 250 287 352
#     4  11  24  39  57  92 131 156 196 260 301 355
#
# _framework density 24.964043
#
# number of rings (size 3 to 8) (size 9 to 14) (size 15 to 20)
#    0.000    2.000    3.750    1.500    1.750    0.000 
#    4.500    0.000    0.000   28.500    0.000    0.000 
#    0.000    0.000    0.000    0.000    0.000    0.000 
#
# Total GULP energy -357159.484607 kJ/mol
# GULP energy per Si atom -5580.616947 kJ/mol
# Density = 2.490722 g / cm^3
# Si number density = 24.964043 Si / 1000 Ang^3
#
#
#
# Elastic Constant Matrix: (Units=GPa)
#
#
# Indices 1 2 3 4 5 6 
#
# 1 85.6875 29.4482 6.0151 0.0000 0.0000 0.0000
# 2 29.4482 106.3134 7.7782 0.0000 0.0000 0.0000
# 3 6.0151 7.7782 44.7532 0.0000 0.0000 0.0000
# 4 0.0000 0.0000 0.0000 17.3933 0.0000 0.0000
# 5 0.0000 0.0000 0.0000 0.0000 6.1222 0.0000
# 6 0.0000 0.0000 0.0000 0.0000 0.0000 70.2840
#
#
#
# Elastic Compliance Matrix: (Units=1/GPa)
#
#
# Indices 1 2 3 4 5 6 
#
# 1 0.012955 -0.003506 -0.001132 0.000000 0.000000 0.000000
# 2 -0.003506 0.010476 -0.001350 0.000000 0.000000 0.000000
# 3 -0.001132 -0.001350 0.022731 0.000000 0.000000 0.000000
# 4 0.000000 0.000000 0.000000 0.057493 0.000000 0.000000
# 5 0.000000 0.000000 0.000000 0.000000 0.163341 0.000000
# 6 0.000000 0.000000 0.000000 0.000000 0.000000 0.014228
#
#
# Mechanical properties :
#
#
# Convention : Reuss Voigt Hill
#
# Bulk Modulus (GPa) = 29.25014 35.91526 32.58270
# Shear Modulus (GPa) = 16.41529 31.66073 24.03801
#
# Velocity S-wave (km/s) = 2.56707 3.56512 3.10644
# Velocity P-wave (km/s) = 4.53087 5.60043 5.09380
#
# Compressibility (1/GPa) = 0.03418787
#
# Stress axis : x y z
#
# Youngs Moduli (GPa) = 77.19319 95.45720 43.99191
#
# Poissons Ratio (x) = 0.33463 0.04979
# Poissons Ratio (y) = 0.27060 0.05937
# Poissons Ratio (z) = 0.08738 0.12883
#
# Static dielectric constant tensor:
#      x y z
#    x 2.031460 0.000000 0.000000 
#    y 0.000000 2.027270 0.000000 
#    z 0.000000 0.000000 2.023530 
# 
# From -- ./inp_files/7291.got.cif
#   From: 2010.05.17/outbox.cif.g08.bks.cpg/sg61_4_cif.got.tgz:7291.got - 2010.06.03 15:17:17.
