data_PCOD9458221
_publ_section_title
;
Structure prediction by ZEFSAII (Michael W. Deem and Ramdas Pophale) SiO2 
 PCOD9458221
Probable space group: P B C N
;
_chemical_formula_sum "Si O2"
_cell_formula_units_Z 36
_cell_length_a 13.016968
_cell_length_b 20.787886
_cell_length_c 5.360999
_cell_angle_alpha 90.000000
_cell_angle_beta 90.000000
_cell_angle_gamma 90.000000
_cell_volume 1450.660848
_symmetry_space_group_name_H-M "P B C N"
_symmetry_group_IT_number 60
_symmetry_cell_setting 'orthorhombic'
loop_
_space_group_symop_operation_xyz
x,y,z
1/2-x,1/2-y,1/2+z
1/2+x,1/2-y,-z
-x,y,1/2-z
-x,-y,-z
1/2+x,1/2+y,1/2-z
1/2-x,1/2+y,z
x,-y,1/2+z
loop_
_atom_site_type_symbol
_atom_site_label
_atom_site_fract_x
_atom_site_fract_y
_atom_site_fract_z
Si Si1 0.500000 0.961204 0.250000
Si Si2 0.381484 0.210775 0.200174
Si Si3 0.643859 0.460951 0.822517
Si Si4 0.200816 0.400749 0.380171
Si Si5 0.319147 0.339740 0.972331
O O1 0.602766 0.921846 0.266530
O O2 0.500000 0.000000 0.500000
O O3 0.500000 0.190887 0.250000
O O4 0.291051 0.195308 0.403243
O O5 0.333230 0.166855 0.987343
O O6 0.384304 0.283272 0.096816
O O7 0.611266 0.502507 0.579648
O O8 0.628040 0.384650 0.742630
O O9 0.765044 0.449689 0.899508
O O10 0.292296 0.390592 0.187927
#
# Coordination Sequence:
#
# PCOD9458221 Si02
#       5
#     4   8   8   8   8
#     4  12  28  38  60  98 142 180 226 272 344 438
#     4  11  24  43  68 101 141 186 238 294 357 420
#     4  11  22  39  67  98 133 181 232 284 354 423
#     4  11  23  41  63  98 139 186 226 287 346 428
#     4  11  23  42  69 101 139 184 234 290 352 428
#
# _framework density 24.816278000000001
#
# number of rings (size 3 to 8) (size 9 to 14) (size 15 to 20)
#    0.000    0.889    4.444    2.667    7.778    0.000 
#    0.000    0.000    0.000    1.333    0.000    0.000 
#    0.000    0.000    0.000    0.000    0.000    0.000 
#
# Total GULP energy -200486.254688 kJ/mol
# GULP energy per Si atom -5569.062630 kJ/mol
# Density = 2.475980 g / cm^3
# Si number density = 24.816278 Si / 1000 Ang^3
#
#
#
# Elastic Constant Matrix: (Units=GPa)
#
#
# Indices 1 2 3 4 5 6 
#
# 1 65.7555 22.1585 21.4863 0.0000 0.0000 0.0000
# 2 22.1585 78.1151 45.0219 0.0000 0.0000 0.0000
# 3 21.4863 45.0219 142.2720 0.0000 0.0000 0.0000
# 4 0.0000 0.0000 0.0000 46.0637 0.0000 0.0000
# 5 0.0000 0.0000 0.0000 0.0000 10.6486 0.0000
# 6 0.0000 0.0000 0.0000 0.0000 0.0000 226.3575
#
#
#
# Elastic Compliance Matrix: (Units=1/GPa)
#
#
# Indices 1 2 3 4 5 6 
#
# 1 0.017002 -0.004089 -0.001274 0.000000 0.000000 0.000000
# 2 -0.004089 0.016641 -0.004648 0.000000 0.000000 0.000000
# 3 -0.001274 -0.004648 0.008692 0.000000 0.000000 0.000000
# 4 0.000000 0.000000 0.000000 0.021709 0.000000 0.000000
# 5 0.000000 0.000000 0.000000 0.000000 0.093909 0.000000
# 6 0.000000 0.000000 0.000000 0.000000 0.000000 0.004418
#
#
# Mechanical properties :
#
#
# Convention : Reuss Voigt Hill
#
# Bulk Modulus (GPa) = 44.81729 51.49732 48.15731
# Shear Modulus (GPa) = 26.33936 69.77901 48.05919
#
# Velocity S-wave (km/s) = 3.26141 5.30842 4.40546
# Velocity P-wave (km/s) = 5.68166 7.63995 6.73239
#
# Compressibility (1/GPa) = 0.02231282
#
# Stress axis : x y z
#
# Youngs Moduli (GPa) = 58.81692 60.09407 115.04623
#
# Poissons Ratio (x) = 0.24571 0.14655
# Poissons Ratio (y) = 0.24048 0.53478
# Poissons Ratio (z) = 0.07492 0.27934
#
# Static dielectric constant tensor:
#      x y z
#    x 2.449200 0.000000 0.000000 
#    y 0.000000 2.003950 0.000000 
#    z 0.000000 0.000000 1.963280 
# 
# From -- ./inp_files/1139.got.cif
#   From: 2010.05.17/outbox.cif.g08.bks.cpg/sg60_1_cif.got.tgz:1139.got - 2010.06.03 14:59:27.
