data_PCOD9458871
_publ_section_title
;
Structure prediction by ZEFSAII (Michael W. Deem and Ramdas Pophale) SiO2 
 PCOD9458871
Probable space group: P B C N
;
_chemical_formula_sum "Si O2"
_cell_formula_units_Z 64
_cell_length_a 15.000000
_cell_length_b 9.000000
_cell_length_c 24.000000
_cell_angle_alpha 90.000000
_cell_angle_beta 90.000000
_cell_angle_gamma 90.000000
_cell_volume 3240.000000
_symmetry_space_group_name_H-M "P B C N"
_symmetry_group_IT_number 60
_symmetry_cell_setting 'orthorhombic'
loop_
_space_group_symop_operation_xyz
x,y,z
1/2-x,1/2-y,1/2+z
1/2+x,1/2-y,-z
-x,y,1/2-z
-x,-y,-z
1/2+x,1/2+y,1/2-z
1/2-x,1/2+y,z
x,-y,1/2+z
loop_
_atom_site_type_symbol
_atom_site_label
_atom_site_fract_x
_atom_site_fract_y
_atom_site_fract_z
Si Si1 0.177302 0.426226 0.305896
Si Si2 0.335092 0.613564 0.262232
Si Si3 0.521254 0.908527 0.115804
Si Si4 0.850164 0.549940 0.032386
Si Si5 0.449581 0.443944 0.870766
Si Si6 0.827633 0.639417 0.904554
Si Si7 0.849224 0.025789 0.365353
Si Si8 0.792727 0.144187 0.586056
O O1 0.238048 0.556655 0.282176
O O2 0.163016 0.292297 0.262808
O O3 0.083424 0.467845 0.333933
O O4 0.235824 0.357496 0.356856
O O5 0.408716 0.560828 0.307764
O O6 0.349202 0.550241 0.201118
O O7 0.540480 0.730271 0.112864
O O8 0.416082 0.927684 0.125383
O O9 0.559719 0.984750 0.059844
O O10 0.774624 0.424752 0.041083
O O11 0.822278 0.691943 0.069591
O O12 0.847404 0.601423 0.968954
O O13 0.547589 0.515198 0.877837
O O14 0.376647 0.534788 0.905808
O O15 0.732094 0.578646 0.884382
O O16 0.830808 0.815100 0.893894
#
# Coordination Sequence:
#
# PCOD9458871 Si02
#       8
#     8   8   8   8   8   8   8   8
#     4   9  17  32  57  84 105 133 179 229 272 322
#     4  10  18  34  58  81 108 144 179 221 274 326
#     4   9  19  37  58  81 110 142 184 231 274 320
#     4  11  20  36  58  83 110 146 181 222 275 326
#     4   9  20  37  58  83 109 140 184 230 274 324
#     4  11  24  39  54  78 114 151 185 223 269 326
#     4  11  23  39  54  78 113 150 185 223 271 328
#     4  10  19  34  59  86 111 138 180 231 275 322
#
# _framework density 19.753086
#
# number of rings (size 3 to 8) (size 9 to 14) (size 15 to 20)
#    0.000    2.000    0.000    6.000    0.000    1.000 
#    0.000   10.000    0.000    0.000    0.000    0.000 
#    0.000    0.000    0.000    0.000    0.000    0.000 
#
# Total GULP energy -357334.328598 kJ/mol
# GULP energy per Si atom -5583.348884 kJ/mol
# Density = 1.970813 g / cm^3
# Si number density = 19.753086 Si / 1000 Ang^3
#
#
#
# Elastic Constant Matrix: (Units=GPa)
#
#
# Indices 1 2 3 4 5 6 
#
# 1 113.5924 -4.1194 -19.2951 0.0000 0.0000 0.0000
# 2 -4.1194 12.4232 -18.7950 0.0000 0.0000 0.0000
# 3 -19.2951 -18.7950 24.9543 0.0000 0.0000 0.0000
# 4 0.0000 0.0000 0.0000 12.6886 0.0000 0.0000
# 5 0.0000 0.0000 0.0000 0.0000 15.3646 0.0000
# 6 0.0000 0.0000 0.0000 0.0000 0.0000 30.4644
#
#
#
# Elastic Compliance Matrix: (Units=1/GPa)
#
#
# Indices 1 2 3 4 5 6 
#
# 1 0.003339 -0.035947 -0.024493 0.000000 0.000000 0.000000
# 2 -0.035947 -0.190169 -0.171026 0.000000 0.000000 0.000000
# 3 -0.024493 -0.171026 -0.107678 0.000000 0.000000 0.000000
# 4 0.000000 0.000000 0.000000 0.078811 0.000000 0.000000
# 5 0.000000 0.000000 0.000000 0.000000 0.065084 0.000000
# 6 0.000000 0.000000 0.000000 0.000000 0.000000 0.032825
#
#
# Mechanical properties :
#
#
# Convention : Reuss Voigt Hill
#
# Bulk Modulus (GPa) = -1.32024 7.39456 3.03716
# Shear Modulus (GPa) = 53.95733 24.58215 39.26974
#
# Velocity S-wave (km/s) = 5.23213 3.53153 4.46357
# Velocity P-wave (km/s) = 5.98585 4.51449 5.30146
#
# Compressibility (1/GPa) = -0.75743766
#
# Stress axis : x y z
#
# Youngs Moduli (GPa) = 299.45118 -5.25849 -9.28699
#
# Poissons Ratio (x) = -0.18903 -0.22746
# Poissons Ratio (y) = 10.76443 -1.58831
# Poissons Ratio (z) = 7.33431 -0.89934
#
# Static dielectric constant tensor:
#      x y z
#    x 1.709190 0.000000 0.000000 
#    y 0.000000 1.674750 0.000000 
#    z 0.000000 0.000000 1.719050 
# 
# From -- ./inp_files/24440.got.cif
#   From: 2010.05.17/outbox.ucp.g08.bks.cvg/sg60_13_cif.got.tgz:24440.got - 2010.06.11 16:26:41.
