data_PCOD9458905
_publ_section_title
;
Structure prediction by ZEFSAII (Michael W. Deem and Ramdas Pophale) SiO2 
 PCOD9458905
Probable space group: P B C N
;
_chemical_formula_sum "Si O2"
_cell_formula_units_Z 56
_cell_length_a 15.000000
_cell_length_b 21.000000
_cell_length_c 9.000000
_cell_angle_alpha 90.000000
_cell_angle_beta 90.000000
_cell_angle_gamma 90.000000
_cell_volume 2835.000000
_symmetry_space_group_name_H-M "P B C N"
_symmetry_group_IT_number 60
_symmetry_cell_setting 'orthorhombic'
loop_
_space_group_symop_operation_xyz
x,y,z
1/2-x,1/2-y,1/2+z
1/2+x,1/2-y,-z
-x,y,1/2-z
-x,-y,-z
1/2+x,1/2+y,1/2-z
1/2-x,1/2+y,z
x,-y,1/2+z
loop_
_atom_site_type_symbol
_atom_site_label
_atom_site_fract_x
_atom_site_fract_y
_atom_site_fract_z
Si Si1 0.710563 0.382766 0.406417
Si Si2 0.424511 0.829098 0.636645
Si Si3 0.029204 0.193173 0.580442
Si Si4 0.279108 0.846930 0.408692
Si Si5 0.068327 0.009202 0.634429
Si Si6 0.380271 0.369060 0.622215
Si Si7 0.753182 0.698739 0.163514
O O1 0.629104 0.332702 0.421210
O O2 0.768442 0.372304 0.258608
O O3 0.655529 0.448992 0.401602
O O4 0.766903 0.359223 0.547232
O O5 0.500000 0.857518 0.750000
O O6 0.472441 0.768869 0.560087
O O7 0.368686 0.862583 0.502871
O O8 0.342407 0.801897 0.736609
O O9 0.000000 0.182536 0.750000
O O10 0.966934 0.159288 0.459369
O O11 0.195319 0.876503 0.496408
O O12 0.262778 0.769787 0.400806
O O13 0.000000 0.041286 0.750000
O O14 0.098000 0.938751 0.686911
O O15 0.000000 0.000000 0.500000
O O16 0.333241 0.321917 0.739250
#
# Coordination Sequence:
#
# PCOD9458905 Si02
#       7
#     8   8   8   8   8   8   8
#     4  12  21  36  56  82 122 163 200 241 289 355
#     4  10  21  37  58  82 114 153 202 258 312 359
#     4  11  18  33  56  84 120 167 198 229 292 358
#     4  11  20  38  58  80 112 159 205 253 308 355
#     4  12  24  37  55  87 128 169 204 228 273 372
#     4  11  23  36  57  85 124 169 200 236 294 365
#     4  11  22  38  55  86 118 156 209 255 303 359
#
# _framework density 19.753086
#
# number of rings (size 3 to 8) (size 9 to 14) (size 15 to 20)
#    0.000    0.857    5.714    3.857    0.000    0.000 
#    0.000    2.143    0.000    0.000    0.000   16.000 
#    0.000    0.000    0.000    0.000    0.000    0.000 
#
# Total GULP energy -312398.740753 kJ/mol
# GULP energy per Si atom -5578.548942 kJ/mol
# Density = 1.970813 g / cm^3
# Si number density = 19.753086 Si / 1000 Ang^3
#
#
#
# Elastic Constant Matrix: (Units=GPa)
#
#
# Indices 1 2 3 4 5 6 
#
# 1 78.8466 22.2307 30.3313 0.0000 0.0000 0.0000
# 2 22.2307 62.9473 3.3136 0.0000 0.0000 0.0000
# 3 30.3313 3.3136 85.2889 0.0000 0.0000 0.0000
# 4 0.0000 0.0000 0.0000 18.9123 0.0000 0.0000
# 5 0.0000 0.0000 0.0000 0.0000 50.0780 0.0000
# 6 0.0000 0.0000 0.0000 0.0000 0.0000 32.6226
#
#
#
# Elastic Compliance Matrix: (Units=1/GPa)
#
#
# Indices 1 2 3 4 5 6 
#
# 1 0.016392 -0.005493 -0.005616 0.000000 0.000000 0.000000
# 2 -0.005493 0.017760 0.001264 0.000000 0.000000 0.000000
# 3 -0.005616 0.001264 0.013673 0.000000 0.000000 0.000000
# 4 0.000000 0.000000 0.000000 0.052876 0.000000 0.000000
# 5 0.000000 0.000000 0.000000 0.000000 0.019969 0.000000
# 6 0.000000 0.000000 0.000000 0.000000 0.000000 0.030654
#
#
# Mechanical properties :
#
#
# Convention : Reuss Voigt Hill
#
# Bulk Modulus (GPa) = 35.54523 37.64822 36.59672
# Shear Modulus (GPa) = 27.71730 31.73640 29.72685
#
# Velocity S-wave (km/s) = 3.74998 4.01266 3.88354
# Velocity P-wave (km/s) = 6.06495 6.36941 6.21904
#
# Compressibility (1/GPa) = 0.02813317
#
# Stress axis : x y z
#
# Youngs Moduli (GPa) = 61.00472 56.30671 73.13675
#
# Poissons Ratio (x) = 0.30932 0.41074
# Poissons Ratio (y) = 0.33513 -0.09242
# Poissons Ratio (z) = 0.34261 -0.07115
#
# Static dielectric constant tensor:
#      x y z
#    x 1.711130 0.000000 0.000000 
#    y 0.000000 1.715970 0.000000 
#    z 0.000000 0.000000 1.852000 
# 
# From -- ./inp_files/6154.got.cif
#   From: 2010.05.17/outbox.ucp.g08.bks.cvg/sg60_4_cif.got.tgz:6154.got - 2010.06.11 16:26:41.
