data_PCOD9458401
_publ_section_title
;
Structure prediction by ZEFSAII (Michael W. Deem and Ramdas Pophale) SiO2 
 PCOD9458401
Probable space group: P B C N
;
_chemical_formula_sum "Si O2"
_cell_formula_units_Z 32
_cell_length_a 11.769669
_cell_length_b 13.263601
_cell_length_c 9.108774
_cell_angle_alpha 90.000000
_cell_angle_beta 90.000000
_cell_angle_gamma 90.000000
_cell_volume 1421.954254
_symmetry_space_group_name_H-M "P B C N"
_symmetry_group_IT_number 60
_symmetry_cell_setting 'orthorhombic'
loop_
_space_group_symop_operation_xyz
x,y,z
1/2-x,1/2-y,1/2+z
1/2+x,1/2-y,-z
-x,y,1/2-z
-x,-y,-z
1/2+x,1/2+y,1/2-z
1/2-x,1/2+y,z
x,-y,1/2+z
loop_
_atom_site_type_symbol
_atom_site_label
_atom_site_fract_x
_atom_site_fract_y
_atom_site_fract_z
Si Si1 0.626980 0.332422 0.297564
Si Si2 0.615387 0.045736 0.562733
Si Si3 0.834139 0.757163 0.628334
Si Si4 0.277981 0.554264 0.212440
O O1 0.500000 0.309276 0.250000
O O2 0.655440 0.295733 0.461875
O O3 0.710060 0.279523 0.181411
O O4 0.650212 0.451935 0.294479
O O5 0.594812 0.153926 0.638349
O O6 0.709044 0.068366 0.437393
O O7 0.500000 0.000000 0.500000
O O8 0.677999 0.967679 0.669701
O O9 0.853350 0.851613 0.736316
#
# Coordination Sequence:
#
# PCOD9458401 Si02
#       4
#     8   8   8   8
#     4  11  26  46  72 104 145 192 237 302 369 432
#     4  11  24  42  72 106 141 191 247 306 366 429
#     4  11  24  45  73 104 145 187 247 304 359 445
#     4  11  23  45  66 101 149 183 246 304 356 441
#
# _framework density 22.504239999999999
#
# number of rings (size 3 to 8) (size 9 to 14) (size 15 to 20)
#    0.000    1.000    5.000    0.750    3.500    1.000 
#    0.000    6.250    0.000    0.000    0.000    0.000 
#    0.000    0.000    0.000    0.000    0.000    0.000 
#
# Total GULP energy -178973.699039 kJ/mol
# GULP energy per Si atom -5592.928095 kJ/mol
# Density = 2.245302 g / cm^3
# Si number density = 22.504240 Si / 1000 Ang^3
#
#
#
# Elastic Constant Matrix: (Units=GPa)
#
#
# Indices 1 2 3 4 5 6 
#
# 1 85.7717 32.2149 43.7353 0.0000 0.0000 0.0000
# 2 32.2149 149.3929 7.2864 0.0000 0.0000 0.0000
# 3 43.7353 7.2864 106.8020 0.0000 0.0000 0.0000
# 4 0.0000 0.0000 0.0000 35.6296 0.0000 0.0000
# 5 0.0000 0.0000 0.0000 0.0000 19.1122 0.0000
# 6 0.0000 0.0000 0.0000 0.0000 0.0000 0.9688
#
#
#
# Elastic Compliance Matrix: (Units=1/GPa)
#
#
# Indices 1 2 3 4 5 6 
#
# 1 0.016097 -0.003160 -0.006376 0.000000 0.000000 0.000000
# 2 -0.003160 0.007337 0.000794 0.000000 0.000000 0.000000
# 3 -0.006376 0.000794 0.011920 0.000000 0.000000 0.000000
# 4 0.000000 0.000000 0.000000 0.028067 0.000000 0.000000
# 5 0.000000 0.000000 0.000000 0.000000 0.052323 0.000000
# 6 0.000000 0.000000 0.000000 0.000000 0.000000 1.032220
#
#
# Mechanical properties :
#
#
# Convention : Reuss Voigt Hill
#
# Bulk Modulus (GPa) = 55.96571 56.49332 56.22952
# Shear Modulus (GPa) = 4.26838 28.39077 16.32958
#
# Velocity S-wave (km/s) = 1.37870 3.55572 2.69666
# Velocity P-wave (km/s) = 5.23998 6.48193 5.89376
#
# Compressibility (1/GPa) = 0.01786808
#
# Stress axis : x y z
#
# Youngs Moduli (GPa) = 62.12348 136.30471 83.89268
#
# Poissons Ratio (x) = 0.43074 0.53491
# Poissons Ratio (y) = 0.19632 -0.06657
# Poissons Ratio (z) = 0.39611 -0.10816
#
# Static dielectric constant tensor:
#      x y z
#    x 1.810600 0.000000 0.000000 
#    y 0.000000 1.866820 0.000000 
#    z 0.000000 0.000000 1.826590 
# 
# From -- ./inp_files/4518.got.cif
#   From: 2010.05.17/outbox.cif.g08.bks.cpg/sg60_3_cif.got.tgz:4518.got - 2010.06.03 14:59:27.
