data_PCOD9458619
_publ_section_title
;
Structure prediction by ZEFSAII (Michael W. Deem and Ramdas Pophale) SiO2 
 PCOD9458619
Probable space group: P B C N
;
_chemical_formula_sum "Si O2"
_cell_formula_units_Z 32
_cell_length_a 14.526140
_cell_length_b 9.653773
_cell_length_c 10.035002
_cell_angle_alpha 90.000000
_cell_angle_beta 90.000000
_cell_angle_gamma 90.000000
_cell_volume 1407.228984
_symmetry_space_group_name_H-M "P B C N"
_symmetry_group_IT_number 60
_symmetry_cell_setting 'orthorhombic'
loop_
_space_group_symop_operation_xyz
x,y,z
1/2-x,1/2-y,1/2+z
1/2+x,1/2-y,-z
-x,y,1/2-z
-x,-y,-z
1/2+x,1/2+y,1/2-z
1/2-x,1/2+y,z
x,-y,1/2+z
loop_
_atom_site_type_symbol
_atom_site_label
_atom_site_fract_x
_atom_site_fract_y
_atom_site_fract_z
Si Si1 0.678201 0.428388 0.497020
Si Si2 0.893116 0.880595 0.773455
Si Si3 0.460078 0.804582 0.610604
Si Si4 0.616159 0.892906 0.400336
O O1 0.642849 0.558526 0.412032
O O2 0.663587 0.446840 0.653559
O O3 0.613097 0.301573 0.450631
O O4 0.783529 0.398926 0.464591
O O5 0.881780 0.714783 0.778477
O O6 0.000000 0.911214 0.750000
O O7 0.500000 0.750020 0.750000
O O8 0.540926 0.834274 0.504560
O O9 0.413193 0.952879 0.639462
#
# Coordination Sequence:
#
# PCOD9458619 Si02
#       4
#     8   8   8   8
#     4  12  28  45  76 106 145 189 240 289 356 424
#     4  12  26  50  70 107 145 190 235 296 352 423
#     4  11  26  48  72 105 142 189 237 296 356 415
#     4  11  27  46  73 104 144 188 239 294 351 422
#
# _framework density 22.739725
#
# number of rings (size 3 to 8) (size 9 to 14) (size 15 to 20)
#    0.000    0.500    2.500    3.750   14.000    0.000 
#    0.000    0.000    0.000    0.000    0.000    0.000 
#    0.000    0.000    0.000    0.000    0.000    0.000 
#
# Total GULP energy -179460.532788 kJ/mol
# GULP energy per Si atom -5608.141650 kJ/mol
# Density = 2.268797 g / cm^3
# Si number density = 22.739725 Si / 1000 Ang^3
#
#
#
# Elastic Constant Matrix: (Units=GPa)
#
#
# Indices 1 2 3 4 5 6 
#
# 1 134.3705 11.0112 -17.7101 0.0000 0.0000 0.0000
# 2 11.0112 99.4377 -3.8969 0.0000 0.0000 0.0000
# 3 -17.7101 -3.8969 55.8878 0.0000 0.0000 0.0000
# 4 0.0000 0.0000 0.0000 32.3009 0.0000 0.0000
# 5 0.0000 0.0000 0.0000 0.0000 22.4208 0.0000
# 6 0.0000 0.0000 0.0000 0.0000 0.0000 6.6037
#
#
#
# Elastic Compliance Matrix: (Units=1/GPa)
#
#
# Indices 1 2 3 4 5 6 
#
# 1 0.007825 -0.000771 0.002426 0.000000 0.000000 0.000000
# 2 -0.000771 0.010160 0.000464 0.000000 0.000000 0.000000
# 3 0.002426 0.000464 0.018694 0.000000 0.000000 0.000000
# 4 0.000000 0.000000 0.000000 0.030959 0.000000 0.000000
# 5 0.000000 0.000000 0.000000 0.000000 0.044601 0.000000
# 6 0.000000 0.000000 0.000000 0.000000 0.000000 0.151430
#
#
# Mechanical properties :
#
#
# Convention : Reuss Voigt Hill
#
# Bulk Modulus (GPa) = 24.44024 29.83380 27.13702
# Shear Modulus (GPa) = 18.31021 32.28453 25.29737
#
# Velocity S-wave (km/s) = 2.84070 3.77203 3.33900
# Velocity P-wave (km/s) = 4.64010 5.66738 5.17927
#
# Compressibility (1/GPa) = 0.04091613
#
# Stress axis : x y z
#
# Youngs Moduli (GPa) = 127.79459 98.42370 53.49292
#
# Poissons Ratio (x) = 0.07593 -0.12977
# Poissons Ratio (y) = 0.09858 -0.02482
# Poissons Ratio (z) = -0.31001 -0.04567
#
# Static dielectric constant tensor:
#      x y z
#    x 1.799730 0.000000 0.000000 
#    y 0.000000 1.847560 0.000000 
#    z 0.000000 0.000000 1.837240 
# 
# From -- ./inp_files/11569.got.cif
#   From: 2010.05.17/outbox.cif.g08.bks.cpg/sg60_6_cif.got.tgz:11569.got - 2010.06.03 14:59:27.
