data_PCOD9458119
_publ_section_title
;
Structure prediction by ZEFSAII (Michael W. Deem and Ramdas Pophale) SiO2 
 PCOD9458119
Probable space group: P B C N
;
_chemical_formula_sum "Si O2"
_cell_formula_units_Z 64
_cell_length_a 13.605312
_cell_length_b 9.270474
_cell_length_c 26.569741
_cell_angle_alpha 90.000000
_cell_angle_beta 90.000000
_cell_angle_gamma 90.000000
_cell_volume 3351.180087
_symmetry_space_group_name_H-M "P B C N"
_symmetry_group_IT_number 60
_symmetry_cell_setting 'orthorhombic'
loop_
_space_group_symop_operation_xyz
x,y,z
1/2-x,1/2-y,1/2+z
1/2+x,1/2-y,-z
-x,y,1/2-z
-x,-y,-z
1/2+x,1/2+y,1/2-z
1/2-x,1/2+y,z
x,-y,1/2+z
loop_
_atom_site_type_symbol
_atom_site_label
_atom_site_fract_x
_atom_site_fract_y
_atom_site_fract_z
Si Si1 0.218700 0.512844 0.774331
Si Si2 0.995626 0.642780 0.935283
Si Si3 0.489688 0.181129 0.052080
Si Si4 0.899071 0.545763 0.130911
Si Si5 0.566982 0.156587 0.295698
Si Si6 0.652526 0.685200 0.371851
Si Si7 0.652862 0.651304 0.881895
Si Si8 0.380893 0.691320 0.245466
O O1 0.188461 0.454484 0.829601
O O2 0.152001 0.435960 0.731055
O O3 0.180678 0.678646 0.772367
O O4 0.329369 0.459306 0.762710
O O5 0.939252 0.757062 0.902481
O O6 0.946185 0.481743 0.938690
O O7 0.092263 0.597882 0.903250
O O8 0.001440 0.693443 0.992573
O O9 0.422737 0.303216 0.075149
O O10 0.586569 0.168868 0.088031
O O11 0.995473 0.562751 0.167731
O O12 0.500000 0.212058 0.250000
O O13 0.611705 0.280906 0.330027
O O14 0.745522 0.770518 0.392115
O O15 0.666720 0.516625 0.377840
O O16 0.639832 0.715491 0.313193
O O17 0.500000 0.697013 0.250000
#
# Coordination Sequence:
#
# PCOD9458119 Si02
#       8
#     8   8   8   8   8   8   8   8
#     4  11  21  39  62  84 130 167 204 258 313 380
#     4   9  17  35  63  86 113 151 202 259 317 378
#     4   8  18  36  62  89 111 150 210 253 313 388
#     4   8  16  34  64  87 114 161 198 242 313 384
#     4   9  17  32  57  88 115 159 204 246 304 371
#     4  12  23  36  58  83 124 158 198 261 306 365
#     4  11  22  35  55  85 117 155 207 250 306 372
#     4  12  26  41  60  97 127 169 217 258 315 390
#
# _framework density 19.097750999999999
#
# number of rings (size 3 to 8) (size 9 to 14) (size 15 to 20)
#    0.750    1.250    1.250    4.125    0.000    1.000 
#    4.500    0.625    5.500    0.000    0.000    0.000 
#    0.000    0.000    0.000    0.000    0.000    0.000 
#
# Total GULP energy -356347.298478 kJ/mol
# GULP energy per Si atom -5567.926539 kJ/mol
# Density = 1.905428 g / cm^3
# Si number density = 19.097751 Si / 1000 Ang^3
#
#
#
# Elastic Constant Matrix: (Units=GPa)
#
#
# Indices 1 2 3 4 5 6 
#
# 1 51.0955 17.8347 9.3841 0.0000 0.0000 0.0000
# 2 17.8347 54.7376 -5.0222 0.0000 0.0000 0.0000
# 3 9.3841 -5.0222 112.9978 0.0000 0.0000 0.0000
# 4 0.0000 0.0000 0.0000 10.0598 0.0000 0.0000
# 5 0.0000 0.0000 0.0000 0.0000 4.7095 0.0000
# 6 0.0000 0.0000 0.0000 0.0000 0.0000 21.8798
#
#
#
# Elastic Compliance Matrix: (Units=1/GPa)
#
#
# Indices 1 2 3 4 5 6 
#
# 1 0.022622 -0.007574 -0.002215 0.000000 0.000000 0.000000
# 2 -0.007574 0.020880 0.001557 0.000000 0.000000 0.000000
# 3 -0.002215 0.001557 0.009103 0.000000 0.000000 0.000000
# 4 0.000000 0.000000 0.000000 0.099405 0.000000 0.000000
# 5 0.000000 0.000000 0.000000 0.000000 0.212336 0.000000
# 6 0.000000 0.000000 0.000000 0.000000 0.000000 0.045704
#
#
# Mechanical properties :
#
#
# Convention : Reuss Voigt Hill
#
# Bulk Modulus (GPa) = 27.67034 29.24712 28.45873
# Shear Modulus (GPa) = 11.40092 20.43877 15.91985
#
# Velocity S-wave (km/s) = 2.44596 3.27497 2.89034
# Velocity P-wave (km/s) = 4.74312 5.44502 5.10615
#
# Compressibility (1/GPa) = 0.03613978
#
# Stress axis : x y z
#
# Youngs Moduli (GPa) = 44.20531 47.89372 109.85508
#
# Poissons Ratio (x) = 0.36274 0.24336
# Poissons Ratio (y) = 0.33481 -0.17104
# Poissons Ratio (z) = 0.09793 -0.07457
#
# Static dielectric constant tensor:
#      x y z
#    x 1.697920 0.000000 0.000000 
#    y 0.000000 1.692780 0.000000 
#    z 0.000000 0.000000 1.664000 
# 
# From -- ./inp_files/26123.got.cif
#   From: 2010.05.17/outbox.cif.g08.bks.cpg/sg60_14_cif.got.tgz:26123.got - 2010.06.03 14:59:27.
