data_PCOD9458019
_publ_section_title
;
Structure prediction by ZEFSAII (Michael W. Deem and Ramdas Pophale) SiO2 
 PCOD9458019
Probable space group: P B C N
;
_chemical_formula_sum "Si O2"
_cell_formula_units_Z 40
_cell_length_a 16.995550
_cell_length_b 17.522267
_cell_length_c 5.577493
_cell_angle_alpha 90.000000
_cell_angle_beta 90.000000
_cell_angle_gamma 90.000000
_cell_volume 1660.980566
_symmetry_space_group_name_H-M "P B C N"
_symmetry_group_IT_number 60
_symmetry_cell_setting 'orthorhombic'
loop_
_space_group_symop_operation_xyz
x,y,z
1/2-x,1/2-y,1/2+z
1/2+x,1/2-y,-z
-x,y,1/2-z
-x,-y,-z
1/2+x,1/2+y,1/2-z
1/2-x,1/2+y,z
x,-y,1/2+z
loop_
_atom_site_type_symbol
_atom_site_label
_atom_site_fract_x
_atom_site_fract_y
_atom_site_fract_z
Si Si1 0.919059 0.593695 0.801153
Si Si2 0.568927 0.747744 0.564880
Si Si3 0.168045 0.167769 0.272989
Si Si4 0.252747 0.543269 0.544947
Si Si5 0.823756 0.681652 0.450486
O O1 0.882814 0.617779 0.544091
O O2 0.000000 0.548060 0.750000
O O3 0.947055 0.671809 0.933115
O O4 0.841298 0.565049 0.944763
O O5 0.500000 0.728468 0.750000
O O6 0.589026 0.679312 0.380917
O O7 0.643165 0.771685 0.726531
O O8 0.186618 0.114077 0.499059
O O9 0.182384 0.255633 0.343879
O O10 0.240060 0.146736 0.101796
O O11 0.267026 0.505804 0.803672
#
# Coordination Sequence:
#
# PCOD9458019 Si02
#       5
#     8   8   8   8   8
#     4  11  23  39  63  98 143 179 222 290 356 435
#     4  11  22  37  67 105 137 169 214 296 388 432
#     4  11  22  38  65  96 131 175 235 293 346 427
#     4  12  28  45  65  94 136 198 251 283 327 404
#     4  11  19  36  66  97 129 171 211 288 372 419
#
# _framework density 24.082159999999998
#
# number of rings (size 3 to 8) (size 9 to 14) (size 15 to 20)
#    0.000    0.800    6.000    2.400    2.800    0.800 
#    0.000    0.000    0.000    1.200    0.000    0.000 
#    0.000    0.000    0.000    0.000    0.000    0.000 
#
# Total GULP energy -223225.341246 kJ/mol
# GULP energy per Si atom -5580.633531 kJ/mol
# Density = 2.402735 g / cm^3
# Si number density = 24.082160 Si / 1000 Ang^3
#
#
#
# Elastic Constant Matrix: (Units=GPa)
#
#
# Indices 1 2 3 4 5 6 
#
# 1 65.7818 13.7920 28.2569 0.0000 0.0000 0.0000
# 2 13.7920 66.7124 35.2237 0.0000 0.0000 0.0000
# 3 28.2569 35.2237 115.5074 0.0000 0.0000 0.0000
# 4 0.0000 0.0000 0.0000 40.7261 0.0000 0.0000
# 5 0.0000 0.0000 0.0000 0.0000 58.4810 0.0000
# 6 0.0000 0.0000 0.0000 0.0000 0.0000 9.8433
#
#
#
# Elastic Compliance Matrix: (Units=1/GPa)
#
#
# Indices 1 2 3 4 5 6 
#
# 1 0.017126 -0.001583 -0.003707 0.000000 0.000000 0.000000
# 2 -0.001583 0.018013 -0.005106 0.000000 0.000000 0.000000
# 3 -0.003707 -0.005106 0.011121 0.000000 0.000000 0.000000
# 4 0.000000 0.000000 0.000000 0.024554 0.000000 0.000000
# 5 0.000000 0.000000 0.000000 0.000000 0.017100 0.000000
# 6 0.000000 0.000000 0.000000 0.000000 0.000000 0.101592
#
#
# Mechanical properties :
#
#
# Convention : Reuss Voigt Hill
#
# Bulk Modulus (GPa) = 39.26430 44.72743 41.99587
# Shear Modulus (GPa) = 22.85334 33.19202 28.02268
#
# Velocity S-wave (km/s) = 3.08388 3.71655 3.41490
# Velocity P-wave (km/s) = 5.38704 6.08524 5.74675
#
# Compressibility (1/GPa) = 0.02546843
#
# Stress axis : x y z
#
# Youngs Moduli (GPa) = 58.39077 55.51610 89.91853
#
# Poissons Ratio (x) = 0.08791 0.33330
# Poissons Ratio (y) = 0.09246 0.45909
# Poissons Ratio (z) = 0.21644 0.28344
#
# Static dielectric constant tensor:
#      x y z
#    x 1.995060 0.000000 0.000000 
#    y 0.000000 1.986950 0.000000 
#    z 0.000000 0.000000 1.999920 
# 
# From -- ./inp_files/1645.got.cif
#   From: 2010.05.17/outbox.cif.g08.bks.cpg/sg60_1_cif.got.tgz:1645.got - 2010.06.03 14:59:27.
