data_PCOD9458112
_publ_section_title
;
Structure prediction by ZEFSAII (Michael W. Deem and Ramdas Pophale) SiO2 
 PCOD9458112
Probable space group: P B C N
;
_chemical_formula_sum "Si O2"
_cell_formula_units_Z 52
_cell_length_a 9.678890
_cell_length_b 8.975465
_cell_length_c 26.259960
_cell_angle_alpha 90.000000
_cell_angle_beta 90.000000
_cell_angle_gamma 90.000000
_cell_volume 2281.269384
_symmetry_space_group_name_H-M "P B C N"
_symmetry_group_IT_number 60
_symmetry_cell_setting 'orthorhombic'
loop_
_space_group_symop_operation_xyz
x,y,z
1/2-x,1/2-y,1/2+z
1/2+x,1/2-y,-z
-x,y,1/2-z
-x,-y,-z
1/2+x,1/2+y,1/2-z
1/2-x,1/2+y,z
x,-y,1/2+z
loop_
_atom_site_type_symbol
_atom_site_label
_atom_site_fract_x
_atom_site_fract_y
_atom_site_fract_z
Si Si1 0.084575 0.675784 0.318662
Si Si2 0.681652 0.135065 0.726691
Si Si3 0.500000 0.612826 0.250000
Si Si4 0.214589 0.926217 0.473113
Si Si5 0.089546 0.352839 0.939147
Si Si6 0.338752 0.620081 0.681300
Si Si7 0.420552 0.586791 0.566751
O O1 0.126750 0.522419 0.291996
O O2 0.173956 0.815970 0.298584
O O3 0.108037 0.656563 0.378652
O O4 0.927174 0.728418 0.310933
O O5 0.588706 0.277354 0.714870
O O6 0.697049 0.137363 0.788200
O O7 0.591364 0.511348 0.286419
O O8 0.364251 0.985025 0.456710
O O9 0.165240 0.990799 0.526913
O O10 0.202478 0.749198 0.468147
O O11 0.082408 0.969019 0.435420
O O12 0.947601 0.261592 0.948616
O O13 0.350491 0.584154 0.621918
#
# Coordination Sequence:
#
# PCOD9458112 Si02
#       7
#     8   8   4   8   8   8   8
#     4  11  21  38  63  87 120 161 208 252 306 366
#     4  12  24  38  59  89 121 162 204 258 300 370
#     4  12  26  38  60  90 120 162 214 242 308 372
#     4   9  17  37  59  86 117 149 197 249 293 362
#     4   9  18  33  61  87 107 156 197 243 295 355
#     4  11  22  44  61  85 125 167 203 259 313 358
#     4   8  20  37  62  81 118 162 195 239 318 362
#
# _framework density 22.794329000000001
#
# number of rings (size 3 to 8) (size 9 to 14) (size 15 to 20)
#    0.923    0.923    3.077    0.923    4.308    0.000 
#    2.769    0.769    0.000    0.000    0.000    0.000 
#    0.000    0.000    0.000    0.000    0.000    0.000 
#
# Total GULP energy -289910.677332 kJ/mol
# GULP energy per Si atom -5575.205333 kJ/mol
# Density = 2.274245 g / cm^3
# Si number density = 22.794329 Si / 1000 Ang^3
#
#
#
# Elastic Constant Matrix: (Units=GPa)
#
#
# Indices 1 2 3 4 5 6 
#
# 1 32.7545 6.5100 10.0099 0.0000 0.0000 0.0000
# 2 6.5100 97.7678 28.9801 0.0000 0.0000 0.0000
# 3 10.0099 28.9801 89.5049 0.0000 0.0000 0.0000
# 4 0.0000 0.0000 0.0000 20.6037 0.0000 0.0000
# 5 0.0000 0.0000 0.0000 0.0000 24.3218 0.0000
# 6 0.0000 0.0000 0.0000 0.0000 0.0000 27.3735
#
#
#
# Elastic Compliance Matrix: (Units=1/GPa)
#
#
# Indices 1 2 3 4 5 6 
#
# 1 0.031732 -0.001174 -0.003169 0.000000 0.000000 0.000000
# 2 -0.001174 0.011358 -0.003546 0.000000 0.000000 0.000000
# 3 -0.003169 -0.003546 0.012675 0.000000 0.000000 0.000000
# 4 0.000000 0.000000 0.000000 0.048535 0.000000 0.000000
# 5 0.000000 0.000000 0.000000 0.000000 0.041115 0.000000
# 6 0.000000 0.000000 0.000000 0.000000 0.000000 0.036532
#
#
# Mechanical properties :
#
#
# Convention : Reuss Voigt Hill
#
# Bulk Modulus (GPa) = 25.00782 34.55856 29.78319
# Shear Modulus (GPa) = 23.69076 26.09495 24.89285
#
# Velocity S-wave (km/s) = 3.22736 3.38716 3.30822
# Velocity P-wave (km/s) = 4.98825 5.52187 5.26183
#
# Compressibility (1/GPa) = 0.03998750
#
# Stress axis : x y z
#
# Youngs Moduli (GPa) = 31.51412 88.04677 78.89465
#
# Poissons Ratio (x) = 0.10333 0.25000
# Poissons Ratio (y) = 0.03699 0.27977
# Poissons Ratio (z) = 0.09986 0.31223
#
# Static dielectric constant tensor:
#      x y z
#    x 1.990560 0.000000 0.000000 
#    y 0.000000 1.854180 0.000000 
#    z 0.000000 0.000000 1.831880 
# 
# From -- ./inp_files/25310.got.cif
#   From: 2010.05.17/outbox.cif.g08.bks.cpg/sg60_13_cif.got.tgz:25310.got - 2010.06.03 14:59:27.
