data_PCOD9458916
_publ_section_title
;
Structure prediction by ZEFSAII (Michael W. Deem and Ramdas Pophale) SiO2 
 PCOD9458916
Probable space group: P B C N
;
_chemical_formula_sum "Si O2"
_cell_formula_units_Z 52
_cell_length_a 21.000000
_cell_length_b 9.000000
_cell_length_c 15.000000
_cell_angle_alpha 90.000000
_cell_angle_beta 90.000000
_cell_angle_gamma 90.000000
_cell_volume 2835.000000
_symmetry_space_group_name_H-M "P B C N"
_symmetry_group_IT_number 60
_symmetry_cell_setting 'orthorhombic'
loop_
_space_group_symop_operation_xyz
x,y,z
1/2-x,1/2-y,1/2+z
1/2+x,1/2-y,-z
-x,y,1/2-z
-x,-y,-z
1/2+x,1/2+y,1/2-z
1/2-x,1/2+y,z
x,-y,1/2+z
loop_
_atom_site_type_symbol
_atom_site_label
_atom_site_fract_x
_atom_site_fract_y
_atom_site_fract_z
Si Si1 0.961628 0.685382 0.403364
Si Si2 0.163274 0.206824 0.499884
Si Si3 0.968084 0.658667 0.908747
Si Si4 0.414609 0.675379 0.319604
Si Si5 0.000000 0.913268 0.250000
Si Si6 0.336878 0.787749 0.156151
Si Si7 0.745401 0.954293 0.923309
O O1 0.892977 0.746986 0.432640
O O2 0.959324 0.511679 0.375925
O O3 0.987330 0.802713 0.332279
O O4 0.005054 0.674438 0.491728
O O5 0.128208 0.163851 0.408339
O O6 0.205679 0.069673 0.532554
O O7 0.208438 0.353346 0.503598
O O8 0.898316 0.730434 0.907489
O O9 0.020934 0.738569 0.848238
O O10 0.440773 0.522296 0.275696
O O11 0.370673 0.766621 0.251115
O O12 0.285010 0.660551 0.137426
O O13 0.303364 0.944285 0.133713
#
# Coordination Sequence:
#
# PCOD9458916 Si02
#       7
#     8   8   8   8   4   8   8
#     4  10  23  38  62  93 123 160 204 255 320 366
#     4  10  22  41  60  88 122 163 207 248 304 376
#     4  10  21  41  64  88 125 164 198 257 321 379
#     4  11  24  39  63  93 126 156 205 264 321 359
#     4  12  24  36  60 102 120 156 200 260 320 368
#     4  11  21  41  62  89 121 162 208 253 303 367
#     4  10  23  39  64  83 120 173 207 247 300 368
#
# _framework density 18.342151999999999
#
# number of rings (size 3 to 8) (size 9 to 14) (size 15 to 20)
#    0.000    1.538    3.077    0.923    4.308    2.462 
#    0.000    0.000    0.000    0.000    0.000    0.000 
#    0.000    0.000    0.000    0.000    0.000    0.000 
#
# Total GULP energy -289960.660787 kJ/mol
# GULP energy per Si atom -5576.166554 kJ/mol
# Density = 1.830040 g / cm^3
# Si number density = 18.342152 Si / 1000 Ang^3
#
#
#
# Elastic Constant Matrix: (Units=GPa)
#
#
# Indices 1 2 3 4 5 6 
#
# 1 110.4817 39.6944 35.2254 0.0000 0.0000 0.0000
# 2 39.6944 113.1157 50.5749 0.0000 0.0000 0.0000
# 3 35.2254 50.5749 71.3670 0.0000 0.0000 0.0000
# 4 0.0000 0.0000 0.0000 26.9699 0.0000 0.0000
# 5 0.0000 0.0000 0.0000 0.0000 30.4012 0.0000
# 6 0.0000 0.0000 0.0000 0.0000 0.0000 36.8755
#
#
#
# Elastic Compliance Matrix: (Units=1/GPa)
#
#
# Indices 1 2 3 4 5 6 
#
# 1 0.011076 -0.002111 -0.003971 0.000000 0.000000 0.000000
# 2 -0.002111 0.013343 -0.008414 0.000000 0.000000 0.000000
# 3 -0.003971 -0.008414 0.021934 0.000000 0.000000 0.000000
# 4 0.000000 0.000000 0.000000 0.037078 0.000000 0.000000
# 5 0.000000 0.000000 0.000000 0.000000 0.032893 0.000000
# 6 0.000000 0.000000 0.000000 0.000000 0.000000 0.027118
#
#
# Mechanical properties :
#
#
# Convention : Reuss Voigt Hill
#
# Bulk Modulus (GPa) = 57.59671 60.66153 59.12912
# Shear Modulus (GPa) = 28.05488 30.14729 29.10108
#
# Velocity S-wave (km/s) = 3.91516 4.05854 3.98750
# Velocity P-wave (km/s) = 7.20468 7.42336 7.31484
#
# Compressibility (1/GPa) = 0.01736210
#
# Stress axis : x y z
#
# Youngs Moduli (GPa) = 90.28675 74.94421 45.59078
#
# Poissons Ratio (x) = 0.15824 0.18102
# Poissons Ratio (y) = 0.19064 0.38358
# Poissons Ratio (z) = 0.35848 0.63055
#
# Static dielectric constant tensor:
#      x y z
#    x 1.628750 0.000000 0.000000 
#    y 0.000000 1.633150 0.000000 
#    z 0.000000 0.000000 1.642130 
# 
# From -- ./inp_files/17665.got.cif
#   From: 2010.05.17/outbox.ucp.g08.bks.cvg/sg60_9_cif.got.tgz:17665.got - 2010.06.11 16:26:41.
