data_PCOD9458132
_publ_section_title
;
Structure prediction by ZEFSAII (Michael W. Deem and Ramdas Pophale) SiO2 
 PCOD9458132
Probable space group: P B C N
;
_chemical_formula_sum "Si O2"
_cell_formula_units_Z 48
_cell_length_a 9.979810
_cell_length_b 14.941660
_cell_length_c 14.475411
_cell_angle_alpha 90.000000
_cell_angle_beta 90.000000
_cell_angle_gamma 90.000000
_cell_volume 2158.499867
_symmetry_space_group_name_H-M "P B C N"
_symmetry_group_IT_number 60
_symmetry_cell_setting 'orthorhombic'
loop_
_space_group_symop_operation_xyz
x,y,z
1/2-x,1/2-y,1/2+z
1/2+x,1/2-y,-z
-x,y,1/2-z
-x,-y,-z
1/2+x,1/2+y,1/2-z
1/2-x,1/2+y,z
x,-y,1/2+z
loop_
_atom_site_type_symbol
_atom_site_label
_atom_site_fract_x
_atom_site_fract_y
_atom_site_fract_z
Si Si1 0.917894 0.589390 0.015900
Si Si2 0.520291 0.450912 0.596349
Si Si3 0.277242 0.764048 0.240081
Si Si4 0.225425 0.062899 0.654263
Si Si5 0.472022 0.759087 0.398474
Si Si6 0.291038 0.068176 0.291039
O O1 0.789137 0.581747 0.946609
O O2 0.002091 0.674690 0.982232
O O3 0.885146 0.591988 0.123311
O O4 0.000000 0.500000 0.000000
O O5 0.500000 0.500000 0.500000
O O6 0.394172 0.491345 0.650798
O O7 0.519049 0.345025 0.577935
O O8 0.655658 0.463769 0.654832
O O9 0.185218 0.843798 0.202688
O O10 0.334176 0.777862 0.343783
O O11 0.406360 0.772836 0.173464
O O12 0.228452 0.662003 0.237366
O O13 0.330112 0.011863 0.722093
#
# Coordination Sequence:
#
# PCOD9458132 Si02
#       6
#     8   8   8   8   8   8
#     4  11  24  42  62  94 129 176 216 259 315 390
#     4  11  21  40  65  98 126 166 211 272 326 385
#     4   9  19  37  64  87 119 174 204 263 322 381
#     4  11  22  41  66  93 129 164 218 264 322 385
#     4   9  19  39  61  88 128 164 217 257 320 384
#     4  11  22  40  66  94 130 165 214 265 330 380
#
# _framework density 22.237669
#
# number of rings (size 3 to 8) (size 9 to 14) (size 15 to 20)
#    0.000    1.667    3.333    1.500    0.000    3.333 
#    9.000    0.000    0.000    0.000    0.000    0.000 
#    0.000    0.000    0.000    0.000    0.000    0.000 
#
# Total GULP energy -268023.826244 kJ/mol
# GULP energy per Si atom -5583.829713 kJ/mol
# Density = 2.218705 g / cm^3
# Si number density = 22.237669 Si / 1000 Ang^3
#
#
#
# Elastic Constant Matrix: (Units=GPa)
#
#
# Indices 1 2 3 4 5 6 
#
# 1 22.4575 7.1703 -12.3086 0.0000 0.0000 0.0000
# 2 7.1703 96.9335 24.3688 0.0000 0.0000 0.0000
# 3 -12.3086 24.3688 80.2655 0.0000 0.0000 0.0000
# 4 0.0000 0.0000 0.0000 49.2487 0.0000 0.0000
# 5 0.0000 0.0000 0.0000 0.0000 21.0170 0.0000
# 6 0.0000 0.0000 0.0000 0.0000 0.0000 19.2949
#
#
#
# Elastic Compliance Matrix: (Units=1/GPa)
#
#
# Indices 1 2 3 4 5 6 
#
# 1 0.051972 -0.006331 0.009892 0.000000 0.000000 0.000000
# 2 -0.006331 0.011940 -0.004596 0.000000 0.000000 0.000000
# 3 0.009892 -0.004596 0.015371 0.000000 0.000000 0.000000
# 4 0.000000 0.000000 0.000000 0.020305 0.000000 0.000000
# 5 0.000000 0.000000 0.000000 0.000000 0.047580 0.000000
# 6 0.000000 0.000000 0.000000 0.000000 0.000000 0.051827
#
#
# Mechanical properties :
#
#
# Convention : Reuss Voigt Hill
#
# Bulk Modulus (GPa) = 12.95129 26.45749 19.70439
# Shear Modulus (GPa) = 22.04554 29.94052 25.99303
#
# Velocity S-wave (km/s) = 3.15200 3.67330 3.42259
# Velocity P-wave (km/s) = 4.36847 5.46939 4.94963
#
# Compressibility (1/GPa) = 0.07721241
#
# Stress axis : x y z
#
# Youngs Moduli (GPa) = 19.24122 83.75152 65.05797
#
# Poissons Ratio (x) = 0.53025 -0.64355
# Poissons Ratio (y) = 0.12182 0.29900
# Poissons Ratio (z) = -0.19033 0.38492
#
# Static dielectric constant tensor:
#      x y z
#    x 1.991730 0.000000 0.000000 
#    y 0.000000 1.842540 0.000000 
#    z 0.000000 0.000000 1.524150 
# 
# From -- ./inp_files/16078.got.cif
#   From: 2010.05.17/outbox.cif.g08.bks.cpg/sg60_9_cif.got.tgz:16078.got - 2010.06.03 14:59:27.
