data_PCOD9458482
_publ_section_title
;
Structure prediction by ZEFSAII (Michael W. Deem and Ramdas Pophale) SiO2 
 PCOD9458482
Probable space group: P B C N
;
_chemical_formula_sum "Si O2"
_cell_formula_units_Z 48
_cell_length_a 6.954510
_cell_length_b 25.433226
_cell_length_c 13.873730
_cell_angle_alpha 90.000000
_cell_angle_beta 90.000000
_cell_angle_gamma 90.000000
_cell_volume 2453.924659
_symmetry_space_group_name_H-M "P B C N"
_symmetry_group_IT_number 60
_symmetry_cell_setting 'orthorhombic'
loop_
_space_group_symop_operation_xyz
x,y,z
1/2-x,1/2-y,1/2+z
1/2+x,1/2-y,-z
-x,y,1/2-z
-x,-y,-z
1/2+x,1/2+y,1/2-z
1/2-x,1/2+y,z
x,-y,1/2+z
loop_
_atom_site_type_symbol
_atom_site_label
_atom_site_fract_x
_atom_site_fract_y
_atom_site_fract_z
Si Si1 0.500000 0.390772 0.250000
Si Si2 0.818160 0.309508 0.822111
Si Si3 0.644380 0.059905 0.657341
Si Si4 0.681840 0.190493 0.822111
Si Si5 0.500000 0.609228 0.250000
Si Si6 1.000000 0.642023 0.000000
Si Si7 0.855620 0.440095 0.657341
O O1 0.637460 0.427992 0.187759
O O2 0.651211 0.351437 0.300043
O O3 0.750000 0.250000 0.807956
O O4 0.651211 0.351438 0.800043
O O5 0.874099 0.320624 0.932335
O O6 0.000000 0.317455 0.750000
O O7 0.500000 0.065003 0.750000
O O8 0.597500 0.102775 0.576470
O O9 0.623103 1.000000 0.622716
O O10 0.500000 0.182545 0.750000
O O11 0.625900 0.179376 0.932335
O O12 0.362540 0.572007 0.312241
O O13 0.902499 0.602775 0.076471
O O14 0.000000 0.434997 0.750000
#
# Coordination Sequence:
#
# PCOD9458482 Si02
#       7
#     4   8   8   8   4   8   8
#     4  12  21  46  70  94 136 186 213 272 340 402
#     4  12  26  45  71  98 138 176 225 278 340 399
#     4  11  24  44  69 101 140 180 223 275 336 397
#     4  12  26  45  71  98 138 176 225 278 340 399
#     4  12  21  46  70  94 136 186 213 272 340 402
#     4  12  23  46  66 104 134 174 225 290 320 394
#     4  11  24  44  69 101 140 180 223 275 336 397
#
# _framework density 19.560500999999999
#
# number of rings (size 3 to 8) (size 9 to 14) (size 15 to 20)
#    0.000    0.333    8.333    1.000    0.000    5.333 
#    0.000    1.667    0.000    0.000    0.000    0.000 
#    0.000    0.000    0.000    0.000    0.000    0.000 
#
# Total GULP energy -267882.330978 kJ/mol
# GULP energy per Si atom -5580.881895 kJ/mol
# Density = 1.951598 g / cm^3
# Si number density = 19.560501 Si / 1000 Ang^3
#
#
#
# Elastic Constant Matrix: (Units=GPa)
#
#
# Indices 1 2 3 4 5 6 
#
# 1 102.9042 10.6625 32.8922 0.0000 0.0000 0.0000
# 2 10.6625 92.2925 1.9874 0.0000 0.0000 0.0000
# 3 32.8922 1.9874 83.4112 0.0000 0.0000 0.0000
# 4 0.0000 0.0000 0.0000 32.2355 0.0000 0.0000
# 5 0.0000 0.0000 0.0000 0.0000 36.8447 0.0000
# 6 0.0000 0.0000 0.0000 0.0000 0.0000 294.3710
#
#
#
# Elastic Compliance Matrix: (Units=1/GPa)
#
#
# Indices 1 2 3 4 5 6 
#
# 1 0.011252 -0.001205 -0.004408 0.000000 0.000000 0.000000
# 2 -0.001205 0.010970 0.000214 0.000000 0.000000 0.000000
# 3 -0.004408 0.000214 0.013722 0.000000 0.000000 0.000000
# 4 0.000000 0.000000 0.000000 0.031022 0.000000 0.000000
# 5 0.000000 0.000000 0.000000 0.000000 0.027141 0.000000
# 6 0.000000 0.000000 0.000000 0.000000 0.000000 0.003397
#
#
# Mechanical properties :
#
#
# Convention : Reuss Voigt Hill
#
# Bulk Modulus (GPa) = 39.77001 41.07691 40.42346
# Shear Modulus (GPa) = 42.85096 88.22797 65.53946
#
# Velocity S-wave (km/s) = 4.68556 6.72332 5.79472
# Velocity P-wave (km/s) = 7.04617 9.01756 8.09212
#
# Compressibility (1/GPa) = 0.02514458
#
# Stress axis : x y z
#
# Youngs Moduli (GPa) = 88.87556 91.16000 72.87543
#
# Poissons Ratio (x) = 0.10985 0.32125
# Poissons Ratio (y) = 0.10709 -0.01558
# Poissons Ratio (z) = 0.39179 -0.01949
#
# Static dielectric constant tensor:
#      x y z
#    x 1.699180 0.000000 0.000000 
#    y 0.000000 1.677560 0.000000 
#    z 0.000000 0.000000 1.760190 
# 
# From -- ./inp_files/13972.got.cif
#   From: 2010.05.17/outbox.cif.g08.bks.cpg/sg60_7_cif.got.tgz:13972.got - 2010.06.03 14:59:27.
