data_PCOD9458240
_publ_section_title
;
Structure prediction by ZEFSAII (Michael W. Deem and Ramdas Pophale) SiO2 
 PCOD9458240
Probable space group: P B C N
;
_chemical_formula_sum "Si O2"
_cell_formula_units_Z 40
_cell_length_a 11.748133
_cell_length_b 19.045060
_cell_length_c 8.750221
_cell_angle_alpha 90.000000
_cell_angle_beta 90.000000
_cell_angle_gamma 90.000000
_cell_volume 1957.808554
_symmetry_space_group_name_H-M "P B C N"
_symmetry_group_IT_number 60
_symmetry_cell_setting 'orthorhombic'
loop_
_space_group_symop_operation_xyz
x,y,z
1/2-x,1/2-y,1/2+z
1/2+x,1/2-y,-z
-x,y,1/2-z
-x,-y,-z
1/2+x,1/2+y,1/2-z
1/2-x,1/2+y,z
x,-y,1/2+z
loop_
_atom_site_type_symbol
_atom_site_label
_atom_site_fract_x
_atom_site_fract_y
_atom_site_fract_z
Si Si1 0.190254 0.046366 0.324426
Si Si2 0.030522 0.166547 0.428212
Si Si3 0.071709 0.320532 0.408947
Si Si4 0.690253 0.400435 0.031449
Si Si5 0.053857 0.434534 0.913364
O O1 0.105555 0.096376 0.419480
O O2 0.312659 0.058111 0.399187
O O3 0.163514 0.964862 0.354763
O O4 0.196344 0.068720 0.144541
O O5 0.089805 0.240505 0.464707
O O6 0.000000 0.175190 0.250000
O O7 0.916143 0.152737 0.523461
O O8 0.191837 0.362737 0.417931
O O9 0.000000 0.322582 0.250000
O O10 0.986090 0.361685 0.517991
O O11 0.000000 0.439435 0.750000
O O12 0.000000 0.500000 0.000000
#
# Coordination Sequence:
#
# PCOD9458240 Si02
#       5
#     8   8   8   8   8
#     4  11  22  41  66  93 126 165 213 267 316 378
#     4   9  23  44  64  90 130 174 207 267 326 385
#     4  11  24  41  64  93 130 168 213 266 330 382
#     4  11  23  42  67  93 127 166 219 263 324 385
#     4  12  22  38  60  94 126 164 214 266 317 379
#
# _framework density 20.431007000000001
#
# number of rings (size 3 to 8) (size 9 to 14) (size 15 to 20)
#    0.000    1.200    4.000    1.200    5.600    0.000 
#    0.000    2.000    0.000    0.000    0.000    0.000 
#    0.000    0.000    0.000    0.000    0.000    0.000 
#
# Total GULP energy -223181.466853 kJ/mol
# GULP energy per Si atom -5579.536671 kJ/mol
# Density = 2.038451 g / cm^3
# Si number density = 20.431007 Si / 1000 Ang^3
#
#
#
# Elastic Constant Matrix: (Units=GPa)
#
#
# Indices 1 2 3 4 5 6 
#
# 1 67.4187 21.9836 32.6477 0.0000 0.0000 0.0000
# 2 21.9836 132.4647 34.3060 0.0000 0.0000 0.0000
# 3 32.6477 34.3060 65.5168 0.0000 0.0000 0.0000
# 4 0.0000 0.0000 0.0000 13.8866 0.0000 0.0000
# 5 0.0000 0.0000 0.0000 0.0000 31.3974 0.0000
# 6 0.0000 0.0000 0.0000 0.0000 0.0000 39.8695
#
#
#
# Elastic Compliance Matrix: (Units=1/GPa)
#
#
# Indices 1 2 3 4 5 6 
#
# 1 0.019630 -0.000838 -0.009343 0.000000 0.000000 0.000000
# 2 -0.000838 0.008769 -0.004174 0.000000 0.000000 0.000000
# 3 -0.009343 -0.004174 0.022105 0.000000 0.000000 0.000000
# 4 0.000000 0.000000 0.000000 0.072012 0.000000 0.000000
# 5 0.000000 0.000000 0.000000 0.000000 0.031850 0.000000
# 6 0.000000 0.000000 0.000000 0.000000 0.000000 0.025082
#
#
# Mechanical properties :
#
#
# Convention : Reuss Voigt Hill
#
# Bulk Modulus (GPa) = 45.88509 49.25274 47.56892
# Shear Modulus (GPa) = 23.21013 28.79491 26.00252
#
# Velocity S-wave (km/s) = 3.37415 3.75823 3.57136
# Velocity P-wave (km/s) = 6.13899 6.55680 6.35133
#
# Compressibility (1/GPa) = 0.02179357
#
# Stress axis : x y z
#
# Youngs Moduli (GPa) = 50.94135 114.03415 45.23912
#
# Poissons Ratio (x) = 0.09557 0.42268
# Poissons Ratio (y) = 0.04269 0.18884
# Poissons Ratio (z) = 0.47595 0.47600
#
# Static dielectric constant tensor:
#      x y z
#    x 2.037680 0.000000 0.000000 
#    y 0.000000 1.823980 0.000000 
#    z 0.000000 0.000000 1.730900 
# 
# From -- ./inp_files/4735.got.cif
#   From: 2010.05.17/outbox.cif.g08.bks.cpg/sg60_3_cif.got.tgz:4735.got - 2010.06.03 14:59:27.
