data_PCOD9458580
_publ_section_title
;
Structure prediction by ZEFSAII (Michael W. Deem and Ramdas Pophale) SiO2 
 PCOD9458580
Probable space group: P B C N
;
_chemical_formula_sum "Si O2"
_cell_formula_units_Z 40
_cell_length_a 6.936651
_cell_length_b 16.331687
_cell_length_c 13.533337
_cell_angle_alpha 90.000000
_cell_angle_beta 90.000000
_cell_angle_gamma 90.000000
_cell_volume 1533.154031
_symmetry_space_group_name_H-M "P B C N"
_symmetry_group_IT_number 60
_symmetry_cell_setting 'orthorhombic'
loop_
_space_group_symop_operation_xyz
x,y,z
1/2-x,1/2-y,1/2+z
1/2+x,1/2-y,-z
-x,y,1/2-z
-x,-y,-z
1/2+x,1/2+y,1/2-z
1/2-x,1/2+y,z
x,-y,1/2+z
loop_
_atom_site_type_symbol
_atom_site_label
_atom_site_fract_x
_atom_site_fract_y
_atom_site_fract_z
Si Si1 0.824012 0.160123 0.049228
Si Si2 0.575849 0.536959 0.356220
Si Si3 0.378652 0.658793 0.672513
Si Si4 0.924077 0.589980 0.476930
Si Si5 0.371700 0.815387 0.325238
O O1 0.598615 0.145599 0.057784
O O2 0.889478 0.223894 0.131456
O O3 0.919014 0.071035 0.067006
O O4 0.869911 0.192881 0.939785
O O5 0.500000 0.563806 0.250000
O O6 0.613576 0.440399 0.344606
O O7 0.766674 0.582324 0.392179
O O8 0.622361 0.678687 0.701682
O O9 0.126788 0.670523 0.700175
O O10 0.854460 0.623620 0.581759
O O11 0.000000 0.500000 0.500000
#
# Coordination Sequence:
#
# PCOD9458580 Si02
#       5
#     8   8   8   8   8
#     4  12  27  48  78 112 157 205 261 323 396 468
#     4  11  26  49  78 113 156 201 261 321 386 470
#     4  11  25  46  78 107 152 205 253 319 393 458
#     4  12  27  49  81 111 154 207 263 319 390 474
#     4  12  27  50  74 112 158 200 259 326 393 463
#
# _framework density 26.090008000000001
#
# number of rings (size 3 to 8) (size 9 to 14) (size 15 to 20)
#    0.000    0.400    4.000    2.400   11.200    2.400 
#    0.000    0.000    0.000    0.000    0.000    0.000 
#    0.000    0.000    0.000    0.000    0.000    0.000 
#
# Total GULP energy -223775.849204 kJ/mol
# GULP energy per Si atom -5594.396230 kJ/mol
# Density = 2.603063 g / cm^3
# Si number density = 26.090008 Si / 1000 Ang^3
#
#
#
# Elastic Constant Matrix: (Units=GPa)
#
#
# Indices 1 2 3 4 5 6 
#
# 1 219.2514 53.2207 97.5830 0.0000 0.0000 0.0000
# 2 53.2207 140.3005 71.2831 0.0000 0.0000 0.0000
# 3 97.5830 71.2831 188.1890 0.0000 0.0000 0.0000
# 4 0.0000 0.0000 0.0000 36.7058 0.0000 0.0000
# 5 0.0000 0.0000 0.0000 0.0000 86.9407 0.0000
# 6 0.0000 0.0000 0.0000 0.0000 0.0000 24.4556
#
#
#
# Elastic Compliance Matrix: (Units=1/GPa)
#
#
# Indices 1 2 3 4 5 6 
#
# 1 0.006013 -0.000863 -0.002791 0.000000 0.000000 0.000000
# 2 -0.000863 0.008950 -0.002943 0.000000 0.000000 0.000000
# 3 -0.002791 -0.002943 0.007876 0.000000 0.000000 0.000000
# 4 0.000000 0.000000 0.000000 0.027244 0.000000 0.000000
# 5 0.000000 0.000000 0.000000 0.000000 0.011502 0.000000
# 6 0.000000 0.000000 0.000000 0.000000 0.000000 0.040890
#
#
# Mechanical properties :
#
#
# Convention : Reuss Voigt Hill
#
# Bulk Modulus (GPa) = 103.67706 110.21271 106.94489
# Shear Modulus (GPa) = 42.05838 51.33070 46.69454
#
# Velocity S-wave (km/s) = 4.01939 4.44040 4.23513
# Velocity P-wave (km/s) = 7.83359 8.28399 8.06194
#
# Compressibility (1/GPa) = 0.00964534
#
# Stress axis : x y z
#
# Youngs Moduli (GPa) = 166.31806 111.73230 126.97323
#
# Poissons Ratio (x) = 0.09640 0.35437
# Poissons Ratio (y) = 0.14349 0.37365
# Poissons Ratio (z) = 0.46418 0.32880
#
# Static dielectric constant tensor:
#      x y z
#    x 2.500850 0.000000 0.000000 
#    y 0.000000 1.968330 0.000000 
#    z 0.000000 0.000000 1.837720 
# 
# From -- ./inp_files/18509.got.cif
#   From: 2010.05.17/outbox.cif.g08.bks.cpg/sg60_10_cif.got.tgz:18509.got - 2010.06.03 14:59:27.
