data_PCOD9458348
_publ_section_title
;
Structure prediction by ZEFSAII (Michael W. Deem and Ramdas Pophale) SiO2 
 PCOD9458348
Probable space group: P B C N
;
_chemical_formula_sum "Si O2"
_cell_formula_units_Z 48
_cell_length_a 9.833759
_cell_length_b 10.615857
_cell_length_c 22.178067
_cell_angle_alpha 90.000000
_cell_angle_beta 90.000000
_cell_angle_gamma 90.000000
_cell_volume 2315.252232
_symmetry_space_group_name_H-M "P B C N"
_symmetry_group_IT_number 60
_symmetry_cell_setting 'orthorhombic'
loop_
_space_group_symop_operation_xyz
x,y,z
1/2-x,1/2-y,1/2+z
1/2+x,1/2-y,-z
-x,y,1/2-z
-x,-y,-z
1/2+x,1/2+y,1/2-z
1/2-x,1/2+y,z
x,-y,1/2+z
loop_
_atom_site_type_symbol
_atom_site_label
_atom_site_fract_x
_atom_site_fract_y
_atom_site_fract_z
Si Si1 0.603835 0.616283 0.001964
Si Si2 0.896175 0.383713 0.001984
Si Si3 0.749995 0.500038 0.397033
Si Si4 0.250016 0.000028 0.390107
Si Si5 0.991107 0.898969 0.321559
Si Si6 0.508895 0.101139 0.321559
O O1 0.531442 0.749997 0.998279
O O2 0.709494 0.606024 0.946419
O O3 0.500000 0.500000 0.000000
O O4 0.682412 0.600056 0.064417
O O5 0.790479 0.393963 0.946452
O O6 0.817649 0.399950 0.064450
O O7 0.000000 0.500000 0.000000
O O8 0.620499 0.489538 0.353053
O O9 0.879495 0.510581 0.353058
O O10 0.134720 0.934010 0.350911
O O11 0.365282 0.066088 0.350910
O O12 0.958877 0.750054 0.331932
O O13 0.000000 0.918521 0.250000
O O14 0.500000 0.081583 0.250000
#
# Coordination Sequence:
#
# PCOD9458348 Si02
#       6
#     8   8   8   8   8   8
#     4  11  24  41  69 102 136 179 226 287 349 414
#     4  11  24  41  69 102 136 179 226 287 349 414
#     4  11  23  42  66  98 137 177 224 280 346 411
#     4  11  23  44  66  98 135 177 224 286 344 413
#     4  11  24  44  68  96 135 183 233 284 340 409
#     4  11  24  44  68  96 135 183 233 284 340 409
#
# _framework density 20.732081999999998
#
# number of rings (size 3 to 8) (size 9 to 14) (size 15 to 20)
#    0.000    1.000    3.333    3.000    0.000    6.667 
#    0.000    0.000    0.000   10.000    0.000    0.000 
#    0.000    0.000    0.000    0.000    0.000    0.000 
#
# Total GULP energy -267728.130472 kJ/mol
# GULP energy per Si atom -5577.669385 kJ/mol
# Density = 2.068489 g / cm^3
# Si number density = 20.732082 Si / 1000 Ang^3
#
#
#
# Elastic Constant Matrix: (Units=GPa)
#
#
# Indices 1 2 3 4 5 6 
#
# 1 138.7458 52.2582 72.2961 0.0000 0.0000 0.0000
# 2 52.2582 134.0921 39.1507 0.0000 0.0000 0.0000
# 3 72.2961 39.1507 177.4518 0.0000 0.0000 0.0000
# 4 0.0000 0.0000 0.0000 -19.3514 0.0000 0.0000
# 5 0.0000 0.0000 0.0000 0.0000 24.4876 0.0000
# 6 0.0000 0.0000 0.0000 0.0000 0.0000 24.9098
#
#
#
# Elastic Compliance Matrix: (Units=1/GPa)
#
#
# Indices 1 2 3 4 5 6 
#
# 1 0.010123 -0.002930 -0.003478 0.000000 0.000000 0.000000
# 2 -0.002930 0.008819 -0.000752 0.000000 0.000000 0.000000
# 3 -0.003478 -0.000752 0.007218 0.000000 0.000000 0.000000
# 4 0.000000 0.000000 0.000000 -0.051676 0.000000 0.000000
# 5 0.000000 0.000000 0.000000 0.000000 0.040837 0.000000
# 6 0.000000 0.000000 0.000000 0.000000 0.000000 0.040145
#
#
# Mechanical properties :
#
#
# Convention : Reuss Voigt Hill
#
# Bulk Modulus (GPa) = 84.45375 86.41108 85.43241
# Shear Modulus (GPa) = 67.81275 25.11487 46.46381
#
# Velocity S-wave (km/s) = 5.72539 3.48429 4.73922
# Velocity P-wave (km/s) = 9.19407 7.61298 8.44063
#
# Compressibility (1/GPa) = 0.01184080
#
# Stress axis : x y z
#
# Youngs Moduli (GPa) = 98.78368 113.39265 138.53852
#
# Poissons Ratio (x) = 0.33221 0.48182
# Poissons Ratio (y) = 0.28941 0.10419
# Poissons Ratio (z) = 0.34356 0.08528
#
# Static dielectric constant tensor:
#      x y z
#    x 1.760280 0.000000 0.000000 
#    y 0.000000 1.780860 0.000000 
#    z 0.000000 0.000000 1.736120 
# 
# From -- ./inp_files/23939.got.cif
#   From: 2010.05.17/outbox.cif.g08.bks.cpg/sg60_12_cif.got.tgz:23939.got - 2010.06.03 14:59:27.
