data_PCOD9458509
_publ_section_title
;
Structure prediction by ZEFSAII (Michael W. Deem and Ramdas Pophale) SiO2 
 PCOD9458509
Probable space group: P B C N
;
_chemical_formula_sum "Si O2"
_cell_formula_units_Z 40
_cell_length_a 5.026476
_cell_length_b 20.914650
_cell_length_c 15.314910
_cell_angle_alpha 90.000000
_cell_angle_beta 90.000000
_cell_angle_gamma 90.000000
_cell_volume 1610.010333
_symmetry_space_group_name_H-M "P B C N"
_symmetry_group_IT_number 60
_symmetry_cell_setting 'orthorhombic'
loop_
_space_group_symop_operation_xyz
x,y,z
1/2-x,1/2-y,1/2+z
1/2+x,1/2-y,-z
-x,y,1/2-z
-x,-y,-z
1/2+x,1/2+y,1/2-z
1/2-x,1/2+y,z
x,-y,1/2+z
loop_
_atom_site_type_symbol
_atom_site_label
_atom_site_fract_x
_atom_site_fract_y
_atom_site_fract_z
Si Si1 0.000000 0.417177 0.250000
Si Si2 0.897666 0.483736 0.900457
Si Si3 0.173235 0.813146 0.321200
Si Si4 0.610978 0.599940 0.104783
Si Si5 0.500000 0.697720 0.250000
Si Si6 0.712219 0.712284 0.979905
O O1 0.138622 0.465252 0.178845
O O2 0.097000 0.365254 0.325172
O O3 0.616096 0.450179 0.917344
O O4 0.127667 0.436532 0.862954
O O5 0.000000 0.500000 0.000000
O O6 0.273751 0.746930 0.279783
O O7 0.966376 0.796477 0.395372
O O8 0.000000 0.850472 0.250000
O O9 0.467482 0.649606 0.170079
O O10 0.715497 0.645034 0.027598
O O11 0.010119 0.739211 0.967562
#
# Coordination Sequence:
#
# PCOD9458509 Si02
#       6
#     4   8   8   8   4   8
#     4  11  28  48  70 108 144 201 252 300 362 431
#     4  12  28  49  74 103 145 195 250 297 359 435
#     4  11  26  43  76 102 153 189 241 307 367 449
#     4  12  26  45  77 102 146 183 241 301 363 429
#     4  11  24  46  66 114 136 185 232 298 378 433
#     4  12  25  46  72 112 149 187 238 301 379 453
#
# _framework density 24.844560000000001
#
# number of rings (size 3 to 8) (size 9 to 14) (size 15 to 20)
#    0.000    0.400    2.000    5.400   11.200    0.000 
#    0.000    0.000    0.000    0.000    0.000    0.000 
#    0.000    0.000    0.000    0.000    0.000    0.000 
#
# Total GULP energy -223075.752443 kJ/mol
# GULP energy per Si atom -5576.893811 kJ/mol
# Density = 2.478801 g / cm^3
# Si number density = 24.844560 Si / 1000 Ang^3
#
#
#
# Elastic Constant Matrix: (Units=GPa)
#
#
# Indices 1 2 3 4 5 6 
#
# 1 99.3548 28.7618 -23.1262 0.0000 0.0000 0.0000
# 2 28.7618 110.1827 18.1112 0.0000 0.0000 0.0000
# 3 -23.1262 18.1112 79.8382 0.0000 0.0000 0.0000
# 4 0.0000 0.0000 0.0000 -382.5666 0.0000 0.0000
# 5 0.0000 0.0000 0.0000 0.0000 31.9956 0.0000
# 6 0.0000 0.0000 0.0000 0.0000 0.0000 -4.0678
#
#
#
# Elastic Compliance Matrix: (Units=1/GPa)
#
#
# Indices 1 2 3 4 5 6 
#
# 1 0.012232 -0.003922 0.004433 0.000000 0.000000 0.000000
# 2 -0.003922 0.010685 -0.003560 0.000000 0.000000 0.000000
# 3 0.004433 -0.003560 0.014617 0.000000 0.000000 0.000000
# 4 0.000000 0.000000 0.000000 -0.002614 0.000000 0.000000
# 5 0.000000 0.000000 0.000000 0.000000 0.031254 0.000000
# 6 0.000000 0.000000 0.000000 0.000000 0.000000 -0.245836
#
#
# Mechanical properties :
#
#
# Convention : Reuss Voigt Hill
#
# Bulk Modulus (GPa) = 31.81036 37.42991 34.62014
# Shear Modulus (GPa) = -30.65871 -53.21915 -41.93893
#
# Velocity S-wave (km/s) = -3.51667 -4.63329 -4.11305
# Velocity P-wave (km/s) = 1.91253 3.67761 2.93109
#
# Compressibility (1/GPa) = 0.03143630
#
# Stress axis : x y z
#
# Youngs Moduli (GPa) = 81.75282 93.59214 68.41409
#
# Poissons Ratio (x) = 0.36703 -0.30326
# Poissons Ratio (y) = 0.32061 0.24354
# Poissons Ratio (z) = -0.36239 0.33317
#
# Static dielectric constant tensor:
#      x y z
#    x 2.398690 0.000000 0.000000 
#    y 0.000000 1.938120 0.000000 
#    z 0.000000 0.000000 1.865160 
# 
# From -- ./inp_files/18556.got.cif
#   From: 2010.05.17/outbox.cif.g08.bks.cpg/sg60_10_cif.got.tgz:18556.got - 2010.06.03 14:59:27.
