data_PCOD9458771
_publ_section_title
;
Structure prediction by ZEFSAII (Michael W. Deem and Ramdas Pophale) SiO2 
 PCOD9458771
Probable space group: P B C N
;
_chemical_formula_sum "Si O2"
_cell_formula_units_Z 32
_cell_length_a 8.484805
_cell_length_b 9.876997
_cell_length_c 17.075308
_cell_angle_alpha 90.000000
_cell_angle_beta 90.000000
_cell_angle_gamma 90.000000
_cell_volume 1430.985831
_symmetry_space_group_name_H-M "P B C N"
_symmetry_group_IT_number 60
_symmetry_cell_setting 'orthorhombic'
loop_
_space_group_symop_operation_xyz
x,y,z
1/2-x,1/2-y,1/2+z
1/2+x,1/2-y,-z
-x,y,1/2-z
-x,-y,-z
1/2+x,1/2+y,1/2-z
1/2-x,1/2+y,z
x,-y,1/2+z
loop_
_atom_site_type_symbol
_atom_site_label
_atom_site_fract_x
_atom_site_fract_y
_atom_site_fract_z
Si Si1 0.337621 0.697031 0.363485
Si Si2 0.665792 0.024042 0.542309
Si Si3 0.668860 0.725455 0.791406
Si Si4 0.326555 0.446621 0.616086
O O1 0.208479 0.590698 0.394841
O O2 0.335197 0.830255 0.416909
O O3 0.295786 0.743440 0.276070
O O4 0.504812 0.622382 0.369897
O O5 0.797287 0.019120 0.474277
O O6 0.500000 0.000000 0.500000
O O7 0.500000 0.731496 0.750000
O O8 0.688579 0.580125 0.831372
O O9 0.695125 0.839113 0.856900
#
# Coordination Sequence:
#
# PCOD9458771 Si02
#       4
#     8   8   8   8
#     4  12  25  45  70 100 138 180 229 284 343 409
#     4  12  25  44  69 101 137 182 230 284 345 410
#     4  12  25  44  67  97 132 176 224 278 339 406
#     4  12  26  45  69 100 137 178 226 282 340 405
#
# _framework density 22.362206
#
# number of rings (size 3 to 8) (size 9 to 14) (size 15 to 20)
#    0.000    0.000    0.000   12.000    0.000    2.000 
#    0.000    0.000    0.000    0.000    0.000    0.000 
#    0.000    0.000    0.000    0.000    0.000    0.000 
#
# Total GULP energy -179505.722585 kJ/mol
# GULP energy per Si atom -5609.553831 kJ/mol
# Density = 2.231131 g / cm^3
# Si number density = 22.362206 Si / 1000 Ang^3
#
#
#
# Elastic Constant Matrix: (Units=GPa)
#
#
# Indices 1 2 3 4 5 6 
#
# 1 65.7288 32.0780 19.1537 0.0000 0.0000 0.0000
# 2 32.0780 164.5400 43.0069 0.0000 0.0000 0.0000
# 3 19.1537 43.0069 109.1738 0.0000 0.0000 0.0000
# 4 0.0000 0.0000 0.0000 54.3937 0.0000 0.0000
# 5 0.0000 0.0000 0.0000 0.0000 45.5126 0.0000
# 6 0.0000 0.0000 0.0000 0.0000 0.0000 35.1907
#
#
#
# Elastic Compliance Matrix: (Units=1/GPa)
#
#
# Indices 1 2 3 4 5 6 
#
# 1 0.017155 -0.002851 -0.001887 0.000000 0.000000 0.000000
# 2 -0.002851 0.007249 -0.002355 0.000000 0.000000 0.000000
# 3 -0.001887 -0.002355 0.010419 0.000000 0.000000 0.000000
# 4 0.000000 0.000000 0.000000 0.018384 0.000000 0.000000
# 5 0.000000 0.000000 0.000000 0.000000 0.021972 0.000000
# 6 0.000000 0.000000 0.000000 0.000000 0.000000 0.028417
#
#
# Mechanical properties :
#
#
# Convention : Reuss Voigt Hill
#
# Bulk Modulus (GPa) = 48.45820 58.65775 53.55798
# Shear Modulus (GPa) = 40.10860 43.36631 41.73745
#
# Velocity S-wave (km/s) = 4.23967 4.40849 4.32490
# Velocity P-wave (km/s) = 6.75893 7.22501 6.99585
#
# Compressibility (1/GPa) = 0.02063634
#
# Stress axis : x y z
#
# Youngs Moduli (GPa) = 58.29074 137.94822 95.98281
#
# Poissons Ratio (x) = 0.39335 0.18107
# Poissons Ratio (y) = 0.16621 0.22608
# Poissons Ratio (z) = 0.10997 0.32492
#
# Static dielectric constant tensor:
#      x y z
#    x 1.834860 0.000000 0.000000 
#    y 0.000000 1.767790 0.000000 
#    z 0.000000 0.000000 1.800990 
# 
# From -- ./inp_files/18954.got.cif
#   From: 2010.05.17/outbox.cif.g08.bks.cpg/sg60_10_cif.got.tgz:18954.got - 2010.06.03 14:59:27.
