data_PCOD9458597
_publ_section_title
;
Structure prediction by ZEFSAII (Michael W. Deem and Ramdas Pophale) SiO2 
 PCOD9458597
Probable space group: P B C N
;
_chemical_formula_sum "Si O2"
_cell_formula_units_Z 32
_cell_length_a 10.533075
_cell_length_b 8.476450
_cell_length_c 12.910515
_cell_angle_alpha 90.000000
_cell_angle_beta 90.000000
_cell_angle_gamma 90.000000
_cell_volume 1152.690590
_symmetry_space_group_name_H-M "P B C N"
_symmetry_group_IT_number 60
_symmetry_cell_setting 'orthorhombic'
loop_
_space_group_symop_operation_xyz
x,y,z
1/2-x,1/2-y,1/2+z
1/2+x,1/2-y,-z
-x,y,1/2-z
-x,-y,-z
1/2+x,1/2+y,1/2-z
1/2-x,1/2+y,z
x,-y,1/2+z
loop_
_atom_site_type_symbol
_atom_site_label
_atom_site_fract_x
_atom_site_fract_y
_atom_site_fract_z
Si Si1 0.829778 0.557405 0.492682
Si Si2 0.283210 0.786603 0.726846
Si Si3 0.124752 0.018603 0.860269
Si Si4 0.048292 0.734313 0.598808
O O1 0.838426 0.642485 0.380544
O O2 0.683935 0.560410 0.528162
O O3 0.877912 0.378006 0.485235
O O4 0.911591 0.653523 0.576001
O O5 0.235017 0.917745 0.805389
O O6 0.375481 0.671041 0.787912
O O7 0.149053 0.707682 0.691111
O O8 0.000346 0.913407 0.876570
#
# Coordination Sequence:
#
# PCOD9458597 Si02
#       4
#     8   8   8   8
#     4  11  26  51  78 119 166 217 268 342 405 490
#     4  12  26  50  79 121 164 208 276 342 401 495
#     4  12  26  48  83 118 165 212 273 337 409 495
#     4  11  25  49  77 114 160 215 268 333 413 480
#
# _framework density 27.761136
#
# number of rings (size 3 to 8) (size 9 to 14) (size 15 to 20)
#    0.000    0.500    5.000    2.250    0.000    1.000 
#    4.500    0.000    0.000    0.000    0.000    0.000 
#    0.000    0.000    0.000    0.000    0.000    0.000 
#
# Total GULP energy -178724.381572 kJ/mol
# GULP energy per Si atom -5585.136924 kJ/mol
# Density = 2.769795 g / cm^3
# Si number density = 27.761136 Si / 1000 Ang^3
#
#
#
# Elastic Constant Matrix: (Units=GPa)
#
#
# Indices 1 2 3 4 5 6 
#
# 1 135.2356 51.6806 70.9019 0.0000 0.0000 0.0000
# 2 51.6806 130.3466 49.2698 0.0000 0.0000 0.0000
# 3 70.9019 49.2698 94.8905 0.0000 0.0000 0.0000
# 4 0.0000 0.0000 0.0000 56.7148 0.0000 0.0000
# 5 0.0000 0.0000 0.0000 0.0000 42.8504 0.0000
# 6 0.0000 0.0000 0.0000 0.0000 0.0000 -2.2078
#
#
#
# Elastic Compliance Matrix: (Units=1/GPa)
#
#
# Indices 1 2 3 4 5 6 
#
# 1 0.012477 -0.001770 -0.008403 0.000000 0.000000 0.000000
# 2 -0.001770 0.009796 -0.003764 0.000000 0.000000 0.000000
# 3 -0.008403 -0.003764 0.018772 0.000000 0.000000 0.000000
# 4 0.000000 0.000000 0.000000 0.017632 0.000000 0.000000
# 5 0.000000 0.000000 0.000000 0.000000 0.023337 0.000000
# 6 0.000000 0.000000 0.000000 0.000000 0.000000 -0.452936
#
#
# Mechanical properties :
#
#
# Convention : Reuss Voigt Hill
#
# Bulk Modulus (GPa) = 75.93103 78.24193 77.08648
# Shear Modulus (GPa) = -14.76419 32.04618 8.64099
#
# Velocity S-wave (km/s) = -2.30865 3.40126 1.76618
# Velocity P-wave (km/s) = 4.50605 6.60833 5.65572
#
# Compressibility (1/GPa) = 0.01316985
#
# Stress axis : x y z
#
# Youngs Moduli (GPa) = 80.14828 102.07757 53.27178
#
# Poissons Ratio (x) = 0.18073 0.44766
# Poissons Ratio (y) = 0.14190 0.20050
# Poissons Ratio (z) = 0.67352 0.38419
#
# Static dielectric constant tensor:
#      x y z
#    x 2.078780 0.000000 0.000000 
#    y 0.000000 2.295110 0.000000 
#    z 0.000000 0.000000 2.398240 
# 
# From -- ./inp_files/15604.got.cif
#   From: 2010.05.17/outbox.cif.g08.bks.cpg/sg60_8_cif.got.tgz:15604.got - 2010.06.03 14:59:27.
