data_PCOD9458579
_publ_section_title
;
Structure prediction by ZEFSAII (Michael W. Deem and Ramdas Pophale) SiO2 
 PCOD9458579
Probable space group: P B C N
;
_chemical_formula_sum "Si O2"
_cell_formula_units_Z 64
_cell_length_a 15.406456
_cell_length_b 10.170662
_cell_length_c 17.387610
_cell_angle_alpha 90.000000
_cell_angle_beta 90.000000
_cell_angle_gamma 90.000000
_cell_volume 2724.531668
_symmetry_space_group_name_H-M "P B C N"
_symmetry_group_IT_number 60
_symmetry_cell_setting 'orthorhombic'
loop_
_space_group_symop_operation_xyz
x,y,z
1/2-x,1/2-y,1/2+z
1/2+x,1/2-y,-z
-x,y,1/2-z
-x,-y,-z
1/2+x,1/2+y,1/2-z
1/2-x,1/2+y,z
x,-y,1/2+z
loop_
_atom_site_type_symbol
_atom_site_label
_atom_site_fract_x
_atom_site_fract_y
_atom_site_fract_z
Si Si1 0.206936 0.162849 0.833467
Si Si2 0.601966 0.640145 0.524190
Si Si3 0.338587 0.774974 0.671077
Si Si4 0.454856 0.021322 0.667116
Si Si5 0.399513 0.366887 0.038653
Si Si6 0.898535 0.308387 0.103699
Si Si7 0.586111 0.570766 0.217845
Si Si8 0.349874 0.265656 0.637504
O O1 0.157082 0.209177 0.909969
O O2 0.186316 0.252846 0.759728
O O3 0.307989 0.153312 0.855009
O O4 0.160385 0.025568 0.812048
O O5 0.636499 0.494101 0.505070
O O6 0.502821 0.621694 0.548558
O O7 0.604625 0.713280 0.443601
O O8 0.362968 0.644391 0.624141
O O9 0.248967 0.810860 0.629693
O O10 0.417208 0.875578 0.659413
O O11 0.500000 0.036025 0.750000
O O12 0.529598 0.077199 0.610677
O O13 0.370632 0.115567 0.660361
O O14 0.383080 0.242101 0.983090
O O15 0.931852 0.179811 0.151705
O O16 0.500000 0.498454 0.250000
O O17 0.614926 0.651794 0.291745
#
# Coordination Sequence:
#
# PCOD9458579 Si02
#       8
#     8   8   8   8   8   8   8   8
#     4  12  28  45  75 117 148 193 249 317 368 440
#     4  11  25  46  77 105 146 195 255 307 360 445
#     4  12  30  44  74 114 153 187 245 316 372 439
#     4  12  26  47  74 106 153 199 240 301 376 452
#     4  11  25  49  73 108 147 197 250 307 372 439
#     4  12  23  51  73 108 150 200 247 301 381 447
#     4  12  23  45  77 104 141 198 252 297 367 444
#     4  12  24  49  74 105 139 201 250 295 368 447
#
# _framework density 23.490276000000001
#
# number of rings (size 3 to 8) (size 9 to 14) (size 15 to 20)
#    0.000    0.250    6.250    1.500   10.500    0.500 
#    0.000    0.000    0.000    0.000    0.000    0.000 
#    0.000    0.000    0.000    0.000    0.000    0.000 
#
# Total GULP energy -358011.506291 kJ/mol
# GULP energy per Si atom -5593.929786 kJ/mol
# Density = 2.343681 g / cm^3
# Si number density = 23.490276 Si / 1000 Ang^3
#
#
#
# Elastic Constant Matrix: (Units=GPa)
#
#
# Indices 1 2 3 4 5 6 
#
# 1 102.9923 23.4122 25.4155 0.0000 0.0000 0.0000
# 2 23.4122 47.8152 8.5728 0.0000 0.0000 0.0000
# 3 25.4155 8.5728 103.8574 0.0000 0.0000 0.0000
# 4 0.0000 0.0000 0.0000 20.0784 0.0000 0.0000
# 5 0.0000 0.0000 0.0000 0.0000 29.8695 0.0000
# 6 0.0000 0.0000 0.0000 0.0000 0.0000 27.6816
#
#
#
# Elastic Compliance Matrix: (Units=1/GPa)
#
#
# Indices 1 2 3 4 5 6 
#
# 1 0.011477 -0.005193 -0.002380 0.000000 0.000000 0.000000
# 2 -0.005193 0.023578 -0.000675 0.000000 0.000000 0.000000
# 3 -0.002380 -0.000675 0.010267 0.000000 0.000000 0.000000
# 4 0.000000 0.000000 0.000000 0.049805 0.000000 0.000000
# 5 0.000000 0.000000 0.000000 0.000000 0.033479 0.000000
# 6 0.000000 0.000000 0.000000 0.000000 0.000000 0.036125
#
#
# Mechanical properties :
#
#
# Convention : Reuss Voigt Hill
#
# Bulk Modulus (GPa) = 34.69227 41.05176 37.87201
# Shear Modulus (GPa) = 26.20057 28.67686 27.43872
#
# Velocity S-wave (km/s) = 3.34335 3.49778 3.42144
# Velocity P-wave (km/s) = 5.45022 5.81607 5.63611
#
# Compressibility (1/GPa) = 0.02882487
#
# Stress axis : x y z
#
# Youngs Moduli (GPa) = 87.12890 42.41312 97.40166
#
# Poissons Ratio (x) = 0.22025 0.23182
# Poissons Ratio (y) = 0.45246 0.06578
# Poissons Ratio (z) = 0.20737 0.02864
#
# Static dielectric constant tensor:
#      x y z
#    x 1.908720 0.000000 0.000000 
#    y 0.000000 1.910010 0.000000 
#    z 0.000000 0.000000 1.855180 
# 
# From -- ./inp_files/20673.got.cif
#   From: 2010.05.17/outbox.cif.g08.bks.cpg/sg60_11_cif.got.tgz:20673.got - 2010.06.03 14:59:27.
