data_PCOD9458684
_publ_section_title
;
Structure prediction by ZEFSAII (Michael W. Deem and Ramdas Pophale) SiO2 
 PCOD9458684
Probable space group: P B C N
;
_chemical_formula_sum "Si O2"
_cell_formula_units_Z 48
_cell_length_a 8.495668
_cell_length_b 11.993425
_cell_length_c 21.805356
_cell_angle_alpha 90.000000
_cell_angle_beta 90.000000
_cell_angle_gamma 90.000000
_cell_volume 2221.794757
_symmetry_space_group_name_H-M "P B C N"
_symmetry_group_IT_number 60
_symmetry_cell_setting 'orthorhombic'
loop_
_space_group_symop_operation_xyz
x,y,z
1/2-x,1/2-y,1/2+z
1/2+x,1/2-y,-z
-x,y,1/2-z
-x,-y,-z
1/2+x,1/2+y,1/2-z
1/2-x,1/2+y,z
x,-y,1/2+z
loop_
_atom_site_type_symbol
_atom_site_label
_atom_site_fract_x
_atom_site_fract_y
_atom_site_fract_z
Si Si1 0.076696 0.587228 0.685256
Si Si2 0.877340 0.229357 0.597040
Si Si3 0.452396 0.688155 0.360295
Si Si4 0.553477 0.955636 0.934003
Si Si5 0.111076 0.900515 0.523589
Si Si6 0.052445 0.055192 0.682869
O O1 0.004009 0.530485 0.624221
O O2 0.259363 0.555969 0.684202
O O3 0.000000 0.552942 0.750000
O O4 0.050555 0.718940 0.675826
O O5 0.727823 0.272153 0.635496
O O6 0.826246 0.167362 0.534682
O O7 0.981472 0.334678 0.577828
O O8 0.982279 0.142145 0.634500
O O9 0.514462 0.677347 0.430126
O O10 0.480383 0.566447 0.331769
O O11 0.741881 0.948552 0.939115
O O12 0.500000 0.000000 0.000000
O O13 0.000000 0.000000 0.500000
O O14 0.000000 0.091399 0.750000
#
# Coordination Sequence:
#
# PCOD9458684 Si02
#       6
#     8   8   8   8   8   8
#     4  12  27  50  76 108 150 198 254 310 384 455
#     4  12  26  44  75 110 152 195 251 309 387 449
#     4  12  26  48  74 107 153 194 252 310 381 455
#     4  12  26  45  76 111 151 197 252 313 382 453
#     4  12  22  45  73 109 150 192 246 315 375 450
#     4  12  28  49  75 107 149 196 257 314 376 457
#
# _framework density 21.604157000000001
#
# number of rings (size 3 to 8) (size 9 to 14) (size 15 to 20)
#    0.000    0.000    3.333    6.500    4.667    0.667 
#    0.000    0.000    0.000    0.000    0.000    0.000 
#    0.000    0.000    0.000    0.000    0.000    0.000 
#
# Total GULP energy -268828.033065 kJ/mol
# GULP energy per Si atom -5600.584022 kJ/mol
# Density = 2.155499 g / cm^3
# Si number density = 21.604157 Si / 1000 Ang^3
#
#
#
# Elastic Constant Matrix: (Units=GPa)
#
#
# Indices 1 2 3 4 5 6 
#
# 1 106.3330 25.7636 18.6763 0.0000 0.0000 0.0000
# 2 25.7636 117.5561 41.9444 0.0000 0.0000 0.0000
# 3 18.6763 41.9444 145.7677 0.0000 0.0000 0.0000
# 4 0.0000 0.0000 0.0000 26.7833 0.0000 0.0000
# 5 0.0000 0.0000 0.0000 0.0000 34.7338 0.0000
# 6 0.0000 0.0000 0.0000 0.0000 0.0000 32.3152
#
#
#
# Elastic Compliance Matrix: (Units=1/GPa)
#
#
# Indices 1 2 3 4 5 6 
#
# 1 0.010000 -0.001933 -0.000725 0.000000 0.000000 0.000000
# 2 -0.001933 0.009853 -0.002588 0.000000 0.000000 0.000000
# 3 -0.000725 -0.002588 0.007698 0.000000 0.000000 0.000000
# 4 0.000000 0.000000 0.000000 0.037337 0.000000 0.000000
# 5 0.000000 0.000000 0.000000 0.000000 0.028790 0.000000
# 6 0.000000 0.000000 0.000000 0.000000 0.000000 0.030945
#
#
# Mechanical properties :
#
#
# Convention : Reuss Voigt Hill
#
# Bulk Modulus (GPa) = 58.61657 60.26947 59.44302
# Shear Modulus (GPa) = 35.51098 37.65129 36.58113
#
# Velocity S-wave (km/s) = 4.05867 4.17919 4.11937
# Velocity P-wave (km/s) = 7.01104 7.15858 7.08519
#
# Compressibility (1/GPa) = 0.01706002
#
# Stress axis : x y z
#
# Youngs Moduli (GPa) = 99.99904 101.48691 129.90849
#
# Poissons Ratio (x) = 0.19617 0.09419
# Poissons Ratio (y) = 0.19329 0.33616
# Poissons Ratio (z) = 0.07250 0.26261
#
# Static dielectric constant tensor:
#      x y z
#    x 1.384000 0.000000 0.000000 
#    y 0.000000 1.775740 0.000000 
#    z 0.000000 0.000000 1.829510 
# 
# From -- ./inp_files/23929.got.cif
#   From: 2010.05.17/outbox.cif.g08.bks.cpg/sg60_12_cif.got.tgz:23929.got - 2010.06.03 14:59:27.
