data_PCOD9458211
_publ_section_title
;
Structure prediction by ZEFSAII (Michael W. Deem and Ramdas Pophale) SiO2 
 PCOD9458211
Probable space group: P B C N
;
_chemical_formula_sum "Si O2"
_cell_formula_units_Z 40
_cell_length_a 24.929924
_cell_length_b 9.428968
_cell_length_c 8.302891
_cell_angle_alpha 90.000000
_cell_angle_beta 90.000000
_cell_angle_gamma 90.000000
_cell_volume 1951.706250
_symmetry_space_group_name_H-M "P B C N"
_symmetry_group_IT_number 60
_symmetry_cell_setting 'orthorhombic'
loop_
_space_group_symop_operation_xyz
x,y,z
1/2-x,1/2-y,1/2+z
1/2+x,1/2-y,-z
-x,y,1/2-z
-x,-y,-z
1/2+x,1/2+y,1/2-z
1/2-x,1/2+y,z
x,-y,1/2+z
loop_
_atom_site_type_symbol
_atom_site_label
_atom_site_fract_x
_atom_site_fract_y
_atom_site_fract_z
Si Si1 0.896159 0.662111 0.948147
Si Si2 0.988936 0.842265 0.060989
Si Si3 0.082452 0.351314 0.430927
Si Si4 0.697245 0.198090 0.454931
Si Si5 0.282025 0.101056 0.408444
O O1 0.903712 0.659145 0.757010
O O2 0.928961 0.792208 0.021143
O O3 0.920560 0.516166 0.020052
O O4 0.834015 0.660955 0.997194
O O5 0.000000 0.833027 0.250000
O O6 0.029116 0.734015 0.971683
O O7 0.000000 0.000000 0.000000
O O8 0.133221 0.289066 0.529079
O O9 0.728984 0.335909 0.511080
O O10 0.712651 0.149335 0.275750
O O11 0.714291 0.068068 0.571903
#
# Coordination Sequence:
#
# PCOD9458211 Si02
#       5
#     8   8   8   8   8
#     4  11  22  40  63  89 118 156 198 241 289 348
#     4  12  25  42  61  88 120 154 194 244 297 350
#     4  11  22  40  63  89 118 156 198 241 289 348
#     4  11  22  39  61  89 120 156 197 243 292 347
#     4  11  22  39  61  89 120 156 197 243 292 347
#
# _framework density 20.494886000000001
#
# number of rings (size 3 to 8) (size 9 to 14) (size 15 to 20)
#    0.000    0.800    0.000   12.000    0.000    1.600 
#    0.000    8.000    0.000    0.000    0.000    0.000 
#    0.000    0.000    0.000    0.000    0.000    0.000 
#
# Total GULP energy -223953.208540 kJ/mol
# GULP energy per Si atom -5598.830214 kJ/mol
# Density = 2.044824 g / cm^3
# Si number density = 20.494886 Si / 1000 Ang^3
#
#
#
# Elastic Constant Matrix: (Units=GPa)
#
#
# Indices 1 2 3 4 5 6 
#
# 1 43.5761 22.8717 -27.5448 0.0000 0.0000 0.0000
# 2 22.8717 41.8619 -18.4855 0.0000 0.0000 0.0000
# 3 -27.5448 -18.4855 113.9214 0.0000 0.0000 0.0000
# 4 0.0000 0.0000 0.0000 22.3699 0.0000 0.0000
# 5 0.0000 0.0000 0.0000 0.0000 34.7451 0.0000
# 6 0.0000 0.0000 0.0000 0.0000 0.0000 42.1728
#
#
#
# Elastic Compliance Matrix: (Units=1/GPa)
#
#
# Indices 1 2 3 4 5 6 
#
# 1 0.035458 -0.016790 0.005849 0.000000 0.000000 0.000000
# 2 -0.016790 0.033682 0.001406 0.000000 0.000000 0.000000
# 3 0.005849 0.001406 0.010420 0.000000 0.000000 0.000000
# 4 0.000000 0.000000 0.000000 0.044703 0.000000 0.000000
# 5 0.000000 0.000000 0.000000 0.000000 0.028781 0.000000
# 6 0.000000 0.000000 0.000000 0.000000 0.000000 0.023712
#
#
# Mechanical properties :
#
#
# Convention : Reuss Voigt Hill
#
# Bulk Modulus (GPa) = 16.53174 17.00472 16.76823
# Shear Modulus (GPa) = 23.14914 34.69209 28.92062
#
# Velocity S-wave (km/s) = 3.36446 4.11873 3.76055
# Velocity P-wave (km/s) = 4.81421 5.56180 5.20145
#
# Compressibility (1/GPa) = 0.06048969
#
# Stress axis : x y z
#
# Youngs Moduli (GPa) = 28.20234 29.68917 95.96678
#
# Poissons Ratio (x) = 0.49849 -0.56130
# Poissons Ratio (y) = 0.47352 -0.13491
# Poissons Ratio (z) = -0.16495 -0.04174
#
# Static dielectric constant tensor:
#      x y z
#    x 1.705760 0.000000 0.000000 
#    y 0.000000 1.696250 0.000000 
#    z 0.000000 0.000000 1.716970 
# 
# From -- ./inp_files/7741.got.cif
#   From: 2010.05.17/outbox.cif.g08.bks.cpg/sg60_4_cif.got.tgz:7741.got - 2010.06.03 14:59:27.
