data_PCOD9458321
_publ_section_title
;
Structure prediction by ZEFSAII (Michael W. Deem and Ramdas Pophale) SiO2 
 PCOD9458321
Probable space group: P B C N
;
_chemical_formula_sum "Si O2"
_cell_formula_units_Z 60
_cell_length_a 10.781296
_cell_length_b 18.293710
_cell_length_c 13.980307
_cell_angle_alpha 90.000000
_cell_angle_beta 90.000000
_cell_angle_gamma 90.000000
_cell_volume 2757.334586
_symmetry_space_group_name_H-M "P B C N"
_symmetry_group_IT_number 60
_symmetry_cell_setting 'orthorhombic'
loop_
_space_group_symop_operation_xyz
x,y,z
1/2-x,1/2-y,1/2+z
1/2+x,1/2-y,-z
-x,y,1/2-z
-x,-y,-z
1/2+x,1/2+y,1/2-z
1/2-x,1/2+y,z
x,-y,1/2+z
loop_
_atom_site_type_symbol
_atom_site_label
_atom_site_fract_x
_atom_site_fract_y
_atom_site_fract_z
Si Si1 0.148895 0.757023 0.548013
Si Si2 0.500000 0.323199 0.250000
Si Si3 0.684641 0.626490 0.599817
Si Si4 0.201160 0.520847 0.481154
Si Si5 0.560965 0.791933 0.150472
Si Si6 0.666683 0.190403 0.299358
Si Si7 0.453319 0.963628 0.645212
Si Si8 0.793938 0.835489 0.599417
O O1 0.116656 0.823895 0.479351
O O2 0.208614 0.789604 0.643814
O O3 0.252886 0.714991 0.488472
O O4 0.040899 0.698881 0.568206
O O5 0.410158 0.373172 0.312786
O O6 0.585089 0.263889 0.305933
O O7 0.732107 0.552809 0.552770
O O8 0.810845 0.666712 0.635024
O O9 0.153106 0.510542 0.590444
O O10 0.291804 0.585250 0.446681
O O11 0.074774 0.533737 0.421035
O O12 0.500000 0.812378 0.250000
O O13 0.586296 0.704628 0.142289
O O14 0.600132 0.118894 0.342472
O O15 0.697461 0.172341 0.188373
O O16 0.500000 0.988936 0.750000
#
# Coordination Sequence:
#
# PCOD9458321 Si02
#       8
#     8   4   8   8   8   8   8   8
#     4  11  24  42  69 102 137 176 236 303 345 422
#     4  12  22  42  68 102 134 180 242 290 352 436
#     4  11  26  41  68 101 142 180 232 301 362 425
#     4  11  25  44  61 104 144 179 235 284 363 441
#     4  11  23  44  67 100 134 180 241 295 345 420
#     4  12  21  43  74 100 131 183 238 291 363 419
#     4  11  23  39  71  97 134 181 228 296 352 416
#     4  11  24  44  69 102 135 188 230 288 361 436
#
# _framework density 21.760144
#
# number of rings (size 3 to 8) (size 9 to 14) (size 15 to 20)
#    0.000    0.800    7.333    0.000    7.467    0.533 
#    3.600    0.667    0.000    0.000    0.000    0.000 
#    0.000    0.000    0.000    0.000    0.000    0.000 
#
# Total GULP energy -334965.786593 kJ/mol
# GULP energy per Si atom -5582.763110 kJ/mol
# Density = 2.171062 g / cm^3
# Si number density = 21.760144 Si / 1000 Ang^3
#
#
#
# Elastic Constant Matrix: (Units=GPa)
#
#
# Indices 1 2 3 4 5 6 
#
# 1 57.4315 -3.6410 33.3535 0.0000 0.0000 0.0000
# 2 -3.6410 68.6121 33.6219 0.0000 0.0000 0.0000
# 3 33.3535 33.6219 118.8237 0.0000 0.0000 0.0000
# 4 0.0000 0.0000 0.0000 19.7040 0.0000 0.0000
# 5 0.0000 0.0000 0.0000 0.0000 41.7167 0.0000
# 6 0.0000 0.0000 0.0000 0.0000 0.0000 -342.2547
#
#
#
# Elastic Compliance Matrix: (Units=1/GPa)
#
#
# Indices 1 2 3 4 5 6 
#
# 1 0.022136 0.004899 -0.007600 0.000000 0.000000 0.000000
# 2 0.004899 0.018005 -0.006470 0.000000 0.000000 0.000000
# 3 -0.007600 -0.006470 0.012380 0.000000 0.000000 0.000000
# 4 0.000000 0.000000 0.000000 0.050751 0.000000 0.000000
# 5 0.000000 0.000000 0.000000 0.000000 0.023971 0.000000
# 6 0.000000 0.000000 0.000000 0.000000 0.000000 -0.002922
#
#
# Mechanical properties :
#
#
# Convention : Reuss Voigt Hill
#
# Bulk Modulus (GPa) = 29.25726 41.28182 35.26954
# Shear Modulus (GPa) = 32.45576 -44.06460 -5.80442
#
# Velocity S-wave (km/s) = 3.86621 -4.50490 -1.63501
# Velocity P-wave (km/s) = 5.77968 2.83660 3.56078
#
# Compressibility (1/GPa) = 0.03417955
#
# Stress axis : x y z
#
# Youngs Moduli (GPa) = 45.17491 55.54021 80.77747
#
# Poissons Ratio (x) = -0.27208 0.61389
# Poissons Ratio (y) = -0.22130 0.52261
# Poissons Ratio (z) = 0.34332 0.35933
#
# Static dielectric constant tensor:
#      x y z
#    x 1.836030 0.000000 0.000000 
#    y 0.000000 1.828160 0.000000 
#    z 0.000000 0.000000 1.836230 
# 
# From -- ./inp_files/16337.got.cif
#   From: 2010.05.17/outbox.cif.g08.bks.cpg/sg60_9_cif.got.tgz:16337.got - 2010.06.03 14:59:27.
