data_PCOD9458280
_publ_section_title
;
Structure prediction by ZEFSAII (Michael W. Deem and Ramdas Pophale) SiO2 
 PCOD9458280
Probable space group: P B C N
;
_chemical_formula_sum "Si O2"
_cell_formula_units_Z 32
_cell_length_a 5.390117
_cell_length_b 36.715607
_cell_length_c 7.553824
_cell_angle_alpha 90.000000
_cell_angle_beta 90.000000
_cell_angle_gamma 90.000000
_cell_volume 1494.912477
_symmetry_space_group_name_H-M "P B C N"
_symmetry_group_IT_number 60
_symmetry_cell_setting 'orthorhombic'
loop_
_space_group_symop_operation_xyz
x,y,z
1/2-x,1/2-y,1/2+z
1/2+x,1/2-y,-z
-x,y,1/2-z
-x,-y,-z
1/2+x,1/2+y,1/2-z
1/2-x,1/2+y,z
x,-y,1/2+z
loop_
_atom_site_type_symbol
_atom_site_label
_atom_site_fract_x
_atom_site_fract_y
_atom_site_fract_z
Si Si1 0.000000 0.360191 0.750000
Si Si2 0.500000 0.729246 0.750000
Si Si3 0.299277 0.705995 0.097537
Si Si4 0.439763 0.916702 0.055839
Si Si5 0.953528 0.042393 0.459007
O O1 0.812380 0.332240 0.841740
O O2 0.907998 0.386208 0.594044
O O3 0.367837 0.757967 0.619019
O O4 0.638011 0.704282 0.608817
O O5 0.500000 0.713121 0.250000
O O6 0.500000 0.901628 0.250000
O O7 0.177871 0.937546 0.060212
O O8 0.677246 0.942599 0.004935
O O9 0.000000 0.048416 0.250000
O O10 0.000000 0.000000 0.500000
#
# Coordination Sequence:
#
# PCOD9458280 Si02
#       5
#     4   4   8   8   8
#     4  11  28  46  66 104 144 194 226 290 366 442
#     4  11  22  44  70 102 134 178 228 300 334 424
#     4  11  24  42  72 101 141 176 236 283 364 417
#     4  12  26  48  72 104 151 190 242 299 362 432
#     4  12  24  46  75 108 143 189 246 305 359 425
#
# _framework density 21.405933000000001
#
# number of rings (size 3 to 8) (size 9 to 14) (size 15 to 20)
#    0.000    0.500    5.000    3.000    3.500    2.000 
#    0.000    0.000    0.000    0.000    0.000    0.000 
#    0.000    0.000    0.000    0.000    0.000    0.000 
#
# Total GULP energy -178586.821430 kJ/mol
# GULP energy per Si atom -5580.838170 kJ/mol
# Density = 2.135721 g / cm^3
# Si number density = 21.405933 Si / 1000 Ang^3
#
#
#
# Elastic Constant Matrix: (Units=GPa)
#
#
# Indices 1 2 3 4 5 6 
#
# 1 84.6179 30.8925 14.8583 0.0000 0.0000 0.0000
# 2 30.8925 111.9349 38.7280 0.0000 0.0000 0.0000
# 3 14.8583 38.7280 167.4848 0.0000 0.0000 0.0000
# 4 0.0000 0.0000 0.0000 58.6876 0.0000 0.0000
# 5 0.0000 0.0000 0.0000 0.0000 42.0369 0.0000
# 6 0.0000 0.0000 0.0000 0.0000 0.0000 -1.9393
#
#
#
# Elastic Compliance Matrix: (Units=1/GPa)
#
#
# Indices 1 2 3 4 5 6 
#
# 1 0.013162 -0.003509 -0.000356 0.000000 0.000000 0.000000
# 2 -0.003509 0.010646 -0.002150 0.000000 0.000000 0.000000
# 3 -0.000356 -0.002150 0.006500 0.000000 0.000000 0.000000
# 4 0.000000 0.000000 0.000000 0.017039 0.000000 0.000000
# 5 0.000000 0.000000 0.000000 0.000000 0.023789 0.000000
# 6 0.000000 0.000000 0.000000 0.000000 0.000000 -0.515660
#
#
# Mechanical properties :
#
#
# Convention : Reuss Voigt Hill
#
# Bulk Modulus (GPa) = 54.71738 59.22169 56.96953
# Shear Modulus (GPa) = -11.72603 38.39431 13.33414
#
# Velocity S-wave (km/s) = -2.34304 4.23972 2.49854
# Velocity P-wave (km/s) = 4.27756 7.18979 5.91568
#
# Compressibility (1/GPa) = 0.01827573
#
# Stress axis : x y z
#
# Youngs Moduli (GPa) = 75.97913 93.92957 153.85691
#
# Poissons Ratio (x) = 0.32961 0.05480
# Poissons Ratio (y) = 0.26662 0.33086
# Poissons Ratio (z) = 0.02706 0.20199
#
# Static dielectric constant tensor:
#      x y z
#    x 1.798830 0.000000 0.000000 
#    y 0.000000 1.808330 0.000000 
#    z 0.000000 0.000000 1.649940 
# 
# From -- ./inp_files/3144.got.cif
#   From: 2010.05.17/outbox.cif.g08.bks.cpg/sg60_2_cif.got.tgz:3144.got - 2010.06.03 14:59:27.
