data_PCOD9458095
_publ_section_title
;
Structure prediction by ZEFSAII (Michael W. Deem and Ramdas Pophale) SiO2 
 PCOD9458095
Probable space group: P B C N
;
_chemical_formula_sum "Si O2"
_cell_formula_units_Z 64
_cell_length_a 15.138916
_cell_length_b 11.964201
_cell_length_c 17.284218
_cell_angle_alpha 90.000000
_cell_angle_beta 90.000000
_cell_angle_gamma 90.000000
_cell_volume 3130.604572
_symmetry_space_group_name_H-M "P B C N"
_symmetry_group_IT_number 60
_symmetry_cell_setting 'orthorhombic'
loop_
_space_group_symop_operation_xyz
x,y,z
1/2-x,1/2-y,1/2+z
1/2+x,1/2-y,-z
-x,y,1/2-z
-x,-y,-z
1/2+x,1/2+y,1/2-z
1/2-x,1/2+y,z
x,-y,1/2+z
loop_
_atom_site_type_symbol
_atom_site_label
_atom_site_fract_x
_atom_site_fract_y
_atom_site_fract_z
Si Si1 0.451616 0.448162 0.831587
Si Si2 0.603225 0.913898 0.224454
Si Si3 0.772090 0.274374 0.338774
Si Si4 0.175595 0.768177 0.878923
Si Si5 0.957107 0.187620 0.606284
Si Si6 0.852689 0.126021 0.956336
Si Si7 0.393530 0.373346 0.554227
Si Si8 0.652242 0.171802 0.207355
O O1 0.500000 0.454327 0.750000
O O2 0.370545 0.364511 0.827407
O O3 0.423571 0.571093 0.857123
O O4 0.518086 0.397234 0.895819
O O5 0.500000 0.912771 0.250000
O O6 0.658804 0.842583 0.286829
O O7 0.627284 0.846080 0.145773
O O8 0.639859 0.039500 0.216706
O O9 0.727976 0.358492 0.398872
O O10 0.822998 0.180913 0.388416
O O11 0.694589 0.222234 0.285469
O O12 0.277360 0.781066 0.855961
O O13 0.161373 0.801145 0.967325
O O14 0.914275 0.200712 0.521083
O O15 0.937770 0.280286 0.670373
O O16 0.059703 0.166954 0.587827
O O17 0.864646 0.995662 0.975183
#
# Coordination Sequence:
#
# PCOD9458095 Si02
#       8
#     8   8   8   8   8   8   8   8
#     4  11  21  36  71  96 125 167 221 281 336 399
#     4  11  26  46  67  96 140 184 226 280 345 420
#     4  11  25  41  70  97 134 180 233 281 340 410
#     4  11  22  43  67  96 130 176 227 276 341 411
#     4  11  24  41  66  98 137 171 222 283 347 400
#     4  11  23  40  70  98 133 173 225 286 343 406
#     4  11  21  44  63 102 132 172 223 288 344 402
#     4  11  27  42  65  97 136 179 229 283 337 409
#
# _framework density 20.443335000000001
#
# number of rings (size 3 to 8) (size 9 to 14) (size 15 to 20)
#    0.000    1.000    2.500    4.875    8.750    1.000 
#    0.000    1.875    0.000    0.000    0.000    0.000 
#    0.000    0.000    0.000    0.000    0.000    0.000 
#
# Total GULP energy -357600.435068 kJ/mol
# GULP energy per Si atom -5587.506798 kJ/mol
# Density = 2.039680 g / cm^3
# Si number density = 20.443335 Si / 1000 Ang^3
#
#
#
# Elastic Constant Matrix: (Units=GPa)
#
#
# Indices 1 2 3 4 5 6 
#
# 1 46.6972 17.2410 22.9533 0.0000 0.0000 0.0000
# 2 17.2410 61.1653 34.8624 0.0000 0.0000 0.0000
# 3 22.9533 34.8624 90.6360 0.0000 0.0000 0.0000
# 4 0.0000 0.0000 0.0000 25.7332 0.0000 0.0000
# 5 0.0000 0.0000 0.0000 0.0000 31.7473 0.0000
# 6 0.0000 0.0000 0.0000 0.0000 0.0000 25.3232
#
#
#
# Elastic Compliance Matrix: (Units=1/GPa)
#
#
# Indices 1 2 3 4 5 6 
#
# 1 0.025379 -0.004471 -0.004708 0.000000 0.000000 0.000000
# 2 -0.004471 0.021727 -0.007225 0.000000 0.000000 0.000000
# 3 -0.004708 -0.007225 0.015004 0.000000 0.000000 0.000000
# 4 0.000000 0.000000 0.000000 0.038860 0.000000 0.000000
# 5 0.000000 0.000000 0.000000 0.000000 0.031499 0.000000
# 6 0.000000 0.000000 0.000000 0.000000 0.000000 0.039489
#
#
# Mechanical properties :
#
#
# Convention : Reuss Voigt Hill
#
# Bulk Modulus (GPa) = 34.12464 38.73466 36.42965
# Shear Modulus (GPa) = 23.30633 24.79020 24.04827
#
# Velocity S-wave (km/s) = 3.38012 3.48606 3.43350
# Velocity P-wave (km/s) = 5.65351 5.93228 5.79457
#
# Compressibility (1/GPa) = 0.02930433
#
# Stress axis : x y z
#
# Youngs Moduli (GPa) = 39.40256 46.02491 66.64709
#
# Poissons Ratio (x) = 0.20576 0.31375
# Poissons Ratio (y) = 0.17615 0.48153
# Poissons Ratio (z) = 0.18549 0.33253
#
# Static dielectric constant tensor:
#      x y z
#    x -0.611840 0.000000 0.000000 
#    y 0.000000 1.708280 0.000000 
#    z 0.000000 0.000000 1.728470 
# 
# From -- ./inp_files/20646.got.cif
#   From: 2010.05.17/outbox.cif.g08.bks.cpg/sg60_11_cif.got.tgz:20646.got - 2010.06.03 14:59:27.
