data_PCOD9458713
_publ_section_title
;
Structure prediction by ZEFSAII (Michael W. Deem and Ramdas Pophale) SiO2 
 PCOD9458713
Probable space group: P B C N
;
_chemical_formula_sum "Si O2"
_cell_formula_units_Z 44
_cell_length_a 15.853816
_cell_length_b 9.501338
_cell_length_c 13.293318
_cell_angle_alpha 90.000000
_cell_angle_beta 90.000000
_cell_angle_gamma 90.000000
_cell_volume 2002.405250
_symmetry_space_group_name_H-M "P B C N"
_symmetry_group_IT_number 60
_symmetry_cell_setting 'orthorhombic'
loop_
_space_group_symop_operation_xyz
x,y,z
1/2-x,1/2-y,1/2+z
1/2+x,1/2-y,-z
-x,y,1/2-z
-x,-y,-z
1/2+x,1/2+y,1/2-z
1/2-x,1/2+y,z
x,-y,1/2+z
loop_
_atom_site_type_symbol
_atom_site_label
_atom_site_fract_x
_atom_site_fract_y
_atom_site_fract_z
Si Si1 0.487036 0.345025 0.546125
Si Si2 0.125598 0.802599 0.290290
Si Si3 0.252954 0.587854 0.958208
Si Si4 0.158386 0.825231 0.052703
Si Si5 0.078220 0.585050 0.443510
Si Si6 0.500000 0.459505 0.750000
O O1 0.500000 0.500000 0.500000
O O2 0.578725 0.283480 0.516709
O O3 0.421904 0.234565 0.501454
O O4 0.465273 0.363679 0.662070
O O5 0.208017 0.847977 0.354968
O O6 0.138417 0.806240 0.170117
O O7 0.081889 0.658187 0.330779
O O8 0.064290 0.935801 0.304126
O O9 0.164343 0.503769 0.945859
O O10 0.232361 0.719128 0.027663
O O11 0.314077 0.479527 0.015891
O O12 0.000000 0.500000 0.500000
#
# Coordination Sequence:
#
# PCOD9458713 Si02
#       6
#     8   8   8   8   8   4
#     4  12  23  48  74 108 149 196 255 310 374 463
#     4  12  26  47  79 109 151 200 257 314 394 455
#     4  12  27  49  72 109 156 195 252 320 382 460
#     4  12  26  47  76 109 157 199 250 323 382 457
#     4  12  26  50  74 107 152 198 258 319 379 455
#     4  12  24  44  82 110 142 206 254 306 394 468
#
# _framework density 21.973573999999999
#
# number of rings (size 3 to 8) (size 9 to 14) (size 15 to 20)
#    0.000    0.000    9.091    0.000    2.545    0.000 
#    6.545    0.000    0.000    0.000    0.000    0.000 
#    0.000    0.000    0.000    0.000    0.000    0.000 
#
# Total GULP energy -245165.945012 kJ/mol
# GULP energy per Si atom -5571.953296 kJ/mol
# Density = 2.192356 g / cm^3
# Si number density = 21.973574 Si / 1000 Ang^3
#
#
#
# Elastic Constant Matrix: (Units=GPa)
#
#
# Indices 1 2 3 4 5 6 
#
# 1 112.3939 22.9864 13.5853 0.0000 0.0000 0.0000
# 2 22.9864 104.9242 23.0955 0.0000 0.0000 0.0000
# 3 13.5853 23.0955 83.2951 0.0000 0.0000 0.0000
# 4 0.0000 0.0000 0.0000 10.0911 0.0000 0.0000
# 5 0.0000 0.0000 0.0000 0.0000 44.2792 0.0000
# 6 0.0000 0.0000 0.0000 0.0000 0.0000 54.3606
#
#
#
# Elastic Compliance Matrix: (Units=1/GPa)
#
#
# Indices 1 2 3 4 5 6 
#
# 1 0.009396 -0.001833 -0.001024 0.000000 0.000000 0.000000
# 2 -0.001833 0.010508 -0.002615 0.000000 0.000000 0.000000
# 3 -0.001024 -0.002615 0.012898 0.000000 0.000000 0.000000
# 4 0.000000 0.000000 0.000000 0.099097 0.000000 0.000000
# 5 0.000000 0.000000 0.000000 0.000000 0.022584 0.000000
# 6 0.000000 0.000000 0.000000 0.000000 0.000000 0.018396
#
#
# Mechanical properties :
#
#
# Convention : Reuss Voigt Hill
#
# Bulk Modulus (GPa) = 45.75051 46.66083 46.20567
# Shear Modulus (GPa) = 26.16324 37.80923 31.98624
#
# Velocity S-wave (km/s) = 3.45435 4.15259 3.81946
# Velocity P-wave (km/s) = 6.06432 6.65381 6.36589
#
# Compressibility (1/GPa) = 0.02185768
#
# Stress axis : x y z
#
# Youngs Moduli (GPa) = 106.42876 95.16776 77.53433
#
# Poissons Ratio (x) = 0.17444 0.07941
# Poissons Ratio (y) = 0.19508 0.20272
# Poissons Ratio (z) = 0.10901 0.24882
#
# Static dielectric constant tensor:
#      x y z
#    x 1.846840 0.000000 0.000000 
#    y 0.000000 1.844150 0.000000 
#    z 0.000000 0.000000 2.064280 
# 
# From -- ./inp_files/17243.got.cif
#   From: 2010.05.17/outbox.cif.g08.bks.cpg/sg60_9_cif.got.tgz:17243.got - 2010.06.03 14:59:27.
