data_PCOD9458480
_publ_section_title
;
Structure prediction by ZEFSAII (Michael W. Deem and Ramdas Pophale) SiO2 
 PCOD9458480
Probable space group: P B C N
;
_chemical_formula_sum "Si O2"
_cell_formula_units_Z 32
_cell_length_a 17.835319
_cell_length_b 7.332554
_cell_length_c 9.279596
_cell_angle_alpha 90.000000
_cell_angle_beta 90.000000
_cell_angle_gamma 90.000000
_cell_volume 1213.571086
_symmetry_space_group_name_H-M "P B C N"
_symmetry_group_IT_number 60
_symmetry_cell_setting 'orthorhombic'
loop_
_space_group_symop_operation_xyz
x,y,z
1/2-x,1/2-y,1/2+z
1/2+x,1/2-y,-z
-x,y,1/2-z
-x,-y,-z
1/2+x,1/2+y,1/2-z
1/2-x,1/2+y,z
x,-y,1/2+z
loop_
_atom_site_type_symbol
_atom_site_label
_atom_site_fract_x
_atom_site_fract_y
_atom_site_fract_z
Si Si1 0.198153 0.358395 0.247974
Si Si2 0.944185 0.981429 0.128638
Si Si3 0.054511 0.450499 0.869454
Si Si4 0.299113 0.422287 0.514307
O O1 0.363151 0.543345 0.434788
O O2 0.133338 0.455982 0.338161
O O3 0.258416 0.323313 0.377746
O O4 0.241375 0.476307 0.123226
O O5 0.000000 0.056720 0.250000
O O6 0.931935 0.765135 0.153957
O O7 0.000000 0.000000 0.000000
O O8 0.164271 0.207374 0.137730
O O9 0.000000 0.522278 0.750000
O O10 0.000000 0.500000 0.000000
#
# Coordination Sequence:
#
# PCOD9458480 Si02
#       4
#     8   8   8   8
#     4  12  26  46  72 106 146 193 246 301 374 445
#     4  11  25  43  66  99 137 181 236 297 360 431
#     4  11  24  44  68  97 136 183 233 292 360 436
#     4  12  25  45  71 104 145 191 240 304 367 446
#
# _framework density 26.368461
#
# number of rings (size 3 to 8) (size 9 to 14) (size 15 to 20)
#    0.000    0.500    0.000    9.000    0.000   11.000 
#    0.000    0.000    0.000    0.000    0.000    0.000 
#    0.000    0.000    0.000    0.000    0.000    0.000 
#
# Total GULP energy -178347.756878 kJ/mol
# GULP energy per Si atom -5573.367402 kJ/mol
# Density = 2.630845 g / cm^3
# Si number density = 26.368461 Si / 1000 Ang^3
#
#
#
# Elastic Constant Matrix: (Units=GPa)
#
#
# Indices 1 2 3 4 5 6 
#
# 1 192.6996 17.8255 60.5584 0.0000 0.0000 0.0000
# 2 17.8255 69.1223 -4.6543 0.0000 0.0000 0.0000
# 3 60.5584 -4.6543 254.3074 0.0000 0.0000 0.0000
# 4 0.0000 0.0000 0.0000 34.3470 0.0000 0.0000
# 5 0.0000 0.0000 0.0000 0.0000 65.3236 0.0000
# 6 0.0000 0.0000 0.0000 0.0000 0.0000 28.2783
#
#
#
# Elastic Compliance Matrix: (Units=1/GPa)
#
#
# Indices 1 2 3 4 5 6 
#
# 1 0.005777 -0.001585 -0.001405 0.000000 0.000000 0.000000
# 2 -0.001585 0.014920 0.000650 0.000000 0.000000 0.000000
# 3 -0.001405 0.000650 0.004279 0.000000 0.000000 0.000000
# 4 0.000000 0.000000 0.000000 0.029115 0.000000 0.000000
# 5 0.000000 0.000000 0.000000 0.000000 0.015308 0.000000
# 6 0.000000 0.000000 0.000000 0.000000 0.000000 0.035363
#
#
# Mechanical properties :
#
#
# Convention : Reuss Voigt Hill
#
# Bulk Modulus (GPa) = 49.26638 73.73207 61.49922
# Shear Modulus (GPa) = 43.02730 55.08310 49.05520
#
# Velocity S-wave (km/s) = 4.04390 4.57549 4.31788
# Velocity P-wave (km/s) = 6.36621 7.47906 6.94496
#
# Compressibility (1/GPa) = 0.02029782
#
# Stress axis : x y z
#
# Youngs Moduli (GPa) = 173.08607 67.02628 233.71713
#
# Poissons Ratio (x) = 0.10620 0.32832
# Poissons Ratio (y) = 0.27426 -0.15200
# Poissons Ratio (z) = 0.24315 -0.04359
#
# Static dielectric constant tensor:
#      x y z
#    x 2.086280 0.000000 0.000000 
#    y 0.000000 2.190510 0.000000 
#    z 0.000000 0.000000 2.001170 
# 
# From -- ./inp_files/5450.got.cif
#   From: 2010.05.17/outbox.cif.g08.bks.cpg/sg60_3_cif.got.tgz:5450.got - 2010.06.03 14:59:27.
