data_PCOD9458721
_publ_section_title
;
Structure prediction by ZEFSAII (Michael W. Deem and Ramdas Pophale) SiO2 
 PCOD9458721
Probable space group: P B C N
;
_chemical_formula_sum "Si O2"
_cell_formula_units_Z 24
_cell_length_a 4.833571
_cell_length_b 18.607991
_cell_length_c 10.860492
_cell_angle_alpha 90.000000
_cell_angle_beta 90.000000
_cell_angle_gamma 90.000000
_cell_volume 976.825728
_symmetry_space_group_name_H-M "P B C N"
_symmetry_group_IT_number 60
_symmetry_cell_setting 'orthorhombic'
loop_
_space_group_symop_operation_xyz
x,y,z
1/2-x,1/2-y,1/2+z
1/2+x,1/2-y,-z
-x,y,1/2-z
-x,-y,-z
1/2+x,1/2+y,1/2-z
1/2-x,1/2+y,z
x,-y,1/2+z
loop_
_atom_site_type_symbol
_atom_site_label
_atom_site_fract_x
_atom_site_fract_y
_atom_site_fract_z
Si Si1 0.555661 0.554805 0.111512
Si Si2 0.758490 0.205964 0.827042
Si Si3 0.549311 0.149401 0.444021
O O1 0.500000 0.527280 0.250000
O O2 0.858189 0.589753 0.118627
O O3 0.356278 0.620509 0.072686
O O4 0.500000 0.500000 0.000000
O O5 0.500000 0.237398 0.750000
O O6 0.000000 0.166793 0.750000
O O7 0.932314 0.270407 0.889664
O O8 0.593665 0.157187 0.923393
#
# Coordination Sequence:
#
# PCOD9458721 Si02
#       3
#     8   8   8
#     4  12  27  47  71  98 137 188 238 289 345 412
#     4  12  24  41  70 105 141 180 226 289 360 430
#     4  12  25  44  69 101 139 180 228 284 354 422
#
# _framework density 24.569376999999999
#
# number of rings (size 3 to 8) (size 9 to 14) (size 15 to 20)
#    0.000    0.000    0.000   13.000    0.000    4.000 
#    0.000    0.000    0.000    0.000    0.000    0.000 
#    0.000    0.000    0.000    0.000    0.000    0.000 
#
# Total GULP energy -134224.656024 kJ/mol
# GULP energy per Si atom -5592.694001 kJ/mol
# Density = 2.451346 g / cm^3
# Si number density = 24.569377 Si / 1000 Ang^3
#
#
#
# Elastic Constant Matrix: (Units=GPa)
#
#
# Indices 1 2 3 4 5 6 
#
# 1 82.6825 -19.2675 10.5096 0.0000 0.0000 0.0000
# 2 -19.2675 48.5913 33.1037 0.0000 0.0000 0.0000
# 3 10.5096 33.1037 142.3849 0.0000 0.0000 0.0000
# 4 0.0000 0.0000 0.0000 1410.4145 0.0000 0.0000
# 5 0.0000 0.0000 0.0000 0.0000 58.1062 0.0000
# 6 0.0000 0.0000 0.0000 0.0000 0.0000 -80.7270
#
#
#
# Elastic Compliance Matrix: (Units=1/GPa)
#
#
# Indices 1 2 3 4 5 6 
#
# 1 0.014208 0.007543 -0.002803 0.000000 0.000000 0.000000
# 2 0.007543 0.028458 -0.007173 0.000000 0.000000 0.000000
# 3 -0.002803 -0.007173 0.008898 0.000000 0.000000 0.000000
# 4 0.000000 0.000000 0.000000 0.000709 0.000000 0.000000
# 5 0.000000 0.000000 0.000000 0.000000 0.017210 0.000000
# 6 0.000000 0.000000 0.000000 0.000000 0.000000 -0.012387
#
#
# Mechanical properties :
#
#
# Convention : Reuss Voigt Hill
#
# Bulk Modulus (GPa) = 21.41358 35.81669 28.61513
# Shear Modulus (GPa) = 64.49418 294.17959 179.33689
#
# Velocity S-wave (km/s) = 5.12902 10.95419 8.55281
# Velocity P-wave (km/s) = 6.61893 13.21369 10.45016
#
# Compressibility (1/GPa) = 0.04669934
#
# Stress axis : x y z
#
# Youngs Moduli (GPa) = 70.38045 35.13992 112.38779
#
# Poissons Ratio (x) = -0.26507 0.31497
# Poissons Ratio (y) = -0.53090 0.80616
# Poissons Ratio (z) = 0.19724 0.25206
#
# Static dielectric constant tensor:
#      x y z
#    x 1.834200 0.000000 0.000000 
#    y 0.000000 2.020600 0.000000 
#    z 0.000000 0.000000 2.020830 
# 
# From -- ./inp_files/8671.got.cif
#   From: 2010.05.17/outbox.cif.g08.bks.cpg/sg60_5_cif.got.tgz:8671.got - 2010.06.03 14:59:27.
