data_PCOD9458746
_publ_section_title
;
Structure prediction by ZEFSAII (Michael W. Deem and Ramdas Pophale) SiO2 
 PCOD9458746
Probable space group: P B C N
;
_chemical_formula_sum "Si O2"
_cell_formula_units_Z 36
_cell_length_a 8.632583
_cell_length_b 17.314407
_cell_length_c 9.750140
_cell_angle_alpha 90.000000
_cell_angle_beta 90.000000
_cell_angle_gamma 90.000000
_cell_volume 1457.334467
_symmetry_space_group_name_H-M "P B C N"
_symmetry_group_IT_number 60
_symmetry_cell_setting 'orthorhombic'
loop_
_space_group_symop_operation_xyz
x,y,z
1/2-x,1/2-y,1/2+z
1/2+x,1/2-y,-z
-x,y,1/2-z
-x,-y,-z
1/2+x,1/2+y,1/2-z
1/2-x,1/2+y,z
x,-y,1/2+z
loop_
_atom_site_type_symbol
_atom_site_label
_atom_site_fract_x
_atom_site_fract_y
_atom_site_fract_z
Si Si1 0.409346 0.218582 0.876207
Si Si2 0.245705 0.010818 0.095899
Si Si3 0.803494 0.652210 0.038074
Si Si4 0.350604 0.407727 0.331898
Si Si5 0.500000 0.090313 0.250000
O O1 0.500000 0.256926 0.750000
O O2 0.321913 0.281151 0.966625
O O3 0.287248 0.154707 0.822292
O O4 0.541442 0.176716 0.961173
O O5 0.419503 0.040121 0.130619
O O6 0.182310 0.986159 0.245217
O O7 0.152781 0.067877 0.993367
O O8 0.248362 0.928729 0.020200
O O9 0.859660 0.640843 0.193763
O O10 0.500000 0.375902 0.250000
#
# Coordination Sequence:
#
# PCOD9458746 Si02
#       5
#     8   8   8   8   4
#     4  12  29  49  74 110 154 204 254 314 393 465
#     4  12  24  49  79 112 149 197 264 314 389 453
#     4  12  28  47  77 108 153 198 253 312 381 461
#     4  12  27  48  77 113 158 198 255 324 388 461
#     4  12  24  46  80 112 146 200 256 324 378 462
#
# _framework density 24.702632999999999
#
# number of rings (size 3 to 8) (size 9 to 14) (size 15 to 20)
#    0.000    0.000    6.667    2.667    7.778    0.889 
#    0.000    0.000    0.000    0.000    0.000    0.000 
#    0.000    0.000    0.000    0.000    0.000    0.000 
#
# Total GULP energy -201377.740447 kJ/mol
# GULP energy per Si atom -5593.826124 kJ/mol
# Density = 2.464641 g / cm^3
# Si number density = 24.702633 Si / 1000 Ang^3
#
#
#
# Elastic Constant Matrix: (Units=GPa)
#
#
# Indices 1 2 3 4 5 6 
#
# 1 126.2556 42.5461 28.7328 0.0000 0.0000 0.0000
# 2 42.5461 52.7033 18.8614 0.0000 0.0000 0.0000
# 3 28.7328 18.8614 99.4319 0.0000 0.0000 0.0000
# 4 0.0000 0.0000 0.0000 31.4235 0.0000 0.0000
# 5 0.0000 0.0000 0.0000 0.0000 52.9993 0.0000
# 6 0.0000 0.0000 0.0000 0.0000 0.0000 28.6756
#
#
#
# Elastic Compliance Matrix: (Units=1/GPa)
#
#
# Indices 1 2 3 4 5 6 
#
# 1 0.011118 -0.008396 -0.001620 0.000000 0.000000 0.000000
# 2 -0.008396 0.026696 -0.002638 0.000000 0.000000 0.000000
# 3 -0.001620 -0.002638 0.011026 0.000000 0.000000 0.000000
# 4 0.000000 0.000000 0.000000 0.031823 0.000000 0.000000
# 5 0.000000 0.000000 0.000000 0.000000 0.018868 0.000000
# 6 0.000000 0.000000 0.000000 0.000000 0.000000 0.034873
#
#
# Mechanical properties :
#
#
# Convention : Reuss Voigt Hill
#
# Bulk Modulus (GPa) = 42.49497 50.96351 46.72924
# Shear Modulus (GPa) = 29.84072 35.16970 32.50521
#
# Velocity S-wave (km/s) = 3.47940 3.77732 3.63141
# Velocity P-wave (km/s) = 5.77768 6.30078 6.04489
#
# Compressibility (1/GPa) = 0.02353220
#
# Stress axis : x y z
#
# Youngs Moduli (GPa) = 89.94091 37.45897 90.69697
#
# Poissons Ratio (x) = 0.31450 0.14695
# Poissons Ratio (y) = 0.75512 0.23925
# Poissons Ratio (z) = 0.14573 0.09881
#
# Static dielectric constant tensor:
#      x y z
#    x 2.007130 0.000000 0.000000 
#    y 0.000000 1.889200 0.000000 
#    z 0.000000 0.000000 2.086500 
# 
# From -- ./inp_files/9713.got.cif
#   From: 2010.05.17/outbox.cif.g08.bks.cpg/sg60_5_cif.got.tgz:9713.got - 2010.06.03 14:59:27.
