data_PCOD9458115
_publ_section_title
;
Structure prediction by ZEFSAII (Michael W. Deem and Ramdas Pophale) SiO2 
 PCOD9458115
Probable space group: P B C N
;
_chemical_formula_sum "Si O2"
_cell_formula_units_Z 48
_cell_length_a 8.209573
_cell_length_b 30.742038
_cell_length_c 9.716024
_cell_angle_alpha 90.000000
_cell_angle_beta 90.000000
_cell_angle_gamma 90.000000
_cell_volume 2452.120471
_symmetry_space_group_name_H-M "P B C N"
_symmetry_group_IT_number 60
_symmetry_cell_setting 'orthorhombic'
loop_
_space_group_symop_operation_xyz
x,y,z
1/2-x,1/2-y,1/2+z
1/2+x,1/2-y,-z
-x,y,1/2-z
-x,-y,-z
1/2+x,1/2+y,1/2-z
1/2-x,1/2+y,z
x,-y,1/2+z
loop_
_atom_site_type_symbol
_atom_site_label
_atom_site_fract_x
_atom_site_fract_y
_atom_site_fract_z
Si Si1 0.670512 0.978068 0.044612
Si Si2 0.126108 0.721523 0.625016
Si Si3 0.664543 0.463928 0.331179
Si Si4 0.138603 0.380732 0.457436
Si Si5 0.887794 0.705117 0.380799
Si Si6 0.729577 0.129177 0.849776
O O1 0.801566 0.006566 0.962783
O O2 0.700378 0.973004 0.209646
O O3 0.680041 0.928552 0.991250
O O4 0.500000 0.000000 0.000000
O O5 0.236745 0.763395 0.647596
O O6 0.244849 0.679474 0.606166
O O7 0.000000 0.712571 0.750000
O O8 0.007353 0.725822 0.495245
O O9 0.500000 0.472944 0.250000
O O10 0.664977 0.413472 0.381213
O O11 0.165853 0.341609 0.561456
O O12 0.230877 0.370333 0.315865
O O13 0.949055 0.381954 0.410920
O O14 0.000000 0.698519 0.250000
#
# Coordination Sequence:
#
# PCOD9458115 Si02
#       6
#     8   8   8   8   8   8
#     4  11  21  38  66  87 116 164 208 237 295 370
#     4  11  21  41  62  86 123 155 204 249 295 365
#     4  11  23  38  59  93 126 151 197 257 307 344
#     4   9  18  37  58  85 114 150 208 244 279 358
#     4  11  23  36  61  90 120 157 197 250 306 347
#     4   9  17  37  62  78 110 161 201 240 282 361
#
# _framework density 19.574892999999999
#
# number of rings (size 3 to 8) (size 9 to 14) (size 15 to 20)
#    0.000    1.667    5.000    2.000    0.000    2.000 
#    3.000    0.833    0.000    0.000    0.000    0.000 
#    0.000    0.000    0.000    0.000    0.000    0.000 
#
# Total GULP energy -267602.490704 kJ/mol
# GULP energy per Si atom -5575.051890 kJ/mol
# Density = 1.953034 g / cm^3
# Si number density = 19.574893 Si / 1000 Ang^3
#
#
#
# Elastic Constant Matrix: (Units=GPa)
#
#
# Indices 1 2 3 4 5 6 
#
# 1 32.4049 28.2984 -3.1942 0.0000 0.0000 0.0000
# 2 28.2984 144.2035 25.5337 0.0000 0.0000 0.0000
# 3 -3.1942 25.5337 45.0500 0.0000 0.0000 0.0000
# 4 0.0000 0.0000 0.0000 44.1182 0.0000 0.0000
# 5 0.0000 0.0000 0.0000 0.0000 22.2619 0.0000
# 6 0.0000 0.0000 0.0000 0.0000 0.0000 16.6826
#
#
#
# Elastic Compliance Matrix: (Units=1/GPa)
#
#
# Indices 1 2 3 4 5 6 
#
# 1 0.039697 -0.009213 0.008037 0.000000 0.000000 0.000000
# 2 -0.009213 0.009846 -0.006234 0.000000 0.000000 0.000000
# 3 0.008037 -0.006234 0.026301 0.000000 0.000000 0.000000
# 4 0.000000 0.000000 0.000000 0.022666 0.000000 0.000000
# 5 0.000000 0.000000 0.000000 0.000000 0.044920 0.000000
# 6 0.000000 0.000000 0.000000 0.000000 0.000000 0.059943
#
#
# Mechanical properties :
#
#
# Convention : Reuss Voigt Hill
#
# Bulk Modulus (GPa) = 16.38721 35.88158 26.13440
# Shear Modulus (GPa) = 20.96121 28.01392 24.48756
#
# Velocity S-wave (km/s) = 3.27589 3.78711 3.54074
# Velocity P-wave (km/s) = 4.76428 6.12317 5.48596
#
# Compressibility (1/GPa) = 0.06102319
#
# Stress axis : x y z
#
# Youngs Moduli (GPa) = 25.19060 101.55904 38.02173
#
# Poissons Ratio (x) = 0.93568 -0.30557
# Poissons Ratio (y) = 0.23209 0.23703
# Poissons Ratio (z) = -0.20245 0.63313
#
# Static dielectric constant tensor:
#      x y z
#    x 1.733310 0.000000 0.000000 
#    y 0.000000 1.703390 0.000000 
#    z 0.000000 0.000000 1.727790 
# 
# From -- ./inp_files/4195.got.cif
#   From: 2010.05.17/outbox.cif.g08.bks.cpg/sg60_3_cif.got.tgz:4195.got - 2010.06.03 14:59:27.
