data_PCOD9458517
_publ_section_title
;
Structure prediction by ZEFSAII (Michael W. Deem and Ramdas Pophale) SiO2 
 PCOD9458517
Probable space group: P B C N
;
_chemical_formula_sum "Si O2"
_cell_formula_units_Z 56
_cell_length_a 12.612914
_cell_length_b 13.322246
_cell_length_c 14.727686
_cell_angle_alpha 90.000000
_cell_angle_beta 90.000000
_cell_angle_gamma 90.000000
_cell_volume 2474.727587
_symmetry_space_group_name_H-M "P B C N"
_symmetry_group_IT_number 60
_symmetry_cell_setting 'orthorhombic'
loop_
_space_group_symop_operation_xyz
x,y,z
1/2-x,1/2-y,1/2+z
1/2+x,1/2-y,-z
-x,y,1/2-z
-x,-y,-z
1/2+x,1/2+y,1/2-z
1/2-x,1/2+y,z
x,-y,1/2+z
loop_
_atom_site_type_symbol
_atom_site_label
_atom_site_fract_x
_atom_site_fract_y
_atom_site_fract_z
Si Si1 0.706277 0.007835 0.975390
Si Si2 0.565785 0.516327 0.908788
Si Si3 0.023007 0.778399 0.350905
Si Si4 0.448171 0.114229 0.653151
Si Si5 0.114572 0.180534 0.205893
Si Si6 0.120244 0.303386 0.487325
Si Si7 0.736361 0.162785 0.125153
O O1 0.815000 0.047024 0.932790
O O2 0.613841 0.030612 0.903546
O O3 0.693590 0.064672 0.072187
O O4 0.705854 0.888680 0.989557
O O5 0.502249 0.602750 0.855852
O O6 0.585212 0.411229 0.858806
O O7 0.500000 0.500000 0.000000
O O8 0.142309 0.743802 0.370302
O O9 0.000000 0.741425 0.250000
O O10 0.946475 0.729097 0.425463
O O11 0.500000 0.084183 0.750000
O O12 0.366392 0.209130 0.663620
O O13 0.541052 0.150159 0.586707
O O14 0.205660 0.149772 0.277547
O O15 0.000000 0.201474 0.250000
O O16 0.174157 0.210317 0.438616
#
# Coordination Sequence:
#
# PCOD9458517 Si02
#       7
#     8   8   8   8   8   8   8
#     4  12  28  42  78 109 145 204 254 311 389 456
#     4  12  26  47  76 110 154 199 250 317 383 462
#     4  12  29  47  75 113 157 192 255 321 383 452
#     4  11  24  47  75 105 148 197 257 311 377 460
#     4  11  24  46  75 107 146 197 260 308 380 466
#     4  12  25  52  72 107 152 194 251 319 378 463
#     4  12  26  49  78 109 152 205 253 314 392 457
#
# _framework density 22.628753
#
# number of rings (size 3 to 8) (size 9 to 14) (size 15 to 20)
#    0.000    0.286    5.714    3.429    6.000    2.857 
#    0.000    0.000    0.000    0.000    0.000    0.000 
#    0.000    0.000    0.000    0.000    0.000    0.000 
#
# Total GULP energy -313180.914441 kJ/mol
# GULP energy per Si atom -5592.516329 kJ/mol
# Density = 2.257725 g / cm^3
# Si number density = 22.628753 Si / 1000 Ang^3
#
#
#
# Elastic Constant Matrix: (Units=GPa)
#
#
# Indices 1 2 3 4 5 6 
#
# 1 75.9637 -10.1218 22.4254 0.0000 0.0000 0.0000
# 2 -10.1218 51.2048 5.8357 0.0000 0.0000 0.0000
# 3 22.4254 5.8357 91.4294 0.0000 0.0000 0.0000
# 4 0.0000 0.0000 0.0000 -4.9694 0.0000 0.0000
# 5 0.0000 0.0000 0.0000 0.0000 44.9724 0.0000
# 6 0.0000 0.0000 0.0000 0.0000 0.0000 25.0220
#
#
#
# Elastic Compliance Matrix: (Units=1/GPa)
#
#
# Indices 1 2 3 4 5 6 
#
# 1 0.014741 0.003350 -0.003829 0.000000 0.000000 0.000000
# 2 0.003350 0.020434 -0.002126 0.000000 0.000000 0.000000
# 3 -0.003829 -0.002126 0.012012 0.000000 0.000000 0.000000
# 4 0.000000 0.000000 0.000000 -0.201233 0.000000 0.000000
# 5 0.000000 0.000000 0.000000 0.000000 0.022236 0.000000
# 6 0.000000 0.000000 0.000000 0.000000 0.000000 0.039965
#
#
# Mechanical properties :
#
#
# Convention : Reuss Voigt Hill
#
# Bulk Modulus (GPa) = 23.82245 28.31961 26.07103
# Shear Modulus (GPa) = -68.83000 26.36893 -21.23053
#
# Velocity S-wave (km/s) = -5.52115 3.41733 -3.06635
# Velocity P-wave (km/s) = 5.48578 5.30216 0.99520
#
# Compressibility (1/GPa) = 0.04197721
#
# Stress axis : x y z
#
# Youngs Moduli (GPa) = 67.83747 48.93810 83.24744
#
# Poissons Ratio (x) = -0.16396 0.31879
# Poissons Ratio (y) = -0.22728 0.17699
# Poissons Ratio (z) = 0.25978 0.10404
#
# Static dielectric constant tensor:
#      x y z
#    x 1.461690 0.000000 0.000000 
#    y 0.000000 2.030850 0.000000 
#    z 0.000000 0.000000 1.881200 
# 
# From -- ./inp_files/16186.got.cif
#   From: 2010.05.17/outbox.cif.g08.bks.cpg/sg60_9_cif.got.tgz:16186.got - 2010.06.03 14:59:27.
