data_PCOD9458903
_publ_section_title
;
Structure prediction by ZEFSAII (Michael W. Deem and Ramdas Pophale) SiO2 
 PCOD9458903
Probable space group: P B C N
;
_chemical_formula_sum "Si O2"
_cell_formula_units_Z 40
_cell_length_a 15.000000
_cell_length_b 15.000000
_cell_length_c 9.000000
_cell_angle_alpha 90.000000
_cell_angle_beta 90.000000
_cell_angle_gamma 90.000000
_cell_volume 2025.000000
_symmetry_space_group_name_H-M "P B C N"
_symmetry_group_IT_number 60
_symmetry_cell_setting 'orthorhombic'
loop_
_space_group_symop_operation_xyz
x,y,z
1/2-x,1/2-y,1/2+z
1/2+x,1/2-y,-z
-x,y,1/2-z
-x,-y,-z
1/2+x,1/2+y,1/2-z
1/2-x,1/2+y,z
x,-y,1/2+z
loop_
_atom_site_type_symbol
_atom_site_label
_atom_site_fract_x
_atom_site_fract_y
_atom_site_fract_z
Si Si1 0.226647 0.975029 0.974308
Si Si2 0.147705 0.201564 0.325313
Si Si3 0.248687 0.622426 0.744059
Si Si4 0.058061 0.922520 0.610933
Si Si5 0.439870 0.675802 0.620240
O O1 0.265584 0.053741 0.876671
O O2 0.193273 0.892540 0.873006
O O3 0.143568 0.023016 0.057628
O O4 0.286959 0.927475 0.097403
O O5 0.210006 0.281568 0.278535
O O6 0.091134 0.171089 0.182911
O O7 0.096520 0.229605 0.477038
O O8 0.353048 0.638462 0.705303
O O9 0.000000 0.959765 0.750000
O O10 0.997846 0.898773 0.468518
O O11 0.500000 0.717356 0.750000
#
# Coordination Sequence:
#
# PCOD9458903 Si02
#       5
#     8   8   8   8   8
#     4  11  22  37  60  85 125 164 202 244 307 363
#     4  10  24  39  56  88 130 164 203 247 299 377
#     4  11  24  38  57  91 126 164 206 243 308 368
#     4  10  21  39  58  94 130 160 190 247 327 378
#     4  10  21  36  62  89 124 164 189 253 306 384
#
# _framework density 19.753086
#
# number of rings (size 3 to 8) (size 9 to 14) (size 15 to 20)
#    0.000    1.600    4.000    0.000    5.600   10.400 
#    0.000    0.000    0.000    0.000    0.000   44.800 
#    0.000    0.000    0.000    0.000    0.000    0.000 
#
# Total GULP energy -222818.413878 kJ/mol
# GULP energy per Si atom -5570.460347 kJ/mol
# Density = 1.970813 g / cm^3
# Si number density = 19.753086 Si / 1000 Ang^3
#
#
#
# Elastic Constant Matrix: (Units=GPa)
#
#
# Indices 1 2 3 4 5 6 
#
# 1 34.3466 47.6013 37.9297 0.0000 0.0000 0.0000
# 2 47.6013 113.0855 58.2265 0.0000 0.0000 0.0000
# 3 37.9297 58.2265 97.7518 0.0000 0.0000 0.0000
# 4 0.0000 0.0000 0.0000 0.7136 0.0000 0.0000
# 5 0.0000 0.0000 0.0000 0.0000 24.6346 0.0000
# 6 0.0000 0.0000 0.0000 0.0000 0.0000 29.6912
#
#
#
# Elastic Compliance Matrix: (Units=1/GPa)
#
#
# Indices 1 2 3 4 5 6 
#
# 1 0.085821 -0.027375 -0.016994 0.000000 0.000000 0.000000
# 2 -0.027375 0.021486 -0.002177 0.000000 0.000000 0.000000
# 3 -0.016994 -0.002177 0.018121 0.000000 0.000000 0.000000
# 4 0.000000 0.000000 0.000000 1.401416 0.000000 0.000000
# 5 0.000000 0.000000 0.000000 0.000000 0.040593 0.000000
# 6 0.000000 0.000000 0.000000 0.000000 0.000000 0.033680
#
#
# Mechanical properties :
#
#
# Convention : Reuss Voigt Hill
#
# Bulk Modulus (GPa) = 30.92446 59.18877 45.05662
# Shear Modulus (GPa) = 2.93257 17.76962 10.35110
#
# Velocity S-wave (km/s) = 1.21977 3.00257 2.29164
# Velocity P-wave (km/s) = 4.20396 6.48459 5.46458
#
# Compressibility (1/GPa) = 0.03233686
#
# Stress axis : x y z
#
# Youngs Moduli (GPa) = 11.65215 46.54097 55.18544
#
# Poissons Ratio (x) = 1.27404 0.93785
# Poissons Ratio (y) = 0.31897 0.12012
# Poissons Ratio (z) = 0.19802 0.10130
#
# Static dielectric constant tensor:
#      x y z
#    x 1.743130 0.000000 0.000000 
#    y 0.000000 1.692030 0.000000 
#    z 0.000000 0.000000 1.784330 
# 
# From -- ./inp_files/5661.got.cif
#   From: 2010.05.17/outbox.ucp.g08.bks.cvg/sg60_3_cif.got.tgz:5661.got - 2010.06.11 16:26:41.
