data_PCOD9458073
_publ_section_title
;
Structure prediction by ZEFSAII (Michael W. Deem and Ramdas Pophale) SiO2 
 PCOD9458073
Probable space group: P B C N
;
_chemical_formula_sum "Si O2"
_cell_formula_units_Z 48
_cell_length_a 7.254536
_cell_length_b 24.949800
_cell_length_c 11.580680
_cell_angle_alpha 90.000000
_cell_angle_beta 90.000000
_cell_angle_gamma 90.000000
_cell_volume 2096.094074
_symmetry_space_group_name_H-M "P B C N"
_symmetry_group_IT_number 60
_symmetry_cell_setting 'orthorhombic'
loop_
_space_group_symop_operation_xyz
x,y,z
1/2-x,1/2-y,1/2+z
1/2+x,1/2-y,-z
-x,y,1/2-z
-x,-y,-z
1/2+x,1/2+y,1/2-z
1/2-x,1/2+y,z
x,-y,1/2+z
loop_
_atom_site_type_symbol
_atom_site_label
_atom_site_fract_x
_atom_site_fract_y
_atom_site_fract_z
Si Si1 0.777979 0.357734 0.409351
Si Si2 0.845962 0.669287 0.154162
Si Si3 0.839946 0.878320 0.036521
Si Si4 0.706973 0.570563 0.286531
Si Si5 0.225276 0.951753 0.255453
Si Si6 0.714410 0.283857 0.204291
O O1 0.890774 0.339917 0.520993
O O2 0.563702 0.368378 0.451825
O O3 0.813354 0.411981 0.338675
O O4 0.805993 0.310961 0.315269
O O5 0.772222 0.612122 0.191909
O O6 0.728764 0.723832 0.169178
O O7 0.000000 0.678286 0.250000
O O8 0.756660 0.925243 0.118477
O O9 0.769948 0.823149 0.094458
O O10 0.790793 0.897946 0.908198
O O11 0.500000 0.559841 0.250000
O O12 0.791400 0.511438 0.274604
O O13 0.000000 0.948759 0.250000
O O14 0.500000 0.285713 0.250000
#
# Coordination Sequence:
#
# PCOD9458073 Si02
#       6
#     8   8   8   8   8   8
#     4   9  17  35  57  76 108 142 182 225 279 327
#     4  11  23  36  52  80 115 148 178 216 277 336
#     4   9  17  34  56  83 108 133 184 234 275 321
#     4  11  21  32  56  87 108 136 184 234 270 317
#     4   8  18  31  56  84 107 138 175 236 286 310
#     4   8  18  35  55  77 105 149 179 224 278 323
#
# _framework density 22.899736999999998
#
# number of rings (size 3 to 8) (size 9 to 14) (size 15 to 20)
#    0.000    2.667    1.667    2.000    4.667    2.000 
#    0.000    0.833    0.000    2.000    0.000    0.000 
#    0.000    0.000    0.000    0.000    0.000    0.000 
#
# Total GULP energy -267331.177305 kJ/mol
# GULP energy per Si atom -5569.399527 kJ/mol
# Density = 2.284762 g / cm^3
# Si number density = 22.899737 Si / 1000 Ang^3
#
#
#
# Elastic Constant Matrix: (Units=GPa)
#
#
# Indices 1 2 3 4 5 6 
#
# 1 49.8351 -6.9478 24.7829 0.0000 0.0000 0.0000
# 2 -6.9478 148.7357 70.5779 0.0000 0.0000 0.0000
# 3 24.7829 70.5779 144.9288 0.0000 0.0000 0.0000
# 4 0.0000 0.0000 0.0000 3385.5767 0.0000 0.0000
# 5 0.0000 0.0000 0.0000 0.0000 22.7122 0.0000
# 6 0.0000 0.0000 0.0000 0.0000 0.0000 0.7829
#
#
#
# Elastic Compliance Matrix: (Units=1/GPa)
#
#
# Indices 1 2 3 4 5 6 
#
# 1 0.023565 0.003918 -0.005938 0.000000 0.000000 0.000000
# 2 0.003918 0.009395 -0.005245 0.000000 0.000000 0.000000
# 3 -0.005938 -0.005245 0.010470 0.000000 0.000000 0.000000
# 4 0.000000 0.000000 0.000000 0.000295 0.000000 0.000000
# 5 0.000000 0.000000 0.000000 0.000000 0.044029 0.000000
# 6 0.000000 0.000000 0.000000 0.000000 0.000000 1.277362
#
#
# Mechanical properties :
#
#
# Convention : Reuss Voigt Hill
#
# Bulk Modulus (GPa) = 34.60121 57.81394 46.20758
# Shear Modulus (GPa) = 3.59898 698.82013 351.20956
#
# Velocity S-wave (km/s) = 1.25501 17.48793 12.39763
# Velocity P-wave (km/s) = 4.15244 20.81037 15.00524
#
# Compressibility (1/GPa) = 0.02890072
#
# Stress axis : x y z
#
# Youngs Moduli (GPa) = 42.43518 106.43443 95.51300
#
# Poissons Ratio (x) = -0.41706 0.56715
# Poissons Ratio (y) = -0.16628 0.50101
# Poissons Ratio (z) = 0.25198 0.55830
#
# Static dielectric constant tensor:
#      x y z
#    x 2.046530 0.000000 0.000000 
#    y 0.000000 1.965660 0.000000 
#    z 0.000000 0.000000 1.789390 
# 
# From -- ./inp_files/10085.got.cif
#   From: 2010.05.17/outbox.cif.g08.bks.cpg/sg60_6_cif.got.tgz:10085.got - 2010.06.03 14:59:27.
