data_PCOD9458069
_publ_section_title
;
Structure prediction by ZEFSAII (Michael W. Deem and Ramdas Pophale) SiO2 
 PCOD9458069
Probable space group: P B C N
;
_chemical_formula_sum "Si O2"
_cell_formula_units_Z 64
_cell_length_a 27.784377
_cell_length_b 12.417479
_cell_length_c 8.941096
_cell_angle_alpha 90.000000
_cell_angle_beta 90.000000
_cell_angle_gamma 90.000000
_cell_volume 3084.784679
_symmetry_space_group_name_H-M "P B C N"
_symmetry_group_IT_number 60
_symmetry_cell_setting 'orthorhombic'
loop_
_space_group_symop_operation_xyz
x,y,z
1/2-x,1/2-y,1/2+z
1/2+x,1/2-y,-z
-x,y,1/2-z
-x,-y,-z
1/2+x,1/2+y,1/2-z
1/2-x,1/2+y,z
x,-y,1/2+z
loop_
_atom_site_type_symbol
_atom_site_label
_atom_site_fract_x
_atom_site_fract_y
_atom_site_fract_z
Si Si1 0.902461 0.746330 0.037701
Si Si2 0.053540 0.312807 0.277902
Si Si3 0.659407 0.957052 0.986610
Si Si4 0.557876 0.440595 0.227199
Si Si5 0.091492 0.540702 0.274579
Si Si6 0.299676 0.736502 0.402954
Si Si7 0.400466 0.364282 0.955727
Si Si8 0.700132 0.813616 0.440431
O O1 0.925610 0.854177 0.101790
O O2 0.922204 0.649164 0.140976
O O3 0.916163 0.719993 0.867772
O O4 0.844341 0.740055 0.032933
O O5 0.055226 0.441838 0.287101
O O6 0.075944 0.251132 0.417681
O O7 0.000000 0.274570 0.250000
O O8 0.687422 0.847118 0.009730
O O9 0.639347 0.996740 0.144443
O O10 0.610959 0.940259 0.890404
O O11 0.688709 0.059224 0.926352
O O12 0.500000 0.442601 0.250000
O O13 0.583194 0.405790 0.382201
O O14 0.577913 0.553951 0.167198
O O15 0.343414 0.653985 0.436720
O O16 0.249056 0.698493 0.467769
O O17 0.297572 0.761968 0.225383
#
# Coordination Sequence:
#
# PCOD9458069 Si02
#       8
#     8   8   8   8   8   8   8   8
#     4  11  24  45  67  99 144 179 232 289 348 426
#     4  12  23  42  70  98 135 181 231 285 345 419
#     4  11  20  45  65  93 136 177 213 275 355 398
#     4  12  27  46  73 103 143 192 240 297 361 424
#     4  11  21  40  69  94 135 182 213 280 348 404
#     4  12  26  45  74 102 138 183 238 284 355 425
#     4  12  25  48  70 100 140 186 236 295 357 422
#     4  11  26  43  70 102 133 186 226 293 348 416
#
# _framework density 20.746991999999999
#
# number of rings (size 3 to 8) (size 9 to 14) (size 15 to 20)
#    0.000    0.500    6.250    3.000    5.250    2.000 
#    0.000    0.000    0.000    0.000    0.000    0.000 
#    0.000    0.000    0.000    0.000    0.000    0.000 
#
# Total GULP energy -357697.909888 kJ/mol
# GULP energy per Si atom -5589.029842 kJ/mol
# Density = 2.069977 g / cm^3
# Si number density = 20.746992 Si / 1000 Ang^3
#
#
#
# Elastic Constant Matrix: (Units=GPa)
#
#
# Indices 1 2 3 4 5 6 
#
# 1 109.2949 20.5216 24.5828 0.0000 0.0000 0.0000
# 2 20.5216 99.5534 30.2514 0.0000 0.0000 0.0000
# 3 24.5828 30.2514 85.2633 0.0000 0.0000 0.0000
# 4 0.0000 0.0000 0.0000 32.4852 0.0000 0.0000
# 5 0.0000 0.0000 0.0000 0.0000 23.6253 0.0000
# 6 0.0000 0.0000 0.0000 0.0000 0.0000 21.2057
#
#
#
# Elastic Compliance Matrix: (Units=1/GPa)
#
#
# Indices 1 2 3 4 5 6 
#
# 1 0.009936 -0.001320 -0.002396 0.000000 0.000000 0.000000
# 2 -0.001320 0.011434 -0.003676 0.000000 0.000000 0.000000
# 3 -0.002396 -0.003676 0.013724 0.000000 0.000000 0.000000
# 4 0.000000 0.000000 0.000000 0.030783 0.000000 0.000000
# 5 0.000000 0.000000 0.000000 0.000000 0.042328 0.000000
# 6 0.000000 0.000000 0.000000 0.000000 0.000000 0.047157
#
#
# Mechanical properties :
#
#
# Convention : Reuss Voigt Hill
#
# Bulk Modulus (GPa) = 49.24007 49.42479 49.33243
# Shear Modulus (GPa) = 28.26182 30.04695 29.15439
#
# Velocity S-wave (km/s) = 3.69482 3.80972 3.75271
# Velocity P-wave (km/s) = 6.47977 6.57467 6.52739
#
# Compressibility (1/GPa) = 0.02030866
#
# Stress axis : x y z
#
# Youngs Moduli (GPa) = 100.63967 87.45801 72.86698
#
# Poissons Ratio (x) = 0.11545 0.17462
# Poissons Ratio (y) = 0.13285 0.26787
# Poissons Ratio (z) = 0.24118 0.32151
#
# Static dielectric constant tensor:
#      x y z
#    x 1.715510 0.000000 0.000000 
#    y 0.000000 1.772440 0.000000 
#    z 0.000000 0.000000 1.765170 
# 
# From -- ./inp_files/8508.got.cif
#   From: 2010.05.17/outbox.cif.g08.bks.cpg/sg60_5_cif.got.tgz:8508.got - 2010.06.03 14:59:27.
