data_PCOD9458602
_publ_section_title
;
Structure prediction by ZEFSAII (Michael W. Deem and Ramdas Pophale) SiO2 
 PCOD9458602
Probable space group: P B C N
;
_chemical_formula_sum "Si O2"
_cell_formula_units_Z 40
_cell_length_a 15.467748
_cell_length_b 10.244991
_cell_length_c 9.719748
_cell_angle_alpha 90.000000
_cell_angle_beta 90.000000
_cell_angle_gamma 90.000000
_cell_volume 1540.258714
_symmetry_space_group_name_H-M "P B C N"
_symmetry_group_IT_number 60
_symmetry_cell_setting 'orthorhombic'
loop_
_space_group_symop_operation_xyz
x,y,z
1/2-x,1/2-y,1/2+z
1/2+x,1/2-y,-z
-x,y,1/2-z
-x,-y,-z
1/2+x,1/2+y,1/2-z
1/2-x,1/2+y,z
x,-y,1/2+z
loop_
_atom_site_type_symbol
_atom_site_label
_atom_site_fract_x
_atom_site_fract_y
_atom_site_fract_z
Si Si1 0.825767 0.150956 0.204261
Si Si2 0.442637 0.424389 0.385785
Si Si3 0.812634 0.742484 0.990326
Si Si4 0.928973 0.378174 0.100962
Si Si5 0.381801 0.003395 0.646867
O O1 0.858665 0.011317 0.154636
O O2 0.754917 0.223220 0.111690
O O3 0.797956 0.156938 0.363286
O O4 0.908636 0.244482 0.177828
O O5 0.500000 0.405671 0.250000
O O6 0.500000 0.500000 0.500000
O O7 0.403255 0.291502 0.445870
O O8 0.813306 0.603421 0.913163
O O9 0.878079 0.491369 0.188935
O O10 0.027081 0.423366 0.112357
O O11 0.893498 0.376075 0.945518
#
# Coordination Sequence:
#
# PCOD9458602 Si02
#       5
#     8   8   8   8   8
#     4  11  26  44  70 100 143 183 236 299 363 426
#     4  12  26  50  78 104 142 197 253 301 361 442
#     4  11  26  45  68 103 141 184 236 298 363 426
#     4   9  19  38  64  89 125 170 218 278 339 410
#     4   9  19  39  62  91 126 168 221 275 339 412
#
# _framework density 25.969660999999999
#
# number of rings (size 3 to 8) (size 9 to 14) (size 15 to 20)
#    0.000    1.600    2.000    1.200    8.400    1.600 
#    7.200    0.000    0.000    0.000    0.000    0.000 
#    0.000    0.000    0.000    0.000    0.000    0.000 
#
# Total GULP energy -223690.952892 kJ/mol
# GULP energy per Si atom -5592.273822 kJ/mol
# Density = 2.591055 g / cm^3
# Si number density = 25.969661 Si / 1000 Ang^3
#
#
#
# Elastic Constant Matrix: (Units=GPa)
#
#
# Indices 1 2 3 4 5 6 
#
# 1 87.8865 13.7086 39.3907 0.0000 0.0000 0.0000
# 2 13.7086 68.1753 18.6005 0.0000 0.0000 0.0000
# 3 39.3907 18.6005 142.3560 0.0000 0.0000 0.0000
# 4 0.0000 0.0000 0.0000 32.5701 0.0000 0.0000
# 5 0.0000 0.0000 0.0000 0.0000 57.1422 0.0000
# 6 0.0000 0.0000 0.0000 0.0000 0.0000 43.1738
#
#
#
# Elastic Compliance Matrix: (Units=1/GPa)
#
#
# Indices 1 2 3 4 5 6 
#
# 1 0.013180 -0.001716 -0.003423 0.000000 0.000000 0.000000
# 2 -0.001716 0.015434 -0.001542 0.000000 0.000000 0.000000
# 3 -0.003423 -0.001542 0.008173 0.000000 0.000000 0.000000
# 4 0.000000 0.000000 0.000000 0.030703 0.000000 0.000000
# 5 0.000000 0.000000 0.000000 0.000000 0.017500 0.000000
# 6 0.000000 0.000000 0.000000 0.000000 0.000000 0.023162
#
#
# Mechanical properties :
#
#
# Convention : Reuss Voigt Hill
#
# Bulk Modulus (GPa) = 42.68858 49.09082 45.88970
# Shear Modulus (GPa) = 38.66299 41.69175 40.17737
#
# Velocity S-wave (km/s) = 3.86265 4.01109 3.93757
# Velocity P-wave (km/s) = 6.03050 6.35579 6.19528
#
# Compressibility (1/GPa) = 0.02342547
#
# Stress axis : x y z
#
# Youngs Moduli (GPa) = 75.87191 64.79275 122.35153
#
# Poissons Ratio (x) = 0.11121 0.41878
# Poissons Ratio (y) = 0.13023 0.18863
# Poissons Ratio (z) = 0.25969 0.09989
#
# Static dielectric constant tensor:
#      x y z
#    x 2.095230 0.000000 0.000000 
#    y 0.000000 2.048490 0.000000 
#    z 0.000000 0.000000 2.121540 
# 
# From -- ./inp_files/6514.got.cif
#   From: 2010.05.17/outbox.cif.g08.bks.cpg/sg60_4_cif.got.tgz:6514.got - 2010.06.03 14:59:27.
