data_PCOD9458660
_publ_section_title
;
Structure prediction by ZEFSAII (Michael W. Deem and Ramdas Pophale) SiO2 
 PCOD9458660
Probable space group: P B C N
;
_chemical_formula_sum "Si O2"
_cell_formula_units_Z 28
_cell_length_a 11.919073
_cell_length_b 17.540798
_cell_length_c 5.257293
_cell_angle_alpha 90.000000
_cell_angle_beta 90.000000
_cell_angle_gamma 90.000000
_cell_volume 1099.142520
_symmetry_space_group_name_H-M "P B C N"
_symmetry_group_IT_number 60
_symmetry_cell_setting 'orthorhombic'
loop_
_space_group_symop_operation_xyz
x,y,z
1/2-x,1/2-y,1/2+z
1/2+x,1/2-y,-z
-x,y,1/2-z
-x,-y,-z
1/2+x,1/2+y,1/2-z
1/2-x,1/2+y,z
x,-y,1/2+z
loop_
_atom_site_type_symbol
_atom_site_label
_atom_site_fract_x
_atom_site_fract_y
_atom_site_fract_z
Si Si1 0.582129 0.430576 0.060802
Si Si2 0.334083 0.957970 0.385203
Si Si3 0.000000 0.190770 0.250000
Si Si4 0.816714 0.720108 0.488217
O O1 0.500000 0.385959 0.250000
O O2 0.698452 0.462608 0.154406
O O3 0.500000 0.500000 0.000000
O O4 0.595878 0.368964 0.840894
O O5 0.341331 0.870445 0.477719
O O6 0.375579 0.014645 0.608507
O O7 0.063248 0.243025 0.449102
O O8 0.766532 0.751237 0.220037
#
# Coordination Sequence:
#
# PCOD9458660 Si02
#       4
#     8   8   4   8
#     4  12  21  35  64  99 134 167 216 287 362 413
#     4  12  24  43  67  98 139 180 228 284 344 417
#     4  12  26  44  66 102 140 184 232 286 350 420
#     4  12  27  46  70 103 144 185 231 290 350 417
#
# _framework density 25.474405000000001
#
# number of rings (size 3 to 8) (size 9 to 14) (size 15 to 20)
#    0.000    0.000    7.143    3.429    0.000    0.000 
#    0.000    1.429    0.000    0.000    0.000    0.000 
#    0.000    0.000    0.000    0.000    0.000    0.000 
#
# Total GULP energy -156290.614581 kJ/mol
# GULP energy per Si atom -5581.807664 kJ/mol
# Density = 2.541642 g / cm^3
# Si number density = 25.474405 Si / 1000 Ang^3
#
#
#
# Elastic Constant Matrix: (Units=GPa)
#
#
# Indices 1 2 3 4 5 6 
#
# 1 47.4664 -5.7579 -6.7138 0.0000 0.0000 0.0000
# 2 -5.7579 148.8152 19.0849 0.0000 0.0000 0.0000
# 3 -6.7138 19.0849 119.6999 0.0000 0.0000 0.0000
# 4 0.0000 0.0000 0.0000 36.9257 0.0000 0.0000
# 5 0.0000 0.0000 0.0000 0.0000 29.9995 0.0000
# 6 0.0000 0.0000 0.0000 0.0000 0.0000 30.9362
#
#
#
# Elastic Compliance Matrix: (Units=1/GPa)
#
#
# Indices 1 2 3 4 5 6 
#
# 1 0.021304 0.000685 0.001086 0.000000 0.000000 0.000000
# 2 0.000685 0.006882 -0.001059 0.000000 0.000000 0.000000
# 3 0.001086 -0.001059 0.008584 0.000000 0.000000 0.000000
# 4 0.000000 0.000000 0.000000 0.027081 0.000000 0.000000
# 5 0.000000 0.000000 0.000000 0.000000 0.033334 0.000000
# 6 0.000000 0.000000 0.000000 0.000000 0.000000 0.032325
#
#
# Mechanical properties :
#
#
# Convention : Reuss Voigt Hill
#
# Bulk Modulus (GPa) = 26.18215 36.57868 31.38041
# Shear Modulus (GPa) = 35.50694 40.19684 37.85189
#
# Velocity S-wave (km/s) = 3.73745 3.97663 3.85889
# Velocity P-wave (km/s) = 5.37818 5.95608 5.67449
#
# Compressibility (1/GPa) = 0.03819397
#
# Stress axis : x y z
#
# Youngs Moduli (GPa) = 46.93914 145.30572 116.49661
#
# Poissons Ratio (x) = -0.09954 -0.12648
# Poissons Ratio (y) = -0.03216 0.12335
# Poissons Ratio (z) = -0.05096 0.15386
#
# Static dielectric constant tensor:
#      x y z
#    x 1.975860 0.000000 0.000000 
#    y 0.000000 1.987330 0.000000 
#    z 0.000000 0.000000 0.274040 
# 
# From -- ./inp_files/1025.got.cif
#   From: 2010.05.17/outbox.cif.g08.bks.cpg/sg60_1_cif.got.tgz:1025.got - 2010.06.03 14:59:27.
