data_PCOD9458332
_publ_section_title
;
Structure prediction by ZEFSAII (Michael W. Deem and Ramdas Pophale) SiO2 
 PCOD9458332
Probable space group: P B C N
;
_chemical_formula_sum "Si O2"
_cell_formula_units_Z 32
_cell_length_a 9.711820
_cell_length_b 8.454218
_cell_length_c 15.511710
_cell_angle_alpha 90.000000
_cell_angle_beta 90.000000
_cell_angle_gamma 90.000000
_cell_volume 1273.602033
_symmetry_space_group_name_H-M "P B C N"
_symmetry_group_IT_number 60
_symmetry_cell_setting 'orthorhombic'
loop_
_space_group_symop_operation_xyz
x,y,z
1/2-x,1/2-y,1/2+z
1/2+x,1/2-y,-z
-x,y,1/2-z
-x,-y,-z
1/2+x,1/2+y,1/2-z
1/2-x,1/2+y,z
x,-y,1/2+z
loop_
_atom_site_type_symbol
_atom_site_label
_atom_site_fract_x
_atom_site_fract_y
_atom_site_fract_z
Si Si1 0.562026 0.921004 0.084898
Si Si2 0.631748 0.094371 0.308425
Si Si3 0.339755 0.562930 0.425556
Si Si4 0.376681 0.562134 0.624230
O O1 0.436881 0.936783 0.150256
O O2 0.691101 0.028106 0.113862
O O3 0.618017 0.745723 0.075305
O O4 0.500000 0.000000 0.000000
O O5 0.500000 0.143762 0.250000
O O6 0.646118 0.251555 0.365971
O O7 0.789949 0.033782 0.304049
O O8 0.332193 0.511336 0.526520
O O9 0.460844 0.470899 0.377689
#
# Coordination Sequence:
#
# PCOD9458332 Si02
#       4
#     8   8   8   8
#     4  12  23  41  70 107 137 182 240 296 353 417
#     4  12  27  45  69 102 148 190 231 292 366 442
#     4  11  23  40  74 103 135 176 243 300 344 408
#     4  11  23  44  70 101 137 186 233 294 352 413
#
# _framework density 25.125588
#
# number of rings (size 3 to 8) (size 9 to 14) (size 15 to 20)
#    0.000    0.500    5.000    3.000    3.500    4.000 
#    0.000    2.500    0.000    0.000    0.000    0.000 
#    0.000    0.000    0.000    0.000    0.000    0.000 
#
# Total GULP energy -178653.321003 kJ/mol
# GULP energy per Si atom -5582.916281 kJ/mol
# Density = 2.506840 g / cm^3
# Si number density = 25.125588 Si / 1000 Ang^3
#
#
#
# Elastic Constant Matrix: (Units=GPa)
#
#
# Indices 1 2 3 4 5 6 
#
# 1 167.8683 36.9056 20.4879 0.0000 0.0000 0.0000
# 2 36.9056 131.7862 -1.8799 0.0000 0.0000 0.0000
# 3 20.4879 -1.8799 36.4396 0.0000 0.0000 0.0000
# 4 0.0000 0.0000 0.0000 11.8331 0.0000 0.0000
# 5 0.0000 0.0000 0.0000 0.0000 44.7650 0.0000
# 6 0.0000 0.0000 0.0000 0.0000 0.0000 47.2387
#
#
#
# Elastic Compliance Matrix: (Units=1/GPa)
#
#
# Indices 1 2 3 4 5 6 
#
# 1 0.006877 -0.001983 -0.003969 0.000000 0.000000 0.000000
# 2 -0.001983 0.008165 0.001536 0.000000 0.000000 0.000000
# 3 -0.003969 0.001536 0.029753 0.000000 0.000000 0.000000
# 4 0.000000 0.000000 0.000000 0.084509 0.000000 0.000000
# 5 0.000000 0.000000 0.000000 0.000000 0.022339 0.000000
# 6 0.000000 0.000000 0.000000 0.000000 0.000000 0.021169
#
#
# Mechanical properties :
#
#
# Convention : Reuss Voigt Hill
#
# Bulk Modulus (GPa) = 27.80510 49.68014 38.74262
# Shear Modulus (GPa) = 25.82215 39.47273 32.64744
#
# Velocity S-wave (km/s) = 3.20929 3.96791 3.60859
# Velocity P-wave (km/s) = 4.98229 6.38812 5.72849
#
# Compressibility (1/GPa) = 0.03596462
#
# Stress axis : x y z
#
# Youngs Moduli (GPa) = 145.40555 122.47169 33.60956
#
# Poissons Ratio (x) = 0.24281 0.13340
# Poissons Ratio (y) = 0.28827 -0.05162
# Poissons Ratio (z) = 0.57711 -0.18810
#
# Static dielectric constant tensor:
#      x y z
#    x 2.076630 0.000000 0.000000 
#    y 0.000000 1.910270 0.000000 
#    z 0.000000 0.000000 3.501800 
# 
# From -- ./inp_files/21870.got.cif
#   From: 2010.05.17/outbox.cif.g08.bks.cpg/sg60_11_cif.got.tgz:21870.got - 2010.06.03 14:59:27.
