data_PCOD9458537
_publ_section_title
;
Structure prediction by ZEFSAII (Michael W. Deem and Ramdas Pophale) SiO2 
 PCOD9458537
Probable space group: P B C N
;
_chemical_formula_sum "Si O2"
_cell_formula_units_Z 56
_cell_length_a 11.044039
_cell_length_b 14.593945
_cell_length_c 13.603963
_cell_angle_alpha 90.000000
_cell_angle_beta 90.000000
_cell_angle_gamma 90.000000
_cell_volume 2192.633670
_symmetry_space_group_name_H-M "P B C N"
_symmetry_group_IT_number 60
_symmetry_cell_setting 'orthorhombic'
loop_
_space_group_symop_operation_xyz
x,y,z
1/2-x,1/2-y,1/2+z
1/2+x,1/2-y,-z
-x,y,1/2-z
-x,-y,-z
1/2+x,1/2+y,1/2-z
1/2-x,1/2+y,z
x,-y,1/2+z
loop_
_atom_site_type_symbol
_atom_site_label
_atom_site_fract_x
_atom_site_fract_y
_atom_site_fract_z
Si Si1 0.887058 0.547480 0.940644
Si Si2 0.278518 0.121262 0.981906
Si Si3 0.295106 0.325042 0.976777
Si Si4 0.000000 0.259843 0.750000
Si Si5 0.500000 0.564273 0.250000
Si Si6 0.013033 0.901052 0.406704
Si Si7 0.366633 0.048750 0.773739
Si Si8 0.742097 0.639952 0.238666
O O1 0.860002 0.595551 0.833651
O O2 0.810896 0.454060 0.937004
O O3 0.833350 0.624369 0.010869
O O4 0.000000 0.500000 0.000000
O O5 0.301966 0.223201 0.018612
O O6 0.350238 0.102874 0.876463
O O7 0.138888 0.106589 0.961541
O O8 0.304454 0.312828 0.861152
O O9 0.395909 0.389997 0.024536
O O10 0.011805 0.190027 0.840158
O O11 0.872105 0.313821 0.761776
O O12 0.516893 0.491655 0.160286
O O13 0.611092 0.627563 0.289267
O O14 0.500000 0.007498 0.750000
O O15 0.275026 0.966015 0.783435
#
# Coordination Sequence:
#
# PCOD9458537 Si02
#       8
#     8   8   8   4   4   8   8   8
#     4  12  27  49  81 114 156 213 266 330 406 481
#     4  12  27  50  77 116 159 209 272 335 404 491
#     4  12  28  47  74 114 157 203 268 326 400 484
#     4  11  26  48  80 109 156 212 272 321 410 487
#     4  11  24  48  76 111 156 208 268 325 412 477
#     4  11  26  50  74 106 161 208 255 340 406 475
#     4  12  24  47  79 110 158 201 267 337 399 475
#     4  12  24  46  75 113 148 207 264 326 393 491
#
# _framework density 25.540061000000001
#
# number of rings (size 3 to 8) (size 9 to 14) (size 15 to 20)
#    0.000    0.286    6.429    0.857    6.000    3.429 
#    1.286    0.000    0.000    0.000    0.000    0.000 
#    0.000    0.000    0.000    0.000    0.000    0.000 
#
# Total GULP energy -312206.574530 kJ/mol
# GULP energy per Si atom -5575.117402 kJ/mol
# Density = 2.548193 g / cm^3
# Si number density = 25.540061 Si / 1000 Ang^3
#
#
#
# Elastic Constant Matrix: (Units=GPa)
#
#
# Indices 1 2 3 4 5 6 
#
# 1 137.5431 33.1657 27.4678 0.0000 0.0000 0.0000
# 2 33.1657 81.9143 33.6406 0.0000 0.0000 0.0000
# 3 27.4678 33.6406 97.5452 0.0000 0.0000 0.0000
# 4 0.0000 0.0000 0.0000 21.0658 0.0000 0.0000
# 5 0.0000 0.0000 0.0000 0.0000 38.2152 0.0000
# 6 0.0000 0.0000 0.0000 0.0000 0.0000 28.4775
#
#
#
# Elastic Compliance Matrix: (Units=1/GPa)
#
#
# Indices 1 2 3 4 5 6 
#
# 1 0.008209 -0.002766 -0.001358 0.000000 0.000000 0.000000
# 2 -0.002766 0.015154 -0.004447 0.000000 0.000000 0.000000
# 3 -0.001358 -0.004447 0.012168 0.000000 0.000000 0.000000
# 4 0.000000 0.000000 0.000000 0.047470 0.000000 0.000000
# 5 0.000000 0.000000 0.000000 0.000000 0.026168 0.000000
# 6 0.000000 0.000000 0.000000 0.000000 0.000000 0.035116
#
#
# Mechanical properties :
#
#
# Convention : Reuss Voigt Hill
#
# Bulk Modulus (GPa) = 54.38136 56.17229 55.27683
# Shear Modulus (GPa) = 29.84092 32.40026 31.12059
#
# Velocity S-wave (km/s) = 3.42189 3.56561 3.49449
# Velocity P-wave (km/s) = 6.07875 6.24444 6.16215
#
# Compressibility (1/GPa) = 0.01838865
#
# Stress axis : x y z
#
# Youngs Moduli (GPa) = 121.82475 65.98814 82.18481
#
# Poissons Ratio (x) = 0.18252 0.11157
# Poissons Ratio (y) = 0.33696 0.36551
# Poissons Ratio (z) = 0.16538 0.29348
#
# Static dielectric constant tensor:
#      x y z
#    x 2.187600 0.000000 0.000000 
#    y 0.000000 1.995150 0.000000 
#    z 0.000000 0.000000 2.500290 
# 
# From -- ./inp_files/16199.got.cif
#   From: 2010.05.17/outbox.cif.g08.bks.cpg/sg60_9_cif.got.tgz:16199.got - 2010.06.03 14:59:27.
