data_PCOD9458479
_publ_section_title
;
Structure prediction by ZEFSAII (Michael W. Deem and Ramdas Pophale) SiO2 
 PCOD9458479
Probable space group: P B C N
;
_chemical_formula_sum "Si O2"
_cell_formula_units_Z 32
_cell_length_a 17.420143
_cell_length_b 16.144197
_cell_length_c 5.047859
_cell_angle_alpha 90.000000
_cell_angle_beta 90.000000
_cell_angle_gamma 90.000000
_cell_volume 1419.630690
_symmetry_space_group_name_H-M "P B C N"
_symmetry_group_IT_number 60
_symmetry_cell_setting 'orthorhombic'
loop_
_space_group_symop_operation_xyz
x,y,z
1/2-x,1/2-y,1/2+z
1/2+x,1/2-y,-z
-x,y,1/2-z
-x,-y,-z
1/2+x,1/2+y,1/2-z
1/2-x,1/2+y,z
x,-y,1/2+z
loop_
_atom_site_type_symbol
_atom_site_label
_atom_site_fract_x
_atom_site_fract_y
_atom_site_fract_z
Si Si1 0.500000 0.840275 0.750000
Si Si2 0.570439 0.689582 0.447499
Si Si3 0.761918 0.804633 0.883260
Si Si4 0.000000 0.059113 0.750000
Si Si5 0.136074 0.444090 0.512244
O O1 0.551796 0.779725 0.567783
O O2 0.557416 0.895352 0.924289
O O3 0.500000 0.671927 0.250000
O O4 0.650503 0.678296 0.301759
O O5 0.568188 0.623570 0.687269
O O6 0.729695 0.744542 0.658437
O O7 0.706751 0.882502 0.927665
O O8 0.000000 0.000000 0.500000
O O9 0.139007 0.478866 0.215599
#
# Coordination Sequence:
#
# PCOD9458479 Si02
#       5
#     4   8   8   4   8
#     4  11  24  46  72 109 146 188 248 293 364 442
#     4  11  25  44  79 104 139 200 249 295 370 443
#     4  12  26  48  74 103 147 191 245 296 357 444
#     4  11  24  44  64 103 142 176 238 305 360 418
#     4  12  27  47  72 109 147 190 235 304 372 426
#
# _framework density 22.541076
#
# number of rings (size 3 to 8) (size 9 to 14) (size 15 to 20)
#    0.000    0.500    3.750    3.750    7.000    2.000 
#    0.000    0.000    0.000    0.000    0.000    0.000 
#    0.000    0.000    0.000    0.000    0.000    0.000 
#
# Total GULP energy -179056.604845 kJ/mol
# GULP energy per Si atom -5595.518901 kJ/mol
# Density = 2.248977 g / cm^3
# Si number density = 22.541076 Si / 1000 Ang^3
#
#
#
# Elastic Constant Matrix: (Units=GPa)
#
#
# Indices 1 2 3 4 5 6 
#
# 1 136.4369 23.3618 -11.8884 0.0000 0.0000 0.0000
# 2 23.3618 93.1518 10.4645 0.0000 0.0000 0.0000
# 3 -11.8884 10.4645 68.9186 0.0000 0.0000 0.0000
# 4 0.0000 0.0000 0.0000 6.1820 0.0000 0.0000
# 5 0.0000 0.0000 0.0000 0.0000 34.7426 0.0000
# 6 0.0000 0.0000 0.0000 0.0000 0.0000 20.4791
#
#
#
# Elastic Compliance Matrix: (Units=1/GPa)
#
#
# Indices 1 2 3 4 5 6 
#
# 1 0.007845 -0.002156 0.001681 0.000000 0.000000 0.000000
# 2 -0.002156 0.011514 -0.002120 0.000000 0.000000 0.000000
# 3 0.001681 -0.002120 0.015122 0.000000 0.000000 0.000000
# 4 0.000000 0.000000 0.000000 0.161761 0.000000 0.000000
# 5 0.000000 0.000000 0.000000 0.000000 0.028783 0.000000
# 6 0.000000 0.000000 0.000000 0.000000 0.000000 0.048830
#
#
# Mechanical properties :
#
#
# Convention : Reuss Voigt Hill
#
# Bulk Modulus (GPa) = 34.14230 38.04257 36.09244
# Shear Modulus (GPa) = 17.31244 30.71870 24.01557
#
# Velocity S-wave (km/s) = 2.77436 3.69560 3.26761
# Velocity P-wave (km/s) = 5.04404 5.92652 5.50300
#
# Compressibility (1/GPa) = 0.02928918
#
# Stress axis : x y z
#
# Youngs Moduli (GPa) = 127.46887 86.84976 66.13004
#
# Poissons Ratio (x) = 0.18727 -0.11114
# Poissons Ratio (y) = 0.27486 0.14021
# Poissons Ratio (z) = -0.21423 0.18414
#
# Static dielectric constant tensor:
#      x y z
#    x 1.908340 0.000000 0.000000 
#    y 0.000000 1.830580 0.000000 
#    z 0.000000 0.000000 1.892290 
# 
# From -- ./inp_files/1564.got.cif
#   From: 2010.05.17/outbox.cif.g08.bks.cpg/sg60_1_cif.got.tgz:1564.got - 2010.06.03 14:59:27.
