data_PCOD9458194
_publ_section_title
;
Structure prediction by ZEFSAII (Michael W. Deem and Ramdas Pophale) SiO2 
 PCOD9458194
Probable space group: P B C N
;
_chemical_formula_sum "Si O2"
_cell_formula_units_Z 56
_cell_length_a 5.323620
_cell_length_b 22.478980
_cell_length_c 22.257643
_cell_angle_alpha 90.000000
_cell_angle_beta 90.000000
_cell_angle_gamma 90.000000
_cell_volume 2663.562066
_symmetry_space_group_name_H-M "P B C N"
_symmetry_group_IT_number 60
_symmetry_cell_setting 'orthorhombic'
loop_
_space_group_symop_operation_xyz
x,y,z
1/2-x,1/2-y,1/2+z
1/2+x,1/2-y,-z
-x,y,1/2-z
-x,-y,-z
1/2+x,1/2+y,1/2-z
1/2-x,1/2+y,z
x,-y,1/2+z
loop_
_atom_site_type_symbol
_atom_site_label
_atom_site_fract_x
_atom_site_fract_y
_atom_site_fract_z
Si Si1 0.939705 0.115454 0.562233
Si Si2 0.741753 0.162817 0.789687
Si Si3 0.743115 0.723706 0.916992
Si Si4 0.802417 0.448646 0.517867
Si Si5 0.163207 0.477935 0.189800
Si Si6 0.833111 0.990449 0.129224
Si Si7 0.439794 0.837828 0.523759
O O1 0.995431 0.184112 0.571677
O O2 0.187694 0.079753 0.542868
O O3 0.830331 0.081013 0.618518
O O4 0.754093 0.116720 0.506776
O O5 0.500000 0.176036 0.750000
O O6 0.708730 0.204222 0.848733
O O7 0.711988 0.093415 0.809617
O O8 0.000000 0.169246 0.750000
O O9 0.685002 0.791862 0.930925
O O10 0.934236 0.699852 0.968742
O O11 0.615873 0.480122 0.564707
O O12 0.000000 0.500000 0.500000
O O13 0.872944 0.386209 0.551189
O O14 0.441602 0.503555 0.175576
O O15 0.000000 0.489343 0.250000
O O16 0.957802 0.502803 0.143092
#
# Coordination Sequence:
#
# PCOD9458194 Si02
#       7
#     8   8   8   8   8   8   8
#     4  11  22  37  61  93 131 167 204 260 329 404
#     4  11  24  40  64  94 131 170 216 274 329 389
#     4  11  23  39  64  97 134 168 219 270 342 396
#     4  11  24  38  58  95 132 170 214 250 325 409
#     4  11  23  38  60  93 123 160 218 273 328 375
#     4  12  22  38  63  89 132 170 202 267 325 392
#     4  11  23  39  62  97 133 175 210 275 333 409
#
# _framework density 21.024478999999999
#
# number of rings (size 3 to 8) (size 9 to 14) (size 15 to 20)
#    0.000    0.857    4.286    4.286    4.000    0.000 
#    0.000    0.000    0.000    0.857    0.000    0.000 
#    0.000    0.000    0.000    0.000    0.000    0.000 
#
# Total GULP energy -311812.501159 kJ/mol
# GULP energy per Si atom -5568.080378 kJ/mol
# Density = 2.097663 g / cm^3
# Si number density = 21.024479 Si / 1000 Ang^3
#
#
#
# Elastic Constant Matrix: (Units=GPa)
#
#
# Indices 1 2 3 4 5 6 
#
# 1 91.0825 23.3294 24.2661 0.0000 0.0000 0.0000
# 2 23.3294 73.9153 17.1933 0.0000 0.0000 0.0000
# 3 24.2661 17.1933 87.6228 0.0000 0.0000 0.0000
# 4 0.0000 0.0000 0.0000 28.5364 0.0000 0.0000
# 5 0.0000 0.0000 0.0000 0.0000 32.2387 0.0000
# 6 0.0000 0.0000 0.0000 0.0000 0.0000 31.9848
#
#
#
# Elastic Compliance Matrix: (Units=1/GPa)
#
#
# Indices 1 2 3 4 5 6 
#
# 1 0.012583 -0.003312 -0.002835 0.000000 0.000000 0.000000
# 2 -0.003312 0.015048 -0.002035 0.000000 0.000000 0.000000
# 3 -0.002835 -0.002035 0.012597 0.000000 0.000000 0.000000
# 4 0.000000 0.000000 0.000000 0.035043 0.000000 0.000000
# 5 0.000000 0.000000 0.000000 0.000000 0.031019 0.000000
# 6 0.000000 0.000000 0.000000 0.000000 0.000000 0.031265
#
#
# Mechanical properties :
#
#
# Convention : Reuss Voigt Hill
#
# Bulk Modulus (GPa) = 41.90578 42.46648 42.18613
# Shear Modulus (GPa) = 30.88849 31.07409 30.98129
#
# Velocity S-wave (km/s) = 3.83713 3.84864 3.84289
# Velocity P-wave (km/s) = 6.29338 6.32391 6.30866
#
# Compressibility (1/GPa) = 0.02386305
#
# Stress axis : x y z
#
# Youngs Moduli (GPa) = 79.47486 66.45485 79.38401
#
# Poissons Ratio (x) = 0.22010 0.22503
# Poissons Ratio (y) = 0.26322 0.16158
# Poissons Ratio (z) = 0.22529 0.13527
#
# Static dielectric constant tensor:
#      x y z
#    x 1.925830 0.000000 0.000000 
#    y 0.000000 1.724520 0.000000 
#    z 0.000000 0.000000 2.014570 
# 
# From -- ./inp_files/21726.got.cif
#   From: 2010.05.17/outbox.cif.g08.bks.cpg/sg60_11_cif.got.tgz:21726.got - 2010.06.03 14:59:27.
