data_PCOD9458699
_publ_section_title
;
Structure prediction by ZEFSAII (Michael W. Deem and Ramdas Pophale) SiO2 
 PCOD9458699
Probable space group: P B C N
;
_chemical_formula_sum "Si O2"
_cell_formula_units_Z 40
_cell_length_a 8.403238
_cell_length_b 18.400577
_cell_length_c 11.560621
_cell_angle_alpha 90.000000
_cell_angle_beta 90.000000
_cell_angle_gamma 90.000000
_cell_volume 1787.554408
_symmetry_space_group_name_H-M "P B C N"
_symmetry_group_IT_number 60
_symmetry_cell_setting 'orthorhombic'
loop_
_space_group_symop_operation_xyz
x,y,z
1/2-x,1/2-y,1/2+z
1/2+x,1/2-y,-z
-x,y,1/2-z
-x,-y,-z
1/2+x,1/2+y,1/2-z
1/2-x,1/2+y,z
x,-y,1/2+z
loop_
_atom_site_type_symbol
_atom_site_label
_atom_site_fract_x
_atom_site_fract_y
_atom_site_fract_z
Si Si1 0.897322 0.574915 0.972897
Si Si2 0.593498 0.536155 0.105587
Si Si3 0.341400 0.804511 0.473207
Si Si4 0.542507 0.687566 0.373525
Si Si5 0.183835 0.892083 0.260249
O O1 0.804465 0.592650 0.849133
O O2 0.015579 0.640496 0.998043
O O3 0.754619 0.572113 0.062410
O O4 0.000000 0.500000 0.000000
O O5 0.478421 0.601779 0.137136
O O6 0.649233 0.472838 0.190284
O O7 0.500000 0.500000 0.000000
O O8 0.415302 0.725361 0.456142
O O9 0.214846 0.799506 0.575318
O O10 0.262499 0.840871 0.358272
O O11 0.500000 0.721108 0.250000
O O12 0.000000 0.863482 0.250000
#
# Coordination Sequence:
#
# PCOD9458699 Si02
#       5
#     8   8   8   8   8
#     4  12  24  42  69 107 146 191 246 301 367 450
#     4  12  23  44  71 109 144 191 246 314 365 451
#     4  12  27  49  70 108 147 196 249 306 380 461
#     4  12  27  48  75 105 151 196 252 315 380 456
#     4  12  24  43  76 101 148 196 242 305 383 441
#
# _framework density 22.376942
#
# number of rings (size 3 to 8) (size 9 to 14) (size 15 to 20)
#    0.000    0.000    6.000    3.600    2.800    1.600 
#    0.000    2.000    0.000    0.000    0.000    0.000 
#    0.000    0.000    0.000    0.000    0.000    0.000 
#
# Total GULP energy -223230.920563 kJ/mol
# GULP energy per Si atom -5580.773014 kJ/mol
# Density = 2.232601 g / cm^3
# Si number density = 22.376942 Si / 1000 Ang^3
#
#
#
# Elastic Constant Matrix: (Units=GPa)
#
#
# Indices 1 2 3 4 5 6 
#
# 1 134.4941 9.1302 47.7696 0.0000 0.0000 0.0000
# 2 9.1302 80.0522 2.2468 0.0000 0.0000 0.0000
# 3 47.7696 2.2468 81.4640 0.0000 0.0000 0.0000
# 4 0.0000 0.0000 0.0000 -28.3496 0.0000 0.0000
# 5 0.0000 0.0000 0.0000 0.0000 48.1138 0.0000
# 6 0.0000 0.0000 0.0000 0.0000 0.0000 56.0118
#
#
#
# Elastic Compliance Matrix: (Units=1/GPa)
#
#
# Indices 1 2 3 4 5 6 
#
# 1 0.009459 -0.000924 -0.005521 0.000000 0.000000 0.000000
# 2 -0.000924 0.012592 0.000194 0.000000 0.000000 0.000000
# 3 -0.005521 0.000194 0.015508 0.000000 0.000000 0.000000
# 4 0.000000 0.000000 0.000000 -0.035274 0.000000 0.000000
# 5 0.000000 0.000000 0.000000 0.000000 0.020784 0.000000
# 6 0.000000 0.000000 0.000000 0.000000 0.000000 0.017853
#
#
# Mechanical properties :
#
#
# Convention : Reuss Voigt Hill
#
# Bulk Modulus (GPa) = 39.90875 46.03370 42.97123
# Shear Modulus (GPa) = 80.93832 30.94612 55.94222
#
# Velocity S-wave (km/s) = 6.02071 3.72283 5.00542
# Velocity P-wave (km/s) = 8.13667 6.25267 7.25608
#
# Compressibility (1/GPa) = 0.02505716
#
# Stress axis : x y z
#
# Youngs Moduli (GPa) = 105.71950 79.41698 64.48470
#
# Poissons Ratio (x) = 0.07337 0.35603
# Poissons Ratio (y) = 0.09767 -0.01254
# Poissons Ratio (z) = 0.58370 -0.01544
#
# Static dielectric constant tensor:
#      x y z
#    x 1.785680 0.000000 0.000000 
#    y 0.000000 1.853350 0.000000 
#    z 0.000000 0.000000 3.109100 
# 
# From -- ./inp_files/9747.got.cif
#   From: 2010.05.17/outbox.cif.g08.bks.cpg/sg60_5_cif.got.tgz:9747.got - 2010.06.03 14:59:27.
