data_PCOD9458203
_publ_section_title
;
Structure prediction by ZEFSAII (Michael W. Deem and Ramdas Pophale) SiO2 
 PCOD9458203
Probable space group: P B C N
;
_chemical_formula_sum "Si O2"
_cell_formula_units_Z 56
_cell_length_a 19.760065
_cell_length_b 16.689555
_cell_length_c 7.901017
_cell_angle_alpha 90.000000
_cell_angle_beta 90.000000
_cell_angle_gamma 90.000000
_cell_volume 2605.650257
_symmetry_space_group_name_H-M "P B C N"
_symmetry_group_IT_number 60
_symmetry_cell_setting 'orthorhombic'
loop_
_space_group_symop_operation_xyz
x,y,z
1/2-x,1/2-y,1/2+z
1/2+x,1/2-y,-z
-x,y,1/2-z
-x,-y,-z
1/2+x,1/2+y,1/2-z
1/2-x,1/2+y,z
x,-y,1/2+z
loop_
_atom_site_type_symbol
_atom_site_label
_atom_site_fract_x
_atom_site_fract_y
_atom_site_fract_z
Si Si1 0.848739 0.115909 0.450737
Si Si2 0.282708 0.854357 0.371147
Si Si3 0.919281 0.207831 0.747594
Si Si4 0.135861 0.520085 0.015804
Si Si5 0.352088 0.311751 0.881382
Si Si6 0.282097 0.550827 0.564553
Si Si7 0.924445 0.388748 0.676147
O O1 0.770685 0.147022 0.473063
O O2 0.887815 0.141889 0.621502
O O3 0.885833 0.159681 0.293919
O O4 0.836678 0.020801 0.421062
O O5 0.352661 0.904709 0.390414
O O6 0.306958 0.765137 0.340502
O O7 0.238137 0.897806 0.228435
O O8 0.902279 0.296245 0.670158
O O9 0.000000 0.199678 0.750000
O O10 0.892826 0.203578 0.942635
O O11 0.210847 0.485290 0.010657
O O12 0.121054 0.563150 0.190955
O O13 0.083917 0.447816 0.983169
O O14 0.306097 0.387586 0.925198
O O15 0.000000 0.388515 0.750000
#
# Coordination Sequence:
#
# PCOD9458203 Si02
#       7
#     8   8   8   8   8   8   8
#     4  11  25  42  70 102 138 179 230 291 353 412
#     4  11  22  40  66 103 137 173 220 285 353 420
#     4  11  27  49  69  98 144 189 243 296 340 422
#     4  11  22  38  64  96 131 178 221 280 354 418
#     4  12  25  41  72 102 136 182 230 282 360 420
#     4  11  24  42  68 105 142 167 226 295 355 424
#     4  11  24  42  63  93 137 185 234 284 338 421
#
# _framework density 21.491757
#
# number of rings (size 3 to 8) (size 9 to 14) (size 15 to 20)
#    0.000    0.857    4.286    3.000    6.000    0.571 
#    0.000    0.714    0.000    0.000    0.000    0.000 
#    0.000    0.000    0.000    0.000    0.000    0.000 
#
# Total GULP energy -312254.817227 kJ/mol
# GULP energy per Si atom -5575.978879 kJ/mol
# Density = 2.144284 g / cm^3
# Si number density = 21.491757 Si / 1000 Ang^3
#
#
#
# Elastic Constant Matrix: (Units=GPa)
#
#
# Indices 1 2 3 4 5 6 
#
# 1 43.8353 33.0584 6.3805 0.0000 0.0000 0.0000
# 2 33.0584 151.1280 47.9677 0.0000 0.0000 0.0000
# 3 6.3805 47.9677 99.6298 0.0000 0.0000 0.0000
# 4 0.0000 0.0000 0.0000 34.2977 0.0000 0.0000
# 5 0.0000 0.0000 0.0000 0.0000 14.5104 0.0000
# 6 0.0000 0.0000 0.0000 0.0000 0.0000 24.8361
#
#
#
# Elastic Compliance Matrix: (Units=1/GPa)
#
#
# Indices 1 2 3 4 5 6 
#
# 1 0.027470 -0.006434 0.001338 0.000000 0.000000 0.000000
# 2 -0.006434 0.009317 -0.004074 0.000000 0.000000 0.000000
# 3 0.001338 -0.004074 0.011913 0.000000 0.000000 0.000000
# 4 0.000000 0.000000 0.000000 0.029157 0.000000 0.000000
# 5 0.000000 0.000000 0.000000 0.000000 0.068916 0.000000
# 6 0.000000 0.000000 0.000000 0.000000 0.000000 0.040264
#
#
# Mechanical properties :
#
#
# Convention : Reuss Voigt Hill
#
# Bulk Modulus (GPa) = 32.93644 52.15628 42.54636
# Shear Modulus (GPa) = 23.20237 28.54126 25.87181
#
# Velocity S-wave (km/s) = 3.28928 3.64814 3.47335
# Velocity P-wave (km/s) = 5.45750 6.48583 5.99376
#
# Compressibility (1/GPa) = 0.03036150
#
# Stress axis : x y z
#
# Youngs Moduli (GPa) = 36.40365 107.32767 83.94296
#
# Poissons Ratio (x) = 0.69051 -0.11234
# Poissons Ratio (y) = 0.23421 0.34197
# Poissons Ratio (z) = -0.04872 0.43724
#
# Static dielectric constant tensor:
#      x y z
#    x 1.760930 0.000000 0.000000 
#    y 0.000000 1.852960 0.000000 
#    z 0.000000 0.000000 2.072320 
# 
# From -- ./inp_files/7388.got.cif
#   From: 2010.05.17/outbox.cif.g08.bks.cpg/sg60_4_cif.got.tgz:7388.got - 2010.06.03 14:59:27.
