data_PCOD9458650
_publ_section_title
;
Structure prediction by ZEFSAII (Michael W. Deem and Ramdas Pophale) SiO2 
 PCOD9458650
Probable space group: P B C N
;
_chemical_formula_sum "Si O2"
_cell_formula_units_Z 32
_cell_length_a 9.900322
_cell_length_b 13.916927
_cell_length_c 8.998030
_cell_angle_alpha 90.000000
_cell_angle_beta 90.000000
_cell_angle_gamma 90.000000
_cell_volume 1239.767096
_symmetry_space_group_name_H-M "P B C N"
_symmetry_group_IT_number 60
_symmetry_cell_setting 'orthorhombic'
loop_
_space_group_symop_operation_xyz
x,y,z
1/2-x,1/2-y,1/2+z
1/2+x,1/2-y,-z
-x,y,1/2-z
-x,-y,-z
1/2+x,1/2+y,1/2-z
1/2-x,1/2+y,z
x,-y,1/2+z
loop_
_atom_site_type_symbol
_atom_site_label
_atom_site_fract_x
_atom_site_fract_y
_atom_site_fract_z
Si Si1 0.859225 0.654494 0.666597
Si Si2 0.719420 0.771837 0.464941
Si Si3 0.913504 0.922741 0.898768
Si Si4 0.346601 0.940498 0.806145
O O1 0.854180 0.725402 0.530223
O O2 0.834697 0.545852 0.622569
O O3 0.000000 0.656778 0.750000
O O4 0.762223 0.693607 0.796737
O O5 0.619387 0.679602 0.475514
O O6 0.681851 0.860016 0.570752
O O7 0.766977 0.946152 0.823028
O O8 0.000000 0.905829 0.750000
O O9 0.000000 0.000000 0.000000
O O10 0.500000 0.929003 0.750000
#
# Coordination Sequence:
#
# PCOD9458650 Si02
#       4
#     8   8   8   8
#     4  11  28  49  79 115 162 214 280 344 422 519
#     4  12  27  49  81 117 167 212 283 351 430 507
#     4  12  29  54  85 125 170 224 291 358 437 521
#     4  11  29  49  79 119 162 219 279 350 432 514
#
# _framework density 25.811299999999999
#
# number of rings (size 3 to 8) (size 9 to 14) (size 15 to 20)
#    0.000    0.500    2.500    2.250   10.500    5.000 
#    0.000    0.000    0.000    0.000    0.000    0.000 
#    0.000    0.000    0.000    0.000    0.000    0.000 
#
# Total GULP energy -179130.197115 kJ/mol
# GULP energy per Si atom -5597.818660 kJ/mol
# Density = 2.575255 g / cm^3
# Si number density = 25.811300 Si / 1000 Ang^3
#
#
#
# Elastic Constant Matrix: (Units=GPa)
#
#
# Indices 1 2 3 4 5 6 
#
# 1 131.1503 33.0164 38.2607 0.0000 0.0000 0.0000
# 2 33.0164 142.6479 20.6502 0.0000 0.0000 0.0000
# 3 38.2607 20.6502 87.9706 0.0000 0.0000 0.0000
# 4 0.0000 0.0000 0.0000 49.9365 0.0000 0.0000
# 5 0.0000 0.0000 0.0000 0.0000 24.8588 0.0000
# 6 0.0000 0.0000 0.0000 0.0000 0.0000 44.4061
#
#
#
# Elastic Compliance Matrix: (Units=1/GPa)
#
#
# Indices 1 2 3 4 5 6 
#
# 1 0.009065 -0.001581 -0.003571 0.000000 0.000000 0.000000
# 2 -0.001581 0.007533 -0.001081 0.000000 0.000000 0.000000
# 3 -0.003571 -0.001081 0.013174 0.000000 0.000000 0.000000
# 4 0.000000 0.000000 0.000000 0.020025 0.000000 0.000000
# 5 0.000000 0.000000 0.000000 0.000000 0.040227 0.000000
# 6 0.000000 0.000000 0.000000 0.000000 0.000000 0.022519
#
#
# Mechanical properties :
#
#
# Convention : Reuss Voigt Hill
#
# Bulk Modulus (GPa) = 57.78418 60.62482 59.20450
# Shear Modulus (GPa) = 38.23262 41.82971 40.03117
#
# Velocity S-wave (km/s) = 3.85286 4.03003 3.94244
# Velocity P-wave (km/s) = 6.49834 6.72262 6.61143
#
# Compressibility (1/GPa) = 0.01730577
#
# Stress axis : x y z
#
# Youngs Moduli (GPa) = 110.31745 132.75559 75.90500
#
# Poissons Ratio (x) = 0.20990 0.27108
# Poissons Ratio (y) = 0.17442 0.08202
# Poissons Ratio (z) = 0.39398 0.14345
#
# Static dielectric constant tensor:
#      x y z
#    x 2.155020 0.000000 0.000000 
#    y 0.000000 2.023180 0.000000 
#    z 0.000000 0.000000 1.989780 
# 
# From -- ./inp_files/4596.got.cif
#   From: 2010.05.17/outbox.cif.g08.bks.cpg/sg60_3_cif.got.tgz:4596.got - 2010.06.03 14:59:27.
