data_PCOD9458726
_publ_section_title
;
Structure prediction by ZEFSAII (Michael W. Deem and Ramdas Pophale) SiO2 
 PCOD9458726
Probable space group: P B C N
;
_chemical_formula_sum "Si O2"
_cell_formula_units_Z 32
_cell_length_a 7.288136
_cell_length_b 30.169966
_cell_length_c 6.787188
_cell_angle_alpha 90.000000
_cell_angle_beta 90.000000
_cell_angle_gamma 90.000000
_cell_volume 1492.386006
_symmetry_space_group_name_H-M "P B C N"
_symmetry_group_IT_number 60
_symmetry_cell_setting 'orthorhombic'
loop_
_space_group_symop_operation_xyz
x,y,z
1/2-x,1/2-y,1/2+z
1/2+x,1/2-y,-z
-x,y,1/2-z
-x,-y,-z
1/2+x,1/2+y,1/2-z
1/2-x,1/2+y,z
x,-y,1/2+z
loop_
_atom_site_type_symbol
_atom_site_label
_atom_site_fract_x
_atom_site_fract_y
_atom_site_fract_z
Si Si1 0.000000 0.459418 0.750000
Si Si2 0.846725 0.691134 0.085158
Si Si3 0.141086 0.010493 0.628868
Si Si4 0.334076 0.097798 0.594421
Si Si5 0.500000 0.743890 0.250000
O O1 0.157381 0.487377 0.639384
O O2 0.907722 0.426713 0.597070
O O3 0.672230 0.714102 0.185777
O O4 0.000000 0.679814 0.250000
O O5 0.783731 0.647497 0.966201
O O6 0.938024 0.725169 0.931224
O O7 0.175224 0.063502 0.652857
O O8 0.093026 0.001889 0.378349
O O9 0.500000 0.099370 0.750000
#
# Coordination Sequence:
#
# PCOD9458726 Si02
#       5
#     4   8   8   8   4
#     4  12  24  45  70  96 144 196 236 295 348 408
#     4  12  26  48  77 105 144 183 239 299 365 440
#     4  12  24  43  68  97 140 191 242 286 347 414
#     4  12  25  45  71 103 142 190 239 292 351 419
#     4  12  26  49  78 108 138 190 232 295 380 444
#
# _framework density 21.442174999999999
#
# number of rings (size 3 to 8) (size 9 to 14) (size 15 to 20)
#    0.000    0.000    8.750    2.250    0.000    2.000 
#    9.000    0.000    0.000    0.000    0.000    0.000 
#    0.000    0.000    0.000    0.000    0.000    0.000 
#
# Total GULP energy -178671.166755 kJ/mol
# GULP energy per Si atom -5583.473961 kJ/mol
# Density = 2.139337 g / cm^3
# Si number density = 21.442175 Si / 1000 Ang^3
#
#
#
# Elastic Constant Matrix: (Units=GPa)
#
#
# Indices 1 2 3 4 5 6 
#
# 1 119.9121 44.5083 45.8932 0.0000 0.0000 0.0000
# 2 44.5083 148.2872 28.3984 0.0000 0.0000 0.0000
# 3 45.8932 28.3984 110.3256 0.0000 0.0000 0.0000
# 4 0.0000 0.0000 0.0000 48.5503 0.0000 0.0000
# 5 0.0000 0.0000 0.0000 0.0000 69.3984 0.0000
# 6 0.0000 0.0000 0.0000 0.0000 0.0000 53.6753
#
#
#
# Elastic Compliance Matrix: (Units=1/GPa)
#
#
# Indices 1 2 3 4 5 6 
#
# 1 0.010725 -0.002487 -0.003821 0.000000 0.000000 0.000000
# 2 -0.002487 0.007670 -0.000940 0.000000 0.000000 0.000000
# 3 -0.003821 -0.000940 0.010895 0.000000 0.000000 0.000000
# 4 0.000000 0.000000 0.000000 0.020597 0.000000 0.000000
# 5 0.000000 0.000000 0.000000 0.000000 0.014410 0.000000
# 6 0.000000 0.000000 0.000000 0.000000 0.000000 0.018631
#
#
# Mechanical properties :
#
#
# Convention : Reuss Voigt Hill
#
# Bulk Modulus (GPa) = 67.59298 68.45830 68.02564
# Shear Modulus (GPa) = 48.84912 51.63980 50.24446
#
# Velocity S-wave (km/s) = 4.77821 4.91280 4.84597
# Velocity P-wave (km/s) = 7.87613 8.01105 7.94388
#
# Compressibility (1/GPa) = 0.01479444
#
# Stress axis : x y z
#
# Youngs Moduli (GPa) = 93.23894 130.37473 91.78115
#
# Poissons Ratio (x) = 0.32429 0.35071
# Poissons Ratio (y) = 0.23192 0.08624
# Poissons Ratio (z) = 0.35628 0.12251
#
# Static dielectric constant tensor:
#      x y z
#    x 1.782820 0.000000 0.000000 
#    y 0.000000 1.744540 0.000000 
#    z 0.000000 0.000000 1.944280 
# 
# From -- ./inp_files/401.got.cif
#   From: 2010.05.17/outbox.cif.g08.bks.cpg/sg60_1_cif.got.tgz:401.got - 2010.06.03 14:59:27.
