data_PCOD9458202
_publ_section_title
;
Structure prediction by ZEFSAII (Michael W. Deem and Ramdas Pophale) SiO2 
 PCOD9458202
Probable space group: P B C N
;
_chemical_formula_sum "Si O2"
_cell_formula_units_Z 48
_cell_length_a 5.281229
_cell_length_b 26.726435
_cell_length_c 14.579245
_cell_angle_alpha 90.000000
_cell_angle_beta 90.000000
_cell_angle_gamma 90.000000
_cell_volume 2057.837449
_symmetry_space_group_name_H-M "P B C N"
_symmetry_group_IT_number 60
_symmetry_cell_setting 'orthorhombic'
loop_
_space_group_symop_operation_xyz
x,y,z
1/2-x,1/2-y,1/2+z
1/2+x,1/2-y,-z
-x,y,1/2-z
-x,-y,-z
1/2+x,1/2+y,1/2-z
1/2-x,1/2+y,z
x,-y,1/2+z
loop_
_atom_site_type_symbol
_atom_site_label
_atom_site_fract_x
_atom_site_fract_y
_atom_site_fract_z
Si Si1 0.741147 0.446342 0.807541
Si Si2 0.280633 0.692641 0.975273
Si Si3 0.320267 0.660599 0.663740
Si Si4 0.863103 0.414812 0.008572
Si Si5 0.342297 0.554269 0.606728
Si Si6 0.487050 0.259723 0.649019
O O1 0.500000 0.427580 0.750000
O O2 0.783545 0.418067 0.903099
O O3 0.679291 0.503233 0.838301
O O4 0.000000 0.444832 0.750000
O O5 0.099501 0.644151 0.968855
O O6 0.316168 0.708917 0.079569
O O7 0.532266 0.669638 0.931141
O O8 0.222754 0.742361 0.914922
O O9 0.500000 0.670635 0.750000
O O10 0.261405 0.601963 0.668417
O O11 0.123128 0.704744 0.667329
O O12 0.626263 0.437018 0.067522
O O13 0.124617 0.443852 0.028414
O O14 0.500000 0.283462 0.750000
#
# Coordination Sequence:
#
# PCOD9458202 Si02
#       6
#     8   8   8   8   8   8
#     4  12  25  43  67 100 139 174 225 282 338 409
#     4  11  24  41  64  95 134 179 225 282 343 409
#     4  11  22  38  63  97 129 169 223 288 345 401
#     4  11  24  44  68  96 133 184 227 275 342 412
#     4  11  23  42  69  98 133 179 224 281 340 408
#     4  12  23  40  66  93 133 172 227 283 346 406
#
# _framework density 23.325455999999999
#
# number of rings (size 3 to 8) (size 9 to 14) (size 15 to 20)
#    0.000    0.667    5.000    3.500    0.000    2.667 
#    0.000    2.500    0.000    0.000    0.000    0.000 
#    0.000    0.000    0.000    0.000    0.000    0.000 
#
# Total GULP energy -268156.600554 kJ/mol
# GULP energy per Si atom -5586.595845 kJ/mol
# Density = 2.327237 g / cm^3
# Si number density = 23.325456 Si / 1000 Ang^3
#
#
#
# Elastic Constant Matrix: (Units=GPa)
#
#
# Indices 1 2 3 4 5 6 
#
# 1 67.1118 7.3097 30.0632 0.0000 0.0000 0.0000
# 2 7.3097 48.0512 -3.2468 0.0000 0.0000 0.0000
# 3 30.0632 -3.2468 119.8411 0.0000 0.0000 0.0000
# 4 0.0000 0.0000 0.0000 4.7568 0.0000 0.0000
# 5 0.0000 0.0000 0.0000 0.0000 37.5004 0.0000
# 6 0.0000 0.0000 0.0000 0.0000 0.0000 28.5973
#
#
#
# Elastic Compliance Matrix: (Units=1/GPa)
#
#
# Indices 1 2 3 4 5 6 
#
# 1 0.017184 -0.002911 -0.004390 0.000000 0.000000 0.000000
# 2 -0.002911 0.021342 0.001308 0.000000 0.000000 0.000000
# 3 -0.004390 0.001308 0.009481 0.000000 0.000000 0.000000
# 4 0.000000 0.000000 0.000000 0.210225 0.000000 0.000000
# 5 0.000000 0.000000 0.000000 0.000000 0.026666 0.000000
# 6 0.000000 0.000000 0.000000 0.000000 0.000000 0.034968
#
#
# Mechanical properties :
#
#
# Convention : Reuss Voigt Hill
#
# Bulk Modulus (GPa) = 27.75970 33.69515 30.72742
# Shear Modulus (GPa) = 14.54085 27.56276 21.05181
#
# Velocity S-wave (km/s) = 2.49949 3.44126 3.00746
# Velocity P-wave (km/s) = 4.50075 5.50152 5.02611
#
# Compressibility (1/GPa) = 0.03602344
#
# Stress axis : x y z
#
# Youngs Moduli (GPa) = 58.19402 46.85529 105.47406
#
# Poissons Ratio (x) = 0.13638 0.46299
# Poissons Ratio (y) = 0.16938 -0.13800
# Poissons Ratio (z) = 0.25545 -0.06131
#
# Static dielectric constant tensor:
#      x y z
#    x 2.087620 0.000000 0.000000 
#    y 0.000000 1.866420 0.000000 
#    z 0.000000 0.000000 1.953700 
# 
# From -- ./inp_files/13947.got.cif
#   From: 2010.05.17/outbox.cif.g08.bks.cpg/sg60_7_cif.got.tgz:13947.got - 2010.06.03 14:59:27.
