data_PCOD9458283
_publ_section_title
;
Structure prediction by ZEFSAII (Michael W. Deem and Ramdas Pophale) SiO2 
 PCOD9458283
Probable space group: P B C N
;
_chemical_formula_sum "Si O2"
_cell_formula_units_Z 40
_cell_length_a 7.882774
_cell_length_b 13.649279
_cell_length_c 14.209332
_cell_angle_alpha 90.000000
_cell_angle_beta 90.000000
_cell_angle_gamma 90.000000
_cell_volume 1528.841448
_symmetry_space_group_name_H-M "P B C N"
_symmetry_group_IT_number 60
_symmetry_cell_setting 'orthorhombic'
loop_
_space_group_symop_operation_xyz
x,y,z
1/2-x,1/2-y,1/2+z
1/2+x,1/2-y,-z
-x,y,1/2-z
-x,-y,-z
1/2+x,1/2+y,1/2-z
1/2-x,1/2+y,z
x,-y,1/2+z
loop_
_atom_site_type_symbol
_atom_site_label
_atom_site_fract_x
_atom_site_fract_y
_atom_site_fract_z
Si Si1 0.500000 0.641076 0.750000
Si Si2 0.726893 0.490530 0.131545
Si Si3 0.000000 0.441719 0.750000
Si Si4 0.805502 0.447479 0.930631
Si Si5 0.958654 0.177965 0.069740
Si Si6 0.764451 0.323249 0.387285
O O1 0.429891 0.576543 0.837201
O O2 0.341291 0.698102 0.707416
O O3 0.846111 0.491268 0.219868
O O4 0.669612 0.604016 0.121540
O O5 0.835918 0.454748 0.042738
O O6 0.070415 0.400265 0.648607
O O7 0.623052 0.393629 0.936324
O O8 0.782788 0.561237 0.904445
O O9 0.052697 0.271411 0.113265
O O10 0.854897 0.209405 0.976338
#
# Coordination Sequence:
#
# PCOD9458283 Si02
#       6
#     4   8   4   8   8   8
#     4  12  20  49  81 106 148 202 256 321 389 466
#     4  11  22  44  76 106 148 197 255 315 389 466
#     4  12  24  39  75 112 140 200 262 293 383 468
#     4  11  23  47  74 105 149 201 247 319 384 462
#     4  11  24  46  75 110 149 200 249 317 392 450
#     4  11  24  46  77 110 147 196 256 319 385 465
#
# _framework density 26.163603999999999
#
# number of rings (size 3 to 8) (size 9 to 14) (size 15 to 20)
#    0.000    0.800    6.000    1.800    0.000    5.600 
#    0.000    9.000    0.000    0.000    0.000    0.000 
#    0.000    0.000    0.000    0.000    0.000    0.000 
#
# Total GULP energy -223197.840422 kJ/mol
# GULP energy per Si atom -5579.946011 kJ/mol
# Density = 2.610405 g / cm^3
# Si number density = 26.163604 Si / 1000 Ang^3
#
#
#
# Elastic Constant Matrix: (Units=GPa)
#
#
# Indices 1 2 3 4 5 6 
#
# 1 126.1455 22.5072 51.2113 0.0000 0.0000 0.0000
# 2 22.5072 112.9809 22.0137 0.0000 0.0000 0.0000
# 3 51.2113 22.0137 158.6134 0.0000 0.0000 0.0000
# 4 0.0000 0.0000 0.0000 15.8543 0.0000 0.0000
# 5 0.0000 0.0000 0.0000 0.0000 64.9874 0.0000
# 6 0.0000 0.0000 0.0000 0.0000 0.0000 16.1802
#
#
#
# Elastic Compliance Matrix: (Units=1/GPa)
#
#
# Indices 1 2 3 4 5 6 
#
# 1 0.009306 -0.001304 -0.002824 0.000000 0.000000 0.000000
# 2 -0.001304 0.009280 -0.000867 0.000000 0.000000 0.000000
# 3 -0.002824 -0.000867 0.007337 0.000000 0.000000 0.000000
# 4 0.000000 0.000000 0.000000 0.063074 0.000000 0.000000
# 5 0.000000 0.000000 0.000000 0.000000 0.015388 0.000000
# 6 0.000000 0.000000 0.000000 0.000000 0.000000 0.061804
#
#
# Mechanical properties :
#
#
# Convention : Reuss Voigt Hill
#
# Bulk Modulus (GPa) = 62.75998 65.46711 64.11355
# Shear Modulus (GPa) = 27.54993 39.53823 33.54408
#
# Velocity S-wave (km/s) = 3.24850 3.89162 3.58451
# Velocity P-wave (km/s) = 6.17332 6.72826 6.45676
#
# Compressibility (1/GPa) = 0.01593372
#
# Stress axis : x y z
#
# Youngs Moduli (GPa) = 107.45359 107.76208 136.30153
#
# Poissons Ratio (x) = 0.14049 0.38489
# Poissons Ratio (y) = 0.14009 0.11817
# Poissons Ratio (z) = 0.30343 0.09343
#
# Static dielectric constant tensor:
#      x y z
#    x 2.146900 0.000000 0.000000 
#    y 0.000000 2.108850 0.000000 
#    z 0.000000 0.000000 2.127940 
# 
# From -- ./inp_files/14701.got.cif
#   From: 2010.05.17/outbox.cif.g08.bks.cpg/sg60_8_cif.got.tgz:14701.got - 2010.06.03 14:59:27.
