data_PCOD9458636
_publ_section_title
;
Structure prediction by ZEFSAII (Michael W. Deem and Ramdas Pophale) SiO2 
 PCOD9458636
Probable space group: P B C N
;
_chemical_formula_sum "Si O2"
_cell_formula_units_Z 32
_cell_length_a 16.888578
_cell_length_b 7.459248
_cell_length_c 9.907631
_cell_angle_alpha 90.000000
_cell_angle_beta 90.000000
_cell_angle_gamma 90.000000
_cell_volume 1248.124631
_symmetry_space_group_name_H-M "P B C N"
_symmetry_group_IT_number 60
_symmetry_cell_setting 'orthorhombic'
loop_
_space_group_symop_operation_xyz
x,y,z
1/2-x,1/2-y,1/2+z
1/2+x,1/2-y,-z
-x,y,1/2-z
-x,-y,-z
1/2+x,1/2+y,1/2-z
1/2-x,1/2+y,z
x,-y,1/2+z
loop_
_atom_site_type_symbol
_atom_site_label
_atom_site_fract_x
_atom_site_fract_y
_atom_site_fract_z
Si Si1 0.824739 0.875117 0.622736
Si Si2 0.559251 0.002104 0.872866
Si Si3 0.997875 0.144466 0.111513
Si Si4 0.191983 0.794796 0.186255
O O1 0.909155 0.776026 0.605143
O O2 0.766362 0.777796 0.727377
O O3 0.793560 0.880946 0.465192
O O4 0.839760 0.062396 0.702064
O O5 0.500000 0.965840 0.750000
O O6 0.570676 0.217965 0.881205
O O7 0.633253 0.873217 0.846490
O O8 0.500000 0.000000 0.000000
O O9 0.000000 0.040019 0.250000
O O10 0.000000 0.000000 0.000000
#
# Coordination Sequence:
#
# PCOD9458636 Si02
#       4
#     8   8   8   8
#     4  12  28  52  83 125 174 230 291 367 451 533
#     4  11  27  51  82 118 162 225 290 362 440 528
#     4  11  26  49  85 121 164 220 292 357 439 527
#     4  12  29  53  83 124 179 231 295 370 452 538
#
# _framework density 25.638463999999999
#
# number of rings (size 3 to 8) (size 9 to 14) (size 15 to 20)
#    0.000    0.500    2.500    3.000   10.500    2.000 
#    0.000    0.000    0.000    0.000    0.000    0.000 
#    0.000    0.000    0.000    0.000    0.000    0.000 
#
# Total GULP energy -178156.372208 kJ/mol
# GULP energy per Si atom -5567.386631 kJ/mol
# Density = 2.558011 g / cm^3
# Si number density = 25.638464 Si / 1000 Ang^3
#
#
#
# Elastic Constant Matrix: (Units=GPa)
#
#
# Indices 1 2 3 4 5 6 
#
# 1 139.8399 81.5887 46.6684 0.0000 0.0000 0.0000
# 2 81.5887 151.9996 69.5714 0.0000 0.0000 0.0000
# 3 46.6684 69.5714 247.2049 0.0000 0.0000 0.0000
# 4 0.0000 0.0000 0.0000 55.8578 0.0000 0.0000
# 5 0.0000 0.0000 0.0000 0.0000 42.2534 0.0000
# 6 0.0000 0.0000 0.0000 0.0000 0.0000 46.0517
#
#
#
# Elastic Compliance Matrix: (Units=1/GPa)
#
#
# Indices 1 2 3 4 5 6 
#
# 1 0.010456 -0.005405 -0.000453 0.000000 0.000000 0.000000
# 2 -0.005405 0.010346 -0.001891 0.000000 0.000000 0.000000
# 3 -0.000453 -0.001891 0.004663 0.000000 0.000000 0.000000
# 4 0.000000 0.000000 0.000000 0.017903 0.000000 0.000000
# 5 0.000000 0.000000 0.000000 0.000000 0.023667 0.000000
# 6 0.000000 0.000000 0.000000 0.000000 0.000000 0.021715
#
#
# Mechanical properties :
#
#
# Convention : Reuss Voigt Hill
#
# Bulk Modulus (GPa) = 100.33700 103.85571 102.09636
# Shear Modulus (GPa) = 46.48187 51.58030 49.03109
#
# Velocity S-wave (km/s) = 4.26252 4.49021 4.37785
# Velocity P-wave (km/s) = 7.96529 8.21452 8.09086
#
# Compressibility (1/GPa) = 0.00996641
#
# Stress axis : x y z
#
# Youngs Moduli (GPa) = 95.64194 96.65673 214.45618
#
# Poissons Ratio (x) = 0.52244 0.09709
# Poissons Ratio (y) = 0.51695 0.40560
# Poissons Ratio (z) = 0.04330 0.18280
#
# Static dielectric constant tensor:
#      x y z
#    x 2.096250 0.000000 0.000000 
#    y 0.000000 0.656940 0.000000 
#    z 0.000000 0.000000 1.951440 
# 
# From -- ./inp_files/7118.got.cif
#   From: 2010.05.17/outbox.cif.g08.bks.cpg/sg60_4_cif.got.tgz:7118.got - 2010.06.03 14:59:27.
