data_PCOD9458695
_publ_section_title
;
Structure prediction by ZEFSAII (Michael W. Deem and Ramdas Pophale) SiO2 
 PCOD9458695
Probable space group: P B C N
;
_chemical_formula_sum "Si O2"
_cell_formula_units_Z 28
_cell_length_a 5.355649
_cell_length_b 22.678925
_cell_length_c 8.752476
_cell_angle_alpha 90.000000
_cell_angle_beta 90.000000
_cell_angle_gamma 90.000000
_cell_volume 1063.078903
_symmetry_space_group_name_H-M "P B C N"
_symmetry_group_IT_number 60
_symmetry_cell_setting 'orthorhombic'
loop_
_space_group_symop_operation_xyz
x,y,z
1/2-x,1/2-y,1/2+z
1/2+x,1/2-y,-z
-x,y,1/2-z
-x,-y,-z
1/2+x,1/2+y,1/2-z
1/2-x,1/2+y,z
x,-y,1/2+z
loop_
_atom_site_type_symbol
_atom_site_label
_atom_site_fract_x
_atom_site_fract_y
_atom_site_fract_z
Si Si1 0.946676 0.226411 0.576335
Si Si2 0.500000 0.097368 0.250000
Si Si3 0.890215 0.625353 0.583368
Si Si4 0.182966 0.991156 0.361357
O O1 0.688825 0.256208 0.520082
O O2 0.878016 0.157033 0.570373
O O3 0.000000 0.241776 0.750000
O O4 0.510136 0.133836 0.408658
O O5 0.275725 0.050570 0.280919
O O6 0.897092 0.554358 0.593409
O O7 0.000000 0.646257 0.750000
O O8 0.000000 0.955791 0.250000
O O9 0.000000 0.000000 0.500000
#
# Coordination Sequence:
#
# PCOD9458695 Si02
#       4
#     8   4   8   8
#     4  12  29  58  88 123 165 216 283 359 425 500
#     4  12  26  48  74 118 164 216 262 332 410 502
#     4  12  26  50  82 116 162 217 275 342 421 501
#     4  12  23  43  72 110 158 209 267 324 398 492
#
# _framework density 26.33859
#
# number of rings (size 3 to 8) (size 9 to 14) (size 15 to 20)
#    0.000    0.000    4.286    6.000    2.000    2.286 
#   10.286    0.000    0.000    0.000    0.000    0.000 
#    0.000    0.000    0.000    0.000    0.000    0.000 
#
# Total GULP energy -156414.640117 kJ/mol
# GULP energy per Si atom -5586.237147 kJ/mol
# Density = 2.627864 g / cm^3
# Si number density = 26.338590 Si / 1000 Ang^3
#
#
#
# Elastic Constant Matrix: (Units=GPa)
#
#
# Indices 1 2 3 4 5 6 
#
# 1 141.9818 40.8500 70.1874 0.0000 0.0000 0.0000
# 2 40.8500 105.8689 49.2516 0.0000 0.0000 0.0000
# 3 70.1874 49.2516 233.8343 0.0000 0.0000 0.0000
# 4 0.0000 0.0000 0.0000 28.1079 0.0000 0.0000
# 5 0.0000 0.0000 0.0000 0.0000 61.4333 0.0000
# 6 0.0000 0.0000 0.0000 0.0000 0.0000 35.6840
#
#
#
# Elastic Compliance Matrix: (Units=1/GPa)
#
#
# Indices 1 2 3 4 5 6 
#
# 1 0.008787 -0.002399 -0.002132 0.000000 0.000000 0.000000
# 2 -0.002399 0.011126 -0.001624 0.000000 0.000000 0.000000
# 3 -0.002132 -0.001624 0.005259 0.000000 0.000000 0.000000
# 4 0.000000 0.000000 0.000000 0.035577 0.000000 0.000000
# 5 0.000000 0.000000 0.000000 0.000000 0.016278 0.000000
# 6 0.000000 0.000000 0.000000 0.000000 0.000000 0.028024
#
#
# Mechanical properties :
#
#
# Convention : Reuss Voigt Hill
#
# Bulk Modulus (GPa) = 77.74088 89.14033 83.44061
# Shear Modulus (GPa) = 41.10218 46.47145 43.78682
#
# Velocity S-wave (km/s) = 3.95464 4.20502 4.08175
# Velocity P-wave (km/s) = 7.10157 7.58246 7.34595
#
# Compressibility (1/GPa) = 0.01286325
#
# Stress axis : x y z
#
# Youngs Moduli (GPa) = 113.79916 89.87581 190.16631
#
# Poissons Ratio (x) = 0.21558 0.40551
# Poissons Ratio (y) = 0.27296 0.30875
# Poissons Ratio (z) = 0.24267 0.14592
#
# Static dielectric constant tensor:
#      x y z
#    x 2.052070 0.000000 0.000000 
#    y 0.000000 2.078570 0.000000 
#    z 0.000000 0.000000 1.945290 
# 
# From -- ./inp_files/2983.got.cif
#   From: 2010.05.17/outbox.cif.g08.bks.cpg/sg60_2_cif.got.tgz:2983.got - 2010.06.03 14:59:27.
