data_PCOD9458357
_publ_section_title
;
Structure prediction by ZEFSAII (Michael W. Deem and Ramdas Pophale) SiO2 
 PCOD9458357
Probable space group: P B C N
;
_chemical_formula_sum "Si O2"
_cell_formula_units_Z 60
_cell_length_a 16.139944
_cell_length_b 16.935910
_cell_length_c 9.543266
_cell_angle_alpha 90.000000
_cell_angle_beta 90.000000
_cell_angle_gamma 90.000000
_cell_volume 2608.600600
_symmetry_space_group_name_H-M "P B C N"
_symmetry_group_IT_number 60
_symmetry_cell_setting 'orthorhombic'
loop_
_space_group_symop_operation_xyz
x,y,z
1/2-x,1/2-y,1/2+z
1/2+x,1/2-y,-z
-x,y,1/2-z
-x,-y,-z
1/2+x,1/2+y,1/2-z
1/2-x,1/2+y,z
x,-y,1/2+z
loop_
_atom_site_type_symbol
_atom_site_label
_atom_site_fract_x
_atom_site_fract_y
_atom_site_fract_z
Si Si1 0.881660 0.037222 0.734486
Si Si2 0.738646 0.159896 0.439067
Si Si3 0.234276 0.570358 0.338757
Si Si4 0.212492 0.838189 0.089406
Si Si5 0.055161 0.515799 0.364920
Si Si6 0.365086 0.855398 0.279179
Si Si7 0.576129 0.396908 0.950762
Si Si8 0.000000 0.220354 0.250000
O O1 0.856648 0.110643 0.832116
O O2 0.938041 0.064941 0.603850
O O3 0.797414 0.003140 0.661140
O O4 0.910444 0.965566 0.834416
O O5 0.720322 0.095409 0.321154
O O6 0.710335 0.245403 0.384922
O O7 0.688282 0.148897 0.579860
O O8 0.837170 0.151583 0.464023
O O9 0.280911 0.638386 0.426410
O O10 0.143519 0.554175 0.398406
O O11 0.299954 0.863533 0.155390
O O12 0.081098 0.433582 0.293111
O O13 0.000000 0.561680 0.250000
O O14 0.000000 0.500000 0.500000
O O15 0.421491 0.778064 0.262728
O O16 0.510235 0.336462 0.885059
#
# Coordination Sequence:
#
# PCOD9458357 Si02
#       8
#     8   8   8   8   8   8   8   4
#     4  11  23  42  70  99 129 178 238 290 335 408
#     4  11  24  41  69  98 134 177 233 283 338 413
#     4  11  24  40  64 100 132 172 229 289 338 408
#     4  12  22  41  70 100 131 173 232 291 337 401
#     4  12  24  39  62  92 136 180 214 271 349 420
#     4  12  24  44  66 101 137 181 227 283 351 420
#     4  11  24  44  69 101 138 180 233 287 352 421
#     4  12  28  44  70 104 150 190 226 290 376 430
#
# _framework density 23.000838000000002
#
# number of rings (size 3 to 8) (size 9 to 14) (size 15 to 20)
#    0.000    0.533    6.000    2.400    3.733    0.533 
#    0.000    0.000    0.000    1.600    0.000    0.000 
#    0.000    0.000    0.000    0.000    0.000    0.000 
#
# Total GULP energy -335890.711814 kJ/mol
# GULP energy per Si atom -5598.178530 kJ/mol
# Density = 2.294849 g / cm^3
# Si number density = 23.000838 Si / 1000 Ang^3
#
#
#
# Elastic Constant Matrix: (Units=GPa)
#
#
# Indices 1 2 3 4 5 6 
#
# 1 64.7024 4.7095 7.6609 0.0000 0.0000 0.0000
# 2 4.7095 78.0646 4.5088 0.0000 0.0000 0.0000
# 3 7.6609 4.5088 101.0295 0.0000 0.0000 0.0000
# 4 0.0000 0.0000 0.0000 35.9275 0.0000 0.0000
# 5 0.0000 0.0000 0.0000 0.0000 34.3426 0.0000
# 6 0.0000 0.0000 0.0000 0.0000 0.0000 28.0409
#
#
#
# Elastic Compliance Matrix: (Units=1/GPa)
#
#
# Indices 1 2 3 4 5 6 
#
# 1 0.015655 -0.000878 -0.001148 0.000000 0.000000 0.000000
# 2 -0.000878 0.012892 -0.000509 0.000000 0.000000 0.000000
# 3 -0.001148 -0.000509 0.010008 0.000000 0.000000 0.000000
# 4 0.000000 0.000000 0.000000 0.027834 0.000000 0.000000
# 5 0.000000 0.000000 0.000000 0.000000 0.029118 0.000000
# 6 0.000000 0.000000 0.000000 0.000000 0.000000 0.035662
#
#
# Mechanical properties :
#
#
# Convention : Reuss Voigt Hill
#
# Bulk Modulus (GPa) = 29.86355 30.83944 30.35150
# Shear Modulus (GPa) = 33.92099 34.79000 34.35549
#
# Velocity S-wave (km/s) = 3.84444 3.89338 3.86899
# Velocity P-wave (km/s) = 5.71998 5.80071 5.76049
#
# Compressibility (1/GPa) = 0.03348563
#
# Stress axis : x y z
#
# Youngs Moduli (GPa) = 63.87653 77.56584 99.92160
#
# Poissons Ratio (x) = 0.06811 0.11470
# Poissons Ratio (y) = 0.05609 0.05084
# Poissons Ratio (z) = 0.07333 0.03946
#
# Static dielectric constant tensor:
#      x y z
#    x 1.915550 0.000000 0.000000 
#    y 0.000000 1.854180 0.000000 
#    z 0.000000 0.000000 1.609640 
# 
# From -- ./inp_files/6919.got.cif
#   From: 2010.05.17/outbox.cif.g08.bks.cpg/sg60_4_cif.got.tgz:6919.got - 2010.06.03 14:59:27.
