data_PCOD9458295
_publ_section_title
;
Structure prediction by ZEFSAII (Michael W. Deem and Ramdas Pophale) SiO2 
 PCOD9458295
Probable space group: P B C N
;
_chemical_formula_sum "Si O2"
_cell_formula_units_Z 40
_cell_length_a 13.520826
_cell_length_b 15.144795
_cell_length_c 8.510020
_cell_angle_alpha 90.000000
_cell_angle_beta 90.000000
_cell_angle_gamma 90.000000
_cell_volume 1742.597970
_symmetry_space_group_name_H-M "P B C N"
_symmetry_group_IT_number 60
_symmetry_cell_setting 'orthorhombic'
loop_
_space_group_symop_operation_xyz
x,y,z
1/2-x,1/2-y,1/2+z
1/2+x,1/2-y,-z
-x,y,1/2-z
-x,-y,-z
1/2+x,1/2+y,1/2-z
1/2-x,1/2+y,z
x,-y,1/2+z
loop_
_atom_site_type_symbol
_atom_site_label
_atom_site_fract_x
_atom_site_fract_y
_atom_site_fract_z
Si Si1 0.945954 0.578729 0.415947
Si Si2 0.831096 0.786468 0.184188
Si Si3 0.467108 0.268831 0.007912
Si Si4 0.826932 0.875488 0.689092
Si Si5 0.227754 0.952325 0.503073
O O1 0.950141 0.665756 0.521479
O O2 0.832374 0.551325 0.406790
O O3 0.000000 0.597948 0.250000
O O4 0.000000 0.500000 0.500000
O O5 0.893049 0.790933 0.345568
O O6 0.755733 0.703621 0.193490
O O7 0.918840 0.774511 0.057120
O O8 0.777643 0.876904 0.132144
O O9 0.425296 0.330164 0.874181
O O10 0.843570 0.921925 0.856612
O O11 0.793062 0.952978 0.570739
#
# Coordination Sequence:
#
# PCOD9458295 Si02
#       5
#     8   8   8   8   8
#     4  12  23  44  69 103 139 180 226 278 348 409
#     4  11  22  46  70  99 137 183 234 284 347 403
#     4  11  23  44  70  96 141 185 227 291 340 407
#     4  12  24  45  69 103 141 181 234 282 350 411
#     4  12  25  42  71 100 138 183 228 287 342 413
#
# _framework density 22.954234
#
# number of rings (size 3 to 8) (size 9 to 14) (size 15 to 20)
#    0.000    0.400    6.000    3.600    0.000    1.600 
#    7.200    0.000    0.000    0.000    0.000    0.000 
#    0.000    0.000    0.000    0.000    0.000    0.000 
#
# Total GULP energy -223792.939435 kJ/mol
# GULP energy per Si atom -5594.823486 kJ/mol
# Density = 2.290199 g / cm^3
# Si number density = 22.954234 Si / 1000 Ang^3
#
#
#
# Elastic Constant Matrix: (Units=GPa)
#
#
# Indices 1 2 3 4 5 6 
#
# 1 66.7802 22.1758 14.1417 0.0000 0.0000 0.0000
# 2 22.1758 135.5764 37.1449 0.0000 0.0000 0.0000
# 3 14.1417 37.1449 53.8423 0.0000 0.0000 0.0000
# 4 0.0000 0.0000 0.0000 42.3825 0.0000 0.0000
# 5 0.0000 0.0000 0.0000 0.0000 37.2130 0.0000
# 6 0.0000 0.0000 0.0000 0.0000 0.0000 37.7360
#
#
#
# Elastic Compliance Matrix: (Units=1/GPa)
#
#
# Indices 1 2 3 4 5 6 
#
# 1 0.016217 -0.001832 -0.002996 0.000000 0.000000 0.000000
# 2 -0.001832 0.009302 -0.005936 0.000000 0.000000 0.000000
# 3 -0.002996 -0.005936 0.023455 0.000000 0.000000 0.000000
# 4 0.000000 0.000000 0.000000 0.023595 0.000000 0.000000
# 5 0.000000 0.000000 0.000000 0.000000 0.026872 0.000000
# 6 0.000000 0.000000 0.000000 0.000000 0.000000 0.026500
#
#
# Mechanical properties :
#
#
# Convention : Reuss Voigt Hill
#
# Bulk Modulus (GPa) = 36.43436 44.79152 40.61294
# Shear Modulus (GPa) = 31.92504 35.64873 33.78688
#
# Velocity S-wave (km/s) = 3.73341 3.94513 3.84073
# Velocity P-wave (km/s) = 5.87295 6.34885 6.11553
#
# Compressibility (1/GPa) = 0.02744662
#
# Stress axis : x y z
#
# Youngs Moduli (GPa) = 61.66304 107.50487 42.63519
#
# Poissons Ratio (x) = 0.19693 0.12772
# Poissons Ratio (y) = 0.11296 0.25309
# Poissons Ratio (z) = 0.18472 0.63816
#
# Static dielectric constant tensor:
#      x y z
#    x 1.893560 0.000000 0.000000 
#    y 0.000000 1.823780 0.000000 
#    z 0.000000 0.000000 1.923250 
# 
# From -- ./inp_files/5672.got.cif
#   From: 2010.05.17/outbox.cif.g08.bks.cpg/sg60_3_cif.got.tgz:5672.got - 2010.06.03 14:59:27.
