data_PCOD9458601
_publ_section_title
;
Structure prediction by ZEFSAII (Michael W. Deem and Ramdas Pophale) SiO2 
 PCOD9458601
Probable space group: P B C N
;
_chemical_formula_sum "Si O2"
_cell_formula_units_Z 28
_cell_length_a 5.312808
_cell_length_b 28.752587
_cell_length_c 7.710827
_cell_angle_alpha 90.000000
_cell_angle_beta 90.000000
_cell_angle_gamma 90.000000
_cell_volume 1177.882601
_symmetry_space_group_name_H-M "P B C N"
_symmetry_group_IT_number 60
_symmetry_cell_setting 'orthorhombic'
loop_
_space_group_symop_operation_xyz
x,y,z
1/2-x,1/2-y,1/2+z
1/2+x,1/2-y,-z
-x,y,1/2-z
-x,-y,-z
1/2+x,1/2+y,1/2-z
1/2-x,1/2+y,z
x,-y,1/2+z
loop_
_atom_site_type_symbol
_atom_site_label
_atom_site_fract_x
_atom_site_fract_y
_atom_site_fract_z
Si Si1 0.932035 0.052771 0.949320
Si Si2 0.000000 0.224365 0.250000
Si Si3 0.414943 0.200425 0.449599
Si Si4 0.576151 0.897563 0.948001
O O1 0.000000 0.058648 0.750000
O O2 0.143599 0.083291 0.043722
O O3 0.642651 0.068658 0.975952
O O4 0.000000 0.000000 0.000000
O O5 0.135544 0.189430 0.385151
O O6 0.910942 0.260927 0.401544
O O7 0.500000 0.216241 0.250000
O O8 0.553555 0.155056 0.517841
O O9 0.500000 0.892352 0.750000
#
# Coordination Sequence:
#
# PCOD9458601 Si02
#       4
#     8   4   8   8
#     4  12  26  47  74 105 141 186 234 290 361 435
#     4  12  24  46  68 100 140 192 240 298 360 428
#     4  11  26  43  70 103 143 186 244 296 361 422
#     4  11  26  46  72 105 145 184 235 297 355 424
#
# _framework density 23.771467999999999
#
# number of rings (size 3 to 8) (size 9 to 14) (size 15 to 20)
#    0.000    0.571    2.857    4.286   12.000    0.000 
#    0.000    0.000    0.000    0.000    0.000    0.000 
#    0.000    0.000    0.000    0.000    0.000    0.000 
#
# Total GULP energy -155873.364223 kJ/mol
# GULP energy per Si atom -5566.905865 kJ/mol
# Density = 2.371736 g / cm^3
# Si number density = 23.771468 Si / 1000 Ang^3
#
#
#
# Elastic Constant Matrix: (Units=GPa)
#
#
# Indices 1 2 3 4 5 6 
#
# 1 59.1963 43.8033 2.7159 0.0000 0.0000 0.0000
# 2 43.8033 92.3566 -0.5904 0.0000 0.0000 0.0000
# 3 2.7159 -0.5904 70.7395 0.0000 0.0000 0.0000
# 4 0.0000 0.0000 0.0000 15.5346 0.0000 0.0000
# 5 0.0000 0.0000 0.0000 0.0000 47.9329 0.0000
# 6 0.0000 0.0000 0.0000 0.0000 0.0000 35.5394
#
#
#
# Elastic Compliance Matrix: (Units=1/GPa)
#
#
# Indices 1 2 3 4 5 6 
#
# 1 0.026114 -0.012392 -0.001106 0.000000 0.000000 0.000000
# 2 -0.012392 0.016709 0.000615 0.000000 0.000000 0.000000
# 3 -0.001106 0.000615 0.014184 0.000000 0.000000 0.000000
# 4 0.000000 0.000000 0.000000 0.064373 0.000000 0.000000
# 5 0.000000 0.000000 0.000000 0.000000 0.020863 0.000000
# 6 0.000000 0.000000 0.000000 0.000000 0.000000 0.028138
#
#
# Mechanical properties :
#
#
# Convention : Reuss Voigt Hill
#
# Bulk Modulus (GPa) = 32.00986 34.90555 33.45771
# Shear Modulus (GPa) = 24.20613 31.55894 27.88254
#
# Velocity S-wave (km/s) = 3.19452 3.64757 3.42854
# Velocity P-wave (km/s) = 5.20591 5.69696 5.45696
#
# Compressibility (1/GPa) = 0.03124037
#
# Stress axis : x y z
#
# Youngs Moduli (GPa) = 38.29420 59.84787 70.50216
#
# Poissons Ratio (x) = 0.74166 0.07797
# Poissons Ratio (y) = 0.47456 -0.04337
# Poissons Ratio (z) = 0.04235 -0.03682
#
# Static dielectric constant tensor:
#      x y z
#    x 6.608930 0.000000 0.000000 
#    y 0.000000 1.959530 0.000000 
#    z 0.000000 0.000000 1.847690 
# 
# From -- ./inp_files/2962.got.cif
#   From: 2010.05.17/outbox.cif.g08.bks.cpg/sg60_2_cif.got.tgz:2962.got - 2010.06.03 14:59:27.
