data_PCOD9458744
_publ_section_title
;
Structure prediction by ZEFSAII (Michael W. Deem and Ramdas Pophale) SiO2 
 PCOD9458744
Probable space group: P B C N
;
_chemical_formula_sum "Si O2"
_cell_formula_units_Z 36
_cell_length_a 9.555674
_cell_length_b 18.967938
_cell_length_c 9.037903
_cell_angle_alpha 90.000000
_cell_angle_beta 90.000000
_cell_angle_gamma 90.000000
_cell_volume 1638.132861
_symmetry_space_group_name_H-M "P B C N"
_symmetry_group_IT_number 60
_symmetry_cell_setting 'orthorhombic'
loop_
_space_group_symop_operation_xyz
x,y,z
1/2-x,1/2-y,1/2+z
1/2+x,1/2-y,-z
-x,y,1/2-z
-x,-y,-z
1/2+x,1/2+y,1/2-z
1/2-x,1/2+y,z
x,-y,1/2+z
loop_
_atom_site_type_symbol
_atom_site_label
_atom_site_fract_x
_atom_site_fract_y
_atom_site_fract_z
Si Si1 0.500000 0.121307 0.250000
Si Si2 0.266390 0.179589 0.462530
Si Si3 0.368201 0.051307 0.987569
Si Si4 0.101704 0.040728 0.390932
Si Si5 0.852935 0.309254 0.204313
O O1 0.411592 0.161277 0.376819
O O2 0.376369 0.081563 0.156175
O O3 0.152742 0.119992 0.422900
O O4 0.278057 0.178564 0.639486
O O5 0.224874 0.256362 0.404408
O O6 0.381936 0.117335 0.878052
O O7 0.500000 0.000000 0.000000
O O8 0.242353 0.005950 0.918455
O O9 0.000000 0.042469 0.250000
O O10 0.000000 0.000000 0.500000
O O11 0.000000 0.275395 0.250000
#
# Coordination Sequence:
#
# PCOD9458744 Si02
#       5
#     4   8   8   8   8
#     4  12  24  46  78 110 146 208 266 320 382 472
#     4  12  27  47  75 107 156 199 259 318 397 468
#     4  12  26  47  80 111 154 204 264 314 383 473
#     4  12  26  48  74 113 153 198 251 328 400 464
#     4  12  26  48  72 112 149 203 258 322 385 467
#
# _framework density 21.976239
#
# number of rings (size 3 to 8) (size 9 to 14) (size 15 to 20)
#    0.000    0.000    4.444    4.667    4.667    1.778 
#    2.000    0.000    0.000    0.000    0.000    0.000 
#    0.000    0.000    0.000    0.000    0.000    0.000 
#
# Total GULP energy -200889.127075 kJ/mol
# GULP energy per Si atom -5580.253530 kJ/mol
# Density = 2.192622 g / cm^3
# Si number density = 21.976239 Si / 1000 Ang^3
#
#
#
# Elastic Constant Matrix: (Units=GPa)
#
#
# Indices 1 2 3 4 5 6 
#
# 1 134.1894 63.9679 62.1925 0.0000 0.0000 0.0000
# 2 63.9679 137.5974 82.2691 0.0000 0.0000 0.0000
# 3 62.1925 82.2691 190.8578 0.0000 0.0000 0.0000
# 4 0.0000 0.0000 0.0000 32.9251 0.0000 0.0000
# 5 0.0000 0.0000 0.0000 0.0000 51.8625 0.0000
# 6 0.0000 0.0000 0.0000 0.0000 0.0000 7.7785
#
#
#
# Elastic Compliance Matrix: (Units=1/GPa)
#
#
# Indices 1 2 3 4 5 6 
#
# 1 0.009960 -0.003624 -0.001683 0.000000 0.000000 0.000000
# 2 -0.003624 0.011109 -0.003608 0.000000 0.000000 0.000000
# 3 -0.001683 -0.003608 0.007343 0.000000 0.000000 0.000000
# 4 0.000000 0.000000 0.000000 0.030372 0.000000 0.000000
# 5 0.000000 0.000000 0.000000 0.000000 0.019282 0.000000
# 6 0.000000 0.000000 0.000000 0.000000 0.000000 0.128559
#
#
# Mechanical properties :
#
#
# Convention : Reuss Voigt Hill
#
# Bulk Modulus (GPa) = 94.49732 97.72262 96.10997
# Shear Modulus (GPa) = 21.93148 35.46089 28.69618
#
# Velocity S-wave (km/s) = 3.16248 4.02132 3.61748
# Velocity P-wave (km/s) = 7.51187 8.13175 7.82795
#
# Compressibility (1/GPa) = 0.01058231
#
# Stress axis : x y z
#
# Youngs Moduli (GPa) = 100.40358 90.01442 136.17945
#
# Poissons Ratio (x) = 0.32618 0.22926
# Poissons Ratio (y) = 0.36383 0.49132
# Poissons Ratio (z) = 0.16903 0.32476
#
# Static dielectric constant tensor:
#      x y z
#    x 1.744210 0.000000 0.000000 
#    y 0.000000 1.811730 0.000000 
#    z 0.000000 0.000000 1.867610 
# 
# From -- ./inp_files/3702.got.cif
#   From: 2010.05.17/outbox.cif.g08.bks.cpg/sg60_2_cif.got.tgz:3702.got - 2010.06.03 14:59:27.
