data_PCOD9458162
_publ_section_title
;
Structure prediction by ZEFSAII (Michael W. Deem and Ramdas Pophale) SiO2 
 PCOD9458162
Probable space group: P B C N
;
_chemical_formula_sum "Si O2"
_cell_formula_units_Z 48
_cell_length_a 16.180362
_cell_length_b 9.246573
_cell_length_c 16.922204
_cell_angle_alpha 90.000000
_cell_angle_beta 90.000000
_cell_angle_gamma 90.000000
_cell_volume 2531.779988
_symmetry_space_group_name_H-M "P B C N"
_symmetry_group_IT_number 60
_symmetry_cell_setting 'orthorhombic'
loop_
_space_group_symop_operation_xyz
x,y,z
1/2-x,1/2-y,1/2+z
1/2+x,1/2-y,-z
-x,y,1/2-z
-x,-y,-z
1/2+x,1/2+y,1/2-z
1/2-x,1/2+y,z
x,-y,1/2+z
loop_
_atom_site_type_symbol
_atom_site_label
_atom_site_fract_x
_atom_site_fract_y
_atom_site_fract_z
Si Si1 0.166546 0.946894 0.920551
Si Si2 0.808049 0.356257 0.151202
Si Si3 0.245809 0.309308 0.696459
Si Si4 0.083937 0.400967 0.796229
Si Si5 0.167458 0.062117 0.602882
Si Si6 0.017240 0.902737 0.342426
O O1 0.183844 0.777730 0.907711
O O2 0.231070 0.042221 0.870673
O O3 0.077012 0.985440 0.885639
O O4 0.176589 0.982966 0.012335
O O5 0.792908 0.282181 0.236322
O O6 0.885953 0.463243 0.153206
O O7 0.160892 0.365540 0.737659
O O8 0.220209 0.202771 0.625963
O O9 0.301243 0.437841 0.662442
O O10 0.062615 0.253543 0.842907
O O11 0.000000 0.435867 0.750000
O O12 0.071916 0.099567 0.617757
O O13 0.000000 0.936259 0.250000
#
# Coordination Sequence:
#
# PCOD9458162 Si02
#       6
#     8   8   8   8   8   8
#     4  12  24  41  62  99 136 167 219 274 339 376
#     4  12  22  41  68  93 124 177 219 269 312 403
#     4  12  21  42  67  92 124 172 230 257 321 399
#     4  11  22  39  68  93 121 162 223 269 313 374
#     4  12  25  40  66  97 132 171 212 283 331 386
#     4  11  21  43  66  91 129 179 217 265 325 398
#
# _framework density 18.958993
#
# number of rings (size 3 to 8) (size 9 to 14) (size 15 to 20)
#    0.000    0.333    8.333    2.500    0.000    2.000 
#    0.000    0.833    0.000    0.000    0.000    0.000 
#    0.000    0.000    0.000    0.000    0.000    0.000 
#
# Total GULP energy -268248.615979 kJ/mol
# GULP energy per Si atom -5588.512833 kJ/mol
# Density = 1.891584 g / cm^3
# Si number density = 18.958993 Si / 1000 Ang^3
#
#
#
# Elastic Constant Matrix: (Units=GPa)
#
#
# Indices 1 2 3 4 5 6 
#
# 1 76.3173 34.8083 9.2032 0.0000 0.0000 0.0000
# 2 34.8083 98.0549 30.1086 0.0000 0.0000 0.0000
# 3 9.2032 30.1086 68.1236 0.0000 0.0000 0.0000
# 4 0.0000 0.0000 0.0000 26.5745 0.0000 0.0000
# 5 0.0000 0.0000 0.0000 0.0000 14.7336 0.0000
# 6 0.0000 0.0000 0.0000 0.0000 0.0000 2.7955
#
#
#
# Elastic Compliance Matrix: (Units=1/GPa)
#
#
# Indices 1 2 3 4 5 6 
#
# 1 0.015644 -0.005674 0.000395 0.000000 0.000000 0.000000
# 2 -0.005674 0.013858 -0.005358 0.000000 0.000000 0.000000
# 3 0.000395 -0.005358 0.016994 0.000000 0.000000 0.000000
# 4 0.000000 0.000000 0.000000 0.037630 0.000000 0.000000
# 5 0.000000 0.000000 0.000000 0.000000 0.067872 0.000000
# 6 0.000000 0.000000 0.000000 0.000000 0.000000 0.357718
#
#
# Mechanical properties :
#
#
# Convention : Reuss Voigt Hill
#
# Bulk Modulus (GPa) = 39.65185 43.41512 41.53349
# Shear Modulus (GPa) = 9.26958 20.04576 14.65767
#
# Velocity S-wave (km/s) = 2.21357 3.25518 2.78353
# Velocity P-wave (km/s) = 5.24339 6.08912 5.68201
#
# Compressibility (1/GPa) = 0.02521950
#
# Stress axis : x y z
#
# Youngs Moduli (GPa) = 63.92332 72.16033 58.84399
#
# Poissons Ratio (x) = 0.40947 -0.02322
# Poissons Ratio (y) = 0.36273 0.31530
# Poissons Ratio (z) = -0.02522 0.38665
#
# Static dielectric constant tensor:
#      x y z
#    x 1.649610 0.000000 0.000000 
#    y 0.000000 1.669240 0.000000 
#    z 0.000000 0.000000 1.645550 
# 
# From -- ./inp_files/20471.got.cif
#   From: 2010.05.17/outbox.cif.g08.bks.cpg/sg60_11_cif.got.tgz:20471.got - 2010.06.03 14:59:27.
