data_PCOD9458433
_publ_section_title
;
Structure prediction by ZEFSAII (Michael W. Deem and Ramdas Pophale) SiO2 
 PCOD9458433
Probable space group: P B C N
;
_chemical_formula_sum "Si O2"
_cell_formula_units_Z 32
_cell_length_a 10.333184
_cell_length_b 29.513762
_cell_length_c 4.907304
_cell_angle_alpha 90.000000
_cell_angle_beta 90.000000
_cell_angle_gamma 90.000000
_cell_volume 1496.586062
_symmetry_space_group_name_H-M "P B C N"
_symmetry_group_IT_number 60
_symmetry_cell_setting 'orthorhombic'
loop_
_space_group_symop_operation_xyz
x,y,z
1/2-x,1/2-y,1/2+z
1/2+x,1/2-y,-z
-x,y,1/2-z
-x,-y,-z
1/2+x,1/2+y,1/2-z
1/2-x,1/2+y,z
x,-y,1/2+z
loop_
_atom_site_type_symbol
_atom_site_label
_atom_site_fract_x
_atom_site_fract_y
_atom_site_fract_z
Si Si1 0.590035 0.137991 0.991594
Si Si2 0.000000 0.804486 0.250000
Si Si3 0.330613 0.759704 0.122372
Si Si4 0.000000 0.034061 0.750000
Si Si5 0.123443 0.888356 0.965439
O O1 0.500000 0.142765 0.250000
O O2 0.625569 0.188719 0.893825
O O3 0.723804 0.114706 0.098077
O O4 0.500000 0.117029 0.750000
O O5 0.929741 0.774256 0.023661
O O6 0.904506 0.840591 0.391156
O O7 0.205344 0.752686 0.929400
O O8 0.111905 0.070125 0.678294
O O9 0.000000 0.000000 0.500000
O O10 0.000000 0.894080 0.750000
#
# Coordination Sequence:
#
# PCOD9458433 Si02
#       5
#     8   4   8   4   8
#     4  12  27  43  65  99 145 193 235 288 355 415
#     4  11  24  34  64  92 132 184 240 284 326 383
#     4  12  24  39  58  87 136 188 248 289 332 391
#     4  11  24  46  80 114 134 166 228 302 366 433
#     4  11  25  45  75 103 140 179 237 289 353 419
#
# _framework density 21.381997999999999
#
# number of rings (size 3 to 8) (size 9 to 14) (size 15 to 20)
#    0.000    0.500    5.000    3.000    7.000    0.000 
#    0.000    0.000    0.000    4.500    0.000    0.000 
#    0.000    0.000    0.000    0.000    0.000    0.000 
#
# Total GULP energy -178542.274553 kJ/mol
# GULP energy per Si atom -5579.446080 kJ/mol
# Density = 2.133333 g / cm^3
# Si number density = 21.381998 Si / 1000 Ang^3
#
#
#
# Elastic Constant Matrix: (Units=GPa)
#
#
# Indices 1 2 3 4 5 6 
#
# 1 155.7979 31.5531 30.1668 0.0000 0.0000 0.0000
# 2 31.5531 102.4042 6.4296 0.0000 0.0000 0.0000
# 3 30.1668 6.4296 89.7267 0.0000 0.0000 0.0000
# 4 0.0000 0.0000 0.0000 13.4810 0.0000 0.0000
# 5 0.0000 0.0000 0.0000 0.0000 52.0760 0.0000
# 6 0.0000 0.0000 0.0000 0.0000 0.0000 2.1487
#
#
#
# Elastic Compliance Matrix: (Units=1/GPa)
#
#
# Indices 1 2 3 4 5 6 
#
# 1 0.007290 -0.002102 -0.002300 0.000000 0.000000 0.000000
# 2 -0.002102 0.010415 -0.000040 0.000000 0.000000 0.000000
# 3 -0.002300 -0.000040 0.011921 0.000000 0.000000 0.000000
# 4 0.000000 0.000000 0.000000 0.074178 0.000000 0.000000
# 5 0.000000 0.000000 0.000000 0.000000 0.019203 0.000000
# 6 0.000000 0.000000 0.000000 0.000000 0.000000 0.465388
#
#
# Mechanical properties :
#
#
# Convention : Reuss Voigt Hill
#
# Bulk Modulus (GPa) = 48.20955 53.80312 51.00634
# Shear Modulus (GPa) = 8.27551 32.19311 20.23431
#
# Velocity S-wave (km/s) = 1.96945 3.88444 3.07958
# Velocity P-wave (km/s) = 5.26948 6.73320 6.04580
#
# Compressibility (1/GPa) = 0.02074278
#
# Stress axis : x y z
#
# Youngs Moduli (GPa) = 137.18172 96.01268 83.88454
#
# Poissons Ratio (x) = 0.20179 0.19295
# Poissons Ratio (y) = 0.28831 0.00333
# Poissons Ratio (z) = 0.31555 0.00382
#
# Static dielectric constant tensor:
#      x y z
#    x 1.954160 0.000000 0.000000 
#    y 0.000000 1.735090 0.000000 
#    z 0.000000 0.000000 1.864020 
# 
# From -- ./inp_files/399.got.cif
#   From: 2010.05.17/outbox.cif.g08.bks.cpg/sg60_1_cif.got.tgz:399.got - 2010.06.03 14:59:27.
