data_PCOD9458471
_publ_section_title
;
Structure prediction by ZEFSAII (Michael W. Deem and Ramdas Pophale) SiO2 
 PCOD9458471
Probable space group: P B C N
;
_chemical_formula_sum "Si O2"
_cell_formula_units_Z 48
_cell_length_a 8.482932
_cell_length_b 14.506329
_cell_length_c 17.719548
_cell_angle_alpha 90.000000
_cell_angle_beta 90.000000
_cell_angle_gamma 90.000000
_cell_volume 2180.500286
_symmetry_space_group_name_H-M "P B C N"
_symmetry_group_IT_number 60
_symmetry_cell_setting 'orthorhombic'
loop_
_space_group_symop_operation_xyz
x,y,z
1/2-x,1/2-y,1/2+z
1/2+x,1/2-y,-z
-x,y,1/2-z
-x,-y,-z
1/2+x,1/2+y,1/2-z
1/2-x,1/2+y,z
x,-y,1/2+z
loop_
_atom_site_type_symbol
_atom_site_label
_atom_site_fract_x
_atom_site_fract_y
_atom_site_fract_z
Si Si1 0.182644 0.418222 0.929373
Si Si2 0.827833 0.591178 0.482935
Si Si3 0.176018 0.193013 0.150178
Si Si4 0.320306 0.650669 0.738279
Si Si5 0.184042 0.457711 0.757748
Si Si6 0.336123 0.233629 0.885230
O O1 0.224795 0.454468 0.846088
O O2 0.254527 0.316475 0.931603
O O3 0.993162 0.416757 0.938562
O O4 0.235158 0.490989 0.992741
O O5 0.711423 0.647634 0.430219
O O6 0.861012 0.648028 0.559063
O O7 0.292067 0.277328 0.170939
O O8 0.211070 0.114138 0.211515
O O9 0.000487 0.231602 0.148759
O O10 0.500000 0.621950 0.750000
O O11 0.213864 0.560448 0.727984
O O12 0.268987 0.702861 0.814687
O O13 0.000000 0.432223 0.750000
#
# Coordination Sequence:
#
# PCOD9458471 Si02
#       6
#     8   8   8   8   8   8
#     4  11  24  43  72  99 148 189 235 297 361 430
#     4  11  25  46  69 103 145 197 232 294 369 424
#     4  12  26  44  74 105 141 187 241 298 356 426
#     4  12  27  43  72 105 139 185 238 293 360 422
#     4  12  24  45  73 103 143 184 238 296 360 425
#     4  12  25  45  73 105 144 186 243 298 356 437
#
# _framework density 22.013297999999999
#
# number of rings (size 3 to 8) (size 9 to 14) (size 15 to 20)
#    0.000    0.333    5.000    4.000    2.333    2.000 
#    0.000    0.000    0.000    0.000    0.000    0.000 
#    0.000    0.000    0.000    0.000    0.000    0.000 
#
# Total GULP energy -268812.732638 kJ/mol
# GULP energy per Si atom -5600.265263 kJ/mol
# Density = 2.196319 g / cm^3
# Si number density = 22.013298 Si / 1000 Ang^3
#
#
#
# Elastic Constant Matrix: (Units=GPa)
#
#
# Indices 1 2 3 4 5 6 
#
# 1 60.6890 -7.5749 11.6950 0.0000 0.0000 0.0000
# 2 -7.5749 89.0576 4.1925 0.0000 0.0000 0.0000
# 3 11.6950 4.1925 59.2381 0.0000 0.0000 0.0000
# 4 0.0000 0.0000 0.0000 24.0550 0.0000 0.0000
# 5 0.0000 0.0000 0.0000 0.0000 27.0598 0.0000
# 6 0.0000 0.0000 0.0000 0.0000 0.0000 32.0724
#
#
#
# Elastic Compliance Matrix: (Units=1/GPa)
#
#
# Indices 1 2 3 4 5 6 
#
# 1 0.017366 0.001644 -0.003545 0.000000 0.000000 0.000000
# 2 0.001644 0.011422 -0.001133 0.000000 0.000000 0.000000
# 3 -0.003545 -0.001133 0.017661 0.000000 0.000000 0.000000
# 4 0.000000 0.000000 0.000000 0.041571 0.000000 0.000000
# 5 0.000000 0.000000 0.000000 0.000000 0.036955 0.000000
# 6 0.000000 0.000000 0.000000 0.000000 0.000000 0.031179
#
#
# Mechanical properties :
#
#
# Convention : Reuss Voigt Hill
#
# Bulk Modulus (GPa) = 24.76403 25.06775 24.91589
# Shear Modulus (GPa) = 28.46044 30.01559 29.23801
#
# Velocity S-wave (km/s) = 3.59956 3.69659 3.64840
# Velocity P-wave (km/s) = 5.34320 5.44353 5.39360
#
# Compressibility (1/GPa) = 0.04038116
#
# Stress axis : x y z
#
# Youngs Moduli (GPa) = 57.58464 87.55149 56.62189
#
# Poissons Ratio (x) = -0.14393 0.20071
# Poissons Ratio (y) = -0.09467 0.06415
# Poissons Ratio (z) = 0.20412 0.09919
#
# Static dielectric constant tensor:
#      x y z
#    x 1.758500 0.000000 0.000000 
#    y 0.000000 1.797860 0.000000 
#    z 0.000000 0.000000 1.791680 
# 
# From -- ./inp_files/19305.got.cif
#   From: 2010.05.17/outbox.cif.g08.bks.cpg/sg60_10_cif.got.tgz:19305.got - 2010.06.03 14:59:27.
