data_PCOD9458285
_publ_section_title
;
Structure prediction by ZEFSAII (Michael W. Deem and Ramdas Pophale) SiO2 
 PCOD9458285
Probable space group: P B C N
;
_chemical_formula_sum "Si O2"
_cell_formula_units_Z 56
_cell_length_a 11.266891
_cell_length_b 13.172124
_cell_length_c 14.083117
_cell_angle_alpha 90.000000
_cell_angle_beta 90.000000
_cell_angle_gamma 90.000000
_cell_volume 2090.059696
_symmetry_space_group_name_H-M "P B C N"
_symmetry_group_IT_number 60
_symmetry_cell_setting 'orthorhombic'
loop_
_space_group_symop_operation_xyz
x,y,z
1/2-x,1/2-y,1/2+z
1/2+x,1/2-y,-z
-x,y,1/2-z
-x,-y,-z
1/2+x,1/2+y,1/2-z
1/2-x,1/2+y,z
x,-y,1/2+z
loop_
_atom_site_type_symbol
_atom_site_label
_atom_site_fract_x
_atom_site_fract_y
_atom_site_fract_z
Si Si1 0.112350 0.835110 0.193793
Si Si2 0.071046 0.102187 0.348745
Si Si3 0.858613 0.178080 0.433198
Si Si4 0.126332 0.385326 0.673528
Si Si5 0.334931 0.093855 0.582506
Si Si6 0.282462 0.193406 0.870351
Si Si7 0.679725 0.025389 0.130895
O O1 0.072013 0.725714 0.149265
O O2 0.197803 0.896692 0.121947
O O3 0.201974 0.805912 0.277616
O O4 0.000000 0.881188 0.250000
O O5 0.140487 0.206709 0.366608
O O6 0.177443 0.022069 0.350880
O O7 0.000000 0.105545 0.250000
O O8 0.971100 0.104731 0.429843
O O9 0.761457 0.133905 0.361040
O O10 0.886334 0.293531 0.400299
O O11 0.795518 0.186605 0.534493
O O12 0.101465 0.494326 0.625373
O O13 0.122643 0.409982 0.785073
O O14 0.336954 0.074670 0.470617
O O15 0.358746 0.090856 0.867640
#
# Coordination Sequence:
#
# PCOD9458285 Si02
#       7
#     8   8   8   8   8   8   8
#     4  11  25  43  67  98 137 183 233 297 362 420
#     4  12  25  47  72 103 144 192 241 294 361 433
#     4  11  24  43  73 100 136 190 235 288 359 423
#     4  11  22  45  67  99 140 182 233 298 351 421
#     4  11  23  45  69  97 141 186 233 295 356 427
#     4  12  25  45  70 105 145 183 235 302 358 427
#     4  12  24  43  71 100 144 180 236 297 352 424
#
# _framework density 26.793493000000002
#
# number of rings (size 3 to 8) (size 9 to 14) (size 15 to 20)
#    0.000    0.571    7.143    0.857    2.000    2.286 
#    2.571    0.714    0.000    0.000    0.000    0.000 
#    0.000    0.000    0.000    0.000    0.000    0.000 
#
# Total GULP energy -313866.079268 kJ/mol
# GULP energy per Si atom -5604.751416 kJ/mol
# Density = 2.673251 g / cm^3
# Si number density = 26.793493 Si / 1000 Ang^3
#
#
#
# Elastic Constant Matrix: (Units=GPa)
#
#
# Indices 1 2 3 4 5 6 
#
# 1 84.3504 14.0165 20.0691 0.0000 0.0000 0.0000
# 2 14.0165 162.1681 24.6517 0.0000 0.0000 0.0000
# 3 20.0691 24.6517 147.2340 0.0000 0.0000 0.0000
# 4 0.0000 0.0000 0.0000 38.1535 0.0000 0.0000
# 5 0.0000 0.0000 0.0000 0.0000 24.1613 0.0000
# 6 0.0000 0.0000 0.0000 0.0000 0.0000 18.5412
#
#
#
# Elastic Compliance Matrix: (Units=1/GPa)
#
#
# Indices 1 2 3 4 5 6 
#
# 1 0.012361 -0.000834 -0.001545 0.000000 0.000000 0.000000
# 2 -0.000834 0.006384 -0.000955 0.000000 0.000000 0.000000
# 3 -0.001545 -0.000955 0.007162 0.000000 0.000000 0.000000
# 4 0.000000 0.000000 0.000000 0.026210 0.000000 0.000000
# 5 0.000000 0.000000 0.000000 0.000000 0.041388 0.000000
# 6 0.000000 0.000000 0.000000 0.000000 0.000000 0.053934
#
#
# Mechanical properties :
#
#
# Convention : Reuss Voigt Hill
#
# Bulk Modulus (GPa) = 51.97665 56.80302 54.38983
# Shear Modulus (GPa) = 31.14848 38.50555 34.82702
#
# Velocity S-wave (km/s) = 3.41330 3.79505 3.60923
# Velocity P-wave (km/s) = 5.91399 6.36000 6.14104
#
# Compressibility (1/GPa) = 0.01923941
#
# Stress axis : x y z
#
# Youngs Moduli (GPa) = 80.89633 156.64927 139.61615
#
# Poissons Ratio (x) = 0.13057 0.21576
# Poissons Ratio (y) = 0.06743 0.13336
# Poissons Ratio (z) = 0.12502 0.14963
#
# Static dielectric constant tensor:
#      x y z
#    x 2.159220 0.000000 0.000000 
#    y 0.000000 2.101570 0.000000 
#    z 0.000000 0.000000 2.035760 
# 
# From -- ./inp_files/16189.got.cif
#   From: 2010.05.17/outbox.cif.g08.bks.cpg/sg60_9_cif.got.tgz:16189.got - 2010.06.03 14:59:27.
