data_PCOD9458967
_publ_section_title
;
Structure prediction by ZEFSAII (Michael W. Deem and Ramdas Pophale) SiO2 
 PCOD9458967
Probable space group: P B C A
;
_chemical_formula_sum "Si O2"
_cell_formula_units_Z 48
_cell_length_a 13.488150
_cell_length_b 25.870031
_cell_length_c 5.385584
_cell_angle_alpha 90.000000
_cell_angle_beta 90.000000
_cell_angle_gamma 90.000000
_cell_volume 1879.239534
_symmetry_space_group_name_H-M "P B C A"
_symmetry_group_IT_number 61
_symmetry_cell_setting 'orthorhombic'
loop_
_space_group_symop_operation_xyz
x,y,z
1/2-x,-y,1/2+z
1/2+x,1/2-y,-z
-x,1/2+y,1/2-z
-x,-y,-z
1/2+x,y,1/2-z
1/2-x,1/2+y,z
x,1/2-y,1/2+z
loop_
_atom_site_type_symbol
_atom_site_label
_atom_site_fract_x
_atom_site_fract_y
_atom_site_fract_z
Si Si1 0.435813 0.938990 0.328965
Si Si2 0.391220 0.112206 0.436172
Si Si3 0.912459 0.882834 0.671901
Si Si4 0.581496 0.723363 0.858620
Si Si5 0.295379 0.021602 0.223941
Si Si6 0.855783 0.764677 0.652754
O O1 0.550612 0.925047 0.369131
O O2 0.389524 0.919700 0.591387
O O3 0.406236 0.997054 0.261221
O O4 0.395346 0.905960 0.098649
O O5 0.468741 0.122764 0.213377
O O6 0.381898 0.166564 0.570502
O O7 0.302222 0.080609 0.316335
O O8 0.872258 0.825254 0.691244
O O9 0.609460 0.739279 0.583759
O O10 0.459130 0.730777 0.859976
O O11 0.235354 0.991266 0.442116
O O12 0.803442 0.756981 0.392865
#
# Coordination Sequence:
#
# PCOD9458967 Si02
#       6
#     8   8   8   8   8   8
#     4  10  21  39  61  86 116 152 201 246 292 351
#     4  10  23  36  66  90 121 154 203 243 302 355
#     4  10  19  31  61  90 118 147 190 245 299 346
#     4  10  17  29  52  91 125 140 180 248 305 339
#     4  12  28  44  59  85 123 164 204 251 301 353
#     4  10  15  26  45  86 130 136 170 235 312 337
#
# _framework density 25.542247
#
# number of rings (size 3 to 8) (size 9 to 14) (size 15 to 20)
#    1.000    0.667    3.333    4.500    2.333    0.667 
#    0.000    0.000    0.000    0.000    0.000   44.333 
#    0.000    0.000    0.000    0.000    0.000    0.000 
#
# Total GULP energy -268223.048520 kJ/mol
# GULP energy per Si atom -5587.980177 kJ/mol
# Density = 2.548411 g / cm^3
# Si number density = 25.542247 Si / 1000 Ang^3
#
#
#
# Elastic Constant Matrix: (Units=GPa)
#
#
# Indices 1 2 3 4 5 6 
#
# 1 51.3269 1.3187 8.9562 0.0000 0.0000 0.0000
# 2 1.3187 73.6379 -14.4720 0.0000 0.0000 0.0000
# 3 8.9562 -14.4720 130.9991 0.0000 0.0000 0.0000
# 4 0.0000 0.0000 0.0000 25.1880 0.0000 0.0000
# 5 0.0000 0.0000 0.0000 0.0000 29.3553 0.0000
# 6 0.0000 0.0000 0.0000 0.0000 0.0000 15.6954
#
#
#
# Elastic Compliance Matrix: (Units=1/GPa)
#
#
# Indices 1 2 3 4 5 6 
#
# 1 0.019747 -0.000633 -0.001420 0.000000 0.000000 0.000000
# 2 -0.000633 0.013902 0.001579 0.000000 0.000000 0.000000
# 3 -0.001420 0.001579 0.007905 0.000000 0.000000 0.000000
# 4 0.000000 0.000000 0.000000 0.039701 0.000000 0.000000
# 5 0.000000 0.000000 0.000000 0.000000 0.034065 0.000000
# 6 0.000000 0.000000 0.000000 0.000000 0.000000 0.063713
#
#
# Mechanical properties :
#
#
# Convention : Reuss Voigt Hill
#
# Bulk Modulus (GPa) = 24.62662 27.50776 26.06719
# Shear Modulus (GPa) = 25.83759 31.39179 28.61469
#
# Velocity S-wave (km/s) = 3.18396 3.50953 3.35070
# Velocity P-wave (km/s) = 4.81448 5.21683 5.01969
#
# Compressibility (1/GPa) = 0.04060647
#
# Stress axis : x y z
#
# Youngs Moduli (GPa) = 50.64065 71.93412 126.49959
#
# Poissons Ratio (x) = 0.04551 0.17963
# Poissons Ratio (y) = 0.03204 -0.19975
# Poissons Ratio (z) = 0.07191 -0.11359
#
# Static dielectric constant tensor:
#      x y z
#    x 2.143950 0.000000 0.000000 
#    y 0.000000 2.009240 0.000000 
#    z 0.000000 0.000000 1.980420 
# 
# From -- ./inp_files/547.got.cif
#   From: 2010.05.17/outbox.cif.g08.bks.cpg/sg61_1_cif.got.tgz:547.got - 2010.06.03 15:17:17.
