data_PCOD9458506
_publ_section_title
;
Structure prediction by ZEFSAII (Michael W. Deem and Ramdas Pophale) SiO2 
 PCOD9458506
Probable space group: P B C N
;
_chemical_formula_sum "Si O2"
_cell_formula_units_Z 40
_cell_length_a 6.942902
_cell_length_b 23.978329
_cell_length_c 11.556256
_cell_angle_alpha 90.000000
_cell_angle_beta 90.000000
_cell_angle_gamma 90.000000
_cell_volume 1923.876119
_symmetry_space_group_name_H-M "P B C N"
_symmetry_group_IT_number 60
_symmetry_cell_setting 'orthorhombic'
loop_
_space_group_symop_operation_xyz
x,y,z
1/2-x,1/2-y,1/2+z
1/2+x,1/2-y,-z
-x,y,1/2-z
-x,-y,-z
1/2+x,1/2+y,1/2-z
1/2-x,1/2+y,z
x,-y,1/2+z
loop_
_atom_site_type_symbol
_atom_site_label
_atom_site_fract_x
_atom_site_fract_y
_atom_site_fract_z
Si Si1 0.585522 0.674192 0.460053
Si Si2 0.653300 0.971795 0.655819
Si Si3 0.336408 0.270037 0.162299
Si Si4 0.000000 0.099491 0.250000
Si Si5 0.895029 0.583574 0.535932
Si Si6 0.500000 0.846031 0.250000
O O1 0.707581 0.724382 0.403357
O O2 0.447991 0.695591 0.562211
O O3 0.480905 0.641458 0.357604
O O4 0.734666 0.627775 0.502229
O O5 0.500000 0.991604 0.750000
O O6 0.540821 0.931006 0.567579
O O7 0.819742 0.941441 0.727954
O O8 0.703842 0.026294 0.580298
O O9 0.500000 0.247054 0.250000
O O10 0.189224 0.307465 0.237914
O O11 0.004290 0.614313 0.639235
#
# Coordination Sequence:
#
# PCOD9458506 Si02
#       6
#     8   8   8   4   8   4
#     4  12  27  46  72 104 139 190 230 296 350 419
#     4  11  24  46  69 106 139 181 236 289 348 432
#     4  12  28  46  72 105 141 184 243 290 350 427
#     4  12  27  44  76 102 142 186 231 288 360 418
#     4  11  24  45  74  99 143 185 228 293 360 412
#     4  12  23  48  72 102 140 184 231 294 354 424
#
# _framework density 20.791360000000001
#
# number of rings (size 3 to 8) (size 9 to 14) (size 15 to 20)
#    0.000    0.400    5.000    3.000    5.600    2.400 
#    0.000    0.000    0.000    0.000    0.000    0.000 
#    0.000    0.000    0.000    0.000    0.000    0.000 
#
# Total GULP energy -223444.493293 kJ/mol
# GULP energy per Si atom -5586.112332 kJ/mol
# Density = 2.074404 g / cm^3
# Si number density = 20.791360 Si / 1000 Ang^3
#
#
#
# Elastic Constant Matrix: (Units=GPa)
#
#
# Indices 1 2 3 4 5 6 
#
# 1 70.5262 41.7159 17.0732 0.0000 0.0000 0.0000
# 2 41.7159 95.3957 12.7902 0.0000 0.0000 0.0000
# 3 17.0732 12.7902 69.8088 0.0000 0.0000 0.0000
# 4 0.0000 0.0000 0.0000 34.2973 0.0000 0.0000
# 5 0.0000 0.0000 0.0000 0.0000 42.5672 0.0000
# 6 0.0000 0.0000 0.0000 0.0000 0.0000 -20.8644
#
#
#
# Elastic Compliance Matrix: (Units=1/GPa)
#
#
# Indices 1 2 3 4 5 6 
#
# 1 0.019862 -0.008236 -0.003348 0.000000 0.000000 0.000000
# 2 -0.008236 0.014162 -0.000580 0.000000 0.000000 0.000000
# 3 -0.003348 -0.000580 0.015250 0.000000 0.000000 0.000000
# 4 0.000000 0.000000 0.000000 0.029157 0.000000 0.000000
# 5 0.000000 0.000000 0.000000 0.000000 0.023492 0.000000
# 6 0.000000 0.000000 0.000000 0.000000 0.000000 -0.047929
#
#
# Mechanical properties :
#
#
# Convention : Reuss Voigt Hill
#
# Bulk Modulus (GPa) = 40.09087 42.09879 41.09483
# Shear Modulus (GPa) = 57.71061 22.14346 39.92703
#
# Velocity S-wave (km/s) = 5.27421 3.26702 4.38695
# Velocity P-wave (km/s) = 7.51093 5.87566 6.74305
#
# Compressibility (1/GPa) = 0.02494333
#
# Stress axis : x y z
#
# Youngs Moduli (GPa) = 50.34864 70.61064 65.57325
#
# Poissons Ratio (x) = 0.58157 0.21957
# Poissons Ratio (y) = 0.41469 0.03806
# Poissons Ratio (z) = 0.16859 0.04098
#
# Static dielectric constant tensor:
#      x y z
#    x 1.705780 0.000000 0.000000 
#    y 0.000000 1.729970 0.000000 
#    z 0.000000 0.000000 1.695170 
# 
# From -- ./inp_files/9140.got.cif
#   From: 2010.05.17/outbox.cif.g08.bks.cpg/sg60_5_cif.got.tgz:9140.got - 2010.06.03 14:59:27.
