data_PCOD9458380
_publ_section_title
;
Structure prediction by ZEFSAII (Michael W. Deem and Ramdas Pophale) SiO2 
 PCOD9458380
Probable space group: P B C N
;
_chemical_formula_sum "Si O2"
_cell_formula_units_Z 40
_cell_length_a 8.438683
_cell_length_b 8.642601
_cell_length_c 22.151059
_cell_angle_alpha 90.000000
_cell_angle_beta 90.000000
_cell_angle_gamma 90.000000
_cell_volume 1615.524804
_symmetry_space_group_name_H-M "P B C N"
_symmetry_group_IT_number 60
_symmetry_cell_setting 'orthorhombic'
loop_
_space_group_symop_operation_xyz
x,y,z
1/2-x,1/2-y,1/2+z
1/2+x,1/2-y,-z
-x,y,1/2-z
-x,-y,-z
1/2+x,1/2+y,1/2-z
1/2-x,1/2+y,z
x,-y,1/2+z
loop_
_atom_site_type_symbol
_atom_site_label
_atom_site_fract_x
_atom_site_fract_y
_atom_site_fract_z
Si Si1 0.354637 0.488776 0.213091
Si Si2 0.321200 0.038325 0.334090
Si Si3 0.530358 0.818732 0.017382
Si Si4 0.861879 0.172983 0.585846
Si Si5 0.393183 0.199651 0.642860
O O1 0.500000 0.415921 0.250000
O O2 0.232079 0.539169 0.265383
O O3 0.267784 0.379996 0.165427
O O4 0.409503 0.643681 0.179998
O O5 0.177545 0.982685 0.378160
O O6 0.461834 0.914888 0.341143
O O7 0.373356 0.199550 0.361804
O O8 0.704639 0.802251 0.045110
O O9 0.409626 0.777126 0.071513
O O10 0.502043 0.706136 0.960768
O O11 0.500000 0.000000 0.000000
#
# Coordination Sequence:
#
# PCOD9458380 Si02
#       5
#     8   8   8   8   8
#     4  12  25  43  68 102 135 180 233 291 352 421
#     4  11  24  46  68 100 141 188 229 292 355 424
#     4  11  24  46  69 107 145 188 237 301 353 422
#     4  11  23  43  72  98 144 187 237 295 356 417
#     4  11  26  45  68  98 145 180 232 292 352 426
#
# _framework density 24.759754999999998
#
# number of rings (size 3 to 8) (size 9 to 14) (size 15 to 20)
#    0.000    0.800    4.000    5.400    2.800    5.600 
#    0.000    0.000    0.000    0.000    0.000    0.000 
#    0.000    0.000    0.000    0.000    0.000    0.000 
#
# Total GULP energy -224233.241852 kJ/mol
# GULP energy per Si atom -5605.831046 kJ/mol
# Density = 2.470340 g / cm^3
# Si number density = 24.759755 Si / 1000 Ang^3
#
#
#
# Elastic Constant Matrix: (Units=GPa)
#
#
# Indices 1 2 3 4 5 6 
#
# 1 74.3594 26.6362 13.9354 0.0000 0.0000 0.0000
# 2 26.6362 54.5861 24.4235 0.0000 0.0000 0.0000
# 3 13.9354 24.4235 137.9942 0.0000 0.0000 0.0000
# 4 0.0000 0.0000 0.0000 47.2523 0.0000 0.0000
# 5 0.0000 0.0000 0.0000 0.0000 53.2753 0.0000
# 6 0.0000 0.0000 0.0000 0.0000 0.0000 43.1407
#
#
#
# Elastic Compliance Matrix: (Units=1/GPa)
#
#
# Indices 1 2 3 4 5 6 
#
# 1 0.016305 -0.007841 -0.000259 0.000000 0.000000 0.000000
# 2 -0.007841 0.023665 -0.003397 0.000000 0.000000 0.000000
# 3 -0.000259 -0.003397 0.007874 0.000000 0.000000 0.000000
# 4 0.000000 0.000000 0.000000 0.021163 0.000000 0.000000
# 5 0.000000 0.000000 0.000000 0.000000 0.018770 0.000000
# 6 0.000000 0.000000 0.000000 0.000000 0.000000 0.023180
#
#
# Mechanical properties :
#
#
# Convention : Reuss Voigt Hill
#
# Bulk Modulus (GPa) = 40.23777 44.10333 42.17055
# Shear Modulus (GPa) = 35.15316 42.19663 38.67489
#
# Velocity S-wave (km/s) = 3.77207 4.13273 3.95651
# Velocity P-wave (km/s) = 5.93784 6.37368 6.15961
#
# Compressibility (1/GPa) = 0.02485227
#
# Stress axis : x y z
#
# Youngs Moduli (GPa) = 61.32983 42.25567 126.99999
#
# Poissons Ratio (x) = 0.33131 0.03288
# Poissons Ratio (y) = 0.48086 0.43139
# Poissons Ratio (z) = 0.01588 0.14353
#
# Static dielectric constant tensor:
#      x y z
#    x 2.011500 0.000000 0.000000 
#    y 0.000000 1.913330 0.000000 
#    z 0.000000 0.000000 1.927700 
# 
# From -- ./inp_files/23814.got.cif
#   From: 2010.05.17/outbox.cif.g08.bks.cpg/sg60_12_cif.got.tgz:23814.got - 2010.06.03 14:59:27.
