data_PCOD9458830
_publ_section_title
;
Structure prediction by ZEFSAII (Michael W. Deem and Ramdas Pophale) SiO2 
 PCOD9458830
Probable space group: P B C N
;
_chemical_formula_sum "Si O2"
_cell_formula_units_Z 32
_cell_length_a 19.329179
_cell_length_b 7.653228
_cell_length_c 8.251233
_cell_angle_alpha 90.000000
_cell_angle_beta 90.000000
_cell_angle_gamma 90.000000
_cell_volume 1220.609963
_symmetry_space_group_name_H-M "P B C N"
_symmetry_group_IT_number 60
_symmetry_cell_setting 'orthorhombic'
loop_
_space_group_symop_operation_xyz
x,y,z
1/2-x,1/2-y,1/2+z
1/2+x,1/2-y,-z
-x,y,1/2-z
-x,-y,-z
1/2+x,1/2+y,1/2-z
1/2-x,1/2+y,z
x,-y,1/2+z
loop_
_atom_site_type_symbol
_atom_site_label
_atom_site_fract_x
_atom_site_fract_y
_atom_site_fract_z
Si Si1 0.185041 0.621878 0.980033
Si Si2 0.962425 0.165072 0.583827
Si Si3 0.872004 0.300977 0.331338
Si Si4 0.317653 0.577979 0.748215
O O1 0.121580 0.643487 0.854961
O O2 0.252390 0.602096 0.866636
O O3 0.330262 0.617697 0.183236
O O4 0.185410 0.783638 0.102255
O O5 0.942393 0.285965 0.432131
O O6 0.886731 0.114372 0.650104
O O7 0.000000 0.224270 0.750000
O O8 0.000000 0.000000 0.500000
O O9 0.826977 0.446845 0.420871
#
# Coordination Sequence:
#
# PCOD9458830 Si02
#       4
#     8   8   8   8
#     4  12  31  52  86 133 168 215 287 363 448 524
#     4  12  27  52  87 117 163 235 288 342 427 518
#     4  12  29  51  85 124 167 223 279 357 432 512
#     4  12  29  53  86 122 175 214 279 357 442 514
#
# _framework density 26.216401999999999
#
# number of rings (size 3 to 8) (size 9 to 14) (size 15 to 20)
#    0.000    0.000    2.500    4.500   14.000    2.000 
#    0.000    5.000    5.500    0.000    0.000    0.000 
#    0.000    0.000    0.000    0.000    0.000    0.000 
#
# Total GULP energy -179573.797837 kJ/mol
# GULP energy per Si atom -5611.681182 kJ/mol
# Density = 2.615673 g / cm^3
# Si number density = 26.216402 Si / 1000 Ang^3
#
#
#
# Elastic Constant Matrix: (Units=GPa)
#
#
# Indices 1 2 3 4 5 6 
#
# 1 84.4058 13.9333 31.0470 0.0000 0.0000 0.0000
# 2 13.9333 125.1040 36.5091 0.0000 0.0000 0.0000
# 3 31.0470 36.5091 151.9938 0.0000 0.0000 0.0000
# 4 0.0000 0.0000 0.0000 66.9460 0.0000 0.0000
# 5 0.0000 0.0000 0.0000 0.0000 71.2228 0.0000
# 6 0.0000 0.0000 0.0000 0.0000 0.0000 29.3367
#
#
#
# Elastic Compliance Matrix: (Units=1/GPa)
#
#
# Indices 1 2 3 4 5 6 
#
# 1 0.012869 -0.000716 -0.002457 0.000000 0.000000 0.000000
# 2 -0.000716 0.008636 -0.001928 0.000000 0.000000 0.000000
# 3 -0.002457 -0.001928 0.007544 0.000000 0.000000 0.000000
# 4 0.000000 0.000000 0.000000 0.014937 0.000000 0.000000
# 5 0.000000 0.000000 0.000000 0.000000 0.014040 0.000000
# 6 0.000000 0.000000 0.000000 0.000000 0.000000 0.034087
#
#
# Mechanical properties :
#
#
# Convention : Reuss Voigt Hill
#
# Bulk Modulus (GPa) = 53.05822 58.27579 55.66701
# Shear Modulus (GPa) = 46.04106 52.16872 49.10489
#
# Velocity S-wave (km/s) = 4.19524 4.46570 4.33258
# Velocity P-wave (km/s) = 6.61432 6.99049 6.80501
#
# Compressibility (1/GPa) = 0.01884722
#
# Stress axis : x y z
#
# Youngs Moduli (GPa) = 77.70350 115.79727 132.55319
#
# Poissons Ratio (x) = 0.08295 0.32564
# Poissons Ratio (y) = 0.05566 0.25556
# Poissons Ratio (z) = 0.19089 0.22326
#
# Static dielectric constant tensor:
#      x y z
#    x 2.102780 0.000000 0.000000 
#    y 0.000000 2.046870 0.000000 
#    z 0.000000 0.000000 2.142820 
# 
# From -- ./inp_files/5574.got.cif
#   From: 2010.05.17/outbox.cif.g08.bks.cpg/sg60_3_cif.got.tgz:5574.got - 2010.06.03 14:59:27.
