data_PCOD9458930
_publ_section_title
;
Structure prediction by ZEFSAII (Michael W. Deem and Ramdas Pophale) SiO2 
 PCOD9458930
Probable space group: P B C N
;
_chemical_formula_sum "Si O2"
_cell_formula_units_Z 56
_cell_length_a 27.000000
_cell_length_b 9.000000
_cell_length_c 12.000000
_cell_angle_alpha 90.000000
_cell_angle_beta 90.000000
_cell_angle_gamma 90.000000
_cell_volume 2916.000000
_symmetry_space_group_name_H-M "P B C N"
_symmetry_group_IT_number 60
_symmetry_cell_setting 'orthorhombic'
loop_
_space_group_symop_operation_xyz
x,y,z
1/2-x,1/2-y,1/2+z
1/2+x,1/2-y,-z
-x,y,1/2-z
-x,-y,-z
1/2+x,1/2+y,1/2-z
1/2-x,1/2+y,z
x,-y,1/2+z
loop_
_atom_site_type_symbol
_atom_site_label
_atom_site_fract_x
_atom_site_fract_y
_atom_site_fract_z
Si Si1 0.272717 0.880065 0.938972
Si Si2 0.336065 0.771349 0.749394
Si Si3 0.430498 0.280176 0.860681
Si Si4 0.173604 0.929838 0.795876
Si Si5 0.752152 0.869891 0.902480
Si Si6 0.500000 0.527063 0.750000
Si Si7 0.060334 0.283905 0.624764
Si Si8 0.000000 0.532320 0.750000
O O1 0.316816 0.881237 0.848199
O O2 0.219192 0.904254 0.881229
O O3 0.271374 0.717943 0.991158
O O4 0.275544 0.988708 0.044570
O O5 0.341584 0.603177 0.794492
O O6 0.289378 0.777546 0.664651
O O7 0.386930 0.810019 0.686781
O O8 0.374481 0.327368 0.822242
O O9 0.465681 0.420095 0.826436
O O10 0.456638 0.139430 0.798915
O O11 0.431695 0.243978 0.992969
O O12 0.201325 0.900449 0.677847
O O13 0.534601 0.636227 0.823356
O O14 0.024539 0.422445 0.657508
#
# Coordination Sequence:
#
# PCOD9458930 Si02
#       8
#     8   8   8   8   8   4   8   4
#     4  11  23  40  63  92 135 172 211 265 328 387
#     4  11  23  40  65  98 130 168 224 268 321 401
#     4  11  23  43  72  93 131 176 221 279 343 395
#     4  11  23  40  65  98 128 167 230 266 314 409
#     4  11  23  40  63  93 135 173 210 270 329 382
#     4  10  22  42  68 102 122 166 230 286 330 410
#     4  11  23  43  68  96 136 170 219 284 342 393
#     4  10  26  46  64 102 136 170 224 284 338 414
#
# _framework density 19.20439
#
# number of rings (size 3 to 8) (size 9 to 14) (size 15 to 20)
#    0.000    1.143    4.286    1.714    0.000    3.429 
#    0.000    1.429    0.000    0.000    0.000    0.000 
#    0.000    0.000    0.000    0.000    0.000    0.000 
#
# Total GULP energy -312581.687052 kJ/mol
# GULP energy per Si atom -5581.815840 kJ/mol
# Density = 1.916068 g / cm^3
# Si number density = 19.204390 Si / 1000 Ang^3
#
#
#
# Elastic Constant Matrix: (Units=GPa)
#
#
# Indices 1 2 3 4 5 6 
#
# 1 118.7743 46.1788 59.2371 0.0000 0.0000 0.0000
# 2 46.1788 106.1145 45.5934 0.0000 0.0000 0.0000
# 3 59.2371 45.5934 108.4274 0.0000 0.0000 0.0000
# 4 0.0000 0.0000 0.0000 27.9247 0.0000 0.0000
# 5 0.0000 0.0000 0.0000 0.0000 33.0085 0.0000
# 6 0.0000 0.0000 0.0000 0.0000 0.0000 31.3808
#
#
#
# Elastic Compliance Matrix: (Units=1/GPa)
#
#
# Indices 1 2 3 4 5 6 
#
# 1 0.012314 -0.003013 -0.005461 0.000000 0.000000 0.000000
# 2 -0.003013 0.012239 -0.003501 0.000000 0.000000 0.000000
# 3 -0.005461 -0.003501 0.013678 0.000000 0.000000 0.000000
# 4 0.000000 0.000000 0.000000 0.035811 0.000000 0.000000
# 5 0.000000 0.000000 0.000000 0.000000 0.030295 0.000000
# 6 0.000000 0.000000 0.000000 0.000000 0.000000 0.031867
#
#
# Mechanical properties :
#
#
# Convention : Reuss Voigt Hill
#
# Bulk Modulus (GPa) = 70.01190 70.59274 70.30232
# Shear Modulus (GPa) = 30.31915 30.61660 30.46787
#
# Velocity S-wave (km/s) = 3.97767 3.99714 3.98742
# Velocity P-wave (km/s) = 7.59152 7.62504 7.60830
#
# Compressibility (1/GPa) = 0.01428329
#
# Stress axis : x y z
#
# Youngs Moduli (GPa) = 81.20791 81.70718 73.10950
#
# Poissons Ratio (x) = 0.24615 0.39923
# Poissons Ratio (y) = 0.24464 0.25592
# Poissons Ratio (z) = 0.44346 0.28602
#
# Static dielectric constant tensor:
#      x y z
#    x 1.637890 0.000000 0.000000 
#    y 0.000000 1.714800 0.000000 
#    z 0.000000 0.000000 1.680470 
# 
# From -- ./inp_files/13294.got.cif
#   From: 2010.05.17/outbox.ucp.g08.bks.cvg/sg60_7_cif.got.tgz:13294.got - 2010.06.11 16:26:41.
