data_PCOD9458898
_publ_section_title
;
Structure prediction by ZEFSAII (Michael W. Deem and Ramdas Pophale) SiO2 
 PCOD9458898
Probable space group: P B C N
;
_chemical_formula_sum "Si O2"
_cell_formula_units_Z 60
_cell_length_a 15.000000
_cell_length_b 9.000000
_cell_length_c 24.000000
_cell_angle_alpha 90.000000
_cell_angle_beta 90.000000
_cell_angle_gamma 90.000000
_cell_volume 3240.000000
_symmetry_space_group_name_H-M "P B C N"
_symmetry_group_IT_number 60
_symmetry_cell_setting 'orthorhombic'
loop_
_space_group_symop_operation_xyz
x,y,z
1/2-x,1/2-y,1/2+z
1/2+x,1/2-y,-z
-x,y,1/2-z
-x,-y,-z
1/2+x,1/2+y,1/2-z
1/2-x,1/2+y,z
x,-y,1/2+z
loop_
_atom_site_type_symbol
_atom_site_label
_atom_site_fract_x
_atom_site_fract_y
_atom_site_fract_z
Si Si1 0.791435 0.824507 0.747676
Si Si2 0.354731 0.618079 0.691648
Si Si3 0.892330 0.573734 0.563554
Si Si4 0.500000 0.187821 0.250000
Si Si5 0.722495 0.393685 0.988345
Si Si6 0.355681 0.975905 0.307688
Si Si7 0.350580 0.319123 0.064186
Si Si8 0.533664 0.225047 0.005818
O O1 0.723245 0.729059 0.786130
O O2 0.845957 0.689676 0.718855
O O3 0.843284 0.953399 0.781882
O O4 0.733290 0.925190 0.704395
O O5 0.444433 0.702730 0.710104
O O6 0.350964 0.613059 0.625392
O O7 0.795472 0.618384 0.538161
O O8 0.877565 0.545242 0.627954
O O9 0.926578 0.424814 0.532830
O O10 0.973293 0.687539 0.548886
O O11 0.432400 0.077729 0.281083
O O12 0.784400 0.323254 0.939264
O O13 0.697890 0.563779 0.976374
O O14 0.624126 0.319811 0.995780
O O15 0.452908 0.286929 0.045251
#
# Coordination Sequence:
#
# PCOD9458898 Si02
#       8
#     8   8   8   4   8   8   8   8
#     4   9  21  39  61  86 122 146 216 247 291 375
#     4  10  20  41  59  88 116 161 194 256 304 359
#     4  10  22  40  64  88 128 163 199 255 315 358
#     4  10  22  40  60  84 128 150 208 254 302 362
#     4  11  22  40  60  93 125 158 206 252 295 376
#     4  10  21  39  62  90 116 168 195 255 310 359
#     4  11  22  38  65  88 123 164 200 247 313 358
#     4  10  22  40  58  94 126 155 209 252 292 380
#
# _framework density 18.518519000000001
#
# number of rings (size 3 to 8) (size 9 to 14) (size 15 to 20)
#    0.000    1.867    1.333    2.000    1.867    0.533 
#   14.400    0.000    0.000    0.000    0.000    0.000 
#    0.000    0.000    0.000    0.000    0.000    0.000 
#
# Total GULP energy -334251.613401 kJ/mol
# GULP energy per Si atom -5570.860223 kJ/mol
# Density = 1.847637 g / cm^3
# Si number density = 18.518519 Si / 1000 Ang^3
#
#
#
# Elastic Constant Matrix: (Units=GPa)
#
#
# Indices 1 2 3 4 5 6 
#
# 1 121.3516 25.4135 11.3742 0.0000 0.0000 0.0000
# 2 25.4135 91.9140 -8.0907 0.0000 0.0000 0.0000
# 3 11.3742 -8.0907 35.2160 0.0000 0.0000 0.0000
# 4 0.0000 0.0000 0.0000 13.7088 0.0000 0.0000
# 5 0.0000 0.0000 0.0000 0.0000 11.1245 0.0000
# 6 0.0000 0.0000 0.0000 0.0000 0.0000 37.2830
#
#
#
# Elastic Compliance Matrix: (Units=1/GPa)
#
#
# Indices 1 2 3 4 5 6 
#
# 1 0.009178 -0.002856 -0.003621 0.000000 0.000000 0.000000
# 2 -0.002856 0.011993 0.003678 0.000000 0.000000 0.000000
# 3 -0.003621 0.003678 0.030411 0.000000 0.000000 0.000000
# 4 0.000000 0.000000 0.000000 0.072946 0.000000 0.000000
# 5 0.000000 0.000000 0.000000 0.000000 0.089891 0.000000
# 6 0.000000 0.000000 0.000000 0.000000 0.000000 0.026822
#
#
# Mechanical properties :
#
#
# Convention : Reuss Voigt Hill
#
# Bulk Modulus (GPa) = 21.74679 33.98620 27.86649
# Shear Modulus (GPa) = 19.07182 27.07559 23.07371
#
# Velocity S-wave (km/s) = 3.21265 3.82787 3.53367
# Velocity P-wave (km/s) = 5.05275 6.15866 5.63291
#
# Compressibility (1/GPa) = 0.04598380
#
# Stress axis : x y z
#
# Youngs Moduli (GPa) = 108.95557 83.38031 32.88333
#
# Poissons Ratio (x) = 0.23816 0.11906
# Poissons Ratio (y) = 0.31122 -0.12094
# Poissons Ratio (z) = 0.39448 -0.30667
#
# Static dielectric constant tensor:
#      x y z
#    x 1.641790 0.000000 0.000000 
#    y 0.000000 1.654310 0.000000 
#    z 0.000000 0.000000 1.644660 
# 
# From -- ./inp_files/24417.got.cif
#   From: 2010.05.17/outbox.ucp.g08.bks.cvg/sg60_13_cif.got.tgz:24417.got - 2010.06.11 16:26:41.
