data_PCOD9458671
_publ_section_title
;
Structure prediction by ZEFSAII (Michael W. Deem and Ramdas Pophale) SiO2 
 PCOD9458671
Probable space group: P B C N
;
_chemical_formula_sum "Si O2"
_cell_formula_units_Z 24
_cell_length_a 11.833378
_cell_length_b 8.716316
_cell_length_c 10.147230
_cell_angle_alpha 90.000000
_cell_angle_beta 90.000000
_cell_angle_gamma 90.000000
_cell_volume 1046.620432
_symmetry_space_group_name_H-M "P B C N"
_symmetry_group_IT_number 60
_symmetry_cell_setting 'orthorhombic'
loop_
_space_group_symop_operation_xyz
x,y,z
1/2-x,1/2-y,1/2+z
1/2+x,1/2-y,-z
-x,y,1/2-z
-x,-y,-z
1/2+x,1/2+y,1/2-z
1/2-x,1/2+y,z
x,-y,1/2+z
loop_
_atom_site_type_symbol
_atom_site_label
_atom_site_fract_x
_atom_site_fract_y
_atom_site_fract_z
Si Si1 0.101229 0.162803 0.654156
Si Si2 0.828873 0.494030 0.299293
Si Si3 0.532091 0.194829 0.614707
O O1 0.204086 0.045414 0.655993
O O2 0.150000 0.326163 0.706202
O O3 0.000000 0.121957 0.750000
O O4 0.056568 0.200685 0.508246
O O5 0.923925 0.418855 0.395969
O O6 0.861822 0.590260 0.661807
O O7 0.500000 0.282885 0.750000
#
# Coordination Sequence:
#
# PCOD9458671 Si02
#       3
#     8   8   8
#     4  12  22  41  67  90 124 166 208 248 315 362
#     4   9  23  37  64  90 125 159 206 256 301 367
#     4   8  21  40  61  86 125 161 202 247 312 348
#
# _framework density 22.930949999999999
#
# number of rings (size 3 to 8) (size 9 to 14) (size 15 to 20)
#    2.000    0.000    3.333    1.000    4.667    0.000 
#    6.000    1.667    0.000    0.000    0.000    0.000 
#    0.000    0.000    0.000    0.000    0.000    0.000 
#
# Total GULP energy -134013.995613 kJ/mol
# GULP energy per Si atom -5583.916484 kJ/mol
# Density = 2.287876 g / cm^3
# Si number density = 22.930950 Si / 1000 Ang^3
#
#
#
# Elastic Constant Matrix: (Units=GPa)
#
#
# Indices 1 2 3 4 5 6 
#
# 1 101.5673 24.6116 -0.0003 0.0000 0.0000 0.0000
# 2 24.6116 83.9292 -0.2561 0.0000 0.0000 0.0000
# 3 -0.0003 -0.2561 104.6675 0.0000 0.0000 0.0000
# 4 0.0000 0.0000 0.0000 -21.3985 0.0000 0.0000
# 5 0.0000 0.0000 0.0000 0.0000 11.6537 0.0000
# 6 0.0000 0.0000 0.0000 0.0000 0.0000 35.0936
#
#
#
# Elastic Compliance Matrix: (Units=1/GPa)
#
#
# Indices 1 2 3 4 5 6 
#
# 1 0.010599 -0.003108 -0.000008 0.000000 0.000000 0.000000
# 2 -0.003108 0.012826 0.000031 0.000000 0.000000 0.000000
# 3 -0.000008 0.000031 0.009554 0.000000 0.000000 0.000000
# 4 0.000000 0.000000 0.000000 -0.046732 0.000000 0.000000
# 5 0.000000 0.000000 0.000000 0.000000 0.085810 0.000000
# 6 0.000000 0.000000 0.000000 0.000000 0.000000 0.028495
#
#
# Mechanical properties :
#
#
# Convention : Reuss Voigt Hill
#
# Bulk Modulus (GPa) = 37.29840 37.65269 37.47555
# Shear Modulus (GPa) = 43.23107 22.79034 33.01071
#
# Velocity S-wave (km/s) = 4.34668 3.15599 3.79828
# Velocity P-wave (km/s) = 6.44146 5.45307 5.96776
#
# Compressibility (1/GPa) = 0.02681080
#
# Stress axis : x y z
#
# Youngs Moduli (GPa) = 94.35007 77.96471 104.66665
#
# Poissons Ratio (x) = 0.24232 0.00079
# Poissons Ratio (y) = 0.29324 -0.00328
# Poissons Ratio (z) = 0.00071 -0.00245
#
# Static dielectric constant tensor:
#      x y z
#    x 1.830680 0.000000 0.000000 
#    y 0.000000 1.837460 0.000000 
#    z 0.000000 0.000000 1.890180 
# 
# From -- ./inp_files/10469.got.cif
#   From: 2010.05.17/outbox.cif.g08.bks.cpg/sg60_6_cif.got.tgz:10469.got - 2010.06.03 14:59:27.
