data_PCOD9458717
_publ_section_title
;
Structure prediction by ZEFSAII (Michael W. Deem and Ramdas Pophale) SiO2 
 PCOD9458717
Probable space group: P B C N
;
_chemical_formula_sum "Si O2"
_cell_formula_units_Z 28
_cell_length_a 15.336916
_cell_length_b 15.967819
_cell_length_c 4.772674
_cell_angle_alpha 90.000000
_cell_angle_beta 90.000000
_cell_angle_gamma 90.000000
_cell_volume 1168.814016
_symmetry_space_group_name_H-M "P B C N"
_symmetry_group_IT_number 60
_symmetry_cell_setting 'orthorhombic'
loop_
_space_group_symop_operation_xyz
x,y,z
1/2-x,1/2-y,1/2+z
1/2+x,1/2-y,-z
-x,y,1/2-z
-x,-y,-z
1/2+x,1/2+y,1/2-z
1/2-x,1/2+y,z
x,-y,1/2+z
loop_
_atom_site_type_symbol
_atom_site_label
_atom_site_fract_x
_atom_site_fract_y
_atom_site_fract_z
Si Si1 0.406849 0.219405 0.091881
Si Si2 0.145944 0.177843 0.039695
Si Si3 0.500000 0.565322 0.750000
Si Si4 0.809059 0.559412 0.529985
O O1 0.500000 0.220670 0.250000
O O2 0.335471 0.245860 0.327361
O O3 0.224994 0.113680 0.060793
O O4 0.387731 0.124753 0.000671
O O5 0.393390 0.281713 0.823887
O O6 0.500000 0.500000 0.500000
O O7 0.576902 0.625656 0.648064
O O8 0.808972 0.476355 0.341917
#
# Coordination Sequence:
#
# PCOD9458717 Si02
#       4
#     8   8   4   8
#     4  12  26  45  74 106 145 193 249 297 362 437
#     4  12  24  46  71 108 142 192 240 296 364 442
#     4  12  24  40  68 106 144 182 224 292 362 432
#     4  12  26  47  73 105 146 194 245 306 363 427
#
# _framework density 23.955905999999999
#
# number of rings (size 3 to 8) (size 9 to 14) (size 15 to 20)
#    0.000    0.000    1.429    9.429    0.000    1.143 
#    0.000    0.000    0.000    0.000    0.000    0.000 
#    0.000    0.000    0.000    0.000    0.000    0.000 
#
# Total GULP energy -156437.111856 kJ/mol
# GULP energy per Si atom -5587.039709 kJ/mol
# Density = 2.390138 g / cm^3
# Si number density = 23.955906 Si / 1000 Ang^3
#
#
#
# Elastic Constant Matrix: (Units=GPa)
#
#
# Indices 1 2 3 4 5 6 
#
# 1 69.7409 42.9410 14.0941 0.0000 0.0000 0.0000
# 2 42.9410 106.4812 18.0889 0.0000 0.0000 0.0000
# 3 14.0941 18.0889 150.8904 0.0000 0.0000 0.0000
# 4 0.0000 0.0000 0.0000 47.7199 0.0000 0.0000
# 5 0.0000 0.0000 0.0000 0.0000 27.9974 0.0000
# 6 0.0000 0.0000 0.0000 0.0000 0.0000 23.9029
#
#
#
# Elastic Compliance Matrix: (Units=1/GPa)
#
#
# Indices 1 2 3 4 5 6 
#
# 1 0.019190 -0.007589 -0.000883 0.000000 0.000000 0.000000
# 2 -0.007589 0.012588 -0.000800 0.000000 0.000000 0.000000
# 3 -0.000883 -0.000800 0.006806 0.000000 0.000000 0.000000
# 4 0.000000 0.000000 0.000000 0.020956 0.000000 0.000000
# 5 0.000000 0.000000 0.000000 0.000000 0.035718 0.000000
# 6 0.000000 0.000000 0.000000 0.000000 0.000000 0.041836
#
#
# Mechanical properties :
#
#
# Convention : Reuss Voigt Hill
#
# Bulk Modulus (GPa) = 49.90072 53.04006 51.47039
# Shear Modulus (GPa) = 30.80423 36.72327 33.76375
#
# Velocity S-wave (km/s) = 3.58980 3.91954 3.75829
# Velocity P-wave (km/s) = 6.16909 6.53242 6.35335
#
# Compressibility (1/GPa) = 0.02003979
#
# Stress axis : x y z
#
# Youngs Moduli (GPa) = 52.11124 79.44330 146.93561
#
# Poissons Ratio (x) = 0.60287 0.12970
# Poissons Ratio (y) = 0.39546 0.11758
# Poissons Ratio (z) = 0.04600 0.06357
#
# Static dielectric constant tensor:
#      x y z
#    x 2.003870 0.000000 0.000000 
#    y 0.000000 1.809470 0.000000 
#    z 0.000000 0.000000 1.967920 
# 
# From -- ./inp_files/609.got.cif
#   From: 2010.05.17/outbox.cif.g08.bks.cpg/sg60_1_cif.got.tgz:609.got - 2010.06.03 14:59:27.
