data_PCOD9458831
_publ_section_title
;
Structure prediction by ZEFSAII (Michael W. Deem and Ramdas Pophale) SiO2 
 PCOD9458831
Probable space group: P B C N
;
_chemical_formula_sum "Si O2"
_cell_formula_units_Z 24
_cell_length_a 13.585080
_cell_length_b 5.631980
_cell_length_c 9.175458
_cell_angle_alpha 90.000000
_cell_angle_beta 90.000000
_cell_angle_gamma 90.000000
_cell_volume 702.022539
_symmetry_space_group_name_H-M "P B C N"
_symmetry_group_IT_number 60
_symmetry_cell_setting 'orthorhombic'
loop_
_space_group_symop_operation_xyz
x,y,z
1/2-x,1/2-y,1/2+z
1/2+x,1/2-y,-z
-x,y,1/2-z
-x,-y,-z
1/2+x,1/2+y,1/2-z
1/2-x,1/2+y,z
x,-y,1/2+z
loop_
_atom_site_type_symbol
_atom_site_label
_atom_site_fract_x
_atom_site_fract_y
_atom_site_fract_z
Si Si1 0.804499 0.657899 0.536537
Si Si2 0.500000 0.000000 0.500000
Si Si3 0.000000 0.140390 0.250000
Si Si4 0.355578 0.765432 0.759344
O O1 0.737371 0.429790 0.479252
O O2 0.754907 0.711048 0.697054
O O3 0.897467 0.466169 0.626037
O O4 0.585159 0.533924 0.700721
O O5 0.393702 0.833335 0.595856
O O6 0.030639 0.273052 0.103777
#
# Coordination Sequence:
#
# PCOD9458831 Si02
#       4
#     8   4   4   8
#     4  12  27  52  87 132 179 231 293 359 445 544
#     4  12  28  56  86 120 172 234 302 368 444 528
#     4  12  30  58  88 124 176 236 300 378 450 526
#     4  12  28  53  88 129 181 234 292 368 448 536
#
# _framework density 34.186933000000003
#
# number of rings (size 3 to 8) (size 9 to 14) (size 15 to 20)
#    0.000    0.000    0.000    8.000    0.000   10.667 
#    0.000   20.000    0.000    0.000    0.000    0.000 
#    0.000    0.000    0.000    0.000    0.000    0.000 
#
# Total GULP energy -133974.561282 kJ/mol
# GULP energy per Si atom -5582.273387 kJ/mol
# Density = 3.410912 g / cm^3
# Si number density = 34.186933 Si / 1000 Ang^3
#
#
#
# Elastic Constant Matrix: (Units=GPa)
#
#
# Indices 1 2 3 4 5 6 
#
# 1 292.1969 65.6474 49.5658 0.0000 0.0000 0.0000
# 2 65.6474 195.6897 40.9458 0.0000 0.0000 0.0000
# 3 49.5658 40.9458 367.1736 0.0000 0.0000 0.0000
# 4 0.0000 0.0000 0.0000 95.5816 0.0000 0.0000
# 5 0.0000 0.0000 0.0000 0.0000 77.6854 0.0000
# 6 0.0000 0.0000 0.0000 0.0000 0.0000 111.7007
#
#
#
# Elastic Compliance Matrix: (Units=1/GPa)
#
#
# Indices 1 2 3 4 5 6 
#
# 1 0.003751 -0.001180 -0.000375 0.000000 0.000000 0.000000
# 2 -0.001180 0.005603 -0.000466 0.000000 0.000000 0.000000
# 3 -0.000375 -0.000466 0.002826 0.000000 0.000000 0.000000
# 4 0.000000 0.000000 0.000000 0.010462 0.000000 0.000000
# 5 0.000000 0.000000 0.000000 0.000000 0.012872 0.000000
# 6 0.000000 0.000000 0.000000 0.000000 0.000000 0.008952
#
#
# Mechanical properties :
#
#
# Convention : Reuss Voigt Hill
#
# Bulk Modulus (GPa) = 122.85266 129.70870 126.28068
# Shear Modulus (GPa) = 97.61533 103.58695 100.60114
#
# Velocity S-wave (km/s) = 5.34934 5.51053 5.43053
# Velocity P-wave (km/s) = 8.61205 8.86066 8.73724
#
# Compressibility (1/GPa) = 0.00813983
#
# Stress axis : x y z
#
# Youngs Moduli (GPa) = 266.59447 178.46391 353.85446
#
# Poissons Ratio (x) = 0.21057 0.13262
# Poissons Ratio (y) = 0.31456 0.16475
# Poissons Ratio (z) = 0.09991 0.08309
#
# Static dielectric constant tensor:
#      x y z
#    x 3.319370 0.000000 0.000000 
#    y 0.000000 2.814390 0.000000 
#    z 0.000000 0.000000 2.895530 
# 
# From -- ./inp_files/7683.got.cif
#   From: 2010.05.17/outbox.cif.g08.bks.cpg/sg60_4_cif.got.tgz:7683.got - 2010.06.03 14:59:27.
