data_PCOD9458391
_publ_section_title
;
Structure prediction by ZEFSAII (Michael W. Deem and Ramdas Pophale) SiO2 
 PCOD9458391
Probable space group: P B C N
;
_chemical_formula_sum "Si O2"
_cell_formula_units_Z 36
_cell_length_a 7.502335
_cell_length_b 9.709825
_cell_length_c 17.336634
_cell_angle_alpha 90.000000
_cell_angle_beta 90.000000
_cell_angle_gamma 90.000000
_cell_volume 1262.910681
_symmetry_space_group_name_H-M "P B C N"
_symmetry_group_IT_number 60
_symmetry_cell_setting 'orthorhombic'
loop_
_space_group_symop_operation_xyz
x,y,z
1/2-x,1/2-y,1/2+z
1/2+x,1/2-y,-z
-x,y,1/2-z
-x,-y,-z
1/2+x,1/2+y,1/2-z
1/2-x,1/2+y,z
x,-y,1/2+z
loop_
_atom_site_type_symbol
_atom_site_label
_atom_site_fract_x
_atom_site_fract_y
_atom_site_fract_z
Si Si1 0.652000 0.972929 0.311763
Si Si2 0.950966 0.192977 0.077770
Si Si3 0.446267 0.733501 0.658948
Si Si4 0.000000 0.878867 0.750000
Si Si5 0.715365 0.420396 0.041975
O O1 0.500000 0.935092 0.250000
O O2 0.798143 0.916902 0.552374
O O3 0.757615 0.846926 0.351695
O O4 0.573747 0.103970 0.357980
O O5 0.956515 0.190904 0.169168
O O6 0.090186 0.150482 0.891356
O O7 0.902044 0.344417 0.049807
O O8 0.500000 0.730509 0.750000
O O9 0.320033 0.462143 0.733671
O O10 0.880137 0.874490 0.963420
#
# Coordination Sequence:
#
# PCOD9458391 Si02
#       5
#     8   8   8   4   8
#     4  11  24  41  72 104 143 193 250 306 382 447
#     4  11  26  49  79 108 162 202 264 328 408 456
#     4  11  23  44  68 105 145 188 248 311 377 456
#     4  12  24  50  72 112 154 204 250 336 370 486
#     4  11  26  50  74 112 157 206 256 337 383 483
#
# _framework density 28.505578
#
# number of rings (size 3 to 8) (size 9 to 14) (size 15 to 20)
#    0.000    0.889    3.333    2.667    4.667    0.889 
#    4.000    0.000    0.000    0.000    0.000    0.000 
#    0.000    0.000    0.000    0.000    0.000    0.000 
#
# Total GULP energy -202030.701474 kJ/mol
# GULP energy per Si atom -5611.963930 kJ/mol
# Density = 2.844070 g / cm^3
# Si number density = 28.505578 Si / 1000 Ang^3
#
#
#
# Elastic Constant Matrix: (Units=GPa)
#
#
# Indices 1 2 3 4 5 6 
#
# 1 96.8733 -12.0415 0.8191 0.0000 0.0000 0.0000
# 2 -12.0415 124.3093 26.3180 0.0000 0.0000 0.0000
# 3 0.8191 26.3180 124.8454 0.0000 0.0000 0.0000
# 4 0.0000 0.0000 0.0000 41.7091 0.0000 0.0000
# 5 0.0000 0.0000 0.0000 0.0000 54.0061 0.0000
# 6 0.0000 0.0000 0.0000 0.0000 0.0000 57.3464
#
#
#
# Elastic Compliance Matrix: (Units=1/GPa)
#
#
# Indices 1 2 3 4 5 6 
#
# 1 0.010459 0.001076 -0.000295 0.000000 0.000000 0.000000
# 2 0.001076 0.008531 -0.001805 0.000000 0.000000 0.000000
# 3 -0.000295 -0.001805 0.008392 0.000000 0.000000 0.000000
# 4 0.000000 0.000000 0.000000 0.023976 0.000000 0.000000
# 5 0.000000 0.000000 0.000000 0.000000 0.018516 0.000000
# 6 0.000000 0.000000 0.000000 0.000000 0.000000 0.017438
#
#
# Mechanical properties :
#
#
# Convention : Reuss Voigt Hill
#
# Bulk Modulus (GPa) = 39.47568 41.80212 40.63890
# Shear Modulus (GPa) = 51.12140 52.67449 51.89795
#
# Velocity S-wave (km/s) = 4.23943 4.30334 4.27151
# Velocity P-wave (km/s) = 6.15160 6.27599 6.21411
#
# Compressibility (1/GPa) = 0.02533205
#
# Stress axis : x y z
#
# Youngs Moduli (GPa) = 95.61176 117.22128 119.15494
#
# Poissons Ratio (x) = -0.12609 0.03520
# Poissons Ratio (y) = -0.10285 0.21512
# Poissons Ratio (z) = 0.02824 0.21163
#
# Static dielectric constant tensor:
#      x y z
#    x 2.211850 0.000000 0.000000 
#    y 0.000000 2.255060 0.000000 
#    z 0.000000 0.000000 2.226060 
# 
# From -- ./inp_files/10795.got.cif
#   From: 2010.05.17/outbox.cif.g08.bks.cpg/sg60_6_cif.got.tgz:10795.got - 2010.06.03 14:59:27.
