data_PCOD9458006
_publ_section_title
;
Structure prediction by ZEFSAII (Michael W. Deem and Ramdas Pophale) SiO2 
 PCOD9458006
Probable space group: P B C N
;
_chemical_formula_sum "Si O2"
_cell_formula_units_Z 64
_cell_length_a 25.796667
_cell_length_b 13.885589
_cell_length_c 9.285710
_cell_angle_alpha 90.000000
_cell_angle_beta 90.000000
_cell_angle_gamma 90.000000
_cell_volume 3326.159109
_symmetry_space_group_name_H-M "P B C N"
_symmetry_group_IT_number 60
_symmetry_cell_setting 'orthorhombic'
loop_
_space_group_symop_operation_xyz
x,y,z
1/2-x,1/2-y,1/2+z
1/2+x,1/2-y,-z
-x,y,1/2-z
-x,-y,-z
1/2+x,1/2+y,1/2-z
1/2-x,1/2+y,z
x,-y,1/2+z
loop_
_atom_site_type_symbol
_atom_site_label
_atom_site_fract_x
_atom_site_fract_y
_atom_site_fract_z
Si Si1 0.389056 0.701340 0.328820
Si Si2 0.551885 0.604309 0.923887
Si Si3 0.947037 0.877450 0.925570
Si Si4 0.686601 0.438671 0.799758
Si Si5 0.808846 0.340506 0.055027
Si Si6 0.770096 0.200430 0.812877
Si Si7 0.374007 0.622688 0.811305
Si Si8 0.751769 0.523485 0.029683
O O1 0.405478 0.625876 0.452973
O O2 0.434939 0.690825 0.210642
O O3 0.340746 0.659368 0.239822
O O4 0.365622 0.796111 0.406697
O O5 0.544171 0.490953 0.888443
O O6 0.576350 0.652007 0.784300
O O7 0.498805 0.646871 0.986140
O O8 0.897107 0.877587 0.029821
O O9 0.645224 0.520105 0.752839
O O10 0.706850 0.456209 0.959379
O O11 0.734743 0.451187 0.690608
O O12 0.772336 0.309899 0.188751
O O13 0.783374 0.290475 0.914614
O O14 0.802230 0.455705 0.034409
O O15 0.824157 0.184981 0.727604
O O16 0.753602 0.116442 0.927530
#
# Coordination Sequence:
#
# PCOD9458006 Si02
#       8
#     8   8   8   8   8   8   8   8
#     4  12  21  34  51  78 113 149 193 231 278 332
#     4  11  20  35  49  77 110 152 197 229 273 331
#     4  11  22  31  54  75 109 155 194 232 272 334
#     4  11  18  33  53  70 112 150 190 232 270 328
#     4  12  24  37  57  82 111 157 196 233 288 337
#     4  11  25  37  56  83 114 152 196 235 279 343
#     4  11  19  34  52  75 105 151 188 227 274 326
#     4  11  21  37  51  78 110 155 193 234 276 333
#
# _framework density 19.241412
#
# number of rings (size 3 to 8) (size 9 to 14) (size 15 to 20)
#    0.000    0.750    7.500    3.000    1.750    2.000 
#    0.000    0.000    0.000    0.000    0.000    0.000 
#    0.000    4.000    0.000    0.500    0.000    0.000 
#
# Total GULP energy -356686.661237 kJ/mol
# GULP energy per Si atom -5573.229082 kJ/mol
# Density = 1.919762 g / cm^3
# Si number density = 19.241412 Si / 1000 Ang^3
#
#
#
# Elastic Constant Matrix: (Units=GPa)
#
#
# Indices 1 2 3 4 5 6 
#
# 1 54.7410 20.9571 15.6818 0.0000 0.0000 0.0000
# 2 20.9571 31.9204 6.2255 0.0000 0.0000 0.0000
# 3 15.6818 6.2255 80.3008 0.0000 0.0000 0.0000
# 4 0.0000 0.0000 0.0000 22.1606 0.0000 0.0000
# 5 0.0000 0.0000 0.0000 0.0000 32.2570 0.0000
# 6 0.0000 0.0000 0.0000 0.0000 0.0000 19.1424
#
#
#
# Elastic Compliance Matrix: (Units=1/GPa)
#
#
# Indices 1 2 3 4 5 6 
#
# 1 0.025457 -0.015986 -0.003732 0.000000 0.000000 0.000000
# 2 -0.015986 0.041847 -0.000122 0.000000 0.000000 0.000000
# 3 -0.003732 -0.000122 0.013192 0.000000 0.000000 0.000000
# 4 0.000000 0.000000 0.000000 0.045125 0.000000 0.000000
# 5 0.000000 0.000000 0.000000 0.000000 0.031001 0.000000
# 6 0.000000 0.000000 0.000000 0.000000 0.000000 0.052240
#
#
# Mechanical properties :
#
#
# Convention : Reuss Voigt Hill
#
# Bulk Modulus (GPa) = 24.50079 28.07679 26.28879
# Shear Modulus (GPa) = 19.07322 22.98518 21.02920
#
# Velocity S-wave (km/s) = 3.15184 3.46000 3.30951
# Velocity P-wave (km/s) = 5.09966 5.53043 5.31941
#
# Compressibility (1/GPa) = 0.04081501
#
# Stress axis : x y z
#
# Youngs Moduli (GPa) = 39.28188 23.89644 75.80632
#
# Poissons Ratio (x) = 0.38200 0.28292
# Poissons Ratio (y) = 0.62795 0.00928
# Poissons Ratio (z) = 0.14661 0.00293
#
# Static dielectric constant tensor:
#      x y z
#    x 1.737950 0.000000 0.000000 
#    y 0.000000 1.715810 0.000000 
#    z 0.000000 0.000000 1.728370 
# 
# From -- ./inp_files/8548.got.cif
#   From: 2010.05.17/outbox.cif.g08.bks.cpg/sg60_5_cif.got.tgz:8548.got - 2010.06.03 14:59:27.
