data_PCOD9458948
_publ_section_title
;
Structure prediction by ZEFSAII (Michael W. Deem and Ramdas Pophale) SiO2 
 PCOD9458948
Probable space group: P B C N
;
_chemical_formula_sum "Si O2"
_cell_formula_units_Z 64
_cell_length_a 21.000000
_cell_length_b 21.000000
_cell_length_c 9.000000
_cell_angle_alpha 90.000000
_cell_angle_beta 90.000000
_cell_angle_gamma 90.000000
_cell_volume 3969.000000
_symmetry_space_group_name_H-M "P B C N"
_symmetry_group_IT_number 60
_symmetry_cell_setting 'orthorhombic'
loop_
_space_group_symop_operation_xyz
x,y,z
1/2-x,1/2-y,1/2+z
1/2+x,1/2-y,-z
-x,y,1/2-z
-x,-y,-z
1/2+x,1/2+y,1/2-z
1/2-x,1/2+y,z
x,-y,1/2+z
loop_
_atom_site_type_symbol
_atom_site_label
_atom_site_fract_x
_atom_site_fract_y
_atom_site_fract_z
Si Si1 0.341376 0.722490 0.498721
Si Si2 0.337168 0.916396 0.690093
Si Si3 0.641919 0.249959 0.835325
Si Si4 0.262372 0.663087 0.011139
Si Si5 0.461499 0.143844 0.602222
Si Si6 0.651691 0.954453 0.473735
Si Si7 0.942806 0.309693 0.857387
Si Si8 0.748381 0.862175 0.324083
O O1 0.362353 0.718657 0.327509
O O2 0.288142 0.778593 0.500529
O O3 0.401045 0.750096 0.589407
O O4 0.306870 0.662171 0.573889
O O5 0.272115 0.883896 0.628909
O O6 0.332537 0.946719 0.852809
O O7 0.391222 0.861261 0.701094
O O8 0.356727 0.972781 0.577294
O O9 0.579043 0.209902 0.878985
O O10 0.696043 0.194825 0.830229
O O11 0.671218 0.304375 0.941236
O O12 0.267079 0.632163 0.848468
O O13 0.500000 0.127319 0.750000
O O14 0.410871 0.088724 0.560910
O O15 0.517746 0.155490 0.486165
O O16 0.710884 0.923212 0.384653
O O17 0.000000 0.290240 0.750000
#
# Coordination Sequence:
#
# PCOD9458948 Si02
#       8
#     8   8   8   8   8   8   8   8
#     4   9  17  30  49  69  96 124 158 204 250 294
#     4  11  23  36  51  69  97 133 173 213 246 291
#     4   9  17  30  49  70  94 125 159 202 251 293
#     4   9  18  31  50  71  92 120 162 206 254 295
#     4  11  22  35  50  71 102 138 170 203 242 294
#     4  11  23  36  51  69  97 133 173 211 249 288
#     4  11  22  35  48  72 103 136 172 203 243 291
#     4   9  18  31  50  71  92 121 160 207 255 294
#
# _framework density 16.124969
#
# number of rings (size 3 to 8) (size 9 to 14) (size 15 to 20)
#    0.000    2.000    2.500    1.500    5.250    4.000 
#    0.000    0.000    0.000    0.000    0.000    0.000 
#    0.000    2.000    0.000    0.125    0.000    0.125 
#
# Total GULP energy -356650.729519 kJ/mol
# GULP energy per Si atom -5572.667649 kJ/mol
# Density = 1.608827 g / cm^3
# Si number density = 16.124969 Si / 1000 Ang^3
#
#
#
# Elastic Constant Matrix: (Units=GPa)
#
#
# Indices 1 2 3 4 5 6 
#
# 1 31.2349 12.8060 -9.7516 0.0000 0.0000 0.0000
# 2 12.8060 21.7388 -8.0314 0.0000 0.0000 0.0000
# 3 -9.7516 -8.0314 46.1054 0.0000 0.0000 0.0000
# 4 0.0000 0.0000 0.0000 23.7355 0.0000 0.0000
# 5 0.0000 0.0000 0.0000 0.0000 19.3835 0.0000
# 6 0.0000 0.0000 0.0000 0.0000 0.0000 16.4972
#
#
#
# Elastic Compliance Matrix: (Units=1/GPa)
#
#
# Indices 1 2 3 4 5 6 
#
# 1 0.043277 -0.023633 0.005037 0.000000 0.000000 0.000000
# 2 -0.023633 0.062071 0.005814 0.000000 0.000000 0.000000
# 3 0.005037 0.005814 0.023767 0.000000 0.000000 0.000000
# 4 0.000000 0.000000 0.000000 0.042131 0.000000 0.000000
# 5 0.000000 0.000000 0.000000 0.000000 0.051590 0.000000
# 6 0.000000 0.000000 0.000000 0.000000 0.000000 0.060616
#
#
# Mechanical properties :
#
#
# Convention : Reuss Voigt Hill
#
# Bulk Modulus (GPa) = 9.65720 9.90281 9.78000
# Shear Modulus (GPa) = 14.55456 18.86033 16.70745
#
# Velocity S-wave (km/s) = 3.00761 3.42370 3.22238
# Velocity P-wave (km/s) = 4.25005 4.66729 4.46355
#
# Compressibility (1/GPa) = 0.10354972
#
# Stress axis : x y z
#
# Youngs Moduli (GPa) = 23.10677 16.11070 42.07437
#
# Poissons Ratio (x) = 0.38075 -0.21191
# Poissons Ratio (y) = 0.54609 -0.24461
# Poissons Ratio (z) = -0.11638 -0.09366
#
# Static dielectric constant tensor:
#      x y z
#    x 1.513670 0.000000 0.000000 
#    y 0.000000 1.515120 0.000000 
#    z 0.000000 0.000000 1.115360 
# 
# From -- ./inp_files/7632.got.cif
#   From: 2010.05.17/outbox.ucp.g08.bks.cvg/sg60_4_cif.got.tgz:7632.got - 2010.06.11 16:26:41.
