data_PCOD9458196
_publ_section_title
;
Structure prediction by ZEFSAII (Michael W. Deem and Ramdas Pophale) SiO2 
 PCOD9458196
Probable space group: P B C N
;
_chemical_formula_sum "Si O2"
_cell_formula_units_Z 48
_cell_length_a 17.157539
_cell_length_b 13.522181
_cell_length_c 9.850091
_cell_angle_alpha 90.000000
_cell_angle_beta 90.000000
_cell_angle_gamma 90.000000
_cell_volume 2285.293489
_symmetry_space_group_name_H-M "P B C N"
_symmetry_group_IT_number 60
_symmetry_cell_setting 'orthorhombic'
loop_
_space_group_symop_operation_xyz
x,y,z
1/2-x,1/2-y,1/2+z
1/2+x,1/2-y,-z
-x,y,1/2-z
-x,-y,-z
1/2+x,1/2+y,1/2-z
1/2-x,1/2+y,z
x,-y,1/2+z
loop_
_atom_site_type_symbol
_atom_site_label
_atom_site_fract_x
_atom_site_fract_y
_atom_site_fract_z
Si Si1 0.906110 0.297800 0.240228
Si Si2 0.692619 0.629379 0.120673
Si Si3 0.212109 0.956697 0.581068
Si Si4 0.973522 0.629516 0.106788
Si Si5 0.118356 0.439798 0.471061
Si Si6 0.655821 0.255545 0.037104
O O1 0.877370 0.205505 0.148951
O O2 0.869109 0.397557 0.178928
O O3 0.867713 0.280971 0.386507
O O4 0.000000 0.303981 0.250000
O O5 0.697873 0.563981 0.259356
O O6 0.770383 0.696621 0.098394
O O7 0.686763 0.559666 0.988353
O O8 0.304189 0.943929 0.556288
O O9 0.174017 0.869774 0.489129
O O10 0.920626 0.546586 0.036198
O O11 0.920928 0.726244 0.122325
O O12 0.000000 0.587630 0.250000
O O13 0.053733 0.636202 0.026558
#
# Coordination Sequence:
#
# PCOD9458196 Si02
#       6
#     8   8   8   8   8   8
#     4  11  23  44  67  95 130 179 219 269 332 395
#     4  11  25  43  67  95 135 171 225 271 326 386
#     4  11  25  42  64  98 127 175 220 273 323 392
#     4  11  23  36  60  98 131 162 209 269 334 402
#     4  11  22  37  65  94 130 167 207 267 343 388
#     4  11  23  41  65  94 129 169 221 268 324 400
#
# _framework density 21.003867
#
# number of rings (size 3 to 8) (size 9 to 14) (size 15 to 20)
#    0.000    1.000    5.000    1.500    4.667    0.000 
#    3.000    4.167    0.000    0.000    0.000    0.000 
#    0.000    0.000    0.000    0.000    0.000    0.000 
#
# Total GULP energy -267997.899524 kJ/mol
# GULP energy per Si atom -5583.289573 kJ/mol
# Density = 2.095606 g / cm^3
# Si number density = 21.003867 Si / 1000 Ang^3
#
#
#
# Elastic Constant Matrix: (Units=GPa)
#
#
# Indices 1 2 3 4 5 6 
#
# 1 51.3571 12.7340 15.3789 0.0000 0.0000 0.0000
# 2 12.7340 60.4832 16.2511 0.0000 0.0000 0.0000
# 3 15.3789 16.2511 53.0385 0.0000 0.0000 0.0000
# 4 0.0000 0.0000 0.0000 32.3358 0.0000 0.0000
# 5 0.0000 0.0000 0.0000 0.0000 25.5828 0.0000
# 6 0.0000 0.0000 0.0000 0.0000 0.0000 25.4114
#
#
#
# Elastic Compliance Matrix: (Units=1/GPa)
#
#
# Indices 1 2 3 4 5 6 
#
# 1 0.021863 -0.003160 -0.005371 0.000000 0.000000 0.000000
# 2 -0.003160 0.018473 -0.004744 0.000000 0.000000 0.000000
# 3 -0.005371 -0.004744 0.021865 0.000000 0.000000 0.000000
# 4 0.000000 0.000000 0.000000 0.030925 0.000000 0.000000
# 5 0.000000 0.000000 0.000000 0.000000 0.039089 0.000000
# 6 0.000000 0.000000 0.000000 0.000000 0.000000 0.039352
#
#
# Mechanical properties :
#
#
# Convention : Reuss Voigt Hill
#
# Bulk Modulus (GPa) = 28.04915 28.17854 28.11385
# Shear Modulus (GPa) = 23.80917 24.70032 24.25474
#
# Velocity S-wave (km/s) = 3.37049 3.43299 3.40188
# Velocity P-wave (km/s) = 5.34137 5.39990 5.37071
#
# Compressibility (1/GPa) = 0.03565170
#
# Stress axis : x y z
#
# Youngs Moduli (GPa) = 45.73855 54.13162 45.73465
#
# Poissons Ratio (x) = 0.17105 0.24565
# Poissons Ratio (y) = 0.14453 0.21697
# Poissons Ratio (z) = 0.24567 0.25681
#
# Static dielectric constant tensor:
#      x y z
#    x 1.804290 0.000000 0.000000 
#    y 0.000000 1.779070 0.000000 
#    z 0.000000 0.000000 1.898390 
# 
# From -- ./inp_files/6694.got.cif
#   From: 2010.05.17/outbox.cif.g08.bks.cpg/sg60_4_cif.got.tgz:6694.got - 2010.06.03 14:59:27.
