data_PCOD9458588
_publ_section_title
;
Structure prediction by ZEFSAII (Michael W. Deem and Ramdas Pophale) SiO2 
 PCOD9458588
Probable space group: P B C N
;
_chemical_formula_sum "Si O2"
_cell_formula_units_Z 40
_cell_length_a 9.435738
_cell_length_b 8.202977
_cell_length_c 23.122499
_cell_angle_alpha 90.000000
_cell_angle_beta 90.000000
_cell_angle_gamma 90.000000
_cell_volume 1789.707824
_symmetry_space_group_name_H-M "P B C N"
_symmetry_group_IT_number 60
_symmetry_cell_setting 'orthorhombic'
loop_
_space_group_symop_operation_xyz
x,y,z
1/2-x,1/2-y,1/2+z
1/2+x,1/2-y,-z
-x,y,1/2-z
-x,-y,-z
1/2+x,1/2+y,1/2-z
1/2-x,1/2+y,z
x,-y,1/2+z
loop_
_atom_site_type_symbol
_atom_site_label
_atom_site_fract_x
_atom_site_fract_y
_atom_site_fract_z
Si Si1 0.958131 0.146245 0.816264
Si Si2 0.270426 0.937871 0.633849
Si Si3 0.036070 0.625858 0.899945
Si Si4 0.391888 0.645446 0.016563
Si Si5 0.304165 0.780662 0.896045
O O1 0.853287 0.288690 0.838123
O O2 0.000000 0.160959 0.750000
O O3 0.096297 0.172293 0.855263
O O4 0.867386 0.986689 0.830152
O O5 0.213871 0.906504 0.568414
O O6 0.390606 0.078852 0.631867
O O7 0.142572 0.762861 0.875328
O O8 0.127743 0.459689 0.899958
O O9 0.982606 0.701580 0.960159
O O10 0.500000 0.500000 0.000000
O O11 0.310612 0.703903 0.959958
#
# Coordination Sequence:
#
# PCOD9458588 Si02
#       5
#     8   8   8   8   8
#     4  11  26  49  72 101 142 189 253 295 358 436
#     4  11  25  48  72 104 142 192 241 305 367 428
#     4  11  26  43  68 102 146 183 235 288 361 438
#     4  12  24  41  72 106 150 187 233 300 371 443
#     4  11  26  41  68 108 141 191 235 293 366 434
#
# _framework density 22.350017999999999
#
# number of rings (size 3 to 8) (size 9 to 14) (size 15 to 20)
#    0.000    0.800    4.000    1.800   11.200    3.200 
#    0.000    1.000    0.000    0.000    0.000    0.000 
#    0.000    0.000    0.000    0.000    0.000    0.000 
#
# Total GULP energy -223671.425340 kJ/mol
# GULP energy per Si atom -5591.785634 kJ/mol
# Density = 2.229915 g / cm^3
# Si number density = 22.350018 Si / 1000 Ang^3
#
#
#
# Elastic Constant Matrix: (Units=GPa)
#
#
# Indices 1 2 3 4 5 6 
#
# 1 162.8930 42.0662 70.7994 0.0000 0.0000 0.0000
# 2 42.0662 56.8984 10.9677 0.0000 0.0000 0.0000
# 3 70.7994 10.9677 107.2515 0.0000 0.0000 0.0000
# 4 0.0000 0.0000 0.0000 13.7017 0.0000 0.0000
# 5 0.0000 0.0000 0.0000 0.0000 21.9273 0.0000
# 6 0.0000 0.0000 0.0000 0.0000 0.0000 53.6523
#
#
#
# Elastic Compliance Matrix: (Units=1/GPa)
#
#
# Indices 1 2 3 4 5 6 
#
# 1 0.010592 -0.006613 -0.006316 0.000000 0.000000 0.000000
# 2 -0.006613 0.022058 0.002110 0.000000 0.000000 0.000000
# 3 -0.006316 0.002110 0.013277 0.000000 0.000000 0.000000
# 4 0.000000 0.000000 0.000000 0.072983 0.000000 0.000000
# 5 0.000000 0.000000 0.000000 0.000000 0.045605 0.000000
# 6 0.000000 0.000000 0.000000 0.000000 0.000000 0.018639
#
#
# Mechanical properties :
#
#
# Convention : Reuss Voigt Hill
#
# Bulk Modulus (GPa) = 41.17116 63.85660 52.51388
# Shear Modulus (GPa) = 23.48644 31.40357 27.44500
#
# Velocity S-wave (km/s) = 3.24519 3.75251 3.50803
# Velocity P-wave (km/s) = 5.70112 6.88537 6.32104
#
# Compressibility (1/GPa) = 0.02428885
#
# Stress axis : x y z
#
# Youngs Moduli (GPa) = 94.41175 45.33527 75.31685
#
# Poissons Ratio (x) = 0.29982 0.47568
# Poissons Ratio (y) = 0.62438 -0.15892
# Poissons Ratio (z) = 0.59627 -0.09566
#
# Static dielectric constant tensor:
#      x y z
#    x 1.846910 0.000000 0.000000 
#    y 0.000000 1.911890 0.000000 
#    z 0.000000 0.000000 1.745410 
# 
# From -- ./inp_files/23813.got.cif
#   From: 2010.05.17/outbox.cif.g08.bks.cpg/sg60_12_cif.got.tgz:23813.got - 2010.06.03 14:59:27.
