data_PCOD9458259
_publ_section_title
;
Structure prediction by ZEFSAII (Michael W. Deem and Ramdas Pophale) SiO2 
 PCOD9458259
Probable space group: P B C N
;
_chemical_formula_sum "Si O2"
_cell_formula_units_Z 64
_cell_length_a 18.868752
_cell_length_b 17.026914
_cell_length_c 9.435806
_cell_angle_alpha 90.000000
_cell_angle_beta 90.000000
_cell_angle_gamma 90.000000
_cell_volume 3031.503836
_symmetry_space_group_name_H-M "P B C N"
_symmetry_group_IT_number 60
_symmetry_cell_setting 'orthorhombic'
loop_
_space_group_symop_operation_xyz
x,y,z
1/2-x,1/2-y,1/2+z
1/2+x,1/2-y,-z
-x,y,1/2-z
-x,-y,-z
1/2+x,1/2+y,1/2-z
1/2-x,1/2+y,z
x,-y,1/2+z
loop_
_atom_site_type_symbol
_atom_site_label
_atom_site_fract_x
_atom_site_fract_y
_atom_site_fract_z
Si Si1 0.746900 0.681667 0.852215
Si Si2 0.214646 0.915304 0.872264
Si Si3 0.030876 0.735794 0.481703
Si Si4 0.959211 0.438860 0.398020
Si Si5 0.605065 0.778349 0.816377
Si Si6 0.839398 0.555835 0.353727
Si Si7 0.359883 0.688110 0.153398
Si Si8 0.276483 0.415045 0.426498
O O1 0.682834 0.744713 0.844390
O O2 0.818374 0.729829 0.825245
O O3 0.731795 0.619358 0.729301
O O4 0.744963 0.638645 0.002809
O O5 0.278145 0.938206 0.764333
O O6 0.155764 0.866657 0.787204
O O7 0.188331 0.998981 0.928867
O O8 0.041440 0.646159 0.530750
O O9 0.076462 0.746508 0.337434
O O10 0.061680 0.791756 0.602813
O O11 0.950114 0.749069 0.435626
O O12 0.881928 0.475369 0.366488
O O13 0.000000 0.433474 0.250000
O O14 0.000000 0.500000 0.500000
O O15 0.607578 0.872813 0.820918
O O16 0.800039 0.573710 0.500940
O O17 0.320077 0.644870 0.023317
#
# Coordination Sequence:
#
# PCOD9458259 Si02
#       8
#     8   8   8   8   8   8   8   8
#     4  12  22  41  70  95 130 175 229 283 347 406
#     4  11  25  40  64  96 133 171 222 294 338 407
#     4  11  25  42  67  97 141 182 226 278 344 411
#     4  12  27  43  63  96 146 194 223 263 333 429
#     4  11  22  42  68  96 134 179 222 286 343 408
#     4  11  24  40  62  97 139 176 225 267 338 408
#     4  11  23  41  64  96 131 170 230 282 339 402
#     4  11  24  42  65  96 131 175 221 285 345 399
#
# _framework density 21.111633000000001
#
# number of rings (size 3 to 8) (size 9 to 14) (size 15 to 20)
#    0.000    0.750    5.000    3.750    7.000    1.000 
#    0.000    0.000    0.000    4.500    0.000    0.000 
#    0.000    0.000    0.000    0.000    0.000    0.000 
#
# Total GULP energy -358274.382612 kJ/mol
# GULP energy per Si atom -5598.037228 kJ/mol
# Density = 2.106358 g / cm^3
# Si number density = 21.111633 Si / 1000 Ang^3
#
#
#
# Elastic Constant Matrix: (Units=GPa)
#
#
# Indices 1 2 3 4 5 6 
#
# 1 42.5534 -12.1809 2.6934 0.0000 0.0000 0.0000
# 2 -12.1809 62.7452 6.7234 0.0000 0.0000 0.0000
# 3 2.6934 6.7234 63.3966 0.0000 0.0000 0.0000
# 4 0.0000 0.0000 0.0000 16.2388 0.0000 0.0000
# 5 0.0000 0.0000 0.0000 0.0000 -30.2397 0.0000
# 6 0.0000 0.0000 0.0000 0.0000 0.0000 23.0472
#
#
#
# Elastic Compliance Matrix: (Units=1/GPa)
#
#
# Indices 1 2 3 4 5 6 
#
# 1 0.025042 0.005033 -0.001598 0.000000 0.000000 0.000000
# 2 0.005033 0.017132 -0.002031 0.000000 0.000000 0.000000
# 3 -0.001598 -0.002031 0.016057 0.000000 0.000000 0.000000
# 4 0.000000 0.000000 0.000000 0.061581 0.000000 0.000000
# 5 0.000000 0.000000 0.000000 0.000000 -0.033069 0.000000
# 6 0.000000 0.000000 0.000000 0.000000 0.000000 0.043389
#
#
# Mechanical properties :
#
#
# Convention : Reuss Voigt Hill
#
# Bulk Modulus (GPa) = 16.38291 18.12964 17.25628
# Shear Modulus (GPa) = 33.85944 13.23989 23.54966
#
# Velocity S-wave (km/s) = 4.00913 2.50699 3.34351
# Velocity P-wave (km/s) = 5.40442 4.12142 4.80593
#
# Compressibility (1/GPa) = 0.06103921
#
# Stress axis : x y z
#
# Youngs Moduli (GPa) = 39.93358 58.37007 62.27830
#
# Poissons Ratio (x) = -0.29375 0.09950
# Poissons Ratio (y) = -0.20097 0.12647
# Poissons Ratio (z) = 0.06380 0.11853
#
# Static dielectric constant tensor:
#      x y z
#    x 1.731830 0.000000 0.000000 
#    y 0.000000 1.751900 0.000000 
#    z 0.000000 0.000000 1.762180 
# 
# From -- ./inp_files/7570.got.cif
#   From: 2010.05.17/outbox.cif.g08.bks.cpg/sg60_4_cif.got.tgz:7570.got - 2010.06.03 14:59:27.
