data_PCOD9458857
_publ_section_title
;
Structure prediction by ZEFSAII (Michael W. Deem and Ramdas Pophale) SiO2 
 PCOD9458857
Probable space group: P B C N
;
_chemical_formula_sum "Si O2"
_cell_formula_units_Z 24
_cell_length_a 8.994594
_cell_length_b 9.780059
_cell_length_c 9.551862
_cell_angle_alpha 90.000000
_cell_angle_beta 90.000000
_cell_angle_gamma 90.000000
_cell_volume 840.254949
_symmetry_space_group_name_H-M "P B C N"
_symmetry_group_IT_number 60
_symmetry_cell_setting 'orthorhombic'
loop_
_space_group_symop_operation_xyz
x,y,z
1/2-x,1/2-y,1/2+z
1/2+x,1/2-y,-z
-x,y,1/2-z
-x,-y,-z
1/2+x,1/2+y,1/2-z
1/2-x,1/2+y,z
x,-y,1/2+z
loop_
_atom_site_type_symbol
_atom_site_label
_atom_site_fract_x
_atom_site_fract_y
_atom_site_fract_z
Si Si1 0.665116 0.342283 0.289709
Si Si2 0.396838 0.624697 0.113971
Si Si3 0.570944 0.884012 0.095598
O O1 0.500000 0.304788 0.250000
O O2 0.753114 0.213042 0.347834
O O3 0.660920 0.469026 0.399813
O O4 0.755179 0.380530 0.143614
O O5 0.500000 0.597269 0.250000
O O6 0.504039 0.738613 0.043102
O O7 0.500000 0.903572 0.250000
O O8 0.500000 0.000000 0.000000
#
# Coordination Sequence:
#
# PCOD9458857 Si02
#       3
#     8   8   8
#     4   9  17  33  57  87 121 161 210 262 317 391
#     4   8  17  33  53  83 120 158 205 260 319 385
#     4   9  19  38  61  88 126 169 211 270 336 396
#
# _framework density 28.562760000000001
#
# number of rings (size 3 to 8) (size 9 to 14) (size 15 to 20)
#    0.000    4.000    0.000    0.000    0.000    5.333 
#    0.000   33.333    0.000    0.000    0.000    0.000 
#    0.000    0.000    0.000    0.000    0.000    0.000 
#
# Total GULP energy -134142.918094 kJ/mol
# GULP energy per Si atom -5589.288254 kJ/mol
# Density = 2.849775 g / cm^3
# Si number density = 28.562760 Si / 1000 Ang^3
#
#
#
# Elastic Constant Matrix: (Units=GPa)
#
#
# Indices 1 2 3 4 5 6 
#
# 1 269.8737 65.7532 32.9932 0.0000 0.0000 0.0000
# 2 65.7532 254.8993 65.8293 0.0000 0.0000 0.0000
# 3 32.9932 65.8293 129.3919 0.0000 0.0000 0.0000
# 4 0.0000 0.0000 0.0000 55.4219 0.0000 0.0000
# 5 0.0000 0.0000 0.0000 0.0000 17.7819 0.0000
# 6 0.0000 0.0000 0.0000 0.0000 0.0000 51.1085
#
#
#
# Elastic Compliance Matrix: (Units=1/GPa)
#
#
# Indices 1 2 3 4 5 6 
#
# 1 0.003990 -0.000882 -0.000568 0.000000 0.000000 0.000000
# 2 -0.000882 0.004712 -0.002172 0.000000 0.000000 0.000000
# 3 -0.000568 -0.002172 0.008978 0.000000 0.000000 0.000000
# 4 0.000000 0.000000 0.000000 0.018043 0.000000 0.000000
# 5 0.000000 0.000000 0.000000 0.000000 0.056237 0.000000
# 6 0.000000 0.000000 0.000000 0.000000 0.000000 0.019566
#
#
# Mechanical properties :
#
#
# Convention : Reuss Voigt Hill
#
# Bulk Modulus (GPa) = 95.83904 109.25736 102.54820
# Shear Modulus (GPa) = 40.89954 57.50174 49.20064
#
# Velocity S-wave (km/s) = 3.78817 4.49171 4.15486
# Velocity P-wave (km/s) = 7.26363 8.07684 7.68100
#
# Compressibility (1/GPa) = 0.01043416
#
# Stress axis : x y z
#
# Youngs Moduli (GPa) = 250.63098 212.23711 111.37736
#
# Poissons Ratio (x) = 0.18728 0.06331
# Poissons Ratio (y) = 0.22116 0.24192
# Poissons Ratio (z) = 0.14247 0.46100
#
# Static dielectric constant tensor:
#      x y z
#    x 2.333160 0.000000 0.000000 
#    y 0.000000 2.159210 0.000000 
#    z 0.000000 0.000000 -0.008170 
# 
# From -- ./inp_files/3409.got.cif
#   From: 2010.05.17/outbox.cif.g08.bks.cpg/sg60_2_cif.got.tgz:3409.got - 2010.06.03 14:59:27.
