data_PCOD9458381
_publ_section_title
;
Structure prediction by ZEFSAII (Michael W. Deem and Ramdas Pophale) SiO2 
 PCOD9458381
Probable space group: P B C N
;
_chemical_formula_sum "Si O2"
_cell_formula_units_Z 36
_cell_length_a 12.358881
_cell_length_b 11.540543
_cell_length_c 10.072842
_cell_angle_alpha 90.000000
_cell_angle_beta 90.000000
_cell_angle_gamma 90.000000
_cell_volume 1436.671299
_symmetry_space_group_name_H-M "P B C N"
_symmetry_group_IT_number 60
_symmetry_cell_setting 'orthorhombic'
loop_
_space_group_symop_operation_xyz
x,y,z
1/2-x,1/2-y,1/2+z
1/2+x,1/2-y,-z
-x,y,1/2-z
-x,-y,-z
1/2+x,1/2+y,1/2-z
1/2-x,1/2+y,z
x,-y,1/2+z
loop_
_atom_site_type_symbol
_atom_site_label
_atom_site_fract_x
_atom_site_fract_y
_atom_site_fract_z
Si Si1 0.667072 0.012954 0.068019
Si Si2 0.396936 0.522877 0.914325
Si Si3 0.000000 0.162768 0.250000
Si Si4 0.653209 0.851459 0.322537
Si Si5 0.874121 0.738676 0.232196
O O1 0.785645 0.985308 0.010818
O O2 0.674242 0.131426 0.151823
O O3 0.643527 0.911289 0.175313
O O4 0.613761 0.051264 0.929329
O O5 0.409087 0.421414 0.807539
O O6 0.399314 0.646659 0.849863
O O7 0.500000 0.500000 0.000000
O O8 0.067318 0.248763 0.157205
O O9 0.775222 0.791129 0.327551
O O10 0.000000 0.696076 0.250000
#
# Coordination Sequence:
#
# PCOD9458381 Si02
#       5
#     8   8   4   8   8
#     4  11  26  47  71 108 145 188 245 294 376 434
#     4  11  23  43  74 101 142 189 241 301 362 436
#     4  12  24  48  68 108 140 188 250 296 360 444
#     4  11  27  46  72 104 145 191 238 307 359 443
#     4  11  23  44  71 105 139 189 238 299 366 431
#
# _framework density 25.057922999999999
#
# number of rings (size 3 to 8) (size 9 to 14) (size 15 to 20)
#    0.000    0.889    3.333    2.667    4.667    4.444 
#    4.000    0.000    0.000    0.000    0.000    0.000 
#    0.000    0.000    0.000    0.000    0.000    0.000 
#
# Total GULP energy -200411.674901 kJ/mol
# GULP energy per Si atom -5566.990969 kJ/mol
# Density = 2.500089 g / cm^3
# Si number density = 25.057923 Si / 1000 Ang^3
#
#
#
# Elastic Constant Matrix: (Units=GPa)
#
#
# Indices 1 2 3 4 5 6 
#
# 1 69.6501 23.7611 7.1572 0.0000 0.0000 0.0000
# 2 23.7611 83.4860 12.7177 0.0000 0.0000 0.0000
# 3 7.1572 12.7177 51.8307 0.0000 0.0000 0.0000
# 4 0.0000 0.0000 0.0000 22.0437 0.0000 0.0000
# 5 0.0000 0.0000 0.0000 0.0000 27.2011 0.0000
# 6 0.0000 0.0000 0.0000 0.0000 0.0000 12.4644
#
#
#
# Elastic Compliance Matrix: (Units=1/GPa)
#
#
# Indices 1 2 3 4 5 6 
#
# 1 0.015965 -0.004371 -0.001132 0.000000 0.000000 0.000000
# 2 -0.004371 0.013640 -0.002743 0.000000 0.000000 0.000000
# 3 -0.001132 -0.002743 0.020123 0.000000 0.000000 0.000000
# 4 0.000000 0.000000 0.000000 0.045365 0.000000 0.000000
# 5 0.000000 0.000000 0.000000 0.000000 0.036763 0.000000
# 6 0.000000 0.000000 0.000000 0.000000 0.000000 0.080228
#
#
# Mechanical properties :
#
#
# Convention : Reuss Voigt Hill
#
# Bulk Modulus (GPa) = 30.08878 32.47097 31.27987
# Shear Modulus (GPa) = 20.86325 23.09722 21.98023
#
# Velocity S-wave (km/s) = 2.88861 3.03933 2.96493
# Velocity P-wave (km/s) = 4.81240 5.03023 4.92252
#
# Compressibility (1/GPa) = 0.03323498
#
# Stress axis : x y z
#
# Youngs Moduli (GPa) = 62.63653 73.31327 49.69435
#
# Poissons Ratio (x) = 0.32048 0.05625
# Poissons Ratio (y) = 0.27381 0.13632
# Poissons Ratio (z) = 0.07090 0.20111
#
# Static dielectric constant tensor:
#      x y z
#    x 2.331160 0.000000 0.000000 
#    y 0.000000 1.991950 0.000000 
#    z 0.000000 0.000000 2.108170 
# 
# From -- ./inp_files/10645.got.cif
#   From: 2010.05.17/outbox.cif.g08.bks.cpg/sg60_6_cif.got.tgz:10645.got - 2010.06.03 14:59:27.
