data_PCOD9458978
_publ_section_title
;
Structure prediction by ZEFSAII (Michael W. Deem and Ramdas Pophale) SiO2 
 PCOD9458978
Probable space group: P B C A
;
_chemical_formula_sum "Si O2"
_cell_formula_units_Z 48
_cell_length_a 19.933459
_cell_length_b 15.217030
_cell_length_c 5.615668
_cell_angle_alpha 90.000000
_cell_angle_beta 90.000000
_cell_angle_gamma 90.000000
_cell_volume 1703.389588
_symmetry_space_group_name_H-M "P B C A"
_symmetry_group_IT_number 61
_symmetry_cell_setting 'orthorhombic'
loop_
_space_group_symop_operation_xyz
x,y,z
1/2-x,-y,1/2+z
1/2+x,1/2-y,-z
-x,1/2+y,1/2-z
-x,-y,-z
1/2+x,y,1/2-z
1/2-x,1/2+y,z
x,1/2-y,1/2+z
loop_
_atom_site_type_symbol
_atom_site_label
_atom_site_fract_x
_atom_site_fract_y
_atom_site_fract_z
Si Si1 0.752302 0.262997 0.749970
Si Si2 0.579239 0.851203 0.638172
Si Si3 0.670487 0.993335 0.771182
Si Si4 0.610496 0.300142 0.246626
Si Si5 0.529900 0.853411 0.137021
Si Si6 0.680559 0.050875 0.273228
O O1 0.789057 0.247152 0.501119
O O2 0.691488 0.190098 0.757126
O O3 0.708662 0.351318 0.746924
O O4 0.650967 0.891354 0.723773
O O5 0.569046 0.887335 0.370656
O O6 0.558043 0.748458 0.621796
O O7 0.536552 0.886284 0.865472
O O8 0.750807 0.005787 0.787033
O O9 0.646453 0.040592 0.529552
O O10 0.644906 0.023382 0.029545
O O11 0.598449 0.240703 0.485325
O O12 0.546924 0.362149 0.285148
#
# Coordination Sequence:
#
# PCOD9458978 Si02
#       6
#     8   8   8   8   8   8
#     4  10  21  35  58  86 103 138 180 232 269 303
#     4  10  18  30  50  81 103 140 178 215 263 320
#     4  10  21  37  59  75 108 156 175 212 272 325
#     4  10  16  30  51  78 101 142 169 211 277 321
#     4  10  17  30  50  80 110 132 171 229 263 310
#     4  10  21  40  56  78 109 144 187 215 264 335
#
# _framework density 28.179109
#
# number of rings (size 3 to 8) (size 9 to 14) (size 15 to 20)
#    0.000    2.000    3.333    2.000    0.000    0.000 
#    6.000    0.000    0.000    2.000    0.000    0.000 
#    0.000    0.000    0.000    0.000    0.000    0.000 
#
# Total GULP energy -267815.733987 kJ/mol
# GULP energy per Si atom -5579.494458 kJ/mol
# Density = 2.811497 g / cm^3
# Si number density = 28.179109 Si / 1000 Ang^3
#
#
#
# Elastic Constant Matrix: (Units=GPa)
#
#
# Indices 1 2 3 4 5 6 
#
# 1 71.9479 7.7785 1.1249 0.0000 0.0000 0.0000
# 2 7.7785 98.8250 49.8874 0.0000 0.0000 0.0000
# 3 1.1249 49.8874 310.8877 0.0000 0.0000 0.0000
# 4 0.0000 0.0000 0.0000 37.7583 0.0000 0.0000
# 5 0.0000 0.0000 0.0000 0.0000 40.8705 0.0000
# 6 0.0000 0.0000 0.0000 0.0000 0.0000 -9.3036
#
#
#
# Elastic Compliance Matrix: (Units=1/GPa)
#
#
# Indices 1 2 3 4 5 6 
#
# 1 0.014024 -0.001173 0.000138 0.000000 0.000000 0.000000
# 2 -0.001173 0.011109 -0.001778 0.000000 0.000000 0.000000
# 3 0.000138 -0.001778 0.003501 0.000000 0.000000 0.000000
# 4 0.000000 0.000000 0.000000 0.026484 0.000000 0.000000
# 5 0.000000 0.000000 0.000000 0.000000 0.024468 0.000000
# 6 0.000000 0.000000 0.000000 0.000000 0.000000 -0.107485
#
#
# Mechanical properties :
#
#
# Convention : Reuss Voigt Hill
#
# Bulk Modulus (GPa) = 43.46707 66.58246 55.02476
# Shear Modulus (GPa) = -342.41074 42.05636 -150.17719
#
# Velocity S-wave (km/s) = -11.03522 3.86744 -7.30818
# Velocity P-wave (km/s) = 12.12061 6.60472 7.18634
#
# Compressibility (1/GPa) = 0.02300592
#
# Stress axis : x y z
#
# Youngs Moduli (GPa) = 71.30813 90.01725 285.59425
#
# Poissons Ratio (x) = 0.10561 -0.03928
# Poissons Ratio (y) = 0.08366 0.50790
# Poissons Ratio (z) = -0.00981 0.16009
#
# Static dielectric constant tensor:
#      x y z
#    x 2.184350 0.000000 0.000000 
#    y 0.000000 2.646120 0.000000 
#    z 0.000000 0.000000 2.196630 
# 
# From -- ./inp_files/1326.got.cif
#   From: 2010.05.17/outbox.cif.g08.bks.cpg/sg61_1_cif.got.tgz:1326.got - 2010.06.03 15:17:17.
