data_PCOD9458294
_publ_section_title
;
Structure prediction by ZEFSAII (Michael W. Deem and Ramdas Pophale) SiO2 
 PCOD9458294
Probable space group: P B C N
;
_chemical_formula_sum "Si O2"
_cell_formula_units_Z 44
_cell_length_a 12.689641
_cell_length_b 16.002640
_cell_length_c 9.826375
_cell_angle_alpha 90.000000
_cell_angle_beta 90.000000
_cell_angle_gamma 90.000000
_cell_volume 1995.419927
_symmetry_space_group_name_H-M "P B C N"
_symmetry_group_IT_number 60
_symmetry_cell_setting 'orthorhombic'
loop_
_space_group_symop_operation_xyz
x,y,z
1/2-x,1/2-y,1/2+z
1/2+x,1/2-y,-z
-x,y,1/2-z
-x,-y,-z
1/2+x,1/2+y,1/2-z
1/2-x,1/2+y,z
x,-y,1/2+z
loop_
_atom_site_type_symbol
_atom_site_label
_atom_site_fract_x
_atom_site_fract_y
_atom_site_fract_z
Si Si1 0.266452 0.666133 0.102956
Si Si2 0.307529 0.922234 0.343322
Si Si3 0.961573 0.241029 0.523876
Si Si4 0.666785 0.658116 0.862932
Si Si5 0.803680 0.609796 0.114858
Si Si6 0.500000 0.167133 0.750000
O O1 0.235965 0.758082 0.155575
O O2 0.248601 0.613106 0.236364
O O3 0.195807 0.633276 0.979657
O O4 0.379813 0.673571 0.034833
O O5 0.198867 0.904345 0.259345
O O6 0.397205 0.889929 0.241521
O O7 0.339477 0.014246 0.392133
O O8 0.049945 0.194839 0.613267
O O9 0.892852 0.317112 0.593791
O O10 0.009850 0.278832 0.385727
O O11 0.712752 0.622042 0.003180
#
# Coordination Sequence:
#
# PCOD9458294 Si02
#       6
#     8   8   8   8   8   4
#     4  11  23  41  67 100 136 183 232 287 347 423
#     4  12  25  43  68 103 147 177 228 304 361 414
#     4  11  24  43  74  99 134 190 246 286 343 440
#     4  11  22  46  69  98 139 189 240 282 351 432
#     4  11  25  44  68 105 142 181 231 299 364 412
#     4  12  22  42  68 102 136 178 234 292 354 406
#
# _framework density 22.050497
#
# number of rings (size 3 to 8) (size 9 to 14) (size 15 to 20)
#    0.000    0.727    5.455    4.364    0.000    5.091 
#    0.000    5.455    0.000    0.000    0.000    0.000 
#    0.000    0.000    0.000    0.000    0.000    0.000 
#
# Total GULP energy -245531.805487 kJ/mol
# GULP energy per Si atom -5580.268307 kJ/mol
# Density = 2.200031 g / cm^3
# Si number density = 22.050497 Si / 1000 Ang^3
#
#
#
# Elastic Constant Matrix: (Units=GPa)
#
#
# Indices 1 2 3 4 5 6 
#
# 1 83.0192 10.1322 38.7619 0.0000 0.0000 0.0000
# 2 10.1322 34.5875 19.7988 0.0000 0.0000 0.0000
# 3 38.7619 19.7988 114.6960 0.0000 0.0000 0.0000
# 4 0.0000 0.0000 0.0000 20.9773 0.0000 0.0000
# 5 0.0000 0.0000 0.0000 0.0000 49.0581 0.0000
# 6 0.0000 0.0000 0.0000 0.0000 0.0000 18.9197
#
#
#
# Elastic Compliance Matrix: (Units=1/GPa)
#
#
# Indices 1 2 3 4 5 6 
#
# 1 0.014380 -0.001588 -0.004586 0.000000 0.000000 0.000000
# 2 -0.001588 0.032258 -0.005032 0.000000 0.000000 0.000000
# 3 -0.004586 -0.005032 0.011137 0.000000 0.000000 0.000000
# 4 0.000000 0.000000 0.000000 0.047671 0.000000 0.000000
# 5 0.000000 0.000000 0.000000 0.000000 0.020384 0.000000
# 6 0.000000 0.000000 0.000000 0.000000 0.000000 0.052855
#
#
# Mechanical properties :
#
#
# Convention : Reuss Voigt Hill
#
# Bulk Modulus (GPa) = 28.27687 41.07650 34.67669
# Shear Modulus (GPa) = 23.48708 28.69834 26.09271
#
# Velocity S-wave (km/s) = 3.26720 3.61152 3.44367
# Velocity P-wave (km/s) = 5.20426 6.00496 5.61889
#
# Compressibility (1/GPa) = 0.03536459
#
# Stress axis : x y z
#
# Youngs Moduli (GPa) = 69.53955 31.00052 89.79020
#
# Poissons Ratio (x) = 0.04922 0.41176
# Poissons Ratio (y) = 0.11040 0.45180
# Poissons Ratio (z) = 0.31890 0.15599
#
# Static dielectric constant tensor:
#      x y z
#    x 1.921840 0.000000 0.000000 
#    y 0.000000 1.824590 0.000000 
#    z 0.000000 0.000000 1.835680 
# 
# From -- ./inp_files/5846.got.cif
#   From: 2010.05.17/outbox.cif.g08.bks.cpg/sg60_3_cif.got.tgz:5846.got - 2010.06.03 14:59:27.
