data_PCOD9458315
_publ_section_title
;
Structure prediction by ZEFSAII (Michael W. Deem and Ramdas Pophale) SiO2 
 PCOD9458315
Probable space group: P B C N
;
_chemical_formula_sum "Si O2"
_cell_formula_units_Z 48
_cell_length_a 8.837858
_cell_length_b 29.083318
_cell_length_c 8.142078
_cell_angle_alpha 90.000000
_cell_angle_beta 90.000000
_cell_angle_gamma 90.000000
_cell_volume 2092.792787
_symmetry_space_group_name_H-M "P B C N"
_symmetry_group_IT_number 60
_symmetry_cell_setting 'orthorhombic'
loop_
_space_group_symop_operation_xyz
x,y,z
1/2-x,1/2-y,1/2+z
1/2+x,1/2-y,-z
-x,y,1/2-z
-x,-y,-z
1/2+x,1/2+y,1/2-z
1/2-x,1/2+y,z
x,-y,1/2+z
loop_
_atom_site_type_symbol
_atom_site_label
_atom_site_fract_x
_atom_site_fract_y
_atom_site_fract_z
Si Si1 0.330365 0.895765 0.318406
Si Si2 0.673122 0.439731 0.698581
Si Si3 0.831088 0.228397 0.181201
Si Si4 0.168486 0.354804 0.683816
Si Si5 0.330209 0.312703 0.184146
Si Si6 0.177227 0.487848 0.495559
O O1 0.500000 0.894399 0.250000
O O2 0.322826 0.871245 0.496625
O O3 0.225820 0.865191 0.200648
O O4 0.291444 0.948745 0.357403
O O5 0.500000 0.445439 0.750000
O O6 0.719070 0.386657 0.708837
O O7 0.721717 0.467238 0.537250
O O8 0.777836 0.463642 0.835970
O O9 0.719537 0.197151 0.290352
O O10 0.776390 0.280510 0.203239
O O11 0.000000 0.223944 0.250000
O O12 0.821299 0.208240 0.998083
O O13 0.000000 0.361849 0.750000
O O14 0.500000 0.309587 0.250000
O O15 0.000000 0.500000 0.500000
#
# Coordination Sequence:
#
# PCOD9458315 Si02
#       6
#     8   8   8   8   8   8
#     4  11  23  41  64  95 130 170 222 275 331 401
#     4  11  23  39  62  93 129 168 218 276 336 400
#     4  12  25  45  69  96 133 175 223 279 338 407
#     4  11  23  41  65  93 127 173 221 272 334 402
#     4  12  26  44  67  97 132 175 221 277 339 405
#     4  11  23  42  66  94 131 177 224 277 341 413
#
# _framework density 22.935859000000001
#
# number of rings (size 3 to 8) (size 9 to 14) (size 15 to 20)
#    0.000    0.667    0.000    9.500    0.000    3.333 
#    0.000    0.000    0.000    0.000    0.000    0.000 
#    0.000    0.000    0.000    0.000    0.000    0.000 
#
# Total GULP energy -268899.632341 kJ/mol
# GULP energy per Si atom -5602.075674 kJ/mol
# Density = 2.288366 g / cm^3
# Si number density = 22.935859 Si / 1000 Ang^3
#
#
#
# Elastic Constant Matrix: (Units=GPa)
#
#
# Indices 1 2 3 4 5 6 
#
# 1 77.5184 -0.8197 0.9959 0.0000 0.0000 0.0000
# 2 -0.8197 116.0030 24.4414 0.0000 0.0000 0.0000
# 3 0.9959 24.4414 89.2935 0.0000 0.0000 0.0000
# 4 0.0000 0.0000 0.0000 41.9258 0.0000 0.0000
# 5 0.0000 0.0000 0.0000 0.0000 36.0692 0.0000
# 6 0.0000 0.0000 0.0000 0.0000 0.0000 -57.2472
#
#
#
# Elastic Compliance Matrix: (Units=1/GPa)
#
#
# Indices 1 2 3 4 5 6 
#
# 1 0.012904 0.000129 -0.000179 0.000000 0.000000 0.000000
# 2 0.000129 0.009149 -0.002506 0.000000 0.000000 0.000000
# 3 -0.000179 -0.002506 0.011887 0.000000 0.000000 0.000000
# 4 0.000000 0.000000 0.000000 0.023852 0.000000 0.000000
# 5 0.000000 0.000000 0.000000 0.000000 0.027724 0.000000
# 6 0.000000 0.000000 0.000000 0.000000 0.000000 -0.017468
#
#
# Mechanical properties :
#
#
# Convention : Reuss Voigt Hill
#
# Bulk Modulus (GPa) = 34.68855 36.89445 35.79150
# Shear Modulus (GPa) = 60.40865 21.36270 40.88568
#
# Velocity S-wave (km/s) = 5.13763 3.05521 4.22668
# Velocity P-wave (km/s) = 7.09582 5.34477 6.28161
#
# Compressibility (1/GPa) = 0.02882795
#
# Stress axis : x y z
#
# Youngs Moduli (GPa) = 77.49635 109.29756 84.12616
#
# Poissons Ratio (x) = -0.01409 0.01508
# Poissons Ratio (y) = -0.00999 0.21080
# Poissons Ratio (z) = 0.01389 0.27388
#
# Static dielectric constant tensor:
#      x y z
#    x 1.764900 0.000000 0.000000 
#    y 0.000000 1.845260 0.000000 
#    z 0.000000 0.000000 1.879370 
# 
# From -- ./inp_files/4165.got.cif
#   From: 2010.05.17/outbox.cif.g08.bks.cpg/sg60_3_cif.got.tgz:4165.got - 2010.06.03 14:59:27.
