data_PCOD9458780
_publ_section_title
;
Structure prediction by ZEFSAII (Michael W. Deem and Ramdas Pophale) SiO2 
 PCOD9458780
Probable space group: P B C N
;
_chemical_formula_sum "Si O2"
_cell_formula_units_Z 40
_cell_length_a 9.774086
_cell_length_b 13.630127
_cell_length_c 13.451529
_cell_angle_alpha 90.000000
_cell_angle_beta 90.000000
_cell_angle_gamma 90.000000
_cell_volume 1792.040047
_symmetry_space_group_name_H-M "P B C N"
_symmetry_group_IT_number 60
_symmetry_cell_setting 'orthorhombic'
loop_
_space_group_symop_operation_xyz
x,y,z
1/2-x,1/2-y,1/2+z
1/2+x,1/2-y,-z
-x,y,1/2-z
-x,-y,-z
1/2+x,1/2+y,1/2-z
1/2-x,1/2+y,z
x,-y,1/2+z
loop_
_atom_site_type_symbol
_atom_site_label
_atom_site_fract_x
_atom_site_fract_y
_atom_site_fract_z
Si Si1 0.124669 0.130623 0.313475
Si Si2 0.799754 0.923620 0.129689
Si Si3 0.003984 0.392912 0.452394
Si Si4 0.271276 0.812146 0.181894
Si Si5 0.531148 0.302157 0.472571
O O1 0.190045 0.211920 0.240336
O O2 0.062569 0.179607 0.411939
O O3 0.000000 0.085808 0.250000
O O4 0.211654 0.040062 0.354850
O O5 0.661239 0.883142 0.081049
O O6 0.807772 0.876928 0.238092
O O7 0.928582 0.885415 0.066732
O O8 0.000000 0.500000 0.500000
O O9 0.902603 0.371506 0.360031
O O10 0.967435 0.306870 0.530558
O O11 0.169321 0.797791 0.090416
#
# Coordination Sequence:
#
# PCOD9458780 Si02
#       5
#     8   8   8   8   8
#     4  12  25  46  76 107 152 196 251 319 379 455
#     4  12  27  47  75 113 147 202 254 308 385 460
#     4  12  27  47  75 109 152 198 249 317 388 442
#     4  12  26  50  73 112 151 196 253 317 380 448
#     4  12  26  50  75 107 151 199 255 311 378 461
#
# _framework density 22.320931000000002
#
# number of rings (size 3 to 8) (size 9 to 14) (size 15 to 20)
#    0.000    0.000    4.000    5.400    5.600    0.000 
#    0.000    0.000    0.000    0.000    0.000    0.000 
#    0.000    0.000    0.000    0.000    0.000    0.000 
#
# Total GULP energy -223733.660035 kJ/mol
# GULP energy per Si atom -5593.341501 kJ/mol
# Density = 2.227013 g / cm^3
# Si number density = 22.320931 Si / 1000 Ang^3
#
#
#
# Elastic Constant Matrix: (Units=GPa)
#
#
# Indices 1 2 3 4 5 6 
#
# 1 98.3627 23.6031 54.3409 0.0000 0.0000 0.0000
# 2 23.6031 128.5067 36.9846 0.0000 0.0000 0.0000
# 3 54.3409 36.9846 113.5652 0.0000 0.0000 0.0000
# 4 0.0000 0.0000 0.0000 40.9888 0.0000 0.0000
# 5 0.0000 0.0000 0.0000 0.0000 42.2353 0.0000
# 6 0.0000 0.0000 0.0000 0.0000 0.0000 31.3017
#
#
#
# Elastic Compliance Matrix: (Units=1/GPa)
#
#
# Indices 1 2 3 4 5 6 
#
# 1 0.013877 -0.000704 -0.006411 0.000000 0.000000 0.000000
# 2 -0.000704 0.008622 -0.002471 0.000000 0.000000 0.000000
# 3 -0.006411 -0.002471 0.012678 0.000000 0.000000 0.000000
# 4 0.000000 0.000000 0.000000 0.024397 0.000000 0.000000
# 5 0.000000 0.000000 0.000000 0.000000 0.023677 0.000000
# 6 0.000000 0.000000 0.000000 0.000000 0.000000 0.031947
#
#
# Mechanical properties :
#
#
# Convention : Reuss Voigt Hill
#
# Bulk Modulus (GPa) = 62.47923 63.36576 62.92250
# Shear Modulus (GPa) = 35.78964 37.93890 36.86427
#
# Velocity S-wave (km/s) = 4.00861 4.12722 4.06834
# Velocity P-wave (km/s) = 7.03401 7.15276 7.09364
#
# Compressibility (1/GPa) = 0.01600532
#
# Stress axis : x y z
#
# Youngs Moduli (GPa) = 72.06111 115.97986 78.87687
#
# Poissons Ratio (x) = 0.08162 0.50568
# Poissons Ratio (y) = 0.05071 0.19492
# Poissons Ratio (z) = 0.46198 0.28661
#
# Static dielectric constant tensor:
#      x y z
#    x 1.821830 0.000000 0.000000 
#    y 0.000000 1.928150 0.000000 
#    z 0.000000 0.000000 1.800250 
# 
# From -- ./inp_files/14627.got.cif
#   From: 2010.05.17/outbox.cif.g08.bks.cpg/sg60_8_cif.got.tgz:14627.got - 2010.06.03 14:59:27.
