data_PCOD9458558
_publ_section_title
;
Structure prediction by ZEFSAII (Michael W. Deem and Ramdas Pophale) SiO2 
 PCOD9458558
Probable space group: P B C N
;
_chemical_formula_sum "Si O2"
_cell_formula_units_Z 48
_cell_length_a 4.997281
_cell_length_b 13.702471
_cell_length_c 30.306333
_cell_angle_alpha 90.000000
_cell_angle_beta 90.000000
_cell_angle_gamma 90.000000
_cell_volume 2075.229122
_symmetry_space_group_name_H-M "P B C N"
_symmetry_group_IT_number 60
_symmetry_cell_setting 'orthorhombic'
loop_
_space_group_symop_operation_xyz
x,y,z
1/2-x,1/2-y,1/2+z
1/2+x,1/2-y,-z
-x,y,1/2-z
-x,-y,-z
1/2+x,1/2+y,1/2-z
1/2-x,1/2+y,z
x,-y,1/2+z
loop_
_atom_site_type_symbol
_atom_site_label
_atom_site_fract_x
_atom_site_fract_y
_atom_site_fract_z
Si Si1 0.863120 0.894294 0.297718
Si Si2 0.989535 0.436063 0.070162
Si Si3 0.041867 0.232162 0.086548
Si Si4 0.653612 0.001896 0.667834
Si Si5 0.187699 0.912179 0.514164
Si Si6 0.486623 0.206071 0.354765
O O1 0.926342 0.796348 0.324715
O O2 0.000000 0.881499 0.250000
O O3 0.044182 0.978426 0.318921
O O4 0.556822 0.929629 0.305137
O O5 0.166163 0.341668 0.082562
O O6 0.867040 0.471356 0.115921
O O7 0.104364 0.531146 0.045947
O O8 0.812117 0.382928 0.032539
O O9 0.042892 0.172962 0.040819
O O10 0.254316 0.176962 0.117068
O O11 0.759992 0.232783 0.112392
O O12 0.591049 0.888479 0.673313
O O13 0.000000 0.000000 0.500000
#
# Coordination Sequence:
#
# PCOD9458558 Si02
#       6
#     8   8   8   8   8   8
#     4  12  27  48  75 109 140 179 237 298 366 434
#     4  11  25  44  67 102 143 187 238 293 345 413
#     4  12  26  43  73 101 140 193 240 283 358 406
#     4  12  25  48  77 103 143 192 231 291 364 432
#     4  11  27  42  66 103 144 190 241 297 334 419
#     4  12  25  47  74 105 138 188 234 294 351 435
#
# _framework density 23.129975000000002
#
# number of rings (size 3 to 8) (size 9 to 14) (size 15 to 20)
#    0.000    0.333    5.000    2.500    9.333    1.333 
#    0.000    0.000    0.000    0.000    0.000    0.000 
#    0.000    0.000    0.000    0.000    0.000    0.000 
#
# Total GULP energy -268230.882410 kJ/mol
# GULP energy per Si atom -5588.143384 kJ/mol
# Density = 2.307733 g / cm^3
# Si number density = 23.129975 Si / 1000 Ang^3
#
#
#
# Elastic Constant Matrix: (Units=GPa)
#
#
# Indices 1 2 3 4 5 6 
#
# 1 59.6154 -11.1339 6.4588 0.0000 0.0000 0.0000
# 2 -11.1339 94.8845 -7.2213 0.0000 0.0000 0.0000
# 3 6.4588 -7.2213 110.0392 0.0000 0.0000 0.0000
# 4 0.0000 0.0000 0.0000 21.7527 0.0000 0.0000
# 5 0.0000 0.0000 0.0000 0.0000 22.5012 0.0000
# 6 0.0000 0.0000 0.0000 0.0000 0.0000 34.5404
#
#
#
# Elastic Compliance Matrix: (Units=1/GPa)
#
#
# Indices 1 2 3 4 5 6 
#
# 1 0.017235 0.001955 -0.000883 0.000000 0.000000 0.000000
# 2 0.001955 0.010814 0.000595 0.000000 0.000000 0.000000
# 3 -0.000883 0.000595 0.009179 0.000000 0.000000 0.000000
# 4 0.000000 0.000000 0.000000 0.045971 0.000000 0.000000
# 5 0.000000 0.000000 0.000000 0.000000 0.044442 0.000000
# 6 0.000000 0.000000 0.000000 0.000000 0.000000 0.028952
#
#
# Mechanical properties :
#
#
# Convention : Reuss Voigt Hill
#
# Bulk Modulus (GPa) = 24.65429 26.74960 25.70194
# Shear Modulus (GPa) = 29.97976 34.18789 32.08383
#
# Velocity S-wave (km/s) = 3.60410 3.84875 3.72843
# Velocity P-wave (km/s) = 5.29165 5.59826 5.44711
#
# Compressibility (1/GPa) = 0.04056090
#
# Stress axis : x y z
#
# Youngs Moduli (GPa) = 58.02137 92.47418 108.94958
#
# Poissons Ratio (x) = -0.18080 0.09624
# Poissons Ratio (y) = -0.11344 -0.06481
# Poissons Ratio (z) = 0.05125 -0.05501
#
# Static dielectric constant tensor:
#      x y z
#    x 1.923700 0.000000 0.000000 
#    y 0.000000 1.932140 0.000000 
#    z 0.000000 0.000000 2.264780 
# 
# From -- ./inp_files/25660.got.cif
#   From: 2010.05.17/outbox.cif.g08.bks.cpg/sg60_13_cif.got.tgz:25660.got - 2010.06.03 14:59:27.
