data_PCOD9458108
_publ_section_title
;
Structure prediction by ZEFSAII (Michael W. Deem and Ramdas Pophale) SiO2 
 PCOD9458108
Probable space group: P B C N
;
_chemical_formula_sum "Si O2"
_cell_formula_units_Z 64
_cell_length_a 9.268865
_cell_length_b 18.032422
_cell_length_c 16.896244
_cell_angle_alpha 90.000000
_cell_angle_beta 90.000000
_cell_angle_gamma 90.000000
_cell_volume 2824.039661
_symmetry_space_group_name_H-M "P B C N"
_symmetry_group_IT_number 60
_symmetry_cell_setting 'orthorhombic'
loop_
_space_group_symop_operation_xyz
x,y,z
1/2-x,1/2-y,1/2+z
1/2+x,1/2-y,-z
-x,y,1/2-z
-x,-y,-z
1/2+x,1/2+y,1/2-z
1/2-x,1/2+y,z
x,-y,1/2+z
loop_
_atom_site_type_symbol
_atom_site_label
_atom_site_fract_x
_atom_site_fract_y
_atom_site_fract_z
Si Si1 0.196906 0.344754 0.043871
Si Si2 0.417332 0.334193 0.323878
Si Si3 0.697826 0.401883 0.940338
Si Si4 0.422478 0.949571 0.673016
Si Si5 0.006063 0.774967 0.486813
Si Si6 0.160777 0.389997 0.221505
Si Si7 0.020924 0.998380 0.841522
Si Si8 0.691977 0.988033 0.565509
O O1 0.338742 0.298156 0.017187
O O2 0.196588 0.352779 0.138094
O O3 0.048705 0.304771 0.019021
O O4 0.200340 0.423294 0.999633
O O5 0.500000 0.299462 0.250000
O O6 0.426613 0.283293 0.399404
O O7 0.265256 0.361311 0.289964
O O8 0.494713 0.412495 0.345288
O O9 0.821641 0.393452 0.874589
O O10 0.589851 0.462057 0.902188
O O11 0.598556 0.332599 0.960636
O O12 0.771763 0.436505 0.018460
O O13 0.500000 0.916910 0.750000
O O14 0.541555 0.982684 0.612112
O O15 0.334176 0.021342 0.705151
O O16 0.000000 0.374332 0.250000
O O17 0.179368 0.977499 0.872039
O O18 0.000000 0.976180 0.750000
#
# Coordination Sequence:
#
# PCOD9458108 Si02
#       8
#     8   8   8   8   8   8   8   8
#     4  12  28  48  69 103 140 188 238 287 346 419
#     4  11  21  41  72 100 132 178 231 289 347 415
#     4  12  23  41  69 103 134 173 232 286 349 408
#     4  11  24  40  65 107 142 177 220 287 355 408
#     4  12  28  46  72 100 138 187 239 286 350 416
#     4  11  24  42  71 105 139 177 233 286 348 421
#     4  11  21  37  69 102 134 169 222 292 347 406
#     4  12  23  41  69 102 139 175 227 288 349 406
#
# _framework density 22.662571
#
# number of rings (size 3 to 8) (size 9 to 14) (size 15 to 20)
#    0.000    0.500    5.000    5.250    3.500    0.000 
#    0.000    3.750    0.000    0.000    0.000    0.000 
#    0.000    0.000    0.000    0.000    0.000    0.000 
#
# Total GULP energy -358492.139269 kJ/mol
# GULP energy per Si atom -5601.439676 kJ/mol
# Density = 2.261099 g / cm^3
# Si number density = 22.662571 Si / 1000 Ang^3
#
#
#
# Elastic Constant Matrix: (Units=GPa)
#
#
# Indices 1 2 3 4 5 6 
#
# 1 101.3831 4.4472 28.4646 0.0000 0.0000 0.0000
# 2 4.4472 31.7461 5.6542 0.0000 0.0000 0.0000
# 3 28.4646 5.6542 98.3761 0.0000 0.0000 0.0000
# 4 0.0000 0.0000 0.0000 16.0053 0.0000 0.0000
# 5 0.0000 0.0000 0.0000 0.0000 49.0233 0.0000
# 6 0.0000 0.0000 0.0000 0.0000 0.0000 31.7338
#
#
#
# Elastic Compliance Matrix: (Units=1/GPa)
#
#
# Indices 1 2 3 4 5 6 
#
# 1 0.010765 -0.000963 -0.003059 0.000000 0.000000 0.000000
# 2 -0.000963 0.031912 -0.001555 0.000000 0.000000 0.000000
# 3 -0.003059 -0.001555 0.011140 0.000000 0.000000 0.000000
# 4 0.000000 0.000000 0.000000 0.062479 0.000000 0.000000
# 5 0.000000 0.000000 0.000000 0.000000 0.020398 0.000000
# 6 0.000000 0.000000 0.000000 0.000000 0.000000 0.031512
#
#
# Mechanical properties :
#
#
# Convention : Reuss Voigt Hill
#
# Bulk Modulus (GPa) = 23.44095 34.29305 28.86700
# Shear Modulus (GPa) = 25.82880 32.21509 29.02195
#
# Velocity S-wave (km/s) = 3.37962 3.77438 3.58245
# Velocity P-wave (km/s) = 5.05916 5.84461 5.46601
#
# Compressibility (1/GPa) = 0.04266038
#
# Stress axis : x y z
#
# Youngs Moduli (GPa) = 92.89544 31.33632 89.76905
#
# Poissons Ratio (x) = 0.03018 0.27464
# Poissons Ratio (y) = 0.08947 0.13963
# Poissons Ratio (z) = 0.28420 0.04874
#
# Static dielectric constant tensor:
#      x y z
#    x 1.885000 0.000000 0.000000 
#    y 0.000000 1.822130 0.000000 
#    z 0.000000 0.000000 1.836180 
# 
# From -- ./inp_files/19728.got.cif
#   From: 2010.05.17/outbox.cif.g08.bks.cpg/sg60_10_cif.got.tgz:19728.got - 2010.06.03 14:59:27.
