data_PCOD9458310
_publ_section_title
;
Structure prediction by ZEFSAII (Michael W. Deem and Ramdas Pophale) SiO2 
 PCOD9458310
Probable space group: P B C N
;
_chemical_formula_sum "Si O2"
_cell_formula_units_Z 56
_cell_length_a 11.088105
_cell_length_b 21.707451
_cell_length_c 11.654596
_cell_angle_alpha 90.000000
_cell_angle_beta 90.000000
_cell_angle_gamma 90.000000
_cell_volume 2805.197110
_symmetry_space_group_name_H-M "P B C N"
_symmetry_group_IT_number 60
_symmetry_cell_setting 'orthorhombic'
loop_
_space_group_symop_operation_xyz
x,y,z
1/2-x,1/2-y,1/2+z
1/2+x,1/2-y,-z
-x,y,1/2-z
-x,-y,-z
1/2+x,1/2+y,1/2-z
1/2-x,1/2+y,z
x,-y,1/2+z
loop_
_atom_site_type_symbol
_atom_site_label
_atom_site_fract_x
_atom_site_fract_y
_atom_site_fract_z
Si Si1 0.891498 0.420449 0.058752
Si Si2 0.763465 0.833625 0.609116
Si Si3 0.084677 0.559691 0.363154
Si Si4 0.000000 0.847595 0.750000
Si Si5 0.386627 0.715903 0.830396
Si Si6 0.827701 0.850668 0.946945
Si Si7 0.718831 0.785617 0.369492
Si Si8 0.500000 0.164775 0.750000
O O1 0.880334 0.490035 0.104272
O O2 0.920923 0.378377 0.167832
O O3 0.774666 0.396428 0.990880
O O4 0.003355 0.417017 0.969897
O O5 0.703156 0.897708 0.647149
O O6 0.889518 0.818893 0.673156
O O7 0.661930 0.782459 0.633818
O O8 0.771773 0.826271 0.472337
O O9 0.000000 0.561326 0.250000
O O10 0.917730 0.877051 0.850783
O O11 0.500000 0.721711 0.750000
O O12 0.283651 0.692966 0.745413
O O13 0.399661 0.673992 0.941785
O O14 0.765950 0.787114 0.898423
O O15 0.578904 0.795410 0.338966
#
# Coordination Sequence:
#
# PCOD9458310 Si02
#       8
#     8   8   8   4   8   8   8   4
#     4  11  24  43  71 101 132 175 220 281 342 393
#     4  11  24  39  64  94 133 178 225 273 337 398
#     4  11  23  42  69 103 133 169 226 287 336 394
#     4  12  23  44  60  90 132 178 219 274 320 404
#     4  11  23  38  61  95 131 172 220 276 333 404
#     4  11  24  40  64  93 131 175 219 266 337 402
#     4  11  23  38  64  96 134 177 212 272 337 404
#     4  12  21  44  68 100 138 170 219 272 342 402
#
# _framework density 19.962947
#
# number of rings (size 3 to 8) (size 9 to 14) (size 15 to 20)
#    0.000    0.857    5.000    2.571    2.000    0.000 
#    0.000    0.714    1.571    0.000    0.000    0.000 
#    0.000    0.000    0.000    0.000    0.000    0.000 
#
# Total GULP energy -312336.416861 kJ/mol
# GULP energy per Si atom -5577.436015 kJ/mol
# Density = 1.991751 g / cm^3
# Si number density = 19.962947 Si / 1000 Ang^3
#
#
#
# Elastic Constant Matrix: (Units=GPa)
#
#
# Indices 1 2 3 4 5 6 
#
# 1 77.4594 41.8418 19.0394 0.0000 0.0000 0.0000
# 2 41.8418 71.5176 31.7740 0.0000 0.0000 0.0000
# 3 19.0394 31.7740 120.2025 0.0000 0.0000 0.0000
# 4 0.0000 0.0000 0.0000 25.0350 0.0000 0.0000
# 5 0.0000 0.0000 0.0000 0.0000 46.1035 0.0000
# 6 0.0000 0.0000 0.0000 0.0000 0.0000 22.6560
#
#
#
# Elastic Compliance Matrix: (Units=1/GPa)
#
#
# Indices 1 2 3 4 5 6 
#
# 1 0.018876 -0.011008 -0.000080 0.000000 0.000000 0.000000
# 2 -0.011008 0.022263 -0.004141 0.000000 0.000000 0.000000
# 3 -0.000080 -0.004141 0.009427 0.000000 0.000000 0.000000
# 4 0.000000 0.000000 0.000000 0.039944 0.000000 0.000000
# 5 0.000000 0.000000 0.000000 0.000000 0.021690 0.000000
# 6 0.000000 0.000000 0.000000 0.000000 0.000000 0.044138
#
#
# Mechanical properties :
#
#
# Convention : Reuss Voigt Hill
#
# Bulk Modulus (GPa) = 49.73432 50.49889 50.11661
# Shear Modulus (GPa) = 25.83997 30.52720 28.18358
#
# Velocity S-wave (km/s) = 3.60168 3.91473 3.76146
# Velocity P-wave (km/s) = 6.50104 6.76644 6.63507
#
# Compressibility (1/GPa) = 0.02010684
#
# Stress axis : x y z
#
# Youngs Moduli (GPa) = 52.97768 44.91814 106.08208
#
# Poissons Ratio (x) = 0.49445 0.00849
# Poissons Ratio (y) = 0.58317 0.43931
# Poissons Ratio (z) = 0.00424 0.18602
#
# Static dielectric constant tensor:
#      x y z
#    x 1.115690 0.000000 0.000000 
#    y 0.000000 1.700320 0.000000 
#    z 0.000000 0.000000 1.759340 
# 
# From -- ./inp_files/11218.got.cif
#   From: 2010.05.17/outbox.cif.g08.bks.cpg/sg60_6_cif.got.tgz:11218.got - 2010.06.03 14:59:27.
