data_PCOD9458945
_publ_section_title
;
Structure prediction by ZEFSAII (Michael W. Deem and Ramdas Pophale) SiO2 
 PCOD9458945
Probable space group: P B C N
;
_chemical_formula_sum "Si O2"
_cell_formula_units_Z 48
_cell_length_a 9.000000
_cell_length_b 30.000000
_cell_length_c 9.000000
_cell_angle_alpha 90.000000
_cell_angle_beta 90.000000
_cell_angle_gamma 90.000000
_cell_volume 2430.000000
_symmetry_space_group_name_H-M "P B C N"
_symmetry_group_IT_number 60
_symmetry_cell_setting 'orthorhombic'
loop_
_space_group_symop_operation_xyz
x,y,z
1/2-x,1/2-y,1/2+z
1/2+x,1/2-y,-z
-x,y,1/2-z
-x,-y,-z
1/2+x,1/2+y,1/2-z
1/2-x,1/2+y,z
x,-y,1/2+z
loop_
_atom_site_type_symbol
_atom_site_label
_atom_site_fract_x
_atom_site_fract_y
_atom_site_fract_z
Si Si1 0.764823 0.619936 0.158623
Si Si2 0.844258 0.029433 0.189203
Si Si3 0.918045 0.716090 0.489504
Si Si4 0.424774 0.882800 0.519321
Si Si5 0.843116 0.476118 0.976551
Si Si6 0.764519 0.718675 0.170832
O O1 0.645145 0.581501 0.150199
O O2 0.845039 0.621326 0.319649
O O3 0.706674 0.669189 0.135803
O O4 0.900682 0.609389 0.047845
O O5 0.706793 0.027139 0.305515
O O6 0.000000 0.013245 0.250000
O O7 0.790088 0.002191 0.050466
O O8 0.906616 0.665528 0.548596
O O9 0.814513 0.721958 0.342328
O O10 0.858678 0.747589 0.616827
O O11 0.083777 0.723736 0.426245
O O12 0.356839 0.927109 0.451709
O O13 0.000000 0.500000 0.000000
#
# Coordination Sequence:
#
# PCOD9458945 Si02
#       6
#     8   8   8   8   8   8
#     4   8  15  32  53  78 104 139 186 220 258 324
#     4  11  22  36  55  85 116 140 180 238 286 323
#     4   9  18  34  55  77 110 138 180 224 269 317
#     4   8  15  31  56  77 100 142 188 225 251 319
#     4  11  20  36  61  81 106 149 193 224 271 337
#     4   9  18  34  55  79 106 143 178 224 267 319
#
# _framework density 19.753086
#
# number of rings (size 3 to 8) (size 9 to 14) (size 15 to 20)
#    0.000    2.667    1.667    3.000    0.000    0.667 
#    9.000    1.667    7.333    0.000    0.000    0.000 
#    0.000    0.000    0.000    0.000    0.000    0.000 
#
# Total GULP energy -267340.664915 kJ/mol
# GULP energy per Si atom -5569.597186 kJ/mol
# Density = 1.970813 g / cm^3
# Si number density = 19.753086 Si / 1000 Ang^3
#
#
#
# Elastic Constant Matrix: (Units=GPa)
#
#
# Indices 1 2 3 4 5 6 
#
# 1 29.1524 40.1191 10.6921 0.0000 0.0000 0.0000
# 2 40.1191 107.9910 25.3408 0.0000 0.0000 0.0000
# 3 10.6921 25.3408 13.1291 0.0000 0.0000 0.0000
# 4 0.0000 0.0000 0.0000 23.4524 0.0000 0.0000
# 5 0.0000 0.0000 0.0000 0.0000 25.6858 0.0000
# 6 0.0000 0.0000 0.0000 0.0000 0.0000 16.1157
#
#
#
# Elastic Compliance Matrix: (Units=1/GPa)
#
#
# Indices 1 2 3 4 5 6 
#
# 1 0.071324 -0.023519 -0.012689 0.000000 0.000000 0.000000
# 2 -0.023519 0.024682 -0.028485 0.000000 0.000000 0.000000
# 3 -0.012689 -0.028485 0.141482 0.000000 0.000000 0.000000
# 4 0.000000 0.000000 0.000000 0.042640 0.000000 0.000000
# 5 0.000000 0.000000 0.000000 0.000000 0.038932 0.000000
# 6 0.000000 0.000000 0.000000 0.000000 0.000000 0.062051
#
#
# Mechanical properties :
#
#
# Convention : Reuss Voigt Hill
#
# Bulk Modulus (GPa) = 9.25081 33.61963 21.43522
# Shear Modulus (GPa) = 9.14860 17.99214 13.57037
#
# Velocity S-wave (km/s) = 2.15442 3.02131 2.62391
# Velocity P-wave (km/s) = 3.29880 5.40629 4.47828
#
# Compressibility (1/GPa) = 0.10809859
#
# Stress axis : x y z
#
# Youngs Moduli (GPa) = 14.02058 40.51554 7.06806
#
# Poissons Ratio (x) = 0.95290 0.08969
# Poissons Ratio (y) = 0.32976 0.20134
# Poissons Ratio (z) = 0.17791 1.15410
#
# Static dielectric constant tensor:
#      x y z
#    x 1.739120 0.000000 0.000000 
#    y 0.000000 1.761690 0.000000 
#    z 0.000000 0.000000 1.699240 
# 
# From -- ./inp_files/4251.got.cif
#   From: 2010.05.17/outbox.ucp.g08.bks.cvg/sg60_3_cif.got.tgz:4251.got - 2010.06.11 16:26:41.
