data_PCOD9458003
_publ_section_title
;
Structure prediction by ZEFSAII (Michael W. Deem and Ramdas Pophale) SiO2 
 PCOD9458003
Probable space group: P B C N
;
_chemical_formula_sum "Si O2"
_cell_formula_units_Z 64
_cell_length_a 17.973915
_cell_length_b 8.425352
_cell_length_c 24.007109
_cell_angle_alpha 90.000000
_cell_angle_beta 90.000000
_cell_angle_gamma 90.000000
_cell_volume 3635.554019
_symmetry_space_group_name_H-M "P B C N"
_symmetry_group_IT_number 60
_symmetry_cell_setting 'orthorhombic'
loop_
_space_group_symop_operation_xyz
x,y,z
1/2-x,1/2-y,1/2+z
1/2+x,1/2-y,-z
-x,y,1/2-z
-x,-y,-z
1/2+x,1/2+y,1/2-z
1/2-x,1/2+y,z
x,-y,1/2+z
loop_
_atom_site_type_symbol
_atom_site_label
_atom_site_fract_x
_atom_site_fract_y
_atom_site_fract_z
Si Si1 0.681447 0.833868 0.639308
Si Si2 0.080965 0.470009 0.431197
Si Si3 0.317425 0.433490 0.538612
Si Si4 0.790912 0.226316 0.034934
Si Si5 0.721578 0.307945 0.795597
Si Si6 0.790280 0.947195 0.212782
Si Si7 0.700828 0.032756 0.874328
Si Si8 0.921590 0.355308 0.451458
O O1 0.732911 0.809930 0.584500
O O2 0.667132 0.664071 0.668703
O O3 0.607366 0.923894 0.620453
O O4 0.730086 0.949058 0.678899
O O5 0.146219 0.343901 0.442881
O O6 0.075902 0.585567 0.484773
O O7 0.002944 0.380149 0.426029
O O8 0.256444 0.311868 0.513420
O O9 0.326081 0.568282 0.491672
O O10 0.278718 0.516689 0.591930
O O11 0.388511 0.322880 0.549937
O O12 0.674529 0.432365 0.758410
O O13 0.750632 0.180685 0.751817
O O14 0.687578 0.201208 0.844277
O O15 0.788911 0.402463 0.826046
O O16 0.635236 0.027139 0.919077
#
# Coordination Sequence:
#
# PCOD9458003 Si02
#       8
#     8   8   8   8   8   8   8   8
#     4  11  17  33  57  80 108 149 182 234 287 335
#     4  11  23  36  52  84 121 150 185 233 285 347
#     4  12  19  32  56  84 111 150 194 229 273 347
#     4  12  19  32  56  84 110 145 194 230 274 345
#     4   9  19  31  53  88 105 129 190 251 274 320
#     4   9  19  31  53  88 105 128 191 251 276 318
#     4  11  17  33  57  80 108 149 181 231 287 337
#     4  11  23  36  52  84 122 148 185 231 282 350
#
# _framework density 17.603918
#
# number of rings (size 3 to 8) (size 9 to 14) (size 15 to 20)
#    0.000    1.250    7.500    0.000    0.000    0.500 
#    0.000    0.000    0.000    6.750    3.250    0.000 
#    0.000    0.000    0.000    0.000    0.000    0.000 
#
# Total GULP energy -356322.738843 kJ/mol
# GULP energy per Si atom -5567.542794 kJ/mol
# Density = 1.756385 g / cm^3
# Si number density = 17.603918 Si / 1000 Ang^3
#
#
#
# Elastic Constant Matrix: (Units=GPa)
#
#
# Indices 1 2 3 4 5 6 
#
# 1 52.2886 14.5991 8.5503 0.0000 0.0000 0.0000
# 2 14.5991 85.6942 30.9581 0.0000 0.0000 0.0000
# 3 8.5503 30.9581 73.9880 0.0000 0.0000 0.0000
# 4 0.0000 0.0000 0.0000 51.9179 0.0000 0.0000
# 5 0.0000 0.0000 0.0000 0.0000 6.1489 0.0000
# 6 0.0000 0.0000 0.0000 0.0000 0.0000 16.8233
#
#
#
# Elastic Compliance Matrix: (Units=1/GPa)
#
#
# Indices 1 2 3 4 5 6 
#
# 1 0.020149 -0.003053 -0.001051 0.000000 0.000000 0.000000
# 2 -0.003053 0.014210 -0.005593 0.000000 0.000000 0.000000
# 3 -0.001051 -0.005593 0.015977 0.000000 0.000000 0.000000
# 4 0.000000 0.000000 0.000000 0.019261 0.000000 0.000000
# 5 0.000000 0.000000 0.000000 0.000000 0.162632 0.000000
# 6 0.000000 0.000000 0.000000 0.000000 0.000000 0.059441
#
#
# Mechanical properties :
#
#
# Convention : Reuss Voigt Hill
#
# Bulk Modulus (GPa) = 32.31812 35.57619 33.94715
# Shear Modulus (GPa) = 15.55798 25.50225 20.53011
#
# Velocity S-wave (km/s) = 2.97607 3.81027 3.41871
# Velocity P-wave (km/s) = 5.49615 6.29370 5.90840
#
# Compressibility (1/GPa) = 0.03094240
#
# Stress axis : x y z
#
# Youngs Moduli (GPa) = 49.63061 70.37289 62.58846
#
# Poissons Ratio (x) = 0.21484 0.06579
# Poissons Ratio (y) = 0.15152 0.35005
# Poissons Ratio (z) = 0.05217 0.39359
#
# Static dielectric constant tensor:
#      x y z
#    x 1.564740 0.000000 0.000000 
#    y 0.000000 1.660170 0.000000 
#    z 0.000000 0.000000 1.666370 
# 
# From -- ./inp_files/24535.got.cif
#   From: 2010.05.17/outbox.cif.g08.bks.cpg/sg60_13_cif.got.tgz:24535.got - 2010.06.03 14:59:27.
