data_PCOD9458431
_publ_section_title
;
Structure prediction by ZEFSAII (Michael W. Deem and Ramdas Pophale) SiO2 
 PCOD9458431
Probable space group: P B C N
;
_chemical_formula_sum "Si O2"
_cell_formula_units_Z 32
_cell_length_a 12.135231
_cell_length_b 7.850498
_cell_length_c 12.688550
_cell_angle_alpha 90.000000
_cell_angle_beta 90.000000
_cell_angle_gamma 90.000000
_cell_volume 1208.807791
_symmetry_space_group_name_H-M "P B C N"
_symmetry_group_IT_number 60
_symmetry_cell_setting 'orthorhombic'
loop_
_space_group_symop_operation_xyz
x,y,z
1/2-x,1/2-y,1/2+z
1/2+x,1/2-y,-z
-x,y,1/2-z
-x,-y,-z
1/2+x,1/2+y,1/2-z
1/2-x,1/2+y,z
x,-y,1/2+z
loop_
_atom_site_type_symbol
_atom_site_label
_atom_site_fract_x
_atom_site_fract_y
_atom_site_fract_z
Si Si1 0.121468 0.005022 0.769485
Si Si2 0.997217 0.564710 0.871610
Si Si3 0.381957 0.755059 0.963691
Si Si4 0.294564 0.186939 0.139978
O O1 0.123306 0.099644 0.881921
O O2 0.139979 0.152069 0.682359
O O3 0.000000 0.941175 0.750000
O O4 0.212510 0.867804 0.735445
O O5 0.882434 0.459945 0.882623
O O6 0.000000 0.602769 0.750000
O O7 0.094748 0.431257 0.899332
O O8 0.983053 0.722560 0.951556
O O9 0.275513 0.733260 0.037173
#
# Coordination Sequence:
#
# PCOD9458431 Si02
#       4
#     8   8   8   8
#     4  12  27  51  71 113 159 195 270 322 377 490
#     4  11  23  48  77 113 149 205 267 318 394 484
#     4  11  25  44  78 108 152 206 255 322 400 459
#     4  12  25  47  73 112 151 204 254 328 393 456
#
# _framework density 26.472363999999999
#
# number of rings (size 3 to 8) (size 9 to 14) (size 15 to 20)
#    0.000    0.500    7.500    0.000    3.500    2.000 
#    4.500    0.000    0.000    0.000    0.000    0.000 
#    0.000    0.000    0.000    0.000    0.000    0.000 
#
# Total GULP energy -179231.991526 kJ/mol
# GULP energy per Si atom -5600.999735 kJ/mol
# Density = 2.641211 g / cm^3
# Si number density = 26.472364 Si / 1000 Ang^3
#
#
#
# Elastic Constant Matrix: (Units=GPa)
#
#
# Indices 1 2 3 4 5 6 
#
# 1 152.0272 58.7076 54.3869 0.0000 0.0000 0.0000
# 2 58.7076 107.7590 57.6338 0.0000 0.0000 0.0000
# 3 54.3869 57.6338 215.3221 0.0000 0.0000 0.0000
# 4 0.0000 0.0000 0.0000 15.6512 0.0000 0.0000
# 5 0.0000 0.0000 0.0000 0.0000 45.8546 0.0000
# 6 0.0000 0.0000 0.0000 0.0000 0.0000 16.6891
#
#
#
# Elastic Compliance Matrix: (Units=1/GPa)
#
#
# Indices 1 2 3 4 5 6 
#
# 1 0.008534 -0.004081 -0.001063 0.000000 0.000000 0.000000
# 2 -0.004081 0.012782 -0.002390 0.000000 0.000000 0.000000
# 3 -0.001063 -0.002390 0.005553 0.000000 0.000000 0.000000
# 4 0.000000 0.000000 0.000000 0.063893 0.000000 0.000000
# 5 0.000000 0.000000 0.000000 0.000000 0.021808 0.000000
# 6 0.000000 0.000000 0.000000 0.000000 0.000000 0.059919
#
#
# Mechanical properties :
#
#
# Convention : Reuss Voigt Hill
#
# Bulk Modulus (GPa) = 84.75019 90.72946 87.73982
# Shear Modulus (GPa) = 26.11096 35.93097 31.02097
#
# Velocity S-wave (km/s) = 3.14402 3.68815 3.42691
# Velocity P-wave (km/s) = 6.72785 7.24461 6.99100
#
# Compressibility (1/GPa) = 0.01179938
#
# Stress axis : x y z
#
# Youngs Moduli (GPa) = 117.17880 78.23717 180.09520
#
# Poissons Ratio (x) = 0.31926 0.19150
# Poissons Ratio (y) = 0.47817 0.43051
# Poissons Ratio (z) = 0.12460 0.18702
#
# Static dielectric constant tensor:
#      x y z
#    x 2.054940 0.000000 0.000000 
#    y 0.000000 2.089770 0.000000 
#    z 0.000000 0.000000 2.114030 
# 
# From -- ./inp_files/15609.got.cif
#   From: 2010.05.17/outbox.cif.g08.bks.cpg/sg60_8_cif.got.tgz:15609.got - 2010.06.03 14:59:27.
