data_PCOD9458556
_publ_section_title
;
Structure prediction by ZEFSAII (Michael W. Deem and Ramdas Pophale) SiO2 
 PCOD9458556
Probable space group: P B C N
;
_chemical_formula_sum "Si O2"
_cell_formula_units_Z 40
_cell_length_a 9.956705
_cell_length_b 15.725338
_cell_length_c 10.696610
_cell_angle_alpha 90.000000
_cell_angle_beta 90.000000
_cell_angle_gamma 90.000000
_cell_volume 1674.795520
_symmetry_space_group_name_H-M "P B C N"
_symmetry_group_IT_number 60
_symmetry_cell_setting 'orthorhombic'
loop_
_space_group_symop_operation_xyz
x,y,z
1/2-x,1/2-y,1/2+z
1/2+x,1/2-y,-z
-x,y,1/2-z
-x,-y,-z
1/2+x,1/2+y,1/2-z
1/2-x,1/2+y,z
x,-y,1/2+z
loop_
_atom_site_type_symbol
_atom_site_label
_atom_site_fract_x
_atom_site_fract_y
_atom_site_fract_z
Si Si1 0.263613 0.400570 0.037216
Si Si2 0.704237 0.908715 0.981835
Si Si3 0.456546 0.663262 0.901035
Si Si4 0.980934 0.701390 0.889403
Si Si5 0.348830 0.833913 0.775707
O O1 0.199784 0.493386 0.054992
O O2 0.407974 0.393263 0.106597
O O3 0.168315 0.332941 0.102079
O O4 0.236094 0.375589 0.889359
O O5 0.718532 0.851059 0.857394
O O6 0.837109 0.898460 0.063575
O O7 0.580680 0.872486 0.062107
O O8 0.385375 0.735954 0.812691
O O9 0.501395 0.722668 0.015582
O O10 0.000000 0.729809 0.750000
O O11 0.500000 0.872256 0.750000
#
# Coordination Sequence:
#
# PCOD9458556 Si02
#       5
#     8   8   8   8   8
#     4  11  26  45  72 106 143 186 238 305 366 423
#     4  12  26  46  72 106 144 190 239 305 369 430
#     4  11  26  46  71 104 144 187 243 295 368 430
#     4  11  25  43  73 100 141 190 244 286 359 441
#     4  11  25  46  74  98 146 186 245 291 354 437
#
# _framework density 23.883514000000002
#
# number of rings (size 3 to 8) (size 9 to 14) (size 15 to 20)
#    0.000    0.800    4.000    3.600    8.400    0.000 
#    0.000    0.000    0.000    0.000    0.000    0.000 
#    0.000    0.000    0.000    0.000    0.000    0.000 
#
# Total GULP energy -223333.896390 kJ/mol
# GULP energy per Si atom -5583.347410 kJ/mol
# Density = 2.382915 g / cm^3
# Si number density = 23.883514 Si / 1000 Ang^3
#
#
#
# Elastic Constant Matrix: (Units=GPa)
#
#
# Indices 1 2 3 4 5 6 
#
# 1 83.6179 -25.9710 16.6224 0.0000 0.0000 0.0000
# 2 -25.9710 65.0249 9.3587 0.0000 0.0000 0.0000
# 3 16.6224 9.3587 54.5737 0.0000 0.0000 0.0000
# 4 0.0000 0.0000 0.0000 -19.0153 0.0000 0.0000
# 5 0.0000 0.0000 0.0000 0.0000 12.7264 0.0000
# 6 0.0000 0.0000 0.0000 0.0000 0.0000 28.5240
#
#
#
# Elastic Compliance Matrix: (Units=1/GPa)
#
#
# Indices 1 2 3 4 5 6 
#
# 1 0.015277 0.006943 -0.005844 0.000000 0.000000 0.000000
# 2 0.006943 0.018923 -0.005360 0.000000 0.000000 0.000000
# 3 -0.005844 -0.005360 0.021023 0.000000 0.000000 0.000000
# 4 0.000000 0.000000 0.000000 -0.052589 0.000000 0.000000
# 5 0.000000 0.000000 0.000000 0.000000 0.078577 0.000000
# 6 0.000000 0.000000 0.000000 0.000000 0.000000 0.035058
#
#
# Mechanical properties :
#
#
# Convention : Reuss Voigt Hill
#
# Bulk Modulus (GPa) = 21.41250 22.58185 21.99717
# Shear Modulus (GPa) = 35.62325 17.99411 26.80868
#
# Velocity S-wave (km/s) = 3.86624 2.74781 3.35397
# Velocity P-wave (km/s) = 5.37729 4.42073 4.92230
#
# Compressibility (1/GPa) = 0.04670170
#
# Stress axis : x y z
#
# Youngs Moduli (GPa) = 65.45689 52.84553 47.56714
#
# Poissons Ratio (x) = -0.36690 0.27797
# Poissons Ratio (y) = -0.45445 0.25495
# Poissons Ratio (z) = 0.38252 0.28324
#
# Static dielectric constant tensor:
#      x y z
#    x 1.972100 0.000000 0.000000 
#    y 0.000000 1.853830 0.000000 
#    z 0.000000 0.000000 2.045990 
# 
# From -- ./inp_files/9746.got.cif
#   From: 2010.05.17/outbox.cif.g08.bks.cpg/sg60_5_cif.got.tgz:9746.got - 2010.06.03 14:59:27.
