data_PCOD9458582
_publ_section_title
;
Structure prediction by ZEFSAII (Michael W. Deem and Ramdas Pophale) SiO2 
 PCOD9458582
Probable space group: P B C N
;
_chemical_formula_sum "Si O2"
_cell_formula_units_Z 56
_cell_length_a 12.491623
_cell_length_b 9.235145
_cell_length_c 19.203655
_cell_angle_alpha 90.000000
_cell_angle_beta 90.000000
_cell_angle_gamma 90.000000
_cell_volume 2215.371082
_symmetry_space_group_name_H-M "P B C N"
_symmetry_group_IT_number 60
_symmetry_cell_setting 'orthorhombic'
loop_
_space_group_symop_operation_xyz
x,y,z
1/2-x,1/2-y,1/2+z
1/2+x,1/2-y,-z
-x,y,1/2-z
-x,-y,-z
1/2+x,1/2+y,1/2-z
1/2-x,1/2+y,z
x,-y,1/2+z
loop_
_atom_site_type_symbol
_atom_site_label
_atom_site_fract_x
_atom_site_fract_y
_atom_site_fract_z
Si Si1 0.863413 0.193443 0.172304
Si Si2 0.462622 0.855038 0.566335
Si Si3 0.230494 0.051493 0.047326
Si Si4 0.190283 0.020384 0.203254
Si Si5 0.313744 0.998786 0.896669
Si Si6 0.983281 0.856674 0.951759
Si Si7 0.604905 0.783992 0.790513
O O1 0.875008 0.143419 0.252957
O O2 0.841844 0.358332 0.148344
O O3 0.960775 0.137313 0.123188
O O4 0.755385 0.110090 0.149441
O O5 0.355174 0.946966 0.564581
O O6 0.458793 0.767157 0.495307
O O7 0.443035 0.755704 0.632938
O O8 0.573354 0.934313 0.578576
O O9 0.181037 0.990121 0.119674
O O10 0.143754 0.183144 0.046185
O O11 0.238581 0.013858 0.965600
O O12 0.309269 0.087548 0.208234
O O13 0.159070 0.864994 0.235447
O O14 0.000000 0.000000 0.000000
O O15 0.500000 0.829276 0.750000
#
# Coordination Sequence:
#
# PCOD9458582 Si02
#       7
#     8   8   8   8   8   8   8
#     4  12  27  46  78 116 152 212 265 338 406 491
#     4  11  26  47  74 109 152 207 257 338 402 479
#     4  11  25  47  70 109 148 201 257 323 398 484
#     4  11  27  48  77 111 157 208 263 330 406 490
#     4  12  25  49  78 113 160 202 274 333 412 490
#     4  12  25  41  72 112 149 197 265 327 402 477
#     4  11  26  50  77 109 158 209 261 331 411 484
#
# _framework density 25.277930000000001
#
# number of rings (size 3 to 8) (size 9 to 14) (size 15 to 20)
#    0.000    0.571    2.857    3.857    4.000    1.143 
#    5.143    0.714    6.286    0.000    0.000    0.000 
#    0.000    0.000    0.000    0.000    0.000    0.000 
#
# Total GULP energy -312207.395239 kJ/mol
# GULP energy per Si atom -5575.132058 kJ/mol
# Density = 2.522040 g / cm^3
# Si number density = 25.277930 Si / 1000 Ang^3
#
#
#
# Elastic Constant Matrix: (Units=GPa)
#
#
# Indices 1 2 3 4 5 6 
#
# 1 115.2427 29.5716 26.7330 0.0000 0.0000 0.0000
# 2 29.5716 98.2159 10.6887 0.0000 0.0000 0.0000
# 3 26.7330 10.6887 150.3914 0.0000 0.0000 0.0000
# 4 0.0000 0.0000 0.0000 19.5645 0.0000 0.0000
# 5 0.0000 0.0000 0.0000 0.0000 35.3354 0.0000
# 6 0.0000 0.0000 0.0000 0.0000 0.0000 24.9771
#
#
#
# Elastic Compliance Matrix: (Units=1/GPa)
#
#
# Indices 1 2 3 4 5 6 
#
# 1 0.009743 -0.002767 -0.001535 0.000000 0.000000 0.000000
# 2 -0.002767 0.011047 -0.000293 0.000000 0.000000 0.000000
# 3 -0.001535 -0.000293 0.006943 0.000000 0.000000 0.000000
# 4 0.000000 0.000000 0.000000 0.051113 0.000000 0.000000
# 5 0.000000 0.000000 0.000000 0.000000 0.028300 0.000000
# 6 0.000000 0.000000 0.000000 0.000000 0.000000 0.040037
#
#
# Mechanical properties :
#
#
# Convention : Reuss Voigt Hill
#
# Bulk Modulus (GPa) = 53.92979 55.31518 54.62249
# Shear Modulus (GPa) = 30.75897 35.76584 33.26240
#
# Velocity S-wave (km/s) = 3.49209 3.76560 3.63142
# Velocity P-wave (km/s) = 6.13520 6.39036 6.26408
#
# Compressibility (1/GPa) = 0.01854263
#
# Stress axis : x y z
#
# Youngs Moduli (GPa) = 102.63364 90.52608 144.02833
#
# Poissons Ratio (x) = 0.25044 0.22113
# Poissons Ratio (y) = 0.28394 0.04225
# Poissons Ratio (z) = 0.15758 0.02655
#
# Static dielectric constant tensor:
#      x y z
#    x 1.985150 0.000000 0.000000 
#    y 0.000000 2.029000 0.000000 
#    z 0.000000 0.000000 2.275750 
# 
# From -- ./inp_files/22903.got.cif
#   From: 2010.05.17/outbox.cif.g08.bks.cpg/sg60_12_cif.got.tgz:22903.got - 2010.06.03 14:59:27.
