data_PCOD9458922
_publ_section_title
;
Structure prediction by ZEFSAII (Michael W. Deem and Ramdas Pophale) SiO2 
 PCOD9458922
Probable space group: P B C N
;
_chemical_formula_sum "Si O2"
_cell_formula_units_Z 60
_cell_length_a 15.000000
_cell_length_b 9.000000
_cell_length_c 24.000000
_cell_angle_alpha 90.000000
_cell_angle_beta 90.000000
_cell_angle_gamma 90.000000
_cell_volume 3240.000000
_symmetry_space_group_name_H-M "P B C N"
_symmetry_group_IT_number 60
_symmetry_cell_setting 'orthorhombic'
loop_
_space_group_symop_operation_xyz
x,y,z
1/2-x,1/2-y,1/2+z
1/2+x,1/2-y,-z
-x,y,1/2-z
-x,-y,-z
1/2+x,1/2+y,1/2-z
1/2-x,1/2+y,z
x,-y,1/2+z
loop_
_atom_site_type_symbol
_atom_site_label
_atom_site_fract_x
_atom_site_fract_y
_atom_site_fract_z
Si Si1 0.500000 0.451699 0.750000
Si Si2 0.067441 0.988802 0.916099
Si Si3 0.852986 0.860642 0.192441
Si Si4 0.647072 0.048056 0.845279
Si Si5 0.867179 0.991071 0.459452
Si Si6 0.266881 0.775436 0.594862
Si Si7 0.839018 0.493089 0.714157
Si Si8 0.972519 0.282724 0.152626
O O1 0.582980 0.559622 0.737872
O O2 0.492915 0.340058 0.697585
O O3 0.074551 0.819236 0.893625
O O4 0.105352 0.095017 0.867628
O O5 0.116214 0.009027 0.974870
O O6 0.962572 0.013909 0.928302
O O7 0.846445 0.682637 0.200161
O O8 0.758092 0.941469 0.199505
O O9 0.723778 0.168537 0.858387
O O10 0.557106 0.123928 0.867145
O O11 0.668979 0.896100 0.876968
O O12 0.642270 0.016102 0.779731
O O13 0.816372 0.837620 0.446305
O O14 0.809189 0.127260 0.435398
O O15 0.907689 0.598890 0.681447
#
# Coordination Sequence:
#
# PCOD9458922 Si02
#       8
#     4   8   8   8   8   8   8   8
#     4  10  22  38  60  88 126 162 204 250 306 380
#     4  10  23  43  67  87 132 162 212 264 324 372
#     4  11  26  40  64  93 127 171 211 256 318 383
#     4  11  22  38  62  94 129 164 203 266 303 383
#     4  10  22  44  64  94 119 167 210 273 316 370
#     4  10  23  38  68  91 123 161 220 255 319 369
#     4  12  25  41  61  96 130 169 209 253 317 388
#     4  11  22  40  63  89 128 169 202 257 314 375
#
# _framework density 18.518519000000001
#
# number of rings (size 3 to 8) (size 9 to 14) (size 15 to 20)
#    0.000    1.333    2.667    2.400    5.600    4.267 
#    0.000    2.000    0.000    0.000    0.000    0.000 
#    0.000    0.000    0.000    0.000    0.000    0.000 
#
# Total GULP energy -335179.684489 kJ/mol
# GULP energy per Si atom -5586.328075 kJ/mol
# Density = 1.847637 g / cm^3
# Si number density = 18.518519 Si / 1000 Ang^3
#
#
#
# Elastic Constant Matrix: (Units=GPa)
#
#
# Indices 1 2 3 4 5 6 
#
# 1 74.5053 53.7035 25.2729 0.0000 0.0000 0.0000
# 2 53.7035 171.3175 35.1219 0.0000 0.0000 0.0000
# 3 25.2729 35.1219 22.5534 0.0000 0.0000 0.0000
# 4 0.0000 0.0000 0.0000 20.0779 0.0000 0.0000
# 5 0.0000 0.0000 0.0000 0.0000 28.1082 0.0000
# 6 0.0000 0.0000 0.0000 0.0000 0.0000 32.8159
#
#
#
# Elastic Compliance Matrix: (Units=1/GPa)
#
#
# Indices 1 2 3 4 5 6 
#
# 1 0.022512 -0.002769 -0.020914 0.000000 0.000000 0.000000
# 2 -0.002769 0.008915 -0.010780 0.000000 0.000000 0.000000
# 3 -0.020914 -0.010780 0.084563 0.000000 0.000000 0.000000
# 4 0.000000 0.000000 0.000000 0.049806 0.000000 0.000000
# 5 0.000000 0.000000 0.000000 0.000000 0.035577 0.000000
# 6 0.000000 0.000000 0.000000 0.000000 0.000000 0.030473
#
#
# Mechanical properties :
#
#
# Convention : Reuss Voigt Hill
#
# Bulk Modulus (GPa) = 21.24806 55.17477 38.21142
# Shear Modulus (GPa) = 15.79968 26.48559 21.14263
#
# Velocity S-wave (km/s) = 2.92410 3.78593 3.38257
# Velocity P-wave (km/s) = 4.78532 6.99786 5.99456
#
# Compressibility (1/GPa) = 0.04706312
#
# Stress axis : x y z
#
# Youngs Moduli (GPa) = 44.42015 112.16627 11.82548
#
# Poissons Ratio (x) = 0.31063 0.24732
# Poissons Ratio (y) = 0.12302 0.12748
# Poissons Ratio (z) = 0.92901 1.20919
#
# Static dielectric constant tensor:
#      x y z
#    x 1.665090 0.000000 0.000000 
#    y 0.000000 1.606270 0.000000 
#    z 0.000000 0.000000 1.630870 
# 
# From -- ./inp_files/24420.got.cif
#   From: 2010.05.17/outbox.ucp.g08.bks.cvg/sg60_13_cif.got.tgz:24420.got - 2010.06.11 16:26:41.
