data_PCOD9458641
_publ_section_title
;
Structure prediction by ZEFSAII (Michael W. Deem and Ramdas Pophale) SiO2 
 PCOD9458641
Probable space group: P B C N
;
_chemical_formula_sum "Si O2"
_cell_formula_units_Z 40
_cell_length_a 8.883817
_cell_length_b 20.359937
_cell_length_c 8.384540
_cell_angle_alpha 90.000000
_cell_angle_beta 90.000000
_cell_angle_gamma 90.000000
_cell_volume 1516.544906
_symmetry_space_group_name_H-M "P B C N"
_symmetry_group_IT_number 60
_symmetry_cell_setting 'orthorhombic'
loop_
_space_group_symop_operation_xyz
x,y,z
1/2-x,1/2-y,1/2+z
1/2+x,1/2-y,-z
-x,y,1/2-z
-x,-y,-z
1/2+x,1/2+y,1/2-z
1/2-x,1/2+y,z
x,-y,1/2+z
loop_
_atom_site_type_symbol
_atom_site_label
_atom_site_fract_x
_atom_site_fract_y
_atom_site_fract_z
Si Si1 0.147919 0.351843 0.667467
Si Si2 0.670046 0.331812 0.422755
Si Si3 0.663718 0.279732 0.072667
Si Si4 0.153796 0.953307 0.855431
Si Si5 0.596970 0.052776 0.594949
O O1 0.276064 0.306235 0.597448
O O2 0.221241 0.414215 0.753736
O O3 0.087242 0.381413 0.502715
O O4 0.000000 0.324313 0.750000
O O5 0.713828 0.318322 0.236510
O O6 0.775402 0.294892 0.553049
O O7 0.512091 0.294152 0.436617
O O8 0.642759 0.406797 0.485463
O O9 0.000000 0.956711 0.750000
O O10 0.233860 0.023208 0.888854
O O11 0.500000 0.062633 0.750000
O O12 0.500000 0.000000 0.500000
#
# Coordination Sequence:
#
# PCOD9458641 Si02
#       5
#     8   8   8   8   8
#     4  12  26  47  75 106 148 195 247 304 369 445
#     4  11  27  48  74 109 149 192 250 306 375 451
#     4  11  27  48  75 111 147 195 246 309 377 446
#     4  12  25  47  73 105 148 191 244 313 366 439
#     4  12  25  48  71 105 144 192 249 302 373 450
#
# _framework density 26.375744999999998
#
# number of rings (size 3 to 8) (size 9 to 14) (size 15 to 20)
#    0.000    0.400    6.000    1.200    8.400    0.800 
#    7.200    0.000    0.000    0.000    0.000    0.000 
#    0.000    0.000    0.000    0.000    0.000    0.000 
#
# Total GULP energy -223733.156009 kJ/mol
# GULP energy per Si atom -5593.328900 kJ/mol
# Density = 2.631571 g / cm^3
# Si number density = 26.375745 Si / 1000 Ang^3
#
#
#
# Elastic Constant Matrix: (Units=GPa)
#
#
# Indices 1 2 3 4 5 6 
#
# 1 139.8499 23.8473 66.4126 0.0000 0.0000 0.0000
# 2 23.8473 68.6192 20.7529 0.0000 0.0000 0.0000
# 3 66.4126 20.7529 126.6581 0.0000 0.0000 0.0000
# 4 0.0000 0.0000 0.0000 54.6999 0.0000 0.0000
# 5 0.0000 0.0000 0.0000 0.0000 61.0686 0.0000
# 6 0.0000 0.0000 0.0000 0.0000 0.0000 33.2047
#
#
#
# Elastic Compliance Matrix: (Units=1/GPa)
#
#
# Indices 1 2 3 4 5 6 
#
# 1 0.009761 -0.001940 -0.004800 0.000000 0.000000 0.000000
# 2 -0.001940 0.015719 -0.001558 0.000000 0.000000 0.000000
# 3 -0.004800 -0.001558 0.010667 0.000000 0.000000 0.000000
# 4 0.000000 0.000000 0.000000 0.018282 0.000000 0.000000
# 5 0.000000 0.000000 0.000000 0.000000 0.016375 0.000000
# 6 0.000000 0.000000 0.000000 0.000000 0.000000 0.030116
#
#
# Mechanical properties :
#
#
# Convention : Reuss Voigt Hill
#
# Bulk Modulus (GPa) = 51.15129 61.90586 56.52857
# Shear Modulus (GPa) = 40.31153 44.73559 42.52356
#
# Velocity S-wave (km/s) = 3.91366 4.12283 4.01960
# Velocity P-wave (km/s) = 6.31330 6.79598 6.55908
#
# Compressibility (1/GPa) = 0.01954985
#
# Stress axis : x y z
#
# Youngs Moduli (GPa) = 102.44919 63.61822 93.74281
#
# Poissons Ratio (x) = 0.12345 0.44998
# Poissons Ratio (y) = 0.19880 0.14605
# Poissons Ratio (z) = 0.49177 0.09912
#
# Static dielectric constant tensor:
#      x y z
#    x 1.991240 0.000000 0.000000 
#    y 0.000000 2.194510 0.000000 
#    z 0.000000 0.000000 2.215540 
# 
# From -- ./inp_files/4026.got.cif
#   From: 2010.05.17/outbox.cif.g08.bks.cpg/sg60_3_cif.got.tgz:4026.got - 2010.06.03 14:59:27.
