data_PCOD9458706
_publ_section_title
;
Structure prediction by ZEFSAII (Michael W. Deem and Ramdas Pophale) SiO2 
 PCOD9458706
Probable space group: P B C N
;
_chemical_formula_sum "Si O2"
_cell_formula_units_Z 40
_cell_length_a 10.785030
_cell_length_b 16.325544
_cell_length_c 9.588239
_cell_angle_alpha 90.000000
_cell_angle_beta 90.000000
_cell_angle_gamma 90.000000
_cell_volume 1688.215449
_symmetry_space_group_name_H-M "P B C N"
_symmetry_group_IT_number 60
_symmetry_cell_setting 'orthorhombic'
loop_
_space_group_symop_operation_xyz
x,y,z
1/2-x,1/2-y,1/2+z
1/2+x,1/2-y,-z
-x,y,1/2-z
-x,-y,-z
1/2+x,1/2+y,1/2-z
1/2-x,1/2+y,z
x,-y,1/2+z
loop_
_atom_site_type_symbol
_atom_site_label
_atom_site_fract_x
_atom_site_fract_y
_atom_site_fract_z
Si Si1 0.272203 0.175935 0.003998
Si Si2 0.424472 0.036888 0.870263
Si Si3 0.491005 0.733282 0.901992
Si Si4 0.894155 0.941129 0.444840
Si Si5 0.266287 0.429953 0.760059
O O1 0.405227 0.221211 0.005439
O O2 0.230237 0.147542 0.158747
O O3 0.309063 0.091891 0.923890
O O4 0.152922 0.224872 0.946508
O O5 0.500000 0.084659 0.750000
O O6 0.371307 0.960063 0.786468
O O7 0.500000 0.000000 0.000000
O O8 0.500000 0.772409 0.750000
O O9 0.545764 0.641783 0.891034
O O10 0.818867 0.918396 0.584966
O O11 0.827598 0.994176 0.325374
O O12 0.000000 0.000000 0.500000
#
# Coordination Sequence:
#
# PCOD9458706 Si02
#       5
#     8   8   8   8   8
#     4  12  29  50  77 116 158 214 258 326 400 473
#     4  12  24  45  79 113 151 199 258 323 393 466
#     4  12  30  51  76 113 165 209 263 326 398 472
#     4  12  23  46  80 109 149 197 262 329 383 467
#     4  12  24  46  78 114 149 198 263 320 393 465
#
# _framework density 23.693660000000001
#
# number of rings (size 3 to 8) (size 9 to 14) (size 15 to 20)
#    0.000    0.000    6.000    3.000    5.600    3.200 
#    0.000    0.000    0.000    0.000    0.000    0.000 
#    0.000    0.000    0.000    0.000    0.000    0.000 
#
# Total GULP energy -223582.078408 kJ/mol
# GULP energy per Si atom -5589.551960 kJ/mol
# Density = 2.363973 g / cm^3
# Si number density = 23.693660 Si / 1000 Ang^3
#
#
#
# Elastic Constant Matrix: (Units=GPa)
#
#
# Indices 1 2 3 4 5 6 
#
# 1 156.9252 24.3713 57.1318 0.0000 0.0000 0.0000
# 2 24.3713 62.5006 15.6239 0.0000 0.0000 0.0000
# 3 57.1318 15.6239 116.4174 0.0000 0.0000 0.0000
# 4 0.0000 0.0000 0.0000 22.4031 0.0000 0.0000
# 5 0.0000 0.0000 0.0000 0.0000 61.7589 0.0000
# 6 0.0000 0.0000 0.0000 0.0000 0.0000 48.0240
#
#
#
# Elastic Compliance Matrix: (Units=1/GPa)
#
#
# Indices 1 2 3 4 5 6 
#
# 1 0.008047 -0.002225 -0.003650 0.000000 0.000000 0.000000
# 2 -0.002225 0.017171 -0.001212 0.000000 0.000000 0.000000
# 3 -0.003650 -0.001212 0.010544 0.000000 0.000000 0.000000
# 4 0.000000 0.000000 0.000000 0.044637 0.000000 0.000000
# 5 0.000000 0.000000 0.000000 0.000000 0.016192 0.000000
# 6 0.000000 0.000000 0.000000 0.000000 0.000000 0.020823
#
#
# Mechanical properties :
#
#
# Convention : Reuss Voigt Hill
#
# Bulk Modulus (GPa) = 46.32745 58.89968 52.61356
# Shear Modulus (GPa) = 36.02703 42.35161 39.18932
#
# Velocity S-wave (km/s) = 3.90363 4.23243 4.07135
# Velocity P-wave (km/s) = 6.31767 6.98551 6.65997
#
# Compressibility (1/GPa) = 0.02158548
#
# Stress axis : x y z
#
# Youngs Moduli (GPa) = 124.26849 58.23895 94.84114
#
# Poissons Ratio (x) = 0.12960 0.34621
# Poissons Ratio (y) = 0.27654 0.11498
# Poissons Ratio (z) = 0.45364 0.07060
#
# Static dielectric constant tensor:
#      x y z
#    x 1.992970 0.000000 0.000000 
#    y 0.000000 1.774190 0.000000 
#    z 0.000000 0.000000 -5.131070 
# 
# From -- ./inp_files/4744.got.cif
#   From: 2010.05.17/outbox.cif.g08.bks.cpg/sg60_3_cif.got.tgz:4744.got - 2010.06.03 14:59:27.
