data_PCOD9458634
_publ_section_title
;
Structure prediction by ZEFSAII (Michael W. Deem and Ramdas Pophale) SiO2 
 PCOD9458634
Probable space group: P B C N
;
_chemical_formula_sum "Si O2"
_cell_formula_units_Z 28
_cell_length_a 4.952629
_cell_length_b 17.665021
_cell_length_c 12.475655
_cell_angle_alpha 90.000000
_cell_angle_beta 90.000000
_cell_angle_gamma 90.000000
_cell_volume 1091.473789
_symmetry_space_group_name_H-M "P B C N"
_symmetry_group_IT_number 60
_symmetry_cell_setting 'orthorhombic'
loop_
_space_group_symop_operation_xyz
x,y,z
1/2-x,1/2-y,1/2+z
1/2+x,1/2-y,-z
-x,y,1/2-z
-x,-y,-z
1/2+x,1/2+y,1/2-z
1/2-x,1/2+y,z
x,-y,1/2+z
loop_
_atom_site_type_symbol
_atom_site_label
_atom_site_fract_x
_atom_site_fract_y
_atom_site_fract_z
Si Si1 0.664046 0.720496 0.359352
Si Si2 0.687141 0.124949 0.093734
Si Si3 0.841387 0.599629 0.862629
Si Si4 0.500000 0.515327 0.250000
O O1 0.500000 0.709922 0.250000
O O2 0.451999 0.676324 0.435774
O O3 0.448949 0.820228 0.631944
O O4 0.703701 0.810063 0.364860
O O5 0.783947 0.067384 0.186486
O O6 0.572159 0.086415 0.985576
O O7 0.603047 0.540715 0.842407
O O8 0.000000 0.587923 0.750000
#
# Coordination Sequence:
#
# PCOD9458634 Si02
#       4
#     8   8   8   4
#     4  11  26  49  82 113 150 201 266 323 383 457
#     4  12  27  51  79 115 155 207 261 318 398 464
#     4  11  29  48  78 115 159 202 264 327 388 461
#     4  12  30  46  80 112 166 210 250 320 396 478
#
# _framework density 25.653386000000001
#
# number of rings (size 3 to 8) (size 9 to 14) (size 15 to 20)
#    0.000    0.571    1.429    3.429   16.000    1.143 
#    0.000    0.000    0.000    0.000    0.000    0.000 
#    0.000    0.000    0.000    0.000    0.000    0.000 
#
# Total GULP energy -156355.146044 kJ/mol
# GULP energy per Si atom -5584.112359 kJ/mol
# Density = 2.559500 g / cm^3
# Si number density = 25.653386 Si / 1000 Ang^3
#
#
#
# Elastic Constant Matrix: (Units=GPa)
#
#
# Indices 1 2 3 4 5 6 
#
# 1 139.9661 57.9096 9.3982 0.0000 0.0000 0.0000
# 2 57.9096 170.3347 19.0549 0.0000 0.0000 0.0000
# 3 9.3982 19.0549 132.5322 0.0000 0.0000 0.0000
# 4 0.0000 0.0000 0.0000 9.4944 0.0000 0.0000
# 5 0.0000 0.0000 0.0000 0.0000 36.8212 0.0000
# 6 0.0000 0.0000 0.0000 0.0000 0.0000 66.8301
#
#
#
# Elastic Compliance Matrix: (Units=1/GPa)
#
#
# Indices 1 2 3 4 5 6 
#
# 1 0.008319 -0.002807 -0.000186 0.000000 0.000000 0.000000
# 2 -0.002807 0.006914 -0.000795 0.000000 0.000000 0.000000
# 3 -0.000186 -0.000795 0.007673 0.000000 0.000000 0.000000
# 4 0.000000 0.000000 0.000000 0.105326 0.000000 0.000000
# 5 0.000000 0.000000 0.000000 0.000000 0.027158 0.000000
# 6 0.000000 0.000000 0.000000 0.000000 0.000000 0.014963
#
#
# Mechanical properties :
#
#
# Convention : Reuss Voigt Hill
#
# Bulk Modulus (GPa) = 65.23818 68.39535 66.81677
# Shear Modulus (GPa) = 27.31654 46.39382 36.85518
#
# Velocity S-wave (km/s) = 3.26672 4.25724 3.79444
# Velocity P-wave (km/s) = 6.30194 7.13335 6.73050
#
# Compressibility (1/GPa) = 0.01532845
#
# Stress axis : x y z
#
# Youngs Moduli (GPa) = 120.21284 144.63127 130.32966
#
# Poissons Ratio (x) = 0.40602 0.02428
# Poissons Ratio (y) = 0.33747 0.10361
# Poissons Ratio (z) = 0.02239 0.11498
#
# Static dielectric constant tensor:
#      x y z
#    x 2.028550 0.000000 0.000000 
#    y 0.000000 1.966410 0.000000 
#    z 0.000000 0.000000 2.146650 
# 
# From -- ./inp_files/8769.got.cif
#   From: 2010.05.17/outbox.cif.g08.bks.cpg/sg60_5_cif.got.tgz:8769.got - 2010.06.03 14:59:27.
