data_PCOD9458314
_publ_section_title
;
Structure prediction by ZEFSAII (Michael W. Deem and Ramdas Pophale) SiO2 
 PCOD9458314
Probable space group: P B C N
;
_chemical_formula_sum "Si O2"
_cell_formula_units_Z 40
_cell_length_a 5.278644
_cell_length_b 12.391215
_cell_length_c 26.982714
_cell_angle_alpha 90.000000
_cell_angle_beta 90.000000
_cell_angle_gamma 90.000000
_cell_volume 1764.907286
_symmetry_space_group_name_H-M "P B C N"
_symmetry_group_IT_number 60
_symmetry_cell_setting 'orthorhombic'
loop_
_space_group_symop_operation_xyz
x,y,z
1/2-x,1/2-y,1/2+z
1/2+x,1/2-y,-z
-x,y,1/2-z
-x,-y,-z
1/2+x,1/2+y,1/2-z
1/2-x,1/2+y,z
x,-y,1/2+z
loop_
_atom_site_type_symbol
_atom_site_label
_atom_site_fract_x
_atom_site_fract_y
_atom_site_fract_z
Si Si1 0.595738 0.594022 0.463412
Si Si2 0.436324 0.021653 0.617543
Si Si3 0.933209 0.705336 0.147833
Si Si4 0.582029 0.199032 0.806385
Si Si5 0.736650 0.205789 0.558758
O O1 0.500000 0.500000 0.500000
O O2 0.736397 0.535370 0.418719
O O3 0.394411 0.677479 0.441743
O O4 0.745829 0.670127 0.501875
O O5 0.593759 0.921299 0.638397
O O6 0.345589 0.089250 0.664840
O O7 0.588689 0.107333 0.584310
O O8 0.671047 0.751730 0.168737
O O9 0.975145 0.769646 0.095175
O O10 0.173249 0.726499 0.183268
O O11 0.500000 0.182023 0.750000
#
# Coordination Sequence:
#
# PCOD9458314 Si02
#       5
#     8   8   8   8   8
#     4  12  22  38  65 100 144 192 234 280 342 416
#     4  11  23  42  67  98 136 182 228 284 349 410
#     4  11  24  45  68  96 134 176 223 283 348 410
#     4  11  26  46  70 100 132 171 229 293 354 423
#     4  11  23  39  62 100 140 185 237 286 337 419
#
# _framework density 22.664080999999999
#
# number of rings (size 3 to 8) (size 9 to 14) (size 15 to 20)
#    0.000    0.800    0.000    8.400    0.000    6.400 
#    0.000    0.000    0.000    0.000    0.000    0.000 
#    0.000    0.000    0.000    0.000    0.000    0.000 
#
# Total GULP energy -223552.120598 kJ/mol
# GULP energy per Si atom -5588.803015 kJ/mol
# Density = 2.261250 g / cm^3
# Si number density = 22.664081 Si / 1000 Ang^3
#
#
#
# Elastic Constant Matrix: (Units=GPa)
#
#
# Indices 1 2 3 4 5 6 
#
# 1 78.9994 36.4230 34.2787 0.0000 0.0000 0.0000
# 2 36.4230 141.7904 51.2424 0.0000 0.0000 0.0000
# 3 34.2787 51.2424 137.7675 0.0000 0.0000 0.0000
# 4 0.0000 0.0000 0.0000 20.0423 0.0000 0.0000
# 5 0.0000 0.0000 0.0000 0.0000 45.3172 0.0000
# 6 0.0000 0.0000 0.0000 0.0000 0.0000 35.6202
#
#
#
# Elastic Compliance Matrix: (Units=1/GPa)
#
#
# Indices 1 2 3 4 5 6 
#
# 1 0.015174 -0.002927 -0.002687 0.000000 0.000000 0.000000
# 2 -0.002927 0.008712 -0.002512 0.000000 0.000000 0.000000
# 3 -0.002687 -0.002512 0.008862 0.000000 0.000000 0.000000
# 4 0.000000 0.000000 0.000000 0.049894 0.000000 0.000000
# 5 0.000000 0.000000 0.000000 0.000000 0.022067 0.000000
# 6 0.000000 0.000000 0.000000 0.000000 0.000000 0.028074
#
#
# Mechanical properties :
#
#
# Convention : Reuss Voigt Hill
#
# Bulk Modulus (GPa) = 60.62177 66.93839 63.78008
# Shear Modulus (GPa) = 32.35555 35.97017 34.16286
#
# Velocity S-wave (km/s) = 3.78248 3.98816 3.88668
# Velocity P-wave (km/s) = 6.77364 7.12786 6.95301
#
# Compressibility (1/GPa) = 0.01649572
#
# Stress axis : x y z
#
# Youngs Moduli (GPa) = 65.90414 114.77842 112.84652
#
# Poissons Ratio (x) = 0.33593 0.30320
# Poissons Ratio (y) = 0.19289 0.28351
# Poissons Ratio (z) = 0.17707 0.28836
#
# Static dielectric constant tensor:
#      x y z
#    x 1.920300 0.000000 0.000000 
#    y 0.000000 1.843030 0.000000 
#    z 0.000000 0.000000 1.905980 
# 
# From -- ./inp_files/24730.got.cif
#   From: 2010.05.17/outbox.cif.g08.bks.cpg/sg60_13_cif.got.tgz:24730.got - 2010.06.03 14:59:27.
