data_PCOD9458085
_publ_section_title
;
Structure prediction by ZEFSAII (Michael W. Deem and Ramdas Pophale) SiO2 
 PCOD9458085
Probable space group: P B C N
;
_chemical_formula_sum "Si O2"
_cell_formula_units_Z 64
_cell_length_a 20.936215
_cell_length_b 18.033374
_cell_length_c 7.908833
_cell_angle_alpha 90.000000
_cell_angle_beta 90.000000
_cell_angle_gamma 90.000000
_cell_volume 2985.984607
_symmetry_space_group_name_H-M "P B C N"
_symmetry_group_IT_number 60
_symmetry_cell_setting 'orthorhombic'
loop_
_space_group_symop_operation_xyz
x,y,z
1/2-x,1/2-y,1/2+z
1/2+x,1/2-y,-z
-x,y,1/2-z
-x,-y,-z
1/2+x,1/2+y,1/2-z
1/2-x,1/2+y,z
x,-y,1/2+z
loop_
_atom_site_type_symbol
_atom_site_label
_atom_site_fract_x
_atom_site_fract_y
_atom_site_fract_z
Si Si1 0.811150 0.746946 0.298013
Si Si2 0.389591 0.969206 0.026147
Si Si3 0.690682 0.665905 0.155628
Si Si4 0.761264 0.884194 0.117092
Si Si5 0.238883 0.028999 0.529319
Si Si6 0.567533 0.258860 0.790557
Si Si7 0.888495 0.385435 0.118892
Si Si8 0.434755 0.825227 0.850022
O O1 0.750670 0.694078 0.265398
O O2 0.808419 0.788285 0.477439
O O3 0.802062 0.811809 0.156823
O O4 0.875463 0.701934 0.264348
O O5 0.314089 0.969565 0.978124
O O6 0.424978 0.909994 0.908981
O O7 0.411386 0.054619 0.017567
O O8 0.393128 0.935302 0.212011
O O9 0.700015 0.581974 0.095578
O O10 0.626664 0.688099 0.252259
O O11 0.764153 0.933647 0.288079
O O12 0.686154 0.865315 0.094776
O O13 0.781917 0.943609 0.977673
O O14 0.500000 0.295496 0.750000
O O15 0.573751 0.188851 0.660526
O O16 0.569124 0.223726 0.977634
O O17 0.500000 0.814078 0.750000
#
# Coordination Sequence:
#
# PCOD9458085 Si02
#       8
#     8   8   8   8   8   8   8   8
#     4  11  21  36  58  84 112 145 185 230 275 325
#     4   9  18  33  51  75 109 145 184 224 265 322
#     4  11  21  36  58  84 112 145 185 230 275 325
#     4   9  18  33  53  81 111 140 178 223 272 325
#     4   9  18  33  53  81 111 140 178 223 272 325
#     4  11  23  39  55  79 112 148 189 230 277 330
#     4   9  18  33  51  75 109 145 184 224 265 322
#     4  11  23  39  55  79 112 148 189 230 277 330
#
# _framework density 21.433467
#
# number of rings (size 3 to 8) (size 9 to 14) (size 15 to 20)
#    0.000    2.000    2.500    1.500    0.000    4.500 
#    0.000    2.500    0.000    0.750    0.000    5.250 
#    0.000    0.000    0.000    0.000    0.000    0.000 
#
# Total GULP energy -358135.628338 kJ/mol
# GULP energy per Si atom -5595.869193 kJ/mol
# Density = 2.138468 g / cm^3
# Si number density = 21.433467 Si / 1000 Ang^3
#
#
#
# Elastic Constant Matrix: (Units=GPa)
#
#
# Indices 1 2 3 4 5 6 
#
# 1 118.4363 23.2991 22.8781 0.0000 0.0000 0.0000
# 2 23.2991 88.2910 2.9285 0.0000 0.0000 0.0000
# 3 22.8781 2.9285 79.1087 0.0000 0.0000 0.0000
# 4 0.0000 0.0000 0.0000 36.2715 0.0000 0.0000
# 5 0.0000 0.0000 0.0000 0.0000 26.3807 0.0000
# 6 0.0000 0.0000 0.0000 0.0000 0.0000 23.7859
#
#
#
# Elastic Compliance Matrix: (Units=1/GPa)
#
#
# Indices 1 2 3 4 5 6 
#
# 1 0.009425 -0.002400 -0.002637 0.000000 0.000000 0.000000
# 2 -0.002400 0.011951 0.000252 0.000000 0.000000 0.000000
# 3 -0.002637 0.000252 0.013394 0.000000 0.000000 0.000000
# 4 0.000000 0.000000 0.000000 0.027570 0.000000 0.000000
# 5 0.000000 0.000000 0.000000 0.000000 0.037907 0.000000
# 6 0.000000 0.000000 0.000000 0.000000 0.000000 0.042042
#
#
# Mechanical properties :
#
#
# Convention : Reuss Voigt Hill
#
# Bulk Modulus (GPa) = 39.68227 42.67193 41.17710
# Shear Modulus (GPa) = 31.19969 33.06962 32.13466
#
# Velocity S-wave (km/s) = 3.81944 3.93223 3.87625
# Velocity P-wave (km/s) = 6.16484 6.36937 6.26794
#
# Compressibility (1/GPa) = 0.02520017
#
# Stress axis : x y z
#
# Youngs Moduli (GPa) = 106.10340 83.67438 74.65989
#
# Poissons Ratio (x) = 0.20079 0.19686
# Poissons Ratio (y) = 0.25461 -0.01878
# Poissons Ratio (z) = 0.27977 -0.02105
#
# Static dielectric constant tensor:
#      x y z
#    x 1.731350 0.000000 0.000000 
#    y 0.000000 1.777680 0.000000 
#    z 0.000000 0.000000 1.896820 
# 
# From -- ./inp_files/7026.got.cif
#   From: 2010.05.17/outbox.cif.g08.bks.cpg/sg60_4_cif.got.tgz:7026.got - 2010.06.03 14:59:27.
