data_PCOD9458691
_publ_section_title
;
Structure prediction by ZEFSAII (Michael W. Deem and Ramdas Pophale) SiO2 
 PCOD9458691
Probable space group: P B C N
;
_chemical_formula_sum "Si O2"
_cell_formula_units_Z 40
_cell_length_a 6.975574
_cell_length_b 10.278355
_cell_length_c 26.058962
_cell_angle_alpha 90.000000
_cell_angle_beta 90.000000
_cell_angle_gamma 90.000000
_cell_volume 1868.360497
_symmetry_space_group_name_H-M "P B C N"
_symmetry_group_IT_number 60
_symmetry_cell_setting 'orthorhombic'
loop_
_space_group_symop_operation_xyz
x,y,z
1/2-x,1/2-y,1/2+z
1/2+x,1/2-y,-z
-x,y,1/2-z
-x,-y,-z
1/2+x,1/2+y,1/2-z
1/2-x,1/2+y,z
x,-y,1/2+z
loop_
_atom_site_type_symbol
_atom_site_label
_atom_site_fract_x
_atom_site_fract_y
_atom_site_fract_z
Si Si1 0.676756 0.323359 0.850923
Si Si2 0.822463 0.588625 0.014741
Si Si3 0.934620 0.795931 0.431157
Si Si4 0.667817 0.495587 0.123050
Si Si5 0.049313 0.544881 0.690359
O O1 0.782639 0.302693 0.905656
O O2 0.470895 0.391722 0.856574
O O3 0.810643 0.423041 0.819906
O O4 0.645681 0.180410 0.827416
O O5 0.724664 0.531044 0.065024
O O6 0.911206 0.725741 0.032885
O O7 0.683599 0.606197 0.966731
O O8 0.000000 0.500000 0.000000
O O9 0.043339 0.865113 0.384225
O O10 0.856348 0.475980 0.156907
O O11 0.000000 0.552798 0.750000
#
# Coordination Sequence:
#
# PCOD9458691 Si02
#       5
#     8   8   8   8   8
#     4  12  26  52  73 111 149 191 252 313 377 453
#     4  12  23  40  68 107 149 200 245 299 369 448
#     4  12  23  43  70 108 151 198 251 301 374 453
#     4  12  25  47  73 107 152 197 249 312 374 446
#     4  12  30  49  80 109 145 198 253 321 388 448
#
# _framework density 21.409144999999999
#
# number of rings (size 3 to 8) (size 9 to 14) (size 15 to 20)
#    0.000    0.000    4.000    6.600    2.800    0.000 
#    0.000    0.000    0.000    0.000    0.000    0.000 
#    0.000    0.000    0.000    0.000    0.000    0.000 
#
# Total GULP energy -224008.293604 kJ/mol
# GULP energy per Si atom -5600.207340 kJ/mol
# Density = 2.136042 g / cm^3
# Si number density = 21.409145 Si / 1000 Ang^3
#
#
#
# Elastic Constant Matrix: (Units=GPa)
#
#
# Indices 1 2 3 4 5 6 
#
# 1 134.1174 61.9850 47.6413 0.0000 0.0000 0.0000
# 2 61.9850 92.5356 26.6554 0.0000 0.0000 0.0000
# 3 47.6413 26.6554 91.0176 0.0000 0.0000 0.0000
# 4 0.0000 0.0000 0.0000 21.2818 0.0000 0.0000
# 5 0.0000 0.0000 0.0000 0.0000 26.8274 0.0000
# 6 0.0000 0.0000 0.0000 0.0000 0.0000 52.2152
#
#
#
# Elastic Compliance Matrix: (Units=1/GPa)
#
#
# Indices 1 2 3 4 5 6 
#
# 1 0.012202 -0.006918 -0.004361 0.000000 0.000000 0.000000
# 2 -0.006918 0.015724 -0.000984 0.000000 0.000000 0.000000
# 3 -0.004361 -0.000984 0.013558 0.000000 0.000000 0.000000
# 4 0.000000 0.000000 0.000000 0.046988 0.000000 0.000000
# 5 0.000000 0.000000 0.000000 0.000000 0.037275 0.000000
# 6 0.000000 0.000000 0.000000 0.000000 0.000000 0.019152
#
#
# Mechanical properties :
#
#
# Convention : Reuss Voigt Hill
#
# Bulk Modulus (GPa) = 58.96744 65.58155 62.27450
# Shear Modulus (GPa) = 28.55873 32.15748 30.35811
#
# Velocity S-wave (km/s) = 3.65629 3.87983 3.76972
# Velocity P-wave (km/s) = 6.73999 7.12529 6.93532
#
# Compressibility (1/GPa) = 0.01695851
#
# Stress axis : x y z
#
# Youngs Moduli (GPa) = 81.95093 63.59779 73.75785
#
# Poissons Ratio (x) = 0.43994 0.32168
# Poissons Ratio (y) = 0.56690 0.07258
# Poissons Ratio (z) = 0.35741 0.06258
#
# Static dielectric constant tensor:
#      x y z
#    x 1.779210 0.000000 0.000000 
#    y 0.000000 1.856400 0.000000 
#    z 0.000000 0.000000 1.704780 
# 
# From -- ./inp_files/24733.got.cif
#   From: 2010.05.17/outbox.cif.g08.bks.cpg/sg60_13_cif.got.tgz:24733.got - 2010.06.03 14:59:27.
