data_PCOD9458920
_publ_section_title
;
Structure prediction by ZEFSAII (Michael W. Deem and Ramdas Pophale) SiO2 
 PCOD9458920
Probable space group: P B C N
;
_chemical_formula_sum "Si O2"
_cell_formula_units_Z 60
_cell_length_a 9.000000
_cell_length_b 27.000000
_cell_length_c 12.000000
_cell_angle_alpha 90.000000
_cell_angle_beta 90.000000
_cell_angle_gamma 90.000000
_cell_volume 2916.000000
_symmetry_space_group_name_H-M "P B C N"
_symmetry_group_IT_number 60
_symmetry_cell_setting 'orthorhombic'
loop_
_space_group_symop_operation_xyz
x,y,z
1/2-x,1/2-y,1/2+z
1/2+x,1/2-y,-z
-x,y,1/2-z
-x,-y,-z
1/2+x,1/2+y,1/2-z
1/2-x,1/2+y,z
x,-y,1/2+z
loop_
_atom_site_type_symbol
_atom_site_label
_atom_site_fract_x
_atom_site_fract_y
_atom_site_fract_z
Si Si1 0.008505 0.608459 0.615921
Si Si2 0.678229 0.170083 0.037508
Si Si3 0.831189 0.521239 0.998295
Si Si4 0.500000 0.261644 0.750000
Si Si5 0.838357 0.420954 0.708332
Si Si6 0.274542 0.582084 0.046641
Si Si7 0.155872 0.231450 0.824159
Si Si8 0.976228 0.828549 0.976919
O O1 0.068666 0.659941 0.565323
O O2 0.138046 0.568920 0.579679
O O3 0.000000 0.608171 0.750000
O O4 0.857230 0.596465 0.543709
O O5 0.655822 0.125940 0.126760
O O6 0.640438 0.217675 0.108639
O O7 0.848259 0.172721 0.996397
O O8 0.783321 0.537129 0.122886
O O9 0.724289 0.477601 0.958364
O O10 0.000000 0.500000 0.000000
O O11 0.331619 0.234875 0.774913
O O12 0.467594 0.296511 0.639600
O O13 0.763124 0.406928 0.823958
O O14 0.000000 0.437595 0.750000
O O15 0.421295 0.614590 0.030345
O O16 0.000000 0.226856 0.750000
O O17 0.129180 0.192318 0.924463
#
# Coordination Sequence:
#
# PCOD9458920 Si02
#       8
#     8   8   8   4   8   8   8   8
#     4  10  22  37  63 100 135 175 225 283 349 413
#     4  10  23  44  67  99 135 175 231 290 341 431
#     4   9  19  32  59  98 128 169 221 291 329 409
#     4  10  26  48  74 104 142 182 246 300 346 442
#     4  11  18  37  66  97 128 172 233 279 346 402
#     4  11  22  37  66  94 131 177 221 286 345 407
#     4  11  26  46  77 100 144 188 237 296 363 428
#     4  11  26  47  66 103 138 181 235 290 354 430
#
# _framework density 20.576132000000001
#
# number of rings (size 3 to 8) (size 9 to 14) (size 15 to 20)
#    0.000    1.600    4.000    2.000    9.333    1.067 
#    2.400    2.667    0.000    0.000    0.000    0.000 
#    0.000    0.000    0.000    0.000    0.000    0.000 
#
# Total GULP energy -334013.709046 kJ/mol
# GULP energy per Si atom -5566.895151 kJ/mol
# Density = 2.052930 g / cm^3
# Si number density = 20.576132 Si / 1000 Ang^3
#
#
#
# Elastic Constant Matrix: (Units=GPa)
#
#
# Indices 1 2 3 4 5 6 
#
# 1 65.8219 0.2205 22.4675 0.0000 0.0000 0.0000
# 2 0.2205 30.5657 40.3237 0.0000 0.0000 0.0000
# 3 22.4675 40.3237 116.5729 0.0000 0.0000 0.0000
# 4 0.0000 0.0000 0.0000 27.0751 0.0000 0.0000
# 5 0.0000 0.0000 0.0000 0.0000 14.8043 0.0000
# 6 0.0000 0.0000 0.0000 0.0000 0.0000 26.5035
#
#
#
# Elastic Compliance Matrix: (Units=1/GPa)
#
#
# Indices 1 2 3 4 5 6 
#
# 1 0.017223 0.007827 -0.006027 0.000000 0.000000 0.000000
# 2 0.007827 0.063735 -0.023555 0.000000 0.000000 0.000000
# 3 -0.006027 -0.023555 0.017888 0.000000 0.000000 0.000000
# 4 0.000000 0.000000 0.000000 0.036934 0.000000 0.000000
# 5 0.000000 0.000000 0.000000 0.000000 0.067548 0.000000
# 6 0.000000 0.000000 0.000000 0.000000 0.000000 0.037731
#
#
# Mechanical properties :
#
#
# Convention : Reuss Voigt Hill
#
# Bulk Modulus (GPa) = 18.07151 37.66487 27.86819
# Shear Modulus (GPa) = 16.50088 23.67318 20.08703
#
# Velocity S-wave (km/s) = 2.83493 3.39561 3.12786
# Velocity P-wave (km/s) = 4.41787 5.80675 5.15926
#
# Compressibility (1/GPa) = 0.05533571
#
# Stress axis : x y z
#
# Youngs Moduli (GPa) = 58.06027 15.69007 55.90418
#
# Poissons Ratio (x) = -0.12280 0.33693
# Poissons Ratio (y) = -0.45442 1.31681
# Poissons Ratio (z) = 0.34992 0.36958
#
# Static dielectric constant tensor:
#      x y z
#    x 1.765970 0.000000 0.000000 
#    y 0.000000 1.883070 0.000000 
#    z 0.000000 0.000000 1.800600 
# 
# From -- ./inp_files/10284.got.cif
#   From: 2010.05.17/outbox.ucp.g08.bks.cvg/sg60_6_cif.got.tgz:10284.got - 2010.06.11 16:26:41.
