data_PCOD9458711
_publ_section_title
;
Structure prediction by ZEFSAII (Michael W. Deem and Ramdas Pophale) SiO2 
 PCOD9458711
Probable space group: P B C N
;
_chemical_formula_sum "Si O2"
_cell_formula_units_Z 56
_cell_length_a 8.295099
_cell_length_b 15.282470
_cell_length_c 20.144869
_cell_angle_alpha 90.000000
_cell_angle_beta 90.000000
_cell_angle_gamma 90.000000
_cell_volume 2553.757018
_symmetry_space_group_name_H-M "P B C N"
_symmetry_group_IT_number 60
_symmetry_cell_setting 'orthorhombic'
loop_
_space_group_symop_operation_xyz
x,y,z
1/2-x,1/2-y,1/2+z
1/2+x,1/2-y,-z
-x,y,1/2-z
-x,-y,-z
1/2+x,1/2+y,1/2-z
1/2-x,1/2+y,z
x,-y,1/2+z
loop_
_atom_site_type_symbol
_atom_site_label
_atom_site_fract_x
_atom_site_fract_y
_atom_site_fract_z
Si Si1 0.778268 0.834714 0.613393
Si Si2 0.325945 0.343117 0.428517
Si Si3 0.586177 0.005993 0.071801
Si Si4 0.790826 0.495641 0.341044
Si Si5 0.433949 0.426958 0.550792
Si Si6 0.603756 0.319225 0.317406
Si Si7 0.693216 0.664721 0.262941
O O1 0.789383 0.738852 0.583265
O O2 0.649162 0.894934 0.576575
O O3 0.733023 0.824105 0.689832
O O4 0.940178 0.890339 0.603899
O O5 0.228323 0.434023 0.420853
O O6 0.384528 0.347031 0.504109
O O7 0.477826 0.329102 0.378856
O O8 0.474564 0.990762 0.136187
O O9 0.500000 0.000000 0.000000
O O10 0.706442 0.528142 0.408757
O O11 0.719758 0.402987 0.320560
O O12 0.741021 0.568658 0.287974
O O13 0.500000 0.500000 0.500000
O O14 0.500000 0.322675 0.250000
O O15 0.719498 0.233954 0.311962
O O16 0.500000 0.676484 0.250000
#
# Coordination Sequence:
#
# PCOD9458711 Si02
#       7
#     8   8   8   8   8   8   8
#     4  12  27  48  74 103 151 193 244 310 373 444
#     4  12  27  47  76 105 151 195 250 308 382 447
#     4  12  27  48  71 111 147 190 253 308 369 458
#     4  12  26  44  78 103 147 194 244 306 375 435
#     4  12  23  48  72 105 144 196 242 304 372 445
#     4  12  27  48  74 108 147 195 247 306 369 453
#     4  12  28  50  74 109 148 195 254 304 379 454
#
# _framework density 21.928474000000001
#
# number of rings (size 3 to 8) (size 9 to 14) (size 15 to 20)
#    0.000    0.000    7.143    1.286    6.000    1.143 
#    0.000    0.000    0.000    0.000    0.000    0.000 
#    0.000    0.000    0.000    0.000    0.000    0.000 
#
# Total GULP energy -313032.082280 kJ/mol
# GULP energy per Si atom -5589.858612 kJ/mol
# Density = 2.187856 g / cm^3
# Si number density = 21.928474 Si / 1000 Ang^3
#
#
#
# Elastic Constant Matrix: (Units=GPa)
#
#
# Indices 1 2 3 4 5 6 
#
# 1 72.2596 19.0921 2.5711 0.0000 0.0000 0.0000
# 2 19.0921 114.3809 8.9855 0.0000 0.0000 0.0000
# 3 2.5711 8.9855 59.9142 0.0000 0.0000 0.0000
# 4 0.0000 0.0000 0.0000 33.3773 0.0000 0.0000
# 5 0.0000 0.0000 0.0000 0.0000 43.3181 0.0000
# 6 0.0000 0.0000 0.0000 0.0000 0.0000 35.2120
#
#
#
# Elastic Compliance Matrix: (Units=1/GPa)
#
#
# Indices 1 2 3 4 5 6 
#
# 1 0.014482 -0.002397 -0.000262 0.000000 0.000000 0.000000
# 2 -0.002397 0.009244 -0.001283 0.000000 0.000000 0.000000
# 3 -0.000262 -0.001283 0.016894 0.000000 0.000000 0.000000
# 4 0.000000 0.000000 0.000000 0.029960 0.000000 0.000000
# 5 0.000000 0.000000 0.000000 0.000000 0.023085 0.000000
# 6 0.000000 0.000000 0.000000 0.000000 0.000000 0.028399
#
#
# Mechanical properties :
#
#
# Convention : Reuss Voigt Hill
#
# Bulk Modulus (GPa) = 30.54814 34.20579 32.37697
# Shear Modulus (GPa) = 35.49619 36.77523 36.13571
#
# Velocity S-wave (km/s) = 4.02770 4.09963 4.06382
# Velocity P-wave (km/s) = 5.96581 6.16781 6.06765
#
# Compressibility (1/GPa) = 0.03273521
#
# Stress axis : x y z
#
# Youngs Moduli (GPa) = 69.05339 108.18323 59.19173
#
# Poissons Ratio (x) = 0.25927 0.01551
# Poissons Ratio (y) = 0.16550 0.07597
# Poissons Ratio (z) = 0.01809 0.13885
#
# Static dielectric constant tensor:
#      x y z
#    x 1.871490 0.000000 0.000000 
#    y 0.000000 1.796870 0.000000 
#    z 0.000000 0.000000 1.782510 
# 
# From -- ./inp_files/22189.got.cif
#   From: 2010.05.17/outbox.cif.g08.bks.cpg/sg60_12_cif.got.tgz:22189.got - 2010.06.03 14:59:27.
