data_PCOD9458261
_publ_section_title
;
Structure prediction by ZEFSAII (Michael W. Deem and Ramdas Pophale) SiO2 
 PCOD9458261
Probable space group: P B C N
;
_chemical_formula_sum "Si O2"
_cell_formula_units_Z 56
_cell_length_a 15.121784
_cell_length_b 11.809320
_cell_length_c 14.867056
_cell_angle_alpha 90.000000
_cell_angle_beta 90.000000
_cell_angle_gamma 90.000000
_cell_volume 2654.928922
_symmetry_space_group_name_H-M "P B C N"
_symmetry_group_IT_number 60
_symmetry_cell_setting 'orthorhombic'
loop_
_space_group_symop_operation_xyz
x,y,z
1/2-x,1/2-y,1/2+z
1/2+x,1/2-y,-z
-x,y,1/2-z
-x,-y,-z
1/2+x,1/2+y,1/2-z
1/2-x,1/2+y,z
x,-y,1/2+z
loop_
_atom_site_type_symbol
_atom_site_label
_atom_site_fract_x
_atom_site_fract_y
_atom_site_fract_z
Si Si1 0.242270 0.022743 0.557121
Si Si2 0.785954 0.089520 0.254444
Si Si3 0.343261 0.199379 0.647971
Si Si4 0.484415 0.688695 0.016190
Si Si5 0.595556 0.000610 0.226569
Si Si6 0.919389 0.417566 0.025419
Si Si7 0.098317 0.006607 0.903014
O O1 0.263519 0.150237 0.588224
O O2 0.171861 0.012655 0.479311
O O3 0.208704 0.962335 0.646369
O O4 0.331674 0.962059 0.523395
O O5 0.814727 0.218167 0.271451
O O6 0.851222 0.020009 0.189395
O O7 0.683489 0.078015 0.224112
O O8 0.408661 0.256188 0.577323
O O9 0.387581 0.091088 0.695162
O O10 0.526154 0.589533 0.076918
O O11 0.553839 0.789769 0.999933
O O12 0.445762 0.627784 0.926825
O O13 0.500000 0.054705 0.250000
O O14 0.592322 0.934555 0.132180
O O15 0.000000 0.500000 0.000000
#
# Coordination Sequence:
#
# PCOD9458261 Si02
#       7
#     8   8   8   8   8   8   8
#     4  11  24  44  68 101 144 181 241 292 360 428
#     4  11  24  44  71  98 140 184 238 296 352 433
#     4  11  23  44  70  99 138 193 237 287 358 431
#     4  11  24  44  72 102 142 189 241 293 363 430
#     4  11  22  42  69 104 137 183 243 286 358 428
#     4  12  22  43  70 101 142 182 232 302 348 425
#     4  11  25  45  70 106 140 190 237 292 363 432
#
# _framework density 21.092843999999999
#
# number of rings (size 3 to 8) (size 9 to 14) (size 15 to 20)
#    0.000    0.857    5.714    1.714    2.000    0.000 
#   10.286    0.000    0.000    0.000    0.000    0.000 
#    0.000    0.000    0.000    0.000    0.000    0.000 
#
# Total GULP energy -312953.178274 kJ/mol
# GULP energy per Si atom -5588.449612 kJ/mol
# Density = 2.104484 g / cm^3
# Si number density = 21.092844 Si / 1000 Ang^3
#
#
#
# Elastic Constant Matrix: (Units=GPa)
#
#
# Indices 1 2 3 4 5 6 
#
# 1 41.8793 -0.7802 4.9927 0.0000 0.0000 0.0000
# 2 -0.7802 25.2497 6.2891 0.0000 0.0000 0.0000
# 3 4.9927 6.2891 86.5762 0.0000 0.0000 0.0000
# 4 0.0000 0.0000 0.0000 20.9101 0.0000 0.0000
# 5 0.0000 0.0000 0.0000 0.0000 30.1104 0.0000
# 6 0.0000 0.0000 0.0000 0.0000 0.0000 38.1027
#
#
#
# Elastic Compliance Matrix: (Units=1/GPa)
#
#
# Indices 1 2 3 4 5 6 
#
# 1 0.024074 0.001110 -0.001469 0.000000 0.000000 0.000000
# 2 0.001110 0.040385 -0.002998 0.000000 0.000000 0.000000
# 3 -0.001469 -0.002998 0.011853 0.000000 0.000000 0.000000
# 4 0.000000 0.000000 0.000000 0.047824 0.000000 0.000000
# 5 0.000000 0.000000 0.000000 0.000000 0.033211 0.000000
# 6 0.000000 0.000000 0.000000 0.000000 0.000000 0.026245
#
#
# Mechanical properties :
#
#
# Convention : Reuss Voigt Hill
#
# Bulk Modulus (GPa) = 14.36812 19.41206 16.89009
# Shear Modulus (GPa) = 23.41860 27.37154 25.39507
#
# Velocity S-wave (km/s) = 3.33568 3.60623 3.47359
# Velocity P-wave (km/s) = 4.65427 5.15393 4.91046
#
# Compressibility (1/GPa) = 0.06959853
#
# Stress axis : x y z
#
# Youngs Moduli (GPa) = 41.53870 24.76140 84.36685
#
# Poissons Ratio (x) = -0.02748 0.12393
# Poissons Ratio (y) = -0.04610 0.25291
# Poissons Ratio (z) = 0.06102 0.07423
#
# Static dielectric constant tensor:
#      x y z
#    x 1.889450 0.000000 0.000000 
#    y 0.000000 2.323280 0.000000 
#    z 0.000000 0.000000 1.741820 
# 
# From -- ./inp_files/16863.got.cif
#   From: 2010.05.17/outbox.cif.g08.bks.cpg/sg60_9_cif.got.tgz:16863.got - 2010.06.03 14:59:27.
