data_PCOD9458748
_publ_section_title
;
Structure prediction by ZEFSAII (Michael W. Deem and Ramdas Pophale) SiO2 
 PCOD9458748
Probable space group: P B C N
;
_chemical_formula_sum "Si O2"
_cell_formula_units_Z 32
_cell_length_a 9.324032
_cell_length_b 8.518277
_cell_length_c 14.546867
_cell_angle_alpha 90.000000
_cell_angle_beta 90.000000
_cell_angle_gamma 90.000000
_cell_volume 1155.380363
_symmetry_space_group_name_H-M "P B C N"
_symmetry_group_IT_number 60
_symmetry_cell_setting 'orthorhombic'
loop_
_space_group_symop_operation_xyz
x,y,z
1/2-x,1/2-y,1/2+z
1/2+x,1/2-y,-z
-x,y,1/2-z
-x,-y,-z
1/2+x,1/2+y,1/2-z
1/2-x,1/2+y,z
x,-y,1/2+z
loop_
_atom_site_type_symbol
_atom_site_label
_atom_site_fract_x
_atom_site_fract_y
_atom_site_fract_z
Si Si1 0.779876 0.070071 0.905128
Si Si2 0.852040 0.187065 0.283758
Si Si3 0.274884 0.271226 0.905166
Si Si4 0.536681 0.958226 0.640270
O O1 0.763303 0.193513 0.822502
O O2 0.877595 0.931969 0.866354
O O3 0.616697 0.001639 0.905877
O O4 0.819321 0.148779 0.000082
O O5 0.800491 0.123438 0.186830
O O6 0.000000 0.259752 0.250000
O O7 0.102002 0.295525 0.901784
O O8 0.356471 0.105999 0.889521
O O9 0.500000 0.935650 0.750000
#
# Coordination Sequence:
#
# PCOD9458748 Si02
#       4
#     8   8   8   8
#     4  12  26  48  74 108 143 191 242 295 359 434
#     4  12  25  51  70 106 149 185 240 301 352 432
#     4  12  24  47  76 102 144 193 230 303 362 414
#     4  12  24  51  71 105 151 183 244 300 353 433
#
# _framework density 27.696508000000001
#
# number of rings (size 3 to 8) (size 9 to 14) (size 15 to 20)
#    0.000    0.000    7.500    2.250    0.000    1.000 
#   18.000    1.250    0.000    0.000    0.000    0.000 
#    0.000    0.000    0.000    0.000    0.000    0.000 
#
# Total GULP energy -178582.884168 kJ/mol
# GULP energy per Si atom -5580.715130 kJ/mol
# Density = 2.763347 g / cm^3
# Si number density = 27.696508 Si / 1000 Ang^3
#
#
#
# Elastic Constant Matrix: (Units=GPa)
#
#
# Indices 1 2 3 4 5 6 
#
# 1 79.9418 33.8640 25.7368 0.0000 0.0000 0.0000
# 2 33.8640 79.0502 27.4346 0.0000 0.0000 0.0000
# 3 25.7368 27.4346 169.2830 0.0000 0.0000 0.0000
# 4 0.0000 0.0000 0.0000 41.4641 0.0000 0.0000
# 5 0.0000 0.0000 0.0000 0.0000 37.6588 0.0000
# 6 0.0000 0.0000 0.0000 0.0000 0.0000 48.8857
#
#
#
# Elastic Compliance Matrix: (Units=1/GPa)
#
#
# Indices 1 2 3 4 5 6 
#
# 1 0.015574 -0.006198 -0.001363 0.000000 0.000000 0.000000
# 2 -0.006198 0.015871 -0.001630 0.000000 0.000000 0.000000
# 3 -0.001363 -0.001630 0.006379 0.000000 0.000000 0.000000
# 4 0.000000 0.000000 0.000000 0.024117 0.000000 0.000000
# 5 0.000000 0.000000 0.000000 0.000000 0.026554 0.000000
# 6 0.000000 0.000000 0.000000 0.000000 0.000000 0.020456
#
#
# Mechanical properties :
#
#
# Convention : Reuss Voigt Hill
#
# Bulk Modulus (GPa) = 51.43856 55.81621 53.62738
# Shear Modulus (GPa) = 37.36536 41.68437 39.52487
#
# Velocity S-wave (km/s) = 3.67699 3.88369 3.78176
# Velocity P-wave (km/s) = 6.05306 6.34880 6.20270
#
# Compressibility (1/GPa) = 0.01944067
#
# Stress axis : x y z
#
# Youngs Moduli (GPa) = 64.21090 63.00748 156.77317
#
# Poissons Ratio (x) = 0.39055 0.21371
# Poissons Ratio (y) = 0.39801 0.25550
# Poissons Ratio (z) = 0.08753 0.10269
#
# Static dielectric constant tensor:
#      x y z
#    x 2.551420 0.000000 0.000000 
#    y 0.000000 2.225860 0.000000 
#    z 0.000000 0.000000 2.259770 
# 
# From -- ./inp_files/15581.got.cif
#   From: 2010.05.17/outbox.cif.g08.bks.cpg/sg60_8_cif.got.tgz:15581.got - 2010.06.03 14:59:27.
