data_PCOD9458427
_publ_section_title
;
Structure prediction by ZEFSAII (Michael W. Deem and Ramdas Pophale) SiO2 
 PCOD9458427
Probable space group: P B C N
;
_chemical_formula_sum "Si O2"
_cell_formula_units_Z 40
_cell_length_a 10.766631
_cell_length_b 10.963434
_cell_length_c 14.214103
_cell_angle_alpha 90.000000
_cell_angle_beta 90.000000
_cell_angle_gamma 90.000000
_cell_volume 1677.822034
_symmetry_space_group_name_H-M "P B C N"
_symmetry_group_IT_number 60
_symmetry_cell_setting 'orthorhombic'
loop_
_space_group_symop_operation_xyz
x,y,z
1/2-x,1/2-y,1/2+z
1/2+x,1/2-y,-z
-x,y,1/2-z
-x,-y,-z
1/2+x,1/2+y,1/2-z
1/2-x,1/2+y,z
x,-y,1/2+z
loop_
_atom_site_type_symbol
_atom_site_label
_atom_site_fract_x
_atom_site_fract_y
_atom_site_fract_z
Si Si1 0.815155 0.800874 0.195988
Si Si2 0.000000 0.581092 0.750000
Si Si3 0.930359 0.603568 0.084370
Si Si4 0.652499 0.703732 0.348596
Si Si5 0.187749 0.607959 0.980068
Si Si6 0.500000 0.490464 0.750000
O O1 0.913439 0.732340 0.132114
O O2 0.766972 0.707084 0.274365
O O3 0.881943 0.922915 0.231003
O O4 0.708370 0.831360 0.120968
O O5 0.952910 0.488730 0.670059
O O6 0.909422 0.669018 0.812582
O O7 0.047890 0.620392 0.017221
O O8 0.811276 0.540690 0.032368
O O9 0.716289 0.669857 0.447463
O O10 0.548072 0.601501 0.330240
#
# Coordination Sequence:
#
# PCOD9458427 Si02
#       6
#     8   4   8   8   8   4
#     4  12  25  48  71 104 148 188 242 303 369 431
#     4  11  23  48  70 104 149 191 246 300 366 447
#     4  11  25  44  71 106 141 189 248 297 362 444
#     4  11  26  45  72 105 147 193 237 307 364 433
#     4  11  26  42  73 105 138 194 240 297 365 425
#     4  11  27  46  70 108 143 197 244 296 372 447
#
# _framework density 23.840430000000001
#
# number of rings (size 3 to 8) (size 9 to 14) (size 15 to 20)
#    0.000    0.800    2.000    4.200    8.400    2.400 
#    0.000    0.000    0.000    0.000    0.000    0.000 
#    0.000    0.000    0.000    0.000    0.000    0.000 
#
# Total GULP energy -223120.854274 kJ/mol
# GULP energy per Si atom -5578.021357 kJ/mol
# Density = 2.378617 g / cm^3
# Si number density = 23.840430 Si / 1000 Ang^3
#
#
#
# Elastic Constant Matrix: (Units=GPa)
#
#
# Indices 1 2 3 4 5 6 
#
# 1 40.7202 7.1942 18.8614 0.0000 0.0000 0.0000
# 2 7.1942 76.8914 18.7468 0.0000 0.0000 0.0000
# 3 18.8614 18.7468 112.4754 0.0000 0.0000 0.0000
# 4 0.0000 0.0000 0.0000 13.3804 0.0000 0.0000
# 5 0.0000 0.0000 0.0000 0.0000 35.9548 0.0000
# 6 0.0000 0.0000 0.0000 0.0000 0.0000 20.8769
#
#
#
# Elastic Compliance Matrix: (Units=1/GPa)
#
#
# Indices 1 2 3 4 5 6 
#
# 1 0.026785 -0.001471 -0.004246 0.000000 0.000000 0.000000
# 2 -0.001471 0.013637 -0.002026 0.000000 0.000000 0.000000
# 3 -0.004246 -0.002026 0.009941 0.000000 0.000000 0.000000
# 4 0.000000 0.000000 0.000000 0.074736 0.000000 0.000000
# 5 0.000000 0.000000 0.000000 0.000000 0.027813 0.000000
# 6 0.000000 0.000000 0.000000 0.000000 0.000000 0.047900
#
#
# Mechanical properties :
#
#
# Convention : Reuss Voigt Hill
#
# Bulk Modulus (GPa) = 28.67362 35.52132 32.09747
# Shear Modulus (GPa) = 21.93722 26.39473 24.16597
#
# Velocity S-wave (km/s) = 3.03672 3.33098 3.18725
# Velocity P-wave (km/s) = 4.93447 5.45215 5.19975
#
# Compressibility (1/GPa) = 0.03487526
#
# Stress axis : x y z
#
# Youngs Moduli (GPa) = 37.33485 73.33000 100.59676
#
# Poissons Ratio (x) = 0.10785 0.42718
# Poissons Ratio (y) = 0.05491 0.20384
# Poissons Ratio (z) = 0.15854 0.14859
#
# Static dielectric constant tensor:
#      x y z
#    x 1.908570 0.000000 0.000000 
#    y 0.000000 1.955770 0.000000 
#    z 0.000000 0.000000 1.933700 
# 
# From -- ./inp_files/15874.got.cif
#   From: 2010.05.17/outbox.cif.g08.bks.cpg/sg60_8_cif.got.tgz:15874.got - 2010.06.03 14:59:27.
