data_PCOD9458223
_publ_section_title
;
Structure prediction by ZEFSAII (Michael W. Deem and Ramdas Pophale) SiO2 
 PCOD9458223
Probable space group: P B C N
;
_chemical_formula_sum "Si O2"
_cell_formula_units_Z 56
_cell_length_a 22.662733
_cell_length_b 13.197083
_cell_length_c 9.269829
_cell_angle_alpha 90.000000
_cell_angle_beta 90.000000
_cell_angle_gamma 90.000000
_cell_volume 2772.438704
_symmetry_space_group_name_H-M "P B C N"
_symmetry_group_IT_number 60
_symmetry_cell_setting 'orthorhombic'
loop_
_space_group_symop_operation_xyz
x,y,z
1/2-x,1/2-y,1/2+z
1/2+x,1/2-y,-z
-x,y,1/2-z
-x,-y,-z
1/2+x,1/2+y,1/2-z
1/2-x,1/2+y,z
x,-y,1/2+z
loop_
_atom_site_type_symbol
_atom_site_label
_atom_site_fract_x
_atom_site_fract_y
_atom_site_fract_z
Si Si1 0.387014 0.641875 0.085754
Si Si2 0.181371 0.061572 0.622744
Si Si3 0.169630 0.606979 0.938072
Si Si4 0.794791 0.787497 0.123569
Si Si5 0.295085 0.932129 0.736153
Si Si6 0.613846 0.690556 0.085000
Si Si7 0.497964 0.609268 0.577234
O O1 0.364674 0.525719 0.079664
O O2 0.398603 0.652053 0.255010
O O3 0.334868 0.711589 0.020051
O O4 0.443787 0.661383 0.987923
O O5 0.174237 0.135875 0.760500
O O6 0.239784 0.995425 0.665325
O O7 0.172274 0.137071 0.486147
O O8 0.233266 0.660554 0.916378
O O9 0.174880 0.504033 0.851967
O O10 0.123278 0.690649 0.893632
O O11 0.161292 0.585981 0.104933
O O12 0.783619 0.678228 0.195054
O O13 0.560723 0.665124 0.977389
O O14 0.500000 0.600467 0.750000
O O15 0.500000 0.500000 0.500000
#
# Coordination Sequence:
#
# PCOD9458223 Si02
#       7
#     8   8   8   8   8   8   8
#     4  12  24  39  69 100 135 176 218 276 335 406
#     4  11  22  40  61  96 137 178 221 269 332 400
#     4  11  26  40  67  94 138 175 227 278 331 402
#     4  11  24  41  64  97 137 184 222 275 333 398
#     4  11  25  41  62  95 134 182 226 271 331 396
#     4  12  25  42  67 100 137 173 222 273 345 403
#     4  12  26  44  68  99 135 175 219 276 342 407
#
# _framework density 20.198823999999998
#
# number of rings (size 3 to 8) (size 9 to 14) (size 15 to 20)
#    0.000    0.571    4.286    3.857    6.000    0.000 
#    0.000    0.000    0.000    0.857    0.000    0.000 
#    0.000    0.000    0.000    0.000    0.000    0.000 
#
# Total GULP energy -312677.037975 kJ/mol
# GULP energy per Si atom -5583.518535 kJ/mol
# Density = 2.015285 g / cm^3
# Si number density = 20.198824 Si / 1000 Ang^3
#
#
#
# Elastic Constant Matrix: (Units=GPa)
#
#
# Indices 1 2 3 4 5 6 
#
# 1 46.0259 2.8836 13.6937 0.0000 0.0000 0.0000
# 2 2.8836 88.8404 24.2571 0.0000 0.0000 0.0000
# 3 13.6937 24.2571 137.3816 0.0000 0.0000 0.0000
# 4 0.0000 0.0000 0.0000 25.5652 0.0000 0.0000
# 5 0.0000 0.0000 0.0000 0.0000 26.1766 0.0000
# 6 0.0000 0.0000 0.0000 0.0000 0.0000 12.9793
#
#
#
# Elastic Compliance Matrix: (Units=1/GPa)
#
#
# Indices 1 2 3 4 5 6 
#
# 1 0.022392 -0.000123 -0.002210 0.000000 0.000000 0.000000
# 2 -0.000123 0.011827 -0.002076 0.000000 0.000000 0.000000
# 3 -0.002210 -0.002076 0.007866 0.000000 0.000000 0.000000
# 4 0.000000 0.000000 0.000000 0.039116 0.000000 0.000000
# 5 0.000000 0.000000 0.000000 0.000000 0.038202 0.000000
# 6 0.000000 0.000000 0.000000 0.000000 0.000000 0.077046
#
#
# Mechanical properties :
#
#
# Convention : Reuss Voigt Hill
#
# Bulk Modulus (GPa) = 30.06071 39.32407 34.69239
# Shear Modulus (GPa) = 23.11003 28.37179 25.74091
#
# Velocity S-wave (km/s) = 3.38617 3.75190 3.57371
# Velocity P-wave (km/s) = 5.49571 6.18706 5.85161
#
# Compressibility (1/GPa) = 0.03326602
#
# Stress axis : x y z
#
# Youngs Moduli (GPa) = 44.65841 84.55255 127.13193
#
# Poissons Ratio (x) = 0.01043 0.28099
# Poissons Ratio (y) = 0.00551 0.26392
# Poissons Ratio (z) = 0.09870 0.17553
#
# Static dielectric constant tensor:
#      x y z
#    x 1.776410 0.000000 0.000000 
#    y 0.000000 1.824290 0.000000 
#    z 0.000000 0.000000 1.752110 
# 
# From -- ./inp_files/7405.got.cif
#   From: 2010.05.17/outbox.cif.g08.bks.cpg/sg60_4_cif.got.tgz:7405.got - 2010.06.03 14:59:27.
