data_PCOD9458077
_publ_section_title
;
Structure prediction by ZEFSAII (Michael W. Deem and Ramdas Pophale) SiO2 
 PCOD9458077
Probable space group: P B C N
;
_chemical_formula_sum "Si O2"
_cell_formula_units_Z 40
_cell_length_a 14.239964
_cell_length_b 17.367978
_cell_length_c 8.332719
_cell_angle_alpha 90.000000
_cell_angle_beta 90.000000
_cell_angle_gamma 90.000000
_cell_volume 2060.842909
_symmetry_space_group_name_H-M "P B C N"
_symmetry_group_IT_number 60
_symmetry_cell_setting 'orthorhombic'
loop_
_space_group_symop_operation_xyz
x,y,z
1/2-x,1/2-y,1/2+z
1/2+x,1/2-y,-z
-x,y,1/2-z
-x,-y,-z
1/2+x,1/2+y,1/2-z
1/2-x,1/2+y,z
x,-y,1/2+z
loop_
_atom_site_type_symbol
_atom_site_label
_atom_site_fract_x
_atom_site_fract_y
_atom_site_fract_z
Si Si1 0.190991 0.802611 0.364458
Si Si2 0.456280 0.254357 0.580934
Si Si3 0.392966 0.974175 0.482231
Si Si4 0.864637 0.687693 0.398771
Si Si5 0.175914 0.391879 0.162799
O O1 0.104631 0.816926 0.484183
O O2 0.282667 0.792578 0.474273
O O3 0.162810 0.726447 0.267404
O O4 0.223770 0.864491 0.231577
O O5 0.500000 0.280258 0.750000
O O6 0.539150 0.222241 0.468656
O O7 0.385518 0.183503 0.621582
O O8 0.373785 0.904153 0.605146
O O9 0.374928 0.936115 0.309824
O O10 0.500000 0.000000 0.500000
O O11 0.327332 0.046930 0.519902
#
# Coordination Sequence:
#
# PCOD9458077 Si02
#       5
#     8   8   8   8   8
#     4  11  23  38  58  88 130 164 213 253 302 381
#     4  12  20  39  59  87 131 158 207 257 307 373
#     4  11  21  34  57  89 127 165 192 247 326 383
#     4  11  22  37  61  91 125 170 204 258 311 375
#     4  11  23  38  55  91 132 160 199 249 307 390
#
# _framework density 19.409535000000002
#
# number of rings (size 3 to 8) (size 9 to 14) (size 15 to 20)
#    0.000    0.800    8.000    1.200    2.800    1.600 
#    0.000    0.000    0.000    0.000    0.000   57.400 
#    0.000    0.000    0.000    0.000    0.000    0.000 
#
# Total GULP energy -223438.740197 kJ/mol
# GULP energy per Si atom -5585.968505 kJ/mol
# Density = 1.936536 g / cm^3
# Si number density = 19.409535 Si / 1000 Ang^3
#
#
#
# Elastic Constant Matrix: (Units=GPa)
#
#
# Indices 1 2 3 4 5 6 
#
# 1 98.0470 37.9789 27.7741 0.0000 0.0000 0.0000
# 2 37.9789 56.1404 31.8906 0.0000 0.0000 0.0000
# 3 27.7741 31.8906 71.2435 0.0000 0.0000 0.0000
# 4 0.0000 0.0000 0.0000 36.8466 0.0000 0.0000
# 5 0.0000 0.0000 0.0000 0.0000 41.2876 0.0000
# 6 0.0000 0.0000 0.0000 0.0000 0.0000 24.8671
#
#
#
# Elastic Compliance Matrix: (Units=1/GPa)
#
#
# Indices 1 2 3 4 5 6 
#
# 1 0.013960 -0.008519 -0.001629 0.000000 0.000000 0.000000
# 2 -0.008519 0.029084 -0.009698 0.000000 0.000000 0.000000
# 3 -0.001629 -0.009698 0.019013 0.000000 0.000000 0.000000
# 4 0.000000 0.000000 0.000000 0.027140 0.000000 0.000000
# 5 0.000000 0.000000 0.000000 0.000000 0.024220 0.000000
# 6 0.000000 0.000000 0.000000 0.000000 0.000000 0.040214
#
#
# Mechanical properties :
#
#
# Convention : Reuss Voigt Hill
#
# Bulk Modulus (GPa) = 44.71163 46.74645 45.72904
# Shear Modulus (GPa) = 24.90310 29.11940 27.01125
#
# Velocity S-wave (km/s) = 3.58583 3.87752 3.73453
# Velocity P-wave (km/s) = 6.34273 6.64707 6.49668
#
# Compressibility (1/GPa) = 0.02236555
#
# Stress axis : x y z
#
# Youngs Moduli (GPa) = 71.63074 34.38277 52.59670
#
# Poissons Ratio (x) = 0.29290 0.08569
# Poissons Ratio (y) = 0.61021 0.51008
# Poissons Ratio (z) = 0.11670 0.33344
#
# Static dielectric constant tensor:
#      x y z
#    x 1.678700 0.000000 0.000000 
#    y 0.000000 1.679630 0.000000 
#    z 0.000000 0.000000 1.761380 
# 
# From -- ./inp_files/5678.got.cif
#   From: 2010.05.17/outbox.cif.g08.bks.cpg/sg60_3_cif.got.tgz:5678.got - 2010.06.03 14:59:27.
