data_PCOD9458872
_publ_section_title
;
Structure prediction by ZEFSAII (Michael W. Deem and Ramdas Pophale) SiO2 
 PCOD9458872
Probable space group: P B C N
;
_chemical_formula_sum "Si O2"
_cell_formula_units_Z 64
_cell_length_a 9.000000
_cell_length_b 18.000000
_cell_length_c 21.000000
_cell_angle_alpha 90.000000
_cell_angle_beta 90.000000
_cell_angle_gamma 90.000000
_cell_volume 3402.000000
_symmetry_space_group_name_H-M "P B C N"
_symmetry_group_IT_number 60
_symmetry_cell_setting 'orthorhombic'
loop_
_space_group_symop_operation_xyz
x,y,z
1/2-x,1/2-y,1/2+z
1/2+x,1/2-y,-z
-x,y,1/2-z
-x,-y,-z
1/2+x,1/2+y,1/2-z
1/2-x,1/2+y,z
x,-y,1/2+z
loop_
_atom_site_type_symbol
_atom_site_label
_atom_site_fract_x
_atom_site_fract_y
_atom_site_fract_z
Si Si1 0.715239 0.353760 0.498818
Si Si2 0.065187 0.625630 0.860840
Si Si3 0.143128 0.899798 0.285492
Si Si4 0.136503 0.505535 0.705359
Si Si5 0.562884 0.735908 0.437576
Si Si6 0.518698 0.547381 0.911860
Si Si7 0.790863 0.480094 0.031622
Si Si8 0.236322 0.087401 0.096032
O O1 0.576977 0.310578 0.532827
O O2 0.839554 0.291177 0.483290
O O3 0.638840 0.392618 0.436559
O O4 0.786092 0.429112 0.531692
O O5 0.206540 0.639278 0.813419
O O6 0.122779 0.566536 0.914576
O O7 0.931084 0.579270 0.828861
O O8 0.006807 0.703633 0.888581
O O9 0.217908 0.964978 0.242767
O O10 0.000000 0.862442 0.250000
O O11 0.061219 0.931027 0.347236
O O12 0.176261 0.438008 0.658827
O O13 0.000000 0.482070 0.750000
O O14 0.676694 0.671561 0.412015
O O15 0.382670 0.541753 0.960698
O O16 0.595679 0.468304 0.903108
O O17 0.832618 0.443475 0.963929
#
# Coordination Sequence:
#
# PCOD9458872 Si02
#       8
#     8   8   8   8   8   8   8   8
#     4  11  23  37  61  92 137 161 203 245 325 398
#     4  10  23  39  64  97 130 159 211 269 324 369
#     4  10  20  37  72  88 111 163 231 257 299 362
#     4  10  22  41  65  91 119 162 225 270 297 369
#     4  12  24  37  58  98 133 167 189 265 335 385
#     4  10  18  37  64  94 110 161 214 252 295 386
#     4  10  19  38  64  95 117 165 209 248 305 400
#     4  11  19  36  64  85 129 157 205 253 319 377
#
# _framework density 18.812463000000001
#
# number of rings (size 3 to 8) (size 9 to 14) (size 15 to 20)
#    0.000    1.500    3.750    3.000    1.750    3.000 
#    0.000    0.000   11.000    0.000    0.000    0.000 
#    0.000    0.000    0.000    0.000    0.000    0.000 
#
# Total GULP energy -356469.451504 kJ/mol
# GULP energy per Si atom -5569.835180 kJ/mol
# Density = 1.876965 g / cm^3
# Si number density = 18.812463 Si / 1000 Ang^3
#
#
#
# Elastic Constant Matrix: (Units=GPa)
#
#
# Indices 1 2 3 4 5 6 
#
# 1 62.4419 28.5444 31.5193 0.0000 0.0000 0.0000
# 2 28.5444 141.1134 40.7017 0.0000 0.0000 0.0000
# 3 31.5193 40.7017 82.0087 0.0000 0.0000 0.0000
# 4 0.0000 0.0000 0.0000 18.7602 0.0000 0.0000
# 5 0.0000 0.0000 0.0000 0.0000 45.1956 0.0000
# 6 0.0000 0.0000 0.0000 0.0000 0.0000 23.7125
#
#
#
# Elastic Compliance Matrix: (Units=1/GPa)
#
#
# Indices 1 2 3 4 5 6 
#
# 1 0.020428 -0.002180 -0.006770 0.000000 0.000000 0.000000
# 2 -0.002180 0.008503 -0.003382 0.000000 0.000000 0.000000
# 3 -0.006770 -0.003382 0.016474 0.000000 0.000000 0.000000
# 4 0.000000 0.000000 0.000000 0.053304 0.000000 0.000000
# 5 0.000000 0.000000 0.000000 0.000000 0.022126 0.000000
# 6 0.000000 0.000000 0.000000 0.000000 0.000000 0.042172
#
#
# Mechanical properties :
#
#
# Convention : Reuss Voigt Hill
#
# Bulk Modulus (GPa) = 48.21051 54.12164 51.16608
# Shear Modulus (GPa) = 25.69559 29.85355 27.77457
#
# Velocity S-wave (km/s) = 3.69979 3.98792 3.84655
# Velocity P-wave (km/s) = 6.62826 7.07362 6.85456
#
# Compressibility (1/GPa) = 0.02074237
#
# Stress axis : x y z
#
# Youngs Moduli (GPa) = 48.95124 117.60568 60.70017
#
# Poissons Ratio (x) = 0.25634 0.41092
# Poissons Ratio (y) = 0.10670 0.20531
# Poissons Ratio (z) = 0.33139 0.39779
#
# Static dielectric constant tensor:
#      x y z
#    x 1.697340 0.000000 0.000000 
#    y 0.000000 1.605660 0.000000 
#    z 0.000000 0.000000 1.767030 
# 
# From -- ./inp_files/22379.got.cif
#   From: 2010.05.17/outbox.ucp.g08.bks.cvg/sg60_12_cif.got.tgz:22379.got - 2010.06.11 16:26:41.
