data_PCOD9458731
_publ_section_title
;
Structure prediction by ZEFSAII (Michael W. Deem and Ramdas Pophale) SiO2 
 PCOD9458731
Probable space group: P B C N
;
_chemical_formula_sum "Si O2"
_cell_formula_units_Z 20
_cell_length_a 8.828664
_cell_length_b 13.709098
_cell_length_c 5.491678
_cell_angle_alpha 90.000000
_cell_angle_beta 90.000000
_cell_angle_gamma 90.000000
_cell_volume 664.674373
_symmetry_space_group_name_H-M "P B C N"
_symmetry_group_IT_number 60
_symmetry_cell_setting 'orthorhombic'
loop_
_space_group_symop_operation_xyz
x,y,z
1/2-x,1/2-y,1/2+z
1/2+x,1/2-y,-z
-x,y,1/2-z
-x,-y,-z
1/2+x,1/2+y,1/2-z
1/2-x,1/2+y,z
x,-y,1/2+z
loop_
_atom_site_type_symbol
_atom_site_label
_atom_site_fract_x
_atom_site_fract_y
_atom_site_fract_z
Si Si1 0.827051 0.259721 0.048471
Si Si2 0.691829 0.971884 0.283677
Si Si3 0.500000 0.409798 0.750000
O O1 0.719954 0.222615 0.271225
O O2 0.841872 0.367072 0.163714
O O3 0.950549 0.172079 0.048831
O O4 0.634746 0.962908 0.559432
O O5 0.860935 0.019637 0.322694
#
# Coordination Sequence:
#
# PCOD9458731 Si02
#       3
#     8   8   4
#     4  12  26  42  69 111 136 179 243 282 339 429
#     4  12  24  44  71 105 138 183 235 286 343 421
#     4  12  26  46  80  94 148 188 226 286 372 380
#
# _framework density 30.089918999999998
#
# number of rings (size 3 to 8) (size 9 to 14) (size 15 to 20)
#    0.000    0.000    8.000    1.200    0.000    1.600 
#    0.000    2.000    0.000    0.000    0.000    0.000 
#    0.000    0.000    0.000    0.000    0.000    0.000 
#
# Total GULP energy -111413.581535 kJ/mol
# GULP energy per Si atom -5570.679077 kJ/mol
# Density = 3.002143 g / cm^3
# Si number density = 30.089919 Si / 1000 Ang^3
#
#
#
# Elastic Constant Matrix: (Units=GPa)
#
#
# Indices 1 2 3 4 5 6 
#
# 1 161.0270 34.5953 21.5753 0.0000 0.0000 0.0000
# 2 34.5953 257.4922 58.4113 0.0000 0.0000 0.0000
# 3 21.5753 58.4113 232.1831 0.0000 0.0000 0.0000
# 4 0.0000 0.0000 0.0000 103.2493 0.0000 0.0000
# 5 0.0000 0.0000 0.0000 0.0000 19.3012 0.0000
# 6 0.0000 0.0000 0.0000 0.0000 0.0000 36.5033
#
#
#
# Elastic Compliance Matrix: (Units=1/GPa)
#
#
# Indices 1 2 3 4 5 6 
#
# 1 0.006430 -0.000772 -0.000403 0.000000 0.000000 0.000000
# 2 -0.000772 0.004211 -0.000988 0.000000 0.000000 0.000000
# 3 -0.000403 -0.000988 0.004593 0.000000 0.000000 0.000000
# 4 0.000000 0.000000 0.000000 0.009685 0.000000 0.000000
# 5 0.000000 0.000000 0.000000 0.000000 0.051810 0.000000
# 6 0.000000 0.000000 0.000000 0.000000 0.000000 0.027395
#
#
# Mechanical properties :
#
#
# Convention : Reuss Voigt Hill
#
# Bulk Modulus (GPa) = 91.67784 97.76292 94.72038
# Shear Modulus (GPa) = 44.60800 67.55211 56.08006
#
# Velocity S-wave (km/s) = 3.85449 4.74329 4.32180
# Velocity P-wave (km/s) = 7.09532 7.90944 7.51341
#
# Compressibility (1/GPa) = 0.01090776
#
# Stress axis : x y z
#
# Youngs Moduli (GPa) = 155.51822 237.44759 217.72765
#
# Poissons Ratio (x) = 0.18342 0.08778
# Poissons Ratio (y) = 0.12013 0.21505
# Poissons Ratio (z) = 0.06270 0.23453
#
# Static dielectric constant tensor:
#      x y z
#    x 2.835360 0.000000 0.000000 
#    y 0.000000 2.334990 0.000000 
#    z 0.000000 0.000000 2.684950 
# 
# From -- ./inp_files/506.got.cif
#   From: 2010.05.17/outbox.cif.g08.bks.cpg/sg60_1_cif.got.tgz:506.got - 2010.06.03 14:59:27.
