data_PCOD9458465
_publ_section_title
;
Structure prediction by ZEFSAII (Michael W. Deem and Ramdas Pophale) SiO2 
 PCOD9458465
Probable space group: P B C N
;
_chemical_formula_sum "Si O2"
_cell_formula_units_Z 48
_cell_length_a 28.845903
_cell_length_b 9.179393
_cell_length_c 9.034558
_cell_angle_alpha 90.000000
_cell_angle_beta 90.000000
_cell_angle_gamma 90.000000
_cell_volume 2392.241460
_symmetry_space_group_name_H-M "P B C N"
_symmetry_group_IT_number 60
_symmetry_cell_setting 'orthorhombic'
loop_
_space_group_symop_operation_xyz
x,y,z
1/2-x,1/2-y,1/2+z
1/2+x,1/2-y,-z
-x,y,1/2-z
-x,-y,-z
1/2+x,1/2+y,1/2-z
1/2-x,1/2+y,z
x,-y,1/2+z
loop_
_atom_site_type_symbol
_atom_site_label
_atom_site_fract_x
_atom_site_fract_y
_atom_site_fract_z
Si Si1 0.212126 0.380054 0.301969
Si Si2 0.116919 0.105306 0.011147
Si Si3 0.118229 0.796011 0.849369
Si Si4 0.016930 0.865971 0.410048
Si Si5 0.292885 0.194729 0.455451
Si Si6 0.473576 0.124123 0.906263
O O1 0.167090 0.286065 0.345615
O O2 0.254555 0.303683 0.387978
O O3 0.205716 0.548266 0.353911
O O4 0.217847 0.359992 0.123845
O O5 0.110199 0.129690 0.187538
O O6 0.070818 0.163850 0.930749
O O7 0.160335 0.206805 0.964589
O O8 0.119885 0.934069 0.963275
O O9 0.080165 0.666493 0.873271
O O10 0.000000 0.895099 0.250000
O O11 0.985324 0.746373 0.478691
O O12 0.000000 0.000000 0.500000
O O13 0.500000 0.133867 0.750000
O O14 0.500000 0.000000 0.000000
#
# Coordination Sequence:
#
# PCOD9458465 Si02
#       6
#     8   8   8   8   8   8
#     4  11  25  45  70 101 137 179 223 282 338 407
#     4  11  24  43  68 101 138 177 229 281 339 407
#     4  11  25  43  69 100 134 179 227 280 341 404
#     4  12  23  42  67  99 134 181 227 276 332 399
#     4  11  25  46  71 102 140 177 228 281 341 407
#     4  12  26  45  65  95 138 176 226 280 338 401
#
# _framework density 20.064864
#
# number of rings (size 3 to 8) (size 9 to 14) (size 15 to 20)
#    0.000    0.667    3.333    4.000    2.333    5.333 
#    0.000    0.000    0.000    0.000    0.000    0.000 
#    0.000    0.000    0.000    0.000    0.000    0.000 
#
# Total GULP energy -267362.448873 kJ/mol
# GULP energy per Si atom -5570.051018 kJ/mol
# Density = 2.001920 g / cm^3
# Si number density = 20.064864 Si / 1000 Ang^3
#
#
#
# Elastic Constant Matrix: (Units=GPa)
#
#
# Indices 1 2 3 4 5 6 
#
# 1 139.7252 -9.1887 56.2606 0.0000 0.0000 0.0000
# 2 -9.1887 -20.8028 35.5861 0.0000 0.0000 0.0000
# 3 56.2606 35.5861 135.3918 0.0000 0.0000 0.0000
# 4 0.0000 0.0000 0.0000 54.4275 0.0000 0.0000
# 5 0.0000 0.0000 0.0000 0.0000 30.0837 0.0000
# 6 0.0000 0.0000 0.0000 0.0000 0.0000-1371.5839
#
#
#
# Elastic Compliance Matrix: (Units=1/GPa)
#
#
# Indices 1 2 3 4 5 6 
#
# 1 0.007385 -0.005872 -0.001525 0.000000 0.000000 0.000000
# 2 -0.005872 -0.028492 0.009929 0.000000 0.000000 0.000000
# 3 -0.001525 0.009929 0.005410 0.000000 0.000000 0.000000
# 4 0.000000 0.000000 0.000000 0.018373 0.000000 0.000000
# 5 0.000000 0.000000 0.000000 0.000000 0.033241 0.000000
# 6 0.000000 0.000000 0.000000 0.000000 0.000000 -0.000729
#
#
# Mechanical properties :
#
#
# Convention : Reuss Voigt Hill
#
# Bulk Modulus (GPa) = -94.03977 46.62556 -23.70710
# Shear Modulus (GPa) = 188.11544 -245.97080 -28.92768
#
# Velocity S-wave (km/s) = 9.69315 -11.08395 -3.80110
# Velocity P-wave (km/s) = 8.84910 11.85400 5.57722
#
# Compressibility (1/GPa) = -0.01063380
#
# Stress axis : x y z
#
# Youngs Moduli (GPa) = 135.40920 -35.09703 184.83507
#
# Poissons Ratio (x) = -0.20607 0.28197
# Poissons Ratio (y) = 0.79506 -1.83518
# Poissons Ratio (z) = 0.20657 0.34847
#
# Static dielectric constant tensor:
#      x y z
#    x 1.752420 0.000000 0.000000 
#    y 0.000000 1.299270 0.000000 
#    z 0.000000 0.000000 1.841260 
# 
# From -- ./inp_files/8376.got.cif
#   From: 2010.05.17/outbox.cif.g08.bks.cpg/sg60_5_cif.got.tgz:8376.got - 2010.06.03 14:59:27.
