data_PCOD9458275
_publ_section_title
;
Structure prediction by ZEFSAII (Michael W. Deem and Ramdas Pophale) SiO2 
 PCOD9458275
Probable space group: P B C N
;
_chemical_formula_sum "Si O2"
_cell_formula_units_Z 64
_cell_length_a 10.439887
_cell_length_b 8.946945
_cell_length_c 29.187840
_cell_angle_alpha 90.000000
_cell_angle_beta 90.000000
_cell_angle_gamma 90.000000
_cell_volume 2726.292962
_symmetry_space_group_name_H-M "P B C N"
_symmetry_group_IT_number 60
_symmetry_cell_setting 'orthorhombic'
loop_
_space_group_symop_operation_xyz
x,y,z
1/2-x,1/2-y,1/2+z
1/2+x,1/2-y,-z
-x,y,1/2-z
-x,-y,-z
1/2+x,1/2+y,1/2-z
1/2-x,1/2+y,z
x,-y,1/2+z
loop_
_atom_site_type_symbol
_atom_site_label
_atom_site_fract_x
_atom_site_fract_y
_atom_site_fract_z
Si Si1 0.834963 0.862337 0.458759
Si Si2 0.695267 0.537108 0.827524
Si Si3 0.359958 0.758964 0.119732
Si Si4 0.001180 0.783300 0.381075
Si Si5 0.218313 0.110089 0.820934
Si Si6 0.642156 0.067782 0.510591
Si Si7 0.579503 0.961543 0.108932
Si Si8 0.358025 0.350527 0.762303
O O1 0.735531 0.796019 0.421388
O O2 0.961816 0.873659 0.426946
O O3 0.757497 0.997923 0.480869
O O4 0.862170 0.741318 0.497803
O O5 0.824321 0.626380 0.838872
O O6 0.664225 0.407273 0.863968
O O7 0.590105 0.664491 0.839146
O O8 0.692919 0.448534 0.780210
O O9 0.500549 0.807876 0.105691
O O10 0.142238 0.809251 0.361653
O O11 0.989028 0.607717 0.392134
O O12 0.343644 0.041020 0.844083
O O13 0.263550 0.223581 0.781219
O O14 0.132255 0.974983 0.802144
O O15 0.500000 0.000000 0.500000
O O16 0.665340 0.032351 0.563698
O O17 0.500000 0.294024 0.750000
#
# Coordination Sequence:
#
# PCOD9458275 Si02
#       8
#     8   8   8   8   8   8   8   8
#     4  11  23  45  74 102 147 189 246 307 371 447
#     4  11  23  42  75 103 143 187 251 305 359 452
#     4  11  22  43  72 106 139 194 241 301 378 442
#     4  11  23  46  70 103 141 197 246 300 381 441
#     4  12  27  46  72 103 147 195 240 309 375 440
#     4  12  25  46  70 109 146 190 251 313 372 452
#     4  12  26  45  71 101 152 194 246 309 375 449
#     4  12  25  48  70 107 150 189 249 301 374 444
#
# _framework density 23.475100000000001
#
# number of rings (size 3 to 8) (size 9 to 14) (size 15 to 20)
#    0.000    0.500    5.000    4.500    1.750    0.000 
#    0.000    1.875    0.000    0.000    0.000    0.000 
#    0.000    0.000    0.000    0.000    0.000    0.000 
#
# Total GULP energy -357790.072664 kJ/mol
# GULP energy per Si atom -5590.469885 kJ/mol
# Density = 2.342167 g / cm^3
# Si number density = 23.475100 Si / 1000 Ang^3
#
#
#
# Elastic Constant Matrix: (Units=GPa)
#
#
# Indices 1 2 3 4 5 6 
#
# 1 65.2798 21.0300 13.3588 0.0000 0.0000 0.0000
# 2 21.0300 83.3867 23.3247 0.0000 0.0000 0.0000
# 3 13.3588 23.3247 84.2817 0.0000 0.0000 0.0000
# 4 0.0000 0.0000 0.0000 44.0276 0.0000 0.0000
# 5 0.0000 0.0000 0.0000 0.0000 41.4987 0.0000
# 6 0.0000 0.0000 0.0000 0.0000 0.0000 30.5955
#
#
#
# Elastic Compliance Matrix: (Units=1/GPa)
#
#
# Indices 1 2 3 4 5 6 
#
# 1 0.016876 -0.003802 -0.001623 0.000000 0.000000 0.000000
# 2 -0.003802 0.013855 -0.003232 0.000000 0.000000 0.000000
# 3 -0.001623 -0.003232 0.013017 0.000000 0.000000 0.000000
# 4 0.000000 0.000000 0.000000 0.022713 0.000000 0.000000
# 5 0.000000 0.000000 0.000000 0.000000 0.024097 0.000000
# 6 0.000000 0.000000 0.000000 0.000000 0.000000 0.032684
#
#
# Mechanical properties :
#
#
# Convention : Reuss Voigt Hill
#
# Bulk Modulus (GPa) = 37.82949 38.70835 38.26892
# Shear Modulus (GPa) = 33.47474 34.90667 34.19070
#
# Velocity S-wave (km/s) = 3.78030 3.86030 3.82051
# Velocity P-wave (km/s) = 5.93329 6.03276 5.98323
#
# Compressibility (1/GPa) = 0.02643440
#
# Stress axis : x y z
#
# Youngs Moduli (GPa) = 59.25719 72.17514 76.82536
#
# Poissons Ratio (x) = 0.27442 0.12466
# Poissons Ratio (y) = 0.22530 0.24828
# Poissons Ratio (z) = 0.09615 0.23325
#
# Static dielectric constant tensor:
#      x y z
#    x 1.972680 0.000000 0.000000 
#    y 0.000000 1.866010 0.000000 
#    z 0.000000 0.000000 1.917500 
# 
# From -- ./inp_files/26119.got.cif
#   From: 2010.05.17/outbox.cif.g08.bks.cpg/sg60_14_cif.got.tgz:26119.got - 2010.06.03 14:59:27.
