data_PCOD9458688
_publ_section_title
;
Structure prediction by ZEFSAII (Michael W. Deem and Ramdas Pophale) SiO2 
 PCOD9458688
Probable space group: P B C N
;
_chemical_formula_sum "Si O2"
_cell_formula_units_Z 20
_cell_length_a 8.896703
_cell_length_b 16.404041
_cell_length_c 4.706944
_cell_angle_alpha 90.000000
_cell_angle_beta 90.000000
_cell_angle_gamma 90.000000
_cell_volume 686.940260
_symmetry_space_group_name_H-M "P B C N"
_symmetry_group_IT_number 60
_symmetry_cell_setting 'orthorhombic'
loop_
_space_group_symop_operation_xyz
x,y,z
1/2-x,1/2-y,1/2+z
1/2+x,1/2-y,-z
-x,y,1/2-z
-x,-y,-z
1/2+x,1/2+y,1/2-z
1/2-x,1/2+y,z
x,-y,1/2+z
loop_
_atom_site_type_symbol
_atom_site_label
_atom_site_fract_x
_atom_site_fract_y
_atom_site_fract_z
Si Si1 0.000000 0.599134 0.250000
Si Si2 0.232315 0.694972 0.651722
Si Si3 0.193334 0.950432 0.518816
O O1 0.100122 0.651446 0.473312
O O2 0.125719 0.553026 0.066266
O O3 0.318259 0.742446 0.399498
O O4 0.329236 0.630757 0.838053
O O5 0.145389 0.028929 0.336469
#
# Coordination Sequence:
#
# PCOD9458688 Si02
#       3
#     4   8   8
#     4  12  24  38  66  92 136 160 206 260 316 374
#     4  12  25  40  58  92 133 169 209 246 313 385
#     4  12  23  38  63  96 130 160 198 261 330 380
#
# _framework density 29.114612000000001
#
# number of rings (size 3 to 8) (size 9 to 14) (size 15 to 20)
#    0.000    0.000    8.000    2.400    0.000    0.000 
#    0.000    0.000    0.000    0.000    0.000   28.000 
#    0.000    0.000    0.000    0.000    0.000    0.000 
#
# Total GULP energy -111864.570235 kJ/mol
# GULP energy per Si atom -5593.228512 kJ/mol
# Density = 2.904835 g / cm^3
# Si number density = 29.114612 Si / 1000 Ang^3
#
#
#
# Elastic Constant Matrix: (Units=GPa)
#
#
# Indices 1 2 3 4 5 6 
#
# 1 110.4766 3.3440 -13.7964 0.0000 0.0000 0.0000
# 2 3.3440 101.4580 87.3263 0.0000 0.0000 0.0000
# 3 -13.7964 87.3263 247.0076 0.0000 0.0000 0.0000
# 4 0.0000 0.0000 0.0000 113.5294 0.0000 0.0000
# 5 0.0000 0.0000 0.0000 0.0000 32.1028 0.0000
# 6 0.0000 0.0000 0.0000 0.0000 0.0000 34.7830
#
#
#
# Elastic Compliance Matrix: (Units=1/GPa)
#
#
# Indices 1 2 3 4 5 6 
#
# 1 0.009196 -0.001071 0.000892 0.000000 0.000000 0.000000
# 2 -0.001071 0.014292 -0.005113 0.000000 0.000000 0.000000
# 3 0.000892 -0.005113 0.005906 0.000000 0.000000 0.000000
# 4 0.000000 0.000000 0.000000 0.008808 0.000000 0.000000
# 5 0.000000 0.000000 0.000000 0.000000 0.031150 0.000000
# 6 0.000000 0.000000 0.000000 0.000000 0.000000 0.028750
#
#
# Mechanical properties :
#
#
# Convention : Reuss Voigt Hill
#
# Bulk Modulus (GPa) = 53.16150 68.07667 60.61909
# Shear Modulus (GPa) = 43.49555 61.55426 52.52491
#
# Velocity S-wave (km/s) = 3.86935 4.60304 4.25205
# Velocity P-wave (km/s) = 6.18559 7.18914 6.70616
#
# Compressibility (1/GPa) = 0.01881060
#
# Stress axis : x y z
#
# Youngs Moduli (GPa) = 108.74838 69.96876 169.32532
#
# Poissons Ratio (x) = 0.07494 -0.15108
# Poissons Ratio (y) = 0.11648 0.86569
# Poissons Ratio (z) = -0.09703 0.35772
#
# Static dielectric constant tensor:
#      x y z
#    x 2.354810 0.000000 0.000000 
#    y 0.000000 2.394630 0.000000 
#    z 0.000000 0.000000 2.137010 
# 
# From -- ./inp_files/542.got.cif
#   From: 2010.05.17/outbox.cif.g08.bks.cpg/sg60_1_cif.got.tgz:542.got - 2010.06.03 14:59:27.
