data_PCOD9458316
_publ_section_title
;
Structure prediction by ZEFSAII (Michael W. Deem and Ramdas Pophale) SiO2 
 PCOD9458316
Probable space group: P B C N
;
_chemical_formula_sum "Si O2"
_cell_formula_units_Z 60
_cell_length_a 20.593224
_cell_length_b 9.087157
_cell_length_c 14.301169
_cell_angle_alpha 90.000000
_cell_angle_beta 90.000000
_cell_angle_gamma 90.000000
_cell_volume 2676.232952
_symmetry_space_group_name_H-M "P B C N"
_symmetry_group_IT_number 60
_symmetry_cell_setting 'orthorhombic'
loop_
_space_group_symop_operation_xyz
x,y,z
1/2-x,1/2-y,1/2+z
1/2+x,1/2-y,-z
-x,y,1/2-z
-x,-y,-z
1/2+x,1/2+y,1/2-z
1/2-x,1/2+y,z
x,-y,1/2+z
loop_
_atom_site_type_symbol
_atom_site_label
_atom_site_fract_x
_atom_site_fract_y
_atom_site_fract_z
Si Si1 0.865639 0.255784 0.153969
Si Si2 0.599905 0.521419 0.399318
Si Si3 0.201610 0.763377 0.139548
Si Si4 0.100616 0.927185 0.387190
Si Si5 0.500000 0.576406 0.750000
Si Si6 0.842074 0.539948 0.507198
Si Si7 0.346758 0.832332 0.148545
Si Si8 0.288753 0.201787 0.350970
O O1 0.892006 0.090989 0.154706
O O2 0.875886 0.345968 0.248702
O O3 0.787599 0.234872 0.143992
O O4 0.887594 0.351386 0.066016
O O5 0.643412 0.376060 0.382946
O O6 0.579773 0.547051 0.506412
O O7 0.540120 0.512263 0.328268
O O8 0.643085 0.661619 0.374232
O O9 0.202776 0.646377 0.055752
O O10 0.268964 0.852080 0.146257
O O11 0.194532 0.685311 0.240634
O O12 0.051990 0.842744 0.316836
O O13 0.168386 0.840168 0.384956
O O14 0.875711 0.434472 0.431573
O O15 0.806337 0.435022 0.582350
#
# Coordination Sequence:
#
# PCOD9458316 Si02
#       8
#     8   8   8   8   4   8   8   8
#     4  11  23  39  63 100 140 174 212 270 342 402
#     4  12  24  44  72  99 127 176 231 276 325 387
#     4  11  23  39  63 100 140 174 212 270 342 402
#     4  12  24  44  72  99 127 176 231 276 325 387
#     4  12  26  48  72  92 124 180 242 292 296 374
#     4  12  22  34  62  95 134 171 204 258 340 416
#     4  11  23  39  63 100 140 174 212 270 342 402
#     4  11  23  39  63 100 140 174 212 270 342 402
#
# _framework density 22.419574000000001
#
# number of rings (size 3 to 8) (size 9 to 14) (size 15 to 20)
#    0.000    0.533    5.333    3.600    3.733    4.267 
#    0.000    0.000    0.000    4.800    0.000    0.000 
#    0.000    0.000    0.000    0.000    0.000    0.000 
#
# Total GULP energy -335325.744046 kJ/mol
# GULP energy per Si atom -5588.762401 kJ/mol
# Density = 2.236855 g / cm^3
# Si number density = 22.419574 Si / 1000 Ang^3
#
#
#
# Elastic Constant Matrix: (Units=GPa)
#
#
# Indices 1 2 3 4 5 6 
#
# 1 61.5039 2.0729 15.1066 0.0000 0.0000 0.0000
# 2 2.0729 79.2842 26.4429 0.0000 0.0000 0.0000
# 3 15.1066 26.4429 178.7102 0.0000 0.0000 0.0000
# 4 0.0000 0.0000 0.0000 33.9063 0.0000 0.0000
# 5 0.0000 0.0000 0.0000 0.0000 23.3568 0.0000
# 6 0.0000 0.0000 0.0000 0.0000 0.0000 6.5301
#
#
#
# Elastic Compliance Matrix: (Units=1/GPa)
#
#
# Indices 1 2 3 4 5 6 
#
# 1 0.016604 0.000036 -0.001409 0.000000 0.000000 0.000000
# 2 0.000036 0.013268 -0.001966 0.000000 0.000000 0.000000
# 3 -0.001409 -0.001966 0.006006 0.000000 0.000000 0.000000
# 4 0.000000 0.000000 0.000000 0.029493 0.000000 0.000000
# 5 0.000000 0.000000 0.000000 0.000000 0.042814 0.000000
# 6 0.000000 0.000000 0.000000 0.000000 0.000000 0.153136
#
#
# Mechanical properties :
#
#
# Convention : Reuss Voigt Hill
#
# Bulk Modulus (GPa) = 34.24798 45.19366 39.72082
# Shear Modulus (GPa) = 18.00297 31.15039 24.57668
#
# Velocity S-wave (km/s) = 2.83680 3.73155 3.31451
# Velocity P-wave (km/s) = 5.10285 6.22638 5.69240
#
# Compressibility (1/GPa) = 0.02919880
#
# Stress axis : x y z
#
# Youngs Moduli (GPa) = 60.22660 75.37112 166.50932
#
# Poissons Ratio (x) = -0.00270 0.23459
# Poissons Ratio (y) = -0.00215 0.32739
# Poissons Ratio (z) = 0.08485 0.14819
#
# Static dielectric constant tensor:
#      x y z
#    x 1.836200 0.000000 0.000000 
#    y 0.000000 1.837600 0.000000 
#    z 0.000000 0.000000 1.889790 
# 
# From -- ./inp_files/17925.got.cif
#   From: 2010.05.17/outbox.cif.g08.bks.cpg/sg60_9_cif.got.tgz:17925.got - 2010.06.03 14:59:27.
