data_PCOD9458426
_publ_section_title
;
Structure prediction by ZEFSAII (Michael W. Deem and Ramdas Pophale) SiO2 
 PCOD9458426
Probable space group: P B C N
;
_chemical_formula_sum "Si O2"
_cell_formula_units_Z 32
_cell_length_a 22.874910
_cell_length_b 6.820222
_cell_length_c 7.081376
_cell_angle_alpha 90.000000
_cell_angle_beta 90.000000
_cell_angle_gamma 90.000000
_cell_volume 1104.779381
_symmetry_space_group_name_H-M "P B C N"
_symmetry_group_IT_number 60
_symmetry_cell_setting 'orthorhombic'
loop_
_space_group_symop_operation_xyz
x,y,z
1/2-x,1/2-y,1/2+z
1/2+x,1/2-y,-z
-x,y,1/2-z
-x,-y,-z
1/2+x,1/2+y,1/2-z
1/2-x,1/2+y,z
x,-y,1/2+z
loop_
_atom_site_type_symbol
_atom_site_label
_atom_site_fract_x
_atom_site_fract_y
_atom_site_fract_z
Si Si1 0.678484 0.802937 0.974181
Si Si2 0.811952 0.140478 0.559400
Si Si3 0.104584 0.228940 0.269258
Si Si4 0.503140 0.764976 0.526666
O O1 0.677398 0.743772 0.757731
O O2 0.662656 0.583214 0.070572
O O3 0.742188 0.878567 0.027104
O O4 0.628073 0.907414 0.089559
O O5 0.836714 0.237973 0.374644
O O6 0.051776 0.168123 0.419621
O O7 0.061623 0.214871 0.086632
O O8 0.500000 0.725972 0.750000
O O9 0.500000 0.000000 0.500000
#
# Coordination Sequence:
#
# PCOD9458426 Si02
#       4
#     8   8   8   8
#     4  12  24  46  70 106 150 189 237 292 358 436
#     4  12  24  46  70 106 150 189 237 292 358 436
#     4  11  24  42  74 100 140 195 230 306 358 411
#     4  11  23  48  69 102 146 190 248 298 355 429
#
# _framework density 28.965059
#
# number of rings (size 3 to 8) (size 9 to 14) (size 15 to 20)
#    0.000    0.500    7.500    1.500    0.000    2.000 
#    9.000    5.000    0.000    0.000    0.000    0.000 
#    0.000    0.000    0.000    0.000    0.000    0.000 
#
# Total GULP energy -178184.404677 kJ/mol
# GULP energy per Si atom -5568.262646 kJ/mol
# Density = 2.889913 g / cm^3
# Si number density = 28.965059 Si / 1000 Ang^3
#
#
#
# Elastic Constant Matrix: (Units=GPa)
#
#
# Indices 1 2 3 4 5 6 
#
# 1 219.0244 -27.3723 57.6454 0.0000 0.0000 0.0000
# 2 -27.3723 96.4514 9.7797 0.0000 0.0000 0.0000
# 3 57.6454 9.7797 306.6152 0.0000 0.0000 0.0000
# 4 0.0000 0.0000 0.0000 125.5002 0.0000 0.0000
# 5 0.0000 0.0000 0.0000 0.0000 54.9308 0.0000
# 6 0.0000 0.0000 0.0000 0.0000 0.0000 -3.2054
#
#
#
# Elastic Compliance Matrix: (Units=1/GPa)
#
#
# Indices 1 2 3 4 5 6 
#
# 1 0.005017 0.001524 -0.000992 0.000000 0.000000 0.000000
# 2 0.001524 0.010865 -0.000633 0.000000 0.000000 0.000000
# 3 -0.000992 -0.000633 0.003468 0.000000 0.000000 0.000000
# 4 0.000000 0.000000 0.000000 0.007968 0.000000 0.000000
# 5 0.000000 0.000000 0.000000 0.000000 0.018205 0.000000
# 6 0.000000 0.000000 0.000000 0.000000 0.000000 -0.311969
#
#
# Mechanical properties :
#
#
# Convention : Reuss Voigt Hill
#
# Bulk Modulus (GPa) = 52.22226 78.02185 65.12206
# Shear Modulus (GPa) = -19.24099 74.24766 27.50334
#
# Velocity S-wave (km/s) = -2.58016 5.06845 3.08480
# Velocity P-wave (km/s) = 3.03187 7.82606 5.93462
#
# Compressibility (1/GPa) = 0.01914892
#
# Stress axis : x y z
#
# Youngs Moduli (GPa) = 199.31127 92.04080 288.34282
#
# Poissons Ratio (x) = -0.14031 0.28601
# Poissons Ratio (y) = -0.30384 0.18256
# Poissons Ratio (z) = 0.19770 0.05827
#
# Static dielectric constant tensor:
#      x y z
#    x 2.486990 0.000000 0.000000 
#    y 0.000000 3.156500 0.000000 
#    z 0.000000 0.000000 2.074190 
# 
# From -- ./inp_files/7133.got.cif
#   From: 2010.05.17/outbox.cif.g08.bks.cpg/sg60_4_cif.got.tgz:7133.got - 2010.06.03 14:59:27.
