data_PCOD9458789
_publ_section_title
;
Structure prediction by ZEFSAII (Michael W. Deem and Ramdas Pophale) SiO2 
 PCOD9458789
Probable space group: P B C N
;
_chemical_formula_sum "Si O2"
_cell_formula_units_Z 40
_cell_length_a 10.298303
_cell_length_b 17.817678
_cell_length_c 8.549406
_cell_angle_alpha 90.000000
_cell_angle_beta 90.000000
_cell_angle_gamma 90.000000
_cell_volume 1568.746296
_symmetry_space_group_name_H-M "P B C N"
_symmetry_group_IT_number 60
_symmetry_cell_setting 'orthorhombic'
loop_
_space_group_symop_operation_xyz
x,y,z
1/2-x,1/2-y,1/2+z
1/2+x,1/2-y,-z
-x,y,1/2-z
-x,-y,-z
1/2+x,1/2+y,1/2-z
1/2-x,1/2+y,z
x,-y,1/2+z
loop_
_atom_site_type_symbol
_atom_site_label
_atom_site_fract_x
_atom_site_fract_y
_atom_site_fract_z
Si Si1 0.891378 0.440281 0.472918
Si Si2 0.500000 0.840913 0.750000
Si Si3 0.374721 0.490151 0.894879
Si Si4 0.743804 0.633347 0.742626
Si Si5 0.253545 0.725218 0.078570
Si Si6 0.500000 0.653001 0.250000
O O1 0.929797 0.381740 0.606008
O O2 0.756440 0.482484 0.508652
O O3 0.000000 0.500000 0.500000
O O4 0.128324 0.409838 0.201765
O O5 0.374213 0.803707 0.669083
O O6 0.356552 0.566900 0.796238
O O7 0.398176 0.409199 0.816663
O O8 0.500000 0.500000 0.000000
O O9 0.728034 0.686078 0.895715
O O10 0.751703 0.688556 0.593982
O O11 0.398459 0.703451 0.147014
#
# Coordination Sequence:
#
# PCOD9458789 Si02
#       6
#     8   4   8   8   8   4
#     4  12  27  49  81 118 161 212 278 347 421 505
#     4  12  26  49  75 114 158 218 266 346 414 507
#     4  12  25  49  84 119 163 216 284 354 425 516
#     4  12  29  54  82 124 166 229 280 360 433 523
#     4  12  29  51  82 118 172 218 286 348 441 522
#     4  12  26  53  79 126 164 226 286 364 430 527
#
# _framework density 25.498068
#
# number of rings (size 3 to 8) (size 9 to 14) (size 15 to 20)
#    0.000    0.000    4.000    4.800    0.000    9.600 
#    0.000    0.000    0.000    0.000    0.000    0.000 
#    0.000    0.000    0.000    0.000    0.000    0.000 
#
# Total GULP energy -223337.475203 kJ/mol
# GULP energy per Si atom -5583.436880 kJ/mol
# Density = 2.544003 g / cm^3
# Si number density = 25.498068 Si / 1000 Ang^3
#
#
#
# Elastic Constant Matrix: (Units=GPa)
#
#
# Indices 1 2 3 4 5 6 
#
# 1 209.2472 60.8509 71.8614 0.0000 0.0000 0.0000
# 2 60.8509 125.8028 67.5157 0.0000 0.0000 0.0000
# 3 71.8614 67.5157 119.0722 0.0000 0.0000 0.0000
# 4 0.0000 0.0000 0.0000 34.5397 0.0000 0.0000
# 5 0.0000 0.0000 0.0000 0.0000 56.6063 0.0000
# 6 0.0000 0.0000 0.0000 0.0000 0.0000 12.0482
#
#
#
# Elastic Compliance Matrix: (Units=1/GPa)
#
#
# Indices 1 2 3 4 5 6 
#
# 1 0.006201 -0.001424 -0.002935 0.000000 0.000000 0.000000
# 2 -0.001424 0.011753 -0.005805 0.000000 0.000000 0.000000
# 3 -0.002935 -0.005805 0.013461 0.000000 0.000000 0.000000
# 4 0.000000 0.000000 0.000000 0.028952 0.000000 0.000000
# 5 0.000000 0.000000 0.000000 0.000000 0.017666 0.000000
# 6 0.000000 0.000000 0.000000 0.000000 0.000000 0.083000
#
#
# Mechanical properties :
#
#
# Convention : Reuss Voigt Hill
#
# Bulk Modulus (GPa) = 90.19205 94.95313 92.57259
# Shear Modulus (GPa) = 27.01884 37.56512 32.29198
#
# Velocity S-wave (km/s) = 3.25875 3.84246 3.56258
# Velocity P-wave (km/s) = 7.04330 7.55025 7.30118
#
# Compressibility (1/GPa) = 0.01108745
#
# Stress axis : x y z
#
# Youngs Moduli (GPa) = 161.25982 85.08377 74.29041
#
# Poissons Ratio (x) = 0.12120 0.21803
# Poissons Ratio (y) = 0.22971 0.43122
# Poissons Ratio (z) = 0.47326 0.49387
#
# Static dielectric constant tensor:
#      x y z
#    x 2.031430 0.000000 0.000000 
#    y 0.000000 2.001490 0.000000 
#    z 0.000000 0.000000 2.029830 
# 
# From -- ./inp_files/9817.got.cif
#   From: 2010.05.17/outbox.cif.g08.bks.cpg/sg60_5_cif.got.tgz:9817.got - 2010.06.03 14:59:27.
