data_PCOD9458031
_publ_section_title
;
Structure prediction by ZEFSAII (Michael W. Deem and Ramdas Pophale) SiO2 
 PCOD9458031
Probable space group: P B C N
;
_chemical_formula_sum "Si O2"
_cell_formula_units_Z 64
_cell_length_a 10.039979
_cell_length_b 29.939425
_cell_length_c 11.514470
_cell_angle_alpha 90.000000
_cell_angle_beta 90.000000
_cell_angle_gamma 90.000000
_cell_volume 3461.148335
_symmetry_space_group_name_H-M "P B C N"
_symmetry_group_IT_number 60
_symmetry_cell_setting 'orthorhombic'
loop_
_space_group_symop_operation_xyz
x,y,z
1/2-x,1/2-y,1/2+z
1/2+x,1/2-y,-z
-x,y,1/2-z
-x,-y,-z
1/2+x,1/2+y,1/2-z
1/2-x,1/2+y,z
x,-y,1/2+z
loop_
_atom_site_type_symbol
_atom_site_label
_atom_site_fract_x
_atom_site_fract_y
_atom_site_fract_z
Si Si1 0.165759 0.478337 0.385164
Si Si2 0.393963 0.738624 0.348159
Si Si3 0.510164 0.673033 0.968131
Si Si4 0.845609 0.533019 0.879934
Si Si5 0.007923 0.324507 0.468103
Si Si6 0.101959 0.737311 0.349756
Si Si7 0.233231 0.634798 0.666201
Si Si8 0.753324 0.880305 0.064006
O O1 0.192389 0.511612 0.494359
O O2 0.193163 0.489317 0.247051
O O3 0.242735 0.433223 0.420231
O O4 0.007212 0.467125 0.383898
O O5 0.500000 0.745067 0.250000
O O6 0.425621 0.693269 0.415949
O O7 0.408168 0.780738 0.433206
O O8 0.247755 0.739692 0.298293
O O9 0.438216 0.716272 0.910896
O O10 0.632314 0.654654 0.890616
O O11 0.392374 0.637324 0.986965
O O12 0.788149 0.583069 0.869629
O O13 0.119247 0.361470 0.497088
O O14 0.911148 0.304950 0.566060
O O15 0.903893 0.341461 0.372151
O O16 0.000000 0.729462 0.250000
O O17 0.245968 0.638148 0.804268
#
# Coordination Sequence:
#
# PCOD9458031 Si02
#       8
#     8   8   8   8   8   8   8   8
#     4   9  18  34  57  87 114 145 187 238 294 353
#     4  11  24  38  56  78 114 157 189 236 290 336
#     4  11  24  38  55  83 116 147 195 242 283 335
#     4   9  18  34  58  85 115 145 186 239 295 352
#     4  11  22  36  55  81 111 147 194 236 281 330
#     4  11  24  38  55  80 114 153 193 237 284 341
#     4  11  20  37  58  84 113 147 191 239 283 336
#     4  11  20  35  60  86 109 149 190 239 281 339
#
# _framework density 18.490973
#
# number of rings (size 3 to 8) (size 9 to 14) (size 15 to 20)
#    0.000    1.500    3.750    2.250    3.500    0.000 
#    0.000    3.125    0.000    0.000    0.000    0.000 
#    0.000    0.000    0.000    0.000    0.000    0.000 
#
# Total GULP energy -356672.072911 kJ/mol
# GULP energy per Si atom -5573.001139 kJ/mol
# Density = 1.844889 g / cm^3
# Si number density = 18.490973 Si / 1000 Ang^3
#
#
#
# Elastic Constant Matrix: (Units=GPa)
#
#
# Indices 1 2 3 4 5 6 
#
# 1 88.1908 30.3409 13.8972 0.0000 0.0000 0.0000
# 2 30.3409 48.1203 21.8866 0.0000 0.0000 0.0000
# 3 13.8972 21.8866 49.7050 0.0000 0.0000 0.0000
# 4 0.0000 0.0000 0.0000 30.7577 0.0000 0.0000
# 5 0.0000 0.0000 0.0000 0.0000 30.0699 0.0000
# 6 0.0000 0.0000 0.0000 0.0000 0.0000 31.8272
#
#
#
# Elastic Compliance Matrix: (Units=1/GPa)
#
#
# Indices 1 2 3 4 5 6 
#
# 1 0.014480 -0.009114 -0.000035 0.000000 0.000000 0.000000
# 2 -0.009114 0.031722 -0.011420 0.000000 0.000000 0.000000
# 3 -0.000035 -0.011420 0.025157 0.000000 0.000000 0.000000
# 4 0.000000 0.000000 0.000000 0.032512 0.000000 0.000000
# 5 0.000000 0.000000 0.000000 0.000000 0.033256 0.000000
# 6 0.000000 0.000000 0.000000 0.000000 0.000000 0.031420
#
#
# Mechanical properties :
#
#
# Convention : Reuss Voigt Hill
#
# Bulk Modulus (GPa) = 33.08996 35.36285 34.22640
# Shear Modulus (GPa) = 22.75218 26.52371 24.63795
#
# Velocity S-wave (km/s) = 3.51158 3.79147 3.65421
# Velocity P-wave (km/s) = 5.86307 6.19136 6.02945
#
# Compressibility (1/GPa) = 0.03022065
#
# Stress axis : x y z
#
# Youngs Moduli (GPa) = 69.05996 31.52392 39.75012
#
# Poissons Ratio (x) = 0.28731 0.00141
# Poissons Ratio (y) = 0.62941 0.45394
# Poissons Ratio (z) = 0.00245 0.36000
#
# Static dielectric constant tensor:
#      x y z
#    x 1.562080 0.000000 0.000000 
#    y 0.000000 1.642010 0.000000 
#    z 0.000000 0.000000 1.695180 
# 
# From -- ./inp_files/10400.got.cif
#   From: 2010.05.17/outbox.cif.g08.bks.cpg/sg60_6_cif.got.tgz:10400.got - 2010.06.03 14:59:27.
