data_PCOD9458868
_publ_section_title
;
Structure prediction by ZEFSAII (Michael W. Deem and Ramdas Pophale) SiO2 
 PCOD9458868
Probable space group: P B C N
;
_chemical_formula_sum "Si O2"
_cell_formula_units_Z 48
_cell_length_a 12.726019
_cell_length_b 10.574926
_cell_length_c 13.629983
_cell_angle_alpha 90.000000
_cell_angle_beta 90.000000
_cell_angle_gamma 90.000000
_cell_volume 1834.278259
_symmetry_space_group_name_H-M "P B C N"
_symmetry_group_IT_number 60
_symmetry_cell_setting 'orthorhombic'
loop_
_space_group_symop_operation_xyz
x,y,z
1/2-x,1/2-y,1/2+z
1/2+x,1/2-y,-z
-x,y,1/2-z
-x,-y,-z
1/2+x,1/2+y,1/2-z
1/2-x,1/2+y,z
x,-y,1/2+z
loop_
_atom_site_type_symbol
_atom_site_label
_atom_site_fract_x
_atom_site_fract_y
_atom_site_fract_z
Si Si1 0.630064 0.077495 0.657572
Si Si2 0.654504 0.320221 0.552387
Si Si3 0.880142 0.039017 0.675917
Si Si4 0.879532 0.246869 0.538565
Si Si5 0.321075 0.481557 0.608887
Si Si6 0.910034 0.549205 0.871811
O O1 0.612893 0.181999 0.573769
O O2 0.752996 0.045178 0.653118
O O3 0.526603 0.989463 0.641949
O O4 0.612844 0.125119 0.769712
O O5 0.585928 0.417453 0.614335
O O6 0.774047 0.302343 0.587516
O O7 0.664846 0.385062 0.447689
O O8 0.929185 0.166334 0.629025
O O9 0.881070 0.002909 0.789339
O O10 0.909761 0.360805 0.466088
O O11 0.855949 0.132471 0.461137
O O12 0.194632 0.463465 0.623548
#
# Coordination Sequence:
#
# PCOD9458868 Si02
#       6
#     8   8   8   8   8   8
#     4   9  17  30  50  75 100 126 157 195 238 281
#     4   9  17  30  47  70  94 124 161 195 233 281
#     4   9  17  30  48  69  95 127 163 198 234 283
#     4   9  17  30  47  70  94 124 161 195 233 281
#     4   9  17  30  48  69  95 127 163 198 234 283
#     4   9  17  30  50  75 100 126 157 195 238 281
#
# _framework density 26.168330999999998
#
# number of rings (size 3 to 8) (size 9 to 14) (size 15 to 20)
#    0.000    3.000    0.000    1.000    0.000    1.333 
#    0.000   16.667    0.000    3.000    0.000    0.000 
#    0.000    0.000    0.000    0.000    0.000    0.000 
#
# Total GULP energy -267316.414414 kJ/mol
# GULP energy per Si atom -5569.091967 kJ/mol
# Density = 2.610877 g / cm^3
# Si number density = 26.168331 Si / 1000 Ang^3
#
#
#
# Elastic Constant Matrix: (Units=GPa)
#
#
# Indices 1 2 3 4 5 6 
#
# 1 92.4835 -17.4781 -8.5331 0.0000 0.0000 0.0000
# 2 -17.4781 19.3165 -1.7357 0.0000 0.0000 0.0000
# 3 -8.5331 -1.7357 78.6473 0.0000 0.0000 0.0000
# 4 0.0000 0.0000 0.0000 14.9712 0.0000 0.0000
# 5 0.0000 0.0000 0.0000 0.0000 21.9758 0.0000
# 6 0.0000 0.0000 0.0000 0.0000 0.0000 3.7909
#
#
#
# Elastic Compliance Matrix: (Units=1/GPa)
#
#
# Indices 1 2 3 4 5 6 
#
# 1 0.013268 0.012159 0.001708 0.000000 0.000000 0.000000
# 2 0.012159 0.063014 0.002710 0.000000 0.000000 0.000000
# 3 0.001708 0.002710 0.012960 0.000000 0.000000 0.000000
# 4 0.000000 0.000000 0.000000 0.066795 0.000000 0.000000
# 5 0.000000 0.000000 0.000000 0.000000 0.045505 0.000000
# 6 0.000000 0.000000 0.000000 0.000000 0.000000 0.263786
#
#
# Mechanical properties :
#
#
# Convention : Reuss Voigt Hill
#
# Bulk Modulus (GPa) = 8.17022 14.99485 11.58253
# Shear Modulus (GPa) = 10.57141 22.69385 16.63263
#
# Velocity S-wave (km/s) = 2.01210 2.94806 2.52385
# Velocity P-wave (km/s) = 2.92010 4.16302 3.59567
#
# Compressibility (1/GPa) = 0.12239579
#
# Stress axis : x y z
#
# Youngs Moduli (GPa) = 75.36834 15.86942 77.15985
#
# Poissons Ratio (x) = -0.19295 -0.13178
# Poissons Ratio (y) = -0.91639 -0.20909
# Poissons Ratio (z) = -0.12872 -0.04300
#
# Static dielectric constant tensor:
#      x y z
#    x 2.188980 0.000000 0.000000 
#    y 0.000000 2.096460 0.000000 
#    z 0.000000 0.000000 2.034360 
# 
# From -- ./inp_files/16920.got.cif
#   From: 2010.05.17/outbox.cif.g08.bks.cpg/sg60_9_cif.got.tgz:16920.got - 2010.06.03 14:59:27.
