data_PCOD9458894
_publ_section_title
;
Structure prediction by ZEFSAII (Michael W. Deem and Ramdas Pophale) SiO2 
 PCOD9458894
Probable space group: P B C N
;
_chemical_formula_sum "Si O2"
_cell_formula_units_Z 56
_cell_length_a 15.000000
_cell_length_b 12.000000
_cell_length_c 15.000000
_cell_angle_alpha 90.000000
_cell_angle_beta 90.000000
_cell_angle_gamma 90.000000
_cell_volume 2700.000000
_symmetry_space_group_name_H-M "P B C N"
_symmetry_group_IT_number 60
_symmetry_cell_setting 'orthorhombic'
loop_
_space_group_symop_operation_xyz
x,y,z
1/2-x,1/2-y,1/2+z
1/2+x,1/2-y,-z
-x,y,1/2-z
-x,-y,-z
1/2+x,1/2+y,1/2-z
1/2-x,1/2+y,z
x,-y,1/2+z
loop_
_atom_site_type_symbol
_atom_site_label
_atom_site_fract_x
_atom_site_fract_y
_atom_site_fract_z
Si Si1 0.408210 0.300388 0.463849
Si Si2 0.427105 0.387877 0.113181
Si Si3 0.823451 0.796338 0.774011
Si Si4 0.629930 0.782763 0.729759
Si Si5 0.000000 0.485108 0.750000
Si Si6 0.725623 0.542801 0.437406
Si Si7 0.108699 0.601340 0.604532
Si Si8 0.000000 0.928633 0.750000
O O1 0.505510 0.357087 0.466653
O O2 0.406140 0.272143 0.359745
O O3 0.324389 0.379794 0.488998
O O4 0.409235 0.190910 0.526124
O O5 0.398987 0.290726 0.183922
O O6 0.335848 0.434092 0.072233
O O7 0.472593 0.488858 0.169476
O O8 0.735914 0.786261 0.714952
O O9 0.789712 0.881885 0.850031
O O10 0.842830 0.677565 0.820068
O O11 0.913740 0.849742 0.734450
O O12 0.584730 0.903573 0.737514
O O13 0.975798 0.553290 0.840060
O O14 0.826848 0.496269 0.434571
#
# Coordination Sequence:
#
# PCOD9458894 Si02
#       8
#     8   8   8   8   4   8   8   4
#     4  11  24  41  64 107 135 170 233 295 341 399
#     4  11  20  42  71  93 137 181 230 281 342 420
#     4  10  22  41  69  97 133 177 232 277 338 416
#     4  12  22  43  71  99 136 184 231 276 348 434
#     4  12  24  44  72  96 136 196 226 272 362 422
#     4  10  22  41  69  92 135 181 222 284 350 395
#     4  11  24  44  65 102 143 178 228 288 346 413
#     4  10  20  38  70 100 124 176 238 280 324 408
#
# _framework density 20.740741
#
# number of rings (size 3 to 8) (size 9 to 14) (size 15 to 20)
#    0.000    1.143    5.714    0.857    0.000    1.714 
#    2.571    1.429    0.000    0.000    0.000    0.000 
#    0.000    0.000    0.000    0.000    0.000    0.000 
#
# Total GULP energy -312498.121627 kJ/mol
# GULP energy per Si atom -5580.323600 kJ/mol
# Density = 2.069353 g / cm^3
# Si number density = 20.740741 Si / 1000 Ang^3
#
#
#
# Elastic Constant Matrix: (Units=GPa)
#
#
# Indices 1 2 3 4 5 6 
#
# 1 90.0076 22.1402 9.0189 0.0000 0.0000 0.0000
# 2 22.1402 87.3210 18.0473 0.0000 0.0000 0.0000
# 3 9.0189 18.0473 34.5309 0.0000 0.0000 0.0000
# 4 0.0000 0.0000 0.0000 17.7190 0.0000 0.0000
# 5 0.0000 0.0000 0.0000 0.0000 33.1701 0.0000
# 6 0.0000 0.0000 0.0000 0.0000 0.0000 32.6456
#
#
#
# Elastic Compliance Matrix: (Units=1/GPa)
#
#
# Indices 1 2 3 4 5 6 
#
# 1 0.011940 -0.002671 -0.001722 0.000000 0.000000 0.000000
# 2 -0.002671 0.013437 -0.006325 0.000000 0.000000 0.000000
# 3 -0.001722 -0.006325 0.032715 0.000000 0.000000 0.000000
# 4 0.000000 0.000000 0.000000 0.056436 0.000000 0.000000
# 5 0.000000 0.000000 0.000000 0.000000 0.030148 0.000000
# 6 0.000000 0.000000 0.000000 0.000000 0.000000 0.030632
#
#
# Mechanical properties :
#
#
# Convention : Reuss Voigt Hill
#
# Bulk Modulus (GPa) = 27.28181 34.47470 30.87826
# Shear Modulus (GPa) = 23.92772 27.55048 25.73910
#
# Velocity S-wave (km/s) = 3.40024 3.64858 3.52659
# Velocity P-wave (km/s) = 5.34769 5.86577 5.61271
#
# Compressibility (1/GPa) = 0.03665445
#
# Stress axis : x y z
#
# Youngs Moduli (GPa) = 83.75299 74.42405 30.56699
#
# Poissons Ratio (x) = 0.19882 0.05265
# Poissons Ratio (y) = 0.22374 0.19333
# Poissons Ratio (z) = 0.14425 0.47072
#
# Static dielectric constant tensor:
#      x y z
#    x 1.828620 0.000000 0.000000 
#    y 0.000000 1.766510 0.000000 
#    z 0.000000 0.000000 1.734330 
# 
# From -- ./inp_files/16884.got.cif
#   From: 2010.05.17/outbox.ucp.g08.bks.cvg/sg60_9_cif.got.tgz:16884.got - 2010.06.11 16:26:41.
