data_PCOD9458109
_publ_section_title
;
Structure prediction by ZEFSAII (Michael W. Deem and Ramdas Pophale) SiO2 
 PCOD9458109
Probable space group: P B C N
;
_chemical_formula_sum "Si O2"
_cell_formula_units_Z 40
_cell_length_a 23.994434
_cell_length_b 9.330509
_cell_length_c 8.855315
_cell_angle_alpha 90.000000
_cell_angle_beta 90.000000
_cell_angle_gamma 90.000000
_cell_volume 1982.530423
_symmetry_space_group_name_H-M "P B C N"
_symmetry_group_IT_number 60
_symmetry_cell_setting 'orthorhombic'
loop_
_space_group_symop_operation_xyz
x,y,z
1/2-x,1/2-y,1/2+z
1/2+x,1/2-y,-z
-x,y,1/2-z
-x,-y,-z
1/2+x,1/2+y,1/2-z
1/2-x,1/2+y,z
x,-y,1/2+z
loop_
_atom_site_type_symbol
_atom_site_label
_atom_site_fract_x
_atom_site_fract_y
_atom_site_fract_z
Si Si1 0.660727 0.066514 0.191669
Si Si2 0.635526 0.204765 0.870455
Si Si3 0.647435 0.346004 0.365945
Si Si4 0.706140 0.577859 0.184902
Si Si5 0.956517 0.945245 0.879054
O O1 0.643798 0.181644 0.319495
O O2 0.727887 0.061969 0.187419
O O3 0.634060 0.915416 0.239654
O O4 0.645167 0.123892 0.027024
O O5 0.684729 0.311730 0.813957
O O6 0.582349 0.306304 0.896204
O O7 0.681857 0.424369 0.233147
O O8 0.678973 0.374082 0.525209
O O9 0.588050 0.425888 0.361182
O O10 0.000000 0.910561 0.750000
O O11 0.000000 0.000000 0.000000
#
# Coordination Sequence:
#
# PCOD9458109 Si02
#       5
#     8   8   8   8   8
#     4  12  22  39  60  92 133 162 194 256 312 371
#     4  11  25  39  61  94 125 165 212 252 310 376
#     4  11  23  39  64  94 123 165 215 251 302 376
#     4  11  21  38  61  93 129 168 201 240 304 381
#     4  11  23  45  67  85 114 160 214 267 309 360
#
# _framework density 20.176235999999999
#
# number of rings (size 3 to 8) (size 9 to 14) (size 15 to 20)
#    0.000    0.800    0.000   10.800    0.000    0.000 
#    0.000    5.000    0.000    0.000    0.000    0.000 
#    0.000    0.000    0.000    0.000    0.000    0.000 
#
# Total GULP energy -223419.925118 kJ/mol
# GULP energy per Si atom -5585.498128 kJ/mol
# Density = 2.013031 g / cm^3
# Si number density = 20.176236 Si / 1000 Ang^3
#
#
#
# Elastic Constant Matrix: (Units=GPa)
#
#
# Indices 1 2 3 4 5 6 
#
# 1 133.1346 24.5494 16.4245 0.0000 0.0000 0.0000
# 2 24.5494 82.2166 0.6883 0.0000 0.0000 0.0000
# 3 16.4245 0.6883 74.9331 0.0000 0.0000 0.0000
# 4 0.0000 0.0000 0.0000 41.2344 0.0000 0.0000
# 5 0.0000 0.0000 0.0000 0.0000 6.7440 0.0000
# 6 0.0000 0.0000 0.0000 0.0000 0.0000 -1.5991
#
#
#
# Elastic Compliance Matrix: (Units=1/GPa)
#
#
# Indices 1 2 3 4 5 6 
#
# 1 0.008177 -0.002427 -0.001770 0.000000 0.000000 0.000000
# 2 -0.002427 0.012884 0.000414 0.000000 0.000000 0.000000
# 3 -0.001770 0.000414 0.013729 0.000000 0.000000 0.000000
# 4 0.000000 0.000000 0.000000 0.024252 0.000000 0.000000
# 5 0.000000 0.000000 0.000000 0.000000 0.148281 0.000000
# 6 0.000000 0.000000 0.000000 0.000000 0.000000 -0.625338
#
#
# Mechanical properties :
#
#
# Convention : Reuss Voigt Hill
#
# Bulk Modulus (GPa) = 36.73212 41.51206 39.12209
# Shear Modulus (GPa) = -12.45722 25.85065 6.69671
#
# Velocity S-wave (km/s) = -2.48749 3.58333 1.82382
# Velocity P-wave (km/s) = 3.16149 6.14327 4.88542
#
# Compressibility (1/GPa) = 0.02722413
#
# Stress axis : x y z
#
# Youngs Moduli (GPa) = 122.29348 77.61468 72.83638
#
# Poissons Ratio (x) = 0.18836 0.12892
# Poissons Ratio (y) = 0.29678 -0.03012
# Poissons Ratio (z) = 0.21646 -0.03210
#
# Static dielectric constant tensor:
#      x y z
#    x 1.591250 0.000000 0.000000 
#    y 0.000000 1.723030 0.000000 
#    z 0.000000 0.000000 1.744870 
# 
# From -- ./inp_files/7721.got.cif
#   From: 2010.05.17/outbox.cif.g08.bks.cpg/sg60_4_cif.got.tgz:7721.got - 2010.06.03 14:59:27.
