data_PCOD9458079
_publ_section_title
;
Structure prediction by ZEFSAII (Michael W. Deem and Ramdas Pophale) SiO2 
 PCOD9458079
Probable space group: P B C N
;
_chemical_formula_sum "Si O2"
_cell_formula_units_Z 64
_cell_length_a 20.975688
_cell_length_b 16.137257
_cell_length_c 9.887671
_cell_angle_alpha 90.000000
_cell_angle_beta 90.000000
_cell_angle_gamma 90.000000
_cell_volume 3346.878429
_symmetry_space_group_name_H-M "P B C N"
_symmetry_group_IT_number 60
_symmetry_cell_setting 'orthorhombic'
loop_
_space_group_symop_operation_xyz
x,y,z
1/2-x,1/2-y,1/2+z
1/2+x,1/2-y,-z
-x,y,1/2-z
-x,-y,-z
1/2+x,1/2+y,1/2-z
1/2-x,1/2+y,z
x,-y,1/2+z
loop_
_atom_site_type_symbol
_atom_site_label
_atom_site_fract_x
_atom_site_fract_y
_atom_site_fract_z
Si Si1 0.675845 0.808624 0.348993
Si Si2 0.071588 0.818452 0.748535
Si Si3 0.437030 0.559056 0.004649
Si Si4 0.724896 0.894466 0.097784
Si Si5 0.635808 0.400101 0.500816
Si Si6 0.865626 0.158571 0.699940
Si Si7 0.699292 0.192381 0.330540
Si Si8 0.278576 0.088678 0.418691
O O1 0.617541 0.749393 0.315722
O O2 0.687748 0.877759 0.235982
O O3 0.737566 0.749205 0.336660
O O4 0.674328 0.856403 0.490398
O O5 0.070767 0.899735 0.651649
O O6 0.000000 0.786760 0.750000
O O7 0.093873 0.844382 0.898560
O O8 0.381239 0.494751 0.969385
O O9 0.500000 0.500000 0.000000
O O10 0.424440 0.633328 0.897152
O O11 0.798598 0.865527 0.124505
O O12 0.691807 0.838854 0.982690
O O13 0.720282 0.990696 0.060542
O O14 0.625994 0.389842 0.341226
O O15 0.708574 0.381809 0.535303
O O16 0.854184 0.251497 0.757524
O O17 0.712739 0.113671 0.236279
#
# Coordination Sequence:
#
# PCOD9458079 Si02
#       8
#     8   8   8   8   8   8   8   8
#     4  11  22  39  59  86 122 158 206 254 321 373
#     4  12  25  43  62  86 123 176 212 254 305 385
#     4  12  25  41  59  88 131 171 215 249 297 376
#     4  11  22  36  59  91 120 158 205 260 323 373
#     4  12  23  37  60  88 127 166 214 249 307 365
#     4  11  24  37  60  88 126 171 204 258 314 375
#     4  11  21  35  56  86 124 160 201 254 316 375
#     4  12  22  36  60  93 122 158 204 262 315 375
#
# _framework density 19.122295999999999
#
# number of rings (size 3 to 8) (size 9 to 14) (size 15 to 20)
#    0.000    0.500    6.250    5.250    0.000    0.000 
#    0.000    0.000    0.000    0.750    0.000    0.000 
#    0.000    0.000    0.000    0.000    0.000    0.000 
#
# Total GULP energy -357295.511135 kJ/mol
# GULP energy per Si atom -5582.742361 kJ/mol
# Density = 1.907877 g / cm^3
# Si number density = 19.122296 Si / 1000 Ang^3
#
#
#
# Elastic Constant Matrix: (Units=GPa)
#
#
# Indices 1 2 3 4 5 6 
#
# 1 53.6012 21.9704 6.6915 0.0000 0.0000 0.0000
# 2 21.9704 68.1484 11.7500 0.0000 0.0000 0.0000
# 3 6.6915 11.7500 93.4201 0.0000 0.0000 0.0000
# 4 0.0000 0.0000 0.0000 35.5084 0.0000 0.0000
# 5 0.0000 0.0000 0.0000 0.0000 11.4811 0.0000
# 6 0.0000 0.0000 0.0000 0.0000 0.0000 25.1201
#
#
#
# Elastic Compliance Matrix: (Units=1/GPa)
#
#
# Indices 1 2 3 4 5 6 
#
# 1 0.021540 -0.006826 -0.000684 0.000000 0.000000 0.000000
# 2 -0.006826 0.017162 -0.001670 0.000000 0.000000 0.000000
# 3 -0.000684 -0.001670 0.010963 0.000000 0.000000 0.000000
# 4 0.000000 0.000000 0.000000 0.028162 0.000000 0.000000
# 5 0.000000 0.000000 0.000000 0.000000 0.087100 0.000000
# 6 0.000000 0.000000 0.000000 0.000000 0.000000 0.039809
#
#
# Mechanical properties :
#
#
# Convention : Reuss Voigt Hill
#
# Bulk Modulus (GPa) = 31.94359 32.88816 32.41587
# Shear Modulus (GPa) = 21.41040 26.07246 23.74143
#
# Velocity S-wave (km/s) = 3.34976 3.69651 3.52740
# Velocity P-wave (km/s) = 5.63048 5.95442 5.79471
#
# Compressibility (1/GPa) = 0.03130518
#
# Stress axis : x y z
#
# Youngs Moduli (GPa) = 46.42596 58.26681 91.21300
#
# Poissons Ratio (x) = 0.39774 0.06241
# Poissons Ratio (y) = 0.31691 0.15230
# Poissons Ratio (z) = 0.03177 0.09729
#
# Static dielectric constant tensor:
#      x y z
#    x 1.675480 0.000000 0.000000 
#    y 0.000000 1.680160 0.000000 
#    z 0.000000 0.000000 1.720670 
# 
# From -- ./inp_files/7972.got.cif
#   From: 2010.05.17/outbox.cif.g08.bks.cpg/sg60_4_cif.got.tgz:7972.got - 2010.06.03 14:59:27.
