data_PCOD9458501
_publ_section_title
;
Structure prediction by ZEFSAII (Michael W. Deem and Ramdas Pophale) SiO2 
 PCOD9458501
Probable space group: P B C N
;
_chemical_formula_sum "Si O2"
_cell_formula_units_Z 32
_cell_length_a 10.485337
_cell_length_b 5.315272
_cell_length_c 21.319833
_cell_angle_alpha 90.000000
_cell_angle_beta 90.000000
_cell_angle_gamma 90.000000
_cell_volume 1188.205848
_symmetry_space_group_name_H-M "P B C N"
_symmetry_group_IT_number 60
_symmetry_cell_setting 'orthorhombic'
loop_
_space_group_symop_operation_xyz
x,y,z
1/2-x,1/2-y,1/2+z
1/2+x,1/2-y,-z
-x,y,1/2-z
-x,-y,-z
1/2+x,1/2+y,1/2-z
1/2-x,1/2+y,z
x,-y,1/2+z
loop_
_atom_site_type_symbol
_atom_site_label
_atom_site_fract_x
_atom_site_fract_y
_atom_site_fract_z
Si Si1 0.708354 0.759889 0.953776
Si Si2 0.186244 0.355789 0.216191
Si Si3 0.924607 0.263510 0.148506
Si Si4 0.584837 0.263699 0.065597
O O1 0.757134 0.514828 0.918882
O O2 0.557692 0.738154 0.964760
O O3 0.804451 0.768541 0.013475
O O4 0.200881 0.654589 0.205412
O O5 0.159781 0.306862 0.290100
O O6 0.066088 0.259374 0.176936
O O7 0.908112 0.505473 0.104129
O O8 0.903013 0.006539 0.110166
#
# Coordination Sequence:
#
# PCOD9458501 Si02
#       4
#     8   8   8   8
#     4  12  26  46  68 100 142 190 250 296 344 420
#     4  11  24  45  72 108 142 175 234 299 358 449
#     4  11  26  45  72 105 140 187 234 292 374 430
#     4  12  26  46  72 103 146 196 238 295 360 422
#
# _framework density 26.931362
#
# number of rings (size 3 to 8) (size 9 to 14) (size 15 to 20)
#    0.000    0.500    0.000    7.500    0.000   16.000 
#    0.000    0.000    0.000    0.000    0.000    0.000 
#    0.000    0.000    0.000    0.000    0.000    0.000 
#
# Total GULP energy -179693.215977 kJ/mol
# GULP energy per Si atom -5615.412999 kJ/mol
# Density = 2.687006 g / cm^3
# Si number density = 26.931362 Si / 1000 Ang^3
#
#
#
# Elastic Constant Matrix: (Units=GPa)
#
#
# Indices 1 2 3 4 5 6 
#
# 1 147.9673 24.4263 41.1546 0.0000 0.0000 0.0000
# 2 24.4263 226.4443 44.8523 0.0000 0.0000 0.0000
# 3 41.1546 44.8523 132.6730 0.0000 0.0000 0.0000
# 4 0.0000 0.0000 0.0000 45.2413 0.0000 0.0000
# 5 0.0000 0.0000 0.0000 0.0000 61.7526 0.0000
# 6 0.0000 0.0000 0.0000 0.0000 0.0000 46.0706
#
#
#
# Elastic Compliance Matrix: (Units=1/GPa)
#
#
# Indices 1 2 3 4 5 6 
#
# 1 0.007425 -0.000369 -0.002178 0.000000 0.000000 0.000000
# 2 -0.000369 0.004751 -0.001492 0.000000 0.000000 0.000000
# 3 -0.002178 -0.001492 0.008717 0.000000 0.000000 0.000000
# 4 0.000000 0.000000 0.000000 0.022104 0.000000 0.000000
# 5 0.000000 0.000000 0.000000 0.000000 0.016194 0.000000
# 6 0.000000 0.000000 0.000000 0.000000 0.000000 0.021706
#
#
# Mechanical properties :
#
#
# Convention : Reuss Voigt Hill
#
# Bulk Modulus (GPa) = 78.03435 80.88346 79.45890
# Shear Modulus (GPa) = 53.62066 57.05632 55.33849
#
# Velocity S-wave (km/s) = 4.46692 4.60780 4.53790
# Velocity P-wave (km/s) = 7.45940 7.64248 7.55149
#
# Compressibility (1/GPa) = 0.01281487
#
# Stress axis : x y z
#
# Youngs Moduli (GPa) = 134.67821 210.46372 114.71406
#
# Poissons Ratio (x) = 0.07776 0.24989
# Poissons Ratio (y) = 0.04976 0.17112
# Poissons Ratio (z) = 0.29337 0.31395
#
# Static dielectric constant tensor:
#      x y z
#    x 2.077110 0.000000 0.000000 
#    y 0.000000 2.155560 0.000000 
#    z 0.000000 0.000000 2.081640 
# 
# From -- ./inp_files/22479.got.cif
#   From: 2010.05.17/outbox.cif.g08.bks.cpg/sg60_12_cif.got.tgz:22479.got - 2010.06.03 14:59:27.
