data_PCOD9458236
_publ_section_title
;
Structure prediction by ZEFSAII (Michael W. Deem and Ramdas Pophale) SiO2 
 PCOD9458236
Probable space group: P B C N
;
_chemical_formula_sum "Si O2"
_cell_formula_units_Z 32
_cell_length_a 13.956591
_cell_length_b 7.012132
_cell_length_c 13.628982
_cell_angle_alpha 90.000000
_cell_angle_beta 90.000000
_cell_angle_gamma 90.000000
_cell_volume 1333.806570
_symmetry_space_group_name_H-M "P B C N"
_symmetry_group_IT_number 60
_symmetry_cell_setting 'orthorhombic'
loop_
_space_group_symop_operation_xyz
x,y,z
1/2-x,1/2-y,1/2+z
1/2+x,1/2-y,-z
-x,y,1/2-z
-x,-y,-z
1/2+x,1/2+y,1/2-z
1/2-x,1/2+y,z
x,-y,1/2+z
loop_
_atom_site_type_symbol
_atom_site_label
_atom_site_fract_x
_atom_site_fract_y
_atom_site_fract_z
Si Si1 0.906693 0.259217 0.686239
Si Si2 0.617942 0.906612 0.465058
Si Si3 0.318178 0.281748 0.126311
Si Si4 0.517261 0.572655 0.391367
O O1 0.893179 0.355490 0.580060
O O2 0.818448 0.289657 0.760798
O O3 0.000000 0.325319 0.750000
O O4 0.932333 0.034360 0.665895
O O5 0.719358 0.827743 0.425492
O O6 0.537375 0.796161 0.400808
O O7 0.624688 0.128428 0.439551
O O8 0.382710 0.470043 0.133850
O O9 0.500000 0.500000 0.500000
#
# Coordination Sequence:
#
# PCOD9458236 Si02
#       4
#     8   8   8   8
#     4   9  22  42  63  95 135 174 223 272 331 414
#     4  11  22  41  69  95 137 179 217 289 340 390
#     4  11  22  41  65 102 132 170 232 275 339 395
#     4   9  20  42  64  91 132 172 215 277 336 392
#
# _framework density 23.991484
#
# number of rings (size 3 to 8) (size 9 to 14) (size 15 to 20)
#    0.000    2.000    2.500    0.000    0.000   11.000 
#    0.000   23.750    0.000    0.000    0.000    0.000 
#    0.000    0.000    0.000    0.000    0.000    0.000 
#
# Total GULP energy -178476.785845 kJ/mol
# GULP energy per Si atom -5577.399558 kJ/mol
# Density = 2.393688 g / cm^3
# Si number density = 23.991484 Si / 1000 Ang^3
#
#
#
# Elastic Constant Matrix: (Units=GPa)
#
#
# Indices 1 2 3 4 5 6 
#
# 1 90.1759 30.0986 66.9249 0.0000 0.0000 0.0000
# 2 30.0986 68.5256 32.5943 0.0000 0.0000 0.0000
# 3 66.9249 32.5943 195.3021 0.0000 0.0000 0.0000
# 4 0.0000 0.0000 0.0000 24.5720 0.0000 0.0000
# 5 0.0000 0.0000 0.0000 0.0000 47.2812 0.0000
# 6 0.0000 0.0000 0.0000 0.0000 0.0000 31.4877
#
#
#
# Elastic Compliance Matrix: (Units=1/GPa)
#
#
# Indices 1 2 3 4 5 6 
#
# 1 0.016244 -0.004874 -0.004753 0.000000 0.000000 0.000000
# 2 -0.004874 0.017314 -0.001219 0.000000 0.000000 0.000000
# 3 -0.004753 -0.001219 0.006952 0.000000 0.000000 0.000000
# 4 0.000000 0.000000 0.000000 0.040697 0.000000 0.000000
# 5 0.000000 0.000000 0.000000 0.000000 0.021150 0.000000
# 6 0.000000 0.000000 0.000000 0.000000 0.000000 0.031758
#
#
# Mechanical properties :
#
#
# Convention : Reuss Voigt Hill
#
# Bulk Modulus (GPa) = 53.14182 68.13769 60.63976
# Shear Modulus (GPa) = 30.84895 35.62724 33.23810
#
# Velocity S-wave (km/s) = 3.58974 3.85774 3.72615
# Velocity P-wave (km/s) = 6.27535 6.95021 6.62138
#
# Compressibility (1/GPa) = 0.01881757
#
# Stress axis : x y z
#
# Youngs Moduli (GPa) = 61.56260 57.75710 143.83432
#
# Poissons Ratio (x) = 0.28151 0.68362
# Poissons Ratio (y) = 0.30006 0.17538
# Poissons Ratio (z) = 0.29260 0.07043
#
# Static dielectric constant tensor:
#      x y z
#    x 1.959050 0.000000 0.000000 
#    y 0.000000 1.972720 0.000000 
#    z 0.000000 0.000000 1.963290 
# 
# From -- ./inp_files/11520.got.cif
#   From: 2010.05.17/outbox.cif.g08.bks.cpg/sg60_6_cif.got.tgz:11520.got - 2010.06.03 14:59:27.
