data_PCOD9458134
_publ_section_title
;
Structure prediction by ZEFSAII (Michael W. Deem and Ramdas Pophale) SiO2 
 PCOD9458134
Probable space group: P B C N
;
_chemical_formula_sum "Si O2"
_cell_formula_units_Z 36
_cell_length_a 11.789225
_cell_length_b 9.415833
_cell_length_c 11.782331
_cell_angle_alpha 90.000000
_cell_angle_beta 90.000000
_cell_angle_gamma 90.000000
_cell_volume 1307.902057
_symmetry_space_group_name_H-M "P B C N"
_symmetry_group_IT_number 60
_symmetry_cell_setting 'orthorhombic'
loop_
_space_group_symop_operation_xyz
x,y,z
1/2-x,1/2-y,1/2+z
1/2+x,1/2-y,-z
-x,y,1/2-z
-x,-y,-z
1/2+x,1/2+y,1/2-z
1/2-x,1/2+y,z
x,-y,1/2+z
loop_
_atom_site_type_symbol
_atom_site_label
_atom_site_fract_x
_atom_site_fract_y
_atom_site_fract_z
Si Si1 0.871773 0.067788 0.785964
Si Si2 0.803302 0.546195 0.100118
Si Si3 0.843705 0.265614 0.976543
Si Si4 0.000000 0.523910 0.750000
Si Si5 0.945106 0.795449 0.871221
O O1 0.793695 0.019787 0.681598
O O2 0.000000 0.103522 0.750000
O O3 0.867220 0.935373 0.878184
O O4 0.829078 0.208419 0.850504
O O5 0.839061 0.428457 0.008884
O O6 0.756876 0.688767 0.046026
O O7 0.915107 0.564857 0.174959
O O8 0.962829 0.208744 0.029185
O O9 0.073097 0.631515 0.667984
O O10 0.000000 0.839218 0.750000
#
# Coordination Sequence:
#
# PCOD9458134 Si02
#       5
#     8   8   8   4   8
#     4  11  21  40  68 100 121 165 237 283 300 386
#     4  11  22  43  62  97 135 172 220 265 334 395
#     4  11  23  39  68  99 128 174 220 278 334 384
#     4   8  18  36  60  88 136 172 194 268 332 388
#     4   8  15  36  64  88 119 165 230 260 303 386
#
# _framework density 27.524996000000002
#
# number of rings (size 3 to 8) (size 9 to 14) (size 15 to 20)
#    0.667    1.333    4.444    0.667    0.000    3.556 
#    6.000    1.111    0.000    0.000    0.000    0.000 
#    0.000    0.000    0.000    0.000    0.000    0.000 
#
# Total GULP energy -201382.897894 kJ/mol
# GULP energy per Si atom -5593.969386 kJ/mol
# Density = 2.746235 g / cm^3
# Si number density = 27.524996 Si / 1000 Ang^3
#
#
#
# Elastic Constant Matrix: (Units=GPa)
#
#
# Indices 1 2 3 4 5 6 
#
# 1 97.9843 19.0450 37.5976 0.0000 0.0000 0.0000
# 2 19.0450 147.9032 47.4745 0.0000 0.0000 0.0000
# 3 37.5976 47.4745 66.5312 0.0000 0.0000 0.0000
# 4 0.0000 0.0000 0.0000 53.9258 0.0000 0.0000
# 5 0.0000 0.0000 0.0000 0.0000 59.0998 0.0000
# 6 0.0000 0.0000 0.0000 0.0000 0.0000 15.1757
#
#
#
# Elastic Compliance Matrix: (Units=1/GPa)
#
#
# Indices 1 2 3 4 5 6 
#
# 1 0.013122 0.000896 -0.008055 0.000000 0.000000 0.000000
# 2 0.000896 0.008831 -0.006808 0.000000 0.000000 0.000000
# 3 -0.008055 -0.006808 0.024440 0.000000 0.000000 0.000000
# 4 0.000000 0.000000 0.000000 0.018544 0.000000 0.000000
# 5 0.000000 0.000000 0.000000 0.000000 0.016921 0.000000
# 6 0.000000 0.000000 0.000000 0.000000 0.000000 0.065895
#
#
# Mechanical properties :
#
#
# Convention : Reuss Voigt Hill
#
# Bulk Modulus (GPa) = 54.17118 57.85034 56.01076
# Shear Modulus (GPa) = 27.49679 39.52704 33.51192
#
# Velocity S-wave (km/s) = 3.16409 3.79363 3.49307
# Velocity P-wave (km/s) = 5.75083 6.34443 6.05491
#
# Compressibility (1/GPa) = 0.01846000
#
# Stress axis : x y z
#
# Youngs Moduli (GPa) = 76.20615 113.23752 40.91634
#
# Poissons Ratio (x) = -0.10143 0.32957
# Poissons Ratio (y) = -0.06826 0.27855
# Poissons Ratio (z) = 0.61382 0.77089
#
# Static dielectric constant tensor:
#      x y z
#    x 2.138580 0.000000 0.000000 
#    y 0.000000 2.161910 0.000000 
#    z 0.000000 0.000000 2.082450 
# 
# From -- ./inp_files/10685.got.cif
#   From: 2010.05.17/outbox.cif.g08.bks.cpg/sg60_6_cif.got.tgz:10685.got - 2010.06.03 14:59:27.
