data_PCOD9458881
_publ_section_title
;
Structure prediction by ZEFSAII (Michael W. Deem and Ramdas Pophale) SiO2 
 PCOD9458881
Probable space group: P B C N
;
_chemical_formula_sum "Si O2"
_cell_formula_units_Z 64
_cell_length_a 15.000000
_cell_length_b 24.000000
_cell_length_c 9.000000
_cell_angle_alpha 90.000000
_cell_angle_beta 90.000000
_cell_angle_gamma 90.000000
_cell_volume 3240.000000
_symmetry_space_group_name_H-M "P B C N"
_symmetry_group_IT_number 60
_symmetry_cell_setting 'orthorhombic'
loop_
_space_group_symop_operation_xyz
x,y,z
1/2-x,1/2-y,1/2+z
1/2+x,1/2-y,-z
-x,y,1/2-z
-x,-y,-z
1/2+x,1/2+y,1/2-z
1/2-x,1/2+y,z
x,-y,1/2+z
loop_
_atom_site_type_symbol
_atom_site_label
_atom_site_fract_x
_atom_site_fract_y
_atom_site_fract_z
Si Si1 0.808999 0.854529 0.074370
Si Si2 0.163974 0.162040 0.598443
Si Si3 0.004991 0.677584 0.985243
Si Si4 0.484789 0.691677 0.080319
Si Si5 0.397090 0.024877 0.210162
Si Si6 0.133090 0.577920 0.897162
Si Si7 0.680680 0.128656 0.114053
Si Si8 0.814098 0.710430 0.377884
O O1 0.847192 0.862648 0.238730
O O2 0.733922 0.902876 0.064500
O O3 0.741532 0.804670 0.025532
O O4 0.895816 0.839184 0.977226
O O5 0.071459 0.171586 0.512118
O O6 0.240652 0.130035 0.507385
O O7 0.197309 0.224375 0.638749
O O8 0.979617 0.739869 0.926209
O O9 0.063384 0.630716 0.893080
O O10 0.081604 0.693838 0.105092
O O11 0.913738 0.650130 0.044928
O O12 0.500000 0.676699 0.250000
O O13 0.500000 0.033354 0.250000
O O14 0.339553 0.070217 0.303471
O O15 0.372082 0.961665 0.253793
O O16 0.392054 0.039449 0.037038
O O17 0.714487 0.172702 0.239454
#
# Coordination Sequence:
#
# PCOD9458881 Si02
#       8
#     8   8   8   8   8   8   8   8
#     4  11  23  42  60  92 130 169 214 281 326 395
#     4  11  24  35  61  94 125 172 216 269 333 400
#     4  10  21  37  60  97 135 172 215 264 321 396
#     4  11  24  42  66  94 129 175 217 268 337 402
#     4  12  24  44  65  95 130 179 220 275 325 384
#     4  11  26  42  67  96 132 174 228 273 325 388
#     4  12  21  37  63  90 131 177 217 269 331 393
#     4  10  19  37  57  89 131 172 218 261 325 399
#
# _framework density 19.753086
#
# number of rings (size 3 to 8) (size 9 to 14) (size 15 to 20)
#    0.000    1.000    3.750    4.125    1.750    7.500 
#    0.000    0.000    0.000    0.750    0.000    0.000 
#    0.000    0.000    0.000    0.000    0.000    0.000 
#
# Total GULP energy -356961.603380 kJ/mol
# GULP energy per Si atom -5577.525053 kJ/mol
# Density = 1.970813 g / cm^3
# Si number density = 19.753086 Si / 1000 Ang^3
#
#
#
# Elastic Constant Matrix: (Units=GPa)
#
#
# Indices 1 2 3 4 5 6 
#
# 1 98.9731 20.2595 29.9816 0.0000 0.0000 0.0000
# 2 20.2595 55.6463 7.6075 0.0000 0.0000 0.0000
# 3 29.9816 7.6075 74.7332 0.0000 0.0000 0.0000
# 4 0.0000 0.0000 0.0000 12.0195 0.0000 0.0000
# 5 0.0000 0.0000 0.0000 0.0000 27.9594 0.0000
# 6 0.0000 0.0000 0.0000 0.0000 0.0000 19.1894
#
#
#
# Elastic Compliance Matrix: (Units=1/GPa)
#
#
# Indices 1 2 3 4 5 6 
#
# 1 0.012263 -0.003845 -0.004528 0.000000 0.000000 0.000000
# 2 -0.003845 0.019430 -0.000435 0.000000 0.000000 0.000000
# 3 -0.004528 -0.000435 0.015242 0.000000 0.000000 0.000000
# 4 0.000000 0.000000 0.000000 0.083198 0.000000 0.000000
# 5 0.000000 0.000000 0.000000 0.000000 0.035766 0.000000
# 6 0.000000 0.000000 0.000000 0.000000 0.000000 0.052112
#
#
# Mechanical properties :
#
#
# Convention : Reuss Voigt Hill
#
# Bulk Modulus (GPa) = 34.10971 38.33885 36.22428
# Shear Modulus (GPa) = 20.37486 23.26727 21.82107
#
# Velocity S-wave (km/s) = 3.21515 3.43579 3.32730
# Velocity P-wave (km/s) = 5.57570 5.93217 5.75670
#
# Compressibility (1/GPa) = 0.02931717
#
# Stress axis : x y z
#
# Youngs Moduli (GPa) = 81.54882 51.46625 65.60899
#
# Poissons Ratio (x) = 0.19791 0.29708
# Poissons Ratio (y) = 0.31360 0.02855
# Poissons Ratio (z) = 0.36926 0.02240
#
# Static dielectric constant tensor:
#      x y z
#    x 1.672720 0.000000 0.000000 
#    y 0.000000 1.710170 0.000000 
#    z 0.000000 0.000000 1.778810 
# 
# From -- ./inp_files/6317.got.cif
#   From: 2010.05.17/outbox.ucp.g08.bks.cvg/sg60_4_cif.got.tgz:6317.got - 2010.06.11 16:26:41.
