data_PCOD9458111
_publ_section_title
;
Structure prediction by ZEFSAII (Michael W. Deem and Ramdas Pophale) SiO2 
 PCOD9458111
Probable space group: P B C N
;
_chemical_formula_sum "Si O2"
_cell_formula_units_Z 36
_cell_length_a 10.076338
_cell_length_b 14.333835
_cell_length_c 10.729653
_cell_angle_alpha 90.000000
_cell_angle_beta 90.000000
_cell_angle_gamma 90.000000
_cell_volume 1549.711318
_symmetry_space_group_name_H-M "P B C N"
_symmetry_group_IT_number 60
_symmetry_cell_setting 'orthorhombic'
loop_
_space_group_symop_operation_xyz
x,y,z
1/2-x,1/2-y,1/2+z
1/2+x,1/2-y,-z
-x,y,1/2-z
-x,-y,-z
1/2+x,1/2+y,1/2-z
1/2-x,1/2+y,z
x,-y,1/2+z
loop_
_atom_site_type_symbol
_atom_site_label
_atom_site_fract_x
_atom_site_fract_y
_atom_site_fract_z
Si Si1 0.896447 0.362178 0.150135
Si Si2 0.595388 0.638648 0.578344
Si Si3 0.500000 0.508209 0.250000
Si Si4 0.663206 0.326475 0.800891
Si Si5 0.462601 0.831154 0.625487
O O1 0.743505 0.390969 0.123302
O O2 0.873212 0.257954 0.209052
O O3 0.000000 0.404346 0.250000
O O4 0.967769 0.368314 0.015303
O O5 0.495701 0.561795 0.632900
O O6 0.586605 0.655547 0.431187
O O7 0.555092 0.740065 0.628937
O O8 0.372523 0.575709 0.263686
O O9 0.809149 0.307929 0.852183
O O10 0.500000 0.888171 0.750000
#
# Coordination Sequence:
#
# PCOD9458111 Si02
#       5
#     8   8   4   8   8
#     4  11  21  38  65  94 123 160 211 263 305 364
#     4  11  22  39  64  92 124 164 210 255 316 373
#     4  12  22  40  58  92 132 166 204 256 322 372
#     4  11  22  37  62  94 122 162 208 261 306 369
#     4  11  21  38  62  94 120 163 211 256 307 367
#
# _framework density 23.230134
#
# number of rings (size 3 to 8) (size 9 to 14) (size 15 to 20)
#    0.000    0.889    6.667    0.667    0.000    0.000 
#    0.000    1.111    0.000    5.333    0.000    0.000 
#    0.000    0.000    0.000    0.000    0.000    0.000 
#
# Total GULP energy -200426.831014 kJ/mol
# GULP energy per Si atom -5567.411973 kJ/mol
# Density = 2.317726 g / cm^3
# Si number density = 23.230134 Si / 1000 Ang^3
#
#
#
# Elastic Constant Matrix: (Units=GPa)
#
#
# Indices 1 2 3 4 5 6 
#
# 1 60.4967 -10.4405 14.2159 0.0000 0.0000 0.0000
# 2 -10.4405 82.8918 23.1120 0.0000 0.0000 0.0000
# 3 14.2159 23.1120 185.7815 0.0000 0.0000 0.0000
# 4 0.0000 0.0000 0.0000 12.4879 0.0000 0.0000
# 5 0.0000 0.0000 0.0000 0.0000 47.2659 0.0000
# 6 0.0000 0.0000 0.0000 0.0000 0.0000 -11.8918
#
#
#
# Elastic Compliance Matrix: (Units=1/GPa)
#
#
# Indices 1 2 3 4 5 6 
#
# 1 0.017377 0.002651 -0.001660 0.000000 0.000000 0.000000
# 2 0.002651 0.012902 -0.001808 0.000000 0.000000 0.000000
# 3 -0.001660 -0.001808 0.005735 0.000000 0.000000 0.000000
# 4 0.000000 0.000000 0.000000 0.080077 0.000000 0.000000
# 5 0.000000 0.000000 0.000000 0.000000 0.021157 0.000000
# 6 0.000000 0.000000 0.000000 0.000000 0.000000 -0.084092
#
#
# Mechanical properties :
#
#
# Convention : Reuss Voigt Hill
#
# Bulk Modulus (GPa) = 29.08513 42.54943 35.81728
# Shear Modulus (GPa) = 75.47271 29.72458 52.59864
#
# Velocity S-wave (km/s) = 5.70611 3.58099 4.76357
# Velocity P-wave (km/s) = 7.48068 5.95434 6.76072
#
# Compressibility (1/GPa) = 0.03438183
#
# Stress axis : x y z
#
# Youngs Moduli (GPa) = 57.54601 77.50756 174.38086
#
# Poissons Ratio (x) = -0.20551 0.28940
# Poissons Ratio (y) = -0.15258 0.31527
# Poissons Ratio (z) = 0.09550 0.14013
#
# Static dielectric constant tensor:
#      x y z
#    x 1.938550 0.000000 0.000000 
#    y 0.000000 1.857550 0.000000 
#    z 0.000000 0.000000 1.960250 
# 
# From -- ./inp_files/9888.got.cif
#   From: 2010.05.17/outbox.cif.g08.bks.cpg/sg60_5_cif.got.tgz:9888.got - 2010.06.03 14:59:27.
