data_PCOD9458508
_publ_section_title
;
Structure prediction by ZEFSAII (Michael W. Deem and Ramdas Pophale) SiO2 
 PCOD9458508
Probable space group: P B C N
;
_chemical_formula_sum "Si O2"
_cell_formula_units_Z 32
_cell_length_a 9.586403
_cell_length_b 8.669008
_cell_length_c 14.200371
_cell_angle_alpha 90.000000
_cell_angle_beta 90.000000
_cell_angle_gamma 90.000000
_cell_volume 1180.116213
_symmetry_space_group_name_H-M "P B C N"
_symmetry_group_IT_number 60
_symmetry_cell_setting 'orthorhombic'
loop_
_space_group_symop_operation_xyz
x,y,z
1/2-x,1/2-y,1/2+z
1/2+x,1/2-y,-z
-x,y,1/2-z
-x,-y,-z
1/2+x,1/2+y,1/2-z
1/2-x,1/2+y,z
x,-y,1/2+z
loop_
_atom_site_type_symbol
_atom_site_label
_atom_site_fract_x
_atom_site_fract_y
_atom_site_fract_z
Si Si1 0.394736 0.244367 0.020265
Si Si2 0.324861 0.121718 0.213854
Si Si3 0.720969 0.393484 0.152251
Si Si4 0.937890 0.931327 0.895416
O O1 0.398843 0.137507 0.112738
O O2 0.593406 0.509441 0.128587
O O3 0.296522 0.173133 0.939999
O O4 0.361291 0.415312 0.063251
O O5 0.349214 0.263774 0.283014
O O6 0.838896 0.125382 0.314113
O O7 0.335052 0.974189 0.280511
O O8 0.537281 0.289382 0.966683
#
# Coordination Sequence:
#
# PCOD9458508 Si02
#       4
#     8   8   8   8
#     4  11  24  45  79 109 147 210 250 311 390 465
#     4  12  26  46  79 112 152 206 258 314 390 465
#     4  12  26  46  79 112 152 206 258 314 390 465
#     4  11  25  50  78 108 166 201 247 334 397 433
#
# _framework density 27.115974000000001
#
# number of rings (size 3 to 8) (size 9 to 14) (size 15 to 20)
#    0.000    0.500    5.000    3.750    0.000    0.000 
#    0.000    7.500    0.000    0.000    0.000    0.000 
#    0.000    0.000    0.000    0.000    0.000    0.000 
#
# Total GULP energy -179001.919188 kJ/mol
# GULP energy per Si atom -5593.809975 kJ/mol
# Density = 2.705426 g / cm^3
# Si number density = 27.115974 Si / 1000 Ang^3
#
#
#
# Elastic Constant Matrix: (Units=GPa)
#
#
# Indices 1 2 3 4 5 6 
#
# 1 120.0663 48.1809 85.0461 0.0000 0.0000 0.0000
# 2 48.1809 82.7839 67.6894 0.0000 0.0000 0.0000
# 3 85.0461 67.6894 230.0805 0.0000 0.0000 0.0000
# 4 0.0000 0.0000 0.0000 61.7150 0.0000 0.0000
# 5 0.0000 0.0000 0.0000 0.0000 38.6983 0.0000
# 6 0.0000 0.0000 0.0000 0.0000 0.0000 38.7138
#
#
#
# Elastic Compliance Matrix: (Units=1/GPa)
#
#
# Indices 1 2 3 4 5 6 
#
# 1 0.012485 -0.004599 -0.003262 0.000000 0.000000 0.000000
# 2 -0.004599 0.017600 -0.003478 0.000000 0.000000 0.000000
# 3 -0.003262 -0.003478 0.006575 0.000000 0.000000 0.000000
# 4 0.000000 0.000000 0.000000 0.016204 0.000000 0.000000
# 5 0.000000 0.000000 0.000000 0.000000 0.025841 0.000000
# 6 0.000000 0.000000 0.000000 0.000000 0.000000 0.025831
#
#
# Mechanical properties :
#
#
# Convention : Reuss Voigt Hill
#
# Bulk Modulus (GPa) = 71.51875 92.75152 82.13513
# Shear Modulus (GPa) = 37.91512 43.29304 40.60408
#
# Velocity S-wave (km/s) = 3.74339 4.00007 3.87385
# Velocity P-wave (km/s) = 6.71687 7.45747 7.09683
#
# Compressibility (1/GPa) = 0.01398235
#
# Stress axis : x y z
#
# Youngs Moduli (GPa) = 80.09820 56.81757 152.08776
#
# Poissons Ratio (x) = 0.26132 0.49607
# Poissons Ratio (y) = 0.36839 0.52895
# Poissons Ratio (z) = 0.26126 0.19761
#
# Static dielectric constant tensor:
#      x y z
#    x 2.135350 0.000000 0.000000 
#    y 0.000000 2.101830 0.000000 
#    z 0.000000 0.000000 2.186370 
# 
# From -- ./inp_files/14343.got.cif
#   From: 2010.05.17/outbox.cif.g08.bks.cpg/sg60_8_cif.got.tgz:14343.got - 2010.06.03 14:59:27.
