data_PCOD9458048
_publ_section_title
;
Structure prediction by ZEFSAII (Michael W. Deem and Ramdas Pophale) SiO2 
 PCOD9458048
Probable space group: P B C N
;
_chemical_formula_sum "Si O2"
_cell_formula_units_Z 48
_cell_length_a 16.951804
_cell_length_b 13.711531
_cell_length_c 8.613062
_cell_angle_alpha 90.000000
_cell_angle_beta 90.000000
_cell_angle_gamma 90.000000
_cell_volume 2001.978668
_symmetry_space_group_name_H-M "P B C N"
_symmetry_group_IT_number 60
_symmetry_cell_setting 'orthorhombic'
loop_
_space_group_symop_operation_xyz
x,y,z
1/2-x,1/2-y,1/2+z
1/2+x,1/2-y,-z
-x,y,1/2-z
-x,-y,-z
1/2+x,1/2+y,1/2-z
1/2-x,1/2+y,z
x,-y,1/2+z
loop_
_atom_site_type_symbol
_atom_site_label
_atom_site_fract_x
_atom_site_fract_y
_atom_site_fract_z
Si Si1 0.085119 0.500500 0.175071
Si Si2 0.916170 0.897697 0.824080
Si Si3 0.340778 0.574460 0.504647
Si Si4 0.864275 0.703266 0.959186
Si Si5 0.710757 0.290333 0.241931
Si Si6 0.302702 0.054172 0.950559
O O1 0.089404 0.396752 0.080901
O O2 0.149185 0.483511 0.306044
O O3 0.000000 0.518175 0.250000
O O4 0.126573 0.581511 0.066871
O O5 0.857984 0.897352 0.672976
O O6 0.917736 0.796594 0.917855
O O7 0.000000 0.916536 0.750000
O O8 0.893537 0.984862 0.938594
O O9 0.346642 0.659330 0.632405
O O10 0.252030 0.531404 0.517568
O O11 0.789645 0.724468 0.843919
O O12 0.831817 0.710269 0.135333
O O13 0.742360 0.365223 0.109533
#
# Coordination Sequence:
#
# PCOD9458048 Si02
#       6
#     8   8   8   8   8   8
#     4  11  24  40  63  94 130 166 209 262 330 385
#     4  12  24  39  63  93 133 168 204 265 323 383
#     4  12  21  42  65  94 122 167 225 257 309 384
#     4  11  23  39  61  92 131 161 210 266 330 378
#     4  11  23  38  67  98 119 167 219 276 310 376
#     4  11  20  40  64  90 121 166 215 263 303 376
#
# _framework density 23.976278000000001
#
# number of rings (size 3 to 8) (size 9 to 14) (size 15 to 20)
#    0.000    0.667    6.667    2.500    0.000    0.000 
#    0.000    0.000    0.000    2.000    0.000    0.000 
#    0.000    0.000    0.000    0.000    0.000    0.000 
#
# Total GULP energy -268285.659209 kJ/mol
# GULP energy per Si atom -5589.284567 kJ/mol
# Density = 2.392171 g / cm^3
# Si number density = 23.976278 Si / 1000 Ang^3
#
#
#
# Elastic Constant Matrix: (Units=GPa)
#
#
# Indices 1 2 3 4 5 6 
#
# 1 56.4730 -11.0316 -12.1503 0.0000 0.0000 0.0000
# 2 -11.0316 61.6077 26.6119 0.0000 0.0000 0.0000
# 3 -12.1503 26.6119 87.0712 0.0000 0.0000 0.0000
# 4 0.0000 0.0000 0.0000 43.2267 0.0000 0.0000
# 5 0.0000 0.0000 0.0000 0.0000 31.6107 0.0000
# 6 0.0000 0.0000 0.0000 0.0000 0.0000 10.5057
#
#
#
# Elastic Compliance Matrix: (Units=1/GPa)
#
#
# Indices 1 2 3 4 5 6 
#
# 1 0.018596 0.002545 0.001817 0.000000 0.000000 0.000000
# 2 0.002545 0.019049 -0.005467 0.000000 0.000000 0.000000
# 3 0.001817 -0.005467 0.013409 0.000000 0.000000 0.000000
# 4 0.000000 0.000000 0.000000 0.023134 0.000000 0.000000
# 5 0.000000 0.000000 0.000000 0.000000 0.031635 0.000000
# 6 0.000000 0.000000 0.000000 0.000000 0.000000 0.095186
#
#
# Mechanical properties :
#
#
# Convention : Reuss Voigt Hill
#
# Bulk Modulus (GPa) = 20.47334 23.55690 22.01512
# Shear Modulus (GPa) = 22.77908 30.51675 26.64792
#
# Velocity S-wave (km/s) = 3.08566 3.57149 3.33743
# Velocity P-wave (km/s) = 4.61005 5.18206 4.90441
#
# Compressibility (1/GPa) = 0.04884401
#
# Stress axis : x y z
#
# Youngs Moduli (GPa) = 53.77604 52.49653 74.57523
#
# Poissons Ratio (x) = -0.13360 -0.13551
# Poissons Ratio (y) = -0.13685 0.40769
# Poissons Ratio (z) = -0.09772 0.28699
#
# Static dielectric constant tensor:
#      x y z
#    x 1.910750 0.000000 0.000000 
#    y 0.000000 1.989230 0.000000 
#    z 0.000000 0.000000 1.969070 
# 
# From -- ./inp_files/6722.got.cif
#   From: 2010.05.17/outbox.cif.g08.bks.cpg/sg60_4_cif.got.tgz:6722.got - 2010.06.03 14:59:27.
