data_PCOD9458022
_publ_section_title
;
Structure prediction by ZEFSAII (Michael W. Deem and Ramdas Pophale) SiO2 
 PCOD9458022
Probable space group: P B C N
;
_chemical_formula_sum "Si O2"
_cell_formula_units_Z 52
_cell_length_a 10.686439
_cell_length_b 14.807651
_cell_length_c 16.309383
_cell_angle_alpha 90.000000
_cell_angle_beta 90.000000
_cell_angle_gamma 90.000000
_cell_volume 2580.814040
_symmetry_space_group_name_H-M "P B C N"
_symmetry_group_IT_number 60
_symmetry_cell_setting 'orthorhombic'
loop_
_space_group_symop_operation_xyz
x,y,z
1/2-x,1/2-y,1/2+z
1/2+x,1/2-y,-z
-x,y,1/2-z
-x,-y,-z
1/2+x,1/2+y,1/2-z
1/2-x,1/2+y,z
x,-y,1/2+z
loop_
_atom_site_type_symbol
_atom_site_label
_atom_site_fract_x
_atom_site_fract_y
_atom_site_fract_z
Si Si1 0.812394 0.531545 0.354652
Si Si2 0.861560 0.987501 0.214468
Si Si3 0.672882 0.329848 0.956462
Si Si4 0.091882 0.803875 0.354670
Si Si5 0.073696 0.077430 0.448571
Si Si6 0.000000 0.358730 0.750000
Si Si7 0.301433 0.345034 0.099471
O O1 0.721086 0.542851 0.277133
O O2 0.761233 0.584384 0.434606
O O3 0.937170 0.576790 0.318967
O O4 0.788770 0.424606 0.368318
O O5 0.837679 0.881272 0.197511
O O6 0.000000 0.992811 0.250000
O O7 0.859493 0.031927 0.126331
O O8 0.535998 0.354912 0.923123
O O9 0.733500 0.249752 0.904766
O O10 0.649826 0.305818 0.052909
O O11 0.086429 0.710906 0.303483
O O12 0.943876 0.834733 0.364618
O O13 0.169314 0.126886 0.506590
O O14 0.000000 0.000000 0.500000
#
# Coordination Sequence:
#
# PCOD9458022 Si02
#       7
#     8   8   8   8   8   4   8
#     4  12  24  41  62  95 137 168 208 273 328 391
#     4  12  19  36  67  97 116 160 223 275 308 366
#     4  11  22  39  65  93 125 171 213 272 323 386
#     4  11  21  42  68  94 120 172 227 264 319 385
#     4  11  19  38  63  95 119 158 222 274 316 369
#     4  12  26  42  60  98 138 176 204 266 350 394
#     4  11  21  41  65  89 130 166 213 271 318 388
#
# _framework density 20.148681
#
# number of rings (size 3 to 8) (size 9 to 14) (size 15 to 20)
#    0.000    0.615   10.000    0.000    2.154    0.000 
#    0.000    5.385    0.000    0.000    0.000    0.000 
#    0.000    0.000    0.000    0.000    0.000    0.000 
#
# Total GULP energy -289749.288398 kJ/mol
# GULP energy per Si atom -5572.101700 kJ/mol
# Density = 2.010282 g / cm^3
# Si number density = 20.148681 Si / 1000 Ang^3
#
#
#
# Elastic Constant Matrix: (Units=GPa)
#
#
# Indices 1 2 3 4 5 6 
#
# 1 31.3908 18.9151 9.1897 0.0000 0.0000 0.0000
# 2 18.9151 86.8693 5.4561 0.0000 0.0000 0.0000
# 3 9.1897 5.4561 63.2879 0.0000 0.0000 0.0000
# 4 0.0000 0.0000 0.0000 54.9363 0.0000 0.0000
# 5 0.0000 0.0000 0.0000 0.0000 27.7990 0.0000
# 6 0.0000 0.0000 0.0000 0.0000 0.0000 21.5797
#
#
#
# Elastic Compliance Matrix: (Units=1/GPa)
#
#
# Indices 1 2 3 4 5 6 
#
# 1 0.038088 -0.007989 -0.004842 0.000000 0.000000 0.000000
# 2 -0.007989 0.013250 0.000018 0.000000 0.000000 0.000000
# 3 -0.004842 0.000018 0.016502 0.000000 0.000000 0.000000
# 4 0.000000 0.000000 0.000000 0.018203 0.000000 0.000000
# 5 0.000000 0.000000 0.000000 0.000000 0.035973 0.000000
# 6 0.000000 0.000000 0.000000 0.000000 0.000000 0.046340
#
#
# Mechanical properties :
#
#
# Convention : Reuss Voigt Hill
#
# Bulk Modulus (GPa) = 23.68891 27.62996 25.65943
# Shear Modulus (GPa) = 24.03226 30.72878 27.38052
#
# Velocity S-wave (km/s) = 3.45736 3.90949 3.69036
# Velocity P-wave (km/s) = 5.26501 5.84137 5.56067
#
# Compressibility (1/GPa) = 0.04221385
#
# Stress axis : x y z
#
# Youngs Moduli (GPa) = 26.25495 75.47147 60.59751
#
# Poissons Ratio (x) = 0.60296 0.29340
# Poissons Ratio (y) = 0.20976 -0.00108
# Poissons Ratio (z) = 0.12712 -0.00134
#
# Static dielectric constant tensor:
#      x y z
#    x 1.690260 0.000000 0.000000 
#    y 0.000000 1.789140 0.000000 
#    z 0.000000 0.000000 1.771600 
# 
# From -- ./inp_files/20137.got.cif
#   From: 2010.05.17/outbox.cif.g08.bks.cpg/sg60_11_cif.got.tgz:20137.got - 2010.06.03 14:59:27.
