data_PCOD9458521
_publ_section_title
;
Structure prediction by ZEFSAII (Michael W. Deem and Ramdas Pophale) SiO2 
 PCOD9458521
Probable space group: P B C N
;
_chemical_formula_sum "Si O2"
_cell_formula_units_Z 40
_cell_length_a 14.119207
_cell_length_b 14.027052
_cell_length_c 9.073298
_cell_angle_alpha 90.000000
_cell_angle_beta 90.000000
_cell_angle_gamma 90.000000
_cell_volume 1796.974388
_symmetry_space_group_name_H-M "P B C N"
_symmetry_group_IT_number 60
_symmetry_cell_setting 'orthorhombic'
loop_
_space_group_symop_operation_xyz
x,y,z
1/2-x,1/2-y,1/2+z
1/2+x,1/2-y,-z
-x,y,1/2-z
-x,-y,-z
1/2+x,1/2+y,1/2-z
1/2-x,1/2+y,z
x,-y,1/2+z
loop_
_atom_site_type_symbol
_atom_site_label
_atom_site_fract_x
_atom_site_fract_y
_atom_site_fract_z
Si Si1 0.000000 0.039708 0.250000
Si Si2 0.667002 0.926625 0.804220
Si Si3 0.500000 0.206463 0.250000
Si Si4 0.306518 0.880548 0.353528
Si Si5 0.629714 0.370947 0.334032
Si Si6 0.839349 0.835800 0.639076
O O1 0.062580 0.108073 0.350163
O O2 0.071908 0.968714 0.167536
O O3 0.586108 0.865691 0.720528
O O4 0.766164 0.883590 0.749823
O O5 0.659618 0.035769 0.754412
O O6 0.668204 0.912086 0.980214
O O7 0.555445 0.283849 0.349950
O O8 0.193979 0.868359 0.313460
O O9 0.348351 0.775663 0.330042
O O10 0.697216 0.356159 0.473680
#
# Coordination Sequence:
#
# PCOD9458521 Si02
#       6
#     4   8   4   8   8   8
#     4  11  26  41  80 116 138 181 248 309 362 438
#     4  12  27  46  75 106 150 193 245 300 371 432
#     4  11  24  47  70 108 146 193 238 301 354 438
#     4  12  25  48  73 104 147 199 240 302 367 441
#     4  11  24  48  76 106 149 190 242 305 371 430
#     4  12  24  48  73 114 140 191 243 307 372 434
#
# _framework density 22.259637999999999
#
# number of rings (size 3 to 8) (size 9 to 14) (size 15 to 20)
#    0.000    0.400    6.000    1.800    0.000    4.800 
#    7.200    0.000    0.000    0.000    0.000    0.000 
#    0.000    0.000    0.000    0.000    0.000    0.000 
#
# Total GULP energy -223242.646073 kJ/mol
# GULP energy per Si atom -5581.066152 kJ/mol
# Density = 2.220897 g / cm^3
# Si number density = 22.259638 Si / 1000 Ang^3
#
#
#
# Elastic Constant Matrix: (Units=GPa)
#
#
# Indices 1 2 3 4 5 6 
#
# 1 65.2716 51.5227 10.0625 0.0000 0.0000 0.0000
# 2 51.5227 227.1781 37.2711 0.0000 0.0000 0.0000
# 3 10.0625 37.2711 51.9681 0.0000 0.0000 0.0000
# 4 0.0000 0.0000 0.0000 14.5430 0.0000 0.0000
# 5 0.0000 0.0000 0.0000 0.0000 8.2516 0.0000
# 6 0.0000 0.0000 0.0000 0.0000 0.0000 45.0354
#
#
#
# Elastic Compliance Matrix: (Units=1/GPa)
#
#
# Indices 1 2 3 4 5 6 
#
# 1 0.018681 -0.004129 -0.000656 0.000000 0.000000 0.000000
# 2 -0.004129 0.005902 -0.003433 0.000000 0.000000 0.000000
# 3 -0.000656 -0.003433 0.021832 0.000000 0.000000 0.000000
# 4 0.000000 0.000000 0.000000 0.068762 0.000000 0.000000
# 5 0.000000 0.000000 0.000000 0.000000 0.121188 0.000000
# 6 0.000000 0.000000 0.000000 0.000000 0.000000 0.022205
#
#
# Mechanical properties :
#
#
# Convention : Reuss Voigt Hill
#
# Bulk Modulus (GPa) = 33.35735 60.23672 46.79704
# Shear Modulus (GPa) = 17.54401 29.93677 23.74039
#
# Velocity S-wave (km/s) = 2.81045 3.67125 3.26931
# Velocity P-wave (km/s) = 5.05466 6.71495 5.94307
#
# Compressibility (1/GPa) = 0.02997840
#
# Stress axis : x y z
#
# Youngs Moduli (GPa) = 53.52999 169.44748 45.80503
#
# Poissons Ratio (x) = 0.69968 0.03004
# Poissons Ratio (y) = 0.22104 0.15725
# Poissons Ratio (z) = 0.03510 0.58171
#
# Static dielectric constant tensor:
#      x y z
#    x 1.847700 0.000000 0.000000 
#    y 0.000000 1.810590 0.000000 
#    z 0.000000 0.000000 1.944640 
# 
# From -- ./inp_files/5723.got.cif
#   From: 2010.05.17/outbox.cif.g08.bks.cpg/sg60_3_cif.got.tgz:5723.got - 2010.06.03 14:59:27.
