data_PCOD9458438
_publ_section_title
;
Structure prediction by ZEFSAII (Michael W. Deem and Ramdas Pophale) SiO2 
 PCOD9458438
Probable space group: P B C N
;
_chemical_formula_sum "Si O2"
_cell_formula_units_Z 20
_cell_length_a 7.089179
_cell_length_b 19.275575
_cell_length_c 5.813428
_cell_angle_alpha 90.000000
_cell_angle_beta 90.000000
_cell_angle_gamma 90.000000
_cell_volume 794.393318
_symmetry_space_group_name_H-M "P B C N"
_symmetry_group_IT_number 60
_symmetry_cell_setting 'orthorhombic'
loop_
_space_group_symop_operation_xyz
x,y,z
1/2-x,1/2-y,1/2+z
1/2+x,1/2-y,-z
-x,y,1/2-z
-x,-y,-z
1/2+x,1/2+y,1/2-z
1/2-x,1/2+y,z
x,-y,1/2+z
loop_
_atom_site_type_symbol
_atom_site_label
_atom_site_fract_x
_atom_site_fract_y
_atom_site_fract_z
Si Si1 0.272261 0.970200 0.279361
Si Si2 0.000000 0.704606 0.250000
Si Si3 0.204406 0.321730 0.154617
O O1 0.500000 0.974068 0.250000
O O2 0.224736 0.888115 0.288928
O O3 0.209840 0.001362 0.526603
O O4 0.151274 0.758966 0.144924
O O5 0.135232 0.656765 0.401284
O O6 0.000000 0.298900 0.250000
#
# Coordination Sequence:
#
# PCOD9458438 Si02
#       3
#     8   4   8
#     4   9  20  37  62  92 124 172 218 269 326 390
#     4  12  24  42  62 102 126 178 212 276 330 396
#     4  11  24  40  66  93 133 167 220 270 328 393
#
# _framework density 25.176444
#
# number of rings (size 3 to 8) (size 9 to 14) (size 15 to 20)
#    0.000    1.600    4.000    0.000   14.000    0.000 
#    0.000    2.000    0.000    0.000    0.000    0.000 
#    0.000    0.000    0.000    0.000    0.000    0.000 
#
# Total GULP energy -111436.614651 kJ/mol
# GULP energy per Si atom -5571.830733 kJ/mol
# Density = 2.511914 g / cm^3
# Si number density = 25.176444 Si / 1000 Ang^3
#
#
#
# Elastic Constant Matrix: (Units=GPa)
#
#
# Indices 1 2 3 4 5 6 
#
# 1 100.5000 14.6933 11.5013 0.0000 0.0000 0.0000
# 2 14.6933 78.4459 41.0730 0.0000 0.0000 0.0000
# 3 11.5013 41.0730 125.6009 0.0000 0.0000 0.0000
# 4 0.0000 0.0000 0.0000 32.4341 0.0000 0.0000
# 5 0.0000 0.0000 0.0000 0.0000 8.0070 0.0000
# 6 0.0000 0.0000 0.0000 0.0000 0.0000 45.1940
#
#
#
# Elastic Compliance Matrix: (Units=1/GPa)
#
#
# Indices 1 2 3 4 5 6 
#
# 1 0.010245 -0.001723 -0.000375 0.000000 0.000000 0.000000
# 2 -0.001723 0.015671 -0.004967 0.000000 0.000000 0.000000
# 3 -0.000375 -0.004967 0.009620 0.000000 0.000000 0.000000
# 4 0.000000 0.000000 0.000000 0.030832 0.000000 0.000000
# 5 0.000000 0.000000 0.000000 0.000000 0.124890 0.000000
# 6 0.000000 0.000000 0.000000 0.000000 0.000000 0.022127
#
#
# Mechanical properties :
#
#
# Convention : Reuss Voigt Hill
#
# Bulk Modulus (GPa) = 46.71260 48.78688 47.74974
# Shear Modulus (GPa) = 21.30838 32.94563 27.12701
#
# Velocity S-wave (km/s) = 2.91239 3.62137 3.28605
# Velocity P-wave (km/s) = 5.46843 6.07501 5.77968
#
# Compressibility (1/GPa) = 0.02140750
#
# Stress axis : x y z
#
# Youngs Moduli (GPa) = 97.60857 63.81275 103.94732
#
# Poissons Ratio (x) = 0.10993 0.03896
# Poissons Ratio (y) = 0.16815 0.51629
# Poissons Ratio (z) = 0.03658 0.31695
#
# Static dielectric constant tensor:
#      x y z
#    x 1.944710 0.000000 0.000000 
#    y 0.000000 1.931200 0.000000 
#    z 0.000000 0.000000 2.642650 
# 
# From -- ./inp_files/141.got.cif
#   From: 2010.05.17/outbox.cif.g08.bks.cpg/sg60_1_cif.got.tgz:141.got - 2010.06.03 14:59:27.
