data_PCOD9458318
_publ_section_title
;
Structure prediction by ZEFSAII (Michael W. Deem and Ramdas Pophale) SiO2 
 PCOD9458318
Probable space group: P B C N
;
_chemical_formula_sum "Si O2"
_cell_formula_units_Z 60
_cell_length_a 26.205160
_cell_length_b 12.446419
_cell_length_c 7.916264
_cell_angle_alpha 90.000000
_cell_angle_beta 90.000000
_cell_angle_gamma 90.000000
_cell_volume 2581.971843
_symmetry_space_group_name_H-M "P B C N"
_symmetry_group_IT_number 60
_symmetry_cell_setting 'orthorhombic'
loop_
_space_group_symop_operation_xyz
x,y,z
1/2-x,1/2-y,1/2+z
1/2+x,1/2-y,-z
-x,y,1/2-z
-x,-y,-z
1/2+x,1/2+y,1/2-z
1/2-x,1/2+y,z
x,-y,1/2+z
loop_
_atom_site_type_symbol
_atom_site_label
_atom_site_fract_x
_atom_site_fract_y
_atom_site_fract_z
Si Si1 0.107923 0.853454 0.816637
Si Si2 0.625667 0.777613 0.650661
Si Si3 0.738159 0.833357 0.565706
Si Si4 0.756009 0.458811 0.923915
Si Si5 0.020805 0.617542 0.440132
Si Si6 0.164702 0.679631 0.977031
Si Si7 0.000000 0.224914 0.250000
Si Si8 0.854639 0.942651 0.023693
O O1 0.138826 0.905749 0.666598
O O2 0.049494 0.848120 0.768755
O O3 0.122659 0.937684 0.961859
O O4 0.126522 0.731528 0.844296
O O5 0.680455 0.792762 0.561750
O O6 0.581393 0.854335 0.577453
O O7 0.635952 0.803830 0.845882
O O8 0.616073 0.649460 0.629264
O O9 0.744316 0.891925 0.749656
O O10 0.783450 0.749169 0.543166
O O11 0.745261 0.913578 0.408675
O O12 0.810097 0.436845 0.018479
O O13 0.706487 0.439716 0.041776
O O14 0.000000 0.636420 0.250000
O O15 0.000000 0.500000 0.500000
O O16 0.002305 0.700607 0.583372
#
# Coordination Sequence:
#
# PCOD9458318 Si02
#       8
#     8   8   8   8   8   8   4   8
#     4  12  26  44  73 104 143 199 245 315 380 449
#     4  11  26  45  71 108 146 196 253 317 380 466
#     4  11  24  39  65 103 146 192 243 297 379 461
#     4  11  23  39  64 101 143 194 238 295 370 465
#     4  12  27  54  86 112 150 199 261 329 398 454
#     4  11  23  42  68 104 150 195 245 307 383 459
#     4  12  28  54  78 114 148 192 264 324 382 456
#     4  12  22  42  68  99 144 189 240 293 377 450
#
# _framework density 23.238053000000001
#
# number of rings (size 3 to 8) (size 9 to 14) (size 15 to 20)
#    0.000    0.533    6.000    1.600    1.867    4.800 
#    1.200    0.000    0.000    0.000    0.000    0.000 
#    0.000    0.000    0.000    0.000    0.000    0.000 
#
# Total GULP energy -335020.636475 kJ/mol
# GULP energy per Si atom -5583.677275 kJ/mol
# Density = 2.318516 g / cm^3
# Si number density = 23.238053 Si / 1000 Ang^3
#
#
#
# Elastic Constant Matrix: (Units=GPa)
#
#
# Indices 1 2 3 4 5 6 
#
# 1 119.8404 21.8250 2.3761 0.0000 0.0000 0.0000
# 2 21.8250 53.1467 7.2981 0.0000 0.0000 0.0000
# 3 2.3761 7.2981 83.5387 0.0000 0.0000 0.0000
# 4 0.0000 0.0000 0.0000 31.3162 0.0000 0.0000
# 5 0.0000 0.0000 0.0000 0.0000 28.9932 0.0000
# 6 0.0000 0.0000 0.0000 0.0000 0.0000 30.8562
#
#
#
# Elastic Compliance Matrix: (Units=1/GPa)
#
#
# Indices 1 2 3 4 5 6 
#
# 1 0.009019 -0.003713 0.000068 0.000000 0.000000 0.000000
# 2 -0.003713 0.020573 -0.001692 0.000000 0.000000 0.000000
# 3 0.000068 -0.001692 0.012116 0.000000 0.000000 0.000000
# 4 0.000000 0.000000 0.000000 0.031932 0.000000 0.000000
# 5 0.000000 0.000000 0.000000 0.000000 0.034491 0.000000
# 6 0.000000 0.000000 0.000000 0.000000 0.000000 0.032408
#
#
# Mechanical properties :
#
#
# Convention : Reuss Voigt Hill
#
# Bulk Modulus (GPa) = 32.22202 35.50270 33.86236
# Shear Modulus (GPa) = 30.94843 33.23490 32.09166
#
# Velocity S-wave (km/s) = 3.65334 3.78589 3.72021
# Velocity P-wave (km/s) = 5.62957 5.86699 5.74951
#
# Compressibility (1/GPa) = 0.03103468
#
# Stress axis : x y z
#
# Youngs Moduli (GPa) = 110.87320 48.60746 82.53302
#
# Poissons Ratio (x) = 0.18049 -0.00560
# Poissons Ratio (y) = 0.41169 0.13962
# Poissons Ratio (z) = -0.00752 0.08223
#
# Static dielectric constant tensor:
#      x y z
#    x 1.887740 0.000000 0.000000 
#    y 0.000000 1.963950 0.000000 
#    z 0.000000 0.000000 1.942420 
# 
# From -- ./inp_files/8185.got.cif
#   From: 2010.05.17/outbox.cif.g08.bks.cpg/sg60_5_cif.got.tgz:8185.got - 2010.06.03 14:59:27.
