data_PCOD9458921
_publ_section_title
;
Structure prediction by ZEFSAII (Michael W. Deem and Ramdas Pophale) SiO2 
 PCOD9458921
Probable space group: P B C N
;
_chemical_formula_sum "Si O2"
_cell_formula_units_Z 48
_cell_length_a 12.000000
_cell_length_b 24.000000
_cell_length_c 9.000000
_cell_angle_alpha 90.000000
_cell_angle_beta 90.000000
_cell_angle_gamma 90.000000
_cell_volume 2592.000000
_symmetry_space_group_name_H-M "P B C N"
_symmetry_group_IT_number 60
_symmetry_cell_setting 'orthorhombic'
loop_
_space_group_symop_operation_xyz
x,y,z
1/2-x,1/2-y,1/2+z
1/2+x,1/2-y,-z
-x,y,1/2-z
-x,-y,-z
1/2+x,1/2+y,1/2-z
1/2-x,1/2+y,z
x,-y,1/2+z
loop_
_atom_site_type_symbol
_atom_site_label
_atom_site_fract_x
_atom_site_fract_y
_atom_site_fract_z
Si Si1 0.050155 0.786443 0.106180
Si Si2 0.394617 0.752017 0.141622
Si Si3 0.107397 0.570621 0.975405
Si Si4 0.859495 0.452818 0.371828
Si Si5 0.237827 0.649129 0.507394
Si Si6 0.185139 0.325591 0.678172
O O1 0.139840 0.823168 0.017367
O O2 0.107869 0.728056 0.150731
O O3 0.000000 0.816340 0.250000
O O4 0.945653 0.767945 0.011658
O O5 0.500000 0.757491 0.250000
O O6 0.333018 0.811029 0.119278
O O7 0.306822 0.703491 0.176914
O O8 0.145852 0.556926 0.805991
O O9 0.973712 0.571942 0.946228
O O10 0.137442 0.517513 0.079981
O O11 0.154770 0.626427 0.056638
O O12 0.763494 0.414442 0.440426
O O13 0.180313 0.651856 0.345921
#
# Coordination Sequence:
#
# PCOD9458921 Si02
#       6
#     8   8   8   8   8   8
#     4  11  23  38  56  86 119 156 191 236 287 344
#     4  11  23  38  56  83 121 154 191 234 286 344
#     4  10  22  38  60  85 119 149 192 236 294 342
#     4  10  22  38  59  87 115 153 188 241 288 346
#     4  11  23  36  60  85 117 154 194 235 290 344
#     4  11  23  37  58  87 115 156 193 238 288 344
#
# _framework density 18.518519000000001
#
# number of rings (size 3 to 8) (size 9 to 14) (size 15 to 20)
#    0.000    1.333    3.333    2.000    7.000    1.333 
#    0.000    0.000    0.000    2.000    0.000    0.000 
#    0.000    0.000    0.000    0.000    0.000    0.000 
#
# Total GULP energy -267613.031884 kJ/mol
# GULP energy per Si atom -5575.271498 kJ/mol
# Density = 1.847637 g / cm^3
# Si number density = 18.518519 Si / 1000 Ang^3
#
#
#
# Elastic Constant Matrix: (Units=GPa)
#
#
# Indices 1 2 3 4 5 6 
#
# 1 42.3327 24.5016 6.3770 0.0000 0.0000 0.0000
# 2 24.5016 85.2245 31.6505 0.0000 0.0000 0.0000
# 3 6.3770 31.6505 97.4914 0.0000 0.0000 0.0000
# 4 0.0000 0.0000 0.0000 30.7618 0.0000 0.0000
# 5 0.0000 0.0000 0.0000 0.0000 32.0902 0.0000
# 6 0.0000 0.0000 0.0000 0.0000 0.0000 21.5919
#
#
#
# Elastic Compliance Matrix: (Units=1/GPa)
#
#
# Indices 1 2 3 4 5 6 
#
# 1 0.028407 -0.008502 0.000902 0.000000 0.000000 0.000000
# 2 -0.008502 0.015887 -0.004602 0.000000 0.000000 0.000000
# 3 0.000902 -0.004602 0.011692 0.000000 0.000000 0.000000
# 4 0.000000 0.000000 0.000000 0.032508 0.000000 0.000000
# 5 0.000000 0.000000 0.000000 0.000000 0.031162 0.000000
# 6 0.000000 0.000000 0.000000 0.000000 0.000000 0.046314
#
#
# Mechanical properties :
#
#
# Convention : Reuss Voigt Hill
#
# Bulk Modulus (GPa) = 31.66216 38.90077 35.28146
# Shear Modulus (GPa) = 24.88789 27.72341 26.30565
#
# Velocity S-wave (km/s) = 3.66996 3.87339 3.77305
# Velocity P-wave (km/s) = 5.92392 6.40751 6.17046
#
# Compressibility (1/GPa) = 0.03158344
#
# Stress axis : x y z
#
# Youngs Moduli (GPa) = 35.20218 62.94497 85.52709
#
# Poissons Ratio (x) = 0.53515 -0.07715
# Poissons Ratio (y) = 0.29929 0.39356
# Poissons Ratio (z) = -0.03175 0.28964
#
# Static dielectric constant tensor:
#      x y z
#    x 1.667440 0.000000 0.000000 
#    y 0.000000 1.617730 0.000000 
#    z 0.000000 0.000000 1.594520 
# 
# From -- ./inp_files/5045.got.cif
#   From: 2010.05.17/outbox.ucp.g08.bks.cvg/sg60_3_cif.got.tgz:5045.got - 2010.06.11 16:26:41.
