data_PCOD9458653
_publ_section_title
;
Structure prediction by ZEFSAII (Michael W. Deem and Ramdas Pophale) SiO2 
 PCOD9458653
Probable space group: P B C N
;
_chemical_formula_sum "Si O2"
_cell_formula_units_Z 20
_cell_length_a 5.004164
_cell_length_b 16.003093
_cell_length_c 9.006869
_cell_angle_alpha 90.000000
_cell_angle_beta 90.000000
_cell_angle_gamma 90.000000
_cell_volume 721.289001
_symmetry_space_group_name_H-M "P B C N"
_symmetry_group_IT_number 60
_symmetry_cell_setting 'orthorhombic'
loop_
_space_group_symop_operation_xyz
x,y,z
1/2-x,1/2-y,1/2+z
1/2+x,1/2-y,-z
-x,y,1/2-z
-x,-y,-z
1/2+x,1/2+y,1/2-z
1/2-x,1/2+y,z
x,-y,1/2+z
loop_
_atom_site_type_symbol
_atom_site_label
_atom_site_fract_x
_atom_site_fract_y
_atom_site_fract_z
Si Si1 0.144890 0.857965 0.487908
Si Si2 0.000000 0.262326 0.250000
Si Si3 0.247086 0.524364 0.642739
O O1 0.140207 0.796534 0.627438
O O2 0.286811 0.813589 0.349373
O O3 0.149190 0.893345 0.055874
O O4 0.287177 0.943449 0.539826
O O5 0.500000 0.504441 0.750000
O O6 0.000000 0.533131 0.750000
#
# Coordination Sequence:
#
# PCOD9458653 Si02
#       3
#     8   4   8
#     4  11  30  55  93 137 185 239 312 372 474 540
#     4  12  30  56  92 138 186 242 294 402 456 546
#     4  11  28  58  94 131 180 247 307 373 448 571
#
# _framework density 27.728138000000001
#
# number of rings (size 3 to 8) (size 9 to 14) (size 15 to 20)
#    0.000    0.800    2.000    0.000   14.000    6.400 
#    0.000    0.000    0.000    0.000    0.000    0.000 
#    0.000    0.000    0.000    0.000    0.000    0.000 
#
# Total GULP energy -112439.882029 kJ/mol
# GULP energy per Si atom -5621.994101 kJ/mol
# Density = 2.766503 g / cm^3
# Si number density = 27.728138 Si / 1000 Ang^3
#
#
#
# Elastic Constant Matrix: (Units=GPa)
#
#
# Indices 1 2 3 4 5 6 
#
# 1 182.7471 91.3275 98.4628 0.0000 0.0000 0.0000
# 2 91.3275 227.8965 139.2173 0.0000 0.0000 0.0000
# 3 98.4628 139.2173 267.6470 0.0000 0.0000 0.0000
# 4 0.0000 0.0000 0.0000 98.3699 0.0000 0.0000
# 5 0.0000 0.0000 0.0000 0.0000 71.1590 0.0000
# 6 0.0000 0.0000 0.0000 0.0000 0.0000 46.0662
#
#
#
# Elastic Compliance Matrix: (Units=1/GPa)
#
#
# Indices 1 2 3 4 5 6 
#
# 1 0.007343 -0.001894 -0.001716 0.000000 0.000000 0.000000
# 2 -0.001894 0.006920 -0.002903 0.000000 0.000000 0.000000
# 3 -0.001716 -0.002903 0.005877 0.000000 0.000000 0.000000
# 4 0.000000 0.000000 0.000000 0.010166 0.000000 0.000000
# 5 0.000000 0.000000 0.000000 0.000000 0.014053 0.000000
# 6 0.000000 0.000000 0.000000 0.000000 0.000000 0.021708
#
#
# Mechanical properties :
#
#
# Convention : Reuss Voigt Hill
#
# Bulk Modulus (GPa) = 140.55485 148.47841 144.51663
# Shear Modulus (GPa) = 61.37535 66.40456 63.88995
#
# Velocity S-wave (km/s) = 4.70985 4.89902 4.80537
# Velocity P-wave (km/s) = 8.96534 9.25552 9.11159
#
# Compressibility (1/GPa) = 0.00711466
#
# Stress axis : x y z
#
# Youngs Moduli (GPa) = 136.17614 144.50144 170.14236
#
# Poissons Ratio (x) = 0.27376 0.29198
# Poissons Ratio (y) = 0.25798 0.49387
# Poissons Ratio (z) = 0.23369 0.41944
#
# Static dielectric constant tensor:
#      x y z
#    x 2.250980 0.000000 0.000000 
#    y 0.000000 2.192580 0.000000 
#    z 0.000000 0.000000 2.148080 
# 
# From -- ./inp_files/2813.got.cif
#   From: 2010.05.17/outbox.cif.g08.bks.cpg/sg60_2_cif.got.tgz:2813.got - 2010.06.03 14:59:27.
