data_PCOD9458128
_publ_section_title
;
Structure prediction by ZEFSAII (Michael W. Deem and Ramdas Pophale) SiO2 
 PCOD9458128
Probable space group: P B C N
;
_chemical_formula_sum "Si O2"
_cell_formula_units_Z 56
_cell_length_a 14.856080
_cell_length_b 20.657236
_cell_length_c 9.957729
_cell_angle_alpha 90.000000
_cell_angle_beta 90.000000
_cell_angle_gamma 90.000000
_cell_volume 3055.883147
_symmetry_space_group_name_H-M "P B C N"
_symmetry_group_IT_number 60
_symmetry_cell_setting 'orthorhombic'
loop_
_space_group_symop_operation_xyz
x,y,z
1/2-x,1/2-y,1/2+z
1/2+x,1/2-y,-z
-x,y,1/2-z
-x,-y,-z
1/2+x,1/2+y,1/2-z
1/2-x,1/2+y,z
x,-y,1/2+z
loop_
_atom_site_type_symbol
_atom_site_label
_atom_site_fract_x
_atom_site_fract_y
_atom_site_fract_z
Si Si1 0.000000 0.219682 0.750000
Si Si2 0.811296 0.865789 0.598610
Si Si3 0.000000 0.336325 0.250000
Si Si4 0.589055 0.238291 0.503561
Si Si5 0.565088 0.490138 0.626369
Si Si6 0.278656 0.305469 0.612070
Si Si7 0.682881 0.845987 0.357357
Si Si8 0.342515 0.628482 0.846336
O O1 0.983019 0.259747 0.884290
O O2 0.913514 0.174919 0.727491
O O3 0.878370 0.810438 0.541784
O O4 0.864971 0.932462 0.603934
O O5 0.781609 0.841610 0.745728
O O6 0.728075 0.869401 0.495534
O O7 0.916624 0.371196 0.323439
O O8 0.048412 0.294485 0.365411
O O9 0.677942 0.203791 0.445144
O O10 0.500000 0.474223 0.750000
O O11 0.500000 0.500000 0.500000
O O12 0.618458 0.556500 0.653800
O O13 0.317693 0.232809 0.631855
O O14 0.331019 0.344895 0.497349
O O15 0.750376 0.864939 0.236851
#
# Coordination Sequence:
#
# PCOD9458128 Si02
#       8
#     4   8   4   8   8   8   8   8
#     4  12  22  36  61  90 125 166 198 256 312 384
#     4  11  23  40  59  90 131 165 204 260 314 375
#     4  12  22  40  63  92 119 164 214 258 322 376
#     4  11  24  36  62  92 122 166 206 255 318 377
#     4  12  25  41  62  95 127 173 212 242 304 389
#     4  11  21  40  58  89 127 165 204 260 316 375
#     4  11  22  40  62  88 124 164 209 260 321 374
#     4  12  22  41  60  90 133 164 206 254 312 371
#
# _framework density 18.325306999999999
#
# number of rings (size 3 to 8) (size 9 to 14) (size 15 to 20)
#    0.000    0.571    6.429    4.286    3.000    0.000 
#    0.000    0.000    0.000    0.857    0.000    0.000 
#    0.000    0.000    0.000    0.000    0.000    0.000 
#
# Total GULP energy -313036.146749 kJ/mol
# GULP energy per Si atom -5589.931192 kJ/mol
# Density = 1.828360 g / cm^3
# Si number density = 18.325307 Si / 1000 Ang^3
#
#
#
# Elastic Constant Matrix: (Units=GPa)
#
#
# Indices 1 2 3 4 5 6 
#
# 1 97.9165 19.0010 36.8750 0.0000 0.0000 0.0000
# 2 19.0010 52.8713 24.8642 0.0000 0.0000 0.0000
# 3 36.8750 24.8642 145.4090 0.0000 0.0000 0.0000
# 4 0.0000 0.0000 0.0000 -0.7349 0.0000 0.0000
# 5 0.0000 0.0000 0.0000 0.0000 52.0463 0.0000
# 6 0.0000 0.0000 0.0000 0.0000 0.0000 15.8510
#
#
#
# Elastic Compliance Matrix: (Units=1/GPa)
#
#
# Indices 1 2 3 4 5 6 
#
# 1 0.011730 -0.003063 -0.002451 0.000000 0.000000 0.000000
# 2 -0.003063 0.021368 -0.002877 0.000000 0.000000 0.000000
# 3 -0.002451 -0.002877 0.007991 0.000000 0.000000 0.000000
# 4 0.000000 0.000000 0.000000 -1.360656 0.000000 0.000000
# 5 0.000000 0.000000 0.000000 0.000000 0.019214 0.000000
# 6 0.000000 0.000000 0.000000 0.000000 0.000000 0.063088
#
#
# Mechanical properties :
#
#
# Convention : Reuss Voigt Hill
#
# Bulk Modulus (GPa) = 41.14114 50.85304 45.99709
# Shear Modulus (GPa) = -4.12411 27.79624 11.83606
#
# Velocity S-wave (km/s) = -1.50179 3.89887 2.54419
# Velocity P-wave (km/s) = 4.41498 6.93387 5.81251
#
# Compressibility (1/GPa) = 0.02430657
#
# Stress axis : x y z
#
# Youngs Moduli (GPa) = 85.25013 46.79982 125.14611
#
# Poissons Ratio (x) = 0.14335 0.30673
# Poissons Ratio (y) = 0.26112 0.36005
# Poissons Ratio (z) = 0.20895 0.13464
#
# Static dielectric constant tensor:
#      x y z
#    x 1.638600 0.000000 0.000000 
#    y 0.000000 1.596890 0.000000 
#    z 0.000000 0.000000 1.636340 
# 
# From -- ./inp_files/6193.got.cif
#   From: 2010.05.17/outbox.cif.g08.bks.cpg/sg60_4_cif.got.tgz:6193.got - 2010.06.03 14:59:27.
