data_PCOD9458548
_publ_section_title
;
Structure prediction by ZEFSAII (Michael W. Deem and Ramdas Pophale) SiO2 
 PCOD9458548
Probable space group: P B C N
;
_chemical_formula_sum "Si O2"
_cell_formula_units_Z 64
_cell_length_a 7.179633
_cell_length_b 23.841252
_cell_length_c 13.720006
_cell_angle_alpha 90.000000
_cell_angle_beta 90.000000
_cell_angle_gamma 90.000000
_cell_volume 2348.473179
_symmetry_space_group_name_H-M "P B C N"
_symmetry_group_IT_number 60
_symmetry_cell_setting 'orthorhombic'
loop_
_space_group_symop_operation_xyz
x,y,z
1/2-x,1/2-y,1/2+z
1/2+x,1/2-y,-z
-x,y,1/2-z
-x,-y,-z
1/2+x,1/2+y,1/2-z
1/2-x,1/2+y,z
x,-y,1/2+z
loop_
_atom_site_type_symbol
_atom_site_label
_atom_site_fract_x
_atom_site_fract_y
_atom_site_fract_z
Si Si1 0.791177 0.537769 0.425179
Si Si2 0.714168 0.476308 0.714201
Si Si3 0.069474 0.769770 0.861210
Si Si4 0.691247 0.651092 0.479180
Si Si5 0.210029 0.673907 0.627750
Si Si6 0.196395 0.103428 0.806537
Si Si7 0.508216 0.779130 0.860804
Si Si8 0.804477 0.574425 0.019860
O O1 0.832348 0.530378 0.311978
O O2 0.654303 0.589595 0.435362
O O3 0.716113 0.479082 0.464756
O O4 0.975379 0.559197 0.480914
O O5 0.500000 0.474254 0.750000
O O6 0.752946 0.539091 0.673660
O O7 0.750616 0.429829 0.632593
O O8 0.968493 0.809241 0.938310
O O9 0.975678 0.710117 0.881053
O O10 0.627725 0.721091 0.859904
O O11 0.000000 0.784516 0.750000
O O12 0.689954 0.638046 0.593788
O O13 0.876892 0.678217 0.429205
O O14 0.193241 0.636683 0.724308
O O15 0.233604 0.630092 0.540248
O O16 0.210340 0.730287 0.381448
O O17 0.000000 0.099627 0.750000
O O18 0.500000 0.801441 0.750000
#
# Coordination Sequence:
#
# PCOD9458548 Si02
#       8
#     8   8   8   8   8   8   8   8
#     4  11  25  51  82 128 171 233 288 369 447 550
#     4  11  25  50  82 124 182 229 290 364 445 547
#     4  11  25  55  94 129 172 235 303 373 463 544
#     4  11  26  53  90 130 183 235 297 378 461 536
#     4  11  25  52  91 126 177 235 299 371 448 532
#     4  11  25  50  86 128 179 237 300 376 445 545
#     4  11  24  56  92 130 177 230 304 382 453 547
#     4  11  25  51  84 127 177 230 298 358 455 540
#
# _framework density 27.251747999999999
#
# number of rings (size 3 to 8) (size 9 to 14) (size 15 to 20)
#    0.000    1.000    5.000    0.750    0.000    4.000 
#    6.750   17.500    0.000    0.000    0.000    0.000 
#    0.000    0.000    0.000    0.000    0.000    0.000 
#
# Total GULP energy -359350.268192 kJ/mol
# GULP energy per Si atom -5614.847940 kJ/mol
# Density = 2.718972 g / cm^3
# Si number density = 27.251748 Si / 1000 Ang^3
#
#
#
# Elastic Constant Matrix: (Units=GPa)
#
#
# Indices 1 2 3 4 5 6 
#
# 1 165.1661 44.3096 45.1058 0.0000 0.0000 0.0000
# 2 44.3096 112.8361 66.9395 0.0000 0.0000 0.0000
# 3 45.1058 66.9395 225.0955 0.0000 0.0000 0.0000
# 4 0.0000 0.0000 0.0000 63.1077 0.0000 0.0000
# 5 0.0000 0.0000 0.0000 0.0000 41.3520 0.0000
# 6 0.0000 0.0000 0.0000 0.0000 0.0000 28.0308
#
#
#
# Elastic Compliance Matrix: (Units=1/GPa)
#
#
# Indices 1 2 3 4 5 6 
#
# 1 0.006856 -0.002279 -0.000696 0.000000 0.000000 0.000000
# 2 -0.002279 0.011519 -0.002969 0.000000 0.000000 0.000000
# 3 -0.000696 -0.002969 0.005465 0.000000 0.000000 0.000000
# 4 0.000000 0.000000 0.000000 0.015846 0.000000 0.000000
# 5 0.000000 0.000000 0.000000 0.000000 0.024183 0.000000
# 6 0.000000 0.000000 0.000000 0.000000 0.000000 0.035675
#
#
# Mechanical properties :
#
#
# Convention : Reuss Voigt Hill
#
# Bulk Modulus (GPa) = 83.67212 90.64527 87.15870
# Shear Modulus (GPa) = 43.32182 49.61430 46.46806
#
# Velocity S-wave (km/s) = 3.99142 4.27147 4.13381
# Velocity P-wave (km/s) = 7.21193 7.59353 7.40519
#
# Compressibility (1/GPa) = 0.01195141
#
# Stress axis : x y z
#
# Youngs Moduli (GPa) = 145.85571 86.81554 182.98717
#
# Poissons Ratio (x) = 0.19789 0.12736
# Poissons Ratio (y) = 0.33247 0.54323
# Poissons Ratio (z) = 0.10152 0.25773
#
# Static dielectric constant tensor:
#      x y z
#    x 2.233190 0.000000 0.000000 
#    y 0.000000 2.091740 0.000000 
#    z 0.000000 0.000000 2.105360 
# 
# From -- ./inp_files/10382.got.cif
#   From: 2010.05.17/outbox.cif.g08.bks.cpg/sg60_6_cif.got.tgz:10382.got - 2010.06.03 14:59:27.
