data_PCOD9458323
_publ_section_title
;
Structure prediction by ZEFSAII (Michael W. Deem and Ramdas Pophale) SiO2 
 PCOD9458323
Probable space group: P B C N
;
_chemical_formula_sum "Si O2"
_cell_formula_units_Z 32
_cell_length_a 16.007095
_cell_length_b 9.448019
_cell_length_c 8.165495
_cell_angle_alpha 90.000000
_cell_angle_beta 90.000000
_cell_angle_gamma 90.000000
_cell_volume 1234.911394
_symmetry_space_group_name_H-M "P B C N"
_symmetry_group_IT_number 60
_symmetry_cell_setting 'orthorhombic'
loop_
_space_group_symop_operation_xyz
x,y,z
1/2-x,1/2-y,1/2+z
1/2+x,1/2-y,-z
-x,y,1/2-z
-x,-y,-z
1/2+x,1/2+y,1/2-z
1/2-x,1/2+y,z
x,-y,1/2+z
loop_
_atom_site_type_symbol
_atom_site_label
_atom_site_fract_x
_atom_site_fract_y
_atom_site_fract_z
Si Si1 0.000000 0.607794 0.250000
Si Si2 0.263677 0.812592 0.283454
Si Si3 0.000000 0.915806 0.750000
Si Si4 0.326427 0.938529 0.597453
Si Si5 0.590865 0.346100 0.046262
O O1 0.921651 0.538401 0.341458
O O2 0.953539 0.711256 0.123484
O O3 0.331583 0.855909 0.423069
O O4 0.229794 0.662568 0.216499
O O5 0.183736 0.860623 0.390125
O O6 0.282640 0.909065 0.123321
O O7 0.070609 0.837969 0.645241
O O8 0.951028 0.016116 0.626044
#
# Coordination Sequence:
#
# PCOD9458323 Si02
#       5
#     4   8   4   8   8
#     4   9  22  40  58  85 124 163 202 251 310 371
#     4  11  23  40  64  91 124 165 212 261 312 371
#     4   9  16  28  54  83 118 155 200 253 304 357
#     4  11  24  43  66  93 127 167 211 259 313 373
#     4   9  18  33  54  85 118 155 202 255 306 361
#
# _framework density 25.912790000000001
#
# number of rings (size 3 to 8) (size 9 to 14) (size 15 to 20)
#    0.000    2.000    0.000    3.000    0.000   11.000 
#    0.000    0.000    0.000    7.500    0.000    0.000 
#    0.000    0.000    0.000    0.000    0.000    0.000 
#
# Total GULP energy -178692.791908 kJ/mol
# GULP energy per Si atom -5584.149747 kJ/mol
# Density = 2.585381 g / cm^3
# Si number density = 25.912790 Si / 1000 Ang^3
#
#
#
# Elastic Constant Matrix: (Units=GPa)
#
#
# Indices 1 2 3 4 5 6 
#
# 1 93.8110 13.1400 4.7296 0.0000 0.0000 0.0000
# 2 13.1400 72.8281 8.9430 0.0000 0.0000 0.0000
# 3 4.7296 8.9430 117.1038 0.0000 0.0000 0.0000
# 4 0.0000 0.0000 0.0000 41.4993 0.0000 0.0000
# 5 0.0000 0.0000 0.0000 0.0000 39.5792 0.0000
# 6 0.0000 0.0000 0.0000 0.0000 0.0000 20.9637
#
#
#
# Elastic Compliance Matrix: (Units=1/GPa)
#
#
# Indices 1 2 3 4 5 6 
#
# 1 0.010946 -0.001939 -0.000294 0.000000 0.000000 0.000000
# 2 -0.001939 0.014204 -0.001006 0.000000 0.000000 0.000000
# 3 -0.000294 -0.001006 0.008628 0.000000 0.000000 0.000000
# 4 0.000000 0.000000 0.000000 0.024097 0.000000 0.000000
# 5 0.000000 0.000000 0.000000 0.000000 0.025266 0.000000
# 6 0.000000 0.000000 0.000000 0.000000 0.000000 0.047702
#
#
# Mechanical properties :
#
#
# Convention : Reuss Voigt Hill
#
# Bulk Modulus (GPa) = 36.63003 37.48534 37.05768
# Shear Modulus (GPa) = 34.14800 37.53713 35.84256
#
# Velocity S-wave (km/s) = 3.63410 3.81017 3.72317
# Velocity P-wave (km/s) = 5.63697 5.81841 5.72841
#
# Compressibility (1/GPa) = 0.02730001
#
# Stress axis : x y z
#
# Youngs Moduli (GPa) = 91.35650 70.40085 115.89941
#
# Poissons Ratio (x) = 0.13650 0.03408
# Poissons Ratio (y) = 0.17713 0.11665
# Poissons Ratio (z) = 0.02686 0.07086
#
# Static dielectric constant tensor:
#      x y z
#    x 2.099530 0.000000 0.000000 
#    y 0.000000 1.990690 0.000000 
#    z 0.000000 0.000000 2.145850 
# 
# From -- ./inp_files/5488.got.cif
#   From: 2010.05.17/outbox.cif.g08.bks.cpg/sg60_3_cif.got.tgz:5488.got - 2010.06.03 14:59:27.
