data_PCOD9458497
_publ_section_title
;
Structure prediction by ZEFSAII (Michael W. Deem and Ramdas Pophale) SiO2 
 PCOD9458497
Probable space group: P B C N
;
_chemical_formula_sum "Si O2"
_cell_formula_units_Z 64
_cell_length_a 14.814561
_cell_length_b 17.667364
_cell_length_c 11.288098
_cell_angle_alpha 90.000000
_cell_angle_beta 90.000000
_cell_angle_gamma 90.000000
_cell_volume 2954.481770
_symmetry_space_group_name_H-M "P B C N"
_symmetry_group_IT_number 60
_symmetry_cell_setting 'orthorhombic'
loop_
_space_group_symop_operation_xyz
x,y,z
1/2-x,1/2-y,1/2+z
1/2+x,1/2-y,-z
-x,y,1/2-z
-x,-y,-z
1/2+x,1/2+y,1/2-z
1/2-x,1/2+y,z
x,-y,1/2+z
loop_
_atom_site_type_symbol
_atom_site_label
_atom_site_fract_x
_atom_site_fract_y
_atom_site_fract_z
Si Si1 0.305722 0.750000 0.250000
Si Si2 0.063694 0.144384 0.365008
Si Si3 0.176492 0.331741 0.606381
Si Si4 0.193947 0.498185 0.123814
Si Si5 1.000000 0.750000 0.445160
Si Si6 0.676492 0.331741 0.106382
Si Si7 0.806053 0.998185 0.623815
Si Si8 0.563694 0.855617 0.365008
O O1 0.370478 0.716490 0.348561
O O2 0.242036 0.681397 0.216952
O O3 0.242035 0.818603 0.283047
O O4 0.370478 0.783511 0.151440
O O5 0.010636 0.172495 0.479067
O O6 0.000000 0.140778 0.250000
O O7 0.120617 0.068420 0.372884
O O8 0.148728 0.419105 0.608588
O O9 0.095338 0.271364 0.614716
O O10 0.250001 0.320024 0.500000
O O11 0.250000 0.500000 0.250000
O O12 0.120617 0.431581 0.127116
O O13 0.250000 0.487572 1.000000
O O14 0.095337 0.771364 0.385283
O O15 0.010636 0.672495 0.520933
O O16 0.648727 0.419105 0.108589
O O17 0.500000 0.859223 0.250000
#
# Coordination Sequence:
#
# PCOD9458497 Si02
#       8
#     8   8   8   8   8   8   8   8
#     4  12  21  43  74  96 134 194 238 296 356 440
#     4  12  23  44  72 103 140 192 250 290 364 448
#     4  11  24  45  69 101 144 182 241 303 360 427
#     4  11  27  48  73 104 146 198 242 300 378 436
#     4  12  25  41  72 108 134 194 245 303 358 434
#     4  11  24  45  69 101 144 182 241 303 360 427
#     4  11  27  48  73 104 146 198 242 300 378 436
#     4  12  23  44  72 103 140 192 250 290 364 448
#
# _framework density 21.662006000000002
#
# number of rings (size 3 to 8) (size 9 to 14) (size 15 to 20)
#    0.000    0.500    7.500    0.000    7.000    1.500 
#    4.500    0.000    0.000    0.000    0.000    0.000 
#    0.000    0.000    0.000    0.000    0.000    0.000 
#
# Total GULP energy -356525.688377 kJ/mol
# GULP energy per Si atom -5570.713881 kJ/mol
# Density = 2.161270 g / cm^3
# Si number density = 21.662006 Si / 1000 Ang^3
#
#
#
# Elastic Constant Matrix: (Units=GPa)
#
#
# Indices 1 2 3 4 5 6 
#
# 1 86.2553 51.7664 40.0664 0.0000 0.0000 0.0000
# 2 51.7664 133.1791 18.2449 0.0000 0.0000 0.0000
# 3 40.0664 18.2449 90.9554 0.0000 0.0000 0.0000
# 4 0.0000 0.0000 0.0000 9.9743 0.0000 0.0000
# 5 0.0000 0.0000 0.0000 0.0000 27.5188 0.0000
# 6 0.0000 0.0000 0.0000 0.0000 0.0000 32.9378
#
#
#
# Elastic Compliance Matrix: (Units=1/GPa)
#
#
# Indices 1 2 3 4 5 6 
#
# 1 0.018573 -0.006271 -0.006924 0.000000 0.000000 0.000000
# 2 -0.006271 0.009838 0.000789 0.000000 0.000000 0.000000
# 3 -0.006924 0.000789 0.013886 0.000000 0.000000 0.000000
# 4 0.000000 0.000000 0.000000 0.100258 0.000000 0.000000
# 5 0.000000 0.000000 0.000000 0.000000 0.036339 0.000000
# 6 0.000000 0.000000 0.000000 0.000000 0.000000 0.030360
#
#
# Mechanical properties :
#
#
# Convention : Reuss Voigt Hill
#
# Bulk Modulus (GPa) = 57.18852 58.94946 58.06899
# Shear Modulus (GPa) = 20.84257 27.44033 24.14145
#
# Velocity S-wave (km/s) = 3.10525 3.56300 3.34198
# Velocity P-wave (km/s) = 6.27013 6.64824 6.46195
#
# Compressibility (1/GPa) = 0.01748603
#
# Stress axis : x y z
#
# Youngs Moduli (GPa) = 53.84164 101.64620 72.01472
#
# Poissons Ratio (x) = 0.63740 0.49860
# Poissons Ratio (y) = 0.33763 -0.05681
# Poissons Ratio (z) = 0.37278 -0.08019
#
# Static dielectric constant tensor:
#      x y z
#    x 1.752100 0.000000 0.000000 
#    y 0.000000 1.740560 0.000000 
#    z 0.000000 0.000000 1.887040 
# 
# From -- ./inp_files/12119.got.cif
#   From: 2010.05.17/outbox.cif.g08.bks.cpg/sg60_7_cif.got.tgz:12119.got - 2010.06.03 14:59:27.
