data_PCOD9458728
_publ_section_title
;
Structure prediction by ZEFSAII (Michael W. Deem and Ramdas Pophale) SiO2 
 PCOD9458728
Probable space group: P B C N
;
_chemical_formula_sum "Si O2"
_cell_formula_units_Z 32
_cell_length_a 11.725943
_cell_length_b 22.779051
_cell_length_c 4.963055
_cell_angle_alpha 90.000000
_cell_angle_beta 90.000000
_cell_angle_gamma 90.000000
_cell_volume 1325.661042
_symmetry_space_group_name_H-M "P B C N"
_symmetry_group_IT_number 60
_symmetry_cell_setting 'orthorhombic'
loop_
_space_group_symop_operation_xyz
x,y,z
1/2-x,1/2-y,1/2+z
1/2+x,1/2-y,-z
-x,y,1/2-z
-x,-y,-z
1/2+x,1/2+y,1/2-z
1/2-x,1/2+y,z
x,-y,1/2+z
loop_
_atom_site_type_symbol
_atom_site_label
_atom_site_fract_x
_atom_site_fract_y
_atom_site_fract_z
Si Si1 0.677723 0.750229 0.732024
Si Si2 0.000000 0.425362 0.250000
Si Si3 0.577955 0.366994 0.485657
Si Si4 0.246815 0.464520 0.114011
Si Si5 0.500000 0.847556 0.750000
O O1 0.734673 0.727243 0.459216
O O2 0.613089 0.697780 0.884636
O O3 0.598106 0.803975 0.649895
O O4 0.890483 0.458076 0.372203
O O5 0.042379 0.385908 0.499969
O O6 0.500000 0.393795 0.250000
O O7 0.691596 0.406385 0.493712
O O8 0.500000 0.364738 0.750000
O O9 0.280075 0.483090 0.413875
#
# Coordination Sequence:
#
# PCOD9458728 Si02
#       5
#     8   4   8   8   4
#     4  12  25  43  69 102 142 186 232 286 351 434
#     4  12  26  47  72 106 140 179 246 304 362 436
#     4  12  26  45  70 103 148 186 238 296 354 435
#     4  12  26  47  73 102 138 190 243 305 364 415
#     4  12  24  43  70 104 138 183 226 280 370 424
#
# _framework density 24.138902000000002
#
# number of rings (size 3 to 8) (size 9 to 14) (size 15 to 20)
#    0.000    0.000    1.250    9.750    1.750    3.000 
#    0.000    0.000    0.000    0.000    0.000    0.000 
#    0.000    0.000    0.000    0.000    0.000    0.000 
#
# Total GULP energy -179255.345698 kJ/mol
# GULP energy per Si atom -5601.729553 kJ/mol
# Density = 2.408396 g / cm^3
# Si number density = 24.138902 Si / 1000 Ang^3
#
#
#
# Elastic Constant Matrix: (Units=GPa)
#
#
# Indices 1 2 3 4 5 6 
#
# 1 77.7249 19.9136 25.2415 0.0000 0.0000 0.0000
# 2 19.9136 74.5123 10.2645 0.0000 0.0000 0.0000
# 3 25.2415 10.2645 77.0932 0.0000 0.0000 0.0000
# 4 0.0000 0.0000 0.0000 9.7703 0.0000 0.0000
# 5 0.0000 0.0000 0.0000 0.0000 46.1429 0.0000
# 6 0.0000 0.0000 0.0000 0.0000 0.0000 34.0602
#
#
#
# Elastic Compliance Matrix: (Units=1/GPa)
#
#
# Indices 1 2 3 4 5 6 
#
# 1 0.015217 -0.003444 -0.004524 0.000000 0.000000 0.000000
# 2 -0.003444 0.014451 -0.000796 0.000000 0.000000 0.000000
# 3 -0.004524 -0.000796 0.014559 0.000000 0.000000 0.000000
# 4 0.000000 0.000000 0.000000 0.102351 0.000000 0.000000
# 5 0.000000 0.000000 0.000000 0.000000 0.021672 0.000000
# 6 0.000000 0.000000 0.000000 0.000000 0.000000 0.029360
#
#
# Mechanical properties :
#
#
# Convention : Reuss Voigt Hill
#
# Bulk Modulus (GPa) = 37.45542 37.79662 37.62602
# Shear Modulus (GPa) = 22.31774 29.58873 25.95323
#
# Velocity S-wave (km/s) = 3.04395 3.50490 3.28252
# Velocity P-wave (km/s) = 5.28247 5.66313 5.47611
#
# Compressibility (1/GPa) = 0.02669841
#
# Stress axis : x y z
#
# Youngs Moduli (GPa) = 65.71449 69.20101 68.68814
#
# Poissons Ratio (x) = 0.23831 0.31074
# Poissons Ratio (y) = 0.22630 0.05471
# Poissons Ratio (z) = 0.29729 0.05512
#
# Static dielectric constant tensor:
#      x y z
#    x 2.010830 0.000000 0.000000 
#    y 0.000000 1.865280 0.000000 
#    z 0.000000 0.000000 1.853880 
# 
# From -- ./inp_files/663.got.cif
#   From: 2010.05.17/outbox.cif.g08.bks.cpg/sg60_1_cif.got.tgz:663.got - 2010.06.03 14:59:27.
