data_PCOD9458503
_publ_section_title
;
Structure prediction by ZEFSAII (Michael W. Deem and Ramdas Pophale) SiO2 
 PCOD9458503
Probable space group: P B C N
;
_chemical_formula_sum "Si O2"
_cell_formula_units_Z 40
_cell_length_a 5.901940
_cell_length_b 24.871886
_cell_length_c 11.552996
_cell_angle_alpha 90.000000
_cell_angle_beta 90.000000
_cell_angle_gamma 90.000000
_cell_volume 1695.891766
_symmetry_space_group_name_H-M "P B C N"
_symmetry_group_IT_number 60
_symmetry_cell_setting 'orthorhombic'
loop_
_space_group_symop_operation_xyz
x,y,z
1/2-x,1/2-y,1/2+z
1/2+x,1/2-y,-z
-x,y,1/2-z
-x,-y,-z
1/2+x,1/2+y,1/2-z
1/2-x,1/2+y,z
x,-y,1/2+z
loop_
_atom_site_type_symbol
_atom_site_label
_atom_site_fract_x
_atom_site_fract_y
_atom_site_fract_z
Si Si1 0.390839 0.663756 0.625137
Si Si2 0.219379 0.128014 0.052209
Si Si3 0.746763 0.771993 0.807156
Si Si4 0.394450 0.517265 0.124993
Si Si5 0.439700 0.928869 0.119072
O O1 0.500000 0.652664 0.750000
O O2 0.581688 0.668829 0.529491
O O3 0.226755 0.715259 0.623809
O O4 0.270387 0.608833 0.588331
O O5 0.323583 0.171337 0.137220
O O6 0.096510 0.081615 0.124570
O O7 0.368657 0.091295 0.966761
O O8 0.500000 0.757580 0.750000
O O9 0.000000 0.779597 0.750000
O O10 0.500000 0.498328 0.250000
O O11 0.144886 0.490058 0.120445
O O12 0.500000 0.500000 0.000000
O O13 0.500000 0.914087 0.250000
#
# Coordination Sequence:
#
# PCOD9458503 Si02
#       5
#     8   8   8   8   8
#     4  11  24  45  73 104 150 196 260 321 394 476
#     4  12  27  44  77 110 150 203 262 330 403 480
#     4  11  29  49  74 111 161 208 262 329 404 481
#     4  12  26  49  76 110 157 207 259 333 409 483
#     4  12  24  44  74 108 144 200 264 323 405 480
#
# _framework density 23.586409
#
# number of rings (size 3 to 8) (size 9 to 14) (size 15 to 20)
#    0.000    0.400    4.000    3.600    8.400    2.400 
#    0.000    0.000    0.000    0.000    0.000    0.000 
#    0.000    0.000    0.000    0.000    0.000    0.000 
#
# Total GULP energy -222726.832985 kJ/mol
# GULP energy per Si atom -5568.170825 kJ/mol
# Density = 2.353272 g / cm^3
# Si number density = 23.586409 Si / 1000 Ang^3
#
#
#
# Elastic Constant Matrix: (Units=GPa)
#
#
# Indices 1 2 3 4 5 6 
#
# 1 65.0854 -4.5832 34.8057 0.0000 0.0000 0.0000
# 2 -4.5832 112.1202 19.3604 0.0000 0.0000 0.0000
# 3 34.8057 19.3604 95.0529 0.0000 0.0000 0.0000
# 4 0.0000 0.0000 0.0000-1767.6297 0.0000 0.0000
# 5 0.0000 0.0000 0.0000 0.0000 27.1449 0.0000
# 6 0.0000 0.0000 0.0000 0.0000 0.0000 42.1680
#
#
#
# Elastic Compliance Matrix: (Units=1/GPa)
#
#
# Indices 1 2 3 4 5 6 
#
# 1 0.019577 0.002112 -0.007599 0.000000 0.000000 0.000000
# 2 0.002112 0.009472 -0.002703 0.000000 0.000000 0.000000
# 3 -0.007599 -0.002703 0.013853 0.000000 0.000000 0.000000
# 4 0.000000 0.000000 0.000000 -0.000566 0.000000 0.000000
# 5 0.000000 0.000000 0.000000 0.000000 0.036839 0.000000
# 6 0.000000 0.000000 0.000000 0.000000 0.000000 0.023715
#
#
# Mechanical properties :
#
#
# Convention : Reuss Voigt Hill
#
# Bulk Modulus (GPa) = 37.70173 41.26936 39.48555
# Shear Modulus (GPa) = 39.02897 -324.81832 -142.89468
#
# Velocity S-wave (km/s) = 4.07224 -11.74790 -7.79198
# Velocity P-wave (km/s) = 6.17496 12.90281 8.01100
#
# Compressibility (1/GPa) = 0.02652398
#
# Stress axis : x y z
#
# Youngs Moduli (GPa) = 51.08105 105.57383 72.18453
#
# Poissons Ratio (x) = -0.22301 0.54851
# Poissons Ratio (y) = -0.10790 0.19510
# Poissons Ratio (z) = 0.38815 0.28534
#
# Static dielectric constant tensor:
#      x y z
#    x 5.008320 0.000000 0.000000 
#    y 0.000000 1.848040 0.000000 
#    z 0.000000 0.000000 1.975510 
# 
# From -- ./inp_files/9051.got.cif
#   From: 2010.05.17/outbox.cif.g08.bks.cpg/sg60_5_cif.got.tgz:9051.got - 2010.06.03 14:59:27.
