data_PCOD9458876
_publ_section_title
;
Structure prediction by ZEFSAII (Michael W. Deem and Ramdas Pophale) SiO2 
 PCOD9458876
Probable space group: P B C N
;
_chemical_formula_sum "Si O2"
_cell_formula_units_Z 60
_cell_length_a 6.000000
_cell_length_b 18.000000
_cell_length_c 30.000000
_cell_angle_alpha 90.000000
_cell_angle_beta 90.000000
_cell_angle_gamma 90.000000
_cell_volume 3240.000000
_symmetry_space_group_name_H-M "P B C N"
_symmetry_group_IT_number 60
_symmetry_cell_setting 'orthorhombic'
loop_
_space_group_symop_operation_xyz
x,y,z
1/2-x,1/2-y,1/2+z
1/2+x,1/2-y,-z
-x,y,1/2-z
-x,-y,-z
1/2+x,1/2+y,1/2-z
1/2-x,1/2+y,z
x,-y,1/2+z
loop_
_atom_site_type_symbol
_atom_site_label
_atom_site_fract_x
_atom_site_fract_y
_atom_site_fract_z
Si Si1 0.291580 0.754600 0.330346
Si Si2 0.667097 0.631660 0.318932
Si Si3 0.083942 0.002824 0.620621
Si Si4 0.390136 0.143187 0.618694
Si Si5 0.153496 0.583011 0.042751
Si Si6 0.578744 0.784828 0.896503
Si Si7 0.000000 0.699921 0.250000
Si Si8 0.311258 0.047945 0.943901
O O1 0.459633 0.687642 0.319450
O O2 0.444655 0.826022 0.342485
O O3 0.159799 0.738793 0.376595
O O4 0.117897 0.750814 0.288644
O O5 0.580225 0.551422 0.336181
O O6 0.828578 0.660238 0.358275
O O7 0.814236 0.647857 0.274597
O O8 0.234473 0.074132 0.632762
O O9 0.861862 0.032820 0.596248
O O10 0.188694 0.954453 0.579973
O O11 0.236633 0.212588 0.603833
O O12 0.523996 0.109482 0.576853
O O13 0.091013 0.666088 0.058807
O O14 0.936026 0.529966 0.045738
O O15 0.258355 0.576720 0.993174
#
# Coordination Sequence:
#
# PCOD9458876 Si02
#       8
#     8   8   8   8   8   8   4   8
#     4  10  19  36  60  84 112 147 193 235 292 349
#     4   9  19  34  60  85 106 142 190 235 286 340
#     4  10  19  35  58  80 114 156 191 237 290 345
#     4  10  21  35  51  81 118 153 189 229 293 350
#     4   9  19  34  55  82 109 150 205 242 282 331
#     4   9  18  35  53  79 110 150 190 237 283 340
#     4  10  20  36  62  90 110 138 188 252 280 348
#     4  10  19  34  54  82 114 155 196 242 284 337
#
# _framework density 18.518519000000001
#
# number of rings (size 3 to 8) (size 9 to 14) (size 15 to 20)
#    0.000    2.400    0.000    2.400    0.000    1.067 
#    4.800    0.000   11.733    0.000    0.000    0.000 
#    0.000    0.000    0.000    0.000    0.000    0.000 
#
# Total GULP energy -334066.166743 kJ/mol
# GULP energy per Si atom -5567.769446 kJ/mol
# Density = 1.847637 g / cm^3
# Si number density = 18.518519 Si / 1000 Ang^3
#
#
#
# Elastic Constant Matrix: (Units=GPa)
#
#
# Indices 1 2 3 4 5 6 
#
# 1 70.4421 25.7549 20.6221 0.0000 0.0000 0.0000
# 2 25.7549 98.4406 41.5181 0.0000 0.0000 0.0000
# 3 20.6221 41.5181 74.7732 0.0000 0.0000 0.0000
# 4 0.0000 0.0000 0.0000 17.4109 0.0000 0.0000
# 5 0.0000 0.0000 0.0000 0.0000 26.7857 0.0000
# 6 0.0000 0.0000 0.0000 0.0000 0.0000 11.2787
#
#
#
# Elastic Compliance Matrix: (Units=1/GPa)
#
#
# Indices 1 2 3 4 5 6 
#
# 1 0.016119 -0.003058 -0.002747 0.000000 0.000000 0.000000
# 2 -0.003058 0.013845 -0.006844 0.000000 0.000000 0.000000
# 3 -0.002747 -0.006844 0.017932 0.000000 0.000000 0.000000
# 4 0.000000 0.000000 0.000000 0.057435 0.000000 0.000000
# 5 0.000000 0.000000 0.000000 0.000000 0.037333 0.000000
# 6 0.000000 0.000000 0.000000 0.000000 0.000000 0.088662
#
#
# Mechanical properties :
#
#
# Convention : Reuss Voigt Hill
#
# Bulk Modulus (GPa) = 44.25582 46.60513 45.43047
# Shear Modulus (GPa) = 18.92809 21.47912 20.20361
#
# Velocity S-wave (km/s) = 3.20052 3.40939 3.30660
# Velocity P-wave (km/s) = 6.13252 6.38122 6.25811
#
# Compressibility (1/GPa) = 0.02259590
#
# Stress axis : x y z
#
# Youngs Moduli (GPa) = 62.04046 72.22766 55.76744
#
# Poissons Ratio (x) = 0.22090 0.15320
# Poissons Ratio (y) = 0.18975 0.38168
# Poissons Ratio (z) = 0.17044 0.49433
#
# Static dielectric constant tensor:
#      x y z
#    x 1.703090 0.000000 0.000000 
#    y 0.000000 1.630690 0.000000 
#    z 0.000000 0.000000 1.647270 
# 
# From -- ./inp_files/25779.got.cif
#   From: 2010.05.17/outbox.ucp.g08.bks.cvg/sg60_13_cif.got.tgz:25779.got - 2010.06.11 16:26:41.
