data_PCOD9458759
_publ_section_title
;
Structure prediction by ZEFSAII (Michael W. Deem and Ramdas Pophale) SiO2 
 PCOD9458759
Probable space group: P B C N
;
_chemical_formula_sum "Si O2"
_cell_formula_units_Z 40
_cell_length_a 11.300141
_cell_length_b 8.927121
_cell_length_c 16.174768
_cell_angle_alpha 90.000000
_cell_angle_beta 90.000000
_cell_angle_gamma 90.000000
_cell_volume 1631.673815
_symmetry_space_group_name_H-M "P B C N"
_symmetry_group_IT_number 60
_symmetry_cell_setting 'orthorhombic'
loop_
_space_group_symop_operation_xyz
x,y,z
1/2-x,1/2-y,1/2+z
1/2+x,1/2-y,-z
-x,y,1/2-z
-x,-y,-z
1/2+x,1/2+y,1/2-z
1/2-x,1/2+y,z
x,-y,1/2+z
loop_
_atom_site_type_symbol
_atom_site_label
_atom_site_fract_x
_atom_site_fract_y
_atom_site_fract_z
Si Si1 0.477063 0.853058 0.444947
Si Si2 0.807322 0.792632 0.899941
Si Si3 0.647537 0.408720 0.494340
Si Si4 0.860733 0.647960 0.251053
Si Si5 0.268373 0.585311 0.852610
O O1 0.577441 0.805808 0.378981
O O2 0.461030 0.706938 0.503685
O O3 0.353565 0.873657 0.398636
O O4 0.500000 0.000000 0.500000
O O5 0.698451 0.797167 0.836565
O O6 0.842823 0.960134 0.926689
O O7 0.759716 0.698565 0.978225
O O8 0.657636 0.485989 0.583312
O O9 0.839631 0.775317 0.182242
O O10 0.776752 0.512283 0.224149
O O11 0.000000 0.612709 0.250000
#
# Coordination Sequence:
#
# PCOD9458759 Si02
#       5
#     8   8   8   8   8
#     4  12  26  47  82 113 154 198 264 332 383 465
#     4  12  26  47  75 118 152 203 261 311 398 461
#     4  12  24  48  78 114 149 197 262 319 382 473
#     4  12  31  50  75 109 162 204 254 324 393 468
#     4  12  26  52  74 111 151 202 259 315 392 462
#
# _framework density 24.514703000000001
#
# number of rings (size 3 to 8) (size 9 to 14) (size 15 to 20)
#    0.000    0.000    6.000    1.800    8.400    3.200 
#    0.000    0.000    0.000    0.000    0.000    0.000 
#    0.000    0.000    0.000    0.000    0.000    0.000 
#
# Total GULP energy -223902.765289 kJ/mol
# GULP energy per Si atom -5597.569132 kJ/mol
# Density = 2.445891 g / cm^3
# Si number density = 24.514703 Si / 1000 Ang^3
#
#
#
# Elastic Constant Matrix: (Units=GPa)
#
#
# Indices 1 2 3 4 5 6 
#
# 1 87.0243 30.8227 14.9993 0.0000 0.0000 0.0000
# 2 30.8227 93.8650 17.5416 0.0000 0.0000 0.0000
# 3 14.9993 17.5416 64.1576 0.0000 0.0000 0.0000
# 4 0.0000 0.0000 0.0000 46.0889 0.0000 0.0000
# 5 0.0000 0.0000 0.0000 0.0000 41.2053 0.0000
# 6 0.0000 0.0000 0.0000 0.0000 0.0000 49.4850
#
#
#
# Elastic Compliance Matrix: (Units=1/GPa)
#
#
# Indices 1 2 3 4 5 6 
#
# 1 0.013245 -0.003974 -0.002010 0.000000 0.000000 0.000000
# 2 -0.003974 0.012419 -0.002467 0.000000 0.000000 0.000000
# 3 -0.002010 -0.002467 0.016731 0.000000 0.000000 0.000000
# 4 0.000000 0.000000 0.000000 0.021697 0.000000 0.000000
# 5 0.000000 0.000000 0.000000 0.000000 0.024269 0.000000
# 6 0.000000 0.000000 0.000000 0.000000 0.000000 0.020208
#
#
# Mechanical properties :
#
#
# Convention : Reuss Voigt Hill
#
# Bulk Modulus (GPa) = 39.22403 41.30825 40.26614
# Shear Modulus (GPa) = 37.32229 39.46805 38.39517
#
# Velocity S-wave (km/s) = 3.90609 4.01680 3.96183
# Velocity P-wave (km/s) = 6.03144 6.19677 6.11466
#
# Compressibility (1/GPa) = 0.02549457
#
# Stress axis : x y z
#
# Youngs Moduli (GPa) = 75.50080 80.51925 59.76943
#
# Poissons Ratio (x) = 0.31995 0.12014
# Poissons Ratio (y) = 0.30001 0.14743
# Poissons Ratio (z) = 0.15176 0.19861
#
# Static dielectric constant tensor:
#      x y z
#    x 2.014350 0.000000 0.000000 
#    y 0.000000 2.003940 0.000000 
#    z 0.000000 0.000000 2.004010 
# 
# From -- ./inp_files/19866.got.cif
#   From: 2010.05.17/outbox.cif.g08.bks.cpg/sg60_10_cif.got.tgz:19866.got - 2010.06.03 14:59:27.
