data_PCOD9458677
_publ_section_title
;
Structure prediction by ZEFSAII (Michael W. Deem and Ramdas Pophale) SiO2 
 PCOD9458677
Probable space group: P B C N
;
_chemical_formula_sum "Si O2"
_cell_formula_units_Z 32
_cell_length_a 4.899103
_cell_length_b 21.983755
_cell_length_c 13.256490
_cell_angle_alpha 90.000000
_cell_angle_beta 90.000000
_cell_angle_gamma 90.000000
_cell_volume 1427.732988
_symmetry_space_group_name_H-M "P B C N"
_symmetry_group_IT_number 60
_symmetry_cell_setting 'orthorhombic'
loop_
_space_group_symop_operation_xyz
x,y,z
1/2-x,1/2-y,1/2+z
1/2+x,1/2-y,-z
-x,y,1/2-z
-x,-y,-z
1/2+x,1/2+y,1/2-z
1/2-x,1/2+y,z
x,-y,1/2+z
loop_
_atom_site_type_symbol
_atom_site_label
_atom_site_fract_x
_atom_site_fract_y
_atom_site_fract_z
Si Si1 0.191945 0.258243 0.432973
Si Si2 0.757907 0.639896 0.179219
Si Si3 0.636634 0.564141 0.977171
Si Si4 0.126020 0.392561 0.359731
O O1 0.426474 0.271125 0.514923
O O2 0.322322 0.207905 0.359999
O O3 0.094931 0.320841 0.383689
O O4 0.500000 0.644866 0.250000
O O5 0.674652 0.600669 0.081768
O O6 0.000000 0.615226 0.250000
O O7 0.500000 0.500000 0.000000
O O8 0.938683 0.566170 0.931677
O O9 0.437689 0.593909 0.891958
O O10 0.000000 0.403685 0.250000
#
# Coordination Sequence:
#
# PCOD9458677 Si02
#       4
#     8   8   8   8
#     4  12  22  43  72 102 146 183 224 296 368 429
#     4  12  25  43  71 104 143 188 238 293 364 434
#     4  12  27  48  70 101 145 189 242 299 349 421
#     4  12  25  46  74 105 138 188 237 295 364 431
#
# _framework density 22.413152
#
# number of rings (size 3 to 8) (size 9 to 14) (size 15 to 20)
#    0.000    0.000    5.000    5.250    0.000    5.000 
#    0.000    0.000    0.000    0.000    0.000    0.000 
#    0.000    0.000    0.000    0.000    0.000    0.000 
#
# Total GULP energy -178935.277369 kJ/mol
# GULP energy per Si atom -5591.727418 kJ/mol
# Density = 2.236214 g / cm^3
# Si number density = 22.413152 Si / 1000 Ang^3
#
#
#
# Elastic Constant Matrix: (Units=GPa)
#
#
# Indices 1 2 3 4 5 6 
#
# 1 86.2300 4.8337 19.4401 0.0000 0.0000 0.0000
# 2 4.8337 94.1162 24.8748 0.0000 0.0000 0.0000
# 3 19.4401 24.8748 112.1117 0.0000 0.0000 0.0000
# 4 0.0000 0.0000 0.0000 -3.4085 0.0000 0.0000
# 5 0.0000 0.0000 0.0000 0.0000 38.4478 0.0000
# 6 0.0000 0.0000 0.0000 0.0000 0.0000 23.0390
#
#
#
# Elastic Compliance Matrix: (Units=1/GPa)
#
#
# Indices 1 2 3 4 5 6 
#
# 1 0.012069 -0.000071 -0.002077 0.000000 0.000000 0.000000
# 2 -0.000071 0.011287 -0.002492 0.000000 0.000000 0.000000
# 3 -0.002077 -0.002492 0.009833 0.000000 0.000000 0.000000
# 4 0.000000 0.000000 0.000000 -0.293387 0.000000 0.000000
# 5 0.000000 0.000000 0.000000 0.000000 0.026009 0.000000
# 6 0.000000 0.000000 0.000000 0.000000 0.000000 0.043405
#
#
# Mechanical properties :
#
#
# Convention : Reuss Voigt Hill
#
# Bulk Modulus (GPa) = 41.82483 43.41724 42.62104
# Shear Modulus (GPa) = -28.81277 27.83628 -0.48825
#
# Velocity S-wave (km/s) = -3.58932 3.52797 -0.46724
# Velocity P-wave (km/s) = 1.23440 6.00073 4.33201
#
# Compressibility (1/GPa) = 0.02390924
#
# Stress axis : x y z
#
# Youngs Moduli (GPa) = 82.85599 88.59380 101.70070
#
# Poissons Ratio (x) = 0.00628 0.21124
# Poissons Ratio (y) = 0.00587 0.25345
# Poissons Ratio (z) = 0.17210 0.22079
#
# Static dielectric constant tensor:
#      x y z
#    x 1.781370 0.000000 0.000000 
#    y 0.000000 1.880570 0.000000 
#    z 0.000000 0.000000 1.849450 
# 
# From -- ./inp_files/8906.got.cif
#   From: 2010.05.17/outbox.cif.g08.bks.cpg/sg60_5_cif.got.tgz:8906.got - 2010.06.03 14:59:27.
