data_PCOD9458045
_publ_section_title
;
Structure prediction by ZEFSAII (Michael W. Deem and Ramdas Pophale) SiO2 
 PCOD9458045
Probable space group: P B C N
;
_chemical_formula_sum "Si O2"
_cell_formula_units_Z 36
_cell_length_a 6.308637
_cell_length_b 18.839153
_cell_length_c 15.420468
_cell_angle_alpha 90.000000
_cell_angle_beta 90.000000
_cell_angle_gamma 90.000000
_cell_volume 1832.713025
_symmetry_space_group_name_H-M "P B C N"
_symmetry_group_IT_number 60
_symmetry_cell_setting 'orthorhombic'
loop_
_space_group_symop_operation_xyz
x,y,z
1/2-x,1/2-y,1/2+z
1/2+x,1/2-y,-z
-x,y,1/2-z
-x,-y,-z
1/2+x,1/2+y,1/2-z
1/2-x,1/2+y,z
x,-y,1/2+z
loop_
_atom_site_type_symbol
_atom_site_label
_atom_site_fract_x
_atom_site_fract_y
_atom_site_fract_z
Si Si1 0.592477 0.923860 0.478281
Si Si2 0.706248 0.320260 0.033449
Si Si3 0.138102 0.134509 0.669771
Si Si4 0.141206 0.825818 0.910658
Si Si5 0.500000 0.762047 0.250000
O O1 0.403155 0.871214 0.451430
O O2 0.754273 0.920804 0.396949
O O3 0.707390 0.890182 0.563073
O O4 0.500000 0.000000 0.500000
O O5 0.536860 0.326267 0.110648
O O6 0.780651 0.239500 0.028942
O O7 0.592240 0.343551 0.945300
O O8 0.321795 0.187691 0.704946
O O9 0.000000 0.104941 0.750000
O O10 0.118956 0.789710 0.817705
#
# Coordination Sequence:
#
# PCOD9458045 Si02
#       5
#     8   8   8   8   4
#     4  11  25  43  66  95 138 179 221 276 343 416
#     4  11  20  39  68  95 120 170 224 271 329 403
#     4  11  21  37  69  98 129 170 224 273 336 398
#     4  11  21  36  68  98 127 168 223 275 329 403
#     4  12  22  38  66 104 132 162 224 292 330 388
#
# _framework density 19.643007999999998
#
# number of rings (size 3 to 8) (size 9 to 14) (size 15 to 20)
#    0.000    0.889    6.667    1.333    0.000    3.556 
#    0.000    0.000   24.444    0.000    0.000    0.000 
#    0.000    0.000    0.000    0.000    0.000    0.000 
#
# Total GULP energy -200819.341743 kJ/mol
# GULP energy per Si atom -5578.315048 kJ/mol
# Density = 1.959830 g / cm^3
# Si number density = 19.643008 Si / 1000 Ang^3
#
#
#
# Elastic Constant Matrix: (Units=GPa)
#
#
# Indices 1 2 3 4 5 6 
#
# 1 93.4049 38.2311 40.9451 0.0000 0.0000 0.0000
# 2 38.2311 98.2131 34.5934 0.0000 0.0000 0.0000
# 3 40.9451 34.5934 102.0450 0.0000 0.0000 0.0000
# 4 0.0000 0.0000 0.0000 16.9009 0.0000 0.0000
# 5 0.0000 0.0000 0.0000 0.0000 37.2072 0.0000
# 6 0.0000 0.0000 0.0000 0.0000 0.0000 30.0008
#
#
#
# Elastic Compliance Matrix: (Units=1/GPa)
#
#
# Indices 1 2 3 4 5 6 
#
# 1 0.014261 -0.004015 -0.004361 0.000000 0.000000 0.000000
# 2 -0.004015 0.012693 -0.002692 0.000000 0.000000 0.000000
# 3 -0.004361 -0.002692 0.012462 0.000000 0.000000 0.000000
# 4 0.000000 0.000000 0.000000 0.059168 0.000000 0.000000
# 5 0.000000 0.000000 0.000000 0.000000 0.026877 0.000000
# 6 0.000000 0.000000 0.000000 0.000000 0.000000 0.033332
#
#
# Mechanical properties :
#
#
# Convention : Reuss Voigt Hill
#
# Bulk Modulus (GPa) = 57.87075 57.91134 57.89105
# Shear Modulus (GPa) = 26.78232 28.81468 27.79850
#
# Velocity S-wave (km/s) = 3.69650 3.83419 3.76598
# Velocity P-wave (km/s) = 6.90971 7.01051 6.96029
#
# Compressibility (1/GPa) = 0.01727989
#
# Stress axis : x y z
#
# Youngs Moduli (GPa) = 70.11982 78.78275 80.24397
#
# Poissons Ratio (x) = 0.31634 0.34995
# Poissons Ratio (y) = 0.28156 0.21600
# Poissons Ratio (z) = 0.30580 0.21207
#
# Static dielectric constant tensor:
#      x y z
#    x 1.736280 0.000000 0.000000 
#    y 0.000000 1.639580 0.000000 
#    z 0.000000 0.000000 1.771450 
# 
# From -- ./inp_files/13717.got.cif
#   From: 2010.05.17/outbox.cif.g08.bks.cpg/sg60_7_cif.got.tgz:13717.got - 2010.06.03 14:59:27.
