data_PCOD9458724
_publ_section_title
;
Structure prediction by ZEFSAII (Michael W. Deem and Ramdas Pophale) SiO2 
 PCOD9458724
Probable space group: P B C N
;
_chemical_formula_sum "Si O2"
_cell_formula_units_Z 52
_cell_length_a 10.346830
_cell_length_b 21.867592
_cell_length_c 10.301531
_cell_angle_alpha 90.000000
_cell_angle_beta 90.000000
_cell_angle_gamma 90.000000
_cell_volume 2330.827051
_symmetry_space_group_name_H-M "P B C N"
_symmetry_group_IT_number 60
_symmetry_cell_setting 'orthorhombic'
loop_
_space_group_symop_operation_xyz
x,y,z
1/2-x,1/2-y,1/2+z
1/2+x,1/2-y,-z
-x,y,1/2-z
-x,-y,-z
1/2+x,1/2+y,1/2-z
1/2-x,1/2+y,z
x,-y,1/2+z
loop_
_atom_site_type_symbol
_atom_site_label
_atom_site_fract_x
_atom_site_fract_y
_atom_site_fract_z
Si Si1 0.347961 0.221434 0.750000
Si Si2 0.499999 0.553386 0.923423
Si Si3 0.734499 0.129364 0.956492
Si Si4 0.271265 0.639574 0.250000
Si Si5 0.265502 0.870636 0.456492
Si Si6 0.000000 0.958631 0.750000
Si Si7 0.500001 0.045460 0.884505
O O1 0.500000 0.204567 0.750000
O O2 0.278642 0.191994 0.624155
O O3 0.339088 0.294276 0.750000
O O4 0.278642 0.191994 0.875846
O O5 0.500000 0.539544 0.750000
O O6 0.628757 0.595394 0.935499
O O7 0.371241 0.595393 0.935499
O O8 0.500000 0.525166 0.087431
O O9 0.626312 0.086305 0.894981
O O10 0.703682 0.136119 0.109506
O O11 0.371424 0.583642 0.250000
O O12 0.203682 0.636119 0.109506
O O13 0.373692 0.913694 0.394981
O O14 0.500000 0.010129 0.750000
O O15 0.500000 0.000000 0.000000
#
# Coordination Sequence:
#
# PCOD9458724 Si02
#       7
#     8   8   8   8   8   4   8
#     4  12  25  52  71 100 150 194 238 295 368 417
#     4  12  24  42  75 107 142 180 241 300 360 427
#     4  12  25  49  72 107 143 190 238 298 361 422
#     4  12  26  42  77 106 139 191 246 296 349 436
#     4  12  25  49  72 107 143 190 238 298 361 422
#     4  12  24  44  68 110 148 184 232 304 370 418
#     4  12  28  47  70 103 148 191 226 290 367 430
#
# _framework density 22.309678999999999
#
# number of rings (size 3 to 8) (size 9 to 14) (size 15 to 20)
#    0.000    0.000    6.923    2.769    2.154    0.000 
#    0.000    1.538    0.000    0.000    0.000    0.000 
#    0.000    0.000    0.000    0.000    0.000    0.000 
#
# Total GULP energy -290482.536562 kJ/mol
# GULP energy per Si atom -5586.202626 kJ/mol
# Density = 2.225890 g / cm^3
# Si number density = 22.309679 Si / 1000 Ang^3
#
#
#
# Elastic Constant Matrix: (Units=GPa)
#
#
# Indices 1 2 3 4 5 6 
#
# 1 120.5559 28.2932 22.5645 0.0000 0.0000 0.0000
# 2 28.2932 101.6930 54.0103 0.0000 0.0000 0.0000
# 3 22.5645 54.0103 243.6308 0.0000 0.0000 0.0000
# 4 0.0000 0.0000 0.0000 39.4149 0.0000 0.0000
# 5 0.0000 0.0000 0.0000 0.0000 26.4122 0.0000
# 6 0.0000 0.0000 0.0000 0.0000 0.0000 36.1254
#
#
#
# Elastic Compliance Matrix: (Units=1/GPa)
#
#
# Indices 1 2 3 4 5 6 
#
# 1 0.008895 -0.002309 -0.000312 0.000000 0.000000 0.000000
# 2 -0.002309 0.011745 -0.002390 0.000000 0.000000 0.000000
# 3 -0.000312 -0.002390 0.004663 0.000000 0.000000 0.000000
# 4 0.000000 0.000000 0.000000 0.025371 0.000000 0.000000
# 5 0.000000 0.000000 0.000000 0.000000 0.037861 0.000000
# 6 0.000000 0.000000 0.000000 0.000000 0.000000 0.027681
#
#
# Mechanical properties :
#
#
# Convention : Reuss Voigt Hill
#
# Bulk Modulus (GPa) = 65.43762 75.06840 70.25301
# Shear Modulus (GPa) = 38.07102 44.45796 41.26449
#
# Velocity S-wave (km/s) = 4.13544 4.46888 4.30539
# Velocity P-wave (km/s) = 7.22479 7.76848 7.50156
#
# Compressibility (1/GPa) = 0.01528173
#
# Stress axis : x y z
#
# Youngs Moduli (GPa) = 112.41983 85.14049 214.44112
#
# Poissons Ratio (x) = 0.19660 0.06689
# Poissons Ratio (y) = 0.25960 0.51250
# Poissons Ratio (z) = 0.03507 0.20348
#
# Static dielectric constant tensor:
#      x y z
#    x 1.720550 0.000000 0.000000 
#    y 0.000000 1.797800 0.000000 
#    z 0.000000 0.000000 1.978850 
# 
# From -- ./inp_files/5198.got.cif
#   From: 2010.05.17/outbox.cif.g08.bks.cpg/sg60_3_cif.got.tgz:5198.got - 2010.06.03 14:59:27.
