data_PCOD9458809
_publ_section_title
;
Structure prediction by ZEFSAII (Michael W. Deem and Ramdas Pophale) SiO2 
 PCOD9458809
Probable space group: P B C N
;
_chemical_formula_sum "Si O2"
_cell_formula_units_Z 40
_cell_length_a 9.925504
_cell_length_b 8.962058
_cell_length_c 16.731772
_cell_angle_alpha 90.000000
_cell_angle_beta 90.000000
_cell_angle_gamma 90.000000
_cell_volume 1488.340353
_symmetry_space_group_name_H-M "P B C N"
_symmetry_group_IT_number 60
_symmetry_cell_setting 'orthorhombic'
loop_
_space_group_symop_operation_xyz
x,y,z
1/2-x,1/2-y,1/2+z
1/2+x,1/2-y,-z
-x,y,1/2-z
-x,-y,-z
1/2+x,1/2+y,1/2-z
1/2-x,1/2+y,z
x,-y,1/2+z
loop_
_atom_site_type_symbol
_atom_site_label
_atom_site_fract_x
_atom_site_fract_y
_atom_site_fract_z
Si Si1 0.500000 0.169045 0.250000
Si Si2 0.757310 0.629067 0.732044
Si Si3 0.198007 0.251444 0.013896
Si Si4 0.122899 0.127150 0.369924
Si Si5 0.000000 0.000000 0.500000
Si Si6 0.879879 0.523120 0.386448
O O1 0.366203 0.264400 0.247127
O O2 0.505861 0.084520 0.164190
O O3 0.699324 0.500326 0.676695
O O4 0.869087 0.728545 0.686244
O O5 0.803292 0.553857 0.813006
O O6 0.110659 0.386841 0.051202
O O7 0.297307 0.156529 0.071601
O O8 0.303262 0.333107 0.953981
O O9 0.099326 0.135813 0.970615
O O10 0.984179 0.065121 0.406132
#
# Coordination Sequence:
#
# PCOD9458809 Si02
#       6
#     4   8   8   8   4   8
#     4  12  28  46  80 108 156 206 252 316 400 442
#     4  12  26  50  74 110 157 194 260 315 377 460
#     4  12  26  50  76 112 153 197 258 313 379 461
#     4  12  26  49  73 113 150 199 252 313 374 467
#     4  12  28  44  82 102 156 200 246 310 398 434
#     4  12  26  50  75 112 154 198 256 320 371 462
#
# _framework density 26.875575000000001
#
# number of rings (size 3 to 8) (size 9 to 14) (size 15 to 20)
#    0.000    0.000    8.000    0.000    8.400    0.000 
#    0.000    3.000    0.000    0.000    0.000    0.000 
#    0.000    0.000    0.000    0.000    0.000    0.000 
#
# Total GULP energy -223323.282279 kJ/mol
# GULP energy per Si atom -5583.082057 kJ/mol
# Density = 2.681440 g / cm^3
# Si number density = 26.875575 Si / 1000 Ang^3
#
#
#
# Elastic Constant Matrix: (Units=GPa)
#
#
# Indices 1 2 3 4 5 6 
#
# 1 24.4256 -3.7124 5.5886 0.0000 0.0000 0.0000
# 2 -3.7124 139.8162 52.4774 0.0000 0.0000 0.0000
# 3 5.5886 52.4774 93.7531 0.0000 0.0000 0.0000
# 4 0.0000 0.0000 0.0000 71.0707 0.0000 0.0000
# 5 0.0000 0.0000 0.0000 0.0000 49.6694 0.0000
# 6 0.0000 0.0000 0.0000 0.0000 0.0000 20.5467
#
#
#
# Elastic Compliance Matrix: (Units=1/GPa)
#
#
# Indices 1 2 3 4 5 6 
#
# 1 0.042250 0.002617 -0.003983 0.000000 0.000000 0.000000
# 2 0.002617 0.009217 -0.005315 0.000000 0.000000 0.000000
# 3 -0.003983 -0.005315 0.013879 0.000000 0.000000 0.000000
# 4 0.000000 0.000000 0.000000 0.014070 0.000000 0.000000
# 5 0.000000 0.000000 0.000000 0.000000 0.020133 0.000000
# 6 0.000000 0.000000 0.000000 0.000000 0.000000 0.048670
#
#
# Mechanical properties :
#
#
# Convention : Reuss Voigt Hill
#
# Bulk Modulus (GPa) = 19.23723 40.74469 29.99096
# Shear Modulus (GPa) = 27.94724 41.83344 34.89034
#
# Velocity S-wave (km/s) = 3.22821 3.94961 3.60699
# Velocity P-wave (km/s) = 4.59005 5.99938 5.34140
#
# Compressibility (1/GPa) = 0.05198254
#
# Stress axis : x y z
#
# Youngs Moduli (GPa) = 23.66872 108.50015 72.05279
#
# Poissons Ratio (x) = -0.28393 0.28701
# Poissons Ratio (y) = -0.06194 0.38295
# Poissons Ratio (z) = 0.09428 0.57667
#
# Static dielectric constant tensor:
#      x y z
#    x -1.973750 0.000000 0.000000 
#    y 0.000000 1.926670 0.000000 
#    z 0.000000 0.000000 2.129130 
# 
# From -- ./inp_files/19882.got.cif
#   From: 2010.05.17/outbox.cif.g08.bks.cpg/sg60_10_cif.got.tgz:19882.got - 2010.06.03 14:59:27.
