data_PCOD9458065
_publ_section_title
;
Structure prediction by ZEFSAII (Michael W. Deem and Ramdas Pophale) SiO2 
 PCOD9458065
Probable space group: P B C N
;
_chemical_formula_sum "Si O2"
_cell_formula_units_Z 40
_cell_length_a 14.867341
_cell_length_b 9.415699
_cell_length_c 13.192717
_cell_angle_alpha 90.000000
_cell_angle_beta 90.000000
_cell_angle_gamma 90.000000
_cell_volume 1846.801062
_symmetry_space_group_name_H-M "P B C N"
_symmetry_group_IT_number 60
_symmetry_cell_setting 'orthorhombic'
loop_
_space_group_symop_operation_xyz
x,y,z
1/2-x,1/2-y,1/2+z
1/2+x,1/2-y,-z
-x,y,1/2-z
-x,-y,-z
1/2+x,1/2+y,1/2-z
1/2-x,1/2+y,z
x,-y,1/2+z
loop_
_atom_site_type_symbol
_atom_site_label
_atom_site_fract_x
_atom_site_fract_y
_atom_site_fract_z
Si Si1 0.144692 0.146806 0.622517
Si Si2 0.996247 0.887644 0.864196
Si Si3 0.496213 0.161652 0.463840
Si Si4 0.803322 0.016552 0.070886
Si Si5 0.324614 0.770549 0.839809
O O1 0.212596 0.080107 0.540779
O O2 0.179139 0.197864 0.730476
O O3 0.092094 0.279592 0.573449
O O4 0.071383 0.020722 0.636689
O O5 0.000000 0.830917 0.750000
O O6 0.093571 0.946458 0.899219
O O7 0.969428 0.766396 0.943596
O O8 0.424499 0.184871 0.373900
O O9 0.500000 0.000000 0.500000
O O10 0.739211 0.095441 0.149339
O O11 0.791837 0.849573 0.081306
#
# Coordination Sequence:
#
# PCOD9458065 Si02
#       5
#     8   8   8   8   8
#     4  11  22  47  74  92 134 191 226 276 346 423
#     4  11  20  43  74  94 128 190 234 268 337 424
#     4  11  24  42  67 101 135 176 235 285 331 413
#     4  11  25  41  67 104 134 172 231 281 344 411
#     4  12  25  44  69 101 143 176 222 290 354 399
#
# _framework density 21.659074
#
# number of rings (size 3 to 8) (size 9 to 14) (size 15 to 20)
#    0.000    0.800    6.000    1.800    5.600    4.800 
#    0.000    0.000    0.000    0.000    0.000    0.000 
#    0.000    0.000    0.000    0.000    0.000    0.000 
#
# Total GULP energy -223798.391935 kJ/mol
# GULP energy per Si atom -5594.959798 kJ/mol
# Density = 2.160978 g / cm^3
# Si number density = 21.659074 Si / 1000 Ang^3
#
#
#
# Elastic Constant Matrix: (Units=GPa)
#
#
# Indices 1 2 3 4 5 6 
#
# 1 10.9802 -0.6308 -8.2129 0.0000 0.0000 0.0000
# 2 -0.6308 93.1106 -2.0896 0.0000 0.0000 0.0000
# 3 -8.2129 -2.0896 109.2136 0.0000 0.0000 0.0000
# 4 0.0000 0.0000 0.0000 17.4037 0.0000 0.0000
# 5 0.0000 0.0000 0.0000 0.0000 23.2842 0.0000
# 6 0.0000 0.0000 0.0000 0.0000 0.0000 29.4974
#
#
#
# Elastic Compliance Matrix: (Units=1/GPa)
#
#
# Indices 1 2 3 4 5 6 
#
# 1 0.096563 0.000818 0.007277 0.000000 0.000000 0.000000
# 2 0.000818 0.010751 0.000267 0.000000 0.000000 0.000000
# 3 0.007277 0.000267 0.009709 0.000000 0.000000 0.000000
# 4 0.000000 0.000000 0.000000 0.057459 0.000000 0.000000
# 5 0.000000 0.000000 0.000000 0.000000 0.042948 0.000000
# 6 0.000000 0.000000 0.000000 0.000000 0.000000 0.033901
#
#
# Mechanical properties :
#
#
# Convention : Reuss Voigt Hill
#
# Bulk Modulus (GPa) = 7.47682 21.27089 14.37385
# Shear Modulus (GPa) = 17.90899 28.98625 23.44762
#
# Velocity S-wave (km/s) = 2.87863 3.66224 3.29382
# Velocity P-wave (km/s) = 3.80897 5.26543 4.59527
#
# Compressibility (1/GPa) = 0.13374671
#
# Stress axis : x y z
#
# Youngs Moduli (GPa) = 10.35595 93.01073 103.00018
#
# Poissons Ratio (x) = -0.07604 -0.74955
# Poissons Ratio (y) = -0.00847 -0.02752
# Poissons Ratio (z) = -0.07536 -0.02485
#
# Static dielectric constant tensor:
#      x y z
#    x 1.789080 0.000000 0.000000 
#    y 0.000000 1.750920 0.000000 
#    z 0.000000 0.000000 1.832400 
# 
# From -- ./inp_files/16603.got.cif
#   From: 2010.05.17/outbox.cif.g08.bks.cpg/sg60_9_cif.got.tgz:16603.got - 2010.06.03 14:59:27.
