data_PCOD9458646
_publ_section_title
;
Structure prediction by ZEFSAII (Michael W. Deem and Ramdas Pophale) SiO2 
 PCOD9458646
Probable space group: P B C N
;
_chemical_formula_sum "Si O2"
_cell_formula_units_Z 56
_cell_length_a 14.931481
_cell_length_b 11.394338
_cell_length_c 11.786544
_cell_angle_alpha 90.000000
_cell_angle_beta 90.000000
_cell_angle_gamma 90.000000
_cell_volume 2005.295900
_symmetry_space_group_name_H-M "P B C N"
_symmetry_group_IT_number 60
_symmetry_cell_setting 'orthorhombic'
loop_
_space_group_symop_operation_xyz
x,y,z
1/2-x,1/2-y,1/2+z
1/2+x,1/2-y,-z
-x,y,1/2-z
-x,-y,-z
1/2+x,1/2+y,1/2-z
1/2-x,1/2+y,z
x,-y,1/2+z
loop_
_atom_site_type_symbol
_atom_site_label
_atom_site_fract_x
_atom_site_fract_y
_atom_site_fract_z
Si Si1 0.250000 0.829140 0.043476
Si Si2 0.750000 0.787296 0.208833
Si Si3 0.574131 0.362679 0.111443
Si Si4 0.500000 0.659247 0.250000
Si Si5 0.397866 0.981441 0.607788
Si Si6 0.574131 0.862680 0.111443
Si Si7 0.000000 0.659247 0.250000
Si Si8 0.397866 0.481441 0.607788
O O1 0.250000 0.212870 0.411000
O O2 0.333698 0.916381 0.065903
O O3 0.166302 0.916382 0.065903
O O4 0.250000 0.747799 0.158678
O O5 0.840706 0.864290 0.194565
O O6 0.659295 0.864290 0.194565
O O7 0.524280 0.243420 0.144812
O O8 0.497382 0.461053 0.115990
O O9 0.612599 0.381461 0.987450
O O10 0.524280 0.743421 0.144811
O O11 0.592944 0.592434 0.276822
O O12 0.387401 0.881461 0.512550
O O13 0.407056 0.907567 0.723178
O O14 0.497382 0.038947 0.615991
#
# Coordination Sequence:
#
# PCOD9458646 Si02
#       8
#     8   8   8   4   8   8   4   8
#     4  12  29  55  77 123 160 216 268 331 403 477
#     4  12  29  49  83 115 160 210 272 323 405 475
#     4  11  27  49  77 117 153 213 258 330 401 473
#     4  12  24  46  82 108 158 216 262 324 404 482
#     4  11  27  51  77 114 163 206 265 335 400 477
#     4  11  27  49  77 117 153 213 258 330 401 473
#     4  12  24  46  82 108 158 216 262 324 404 482
#     4  11  27  51  77 114 163 206 265 335 400 477
#
# _framework density 27.926053
#
# number of rings (size 3 to 8) (size 9 to 14) (size 15 to 20)
#    0.000    0.571    0.000    6.000   16.000    1.143 
#    5.143    0.000    0.000    0.000    0.000    0.000 
#    0.000    0.000    0.000    0.000    0.000    0.000 
#
# Total GULP energy -312632.246530 kJ/mol
# GULP energy per Si atom -5582.718688 kJ/mol
# Density = 2.786249 g / cm^3
# Si number density = 27.926053 Si / 1000 Ang^3
#
#
#
# Elastic Constant Matrix: (Units=GPa)
#
#
# Indices 1 2 3 4 5 6 
#
# 1 119.3526 10.5708 22.5171 0.0000 0.0000 0.0000
# 2 10.5708 83.4825 76.2475 0.0000 0.0000 0.0000
# 3 22.5171 76.2475 213.1457 0.0000 0.0000 0.0000
# 4 0.0000 0.0000 0.0000 54.2734 0.0000 0.0000
# 5 0.0000 0.0000 0.0000 0.0000 45.5184 0.0000
# 6 0.0000 0.0000 0.0000 0.0000 0.0000 -47.9167
#
#
#
# Elastic Compliance Matrix: (Units=1/GPa)
#
#
# Indices 1 2 3 4 5 6 
#
# 1 0.008557 -0.000383 -0.000767 0.000000 0.000000 0.000000
# 2 -0.000383 0.017809 -0.006330 0.000000 0.000000 0.000000
# 3 -0.000767 -0.006330 0.007037 0.000000 0.000000 0.000000
# 4 0.000000 0.000000 0.000000 0.018425 0.000000 0.000000
# 5 0.000000 0.000000 0.000000 0.000000 0.021969 0.000000
# 6 0.000000 0.000000 0.000000 0.000000 0.000000 -0.020870
#
#
# Mechanical properties :
#
#
# Convention : Reuss Voigt Hill
#
# Bulk Modulus (GPa) = 54.22229 70.51684 62.36956
# Shear Modulus (GPa) = 67.53528 30.81804 49.17666
#
# Velocity S-wave (km/s) = 4.92302 3.32559 4.20093
# Velocity P-wave (km/s) = 7.19537 6.32868 6.77589
#
# Compressibility (1/GPa) = 0.01844260
#
# Stress axis : x y z
#
# Youngs Moduli (GPa) = 116.86126 56.15276 142.10434
#
# Poissons Ratio (x) = 0.02151 0.10899
# Poissons Ratio (y) = 0.04476 0.89953
# Poissons Ratio (z) = 0.08963 0.35545
#
# Static dielectric constant tensor:
#      x y z
#    x 2.172070 0.000000 0.000000 
#    y 0.000000 2.234820 0.000000 
#    z 0.000000 0.000000 2.261130 
# 
# From -- ./inp_files/16893.got.cif
#   From: 2010.05.17/outbox.cif.g08.bks.cpg/sg60_9_cif.got.tgz:16893.got - 2010.06.03 14:59:27.
