data_PCOD9458218
_publ_section_title
;
Structure prediction by ZEFSAII (Michael W. Deem and Ramdas Pophale) SiO2 
 PCOD9458218
Probable space group: P B C N
;
_chemical_formula_sum "Si O2"
_cell_formula_units_Z 48
_cell_length_a 13.740878
_cell_length_b 17.326398
_cell_length_c 9.112384
_cell_angle_alpha 90.000000
_cell_angle_beta 90.000000
_cell_angle_gamma 90.000000
_cell_volume 2169.475664
_symmetry_space_group_name_H-M "P B C N"
_symmetry_group_IT_number 60
_symmetry_cell_setting 'orthorhombic'
loop_
_space_group_symop_operation_xyz
x,y,z
1/2-x,1/2-y,1/2+z
1/2+x,1/2-y,-z
-x,y,1/2-z
-x,-y,-z
1/2+x,1/2+y,1/2-z
1/2-x,1/2+y,z
x,-y,1/2+z
loop_
_atom_site_type_symbol
_atom_site_label
_atom_site_fract_x
_atom_site_fract_y
_atom_site_fract_z
Si Si1 0.103862 0.503440 0.917905
Si Si2 0.000000 0.625401 0.750000
Si Si3 0.883228 0.720777 0.982755
Si Si4 0.393112 0.649226 0.237841
Si Si5 0.658521 0.731507 0.966723
Si Si6 0.000000 0.226811 0.750000
Si Si7 0.689305 0.095079 0.330213
O O1 0.126502 0.431693 0.812084
O O2 0.088359 0.573922 0.807365
O O3 0.177624 0.530426 0.043437
O O4 0.000000 0.500000 0.000000
O O5 0.954367 0.671200 0.883546
O O6 0.889840 0.806260 0.915828
O O7 0.769551 0.700699 0.967081
O O8 0.930360 0.725922 0.141250
O O9 0.500000 0.613733 0.250000
O O10 0.377288 0.713346 0.367443
O O11 0.298301 0.597153 0.233252
O O12 0.580969 0.689895 0.858720
O O13 0.664293 0.821529 0.908997
#
# Coordination Sequence:
#
# PCOD9458218 Si02
#       7
#     8   4   8   8   8   4   8
#     4  12  25  44  64 103 137 191 230 287 340 432
#     4  12  24  41  70  94 152 179 232 280 362 418
#     4  11  22  39  64 104 136 183 224 294 354 427
#     4  11  22  47  67  98 142 181 235 302 360 417
#     4  11  25  40  68 102 143 180 231 297 359 427
#     4  12  22  35  64  96 140 173 226 268 360 426
#     4  11  26  44  71  99 143 189 238 287 359 425
#
# _framework density 22.125162
#
# number of rings (size 3 to 8) (size 9 to 14) (size 15 to 20)
#    0.000    0.667    4.167    4.000    7.000    1.333 
#    0.000    0.833    0.000    0.000    0.000    0.000 
#    0.000    0.000    0.000    0.000    0.000    0.000 
#
# Total GULP energy -267740.592234 kJ/mol
# GULP energy per Si atom -5577.929005 kJ/mol
# Density = 2.207480 g / cm^3
# Si number density = 22.125162 Si / 1000 Ang^3
#
#
#
# Elastic Constant Matrix: (Units=GPa)
#
#
# Indices 1 2 3 4 5 6 
#
# 1 162.6871 23.5691 53.1596 0.0000 0.0000 0.0000
# 2 23.5691 41.6557 35.9519 0.0000 0.0000 0.0000
# 3 53.1596 35.9519 149.0312 0.0000 0.0000 0.0000
# 4 0.0000 0.0000 0.0000 6.4762 0.0000 0.0000
# 5 0.0000 0.0000 0.0000 0.0000 47.2775 0.0000
# 6 0.0000 0.0000 0.0000 0.0000 0.0000 27.1447
#
#
#
# Elastic Compliance Matrix: (Units=1/GPa)
#
#
# Indices 1 2 3 4 5 6 
#
# 1 0.007131 -0.002323 -0.001983 0.000000 0.000000 0.000000
# 2 -0.002323 0.031076 -0.006668 0.000000 0.000000 0.000000
# 3 -0.001983 -0.006668 0.009026 0.000000 0.000000 0.000000
# 4 0.000000 0.000000 0.000000 0.154413 0.000000 0.000000
# 5 0.000000 0.000000 0.000000 0.000000 0.021152 0.000000
# 6 0.000000 0.000000 0.000000 0.000000 0.000000 0.036840
#
#
# Mechanical properties :
#
#
# Convention : Reuss Voigt Hill
#
# Bulk Modulus (GPa) = 39.55043 64.30390 51.92717
# Shear Modulus (GPa) = 17.24054 32.22590 24.73322
#
# Velocity S-wave (km/s) = 2.79449 3.82059 3.34709
# Velocity P-wave (km/s) = 5.32230 6.97060 6.20146
#
# Compressibility (1/GPa) = 0.02528417
#
# Stress axis : x y z
#
# Youngs Moduli (GPa) = 140.22453 32.17943 110.79089
#
# Poissons Ratio (x) = 0.07476 0.21974
# Poissons Ratio (y) = 0.32578 0.73875
# Poissons Ratio (z) = 0.27811 0.21457
#
# Static dielectric constant tensor:
#      x y z
#    x 1.852490 0.000000 0.000000 
#    y 0.000000 1.870030 0.000000 
#    z 0.000000 0.000000 1.877580 
# 
# From -- ./inp_files/5973.got.cif
#   From: 2010.05.17/outbox.cif.g08.bks.cpg/sg60_3_cif.got.tgz:5973.got - 2010.06.03 14:59:27.
