data_PCOD9458999
_publ_section_title
;
Structure prediction by ZEFSAII (Michael W. Deem and Ramdas Pophale) SiO2 
 PCOD9458999
Probable space group: P B C A
;
_chemical_formula_sum "Si O2"
_cell_formula_units_Z 64
_cell_length_a 22.101162
_cell_length_b 17.232141
_cell_length_c 9.694160
_cell_angle_alpha 90.000000
_cell_angle_beta 90.000000
_cell_angle_gamma 90.000000
_cell_volume 3692.024131
_symmetry_space_group_name_H-M "P B C A"
_symmetry_group_IT_number 61
_symmetry_cell_setting 'orthorhombic'
loop_
_space_group_symop_operation_xyz
x,y,z
1/2-x,-y,1/2+z
1/2+x,1/2-y,-z
-x,1/2+y,1/2-z
-x,-y,-z
1/2+x,y,1/2-z
1/2-x,1/2+y,z
x,1/2-y,1/2+z
loop_
_atom_site_type_symbol
_atom_site_label
_atom_site_fract_x
_atom_site_fract_y
_atom_site_fract_z
Si Si1 0.872177 0.250501 0.553288
Si Si2 0.113385 0.513043 0.770719
Si Si3 0.303404 0.406369 0.489938
Si Si4 0.008048 0.552556 0.289827
Si Si5 0.359417 0.406863 0.785784
Si Si6 0.937016 0.316533 0.292953
Si Si7 0.835402 0.552035 0.512879
Si Si8 0.042354 0.112765 0.927043
O O1 0.824514 0.180430 0.551068
O O2 0.849509 0.327504 0.630417
O O3 0.895488 0.271277 0.401893
O O4 0.928435 0.219836 0.643779
O O5 0.051911 0.463854 0.800676
O O6 0.089382 0.595990 0.713798
O O7 0.148528 0.472189 0.644497
O O8 0.156548 0.533965 0.898240
O O9 0.319186 0.415170 0.650676
O O10 0.232715 0.420352 0.469174
O O11 0.986863 0.602507 0.421729
O O12 0.070112 0.589194 0.235541
O O13 0.027828 0.468547 0.349699
O O14 0.346884 0.476729 0.891696
O O15 0.005386 0.322153 0.346401
O O16 0.885771 0.615269 0.557463
#
# Coordination Sequence:
#
# PCOD9458999 Si02
#       8
#     8   8   8   8   8   8   8   8
#     4  11  20  32  52  78 102 135 177 221 262 310
#     4   9  18  33  53  78 102 135 174 218 262 308
#     4  11  23  32  49  82 110 141 177 216 263 315
#     4   8  14  27  52  79  96 123 165 217 264 301
#     4  11  19  33  55  79 102 139 177 224 267 303
#     4  10  17  32  53  76  99 127 173 223 261 304
#     4  10  19  35  56  74 105 143 181 211 255 327
#     4   8  14  28  53  74  94 127 171 207 256 309
#
# _framework density 17.334665000000001
#
# number of rings (size 3 to 8) (size 9 to 14) (size 15 to 20)
#    0.000    2.250    3.750    2.250    0.000    0.500 
#    0.000    0.000    2.750    0.000    0.000    0.000 
#    0.000    0.000    0.000    0.000    0.000    0.000 
#
# Total GULP energy -356564.425285 kJ/mol
# GULP energy per Si atom -5571.319145 kJ/mol
# Density = 1.729521 g / cm^3
# Si number density = 17.334665 Si / 1000 Ang^3
#
#
#
# Elastic Constant Matrix: (Units=GPa)
#
#
# Indices 1 2 3 4 5 6 
#
# 1 93.0530 10.2895 6.0706 0.0000 0.0000 0.0000
# 2 10.2895 35.6325 -0.2804 0.0000 0.0000 0.0000
# 3 6.0706 -0.2804 33.1109 0.0000 0.0000 0.0000
# 4 0.0000 0.0000 0.0000 5.0673 0.0000 0.0000
# 5 0.0000 0.0000 0.0000 0.0000 23.4464 0.0000
# 6 0.0000 0.0000 0.0000 0.0000 0.0000 17.4058
#
#
#
# Elastic Compliance Matrix: (Units=1/GPa)
#
#
# Indices 1 2 3 4 5 6 
#
# 1 0.011244 -0.003263 -0.002089 0.000000 0.000000 0.000000
# 2 -0.003263 0.029013 0.000844 0.000000 0.000000 0.000000
# 3 -0.002089 0.000844 0.030592 0.000000 0.000000 0.000000
# 4 0.000000 0.000000 0.000000 0.197344 0.000000 0.000000
# 5 0.000000 0.000000 0.000000 0.000000 0.042651 0.000000
# 6 0.000000 0.000000 0.000000 0.000000 0.000000 0.057452
#
#
# Mechanical properties :
#
#
# Convention : Reuss Voigt Hill
#
# Bulk Modulus (GPa) = 16.17289 21.55066 18.86178
# Shear Modulus (GPa) = 12.56527 18.89835 15.73181
#
# Velocity S-wave (km/s) = 2.69525 3.30541 3.01580
# Velocity P-wave (km/s) = 4.36301 5.19872 4.79909
#
# Compressibility (1/GPa) = 0.06183186
#
# Stress axis : x y z
#
# Youngs Moduli (GPa) = 88.93881 34.46703 32.68864
#
# Poissons Ratio (x) = 0.11247 0.06829
# Poissons Ratio (y) = 0.29023 -0.02759
# Poissons Ratio (z) = 0.18580 -0.02909
#
# Static dielectric constant tensor:
#      x y z
#    x 1.597310 0.000000 0.000000 
#    y 0.000000 1.601920 0.000000 
#    z 0.000000 0.000000 1.584110 
# 
# From -- ./inp_files/4121.got.cif
#   From: 2010.05.17/outbox.cif.g08.bks.cpg/sg61_3_cif.got.tgz:4121.got - 2010.06.03 15:17:17.
