data_PCOD9458790
_publ_section_title
;
Structure prediction by ZEFSAII (Michael W. Deem and Ramdas Pophale) SiO2 
 PCOD9458790
Probable space group: P B C N
;
_chemical_formula_sum "Si O2"
_cell_formula_units_Z 28
_cell_length_a 12.649133
_cell_length_b 10.818493
_cell_length_c 8.435834
_cell_angle_alpha 90.000000
_cell_angle_beta 90.000000
_cell_angle_gamma 90.000000
_cell_volume 1154.397965
_symmetry_space_group_name_H-M "P B C N"
_symmetry_group_IT_number 60
_symmetry_cell_setting 'orthorhombic'
loop_
_space_group_symop_operation_xyz
x,y,z
1/2-x,1/2-y,1/2+z
1/2+x,1/2-y,-z
-x,y,1/2-z
-x,-y,-z
1/2+x,1/2+y,1/2-z
1/2-x,1/2+y,z
x,-y,1/2+z
loop_
_atom_site_type_symbol
_atom_site_label
_atom_site_fract_x
_atom_site_fract_y
_atom_site_fract_z
Si Si1 0.171970 0.421458 0.019211
Si Si2 0.500000 0.779291 0.250000
Si Si3 0.085903 0.890026 0.011559
Si Si4 0.396709 0.855848 0.685670
O O1 0.295734 0.427863 0.060652
O O2 0.140422 0.565335 0.035591
O O3 0.085841 0.348961 0.130877
O O4 0.173149 0.364414 0.842885
O O5 0.425942 0.686157 0.349441
O O6 0.069943 0.778876 0.134458
O O7 0.000000 0.000000 0.000000
O O8 0.500000 0.924071 0.750000
#
# Coordination Sequence:
#
# PCOD9458790 Si02
#       4
#     8   4   8   8
#     4  12  27  49  84 116 159 218 272 336 403 489
#     4  12  26  54  78 122 162 218 282 330 412 496
#     4  12  31  48  79 118 167 208 271 341 413 480
#     4  12  25  50  77 113 156 210 271 329 399 485
#
# _framework density 24.255064999999998
#
# number of rings (size 3 to 8) (size 9 to 14) (size 15 to 20)
#    0.000    0.000    4.286    4.286   10.000    0.000 
#    0.000    0.000    0.000    0.000    0.000    0.000 
#    0.000    0.000    0.000    0.000    0.000    0.000 
#
# Total GULP energy -155928.280502 kJ/mol
# GULP energy per Si atom -5568.867161 kJ/mol
# Density = 2.419986 g / cm^3
# Si number density = 24.255065 Si / 1000 Ang^3
#
#
#
# Elastic Constant Matrix: (Units=GPa)
#
#
# Indices 1 2 3 4 5 6 
#
# 1 144.9618 53.5711 26.0436 0.0000 0.0000 0.0000
# 2 53.5711 159.0029 70.8087 0.0000 0.0000 0.0000
# 3 26.0436 70.8087 91.2608 0.0000 0.0000 0.0000
# 4 0.0000 0.0000 0.0000 25.8491 0.0000 0.0000
# 5 0.0000 0.0000 0.0000 0.0000 -1.0167 0.0000
# 6 0.0000 0.0000 0.0000 0.0000 0.0000 18.7265
#
#
#
# Elastic Compliance Matrix: (Units=1/GPa)
#
#
# Indices 1 2 3 4 5 6 
#
# 1 0.007884 -0.002528 -0.000289 0.000000 0.000000 0.000000
# 2 -0.002528 0.010420 -0.007363 0.000000 0.000000 0.000000
# 3 -0.000289 -0.007363 0.016753 0.000000 0.000000 0.000000
# 4 0.000000 0.000000 0.000000 0.038686 0.000000 0.000000
# 5 0.000000 0.000000 0.000000 0.000000 -0.983542 0.000000
# 6 0.000000 0.000000 0.000000 0.000000 0.000000 0.053400
#
#
# Mechanical properties :
#
#
# Convention : Reuss Voigt Hill
#
# Bulk Modulus (GPa) = 68.03768 77.34136 72.68952
# Shear Modulus (GPa) = -6.01584 25.03192 9.50804
#
# Velocity S-wave (km/s) = -1.57659 3.21600 1.98205
# Velocity P-wave (km/s) = 4.97972 6.76359 5.93902
#
# Compressibility (1/GPa) = 0.01469774
#
# Stress axis : x y z
#
# Youngs Moduli (GPa) = 126.83264 95.96882 59.68986
#
# Poissons Ratio (x) = 0.24260 0.01723
# Poissons Ratio (y) = 0.32061 0.43952
# Poissons Ratio (z) = 0.03661 0.70666
#
# Static dielectric constant tensor:
#      x y z
#    x 2.259110 0.000000 0.000000 
#    y 0.000000 2.148910 0.000000 
#    z 0.000000 0.000000 2.286920 
# 
# From -- ./inp_files/5440.got.cif
#   From: 2010.05.17/outbox.cif.g08.bks.cpg/sg60_3_cif.got.tgz:5440.got - 2010.06.03 14:59:27.
