data_PCOD9458135
_publ_section_title
;
Structure prediction by ZEFSAII (Michael W. Deem and Ramdas Pophale) SiO2 
 PCOD9458135
Probable space group: P B C N
;
_chemical_formula_sum "Si O2"
_cell_formula_units_Z 60
_cell_length_a 12.283429
_cell_length_b 24.174758
_cell_length_c 8.673369
_cell_angle_alpha 90.000000
_cell_angle_beta 90.000000
_cell_angle_gamma 90.000000
_cell_volume 2575.547588
_symmetry_space_group_name_H-M "P B C N"
_symmetry_group_IT_number 60
_symmetry_cell_setting 'orthorhombic'
loop_
_space_group_symop_operation_xyz
x,y,z
1/2-x,1/2-y,1/2+z
1/2+x,1/2-y,-z
-x,y,1/2-z
-x,-y,-z
1/2+x,1/2+y,1/2-z
1/2-x,1/2+y,z
x,-y,1/2+z
loop_
_atom_site_type_symbol
_atom_site_label
_atom_site_fract_x
_atom_site_fract_y
_atom_site_fract_z
Si Si1 0.081156 0.981286 0.135135
Si Si2 0.764344 0.580894 0.726193
Si Si3 0.011817 0.808163 0.498147
Si Si4 0.154512 0.095463 0.106888
Si Si5 0.682055 0.183355 0.264517
Si Si6 0.479254 0.814088 0.001997
Si Si7 0.000000 0.408756 0.250000
Si Si8 0.685853 0.303622 0.285198
O O1 0.188807 0.944538 0.139278
O O2 0.000000 0.949833 0.250000
O O3 0.122554 0.040496 0.197732
O O4 0.000000 0.000000 0.000000
O O5 0.706061 0.575225 0.558365
O O6 0.767424 0.646963 0.752622
O O7 0.886769 0.558622 0.733175
O O8 0.052765 0.863378 0.580808
O O9 0.018249 0.747481 0.573780
O O10 0.097790 0.803354 0.355155
O O11 0.889923 0.814374 0.433202
O O12 0.242551 0.132972 0.191318
O O13 0.631386 0.179855 0.095547
O O14 0.579959 0.185858 0.381713
O O15 0.737975 0.243100 0.286981
O O16 0.493148 0.867155 0.106452
#
# Coordination Sequence:
#
# PCOD9458135 Si02
#       8
#     8   8   8   8   8   8   4   8
#     4  12  26  47  74  98 129 169 232 295 340 394
#     4  11  24  42  66  96 137 178 221 279 346 404
#     4   8  16  32  59  92 128 168 216 263 329 398
#     4  11  21  40  68  96 132 174 218 281 345 393
#     4   9  18  37  63  93 128 179 219 257 332 406
#     4   9  19  37  58  90 137 175 215 262 317 406
#     4  12  24  40  62  98 136 178 214 268 324 408
#     4   8  16  33  61  91 127 176 212 258 332 409
#
# _framework density 23.296016000000002
#
# number of rings (size 3 to 8) (size 9 to 14) (size 15 to 20)
#    0.000    2.133    2.667    2.400    3.733    1.067 
#    1.200    2.000    0.000    0.000    0.000    0.000 
#    0.000    0.000    0.000    0.000    0.000    0.000 
#
# Total GULP energy -335200.556443 kJ/mol
# GULP energy per Si atom -5586.675941 kJ/mol
# Density = 2.324299 g / cm^3
# Si number density = 23.296016 Si / 1000 Ang^3
#
#
#
# Elastic Constant Matrix: (Units=GPa)
#
#
# Indices 1 2 3 4 5 6 
#
# 1 115.0066 17.7496 15.0336 0.0000 0.0000 0.0000
# 2 17.7496 75.8353 -6.0076 0.0000 0.0000 0.0000
# 3 15.0336 -6.0076 56.8726 0.0000 0.0000 0.0000
# 4 0.0000 0.0000 0.0000 -1.1557 0.0000 0.0000
# 5 0.0000 0.0000 0.0000 0.0000 22.5659 0.0000
# 6 0.0000 0.0000 0.0000 0.0000 0.0000 32.4906
#
#
#
# Elastic Compliance Matrix: (Units=1/GPa)
#
#
# Indices 1 2 3 4 5 6 
#
# 1 0.009429 -0.002425 -0.002748 0.000000 0.000000 0.000000
# 2 -0.002425 0.013921 0.002111 0.000000 0.000000 0.000000
# 3 -0.002748 0.002111 0.018533 0.000000 0.000000 0.000000
# 4 0.000000 0.000000 0.000000 -0.865240 0.000000 0.000000
# 5 0.000000 0.000000 0.000000 0.000000 0.044315 0.000000
# 6 0.000000 0.000000 0.000000 0.000000 0.000000 0.030778
#
#
# Mechanical properties :
#
#
# Convention : Reuss Voigt Hill
#
# Bulk Modulus (GPa) = 27.96468 33.47400 30.71934
# Shear Modulus (GPa) = -6.84724 25.50942 9.33109
#
# Velocity S-wave (km/s) = -1.71628 3.31269 2.00353
# Velocity P-wave (km/s) = 2.84651 5.38814 4.30898
#
# Compressibility (1/GPa) = 0.03575939
#
# Stress axis : x y z
#
# Youngs Moduli (GPa) = 106.06001 71.83284 53.95862
#
# Poissons Ratio (x) = 0.17416 0.14830
# Poissons Ratio (y) = 0.25715 -0.11393
# Poissons Ratio (z) = 0.29150 -0.15167
#
# Static dielectric constant tensor:
#      x y z
#    x 1.910860 0.000000 0.000000 
#    y 0.000000 1.842370 0.000000 
#    z 0.000000 0.000000 1.961460 
# 
# From -- ./inp_files/5258.got.cif
#   From: 2010.05.17/outbox.cif.g08.bks.cpg/sg60_3_cif.got.tgz:5258.got - 2010.06.03 14:59:27.
