data_PCOD9458075
_publ_section_title
;
Structure prediction by ZEFSAII (Michael W. Deem and Ramdas Pophale) SiO2 
 PCOD9458075
Probable space group: P B C N
;
_chemical_formula_sum "Si O2"
_cell_formula_units_Z 32
_cell_length_a 21.780057
_cell_length_b 6.686784
_cell_length_c 7.697912
_cell_angle_alpha 90.000000
_cell_angle_beta 90.000000
_cell_angle_gamma 90.000000
_cell_volume 1121.112639
_symmetry_space_group_name_H-M "P B C N"
_symmetry_group_IT_number 60
_symmetry_cell_setting 'orthorhombic'
loop_
_space_group_symop_operation_xyz
x,y,z
1/2-x,1/2-y,1/2+z
1/2+x,1/2-y,-z
-x,y,1/2-z
-x,-y,-z
1/2+x,1/2+y,1/2-z
1/2-x,1/2+y,z
x,-y,1/2+z
loop_
_atom_site_type_symbol
_atom_site_label
_atom_site_fract_x
_atom_site_fract_y
_atom_site_fract_z
Si Si1 0.196507 0.596038 0.935663
Si Si2 0.823995 0.809312 0.927119
Si Si3 0.925180 0.700895 0.392006
Si Si4 0.048797 0.239331 0.011637
O O1 0.194523 0.704629 0.752535
O O2 0.264920 0.570762 0.010885
O O3 0.173259 0.369047 0.931081
O O4 0.145484 0.709513 0.049683
O O5 0.893794 0.885432 0.910400
O O6 0.941072 0.461385 0.407318
O O7 0.939219 0.758518 0.195115
O O8 0.975690 0.799573 0.523203
#
# Coordination Sequence:
#
# PCOD9458075 Si02
#       4
#     8   8   8   8
#     4  11  21  34  52  75 103 134 169 207 250 298
#     4  11  21  34  52  75 103 134 169 207 250 298
#     4   9  16  27  45  70  98 127 162 204 247 290
#     4   9  16  27  45  70  98 127 162 204 247 290
#
# _framework density 28.543075000000002
#
# number of rings (size 3 to 8) (size 9 to 14) (size 15 to 20)
#    0.000    2.000    0.000    9.000    0.000    3.000 
#    0.000    0.000    0.000    1.500    0.000    0.000 
#    0.000    0.000    0.000    0.000    0.000    0.000 
#
# Total GULP energy -179184.087158 kJ/mol
# GULP energy per Si atom -5599.502724 kJ/mol
# Density = 2.847811 g / cm^3
# Si number density = 28.543075 Si / 1000 Ang^3
#
#
#
# Elastic Constant Matrix: (Units=GPa)
#
#
# Indices 1 2 3 4 5 6 
#
# 1 276.2378 26.6902 42.8278 0.0000 0.0000 0.0000
# 2 26.6902 57.3127 5.0221 0.0000 0.0000 0.0000
# 3 42.8278 5.0221 122.3548 0.0000 0.0000 0.0000
# 4 0.0000 0.0000 0.0000 26.3704 0.0000 0.0000
# 5 0.0000 0.0000 0.0000 0.0000 51.4588 0.0000
# 6 0.0000 0.0000 0.0000 0.0000 0.0000 58.9184
#
#
#
# Elastic Compliance Matrix: (Units=1/GPa)
#
#
# Indices 1 2 3 4 5 6 
#
# 1 0.003994 -0.001744 -0.001327 0.000000 0.000000 0.000000
# 2 -0.001744 0.018272 -0.000140 0.000000 0.000000 0.000000
# 3 -0.001327 -0.000140 0.008643 0.000000 0.000000 0.000000
# 4 0.000000 0.000000 0.000000 0.037921 0.000000 0.000000
# 5 0.000000 0.000000 0.000000 0.000000 0.019433 0.000000
# 6 0.000000 0.000000 0.000000 0.000000 0.000000 0.016973
#
#
# Mechanical properties :
#
#
# Convention : Reuss Voigt Hill
#
# Bulk Modulus (GPa) = 40.83340 67.22061 54.02700
# Shear Modulus (GPa) = 41.72929 52.77385 47.25157
#
# Velocity S-wave (km/s) = 3.82773 4.30457 4.07313
# Velocity P-wave (km/s) = 5.81999 6.95036 6.41014
#
# Compressibility (1/GPa) = 0.02448976
#
# Stress axis : x y z
#
# Youngs Moduli (GPa) = 250.36157 54.72712 115.70048
#
# Poissons Ratio (x) = 0.09544 0.15348
# Poissons Ratio (y) = 0.43659 0.01615
# Poissons Ratio (z) = 0.33211 0.00764
#
# Static dielectric constant tensor:
#      x y z
#    x 2.354370 0.000000 0.000000 
#    y 0.000000 2.398350 0.000000 
#    z 0.000000 0.000000 2.114380 
# 
# From -- ./inp_files/6473.got.cif
#   From: 2010.05.17/outbox.cif.g08.bks.cpg/sg60_4_cif.got.tgz:6473.got - 2010.06.03 14:59:27.
