data_PCOD9458450
_publ_section_title
;
Structure prediction by ZEFSAII (Michael W. Deem and Ramdas Pophale) SiO2 
 PCOD9458450
Probable space group: P B C N
;
_chemical_formula_sum "Si O2"
_cell_formula_units_Z 48
_cell_length_a 16.061565
_cell_length_b 9.000508
_cell_length_c 16.126226
_cell_angle_alpha 90.000000
_cell_angle_beta 90.000000
_cell_angle_gamma 90.000000
_cell_volume 2331.243422
_symmetry_space_group_name_H-M "P B C N"
_symmetry_group_IT_number 60
_symmetry_cell_setting 'orthorhombic'
loop_
_space_group_symop_operation_xyz
x,y,z
1/2-x,1/2-y,1/2+z
1/2+x,1/2-y,-z
-x,y,1/2-z
-x,-y,-z
1/2+x,1/2+y,1/2-z
1/2-x,1/2+y,z
x,-y,1/2+z
loop_
_atom_site_type_symbol
_atom_site_label
_atom_site_fract_x
_atom_site_fract_y
_atom_site_fract_z
Si Si1 0.097284 0.347719 0.549143
Si Si2 0.932414 0.470198 0.619643
Si Si3 0.331400 0.561743 0.511639
Si Si4 0.178885 0.371687 0.266830
Si Si5 0.263014 0.610317 0.158765
Si Si6 0.202783 0.235046 0.913599
O O1 0.092635 0.447558 0.466518
O O2 0.092795 0.178135 0.516326
O O3 0.183400 0.355065 0.600264
O O4 0.025162 0.409634 0.608355
O O5 0.909435 0.578159 0.695639
O O6 0.871739 0.329247 0.624479
O O7 0.318549 0.497805 0.603301
O O8 0.332524 0.414962 0.454992
O O9 0.252858 0.659348 0.478132
O O10 0.226705 0.516767 0.234647
O O11 0.186579 0.251420 0.193299
O O12 0.230714 0.309007 0.344255
#
# Coordination Sequence:
#
# PCOD9458450 Si02
#       6
#     8   8   8   8   8   8
#     4  11  24  42  64  95 133 171 219 276 337 392
#     4  11  24  42  64  96 134 174 217 277 338 395
#     4  12  20  39  68  95 127 171 232 276 317 407
#     4  12  22  37  64  97 127 173 220 271 330 396
#     4  12  22  37  66  99 125 172 225 274 329 402
#     4  12  20  39  66  94 124 173 227 271 322 407
#
# _framework density 20.589870000000001
#
# number of rings (size 3 to 8) (size 9 to 14) (size 15 to 20)
#    0.000    0.333   10.000    0.000    0.000    1.333 
#    0.000    0.000    0.000    0.000    0.000    0.000 
#    0.000    0.000    0.000    0.000    0.000    0.000 
#
# Total GULP energy -267994.147119 kJ/mol
# GULP energy per Si atom -5583.211398 kJ/mol
# Density = 2.054301 g / cm^3
# Si number density = 20.589870 Si / 1000 Ang^3
#
#
#
# Elastic Constant Matrix: (Units=GPa)
#
#
# Indices 1 2 3 4 5 6 
#
# 1 50.6184 24.4634 18.7118 0.0000 0.0000 0.0000
# 2 24.4634 121.9483 26.8653 0.0000 0.0000 0.0000
# 3 18.7118 26.8653 47.7646 0.0000 0.0000 0.0000
# 4 0.0000 0.0000 0.0000 55.4016 0.0000 0.0000
# 5 0.0000 0.0000 0.0000 0.0000 28.1409 0.0000
# 6 0.0000 0.0000 0.0000 0.0000 0.0000 16.2577
#
#
#
# Elastic Compliance Matrix: (Units=1/GPa)
#
#
# Indices 1 2 3 4 5 6 
#
# 1 0.024114 -0.003146 -0.007677 0.000000 0.000000 0.000000
# 2 -0.003146 0.009770 -0.004263 0.000000 0.000000 0.000000
# 3 -0.007677 -0.004263 0.026341 0.000000 0.000000 0.000000
# 4 0.000000 0.000000 0.000000 0.018050 0.000000 0.000000
# 5 0.000000 0.000000 0.000000 0.000000 0.035535 0.000000
# 6 0.000000 0.000000 0.000000 0.000000 0.000000 0.061509
#
#
# Mechanical properties :
#
#
# Convention : Reuss Voigt Hill
#
# Bulk Modulus (GPa) = 33.27414 40.04583 36.65998
# Shear Modulus (GPa) = 23.20068 29.97941 26.59005
#
# Velocity S-wave (km/s) = 3.36043 3.81993 3.59752
# Velocity P-wave (km/s) = 5.59036 6.24078 5.92450
#
# Compressibility (1/GPa) = 0.03005337
#
# Stress axis : x y z
#
# Youngs Moduli (GPa) = 41.46949 102.34946 37.96326
#
# Poissons Ratio (x) = 0.32200 0.29145
# Poissons Ratio (y) = 0.13047 0.16183
# Poissons Ratio (z) = 0.31837 0.43631
#
# Static dielectric constant tensor:
#      x y z
#    x 1.737220 0.000000 0.000000 
#    y 0.000000 1.772810 0.000000 
#    z 0.000000 0.000000 1.766260 
# 
# From -- ./inp_files/17307.got.cif
#   From: 2010.05.17/outbox.cif.g08.bks.cpg/sg60_9_cif.got.tgz:17307.got - 2010.06.03 14:59:27.
