data_PCOD9458554
_publ_section_title
;
Structure prediction by ZEFSAII (Michael W. Deem and Ramdas Pophale) SiO2 
 PCOD9458554
Probable space group: P B C N
;
_chemical_formula_sum "Si O2"
_cell_formula_units_Z 40
_cell_length_a 8.574994
_cell_length_b 24.691785
_cell_length_c 7.435891
_cell_angle_alpha 90.000000
_cell_angle_beta 90.000000
_cell_angle_gamma 90.000000
_cell_volume 1574.415391
_symmetry_space_group_name_H-M "P B C N"
_symmetry_group_IT_number 60
_symmetry_cell_setting 'orthorhombic'
loop_
_space_group_symop_operation_xyz
x,y,z
1/2-x,1/2-y,1/2+z
1/2+x,1/2-y,-z
-x,y,1/2-z
-x,-y,-z
1/2+x,1/2+y,1/2-z
1/2-x,1/2+y,z
x,-y,1/2+z
loop_
_atom_site_type_symbol
_atom_site_label
_atom_site_fract_x
_atom_site_fract_y
_atom_site_fract_z
Si Si1 0.818103 0.071277 0.521767
Si Si2 0.660710 0.790931 0.511678
Si Si3 0.131617 0.531967 0.606283
Si Si4 0.332671 0.392330 0.070958
Si Si5 0.823832 0.316095 0.932375
O O1 0.768482 0.016783 0.421509
O O2 0.797305 0.072163 0.743420
O O3 0.722219 0.122716 0.460947
O O4 0.999207 0.090472 0.504019
O O5 0.789488 0.829573 0.413679
O O6 0.482943 0.802977 0.462750
O O7 0.668179 0.805670 0.720722
O O8 0.697533 0.727918 0.494731
O O9 0.191980 0.579548 0.469188
O O10 0.000000 0.554875 0.750000
O O11 0.000000 0.500000 0.500000
#
# Coordination Sequence:
#
# PCOD9458554 Si02
#       5
#     8   8   8   8   8
#     4  11  25  44  69  97 136 177 227 280 339 407
#     4  11  25  43  68  98 135 174 224 279 340 406
#     4  12  25  44  69  98 135 179 226 277 338 400
#     4  11  25  45  67  98 136 178 225 281 339 403
#     4  11  25  43  67  99 133 176 223 278 340 406
#
# _framework density 25.406253
#
# number of rings (size 3 to 8) (size 9 to 14) (size 15 to 20)
#    0.000    0.800    2.000    4.200    5.600    8.000 
#    0.000    0.000    0.000    0.000    0.000    0.000 
#    0.000    0.000    0.000    0.000    0.000    0.000 
#
# Total GULP energy -222864.222506 kJ/mol
# GULP energy per Si atom -5571.605563 kJ/mol
# Density = 2.534843 g / cm^3
# Si number density = 25.406253 Si / 1000 Ang^3
#
#
#
# Elastic Constant Matrix: (Units=GPa)
#
#
# Indices 1 2 3 4 5 6 
#
# 1 133.8448 -3.7941 -15.7028 0.0000 0.0000 0.0000
# 2 -3.7941 115.9463 14.1588 0.0000 0.0000 0.0000
# 3 -15.7028 14.1588 61.5073 0.0000 0.0000 0.0000
# 4 0.0000 0.0000 0.0000 38.3012 0.0000 0.0000
# 5 0.0000 0.0000 0.0000 0.0000 8.6633 0.0000
# 6 0.0000 0.0000 0.0000 0.0000 0.0000 50.8087
#
#
#
# Elastic Compliance Matrix: (Units=1/GPa)
#
#
# Indices 1 2 3 4 5 6 
#
# 1 0.007702 0.000012 0.001964 0.000000 0.000000 0.000000
# 2 0.000012 0.008874 -0.002040 0.000000 0.000000 0.000000
# 3 0.001964 -0.002040 0.017229 0.000000 0.000000 0.000000
# 4 0.000000 0.000000 0.000000 0.026109 0.000000 0.000000
# 5 0.000000 0.000000 0.000000 0.000000 0.115429 0.000000
# 6 0.000000 0.000000 0.000000 0.000000 0.000000 0.019682
#
#
# Mechanical properties :
#
#
# Convention : Reuss Voigt Hill
#
# Bulk Modulus (GPa) = 29.69347 33.40245 31.54796
# Shear Modulus (GPa) = 24.22729 40.66374 32.44552
#
# Velocity S-wave (km/s) = 3.09138 4.00502 3.57749
# Velocity P-wave (km/s) = 4.94520 5.87901 5.43221
#
# Compressibility (1/GPa) = 0.03367744
#
# Stress axis : x y z
#
# Youngs Moduli (GPa) = 129.83561 112.68672 58.04156
#
# Poissons Ratio (x) = -0.00138 -0.11396
# Poissons Ratio (y) = -0.00159 0.11839
# Poissons Ratio (z) = -0.25493 0.22984
#
# Static dielectric constant tensor:
#      x y z
#    x 2.358550 0.000000 0.000000 
#    y 0.000000 2.470440 0.000000 
#    z 0.000000 0.000000 2.517110 
# 
# From -- ./inp_files/3792.got.cif
#   From: 2010.05.17/outbox.cif.g08.bks.cpg/sg60_2_cif.got.tgz:3792.got - 2010.06.03 14:59:27.
