data_PCOD9458331
_publ_section_title
;
Structure prediction by ZEFSAII (Michael W. Deem and Ramdas Pophale) SiO2 
 PCOD9458331
Probable space group: P B C N
;
_chemical_formula_sum "Si O2"
_cell_formula_units_Z 32
_cell_length_a 5.092461
_cell_length_b 19.030819
_cell_length_c 16.612368
_cell_angle_alpha 90.000000
_cell_angle_beta 90.000000
_cell_angle_gamma 90.000000
_cell_volume 1609.966108
_symmetry_space_group_name_H-M "P B C N"
_symmetry_group_IT_number 60
_symmetry_cell_setting 'orthorhombic'
loop_
_space_group_symop_operation_xyz
x,y,z
1/2-x,1/2-y,1/2+z
1/2+x,1/2-y,-z
-x,y,1/2-z
-x,-y,-z
1/2+x,1/2+y,1/2-z
1/2-x,1/2+y,z
x,-y,1/2+z
loop_
_atom_site_type_symbol
_atom_site_label
_atom_site_fract_x
_atom_site_fract_y
_atom_site_fract_z
Si Si1 0.591177 0.558176 0.564263
Si Si2 0.395769 0.020428 0.662150
Si Si3 0.759417 0.358437 0.804598
Si Si4 0.849546 0.206121 0.475455
O O1 0.500000 0.500000 0.500000
O O2 0.371792 0.557039 0.634121
O O3 0.604254 0.632820 0.521048
O O4 0.872817 0.536850 0.599681
O O5 0.500000 0.041681 0.750000
O O6 0.337626 0.936935 0.666324
O O7 0.500000 0.363957 0.750000
O O8 0.708239 0.311539 0.882526
O O9 0.000000 0.332099 0.750000
O O10 0.603799 0.245827 0.514180
#
# Coordination Sequence:
#
# PCOD9458331 Si02
#       4
#     8   8   8   8
#     4  12  24  42  70  99 133 170 227 278 332 388
#     4  11  23  40  69 104 132 169 221 287 336 385
#     4  11  23  42  71  98 132 175 228 276 332 407
#     4  12  27  45  67 100 139 182 224 272 336 404
#
# _framework density 19.876193000000001
#
# number of rings (size 3 to 8) (size 9 to 14) (size 15 to 20)
#    0.000    0.500    2.500    7.500    3.500    0.000 
#    0.000   12.500    0.000    0.000    0.000    0.000 
#    0.000    0.000    0.000    0.000    0.000    0.000 
#
# Total GULP energy -179180.169716 kJ/mol
# GULP energy per Si atom -5599.380304 kJ/mol
# Density = 1.983095 g / cm^3
# Si number density = 19.876193 Si / 1000 Ang^3
#
#
#
# Elastic Constant Matrix: (Units=GPa)
#
#
# Indices 1 2 3 4 5 6 
#
# 1 138.9769 55.6447 38.2346 0.0000 0.0000 0.0000
# 2 55.6447 127.6773 63.5663 0.0000 0.0000 0.0000
# 3 38.2346 63.5663 107.5642 0.0000 0.0000 0.0000
# 4 0.0000 0.0000 0.0000 39.8680 0.0000 0.0000
# 5 0.0000 0.0000 0.0000 0.0000 53.2666 0.0000
# 6 0.0000 0.0000 0.0000 0.0000 0.0000 19.0797
#
#
#
# Elastic Compliance Matrix: (Units=1/GPa)
#
#
# Indices 1 2 3 4 5 6 
#
# 1 0.008829 -0.003238 -0.001225 0.000000 0.000000 0.000000
# 2 -0.003238 0.012285 -0.006109 0.000000 0.000000 0.000000
# 3 -0.001225 -0.006109 0.013342 0.000000 0.000000 0.000000
# 4 0.000000 0.000000 0.000000 0.025083 0.000000 0.000000
# 5 0.000000 0.000000 0.000000 0.000000 0.018774 0.000000
# 6 0.000000 0.000000 0.000000 0.000000 0.000000 0.052412
#
#
# Mechanical properties :
#
#
# Convention : Reuss Voigt Hill
#
# Bulk Modulus (GPa) = 75.11675 76.56774 75.84224
# Shear Modulus (GPa) = 31.98875 36.89437 34.44156
#
# Velocity S-wave (km/s) = 4.01609 4.31305 4.16721
# Velocity P-wave (km/s) = 7.70582 7.96299 7.83546
#
# Compressibility (1/GPa) = 0.01331261
#
# Stress axis : x y z
#
# Youngs Moduli (GPa) = 113.26489 81.40079 74.94989
#
# Poissons Ratio (x) = 0.26358 0.09179
# Poissons Ratio (y) = 0.36676 0.45786
# Poissons Ratio (z) = 0.13872 0.49727
#
# Static dielectric constant tensor:
#      x y z
#    x 1.686320 0.000000 0.000000 
#    y 0.000000 1.664820 0.000000 
#    z 0.000000 0.000000 2.243950 
# 
# From -- ./inp_files/13583.got.cif
#   From: 2010.05.17/outbox.cif.g08.bks.cpg/sg60_7_cif.got.tgz:13583.got - 2010.06.03 14:59:27.
