data_PCOD9458776
_publ_section_title
;
Structure prediction by ZEFSAII (Michael W. Deem and Ramdas Pophale) SiO2 
 PCOD9458776
Probable space group: P B C N
;
_chemical_formula_sum "Si O2"
_cell_formula_units_Z 56
_cell_length_a 21.831206
_cell_length_b 10.637271
_cell_length_c 9.214743
_cell_angle_alpha 90.000000
_cell_angle_beta 90.000000
_cell_angle_gamma 90.000000
_cell_volume 2139.888666
_symmetry_space_group_name_H-M "P B C N"
_symmetry_group_IT_number 60
_symmetry_cell_setting 'orthorhombic'
loop_
_space_group_symop_operation_xyz
x,y,z
1/2-x,1/2-y,1/2+z
1/2+x,1/2-y,-z
-x,y,1/2-z
-x,-y,-z
1/2+x,1/2+y,1/2-z
1/2-x,1/2+y,z
x,-y,1/2+z
loop_
_atom_site_type_symbol
_atom_site_label
_atom_site_fract_x
_atom_site_fract_y
_atom_site_fract_z
Si Si1 0.154705 0.347131 0.017897
Si Si2 0.898213 0.547004 0.703793
Si Si3 0.136366 0.075368 0.130268
Si Si4 0.765790 0.212387 0.167494
Si Si5 0.458656 0.249477 0.000168
Si Si6 0.500000 0.121810 0.250000
Si Si7 0.000000 0.927948 0.750000
Si Si8 0.171350 0.197939 0.590261
O O1 0.150158 0.397714 0.182537
O O2 0.132400 0.201264 0.030023
O O3 0.122633 0.444169 0.911005
O O4 0.222599 0.350363 0.953758
O O5 0.937120 0.652479 0.622616
O O6 0.946718 0.470861 0.800997
O O7 0.187565 0.123864 0.245654
O O8 0.070803 0.035128 0.200912
O O9 0.164773 0.950961 0.059431
O O10 0.716520 0.273612 0.276337
O O11 0.808343 0.282950 0.048979
O O12 0.511160 0.205183 0.108878
O O13 0.400113 0.267385 0.105329
O O14 0.481026 0.363589 0.902698
#
# Coordination Sequence:
#
# PCOD9458776 Si02
#       8
#     8   8   8   8   8   4   4   8
#     4  12  27  49  82 119 165 212 283 348 431 492
#     4  12  25  47  78 119 159 221 269 348 415 501
#     4  12  29  53  86 124 166 232 278 353 430 520
#     4  12  28  54  80 122 156 221 277 357 423 509
#     4  12  26  49  78 121 164 222 279 347 422 514
#     4  12  25  45  76 116 166 209 279 332 408 500
#     4  12  25  51  84 116 182 217 285 336 432 522
#     4  12  30  55  84 119 168 210 294 346 439 511
#
# _framework density 26.169585999999999
#
# number of rings (size 3 to 8) (size 9 to 14) (size 15 to 20)
#    0.000    0.000    5.714    2.571    4.000    1.143 
#    0.000    0.000    0.000    0.000    0.000    0.000 
#    0.000    0.000    0.000    0.000    0.000    0.000 
#
# Total GULP energy -312463.976423 kJ/mol
# GULP energy per Si atom -5579.713865 kJ/mol
# Density = 2.611002 g / cm^3
# Si number density = 26.169586 Si / 1000 Ang^3
#
#
#
# Elastic Constant Matrix: (Units=GPa)
#
#
# Indices 1 2 3 4 5 6 
#
# 1 140.7707 45.5486 52.6570 0.0000 0.0000 0.0000
# 2 45.5486 101.6795 49.5300 0.0000 0.0000 0.0000
# 3 52.6570 49.5300 120.0449 0.0000 0.0000 0.0000
# 4 0.0000 0.0000 0.0000 15.3924 0.0000 0.0000
# 5 0.0000 0.0000 0.0000 0.0000 53.9597 0.0000
# 6 0.0000 0.0000 0.0000 0.0000 0.0000 28.0839
#
#
#
# Elastic Compliance Matrix: (Units=1/GPa)
#
#
# Indices 1 2 3 4 5 6 
#
# 1 0.009034 -0.002649 -0.002870 0.000000 0.000000 0.000000
# 2 -0.002649 0.013085 -0.004237 0.000000 0.000000 0.000000
# 3 -0.002870 -0.004237 0.011337 0.000000 0.000000 0.000000
# 4 0.000000 0.000000 0.000000 0.064967 0.000000 0.000000
# 5 0.000000 0.000000 0.000000 0.000000 0.018532 0.000000
# 6 0.000000 0.000000 0.000000 0.000000 0.000000 0.035608
#
#
# Mechanical properties :
#
#
# Convention : Reuss Voigt Hill
#
# Bulk Modulus (GPa) = 71.70950 73.10735 72.40843
# Shear Modulus (GPa) = 28.29263 33.80451 31.04857
#
# Velocity S-wave (km/s) = 3.29162 3.59799 3.44821
# Velocity P-wave (km/s) = 6.47361 6.72736 6.60170
#
# Compressibility (1/GPa) = 0.01394515
#
# Stress axis : x y z
#
# Youngs Moduli (GPa) = 110.68768 76.42089 88.20495
#
# Poissons Ratio (x) = 0.20245 0.25314
# Poissons Ratio (y) = 0.29322 0.37372
# Poissons Ratio (z) = 0.31766 0.32379
#
# Static dielectric constant tensor:
#      x y z
#    x 3.046390 0.000000 0.000000 
#    y 0.000000 2.072090 0.000000 
#    z 0.000000 0.000000 2.067580 
# 
# From -- ./inp_files/7544.got.cif
#   From: 2010.05.17/outbox.cif.g08.bks.cpg/sg60_4_cif.got.tgz:7544.got - 2010.06.03 14:59:27.
