data_PCOD9458148
_publ_section_title
;
Structure prediction by ZEFSAII (Michael W. Deem and Ramdas Pophale) SiO2 
 PCOD9458148
Probable space group: P B C N
;
_chemical_formula_sum "Si O2"
_cell_formula_units_Z 48
_cell_length_a 14.187273
_cell_length_b 10.512884
_cell_length_c 15.080139
_cell_angle_alpha 90.000000
_cell_angle_beta 90.000000
_cell_angle_gamma 90.000000
_cell_volume 2249.189994
_symmetry_space_group_name_H-M "P B C N"
_symmetry_group_IT_number 60
_symmetry_cell_setting 'orthorhombic'
loop_
_space_group_symop_operation_xyz
x,y,z
1/2-x,1/2-y,1/2+z
1/2+x,1/2-y,-z
-x,y,1/2-z
-x,-y,-z
1/2+x,1/2+y,1/2-z
1/2-x,1/2+y,z
x,-y,1/2+z
loop_
_atom_site_type_symbol
_atom_site_label
_atom_site_fract_x
_atom_site_fract_y
_atom_site_fract_z
Si Si1 0.777399 0.987471 0.986227
Si Si2 0.930111 0.734980 0.675044
Si Si3 0.529761 0.513478 0.397522
Si Si4 0.741592 0.767948 0.607259
Si Si5 0.420015 0.899818 0.513103
Si Si6 0.468873 0.245120 0.344194
O O1 0.780906 0.863850 0.052462
O O2 0.779044 0.119877 0.041479
O O3 0.672448 0.967868 0.949990
O O4 0.857103 0.985321 0.910485
O O5 0.817703 0.762447 0.688724
O O6 0.912540 0.656182 0.585328
O O7 0.000000 0.677397 0.750000
O O8 0.988288 0.859470 0.645032
O O9 0.500000 0.500000 0.500000
O O10 0.481354 0.397209 0.346618
O O11 0.636520 0.802266 0.638123
O O12 0.458847 0.796437 0.580068
O O13 0.500000 0.000000 0.500000
O O14 0.500000 0.193943 0.250000
#
# Coordination Sequence:
#
# PCOD9458148 Si02
#       6
#     8   8   8   8   8   8
#     4  11  22  39  74  95 132 179 229 269 347 405
#     4  11  24  41  68  98 132 171 229 277 331 403
#     4  12  20  42  70  97 126 178 220 271 335 408
#     4  11  21  42  64  98 134 181 216 283 343 396
#     4  11  23  43  65  94 134 179 214 276 337 395
#     4  12  25  43  67  99 140 173 224 281 341 401
#
# _framework density 21.341017000000001
#
# number of rings (size 3 to 8) (size 9 to 14) (size 15 to 20)
#    0.000    0.667    6.667    1.500    0.000    2.000 
#    3.000    0.000    0.000    0.000    0.000    0.000 
#    0.000    0.000    0.000    0.000    0.000    0.000 
#
# Total GULP energy -267482.822303 kJ/mol
# GULP energy per Si atom -5572.558798 kJ/mol
# Density = 2.129244 g / cm^3
# Si number density = 21.341017 Si / 1000 Ang^3
#
#
#
# Elastic Constant Matrix: (Units=GPa)
#
#
# Indices 1 2 3 4 5 6 
#
# 1 158.3141 -6.2820 6.7096 0.0000 0.0000 0.0000
# 2 -6.2820 63.2039 -15.4402 0.0000 0.0000 0.0000
# 3 6.7096 -15.4402 53.7917 0.0000 0.0000 0.0000
# 4 0.0000 0.0000 0.0000 -629.8819 0.0000 0.0000
# 5 0.0000 0.0000 0.0000 0.0000 27.6842 0.0000
# 6 0.0000 0.0000 0.0000 0.0000 0.0000 -69.0480
#
#
#
# Elastic Compliance Matrix: (Units=1/GPa)
#
#
# Indices 1 2 3 4 5 6 
#
# 1 0.006363 0.000472 -0.000658 0.000000 0.000000 0.000000
# 2 0.000472 0.017050 0.004835 0.000000 0.000000 0.000000
# 3 -0.000658 0.004835 0.020060 0.000000 0.000000 0.000000
# 4 0.000000 0.000000 0.000000 -0.001588 0.000000 0.000000
# 5 0.000000 0.000000 0.000000 0.000000 0.036122 0.000000
# 6 0.000000 0.000000 0.000000 0.000000 0.000000 -0.014483
#
#
# Mechanical properties :
#
#
# Convention : Reuss Voigt Hill
#
# Bulk Modulus (GPa) = 18.95011 27.25380 23.10196
# Shear Modulus (GPa) = 69.62059 -114.89433 -22.63687
#
# Velocity S-wave (km/s) = 5.71784 -7.34535 -3.26040
# Velocity P-wave (km/s) = 7.24504 7.69029 1.82346
#
# Compressibility (1/GPa) = 0.05277013
#
# Stress axis : x y z
#
# Youngs Moduli (GPa) = 157.15427 58.65144 49.84996
#
# Poissons Ratio (x) = -0.02766 0.03282
# Poissons Ratio (y) = -0.07412 -0.24103
# Poissons Ratio (z) = 0.10346 -0.28359
#
# Static dielectric constant tensor:
#      x y z
#    x 1.403760 0.000000 0.000000 
#    y 0.000000 2.731720 0.000000 
#    z 0.000000 0.000000 4.191350 
# 
# From -- ./inp_files/16785.got.cif
#   From: 2010.05.17/outbox.cif.g08.bks.cpg/sg60_9_cif.got.tgz:16785.got - 2010.06.03 14:59:27.
