data_PCOD9458455
_publ_section_title
;
Structure prediction by ZEFSAII (Michael W. Deem and Ramdas Pophale) SiO2 
 PCOD9458455
Probable space group: P B C N
;
_chemical_formula_sum "Si O2"
_cell_formula_units_Z 24
_cell_length_a 5.389632
_cell_length_b 19.901747
_cell_length_c 8.781673
_cell_angle_alpha 90.000000
_cell_angle_beta 90.000000
_cell_angle_gamma 90.000000
_cell_volume 941.949403
_symmetry_space_group_name_H-M "P B C N"
_symmetry_group_IT_number 60
_symmetry_cell_setting 'orthorhombic'
loop_
_space_group_symop_operation_xyz
x,y,z
1/2-x,1/2-y,1/2+z
1/2+x,1/2-y,-z
-x,y,1/2-z
-x,-y,-z
1/2+x,1/2+y,1/2-z
1/2-x,1/2+y,z
x,-y,1/2+z
loop_
_atom_site_type_symbol
_atom_site_label
_atom_site_fract_x
_atom_site_fract_y
_atom_site_fract_z
Si Si1 0.017874 0.268529 0.084330
Si Si2 0.750828 0.456292 0.670050
Si Si3 0.233429 0.095388 0.668321
O O1 0.080514 0.346630 0.113789
O O2 0.000000 0.235306 0.250000
O O3 0.256475 0.240285 0.997490
O O4 0.500000 0.431773 0.750000
O O5 0.714703 0.444429 0.491398
O O6 0.768329 0.536295 0.706317
O O7 0.000000 0.427447 0.750000
O O8 0.000000 0.132296 0.750000
#
# Coordination Sequence:
#
# PCOD9458455 Si02
#       3
#     8   8   8
#     4  12  28  51  77 109 148 200 255 311 369 441
#     4  11  24  42  69 108 148 192 236 297 371 441
#     4  11  24  47  75 109 150 190 242 306 373 446
#
# _framework density 25.479075000000002
#
# number of rings (size 3 to 8) (size 9 to 14) (size 15 to 20)
#    0.000    0.667    0.000    9.000    0.000   12.000 
#    0.000    0.000    0.000    0.000    0.000    0.000 
#    0.000    0.000    0.000    0.000    0.000    0.000 
#
# Total GULP energy -134102.950479 kJ/mol
# GULP energy per Si atom -5587.622937 kJ/mol
# Density = 2.542108 g / cm^3
# Si number density = 25.479075 Si / 1000 Ang^3
#
#
#
# Elastic Constant Matrix: (Units=GPa)
#
#
# Indices 1 2 3 4 5 6 
#
# 1 199.2985 17.2133 95.2277 0.0000 0.0000 0.0000
# 2 17.2133 98.9934 61.7361 0.0000 0.0000 0.0000
# 3 95.2277 61.7361 204.0979 0.0000 0.0000 0.0000
# 4 0.0000 0.0000 0.0000 -6.5121 0.0000 0.0000
# 5 0.0000 0.0000 0.0000 0.0000 72.8504 0.0000
# 6 0.0000 0.0000 0.0000 0.0000 0.0000 7.5838
#
#
#
# Elastic Compliance Matrix: (Units=1/GPa)
#
#
# Indices 1 2 3 4 5 6 
#
# 1 0.006528 0.000942 -0.003331 0.000000 0.000000 0.000000
# 2 0.000942 0.012586 -0.004247 0.000000 0.000000 0.000000
# 3 -0.003331 -0.004247 0.007738 0.000000 0.000000 0.000000
# 4 0.000000 0.000000 0.000000 -0.153560 0.000000 0.000000
# 5 0.000000 0.000000 0.000000 0.000000 0.013727 0.000000
# 6 0.000000 0.000000 0.000000 0.000000 0.000000 0.131859
#
#
# Mechanical properties :
#
#
# Convention : Reuss Voigt Hill
#
# Bulk Modulus (GPa) = 73.62907 94.52710 84.07808
# Shear Modulus (GPa) = 136.33107 36.66528 86.49817
#
# Velocity S-wave (km/s) = 7.32279 3.79758 5.83287
# Velocity P-wave (km/s) = 10.02289 7.51061 8.85628
#
# Compressibility (1/GPa) = 0.01358159
#
# Stress axis : x y z
#
# Youngs Moduli (GPa) = 153.19451 79.45175 129.23004
#
# Poissons Ratio (x) = -0.07485 0.43042
# Poissons Ratio (y) = -0.14432 0.54880
# Poissons Ratio (z) = 0.51023 0.33740
#
# Static dielectric constant tensor:
#      x y z
#    x 3.292020 0.000000 0.000000 
#    y 0.000000 2.009820 0.000000 
#    z 0.000000 0.000000 1.981900 
# 
# From -- ./inp_files/2884.got.cif
#   From: 2010.05.17/outbox.cif.g08.bks.cpg/sg60_2_cif.got.tgz:2884.got - 2010.06.03 14:59:27.
