data_PCOD9458870
_publ_section_title
;
Structure prediction by ZEFSAII (Michael W. Deem and Ramdas Pophale) SiO2 
 PCOD9458870
Probable space group: P B C N
;
_chemical_formula_sum "Si O2"
_cell_formula_units_Z 48
_cell_length_a 9.000000
_cell_length_b 30.000000
_cell_length_c 9.000000
_cell_angle_alpha 90.000000
_cell_angle_beta 90.000000
_cell_angle_gamma 90.000000
_cell_volume 2430.000000
_symmetry_space_group_name_H-M "P B C N"
_symmetry_group_IT_number 60
_symmetry_cell_setting 'orthorhombic'
loop_
_space_group_symop_operation_xyz
x,y,z
1/2-x,1/2-y,1/2+z
1/2+x,1/2-y,-z
-x,y,1/2-z
-x,-y,-z
1/2+x,1/2+y,1/2-z
1/2-x,1/2+y,z
x,-y,1/2+z
loop_
_atom_site_type_symbol
_atom_site_label
_atom_site_fract_x
_atom_site_fract_y
_atom_site_fract_z
Si Si1 0.335759 0.698605 0.715673
Si Si2 0.000000 0.206549 0.250000
Si Si3 0.834882 0.618618 0.309484
Si Si4 0.881200 0.937376 0.998879
Si Si5 0.000000 0.994740 0.250000
Si Si6 0.857167 0.134479 0.031144
Si Si7 0.734861 0.216440 0.445101
O O1 0.500000 0.680790 0.750000
O O2 0.274474 0.659111 0.607049
O O3 0.364243 0.742694 0.613436
O O4 0.261201 0.709879 0.877406
O O5 0.075248 0.174605 0.371058
O O6 0.117019 0.231560 0.146839
O O7 0.766342 0.587258 0.438344
O O8 0.741619 0.611434 0.157766
O O9 0.814224 0.669250 0.373423
O O10 0.000000 0.611888 0.250000
O O11 0.010795 0.899638 0.008405
O O12 0.887220 0.963451 0.155503
O O13 0.923260 0.973341 0.871488
#
# Coordination Sequence:
#
# PCOD9458870 Si02
#       7
#     8   4   8   8   4   8   8
#     4  12  24  38  60  87 119 168 217 266 307 365
#     4  10  17  36  60  82 116 162 212 260 298 367
#     4  11  22  41  63  90 130 169 201 257 323 383
#     4  11  20  41  68  97 125 163 211 265 319 372
#     4  10  23  36  72 100 122 154 222 266 308 385
#     4  11  20  40  64  89 123 167 213 261 310 373
#     4  11  23  38  57  87 122 163 216 255 312 367
#
# _framework density 19.753086
#
# number of rings (size 3 to 8) (size 9 to 14) (size 15 to 20)
#    0.000    1.000    6.667    2.500    3.500    0.000 
#    0.000    0.833    0.000    0.000    0.000    0.000 
#    0.000    0.000    0.000    0.000    0.000    0.000 
#
# Total GULP energy -267425.909006 kJ/mol
# GULP energy per Si atom -5571.373104 kJ/mol
# Density = 1.970813 g / cm^3
# Si number density = 19.753086 Si / 1000 Ang^3
#
#
#
# Elastic Constant Matrix: (Units=GPa)
#
#
# Indices 1 2 3 4 5 6 
#
# 1 50.5381 17.7581 22.9923 0.0000 0.0000 0.0000
# 2 17.7581 83.9670 52.5629 0.0000 0.0000 0.0000
# 3 22.9923 52.5629 140.7386 0.0000 0.0000 0.0000
# 4 0.0000 0.0000 0.0000 45.1972 0.0000 0.0000
# 5 0.0000 0.0000 0.0000 0.0000 25.3891 0.0000
# 6 0.0000 0.0000 0.0000 0.0000 0.0000 15.1582
#
#
#
# Elastic Compliance Matrix: (Units=1/GPa)
#
#
# Indices 1 2 3 4 5 6 
#
# 1 0.021990 -0.003135 -0.002422 0.000000 0.000000 0.000000
# 2 -0.003135 0.015990 -0.005460 0.000000 0.000000 0.000000
# 3 -0.002422 -0.005460 0.009540 0.000000 0.000000 0.000000
# 4 0.000000 0.000000 0.000000 0.022125 0.000000 0.000000
# 5 0.000000 0.000000 0.000000 0.000000 0.039387 0.000000
# 6 0.000000 0.000000 0.000000 0.000000 0.000000 0.065971
#
#
# Mechanical properties :
#
#
# Convention : Reuss Voigt Hill
#
# Bulk Modulus (GPa) = 39.23417 51.31893 45.27655
# Shear Modulus (GPa) = 24.32701 29.27759 26.80230
#
# Velocity S-wave (km/s) = 3.51316 3.85408 3.68756
# Velocity P-wave (km/s) = 6.03007 6.77066 6.41107
#
# Compressibility (1/GPa) = 0.02548799
#
# Stress axis : x y z
#
# Youngs Moduli (GPa) = 45.47453 62.53794 104.81975
#
# Poissons Ratio (x) = 0.19604 0.25385
# Poissons Ratio (y) = 0.14255 0.57231
# Poissons Ratio (z) = 0.11013 0.34145
#
# Static dielectric constant tensor:
#      x y z
#    x 1.817920 0.000000 0.000000 
#    y 0.000000 1.709180 0.000000 
#    z 0.000000 0.000000 1.757090 
# 
# From -- ./inp_files/4285.got.cif
#   From: 2010.05.17/outbox.ucp.g08.bks.cvg/sg60_3_cif.got.tgz:4285.got - 2010.06.11 16:26:41.
