data_PCOD9458369
_publ_section_title
;
Structure prediction by ZEFSAII (Michael W. Deem and Ramdas Pophale) SiO2 
 PCOD9458369
Probable space group: P B C N
;
_chemical_formula_sum "Si O2"
_cell_formula_units_Z 36
_cell_length_a 13.793913
_cell_length_b 9.338521
_cell_length_c 10.238943
_cell_angle_alpha 90.000000
_cell_angle_beta 90.000000
_cell_angle_gamma 90.000000
_cell_volume 1318.926844
_symmetry_space_group_name_H-M "P B C N"
_symmetry_group_IT_number 60
_symmetry_cell_setting 'orthorhombic'
loop_
_space_group_symop_operation_xyz
x,y,z
1/2-x,1/2-y,1/2+z
1/2+x,1/2-y,-z
-x,y,1/2-z
-x,-y,-z
1/2+x,1/2+y,1/2-z
1/2-x,1/2+y,z
x,-y,1/2+z
loop_
_atom_site_type_symbol
_atom_site_label
_atom_site_fract_x
_atom_site_fract_y
_atom_site_fract_z
Si Si1 0.000000 0.370717 0.250000
Si Si2 0.720661 0.521567 0.630295
Si Si3 0.234398 0.278567 0.692534
Si Si4 0.923316 0.799371 0.516536
Si Si5 0.107499 0.627050 0.517896
O O1 0.069446 0.269092 0.337177
O O2 0.047561 0.457972 0.132074
O O3 0.733230 0.435886 0.766120
O O4 0.716050 0.685817 0.675319
O O5 0.629364 0.452541 0.551842
O O6 0.823721 0.477184 0.564223
O O7 0.144409 0.260593 0.596888
O O8 0.319374 0.216508 0.605652
O O9 0.030297 0.746519 0.468333
#
# Coordination Sequence:
#
# PCOD9458369 Si02
#       5
#     4   8   8   8   8
#     4   8  16  44  66 100 144 184 248 294 374 444
#     4  11  23  43  68 102 140 186 247 303 369 447
#     4  11  23  43  68 102 140 186 247 303 369 447
#     4   9  20  42  69  97 143 191 233 308 363 448
#     4   9  20  42  69  97 143 191 233 308 363 448
#
# _framework density 27.294919
#
# number of rings (size 3 to 8) (size 9 to 14) (size 15 to 20)
#    1.333    0.889    2.222    0.000    0.000    8.000 
#    0.000   24.444    0.000    0.000    0.000    0.000 
#    0.000    0.000    0.000    0.000    0.000    0.000 
#
# Total GULP energy -200753.329143 kJ/mol
# GULP energy per Si atom -5576.481365 kJ/mol
# Density = 2.723279 g / cm^3
# Si number density = 27.294919 Si / 1000 Ang^3
#
#
#
# Elastic Constant Matrix: (Units=GPa)
#
#
# Indices 1 2 3 4 5 6 
#
# 1 160.6815 32.5710 18.6983 0.0000 0.0000 0.0000
# 2 32.5710 110.4697 20.9764 0.0000 0.0000 0.0000
# 3 18.6983 20.9764 81.3600 0.0000 0.0000 0.0000
# 4 0.0000 0.0000 0.0000 34.0948 0.0000 0.0000
# 5 0.0000 0.0000 0.0000 0.0000 64.5758 0.0000
# 6 0.0000 0.0000 0.0000 0.0000 0.0000 23.3751
#
#
#
# Elastic Compliance Matrix: (Units=1/GPa)
#
#
# Indices 1 2 3 4 5 6 
#
# 1 0.006709 -0.001772 -0.001085 0.000000 0.000000 0.000000
# 2 -0.001772 0.009986 -0.002167 0.000000 0.000000 0.000000
# 3 -0.001085 -0.002167 0.013099 0.000000 0.000000 0.000000
# 4 0.000000 0.000000 0.000000 0.029330 0.000000 0.000000
# 5 0.000000 0.000000 0.000000 0.000000 0.015486 0.000000
# 6 0.000000 0.000000 0.000000 0.000000 0.000000 0.042781
#
#
# Mechanical properties :
#
#
# Convention : Reuss Voigt Hill
#
# Bulk Modulus (GPa) = 50.64440 55.22252 52.93346
# Shear Modulus (GPa) = 37.30746 43.09351 40.20048
#
# Velocity S-wave (km/s) = 3.70107 3.97774 3.84190
# Velocity P-wave (km/s) = 6.07114 6.43212 6.25424
#
# Compressibility (1/GPa) = 0.01974552
#
# Stress axis : x y z
#
# Youngs Moduli (GPa) = 149.05453 100.13728 76.34041
#
# Poissons Ratio (x) = 0.17745 0.08283
# Poissons Ratio (y) = 0.26413 0.16546
# Poissons Ratio (z) = 0.16172 0.21704
#
# Static dielectric constant tensor:
#      x y z
#    x 2.334030 0.000000 0.000000 
#    y 0.000000 2.141940 0.000000 
#    z 0.000000 0.000000 2.168900 
# 
# From -- ./inp_files/11648.got.cif
#   From: 2010.05.17/outbox.cif.g08.bks.cpg/sg60_6_cif.got.tgz:11648.got - 2010.06.03 14:59:27.
