data_PCOD9458423
_publ_section_title
;
Structure prediction by ZEFSAII (Michael W. Deem and Ramdas Pophale) SiO2 
 PCOD9458423
Probable space group: P B C N
;
_chemical_formula_sum "Si O2"
_cell_formula_units_Z 32
_cell_length_a 7.128530
_cell_length_b 21.896483
_cell_length_c 7.880335
_cell_angle_alpha 90.000000
_cell_angle_beta 90.000000
_cell_angle_gamma 90.000000
_cell_volume 1230.039409
_symmetry_space_group_name_H-M "P B C N"
_symmetry_group_IT_number 60
_symmetry_cell_setting 'orthorhombic'
loop_
_space_group_symop_operation_xyz
x,y,z
1/2-x,1/2-y,1/2+z
1/2+x,1/2-y,-z
-x,y,1/2-z
-x,-y,-z
1/2+x,1/2+y,1/2-z
1/2-x,1/2+y,z
x,-y,1/2+z
loop_
_atom_site_type_symbol
_atom_site_label
_atom_site_fract_x
_atom_site_fract_y
_atom_site_fract_z
Si Si1 0.490032 0.811931 0.455801
Si Si2 0.319378 0.411850 0.415626
Si Si3 0.403434 0.673702 0.437699
Si Si4 0.349006 0.007904 0.149762
O O1 0.500000 0.809820 0.250000
O O2 0.326835 0.860620 0.478644
O O3 0.444202 0.742317 0.504737
O O4 0.679591 0.831311 0.550086
O O5 0.512022 0.375028 0.429881
O O6 0.327723 0.460673 0.568192
O O7 0.772938 0.450050 0.241507
O O8 0.500000 0.667079 0.250000
O O9 0.500000 0.049010 0.250000
O O10 0.500000 0.000000 0.000000
#
# Coordination Sequence:
#
# PCOD9458423 Si02
#       4
#     8   8   8   8
#     4  11  24  48  79 115 162 208 271 342 424 499
#     4  11  23  47  78 115 161 214 275 337 414 496
#     4  11  26  47  77 122 159 215 269 350 425 500
#     4   9  20  41  75 106 151 219 264 328 400 481
#
# _framework density 26.015425
#
# number of rings (size 3 to 8) (size 9 to 14) (size 15 to 20)
#    0.000    1.500    2.500    2.250    3.500    1.000 
#    0.000    3.750    0.000    1.500    0.000    0.000 
#    0.000    0.000    0.000    0.000    0.000    0.000 
#
# Total GULP energy -178305.619757 kJ/mol
# GULP energy per Si atom -5572.050617 kJ/mol
# Density = 2.595621 g / cm^3
# Si number density = 26.015425 Si / 1000 Ang^3
#
#
#
# Elastic Constant Matrix: (Units=GPa)
#
#
# Indices 1 2 3 4 5 6 
#
# 1 121.2791 57.3415 8.8510 0.0000 0.0000 0.0000
# 2 57.3415 156.5473 47.4684 0.0000 0.0000 0.0000
# 3 8.8510 47.4684 75.0466 0.0000 0.0000 0.0000
# 4 0.0000 0.0000 0.0000 21.4274 0.0000 0.0000
# 5 0.0000 0.0000 0.0000 0.0000 37.4067 0.0000
# 6 0.0000 0.0000 0.0000 0.0000 0.0000 32.1144
#
#
#
# Elastic Compliance Matrix: (Units=1/GPa)
#
#
# Indices 1 2 3 4 5 6 
#
# 1 0.010093 -0.004128 0.001421 0.000000 0.000000 0.000000
# 2 -0.004128 0.009592 -0.005580 0.000000 0.000000 0.000000
# 3 0.001421 -0.005580 0.016687 0.000000 0.000000 0.000000
# 4 0.000000 0.000000 0.000000 0.046669 0.000000 0.000000
# 5 0.000000 0.000000 0.000000 0.000000 0.026733 0.000000
# 6 0.000000 0.000000 0.000000 0.000000 0.000000 0.031139
#
#
# Mechanical properties :
#
#
# Convention : Reuss Voigt Hill
#
# Bulk Modulus (GPa) = 50.51178 64.46608 57.48893
# Shear Modulus (GPa) = 30.47151 34.13716 32.30433
#
# Velocity S-wave (km/s) = 3.42612 3.62634 3.52765
# Velocity P-wave (km/s) = 5.92531 6.50904 6.22402
#
# Compressibility (1/GPa) = 0.01979736
#
# Stress axis : x y z
#
# Youngs Moduli (GPa) = 99.07419 104.25505 59.92651
#
# Poissons Ratio (x) = 0.43035 -0.08513
# Poissons Ratio (y) = 0.40896 0.33440
# Poissons Ratio (z) = -0.14074 0.58176
#
# Static dielectric constant tensor:
#      x y z
#    x 2.201280 0.000000 0.000000 
#    y 0.000000 2.058010 0.000000 
#    z 0.000000 0.000000 2.113780 
# 
# From -- ./inp_files/8922.got.cif
#   From: 2010.05.17/outbox.cif.g08.bks.cpg/sg60_5_cif.got.tgz:8922.got - 2010.06.03 14:59:27.
