data_PCOD9458117
_publ_section_title
;
Structure prediction by ZEFSAII (Michael W. Deem and Ramdas Pophale) SiO2 
 PCOD9458117
Probable space group: P B C N
;
_chemical_formula_sum "Si O2"
_cell_formula_units_Z 48
_cell_length_a 31.096140
_cell_length_b 7.121207
_cell_length_c 8.305937
_cell_angle_alpha 90.000000
_cell_angle_beta 90.000000
_cell_angle_gamma 90.000000
_cell_volume 1839.283715
_symmetry_space_group_name_H-M "P B C N"
_symmetry_group_IT_number 60
_symmetry_cell_setting 'orthorhombic'
loop_
_space_group_symop_operation_xyz
x,y,z
1/2-x,1/2-y,1/2+z
1/2+x,1/2-y,-z
-x,y,1/2-z
-x,-y,-z
1/2+x,1/2+y,1/2-z
1/2-x,1/2+y,z
x,-y,1/2+z
loop_
_atom_site_type_symbol
_atom_site_label
_atom_site_fract_x
_atom_site_fract_y
_atom_site_fract_z
Si Si1 0.206496 0.268024 0.988881
Si Si2 0.882525 0.116810 0.950613
Si Si3 0.975962 0.380942 0.581967
Si Si4 0.619293 0.218486 0.088413
Si Si5 0.522224 0.629379 0.079580
Si Si6 0.701890 0.372811 0.644685
O O1 0.164115 0.388958 0.945845
O O2 0.253859 0.339087 0.951032
O O3 0.199659 0.098233 0.861784
O O4 0.205249 0.206235 0.175447
O O5 0.927378 0.148006 0.041008
O O6 0.840796 0.186304 0.048190
O O7 0.878918 0.889388 0.958792
O O8 0.884138 0.198457 0.770314
O O9 0.924825 0.390865 0.563143
O O10 0.000000 0.364149 0.750000
O O11 0.013776 0.375061 0.440686
O O12 0.979807 0.123464 0.546950
O O13 0.500000 0.614026 0.250000
#
# Coordination Sequence:
#
# PCOD9458117 Si02
#       6
#     8   8   8   8   8   8
#     4  11  23  43  68 100 133 176 213 277 325 399
#     4  11  21  38  67 100 128 166 221 275 321 384
#     4  12  26  47  61  91 134 176 216 270 327 395
#     4  11  22  40  68  96 132 168 223 268 334 387
#     4  12  23  38  68  97 129 168 220 269 320 379
#     4  11  23  42  68  98 137 167 222 267 334 385
#
# _framework density 26.097114999999999
#
# number of rings (size 3 to 8) (size 9 to 14) (size 15 to 20)
#    0.000    0.667    3.333    8.000    2.333    0.000 
#    3.000    0.000    0.000    0.000    0.000    0.000 
#    0.000    0.000    0.000    0.000    0.000    0.000 
#
# Total GULP energy -268156.596371 kJ/mol
# GULP energy per Si atom -5586.595758 kJ/mol
# Density = 2.603772 g / cm^3
# Si number density = 26.097115 Si / 1000 Ang^3
#
#
#
# Elastic Constant Matrix: (Units=GPa)
#
#
# Indices 1 2 3 4 5 6 
#
# 1 298.9596 71.5362 78.4172 0.0000 0.0000 0.0000
# 2 71.5362 131.7466 24.9485 0.0000 0.0000 0.0000
# 3 78.4172 24.9485 129.2395 0.0000 0.0000 0.0000
# 4 0.0000 0.0000 0.0000 30.5598 0.0000 0.0000
# 5 0.0000 0.0000 0.0000 0.0000 38.9485 0.0000
# 6 0.0000 0.0000 0.0000 0.0000 0.0000 42.8295
#
#
#
# Elastic Compliance Matrix: (Units=1/GPa)
#
#
# Indices 1 2 3 4 5 6 
#
# 1 0.004419 -0.001963 -0.002302 0.000000 0.000000 0.000000
# 2 -0.001963 0.008751 -0.000498 0.000000 0.000000 0.000000
# 3 -0.002302 -0.000498 0.009230 0.000000 0.000000 0.000000
# 4 0.000000 0.000000 0.000000 0.032723 0.000000 0.000000
# 5 0.000000 0.000000 0.000000 0.000000 0.025675 0.000000
# 6 0.000000 0.000000 0.000000 0.000000 0.000000 0.023348
#
#
# Mechanical properties :
#
#
# Convention : Reuss Voigt Hill
#
# Bulk Modulus (GPa) = 77.68123 101.08328 89.38225
# Shear Modulus (GPa) = 42.38610 48.13716 45.26163
#
# Velocity S-wave (km/s) = 4.03447 4.29947 4.16908
# Velocity P-wave (km/s) = 7.17868 7.96648 7.58282
#
# Compressibility (1/GPa) = 0.01287312
#
# Stress axis : x y z
#
# Youngs Moduli (GPa) = 226.32002 114.27714 108.33701
#
# Poissons Ratio (x) = 0.22436 0.24939
# Poissons Ratio (y) = 0.44433 0.05395
# Poissons Ratio (z) = 0.52099 0.05691
#
# Static dielectric constant tensor:
#      x y z
#    x 2.039130 0.000000 0.000000 
#    y 0.000000 2.838080 0.000000 
#    z 0.000000 0.000000 1.950210 
# 
# From -- ./inp_files/8441.got.cif
#   From: 2010.05.17/outbox.cif.g08.bks.cpg/sg60_5_cif.got.tgz:8441.got - 2010.06.03 14:59:27.
