data_PCOD9458866
_publ_section_title
;
Structure prediction by ZEFSAII (Michael W. Deem and Ramdas Pophale) SiO2 
 PCOD9458866
Probable space group: P B C N
;
_chemical_formula_sum "Si O2"
_cell_formula_units_Z 48
_cell_length_a 7.149974
_cell_length_b 20.803018
_cell_length_c 12.097539
_cell_angle_alpha 90.000000
_cell_angle_beta 90.000000
_cell_angle_gamma 90.000000
_cell_volume 1799.400506
_symmetry_space_group_name_H-M "P B C N"
_symmetry_group_IT_number 60
_symmetry_cell_setting 'orthorhombic'
loop_
_space_group_symop_operation_xyz
x,y,z
1/2-x,1/2-y,1/2+z
1/2+x,1/2-y,-z
-x,y,1/2-z
-x,-y,-z
1/2+x,1/2+y,1/2-z
1/2-x,1/2+y,z
x,-y,1/2+z
loop_
_atom_site_type_symbol
_atom_site_label
_atom_site_fract_x
_atom_site_fract_y
_atom_site_fract_z
Si Si1 0.266059 0.484916 0.860785
Si Si2 0.833529 0.304229 0.381914
Si Si3 0.720217 0.520953 0.383450
Si Si4 0.847853 0.160338 0.426374
Si Si5 0.728624 0.156188 0.118650
Si Si6 0.281518 0.300920 0.342212
O O1 0.220282 0.512219 0.734939
O O2 0.492755 0.484507 0.873999
O O3 0.181069 0.414018 0.842798
O O4 0.215428 0.502628 0.990140
O O5 0.766663 0.231084 0.405918
O O6 0.807326 0.345374 0.488818
O O7 0.711560 0.327797 0.280090
O O8 0.056267 0.301088 0.363308
O O9 0.757898 0.598143 0.385655
O O10 0.869454 0.159091 0.558940
O O11 0.047900 0.160495 0.369023
O O12 0.657259 0.225957 0.156765
#
# Coordination Sequence:
#
# PCOD9458866 Si02
#       6
#     8   8   8   8   8   8
#     4   9  17  29  46  69  97 127 158 195 239 283
#     4   9  17  29  45  66  94 126 156 189 234 285
#     4   9  17  29  46  69  97 127 158 195 239 283
#     4   9  17  29  46  68  93 121 155 193 233 279
#     4   9  17  29  46  68  93 121 155 193 233 279
#     4   9  17  29  45  66  94 126 156 189 234 285
#
# _framework density 26.675550000000001
#
# number of rings (size 3 to 8) (size 9 to 14) (size 15 to 20)
#    0.000    3.000    0.000    1.000    0.000    6.000 
#    0.000    3.333    0.000    4.000    0.000    0.000 
#    0.000    0.000    0.000    0.000    0.000    0.000 
#
# Total GULP energy -267511.944051 kJ/mol
# GULP energy per Si atom -5573.165501 kJ/mol
# Density = 2.661484 g / cm^3
# Si number density = 26.675550 Si / 1000 Ang^3
#
#
#
# Elastic Constant Matrix: (Units=GPa)
#
#
# Indices 1 2 3 4 5 6 
#
# 1 99.7348 -5.8025 9.3374 0.0000 0.0000 0.0000
# 2 -5.8025 73.1519 22.1627 0.0000 0.0000 0.0000
# 3 9.3374 22.1627 233.6690 0.0000 0.0000 0.0000
# 4 0.0000 0.0000 0.0000 2.9233 0.0000 0.0000
# 5 0.0000 0.0000 0.0000 0.0000 8.4392 0.0000
# 6 0.0000 0.0000 0.0000 0.0000 0.0000 -3.7133
#
#
#
# Elastic Compliance Matrix: (Units=1/GPa)
#
#
# Indices 1 2 3 4 5 6 
#
# 1 0.010128 0.000953 -0.000495 0.000000 0.000000 0.000000
# 2 0.000953 0.014164 -0.001382 0.000000 0.000000 0.000000
# 3 -0.000495 -0.001382 0.004430 0.000000 0.000000 0.000000
# 4 0.000000 0.000000 0.000000 0.342078 0.000000 0.000000
# 5 0.000000 0.000000 0.000000 0.000000 0.118494 0.000000
# 6 0.000000 0.000000 0.000000 0.000000 0.000000 -0.269304
#
#
# Mechanical properties :
#
#
# Convention : Reuss Voigt Hill
#
# Bulk Modulus (GPa) = 37.20707 50.88345 44.04526
# Shear Modulus (GPa) = 21.66413 26.92039 24.29226
#
# Velocity S-wave (km/s) = 2.85289 3.18020 3.02098
# Velocity P-wave (km/s) = 4.98300 5.70975 5.35871
#
# Compressibility (1/GPa) = 0.02687661
#
# Stress axis : x y z
#
# Youngs Moduli (GPa) = 98.73213 70.59961 225.71435
#
# Poissons Ratio (x) = -0.06731 0.11177
# Poissons Ratio (y) = -0.09413 0.31183
# Poissons Ratio (z) = 0.04889 0.09754
#
# Static dielectric constant tensor:
#      x y z
#    x 2.166080 0.000000 0.000000 
#    y 0.000000 2.030780 0.000000 
#    z 0.000000 0.000000 2.215470 
# 
# From -- ./inp_files/10107.got.cif
#   From: 2010.05.17/outbox.cif.g08.bks.cpg/sg60_6_cif.got.tgz:10107.got - 2010.06.03 14:59:27.
