data_PCOD9458458
_publ_section_title
;
Structure prediction by ZEFSAII (Michael W. Deem and Ramdas Pophale) SiO2 
 PCOD9458458
Probable space group: P B C N
;
_chemical_formula_sum "Si O2"
_cell_formula_units_Z 40
_cell_length_a 5.328954
_cell_length_b 12.429148
_cell_length_c 26.900742
_cell_angle_alpha 90.000000
_cell_angle_beta 90.000000
_cell_angle_gamma 90.000000
_cell_volume 1781.753375
_symmetry_space_group_name_H-M "P B C N"
_symmetry_group_IT_number 60
_symmetry_cell_setting 'orthorhombic'
loop_
_space_group_symop_operation_xyz
x,y,z
1/2-x,1/2-y,1/2+z
1/2+x,1/2-y,-z
-x,y,1/2-z
-x,-y,-z
1/2+x,1/2+y,1/2-z
1/2-x,1/2+y,z
x,-y,1/2+z
loop_
_atom_site_type_symbol
_atom_site_label
_atom_site_fract_x
_atom_site_fract_y
_atom_site_fract_z
Si Si1 0.179952 0.911900 0.476757
Si Si2 0.896223 0.806314 0.696730
Si Si3 0.026722 0.367717 0.383497
Si Si4 0.373648 0.785983 0.562580
Si Si5 0.911256 0.588130 0.339141
O O1 0.299989 0.931164 0.423032
O O2 0.353993 0.881269 0.522700
O O3 0.037879 0.801256 0.465253
O O4 0.000000 0.000000 0.500000
O O5 0.853108 0.706356 0.659301
O O6 0.644410 0.879599 0.696732
O O7 0.000000 0.767291 0.750000
O O8 0.136305 0.873725 0.677452
O O9 0.863667 0.284668 0.417271
O O10 0.889333 0.463350 0.354208
O O11 0.474366 0.842465 0.611679
#
# Coordination Sequence:
#
# PCOD9458458 Si02
#       5
#     8   8   8   8   8
#     4  12  25  39  70 101 145 192 238 280 352 429
#     4  11  26  49  73 102 137 179 239 304 363 424
#     4  11  26  44  69 101 143 187 236 297 356 426
#     4  11  24  43  63 104 143 191 228 291 339 433
#     4  11  26  45  73 103 139 183 233 291 358 423
#
# _framework density 22.449795999999999
#
# number of rings (size 3 to 8) (size 9 to 14) (size 15 to 20)
#    0.000    0.800    4.000    1.800   11.200    3.200 
#    0.000    0.000    0.000    0.000    0.000    0.000 
#    0.000    0.000    0.000    0.000    0.000    0.000 
#
# Total GULP energy -223165.408615 kJ/mol
# GULP energy per Si atom -5579.135215 kJ/mol
# Density = 2.239870 g / cm^3
# Si number density = 22.449796 Si / 1000 Ang^3
#
#
#
# Elastic Constant Matrix: (Units=GPa)
#
#
# Indices 1 2 3 4 5 6 
#
# 1 59.6841 13.7213 15.2605 0.0000 0.0000 0.0000
# 2 13.7213 71.9666 0.3091 0.0000 0.0000 0.0000
# 3 15.2605 0.3091 91.5739 0.0000 0.0000 0.0000
# 4 0.0000 0.0000 0.0000 15.7869 0.0000 0.0000
# 5 0.0000 0.0000 0.0000 0.0000 36.5882 0.0000
# 6 0.0000 0.0000 0.0000 0.0000 0.0000 22.2797
#
#
#
# Elastic Compliance Matrix: (Units=1/GPa)
#
#
# Indices 1 2 3 4 5 6 
#
# 1 0.018334 -0.003482 -0.003043 0.000000 0.000000 0.000000
# 2 -0.003482 0.014557 0.000531 0.000000 0.000000 0.000000
# 3 -0.003043 0.000531 0.011426 0.000000 0.000000 0.000000
# 4 0.000000 0.000000 0.000000 0.063344 0.000000 0.000000
# 5 0.000000 0.000000 0.000000 0.000000 0.027331 0.000000
# 6 0.000000 0.000000 0.000000 0.000000 0.000000 0.044884
#
#
# Mechanical properties :
#
#
# Convention : Reuss Voigt Hill
#
# Bulk Modulus (GPa) = 30.93416 31.31183 31.12299
# Shear Modulus (GPa) = 24.67426 27.85986 26.26706
#
# Velocity S-wave (km/s) = 3.31884 3.52658 3.42429
# Velocity P-wave (km/s) = 5.33811 5.52812 5.43395
#
# Compressibility (1/GPa) = 0.03232673
#
# Stress axis : x y z
#
# Youngs Moduli (GPa) = 54.54447 68.69535 87.52323
#
# Poissons Ratio (x) = 0.23923 0.26638
# Poissons Ratio (y) = 0.18995 -0.04649
# Poissons Ratio (z) = 0.16601 -0.03649
#
# Static dielectric constant tensor:
#      x y z
#    x 1.907320 0.000000 0.000000 
#    y 0.000000 1.837790 0.000000 
#    z 0.000000 0.000000 1.921530 
# 
# From -- ./inp_files/24721.got.cif
#   From: 2010.05.17/outbox.cif.g08.bks.cpg/sg60_13_cif.got.tgz:24721.got - 2010.06.03 14:59:27.
