data_PCOD9458657
_publ_section_title
;
Structure prediction by ZEFSAII (Michael W. Deem and Ramdas Pophale) SiO2 
 PCOD9458657
Probable space group: P B C N
;
_chemical_formula_sum "Si O2"
_cell_formula_units_Z 24
_cell_length_a 14.251625
_cell_length_b 15.884232
_cell_length_c 5.366497
_cell_angle_alpha 90.000000
_cell_angle_beta 90.000000
_cell_angle_gamma 90.000000
_cell_volume 1214.846757
_symmetry_space_group_name_H-M "P B C N"
_symmetry_group_IT_number 60
_symmetry_cell_setting 'orthorhombic'
loop_
_space_group_symop_operation_xyz
x,y,z
1/2-x,1/2-y,1/2+z
1/2+x,1/2-y,-z
-x,y,1/2-z
-x,-y,-z
1/2+x,1/2+y,1/2-z
1/2-x,1/2+y,z
x,-y,1/2+z
loop_
_atom_site_type_symbol
_atom_site_label
_atom_site_fract_x
_atom_site_fract_y
_atom_site_fract_z
Si Si1 0.192330 0.525839 0.745315
Si Si2 0.801668 0.724292 0.834597
Si Si3 0.500000 0.199591 0.750000
Si Si4 0.500000 0.915473 0.750000
O O1 0.241335 0.484593 0.509296
O O2 0.185204 0.623793 0.689335
O O3 0.092952 0.474188 0.769410
O O4 0.736129 0.754451 0.608359
O O5 0.907219 0.754925 0.786140
O O6 0.509173 0.142260 0.497630
#
# Coordination Sequence:
#
# PCOD9458657 Si02
#       4
#     8   8   4   4
#     4  12  20  35  58  90 122 154 195 247 306 379
#     4  12  25  39  56  92 131 165 197 241 314 374
#     4  12  23  40  64  90 134 155 194 257 308 378
#     4  12  19  36  64  98 116 145 198 257 340 360
#
# _framework density 19.755578
#
# number of rings (size 3 to 8) (size 9 to 14) (size 15 to 20)
#    0.000    0.000    6.667    6.000    0.000    0.000 
#    0.000    0.000    0.000    0.000    0.000   23.333 
#    0.000    0.000    0.000    0.000    0.000    0.000 
#
# Total GULP energy -133989.702002 kJ/mol
# GULP energy per Si atom -5582.904250 kJ/mol
# Density = 1.971061 g / cm^3
# Si number density = 19.755578 Si / 1000 Ang^3
#
#
#
# Elastic Constant Matrix: (Units=GPa)
#
#
# Indices 1 2 3 4 5 6 
#
# 1 50.6249 1.7722 -14.5066 0.0000 0.0000 0.0000
# 2 1.7722 33.1113 8.0275 0.0000 0.0000 0.0000
# 3 -14.5066 8.0275 117.6941 0.0000 0.0000 0.0000
# 4 0.0000 0.0000 0.0000 50.5784 0.0000 0.0000
# 5 0.0000 0.0000 0.0000 0.0000 18.5567 0.0000
# 6 0.0000 0.0000 0.0000 0.0000 0.0000 21.0621
#
#
#
# Elastic Compliance Matrix: (Units=1/GPa)
#
#
# Indices 1 2 3 4 5 6 
#
# 1 0.020575 -0.001745 0.002655 0.000000 0.000000 0.000000
# 2 -0.001745 0.030857 -0.002320 0.000000 0.000000 0.000000
# 3 0.002655 -0.002320 0.008982 0.000000 0.000000 0.000000
# 4 0.000000 0.000000 0.000000 0.019771 0.000000 0.000000
# 5 0.000000 0.000000 0.000000 0.000000 0.053889 0.000000
# 6 0.000000 0.000000 0.000000 0.000000 0.000000 0.047479
#
#
# Mechanical properties :
#
#
# Convention : Reuss Voigt Hill
#
# Bulk Modulus (GPa) = 17.36265 21.33515 19.34890
# Shear Modulus (GPa) = 24.56155 31.78193 28.17174
#
# Velocity S-wave (km/s) = 3.52983 4.01528 3.78036
# Velocity P-wave (km/s) = 5.04190 5.68504 5.37310
#
# Compressibility (1/GPa) = 0.05759491
#
# Stress axis : x y z
#
# Youngs Moduli (GPa) = 48.60263 32.40761 111.33292
#
# Poissons Ratio (x) = 0.05655 -0.29559
# Poissons Ratio (y) = 0.08481 0.25826
# Poissons Ratio (z) = -0.12904 0.07518
#
# Static dielectric constant tensor:
#      x y z
#    x 1.771020 0.000000 0.000000 
#    y 0.000000 1.700950 0.000000 
#    z 0.000000 0.000000 1.840220 
# 
# From -- ./inp_files/573.got.cif
#   From: 2010.05.17/outbox.cif.g08.bks.cpg/sg60_1_cif.got.tgz:573.got - 2010.06.03 14:59:27.
