data_PCOD9458846
_publ_section_title
;
Structure prediction by ZEFSAII (Michael W. Deem and Ramdas Pophale) SiO2 
 PCOD9458846
Probable space group: P B C N
;
_chemical_formula_sum "Si O2"
_cell_formula_units_Z 56
_cell_length_a 14.269812
_cell_length_b 5.743307
_cell_length_c 26.680335
_cell_angle_alpha 90.000000
_cell_angle_beta 90.000000
_cell_angle_gamma 90.000000
_cell_volume 2186.611165
_symmetry_space_group_name_H-M "P B C N"
_symmetry_group_IT_number 60
_symmetry_cell_setting 'orthorhombic'
loop_
_space_group_symop_operation_xyz
x,y,z
1/2-x,1/2-y,1/2+z
1/2+x,1/2-y,-z
-x,y,1/2-z
-x,-y,-z
1/2+x,1/2+y,1/2-z
1/2-x,1/2+y,z
x,-y,1/2+z
loop_
_atom_site_type_symbol
_atom_site_label
_atom_site_fract_x
_atom_site_fract_y
_atom_site_fract_z
Si Si1 0.533523 0.551678 0.826015
Si Si2 0.657467 0.240742 0.175030
Si Si3 0.970075 0.652922 0.625715
Si Si4 0.785554 0.113352 0.974406
Si Si5 0.788642 0.273602 0.783040
Si Si6 0.164746 0.969413 0.424417
Si Si7 0.022862 0.263101 0.563640
O O1 0.426103 0.582501 0.809509
O O2 0.604568 0.704264 0.794839
O O3 0.544212 0.644334 0.882714
O O4 0.540651 0.276325 0.835186
O O5 0.594549 0.024850 0.156609
O O6 0.721770 0.203129 0.222660
O O7 0.704824 0.341542 0.124880
O O8 0.899375 0.827799 0.598810
O O9 0.024267 0.531386 0.579705
O O10 0.737818 0.352505 0.953494
O O11 0.767245 0.071246 0.033698
O O12 0.895605 0.177161 0.971680
O O13 0.761385 0.532872 0.801841
O O14 0.083762 0.803531 0.448917
#
# Coordination Sequence:
#
# PCOD9458846 Si02
#       7
#     8   8   8   8   8   8   8
#     4   9  21  43  68  93 120 171 221 270 309 378
#     4   9  21  43  68  93 120 171 221 270 309 378
#     4   8  18  39  75  88 116 164 232 267 313 358
#     4  12  29  41  60  98 138 170 204 260 331 390
#     4  12  29  42  61 100 138 172 206 260 333 392
#     4   9  21  42  68  92 119 170 222 266 312 373
#     4   9  21  42  68  92 119 170 222 266 312 373
#
# _framework density 25.610405
#
# number of rings (size 3 to 8) (size 9 to 14) (size 15 to 20)
#    0.000    2.857    0.000    0.857   16.000    2.857 
#    0.000    0.000    0.000    0.000    0.000    0.000 
#    0.000    0.000    0.000    0.000    0.000    0.000 
#
# Total GULP energy -312368.042487 kJ/mol
# GULP energy per Si atom -5578.000759 kJ/mol
# Density = 2.555211 g / cm^3
# Si number density = 25.610405 Si / 1000 Ang^3
#
#
#
# Elastic Constant Matrix: (Units=GPa)
#
#
# Indices 1 2 3 4 5 6 
#
# 1 89.2341 21.0976 0.3950 0.0000 0.0000 0.0000
# 2 21.0976 121.8353 -3.5431 0.0000 0.0000 0.0000
# 3 0.3950 -3.5431 34.5882 0.0000 0.0000 0.0000
# 4 0.0000 0.0000 0.0000 19.7085 0.0000 0.0000
# 5 0.0000 0.0000 0.0000 0.0000 27.4056 0.0000
# 6 0.0000 0.0000 0.0000 0.0000 0.0000 30.7778
#
#
#
# Elastic Compliance Matrix: (Units=1/GPa)
#
#
# Indices 1 2 3 4 5 6 
#
# 1 0.011689 -0.002034 -0.000342 0.000000 0.000000 0.000000
# 2 -0.002034 0.008586 0.000903 0.000000 0.000000 0.000000
# 3 -0.000342 0.000903 0.029008 0.000000 0.000000 0.000000
# 4 0.000000 0.000000 0.000000 0.050739 0.000000 0.000000
# 5 0.000000 0.000000 0.000000 0.000000 0.036489 0.000000
# 6 0.000000 0.000000 0.000000 0.000000 0.000000 0.032491
#
#
# Mechanical properties :
#
#
# Convention : Reuss Voigt Hill
#
# Bulk Modulus (GPa) = 21.58109 31.28409 26.43259
# Shear Modulus (GPa) = 26.68171 30.75893 28.72032
#
# Velocity S-wave (km/s) = 3.23124 3.46935 3.35241
# Velocity P-wave (km/s) = 4.72929 5.31887 5.03273
#
# Compressibility (1/GPa) = 0.04633687
#
# Stress axis : x y z
#
# Youngs Moduli (GPa) = 85.55121 116.46485 34.47329
#
# Poissons Ratio (x) = 0.23690 0.01179
# Poissons Ratio (y) = 0.17402 -0.03112
# Poissons Ratio (z) = 0.02925 -0.10514
#
# Static dielectric constant tensor:
#      x y z
#    x 1.994010 0.000000 0.000000 
#    y 0.000000 2.256250 0.000000 
#    z 0.000000 0.000000 2.045740 
# 
# From -- ./inp_files/26151.got.cif
#   From: 2010.05.17/outbox.cif.g08.bks.cpg/sg60_14_cif.got.tgz:26151.got - 2010.06.03 14:59:27.
