data_PCOD9458697
_publ_section_title
;
Structure prediction by ZEFSAII (Michael W. Deem and Ramdas Pophale) SiO2 
 PCOD9458697
Probable space group: P B C N
;
_chemical_formula_sum "Si O2"
_cell_formula_units_Z 32
_cell_length_a 7.653098
_cell_length_b 9.704214
_cell_length_c 20.690482
_cell_angle_alpha 90.000000
_cell_angle_beta 90.000000
_cell_angle_gamma 90.000000
_cell_volume 1536.626249
_symmetry_space_group_name_H-M "P B C N"
_symmetry_group_IT_number 60
_symmetry_cell_setting 'orthorhombic'
loop_
_space_group_symop_operation_xyz
x,y,z
1/2-x,1/2-y,1/2+z
1/2+x,1/2-y,-z
-x,y,1/2-z
-x,-y,-z
1/2+x,1/2+y,1/2-z
1/2-x,1/2+y,z
x,-y,1/2+z
loop_
_atom_site_type_symbol
_atom_site_label
_atom_site_fract_x
_atom_site_fract_y
_atom_site_fract_z
Si Si1 0.147344 0.068049 0.631635
Si Si2 0.946415 0.239843 0.323358
Si Si3 0.302838 0.952596 0.989896
Si Si4 0.702816 0.308906 0.100380
O O1 0.296682 0.144172 0.672600
O O2 0.212060 0.085605 0.557270
O O3 0.965580 0.149341 0.641889
O O4 0.118741 0.905713 0.646021
O O5 0.000000 0.211516 0.250000
O O6 0.116210 0.298568 0.360832
O O7 0.312088 0.832540 0.937724
O O8 0.205093 0.076883 0.955501
O O9 0.500000 0.000000 0.000000
#
# Coordination Sequence:
#
# PCOD9458697 Si02
#       4
#     8   8   8   8
#     4  12  27  49  74 108 145 191 239 303 363 430
#     4  12  30  49  72 104 143 198 246 290 355 430
#     4  12  23  43  74 109 148 181 236 298 372 423
#     4  12  25  45  73 110 144 187 237 299 363 431
#
# _framework density 20.824842
#
# number of rings (size 3 to 8) (size 9 to 14) (size 15 to 20)
#    0.000    0.000    5.000    5.250    3.500    0.000 
#    0.000    0.000    0.000    0.000    0.000    0.000 
#    0.000    0.000    0.000    0.000    0.000    0.000 
#
# Total GULP energy -179041.989342 kJ/mol
# GULP energy per Si atom -5595.062167 kJ/mol
# Density = 2.077744 g / cm^3
# Si number density = 20.824842 Si / 1000 Ang^3
#
#
#
# Elastic Constant Matrix: (Units=GPa)
#
#
# Indices 1 2 3 4 5 6 
#
# 1 148.1437 21.3713 9.4482 0.0000 0.0000 0.0000
# 2 21.3713 93.3646 -2.8745 0.0000 0.0000 0.0000
# 3 9.4482 -2.8745 43.5312 0.0000 0.0000 0.0000
# 4 0.0000 0.0000 0.0000 17.5070 0.0000 0.0000
# 5 0.0000 0.0000 0.0000 0.0000 9.0124 0.0000
# 6 0.0000 0.0000 0.0000 0.0000 0.0000 43.3444
#
#
#
# Elastic Compliance Matrix: (Units=1/GPa)
#
#
# Indices 1 2 3 4 5 6 
#
# 1 0.007097 -0.001675 -0.001651 0.000000 0.000000 0.000000
# 2 -0.001675 0.011128 0.001098 0.000000 0.000000 0.000000
# 3 -0.001651 0.001098 0.023403 0.000000 0.000000 0.000000
# 4 0.000000 0.000000 0.000000 0.057120 0.000000 0.000000
# 5 0.000000 0.000000 0.000000 0.000000 0.110959 0.000000
# 6 0.000000 0.000000 0.000000 0.000000 0.000000 0.023071
#
#
# Mechanical properties :
#
#
# Convention : Reuss Voigt Hill
#
# Bulk Modulus (GPa) = 26.90185 37.88107 32.39146
# Shear Modulus (GPa) = 20.03007 31.11237 25.57122
#
# Velocity S-wave (km/s) = 3.10471 3.86943 3.50797
# Velocity P-wave (km/s) = 5.07922 6.18006 5.65648
#
# Compressibility (1/GPa) = 0.03717216
#
# Stress axis : x y z
#
# Youngs Moduli (GPa) = 140.90079 89.86330 42.72972
#
# Poissons Ratio (x) = 0.15056 0.07055
# Poissons Ratio (y) = 0.23606 -0.04694
# Poissons Ratio (z) = 0.23263 -0.09871
#
# Static dielectric constant tensor:
#      x y z
#    x 1.769430 0.000000 0.000000 
#    y 0.000000 1.715380 0.000000 
#    z 0.000000 0.000000 1.745050 
# 
# From -- ./inp_files/21887.got.cif
#   From: 2010.05.17/outbox.cif.g08.bks.cpg/sg60_11_cif.got.tgz:21887.got - 2010.06.03 14:59:27.
