data_PCOD9458990
_publ_section_title
;
Structure prediction by ZEFSAII (Michael W. Deem and Ramdas Pophale) SiO2 
 PCOD9458990
Probable space group: P B C A
;
_chemical_formula_sum "Si O2"
_cell_formula_units_Z 64
_cell_length_a 35.121618
_cell_length_b 14.486952
_cell_length_c 5.403847
_cell_angle_alpha 90.000000
_cell_angle_beta 90.000000
_cell_angle_gamma 90.000000
_cell_volume 2749.505422
_symmetry_space_group_name_H-M "P B C A"
_symmetry_group_IT_number 61
_symmetry_cell_setting 'orthorhombic'
loop_
_space_group_symop_operation_xyz
x,y,z
1/2-x,-y,1/2+z
1/2+x,1/2-y,-z
-x,1/2+y,1/2-z
-x,-y,-z
1/2+x,y,1/2-z
1/2-x,1/2+y,z
x,1/2-y,1/2+z
loop_
_atom_site_type_symbol
_atom_site_label
_atom_site_fract_x
_atom_site_fract_y
_atom_site_fract_z
Si Si1 0.448663 0.941401 0.497092
Si Si2 0.016123 0.807368 0.015726
Si Si3 0.252819 0.939503 0.058862
Si Si4 0.174472 0.931103 0.934212
Si Si5 0.920167 0.938845 0.502901
Si Si6 0.830675 0.538641 0.066208
Si Si7 0.395081 0.197672 0.556777
Si Si8 0.603303 0.242166 0.497400
O O1 0.490319 0.898234 0.485127
O O2 0.436666 0.986276 0.240226
O O3 0.419118 0.853468 0.502672
O O4 0.439298 0.984605 0.760170
O O5 0.007835 0.751228 0.763699
O O6 0.060901 0.827861 0.021951
O O7 0.294500 0.897627 0.005060
O O8 0.250652 0.982240 0.336897
O O9 0.214360 0.882137 0.007276
O O10 0.172678 0.012039 0.144051
O O11 0.136052 0.876977 0.985512
O O12 0.175487 0.959724 0.646341
O O13 0.927155 0.827064 0.496715
O O14 0.874642 0.938358 0.519329
O O15 0.389282 0.275755 0.344319
O O16 0.626317 0.249614 0.747508
#
# Coordination Sequence:
#
# PCOD9458990 Si02
#       8
#     8   8   8   8   8   8   8   8
#     4  10  17  28  45  67  95 130 165 206 249 284
#     4  10  18  30  49  73  96 122 168 218 253 293
#     4   8  16  30  51  75  94 121 160 197 231 274
#     4  10  19  35  55  74 102 130 162 211 256 297
#     4  10  18  27  44  69  97 127 163 201 239 289
#     4  10  19  32  52  77 101 133 173 205 238 288
#     4  10  21  35  55  80 100 124 162 211 266 312
#     4   8  14  23  37  57  83 116 151 189 230 266
#
# _framework density 23.276911999999999
#
# number of rings (size 3 to 8) (size 9 to 14) (size 15 to 20)
#    0.000    2.500    0.000    4.500    0.000    0.000 
#    0.000    0.000    0.000    9.000    0.000    0.000 
#    0.000    0.000    0.000    0.000    0.000    0.000 
#
# Total GULP energy -356665.962771 kJ/mol
# GULP energy per Si atom -5572.905668 kJ/mol
# Density = 2.322393 g / cm^3
# Si number density = 23.276912 Si / 1000 Ang^3
#
#
#
# Elastic Constant Matrix: (Units=GPa)
#
#
# Indices 1 2 3 4 5 6 
#
# 1 134.3202 -2.5166 23.7934 0.0000 0.0000 0.0000
# 2 -2.5166 24.6097 13.7761 0.0000 0.0000 0.0000
# 3 23.7934 13.7761 198.7007 0.0000 0.0000 0.0000
# 4 0.0000 0.0000 0.0000 18.7423 0.0000 0.0000
# 5 0.0000 0.0000 0.0000 0.0000 35.6651 0.0000
# 6 0.0000 0.0000 0.0000 0.0000 0.0000 38.8744
#
#
#
# Elastic Compliance Matrix: (Units=1/GPa)
#
#
# Indices 1 2 3 4 5 6 
#
# 1 0.007649 0.001347 -0.001009 0.000000 0.000000 0.000000
# 2 0.001347 0.042512 -0.003109 0.000000 0.000000 0.000000
# 3 -0.001009 -0.003109 0.005369 0.000000 0.000000 0.000000
# 4 0.000000 0.000000 0.000000 0.053355 0.000000 0.000000
# 5 0.000000 0.000000 0.000000 0.000000 0.028039 0.000000
# 6 0.000000 0.000000 0.000000 0.000000 0.000000 0.025724
#
#
# Mechanical properties :
#
#
# Convention : Reuss Voigt Hill
#
# Bulk Modulus (GPa) = 20.00457 47.52628 33.76542
# Shear Modulus (GPa) = 27.04855 40.16153 33.60504
#
# Velocity S-wave (km/s) = 3.41256 4.15828 3.80374
# Velocity P-wave (km/s) = 4.91327 6.59675 5.81624
#
# Compressibility (1/GPa) = 0.04998857
#
# Stress axis : x y z
#
# Youngs Moduli (GPa) = 130.73728 23.52261 186.25138
#
# Poissons Ratio (x) = -0.03169 0.18799
# Poissons Ratio (y) = -0.17613 0.57901
# Poissons Ratio (z) = 0.13196 0.07313
#
# Static dielectric constant tensor:
#      x y z
#    x 1.912490 0.000000 0.000000 
#    y 0.000000 1.968100 0.000000 
#    z 0.000000 0.000000 2.041740 
# 
# From -- ./inp_files/1507.got.cif
#   From: 2010.05.17/outbox.cif.g08.bks.cpg/sg61_1_cif.got.tgz:1507.got - 2010.06.03 15:17:17.
