data_PCOD9458084
_publ_section_title
;
Structure prediction by ZEFSAII (Michael W. Deem and Ramdas Pophale) SiO2 
 PCOD9458084
Probable space group: P B C N
;
_chemical_formula_sum "Si O2"
_cell_formula_units_Z 48
_cell_length_a 23.222110
_cell_length_b 12.323838
_cell_length_c 7.473291
_cell_angle_alpha 90.000000
_cell_angle_beta 90.000000
_cell_angle_gamma 90.000000
_cell_volume 2138.747683
_symmetry_space_group_name_H-M "P B C N"
_symmetry_group_IT_number 60
_symmetry_cell_setting 'orthorhombic'
loop_
_space_group_symop_operation_xyz
x,y,z
1/2-x,1/2-y,1/2+z
1/2+x,1/2-y,-z
-x,y,1/2-z
-x,-y,-z
1/2+x,1/2+y,1/2-z
1/2-x,1/2+y,z
x,-y,1/2+z
loop_
_atom_site_type_symbol
_atom_site_label
_atom_site_fract_x
_atom_site_fract_y
_atom_site_fract_z
Si Si1 0.907374 0.190308 0.240656
Si Si2 0.686730 0.505999 0.193954
Si Si3 0.778196 0.424289 0.927796
Si Si4 0.002678 0.870822 0.464124
Si Si5 0.694905 0.717785 0.782016
Si Si6 0.677708 0.842138 0.412134
O O1 0.048111 0.188439 0.424088
O O2 0.873254 0.299603 0.287587
O O3 0.863093 0.092745 0.198184
O O4 0.940355 0.836353 0.926919
O O5 0.716977 0.439795 0.031245
O O6 0.745718 0.571174 0.237301
O O7 0.665822 0.399858 0.306110
O O8 0.819036 0.528308 0.940048
O O9 0.811480 0.311579 0.930898
O O10 0.000000 0.851334 0.250000
O O11 0.000000 0.000000 0.500000
O O12 0.676811 0.774536 0.596882
O O13 0.762173 0.685739 0.811689
#
# Coordination Sequence:
#
# PCOD9458084 Si02
#       6
#     8   8   8   8   8   8
#     4  11  24  45  65  96 136 173 217 278 348 404
#     4  11  22  36  60  86 133 182 209 257 328 380
#     4  11  21  37  55  89 135 175 225 252 295 398
#     4  11  25  43  68  98 128 161 225 295 347 410
#     4  11  21  36  56  88 132 177 223 254 301 388
#     4  11  22  39  59  88 132 184 211 260 325 385
#
# _framework density 22.443038999999999
#
# number of rings (size 3 to 8) (size 9 to 14) (size 15 to 20)
#    0.000    1.000    6.667    0.000    4.667    0.000 
#    6.000    0.000    0.000    0.000    0.000    9.333 
#    0.000    1.333    0.000    0.000    0.000    0.000 
#
# Total GULP energy -267440.258590 kJ/mol
# GULP energy per Si atom -5571.672054 kJ/mol
# Density = 2.239196 g / cm^3
# Si number density = 22.443039 Si / 1000 Ang^3
#
#
#
# Elastic Constant Matrix: (Units=GPa)
#
#
# Indices 1 2 3 4 5 6 
#
# 1 67.6167 26.2696 34.5365 0.0000 0.0000 0.0000
# 2 26.2696 131.4408 5.5884 0.0000 0.0000 0.0000
# 3 34.5365 5.5884 130.1482 0.0000 0.0000 0.0000
# 4 0.0000 0.0000 0.0000 20.3093 0.0000 0.0000
# 5 0.0000 0.0000 0.0000 0.0000 32.1772 0.0000
# 6 0.0000 0.0000 0.0000 0.0000 0.0000 31.4386
#
#
#
# Elastic Compliance Matrix: (Units=1/GPa)
#
#
# Indices 1 2 3 4 5 6 
#
# 1 0.018598 -0.003514 -0.004784 0.000000 0.000000 0.000000
# 2 -0.003514 0.008286 0.000577 0.000000 0.000000 0.000000
# 3 -0.004784 0.000577 0.008928 0.000000 0.000000 0.000000
# 4 0.000000 0.000000 0.000000 0.049239 0.000000 0.000000
# 5 0.000000 0.000000 0.000000 0.000000 0.031078 0.000000
# 6 0.000000 0.000000 0.000000 0.000000 0.000000 0.031808
#
#
# Mechanical properties :
#
#
# Convention : Reuss Voigt Hill
#
# Bulk Modulus (GPa) = 49.09320 51.33276 50.21298
# Shear Modulus (GPa) = 29.38256 34.30577 31.84417
#
# Velocity S-wave (km/s) = 3.62222 3.91394 3.77090
# Velocity P-wave (km/s) = 6.27822 6.58387 6.43286
#
# Compressibility (1/GPa) = 0.02036942
#
# Stress axis : x y z
#
# Youngs Moduli (GPa) = 53.76925 120.69006 112.00241
#
# Poissons Ratio (x) = 0.42405 0.53586
# Poissons Ratio (y) = 0.18892 -0.06458
# Poissons Ratio (z) = 0.25725 -0.06959
#
# Static dielectric constant tensor:
#      x y z
#    x 1.826130 0.000000 0.000000 
#    y 0.000000 1.918000 0.000000 
#    z 0.000000 0.000000 2.390020 
# 
# From -- ./inp_files/8114.got.cif
#   From: 2010.05.17/outbox.cif.g08.bks.cpg/sg60_5_cif.got.tgz:8114.got - 2010.06.03 14:59:27.
