data_PCOD9458051
_publ_section_title
;
Structure prediction by ZEFSAII (Michael W. Deem and Ramdas Pophale) SiO2 
 PCOD9458051
Probable space group: P B C N
;
_chemical_formula_sum "Si O2"
_cell_formula_units_Z 48
_cell_length_a 15.684645
_cell_length_b 13.749025
_cell_length_c 9.050890
_cell_angle_alpha 90.000000
_cell_angle_beta 90.000000
_cell_angle_gamma 90.000000
_cell_volume 1951.811542
_symmetry_space_group_name_H-M "P B C N"
_symmetry_group_IT_number 60
_symmetry_cell_setting 'orthorhombic'
loop_
_space_group_symop_operation_xyz
x,y,z
1/2-x,1/2-y,1/2+z
1/2+x,1/2-y,-z
-x,y,1/2-z
-x,-y,-z
1/2+x,1/2+y,1/2-z
1/2-x,1/2+y,z
x,-y,1/2+z
loop_
_atom_site_type_symbol
_atom_site_label
_atom_site_fract_x
_atom_site_fract_y
_atom_site_fract_z
Si Si1 0.301248 0.331265 0.678706
Si Si2 0.899706 0.993829 0.005011
Si Si3 0.100983 0.865716 0.229362
Si Si4 0.559813 0.043351 0.871766
Si Si5 0.328891 0.046799 0.363506
Si Si6 0.770808 0.321013 0.123267
O O1 0.364050 0.402816 0.589402
O O2 0.247498 0.392758 0.796472
O O3 0.334336 0.241257 0.775426
O O4 0.240558 0.293981 0.546217
O O5 0.887615 0.964104 0.173529
O O6 0.873779 0.096177 0.933017
O O7 0.000000 0.000000 0.000000
O O8 0.176930 0.804252 0.301894
O O9 0.000000 0.835245 0.250000
O O10 0.500000 0.097503 0.750000
O O11 0.601721 0.960373 0.768206
O O12 0.635030 0.083806 0.978793
O O13 0.500000 0.000000 0.000000
O O14 0.299042 0.934078 0.379890
#
# Coordination Sequence:
#
# PCOD9458051 Si02
#       6
#     8   8   8   8   8   8
#     4  11  24  38  62 102 134 183 234 292 360 430
#     4   9  18  35  61  89 125 172 227 279 347 415
#     4   9  18  35  59  88 125 171 215 275 344 414
#     4   9  20  38  66  93 119 168 227 275 348 433
#     4  11  20  40  67  94 128 178 227 291 354 425
#     4  11  24  38  62  98 134 172 233 292 358 430
#
# _framework density 24.592538999999999
#
# number of rings (size 3 to 8) (size 9 to 14) (size 15 to 20)
#    0.000    2.000    3.333    0.000    2.333    1.333 
#    0.000    2.500    3.667    7.000    0.000    0.000 
#    0.000    0.000    0.000    0.000    0.000    0.000 
#
# Total GULP energy -267342.178040 kJ/mol
# GULP energy per Si atom -5569.628709 kJ/mol
# Density = 2.453657 g / cm^3
# Si number density = 24.592539 Si / 1000 Ang^3
#
#
#
# Elastic Constant Matrix: (Units=GPa)
#
#
# Indices 1 2 3 4 5 6 
#
# 1 107.1741 20.0963 47.1939 0.0000 0.0000 0.0000
# 2 20.0963 66.5961 34.4669 0.0000 0.0000 0.0000
# 3 47.1939 34.4669 172.5220 0.0000 0.0000 0.0000
# 4 0.0000 0.0000 0.0000 36.7602 0.0000 0.0000
# 5 0.0000 0.0000 0.0000 0.0000 54.3713 0.0000
# 6 0.0000 0.0000 0.0000 0.0000 0.0000 15.8680
#
#
#
# Elastic Compliance Matrix: (Units=1/GPa)
#
#
# Indices 1 2 3 4 5 6 
#
# 1 0.010827 -0.001934 -0.002575 0.000000 0.000000 0.000000
# 2 -0.001934 0.017093 -0.002886 0.000000 0.000000 0.000000
# 3 -0.002575 -0.002886 0.007077 0.000000 0.000000 0.000000
# 4 0.000000 0.000000 0.000000 0.027203 0.000000 0.000000
# 5 0.000000 0.000000 0.000000 0.000000 0.018392 0.000000
# 6 0.000000 0.000000 0.000000 0.000000 0.000000 0.063020
#
#
# Mechanical properties :
#
#
# Convention : Reuss Voigt Hill
#
# Bulk Modulus (GPa) = 49.48824 61.08958 55.28891
# Shear Modulus (GPa) = 30.27736 37.70225 33.98981
#
# Velocity S-wave (km/s) = 3.51260 3.91970 3.72172
# Velocity P-wave (km/s) = 6.05129 6.73647 6.40305
#
# Compressibility (1/GPa) = 0.02020682
#
# Stress axis : x y z
#
# Youngs Moduli (GPa) = 92.35820 58.50296 141.29494
#
# Poissons Ratio (x) = 0.11317 0.36389
# Poissons Ratio (y) = 0.17866 0.40774
# Poissons Ratio (z) = 0.23786 0.16882
#
# Static dielectric constant tensor:
#      x y z
#    x 2.106520 0.000000 0.000000 
#    y 0.000000 1.967320 0.000000 
#    z 0.000000 0.000000 2.086070 
# 
# From -- ./inp_files/6738.got.cif
#   From: 2010.05.17/outbox.cif.g08.bks.cpg/sg60_4_cif.got.tgz:6738.got - 2010.06.03 14:59:27.
