data_PCOD9458966
_publ_section_title
;
Structure prediction by ZEFSAII (Michael W. Deem and Ramdas Pophale) SiO2 
 PCOD9458966
Probable space group: P B C A
;
_chemical_formula_sum "Si O2"
_cell_formula_units_Z 48
_cell_length_a 5.182936
_cell_length_b 13.545473
_cell_length_c 27.705222
_cell_angle_alpha 90.000000
_cell_angle_beta 90.000000
_cell_angle_gamma 90.000000
_cell_volume 1945.053966
_symmetry_space_group_name_H-M "P B C A"
_symmetry_group_IT_number 61
_symmetry_cell_setting 'orthorhombic'
loop_
_space_group_symop_operation_xyz
x,y,z
1/2-x,-y,1/2+z
1/2+x,1/2-y,-z
-x,1/2+y,1/2-z
-x,-y,-z
1/2+x,y,1/2-z
1/2-x,1/2+y,z
x,1/2-y,1/2+z
loop_
_atom_site_type_symbol
_atom_site_label
_atom_site_fract_x
_atom_site_fract_y
_atom_site_fract_z
Si Si1 0.320711 0.030929 0.766219
Si Si2 0.671270 0.069532 0.630056
Si Si3 0.750302 0.475426 0.030455
Si Si4 0.016119 0.764540 0.473608
Si Si5 0.356412 0.259682 0.728689
Si Si6 0.327621 0.706563 0.626098
O O1 0.608864 0.989929 0.770686
O O2 0.173467 0.023116 0.817086
O O3 0.375371 0.144030 0.746943
O O4 0.727519 0.994181 0.586290
O O5 0.406531 0.128213 0.618484
O O6 0.910381 0.145935 0.635557
O O7 0.800177 0.358508 0.035949
O O8 0.500000 0.500000 0.000000
O O9 0.000000 0.500000 0.000000
O O10 0.753502 0.797481 0.502667
O O11 0.890924 0.732231 0.422599
O O12 0.639758 0.301312 0.735996
O O13 0.255523 0.262872 0.674247
#
# Coordination Sequence:
#
# PCOD9458966 Si02
#       6
#     8   8   8   8   8   8
#     4  10  15  24  40  68 106 138 159 207 283 351
#     4  11  18  29  48  73 106 148 171 219 283 341
#     4  11  23  39  57  81 112 152 195 241 284 339
#     4  11  23  39  57  81 112 152 195 241 284 339
#     4  10  15  24  40  68 106 138 159 207 283 351
#     4  11  18  29  48  73 106 148 171 219 283 341
#
# _framework density 24.677979000000001
#
# number of rings (size 3 to 8) (size 9 to 14) (size 15 to 20)
#    0.000    1.333    6.667    5.000    0.000    0.000 
#    0.000    0.000    0.000    0.000    0.000    0.000 
#    0.000   26.667    0.000    0.000    0.000    0.000 
#
# Total GULP energy -267537.520260 kJ/mol
# GULP energy per Si atom -5573.698339 kJ/mol
# Density = 2.462181 g / cm^3
# Si number density = 24.677979 Si / 1000 Ang^3
#
#
#
# Elastic Constant Matrix: (Units=GPa)
#
#
# Indices 1 2 3 4 5 6 
#
# 1 193.5567 1.0454 46.7244 0.0000 0.0000 0.0000
# 2 1.0454 22.0536 -8.2196 0.0000 0.0000 0.0000
# 3 46.7244 -8.2196 145.8070 0.0000 0.0000 0.0000
# 4 0.0000 0.0000 0.0000 17.3995 0.0000 0.0000
# 5 0.0000 0.0000 0.0000 0.0000 44.1322 0.0000
# 6 0.0000 0.0000 0.0000 0.0000 0.0000 35.1126
#
#
#
# Elastic Compliance Matrix: (Units=1/GPa)
#
#
# Indices 1 2 3 4 5 6 
#
# 1 0.005619 -0.000958 -0.001855 0.000000 0.000000 0.000000
# 2 -0.000958 0.046480 0.002927 0.000000 0.000000 0.000000
# 3 -0.001855 0.002927 0.007618 0.000000 0.000000 0.000000
# 4 0.000000 0.000000 0.000000 0.057473 0.000000 0.000000
# 5 0.000000 0.000000 0.000000 0.000000 0.022659 0.000000
# 6 0.000000 0.000000 0.000000 0.000000 0.000000 0.028480
#
#
# Mechanical properties :
#
#
# Convention : Reuss Voigt Hill
#
# Bulk Modulus (GPa) = 16.68141 48.94640 32.81390
# Shear Modulus (GPa) = 26.58413 40.78668 33.68540
#
# Velocity S-wave (km/s) = 3.28570 4.06982 3.69860
# Velocity P-wave (km/s) = 4.60095 6.47778 5.61829
#
# Compressibility (1/GPa) = 0.05994698
#
# Stress axis : x y z
#
# Youngs Moduli (GPa) = 177.95670 21.51447 131.27239
#
# Poissons Ratio (x) = 0.02060 0.24347
# Poissons Ratio (y) = 0.17042 -0.38425
# Poissons Ratio (z) = 0.33006 -0.06298
#
# Static dielectric constant tensor:
#      x y z
#    x 1.947570 0.000000 0.000000 
#    y 0.000000 2.396820 0.000000 
#    z 0.000000 0.000000 2.172200 
# 
# From -- ./inp_files/11250.got.cif
#   From: 2010.05.17/outbox.cif.g08.bks.cpg/sg61_6_cif.got.tgz:11250.got - 2010.06.03 15:17:17.
