data_PCOD9458212
_publ_section_title
;
Structure prediction by ZEFSAII (Michael W. Deem and Ramdas Pophale) SiO2 
 PCOD9458212
Probable space group: P B C N
;
_chemical_formula_sum "Si O2"
_cell_formula_units_Z 64
_cell_length_a 23.702235
_cell_length_b 9.814625
_cell_length_c 12.051050
_cell_angle_alpha 90.000000
_cell_angle_beta 90.000000
_cell_angle_gamma 90.000000
_cell_volume 2803.418266
_symmetry_space_group_name_H-M "P B C N"
_symmetry_group_IT_number 60
_symmetry_cell_setting 'orthorhombic'
loop_
_space_group_symop_operation_xyz
x,y,z
1/2-x,1/2-y,1/2+z
1/2+x,1/2-y,-z
-x,y,1/2-z
-x,-y,-z
1/2+x,1/2+y,1/2-z
1/2-x,1/2+y,z
x,-y,1/2+z
loop_
_atom_site_type_symbol
_atom_site_label
_atom_site_fract_x
_atom_site_fract_y
_atom_site_fract_z
Si Si1 0.157441 0.604864 0.436310
Si Si2 0.566990 0.448691 0.234239
Si Si3 0.848679 0.313906 0.140318
Si Si4 0.586728 0.241376 0.424984
Si Si5 0.779070 0.335007 0.343253
Si Si6 0.047175 0.263004 0.957083
Si Si7 0.186171 0.361376 0.693123
Si Si8 0.063272 0.243286 0.213900
O O1 0.175162 0.447918 0.421028
O O2 0.182789 0.674729 0.545797
O O3 0.089278 0.611244 0.437794
O O4 0.177556 0.672786 0.322281
O O5 0.500000 0.466393 0.250000
O O6 0.589442 0.368099 0.340645
O O7 0.569458 0.356121 0.124686
O O8 0.588199 0.602396 0.235875
O O9 0.802337 0.264406 0.229444
O O10 0.896777 0.355142 0.231006
O O11 0.881898 0.237229 0.041927
O O12 0.519691 0.212187 0.439372
O O13 0.624195 0.128287 0.362228
O O14 0.720001 0.261644 0.363960
O O15 0.780380 0.496826 0.319579
O O16 0.058824 0.223804 0.083395
O O17 0.000000 0.270598 0.250000
#
# Coordination Sequence:
#
# PCOD9458212 Si02
#       8
#     8   8   8   8   8   8   8   8
#     4  11  24  46  70 100 140 176 231 292 349 416
#     4   9  22  37  62  93 139 185 224 274 333 413
#     4  11  24  42  66 100 138 177 227 286 342 413
#     4  11  22  42  67 103 138 181 224 283 350 423
#     4  11  26  48  71  99 140 181 237 299 346 415
#     4  11  22  42  67 101 144 181 222 282 353 427
#     4  11  26  47  72 100 134 181 239 291 353 410
#     4  11  22  39  61  99 142 186 229 270 339 423
#
# _framework density 22.829272
#
# number of rings (size 3 to 8) (size 9 to 14) (size 15 to 20)
#    0.000    1.250    5.000    0.000    3.500    3.000 
#    4.500    0.000    0.000    0.000    0.000    0.000 
#    0.000    0.000    0.000    0.000    0.000    0.000 
#
# Total GULP energy -356817.704071 kJ/mol
# GULP energy per Si atom -5575.276626 kJ/mol
# Density = 2.277731 g / cm^3
# Si number density = 22.829272 Si / 1000 Ang^3
#
#
#
# Elastic Constant Matrix: (Units=GPa)
#
#
# Indices 1 2 3 4 5 6 
#
# 1 98.3262 25.1415 46.1262 0.0000 0.0000 0.0000
# 2 25.1415 47.3296 27.7935 0.0000 0.0000 0.0000
# 3 46.1262 27.7935 176.6868 0.0000 0.0000 0.0000
# 4 0.0000 0.0000 0.0000 3.9949 0.0000 0.0000
# 5 0.0000 0.0000 0.0000 0.0000 40.2556 0.0000
# 6 0.0000 0.0000 0.0000 0.0000 0.0000 24.7236
#
#
#
# Elastic Compliance Matrix: (Units=1/GPa)
#
#
# Indices 1 2 3 4 5 6 
#
# 1 0.012684 -0.005281 -0.002481 0.000000 0.000000 0.000000
# 2 -0.005281 0.025478 -0.002629 0.000000 0.000000 0.000000
# 3 -0.002481 -0.002629 0.006721 0.000000 0.000000 0.000000
# 4 0.000000 0.000000 0.000000 0.250320 0.000000 0.000000
# 5 0.000000 0.000000 0.000000 0.000000 0.024841 0.000000
# 6 0.000000 0.000000 0.000000 0.000000 0.000000 0.040447
#
#
# Mechanical properties :
#
#
# Convention : Reuss Voigt Hill
#
# Bulk Modulus (GPa) = 41.49179 57.82944 49.66061
# Shear Modulus (GPa) = 12.84334 28.68024 20.76179
#
# Velocity S-wave (km/s) = 2.37445 3.54827 3.01896
# Velocity P-wave (km/s) = 5.07264 6.49409 5.82687
#
# Compressibility (1/GPa) = 0.02410115
#
# Stress axis : x y z
#
# Youngs Moduli (GPa) = 78.83763 39.25010 148.78989
#
# Poissons Ratio (x) = 0.20729 0.36909
# Poissons Ratio (y) = 0.41636 0.39117
# Poissons Ratio (z) = 0.19557 0.10319
#
# Static dielectric constant tensor:
#      x y z
#    x 1.875520 0.000000 0.000000 
#    y 0.000000 1.909510 0.000000 
#    z 0.000000 0.000000 1.898140 
# 
# From -- ./inp_files/13141.got.cif
#   From: 2010.05.17/outbox.cif.g08.bks.cpg/sg60_7_cif.got.tgz:13141.got - 2010.06.03 14:59:27.
