data_PCOD9458093
_publ_section_title
;
Structure prediction by ZEFSAII (Michael W. Deem and Ramdas Pophale) SiO2 
 PCOD9458093
Probable space group: P B C N
;
_chemical_formula_sum "Si O2"
_cell_formula_units_Z 32
_cell_length_a 4.935592
_cell_length_b 18.846611
_cell_length_c 17.154991
_cell_angle_alpha 90.000000
_cell_angle_beta 90.000000
_cell_angle_gamma 90.000000
_cell_volume 1595.743238
_symmetry_space_group_name_H-M "P B C N"
_symmetry_group_IT_number 60
_symmetry_cell_setting 'orthorhombic'
loop_
_space_group_symop_operation_xyz
x,y,z
1/2-x,1/2-y,1/2+z
1/2+x,1/2-y,-z
-x,y,1/2-z
-x,-y,-z
1/2+x,1/2+y,1/2-z
1/2-x,1/2+y,z
x,-y,1/2+z
loop_
_atom_site_type_symbol
_atom_site_label
_atom_site_fract_x
_atom_site_fract_y
_atom_site_fract_z
Si Si1 0.231262 0.748507 0.197632
Si Si2 0.005704 0.409085 0.837202
Si Si3 0.480855 0.567425 0.055663
Si Si4 0.862077 0.790177 0.470333
O O1 0.500000 0.740765 0.250000
O O2 0.109834 0.671200 0.174702
O O3 0.259913 0.789608 0.116539
O O4 0.000000 0.784151 0.250000
O O5 0.800800 0.440480 0.899720
O O6 0.000000 0.440421 0.750000
O O7 0.297840 0.418895 0.876172
O O8 0.500000 0.500000 0.000000
O O9 0.515851 0.636688 0.001427
O O10 0.613540 0.764438 0.524164
#
# Coordination Sequence:
#
# PCOD9458093 Si02
#       4
#     8   8   8   8
#     4  11  21  36  62  94 128 162 216 269 322 377
#     4  11  22  40  66  94 124 167 220 268 317 389
#     4  12  24  42  64  97 130 172 216 267 325 392
#     4  12  22  40  63  93 128 165 214 266 326 377
#
# _framework density 20.053350999999999
#
# number of rings (size 3 to 8) (size 9 to 14) (size 15 to 20)
#    0.000    0.500    5.000    6.000    0.000    0.000 
#    0.000    3.750    0.000    0.000    0.000    0.000 
#    0.000    0.000    0.000    0.000    0.000    0.000 
#
# Total GULP energy -178644.486016 kJ/mol
# GULP energy per Si atom -5582.640188 kJ/mol
# Density = 2.000771 g / cm^3
# Si number density = 20.053351 Si / 1000 Ang^3
#
#
#
# Elastic Constant Matrix: (Units=GPa)
#
#
# Indices 1 2 3 4 5 6 
#
# 1 49.0953 -6.0062 -19.4976 0.0000 0.0000 0.0000
# 2 -6.0062 51.2050 32.9680 0.0000 0.0000 0.0000
# 3 -19.4976 32.9680 101.9978 0.0000 0.0000 0.0000
# 4 0.0000 0.0000 0.0000 11.6202 0.0000 0.0000
# 5 0.0000 0.0000 0.0000 0.0000 59.2499 0.0000
# 6 0.0000 0.0000 0.0000 0.0000 0.0000 10.1318
#
#
#
# Elastic Compliance Matrix: (Units=1/GPa)
#
#
# Indices 1 2 3 4 5 6 
#
# 1 0.022043 -0.000161 0.004266 0.000000 0.000000 0.000000
# 2 -0.000161 0.024663 -0.008002 0.000000 0.000000 0.000000
# 3 0.004266 -0.008002 0.013206 0.000000 0.000000 0.000000
# 4 0.000000 0.000000 0.000000 0.086057 0.000000 0.000000
# 5 0.000000 0.000000 0.000000 0.000000 0.016878 0.000000
# 6 0.000000 0.000000 0.000000 0.000000 0.000000 0.098699
#
#
# Mechanical properties :
#
#
# Convention : Reuss Voigt Hill
#
# Bulk Modulus (GPa) = 19.18771 24.13629 21.66200
# Shear Modulus (GPa) = 17.43907 29.18931 23.31419
#
# Velocity S-wave (km/s) = 2.95215 3.81935 3.41340
# Velocity P-wave (km/s) = 4.60537 5.61356 5.13427
#
# Compressibility (1/GPa) = 0.05211669
#
# Stress axis : x y z
#
# Youngs Moduli (GPa) = 45.36608 40.54704 75.72277
#
# Poissons Ratio (x) = 0.00652 -0.32301
# Poissons Ratio (y) = 0.00730 0.60596
# Poissons Ratio (z) = -0.19351 0.32447
#
# Static dielectric constant tensor:
#      x y z
#    x 1.746380 0.000000 0.000000 
#    y 0.000000 1.713820 0.000000 
#    z 0.000000 0.000000 1.888240 
# 
# From -- ./inp_files/13584.got.cif
#   From: 2010.05.17/outbox.cif.g08.bks.cpg/sg60_7_cif.got.tgz:13584.got - 2010.06.03 14:59:27.
