data_PCOD9458680
_publ_section_title
;
Structure prediction by ZEFSAII (Michael W. Deem and Ramdas Pophale) SiO2 
 PCOD9458680
Probable space group: P B C N
;
_chemical_formula_sum "Si O2"
_cell_formula_units_Z 40
_cell_length_a 16.828480
_cell_length_b 17.025049
_cell_length_c 5.628529
_cell_angle_alpha 90.000000
_cell_angle_beta 90.000000
_cell_angle_gamma 90.000000
_cell_volume 1612.605622
_symmetry_space_group_name_H-M "P B C N"
_symmetry_group_IT_number 60
_symmetry_cell_setting 'orthorhombic'
loop_
_space_group_symop_operation_xyz
x,y,z
1/2-x,1/2-y,1/2+z
1/2+x,1/2-y,-z
-x,y,1/2-z
-x,-y,-z
1/2+x,1/2+y,1/2-z
1/2-x,1/2+y,z
x,-y,1/2+z
loop_
_atom_site_type_symbol
_atom_site_label
_atom_site_fract_x
_atom_site_fract_y
_atom_site_fract_z
Si Si1 0.500000 0.049301 0.750000
Si Si2 0.000000 0.059958 0.250000
Si Si3 0.865704 0.318954 0.236833
Si Si4 0.675649 0.468360 0.707792
Si Si5 0.693075 0.684561 0.942405
Si Si6 0.061266 0.192037 0.926623
O O1 0.578622 0.105044 0.726704
O O2 0.500000 0.000000 0.500000
O O3 0.918524 0.013844 0.219054
O O4 0.986437 0.119366 0.466927
O O5 0.784588 0.328208 0.383664
O O6 0.915963 0.253052 0.372882
O O7 0.832601 0.273642 0.003407
O O8 0.709687 0.506273 0.463749
O O9 0.677265 0.375082 0.658864
O O10 0.638229 0.663725 0.718369
O O11 0.000000 0.233872 0.750000
#
# Coordination Sequence:
#
# PCOD9458680 Si02
#       6
#     4   4   8   8   8   8
#     4  12  33  58  86 123 170 232 286 348 439 520
#     4  12  23  40  66 103 150 202 248 302 371 478
#     4  12  27  51  83 114 156 208 283 356 407 488
#     4  12  27  44  67 107 161 204 244 303 393 479
#     4  12  26  45  81 117 152 209 274 344 413 476
#     4  12  22  43  77 112 151 193 263 337 399 470
#
# _framework density 24.804577999999999
#
# number of rings (size 3 to 8) (size 9 to 14) (size 15 to 20)
#    0.000    0.000    6.000    3.600    4.200    1.600 
#    0.000    0.000    0.000    0.000    0.000    0.000 
#    0.000    0.000    0.000    0.000    0.000    0.000 
#
# Total GULP energy -223914.683285 kJ/mol
# GULP energy per Si atom -5597.867082 kJ/mol
# Density = 2.474812 g / cm^3
# Si number density = 24.804578 Si / 1000 Ang^3
#
#
#
# Elastic Constant Matrix: (Units=GPa)
#
#
# Indices 1 2 3 4 5 6 
#
# 1 138.6579 44.6465 34.6044 0.0000 0.0000 0.0000
# 2 44.6465 123.8199 59.5756 0.0000 0.0000 0.0000
# 3 34.6044 59.5756 142.8242 0.0000 0.0000 0.0000
# 4 0.0000 0.0000 0.0000 49.6814 0.0000 0.0000
# 5 0.0000 0.0000 0.0000 0.0000 36.2863 0.0000
# 6 0.0000 0.0000 0.0000 0.0000 0.0000 18.4702
#
#
#
# Elastic Compliance Matrix: (Units=1/GPa)
#
#
# Indices 1 2 3 4 5 6 
#
# 1 0.008261 -0.002522 -0.000950 0.000000 0.000000 0.000000
# 2 -0.002522 0.010874 -0.003925 0.000000 0.000000 0.000000
# 3 -0.000950 -0.003925 0.008869 0.000000 0.000000 0.000000
# 4 0.000000 0.000000 0.000000 0.020128 0.000000 0.000000
# 5 0.000000 0.000000 0.000000 0.000000 0.027559 0.000000
# 6 0.000000 0.000000 0.000000 0.000000 0.000000 0.054141
#
#
# Mechanical properties :
#
#
# Convention : Reuss Voigt Hill
#
# Bulk Modulus (GPa) = 75.69270 75.88390 75.78830
# Shear Modulus (GPa) = 33.55075 38.65264 36.10170
#
# Velocity S-wave (km/s) = 3.68177 3.95180 3.81917
# Velocity P-wave (km/s) = 6.97537 7.17505 7.07591
#
# Compressibility (1/GPa) = 0.01321131
#
# Stress axis : x y z
#
# Youngs Moduli (GPa) = 121.05094 91.96284 112.75445
#
# Poissons Ratio (x) = 0.23191 0.10707
# Poissons Ratio (y) = 0.30527 0.44254
# Poissons Ratio (z) = 0.11495 0.36094
#
# Static dielectric constant tensor:
#      x y z
#    x 2.004010 0.000000 0.000000 
#    y 0.000000 1.989840 0.000000 
#    z 0.000000 0.000000 2.175650 
# 
# From -- ./inp_files/1659.got.cif
#   From: 2010.05.17/outbox.cif.g08.bks.cpg/sg60_1_cif.got.tgz:1659.got - 2010.06.03 14:59:27.
