data_PCOD9458768
_publ_section_title
;
Structure prediction by ZEFSAII (Michael W. Deem and Ramdas Pophale) SiO2 
 PCOD9458768
Probable space group: P B C N
;
_chemical_formula_sum "Si O2"
_cell_formula_units_Z 56
_cell_length_a 9.172304
_cell_length_b 18.807408
_cell_length_c 13.993842
_cell_angle_alpha 90.000000
_cell_angle_beta 90.000000
_cell_angle_gamma 90.000000
_cell_volume 2414.039391
_symmetry_space_group_name_H-M "P B C N"
_symmetry_group_IT_number 60
_symmetry_cell_setting 'orthorhombic'
loop_
_space_group_symop_operation_xyz
x,y,z
1/2-x,1/2-y,1/2+z
1/2+x,1/2-y,-z
-x,y,1/2-z
-x,-y,-z
1/2+x,1/2+y,1/2-z
1/2-x,1/2+y,z
x,-y,1/2+z
loop_
_atom_site_type_symbol
_atom_site_label
_atom_site_fract_x
_atom_site_fract_y
_atom_site_fract_z
Si Si1 0.500000 0.316863 0.750000
Si Si2 0.826564 0.944617 0.807056
Si Si3 0.774503 0.444898 0.586101
Si Si4 0.000000 0.269997 0.750000
Si Si5 0.411406 0.408974 0.096327
Si Si6 0.260368 0.892995 0.407271
Si Si7 0.736578 0.191672 0.764241
Si Si8 0.917958 0.372826 0.915649
O O1 0.435179 0.377458 0.676316
O O2 0.628525 0.258183 0.763913
O O3 0.778628 0.938346 0.696041
O O4 0.682888 0.933857 0.870057
O O5 0.892940 0.020216 0.837536
O O6 0.654115 0.425064 0.507701
O O7 0.812767 0.527186 0.573676
O O8 0.918020 0.398439 0.568220
O O9 0.874497 0.222570 0.706097
O O10 0.927155 0.315208 0.832392
O O11 0.584495 0.395611 0.088658
O O12 0.313014 0.346206 0.144676
O O13 0.320617 0.869809 0.304582
O O14 0.336379 0.846664 0.489580
#
# Coordination Sequence:
#
# PCOD9458768 Si02
#       8
#     4   8   8   4   8   8   8   8
#     4  12  28  47  79 114 146 210 268 304 396 483
#     4  12  25  48  80 105 156 207 255 320 389 476
#     4  12  25  45  79 117 144 196 267 321 387 469
#     4  12  24  55  67  98 156 214 242 308 412 471
#     4  12  27  48  82 114 153 202 264 327 395 466
#     4  12  26  47  75 111 151 194 256 320 390 467
#     4  12  27  51  76 107 160 202 255 328 394 463
#     4  12  26  48  74 108 153 199 251 321 392 467
#
# _framework density 23.197634999999998
#
# number of rings (size 3 to 8) (size 9 to 14) (size 15 to 20)
#    0.000    0.000    7.143    1.714    4.000    0.000 
#    7.714    0.000    0.000    0.000    0.000    0.000 
#    0.000    0.000    0.000    0.000    0.000    0.000 
#
# Total GULP energy -312513.137838 kJ/mol
# GULP energy per Si atom -5580.591747 kJ/mol
# Density = 2.314484 g / cm^3
# Si number density = 23.197635 Si / 1000 Ang^3
#
#
#
# Elastic Constant Matrix: (Units=GPa)
#
#
# Indices 1 2 3 4 5 6 
#
# 1 82.6364 44.4648 12.9842 0.0000 0.0000 0.0000
# 2 44.4648 98.9580 19.0534 0.0000 0.0000 0.0000
# 3 12.9842 19.0534 105.6277 0.0000 0.0000 0.0000
# 4 0.0000 0.0000 0.0000 42.1140 0.0000 0.0000
# 5 0.0000 0.0000 0.0000 0.0000 40.5483 0.0000
# 6 0.0000 0.0000 0.0000 0.0000 0.0000 6.2630
#
#
#
# Elastic Compliance Matrix: (Units=1/GPa)
#
#
# Indices 1 2 3 4 5 6 
#
# 1 0.016009 -0.007060 -0.000694 0.000000 0.000000 0.000000
# 2 -0.007060 0.013582 -0.001582 0.000000 0.000000 0.000000
# 3 -0.000694 -0.001582 0.009838 0.000000 0.000000 0.000000
# 4 0.000000 0.000000 0.000000 0.023745 0.000000 0.000000
# 5 0.000000 0.000000 0.000000 0.000000 0.024662 0.000000
# 6 0.000000 0.000000 0.000000 0.000000 0.000000 0.159667
#
#
# Mechanical properties :
#
#
# Convention : Reuss Voigt Hill
#
# Bulk Modulus (GPa) = 48.17768 48.91410 48.54589
# Shear Modulus (GPa) = 18.30871 31.83306 25.07088
#
# Velocity S-wave (km/s) = 2.81241 3.70841 3.29105
# Velocity P-wave (km/s) = 5.59997 6.28236 5.95095
#
# Compressibility (1/GPa) = 0.02075650
#
# Stress axis : x y z
#
# Youngs Moduli (GPa) = 62.46514 73.62683 101.64699
#
# Poissons Ratio (x) = 0.51977 0.07059
# Poissons Ratio (y) = 0.44098 0.16082
# Poissons Ratio (z) = 0.04338 0.11649
#
# Static dielectric constant tensor:
#      x y z
#    x 1.821080 0.000000 0.000000 
#    y 0.000000 1.896610 0.000000 
#    z 0.000000 0.000000 1.991910 
# 
# From -- ./inp_files/15297.got.cif
#   From: 2010.05.17/outbox.cif.g08.bks.cpg/sg60_8_cif.got.tgz:15297.got - 2010.06.03 14:59:27.
