data_PCOD9458399
_publ_section_title
;
Structure prediction by ZEFSAII (Michael W. Deem and Ramdas Pophale) SiO2 
 PCOD9458399
Probable space group: P B C N
;
_chemical_formula_sum "Si O2"
_cell_formula_units_Z 48
_cell_length_a 27.303655
_cell_length_b 8.416237
_cell_length_c 9.058435
_cell_angle_alpha 90.000000
_cell_angle_beta 90.000000
_cell_angle_gamma 90.000000
_cell_volume 2081.574297
_symmetry_space_group_name_H-M "P B C N"
_symmetry_group_IT_number 60
_symmetry_cell_setting 'orthorhombic'
loop_
_space_group_symop_operation_xyz
x,y,z
1/2-x,1/2-y,1/2+z
1/2+x,1/2-y,-z
-x,y,1/2-z
-x,-y,-z
1/2+x,1/2+y,1/2-z
1/2-x,1/2+y,z
x,-y,1/2+z
loop_
_atom_site_type_symbol
_atom_site_label
_atom_site_fract_x
_atom_site_fract_y
_atom_site_fract_z
Si Si1 0.957415 0.180604 0.568741
Si Si2 0.712433 0.106305 0.102667
Si Si3 0.932768 0.165947 0.014799
Si Si4 0.703631 0.216658 0.766527
Si Si5 0.403766 0.815905 0.205729
Si Si6 0.117078 0.674233 0.225282
O O1 0.940246 0.236541 0.408008
O O2 0.930878 0.300618 0.676435
O O3 0.015753 0.173627 0.571850
O O4 0.935034 0.004974 0.592259
O O5 0.758535 0.157856 0.201603
O O6 0.664461 0.191079 0.172319
O O7 0.703525 0.922212 0.142089
O O8 0.717863 0.148869 0.929716
O O9 0.929059 0.303185 0.135900
O O10 0.888061 0.198285 0.904661
O O11 0.647955 0.276116 0.783000
O O12 0.387319 0.994580 0.164557
#
# Coordination Sequence:
#
# PCOD9458399 Si02
#       6
#     8   8   8   8   8   8
#     4  11  23  45  60  97 134 173 226 271 338 391
#     4  11  25  45  70  99 136 174 221 277 336 403
#     4  11  25  39  68  93 134 179 216 281 328 401
#     4  11  25  45  70  99 136 174 221 277 336 403
#     4  11  24  42  67  96 132 172 223 273 332 395
#     4  11  24  42  67  96 132 172 223 273 332 395
#
# _framework density 23.059469
#
# number of rings (size 3 to 8) (size 9 to 14) (size 15 to 20)
#    0.000    1.000    1.667    4.000    9.333    9.333 
#    0.000    0.000    0.000    0.000    0.000    0.000 
#    0.000    0.000    0.000    0.000    0.000    0.000 
#
# Total GULP energy -268364.234127 kJ/mol
# GULP energy per Si atom -5590.921544 kJ/mol
# Density = 2.300698 g / cm^3
# Si number density = 23.059469 Si / 1000 Ang^3
#
#
#
# Elastic Constant Matrix: (Units=GPa)
#
#
# Indices 1 2 3 4 5 6 
#
# 1 54.9190 24.8618 -7.7444 0.0000 0.0000 0.0000
# 2 24.8618 32.7816 -3.9970 0.0000 0.0000 0.0000
# 3 -7.7444 -3.9970 55.7237 0.0000 0.0000 0.0000
# 4 0.0000 0.0000 0.0000 57.6823 0.0000 0.0000
# 5 0.0000 0.0000 0.0000 0.0000 33.2750 0.0000
# 6 0.0000 0.0000 0.0000 0.0000 0.0000 28.4379
#
#
#
# Elastic Compliance Matrix: (Units=1/GPa)
#
#
# Indices 1 2 3 4 5 6 
#
# 1 0.028041 -0.020975 0.002393 0.000000 0.000000 0.000000
# 2 -0.020975 0.046464 0.000418 0.000000 0.000000 0.000000
# 3 0.002393 0.000418 0.018308 0.000000 0.000000 0.000000
# 4 0.000000 0.000000 0.000000 0.017336 0.000000 0.000000
# 5 0.000000 0.000000 0.000000 0.000000 0.030053 0.000000
# 6 0.000000 0.000000 0.000000 0.000000 0.000000 0.035164
#
#
# Mechanical properties :
#
#
# Convention : Reuss Voigt Hill
#
# Bulk Modulus (GPa) = 17.70426 18.85167 18.27796
# Shear Modulus (GPa) = 21.68971 32.56597 27.12784
#
# Velocity S-wave (km/s) = 3.07025 3.76208 3.43363
# Velocity P-wave (km/s) = 4.50143 5.20231 4.86451
#
# Compressibility (1/GPa) = 0.05648360
#
# Stress axis : x y z
#
# Youngs Moduli (GPa) = 35.66143 21.52224 54.62039
#
# Poissons Ratio (x) = 0.45143 -0.13069
# Poissons Ratio (y) = 0.74800 -0.02281
# Poissons Ratio (z) = -0.08532 -0.00899
#
# Static dielectric constant tensor:
#      x y z
#    x 1.834960 0.000000 0.000000 
#    y 0.000000 1.863360 0.000000 
#    z 0.000000 0.000000 1.867260 
# 
# From -- ./inp_files/4173.got.cif
#   From: 2010.05.17/outbox.cif.g08.bks.cpg/sg60_3_cif.got.tgz:4173.got - 2010.06.03 14:59:27.
