data_PCOD9458747
_publ_section_title
;
Structure prediction by ZEFSAII (Michael W. Deem and Ramdas Pophale) SiO2 
 PCOD9458747
Probable space group: P B C N
;
_chemical_formula_sum "Si O2"
_cell_formula_units_Z 36
_cell_length_a 8.679396
_cell_length_b 9.298510
_cell_length_c 17.177957
_cell_angle_alpha 90.000000
_cell_angle_beta 90.000000
_cell_angle_gamma 90.000000
_cell_volume 1386.354758
_symmetry_space_group_name_H-M "P B C N"
_symmetry_group_IT_number 60
_symmetry_cell_setting 'orthorhombic'
loop_
_space_group_symop_operation_xyz
x,y,z
1/2-x,1/2-y,1/2+z
1/2+x,1/2-y,-z
-x,y,1/2-z
-x,-y,-z
1/2+x,1/2+y,1/2-z
1/2-x,1/2+y,z
x,-y,1/2+z
loop_
_atom_site_type_symbol
_atom_site_label
_atom_site_fract_x
_atom_site_fract_y
_atom_site_fract_z
Si Si1 0.552530 0.697013 0.332478
Si Si2 0.230605 0.527732 0.640964
Si Si3 0.000000 0.341977 0.750000
Si Si4 0.271636 0.289793 0.376836
Si Si5 0.168735 0.543271 0.472218
O O1 0.500000 0.755535 0.250000
O O2 0.616159 0.537416 0.322180
O O3 0.398308 0.717383 0.380041
O O4 0.687835 0.804965 0.357200
O O5 0.261502 0.502875 0.549437
O O6 0.094091 0.441515 0.687143
O O7 0.873854 0.250660 0.699081
O O8 0.232563 0.453355 0.398478
O O9 0.349112 0.208691 0.448783
O O10 0.000000 0.500000 0.500000
#
# Coordination Sequence:
#
# PCOD9458747 Si02
#       5
#     8   8   4   8   8
#     4  12  26  47  75 115 152 204 266 323 399 473
#     4  12  26  48  78 111 161 202 260 335 391 484
#     4  12  24  46  84 116 154 208 272 334 398 474
#     4  12  27  50  78 118 155 208 267 330 406 480
#     4  12  26  50  78 113 160 203 262 331 406 476
#
# _framework density 25.967379999999999
#
# number of rings (size 3 to 8) (size 9 to 14) (size 15 to 20)
#    0.000    0.000    7.778    1.333    0.000    2.667 
#    4.000    0.000    0.000    0.000    0.000    0.000 
#    0.000    0.000    0.000    0.000    0.000    0.000 
#
# Total GULP energy -201103.252507 kJ/mol
# GULP energy per Si atom -5586.201459 kJ/mol
# Density = 2.590828 g / cm^3
# Si number density = 25.967380 Si / 1000 Ang^3
#
#
#
# Elastic Constant Matrix: (Units=GPa)
#
#
# Indices 1 2 3 4 5 6 
#
# 1 66.7501 35.1175 15.8454 0.0000 0.0000 0.0000
# 2 35.1175 102.8074 18.9694 0.0000 0.0000 0.0000
# 3 15.8454 18.9694 95.3757 0.0000 0.0000 0.0000
# 4 0.0000 0.0000 0.0000 42.4885 0.0000 0.0000
# 5 0.0000 0.0000 0.0000 0.0000 42.5740 0.0000
# 6 0.0000 0.0000 0.0000 0.0000 0.0000 96.2056
#
#
#
# Elastic Compliance Matrix: (Units=1/GPa)
#
#
# Indices 1 2 3 4 5 6 
#
# 1 0.018587 -0.006000 -0.001895 0.000000 0.000000 0.000000
# 2 -0.006000 0.012034 -0.001397 0.000000 0.000000 0.000000
# 3 -0.001895 -0.001397 0.011077 0.000000 0.000000 0.000000
# 4 0.000000 0.000000 0.000000 0.023536 0.000000 0.000000
# 5 0.000000 0.000000 0.000000 0.000000 0.023489 0.000000
# 6 0.000000 0.000000 0.000000 0.000000 0.000000 0.010394
#
#
# Mechanical properties :
#
#
# Convention : Reuss Voigt Hill
#
# Bulk Modulus (GPa) = 43.25871 44.97753 44.11812
# Shear Modulus (GPa) = 39.87072 49.25370 44.56221
#
# Velocity S-wave (km/s) = 3.92269 4.35990 4.14706
# Velocity P-wave (km/s) = 6.10014 6.53478 6.32119
#
# Compressibility (1/GPa) = 0.02311673
#
# Stress axis : x y z
#
# Youngs Moduli (GPa) = 53.79972 83.09785 90.27363
#
# Poissons Ratio (x) = 0.49855 0.17105
# Poissons Ratio (y) = 0.32278 0.12609
# Poissons Ratio (z) = 0.10194 0.11606
#
# Static dielectric constant tensor:
#      x y z
#    x 1.238410 0.000000 0.000000 
#    y 0.000000 2.233570 0.000000 
#    z 0.000000 0.000000 13.578200 
# 
# From -- ./inp_files/21938.got.cif
#   From: 2010.05.17/outbox.cif.g08.bks.cpg/sg60_11_cif.got.tgz:21938.got - 2010.06.03 14:59:27.
