data_PCOD9458244
_publ_section_title
;
Structure prediction by ZEFSAII (Michael W. Deem and Ramdas Pophale) SiO2 
 PCOD9458244
Probable space group: P B C N
;
_chemical_formula_sum "Si O2"
_cell_formula_units_Z 44
_cell_length_a 8.995098
_cell_length_b 16.558894
_cell_length_c 13.811241
_cell_angle_alpha 90.000000
_cell_angle_beta 90.000000
_cell_angle_gamma 90.000000
_cell_volume 2057.168800
_symmetry_space_group_name_H-M "P B C N"
_symmetry_group_IT_number 60
_symmetry_cell_setting 'orthorhombic'
loop_
_space_group_symop_operation_xyz
x,y,z
1/2-x,1/2-y,1/2+z
1/2+x,1/2-y,-z
-x,y,1/2-z
-x,-y,-z
1/2+x,1/2+y,1/2-z
1/2-x,1/2+y,z
x,-y,1/2+z
loop_
_atom_site_type_symbol
_atom_site_label
_atom_site_fract_x
_atom_site_fract_y
_atom_site_fract_z
Si Si1 0.000000 0.308169 0.250000
Si Si2 0.187827 0.410841 0.393795
Si Si3 0.969304 0.309169 0.937597
Si Si4 0.692647 0.663760 0.315928
Si Si5 0.748415 0.909443 0.610029
Si Si6 0.522801 0.625586 0.503526
O O1 0.881556 0.363273 0.195505
O O2 0.900719 0.246679 0.312591
O O3 0.102310 0.369030 0.483152
O O4 0.163179 0.505999 0.382841
O O5 0.364771 0.399075 0.411143
O O6 0.861970 0.316701 0.844773
O O7 0.134562 0.338776 0.916319
O O8 0.976192 0.218160 0.976466
O O9 0.683614 0.617462 0.213691
O O10 0.620080 0.616968 0.405643
O O11 0.870514 0.918392 0.525010
#
# Coordination Sequence:
#
# PCOD9458244 Si02
#       6
#     4   8   8   8   8   8
#     4  12  22  46  68  96 140 182 240 284 340 416
#     4  11  26  40  67 100 136 180 224 293 351 408
#     4  11  23  42  69  97 129 182 231 277 342 422
#     4  11  22  41  68  96 130 186 227 279 338 413
#     4  12  23  42  66 101 142 169 228 291 351 409
#     4  11  22  45  68  96 134 184 230 274 351 427
#
# _framework density 21.388618999999998
#
# number of rings (size 3 to 8) (size 9 to 14) (size 15 to 20)
#    0.000    0.727    3.636    4.909    2.545    0.000 
#    0.000    3.636    0.000    0.000    0.000    0.000 
#    0.000    0.000    0.000    0.000    0.000    0.000 
#
# Total GULP energy -245781.490062 kJ/mol
# GULP energy per Si atom -5585.942956 kJ/mol
# Density = 2.133994 g / cm^3
# Si number density = 21.388619 Si / 1000 Ang^3
#
#
#
# Elastic Constant Matrix: (Units=GPa)
#
#
# Indices 1 2 3 4 5 6 
#
# 1 79.6372 -15.3536 6.9331 0.0000 0.0000 0.0000
# 2 -15.3536 85.5138 6.0465 0.0000 0.0000 0.0000
# 3 6.9331 6.0465 36.9872 0.0000 0.0000 0.0000
# 4 0.0000 0.0000 0.0000 7.4595 0.0000 0.0000
# 5 0.0000 0.0000 0.0000 0.0000 34.2011 0.0000
# 6 0.0000 0.0000 0.0000 0.0000 0.0000 24.1422
#
#
#
# Elastic Compliance Matrix: (Units=1/GPa)
#
#
# Indices 1 2 3 4 5 6 
#
# 1 0.013312 0.002596 -0.002920 0.000000 0.000000 0.000000
# 2 0.002596 0.012337 -0.002504 0.000000 0.000000 0.000000
# 3 -0.002920 -0.002504 0.027993 0.000000 0.000000 0.000000
# 4 0.000000 0.000000 0.000000 0.134057 0.000000 0.000000
# 5 0.000000 0.000000 0.000000 0.000000 0.029239 0.000000
# 6 0.000000 0.000000 0.000000 0.000000 0.000000 0.041421
#
#
# Mechanical properties :
#
#
# Convention : Reuss Voigt Hill
#
# Bulk Modulus (GPa) = 20.83835 21.93224 21.38530
# Shear Modulus (GPa) = 17.85662 26.79472 22.32567
#
# Velocity S-wave (km/s) = 2.89254 3.54327 3.23431
# Velocity P-wave (km/s) = 4.57379 5.19770 4.89570
#
# Compressibility (1/GPa) = 0.04798845
#
# Stress axis : x y z
#
# Youngs Moduli (GPa) = 75.12176 81.05554 35.72327
#
# Poissons Ratio (x) = -0.21046 0.10430
# Poissons Ratio (y) = -0.19505 0.08943
# Poissons Ratio (z) = 0.21933 0.20292
#
# Static dielectric constant tensor:
#      x y z
#    x 1.796290 0.000000 0.000000 
#    y 0.000000 1.729150 0.000000 
#    z 0.000000 0.000000 1.806810 
# 
# From -- ./inp_files/14931.got.cif
#   From: 2010.05.17/outbox.cif.g08.bks.cpg/sg60_8_cif.got.tgz:14931.got - 2010.06.03 14:59:27.
