data_PCOD9458702
_publ_section_title
;
Structure prediction by ZEFSAII (Michael W. Deem and Ramdas Pophale) SiO2 
 PCOD9458702
Probable space group: P B C N
;
_chemical_formula_sum "Si O2"
_cell_formula_units_Z 48
_cell_length_a 16.988591
_cell_length_b 10.006765
_cell_length_c 12.835315
_cell_angle_alpha 90.000000
_cell_angle_beta 90.000000
_cell_angle_gamma 90.000000
_cell_volume 2182.014304
_symmetry_space_group_name_H-M "P B C N"
_symmetry_group_IT_number 60
_symmetry_cell_setting 'orthorhombic'
loop_
_space_group_symop_operation_xyz
x,y,z
1/2-x,1/2-y,1/2+z
1/2+x,1/2-y,-z
-x,y,1/2-z
-x,-y,-z
1/2+x,1/2+y,1/2-z
1/2-x,1/2+y,z
x,-y,1/2+z
loop_
_atom_site_type_symbol
_atom_site_label
_atom_site_fract_x
_atom_site_fract_y
_atom_site_fract_z
Si Si1 0.669682 0.600656 0.735651
Si Si2 0.918996 0.837819 0.811698
Si Si3 0.186248 0.319347 0.584038
Si Si4 0.642119 0.278261 0.016370
Si Si5 0.155451 0.441852 0.244371
Si Si6 0.914894 0.514853 0.549801
O O1 0.625975 0.465904 0.767330
O O2 0.673475 0.694780 0.838366
O O3 0.632774 0.669980 0.634216
O O4 0.759334 0.569466 0.702282
O O5 0.868488 0.703955 0.793620
O O6 0.000000 0.825311 0.750000
O O7 0.921885 0.841527 0.937413
O O8 0.272516 0.314580 0.532453
O O9 0.170520 0.447804 0.657097
O O10 0.124376 0.348250 0.491763
O O11 0.633248 0.118370 0.020102
O O12 0.088679 0.483347 0.325806
O O13 0.000000 0.500000 0.500000
#
# Coordination Sequence:
#
# PCOD9458702 Si02
#       6
#     8   8   8   8   8   8
#     4  12  25  44  75 108 139 190 250 300 360 439
#     4  12  28  47  71 106 153 189 231 308 379 428
#     4  12  24  45  77 103 143 190 249 299 351 436
#     4  12  25  45  74 106 144 191 250 296 364 434
#     4  12  23  45  74 104 137 195 249 290 355 447
#     4  12  27  45  75 110 146 191 245 309 370 439
#
# _framework density 21.998024000000001
#
# number of rings (size 3 to 8) (size 9 to 14) (size 15 to 20)
#    0.000    0.000    8.333    1.000    0.000    3.333 
#    0.000    0.000    0.000    0.000    0.000    0.000 
#    0.000    0.000    0.000    0.000    0.000    0.000 
#
# Total GULP energy -268398.983111 kJ/mol
# GULP energy per Si atom -5591.645481 kJ/mol
# Density = 2.194796 g / cm^3
# Si number density = 21.998024 Si / 1000 Ang^3
#
#
#
# Elastic Constant Matrix: (Units=GPa)
#
#
# Indices 1 2 3 4 5 6 
#
# 1 43.7357 24.6807 -5.6109 0.0000 0.0000 0.0000
# 2 24.6807 121.1881 26.8196 0.0000 0.0000 0.0000
# 3 -5.6109 26.8196 83.4244 0.0000 0.0000 0.0000
# 4 0.0000 0.0000 0.0000 32.0663 0.0000 0.0000
# 5 0.0000 0.0000 0.0000 0.0000 18.7197 0.0000
# 6 0.0000 0.0000 0.0000 0.0000 0.0000 25.5821
#
#
#
# Elastic Compliance Matrix: (Units=1/GPa)
#
#
# Indices 1 2 3 4 5 6 
#
# 1 0.026935 -0.006337 0.003849 0.000000 0.000000 0.000000
# 2 -0.006337 0.010375 -0.003762 0.000000 0.000000 0.000000
# 3 0.003849 -0.003762 0.013455 0.000000 0.000000 0.000000
# 4 0.000000 0.000000 0.000000 0.031185 0.000000 0.000000
# 5 0.000000 0.000000 0.000000 0.000000 0.053420 0.000000
# 6 0.000000 0.000000 0.000000 0.000000 0.000000 0.039090
#
#
# Mechanical properties :
#
#
# Convention : Reuss Voigt Hill
#
# Bulk Modulus (GPa) = 26.13383 37.79190 31.96287
# Shear Modulus (GPa) = 25.03584 28.77086 26.90335
#
# Velocity S-wave (km/s) = 3.37723 3.62039 3.50092
# Velocity P-wave (km/s) = 5.20705 5.89010 5.55908
#
# Compressibility (1/GPa) = 0.03826457
#
# Stress axis : x y z
#
# Youngs Moduli (GPa) = 37.12708 96.38855 74.32166
#
# Poissons Ratio (x) = 0.61083 -0.28605
# Poissons Ratio (y) = 0.23528 0.27956
# Poissons Ratio (z) = -0.14290 0.36257
#
# Static dielectric constant tensor:
#      x y z
#    x 1.806840 0.000000 0.000000 
#    y 0.000000 1.773050 0.000000 
#    z 0.000000 0.000000 2.001580 
# 
# From -- ./inp_files/17359.got.cif
#   From: 2010.05.17/outbox.cif.g08.bks.cpg/sg60_9_cif.got.tgz:17359.got - 2010.06.03 14:59:27.
