data_PCOD9458723
_publ_section_title
;
Structure prediction by ZEFSAII (Michael W. Deem and Ramdas Pophale) SiO2 
 PCOD9458723
Probable space group: P B C N
;
_chemical_formula_sum "Si O2"
_cell_formula_units_Z 36
_cell_length_a 5.322586
_cell_length_b 16.130716
_cell_length_c 18.267203
_cell_angle_alpha 90.000000
_cell_angle_beta 90.000000
_cell_angle_gamma 90.000000
_cell_volume 1568.369498
_symmetry_space_group_name_H-M "P B C N"
_symmetry_group_IT_number 60
_symmetry_cell_setting 'orthorhombic'
loop_
_space_group_symop_operation_xyz
x,y,z
1/2-x,1/2-y,1/2+z
1/2+x,1/2-y,-z
-x,y,1/2-z
-x,-y,-z
1/2+x,1/2+y,1/2-z
1/2-x,1/2+y,z
x,-y,1/2+z
loop_
_atom_site_type_symbol
_atom_site_label
_atom_site_fract_x
_atom_site_fract_y
_atom_site_fract_z
Si Si1 0.000000 0.703922 0.250000
Si Si2 0.500000 0.188538 0.750000
Si Si3 0.829183 0.806369 0.998588
Si Si4 0.000000 0.997420 0.750000
Si Si5 0.355876 0.913741 0.633115
Si Si6 0.154267 0.576445 0.871679
O O1 0.250459 0.757516 0.249246
O O2 0.969598 0.651013 0.175490
O O3 0.473675 0.134106 0.676453
O O4 0.800200 0.864516 0.927274
O O5 0.595827 0.740890 0.998134
O O6 0.782015 0.869035 0.066007
O O7 0.814126 0.944332 0.799638
O O8 0.850593 0.049642 0.690390
O O9 0.508887 0.993240 0.603247
#
# Coordination Sequence:
#
# PCOD9458723 Si02
#       6
#     4   4   8   4   8   8
#     4  12  24  42  71 107 150 196 244 312 376 446
#     4  12  24  42  71 107 150 196 244 312 376 446
#     4  12  31  53  76 114 158 206 254 320 395 458
#     4  12  24  46  84 112 152 196 270 314 386 440
#     4  12  26  48  76 114 152 205 261 315 383 467
#     4  12  26  48  76 114 152 205 261 315 383 467
#
# _framework density 22.953773000000002
#
# number of rings (size 3 to 8) (size 9 to 14) (size 15 to 20)
#    0.000    0.000    4.444    4.667    6.222    0.889 
#    0.000    0.000    0.000    0.000    0.000    0.000 
#    0.000    0.000    0.000    0.000    0.000    0.000 
#
# Total GULP energy -201642.226131 kJ/mol
# GULP energy per Si atom -5601.172948 kJ/mol
# Density = 2.290153 g / cm^3
# Si number density = 22.953773 Si / 1000 Ang^3
#
#
#
# Elastic Constant Matrix: (Units=GPa)
#
#
# Indices 1 2 3 4 5 6 
#
# 1 97.6140 28.9831 -14.1446 0.0000 0.0000 0.0000
# 2 28.9831 95.1875 4.4066 0.0000 0.0000 0.0000
# 3 -14.1446 4.4066 72.1520 0.0000 0.0000 0.0000
# 4 0.0000 0.0000 0.0000 18.0136 0.0000 0.0000
# 5 0.0000 0.0000 0.0000 0.0000 -18.2645 0.0000
# 6 0.0000 0.0000 0.0000 0.0000 0.0000 7.3394
#
#
#
# Elastic Compliance Matrix: (Units=1/GPa)
#
#
# Indices 1 2 3 4 5 6 
#
# 1 0.011702 -0.003680 0.002519 0.000000 0.000000 0.000000
# 2 -0.003680 0.011692 -0.001435 0.000000 0.000000 0.000000
# 3 0.002519 -0.001435 0.014441 0.000000 0.000000 0.000000
# 4 0.000000 0.000000 0.000000 0.055514 0.000000 0.000000
# 5 0.000000 0.000000 0.000000 0.000000 -0.054751 0.000000
# 6 0.000000 0.000000 0.000000 0.000000 0.000000 0.136251
#
#
# Mechanical properties :
#
#
# Convention : Reuss Voigt Hill
#
# Bulk Modulus (GPa) = 30.63466 33.71595 32.17530
# Shear Modulus (GPa) = 26.18858 17.79826 21.99342
#
# Velocity S-wave (km/s) = 3.38143 2.78761 3.09878
# Velocity P-wave (km/s) = 5.34982 5.00815 5.18180
#
# Compressibility (1/GPa) = 0.03264277
#
# Stress axis : x y z
#
# Youngs Moduli (GPa) = 85.45576 85.52537 69.24691
#
# Poissons Ratio (x) = 0.31470 -0.17442
# Poissons Ratio (y) = 0.31445 0.09940
# Poissons Ratio (z) = -0.21524 0.12277
#
# Static dielectric constant tensor:
#      x y z
#    x 1.737900 0.000000 0.000000 
#    y 0.000000 2.025870 0.000000 
#    z 0.000000 0.000000 1.855160 
# 
# From -- ./inp_files/21496.got.cif
#   From: 2010.05.17/outbox.cif.g08.bks.cpg/sg60_11_cif.got.tgz:21496.got - 2010.06.03 14:59:27.
