data_PCOD9458210
_publ_section_title
;
Structure prediction by ZEFSAII (Michael W. Deem and Ramdas Pophale) SiO2 
 PCOD9458210
Probable space group: P B C N
;
_chemical_formula_sum "Si O2"
_cell_formula_units_Z 36
_cell_length_a 29.612360
_cell_length_b 7.193829
_cell_length_c 7.922217
_cell_angle_alpha 90.000000
_cell_angle_beta 90.000000
_cell_angle_gamma 90.000000
_cell_volume 1687.640212
_symmetry_space_group_name_H-M "P B C N"
_symmetry_group_IT_number 60
_symmetry_cell_setting 'orthorhombic'
loop_
_space_group_symop_operation_xyz
x,y,z
1/2-x,1/2-y,1/2+z
1/2+x,1/2-y,-z
-x,y,1/2-z
-x,-y,-z
1/2+x,1/2+y,1/2-z
1/2-x,1/2+y,z
x,-y,1/2+z
loop_
_atom_site_type_symbol
_atom_site_label
_atom_site_fract_x
_atom_site_fract_y
_atom_site_fract_z
Si Si1 0.566622 0.099368 0.508577
Si Si2 0.795301 0.871422 0.669549
Si Si3 0.000000 0.624286 0.250000
Si Si4 0.867907 0.618968 0.781920
Si Si5 0.695942 0.226955 0.284885
O O1 0.537345 0.215591 0.373018
O O2 0.603900 0.197685 0.622824
O O3 0.530881 0.005583 0.633215
O O4 0.594785 0.932188 0.420415
O O5 0.826098 0.756273 0.801170
O O6 0.800295 0.781466 0.483529
O O7 0.743319 0.861951 0.726936
O O8 0.810235 0.083974 0.681483
O O9 0.843688 0.419888 0.751980
#
# Coordination Sequence:
#
# PCOD9458210 Si02
#       5
#     8   8   4   8   8
#     4   9  18  34  62  92 124 150 198 262 300 383
#     4  12  26  40  60  86 125 173 214 255 302 352
#     4   8  16  34  60  98 118 146 200 248 328 368
#     4  11  22  39  60  92 126 162 214 247 302 357
#     4  12  26  40  60  86 125 173 214 255 302 352
#
# _framework density 21.331562000000002
#
# number of rings (size 3 to 8) (size 9 to 14) (size 15 to 20)
#    0.000    1.333    4.444    1.333    6.222    0.000 
#    0.000    0.000    0.000    0.000    0.000  108.889 
#    0.000    0.000    0.000    0.000    0.000    0.000 
#
# Total GULP energy -200711.154972 kJ/mol
# GULP energy per Si atom -5575.309860 kJ/mol
# Density = 2.128301 g / cm^3
# Si number density = 21.331562 Si / 1000 Ang^3
#
#
#
# Elastic Constant Matrix: (Units=GPa)
#
#
# Indices 1 2 3 4 5 6 
#
# 1 126.3026 18.5780 48.5035 0.0000 0.0000 0.0000
# 2 18.5780 76.4589 6.4717 0.0000 0.0000 0.0000
# 3 48.5035 6.4717 79.7333 0.0000 0.0000 0.0000
# 4 0.0000 0.0000 0.0000 15.7013 0.0000 0.0000
# 5 0.0000 0.0000 0.0000 0.0000 40.1723 0.0000
# 6 0.0000 0.0000 0.0000 0.0000 0.0000 4.2597
#
#
#
# Elastic Compliance Matrix: (Units=1/GPa)
#
#
# Indices 1 2 3 4 5 6 
#
# 1 0.010641 -0.002052 -0.006307 0.000000 0.000000 0.000000
# 2 -0.002052 0.013565 0.000147 0.000000 0.000000 0.000000
# 3 -0.006307 0.000147 0.016366 0.000000 0.000000 0.000000
# 4 0.000000 0.000000 0.000000 0.063689 0.000000 0.000000
# 5 0.000000 0.000000 0.000000 0.000000 0.024893 0.000000
# 6 0.000000 0.000000 0.000000 0.000000 0.000000 0.234760
#
#
# Mechanical properties :
#
#
# Convention : Reuss Voigt Hill
#
# Bulk Modulus (GPa) = 41.40821 47.73347 44.57084
# Shear Modulus (GPa) = 12.87374 25.95610 19.41492
#
# Velocity S-wave (km/s) = 2.45930 3.49204 3.02014
# Velocity P-wave (km/s) = 5.24577 6.21970 5.75338
#
# Compressibility (1/GPa) = 0.02414980
#
# Stress axis : x y z
#
# Youngs Moduli (GPa) = 93.97384 73.71906 61.10067
#
# Poissons Ratio (x) = 0.15126 0.38535
# Poissons Ratio (y) = 0.19281 -0.00899
# Poissons Ratio (z) = 0.59267 -0.01084
#
# Static dielectric constant tensor:
#      x y z
#    x 1.768370 0.000000 0.000000 
#    y 0.000000 1.723100 0.000000 
#    z 0.000000 0.000000 1.896680 
# 
# From -- ./inp_files/8066.got.cif
#   From: 2010.05.17/outbox.cif.g08.bks.cpg/sg60_5_cif.got.tgz:8066.got - 2010.06.03 14:59:27.
