data_PCOD9458899
_publ_section_title
;
Structure prediction by ZEFSAII (Michael W. Deem and Ramdas Pophale) SiO2 
 PCOD9458899
Probable space group: P B C N
;
_chemical_formula_sum "Si O2"
_cell_formula_units_Z 56
_cell_length_a 9.000000
_cell_length_b 15.000000
_cell_length_c 21.000000
_cell_angle_alpha 90.000000
_cell_angle_beta 90.000000
_cell_angle_gamma 90.000000
_cell_volume 2835.000000
_symmetry_space_group_name_H-M "P B C N"
_symmetry_group_IT_number 60
_symmetry_cell_setting 'orthorhombic'
loop_
_space_group_symop_operation_xyz
x,y,z
1/2-x,1/2-y,1/2+z
1/2+x,1/2-y,-z
-x,y,1/2-z
-x,-y,-z
1/2+x,1/2+y,1/2-z
1/2-x,1/2+y,z
x,-y,1/2+z
loop_
_atom_site_type_symbol
_atom_site_label
_atom_site_fract_x
_atom_site_fract_y
_atom_site_fract_z
Si Si1 0.660945 0.458285 0.771660
Si Si2 0.506903 0.089234 0.580337
Si Si3 0.292997 0.925779 0.545400
Si Si4 0.931086 0.950066 0.404253
Si Si5 0.747252 0.773967 0.395998
Si Si6 0.677470 0.226933 0.252804
Si Si7 0.272987 0.605907 0.831317
O O1 0.500000 0.423451 0.750000
O O2 0.639501 0.498403 0.842258
O O3 0.768881 0.375663 0.757041
O O4 0.698683 0.543306 0.729002
O O5 0.620472 0.090789 0.520809
O O6 0.406726 0.178792 0.583121
O O7 0.611580 0.086886 0.641274
O O8 0.403421 0.000628 0.577175
O O9 0.272278 0.827221 0.577539
O O10 0.134871 0.979782 0.543119
O O11 0.863665 0.851433 0.416686
O O12 0.099844 0.926510 0.382113
O O13 0.762922 0.767964 0.319366
O O14 0.500000 0.228481 0.250000
O O15 0.720860 0.291638 0.193662
#
# Coordination Sequence:
#
# PCOD9458899 Si02
#       7
#     8   8   8   8   8   8   8
#     4  10  22  38  59  93 132 170 208 265 331 401
#     4  10  26  43  67  98 126 177 231 274 325 404
#     4  10  23  47  65  90 132 178 230 265 341 391
#     4  10  20  41  65  91 134 172 212 274 332 388
#     4  11  22  41  66  92 133 172 211 283 328 390
#     4  12  23  38  62  97 129 169 215 261 342 406
#     4  11  23  39  61  99 132 162 222 272 329 407
#
# _framework density 19.753086
#
# number of rings (size 3 to 8) (size 9 to 14) (size 15 to 20)
#    0.000    1.429    4.286    0.429    4.000    1.714 
#    0.000    4.286    0.000    0.000    0.000    0.000 
#    0.000    0.000    0.000    0.000    0.000    0.000 
#
# Total GULP energy -312039.290309 kJ/mol
# GULP energy per Si atom -5572.130184 kJ/mol
# Density = 1.970813 g / cm^3
# Si number density = 19.753086 Si / 1000 Ang^3
#
#
#
# Elastic Constant Matrix: (Units=GPa)
#
#
# Indices 1 2 3 4 5 6 
#
# 1 79.6811 36.0076 38.8719 0.0000 0.0000 0.0000
# 2 36.0076 133.2811 7.5866 0.0000 0.0000 0.0000
# 3 38.8719 7.5866 42.5091 0.0000 0.0000 0.0000
# 4 0.0000 0.0000 0.0000 16.1867 0.0000 0.0000
# 5 0.0000 0.0000 0.0000 0.0000 29.5164 0.0000
# 6 0.0000 0.0000 0.0000 0.0000 0.0000 32.4325
#
#
#
# Elastic Compliance Matrix: (Units=1/GPa)
#
#
# Indices 1 2 3 4 5 6 
#
# 1 0.026504 -0.005840 -0.023194 0.000000 0.000000 0.000000
# 2 -0.005840 0.008867 0.003758 0.000000 0.000000 0.000000
# 3 -0.023194 0.003758 0.044063 0.000000 0.000000 0.000000
# 4 0.000000 0.000000 0.000000 0.061779 0.000000 0.000000
# 5 0.000000 0.000000 0.000000 0.000000 0.033880 0.000000
# 6 0.000000 0.000000 0.000000 0.000000 0.000000 0.030833
#
#
# Mechanical properties :
#
#
# Convention : Reuss Voigt Hill
#
# Bulk Modulus (GPa) = 34.62402 46.71151 40.66777
# Shear Modulus (GPa) = 18.78944 27.16077 22.97511
#
# Velocity S-wave (km/s) = 3.08752 3.71214 3.41415
# Velocity P-wave (km/s) = 5.50244 6.48632 6.01453
#
# Compressibility (1/GPa) = 0.02888168
#
# Stress axis : x y z
#
# Youngs Moduli (GPa) = 37.72956 112.77973 22.69456
#
# Poissons Ratio (x) = 0.65866 0.52638
# Poissons Ratio (y) = 0.22035 -0.08529
# Poissons Ratio (z) = 0.87511 -0.42383
#
# Static dielectric constant tensor:
#      x y z
#    x 1.714380 0.000000 0.000000 
#    y 0.000000 1.667940 0.000000 
#    z 0.000000 0.000000 1.750220 
# 
# From -- ./inp_files/22212.got.cif
#   From: 2010.05.17/outbox.ucp.g08.bks.cvg/sg60_12_cif.got.tgz:22212.got - 2010.06.11 16:26:41.
