data_PCOD9458564
_publ_section_title
;
Structure prediction by ZEFSAII (Michael W. Deem and Ramdas Pophale) SiO2 
 PCOD9458564
Probable space group: P B C N
;
_chemical_formula_sum "Si O2"
_cell_formula_units_Z 48
_cell_length_a 11.499321
_cell_length_b 9.606605
_cell_length_c 22.112874
_cell_angle_alpha 90.000000
_cell_angle_beta 90.000000
_cell_angle_gamma 90.000000
_cell_volume 2442.796688
_symmetry_space_group_name_H-M "P B C N"
_symmetry_group_IT_number 60
_symmetry_cell_setting 'orthorhombic'
loop_
_space_group_symop_operation_xyz
x,y,z
1/2-x,1/2-y,1/2+z
1/2+x,1/2-y,-z
-x,y,1/2-z
-x,-y,-z
1/2+x,1/2+y,1/2-z
1/2-x,1/2+y,z
x,-y,1/2+z
loop_
_atom_site_type_symbol
_atom_site_label
_atom_site_fract_x
_atom_site_fract_y
_atom_site_fract_z
Si Si1 0.797359 0.404368 0.109691
Si Si2 0.739868 0.013191 0.883546
Si Si3 0.128968 0.253788 0.680524
Si Si4 0.470276 0.868946 0.042811
Si Si5 0.379569 0.580631 0.998598
Si Si6 0.635328 0.810347 0.676503
O O1 0.840100 0.536821 0.148937
O O2 0.732301 0.292513 0.150733
O O3 0.907935 0.336462 0.075683
O O4 0.702854 0.446470 0.058743
O O5 0.814687 0.107407 0.838048
O O6 0.624231 0.091074 0.906654
O O7 0.700812 0.870991 0.853596
O O8 0.811176 0.972995 0.942935
O O9 0.136224 0.294026 0.751011
O O10 0.995105 0.262554 0.659037
O O11 0.413989 0.743184 0.004982
O O12 0.500000 0.000000 0.000000
O O13 0.500000 0.500000 0.000000
#
# Coordination Sequence:
#
# PCOD9458564 Si02
#       6
#     8   8   8   8   8   8
#     4  12  24  43  69  97 138 174 224 275 341 406
#     4  12  24  45  68  98 133 176 224 279 343 402
#     4  11  25  46  69  95 134 178 231 281 335 398
#     4  12  25  42  66 102 136 177 218 274 341 410
#     4  12  27  40  68 102 135 175 218 278 344 407
#     4  11  25  45  69  97 131 181 228 281 335 397
#
# _framework density 19.649609000000002
#
# number of rings (size 3 to 8) (size 9 to 14) (size 15 to 20)
#    0.000    0.333    5.000    4.000    4.667    0.000 
#    0.000    0.000    0.000    0.000    0.000    0.000 
#    0.000    0.000    0.000    0.000    0.000    0.000 
#
# Total GULP energy -268480.628123 kJ/mol
# GULP energy per Si atom -5593.346419 kJ/mol
# Density = 1.960489 g / cm^3
# Si number density = 19.649609 Si / 1000 Ang^3
#
#
#
# Elastic Constant Matrix: (Units=GPa)
#
#
# Indices 1 2 3 4 5 6 
#
# 1 118.7786 8.9271 17.9649 0.0000 0.0000 0.0000
# 2 8.9271 22.8909 -9.8396 0.0000 0.0000 0.0000
# 3 17.9649 -9.8396 58.7533 0.0000 0.0000 0.0000
# 4 0.0000 0.0000 0.0000 29.1312 0.0000 0.0000
# 5 0.0000 0.0000 0.0000 0.0000 42.9979 0.0000
# 6 0.0000 0.0000 0.0000 0.0000 0.0000 42.1240
#
#
#
# Elastic Compliance Matrix: (Units=1/GPa)
#
#
# Indices 1 2 3 4 5 6 
#
# 1 0.009383 -0.005272 -0.003752 0.000000 0.000000 0.000000
# 2 -0.005272 0.050036 0.009992 0.000000 0.000000 0.000000
# 3 -0.003752 0.009992 0.019841 0.000000 0.000000 0.000000
# 4 0.000000 0.000000 0.000000 0.034327 0.000000 0.000000
# 5 0.000000 0.000000 0.000000 0.000000 0.023257 0.000000
# 6 0.000000 0.000000 0.000000 0.000000 0.000000 0.023739
#
#
# Mechanical properties :
#
#
# Convention : Reuss Voigt Hill
#
# Bulk Modulus (GPa) = 12.31590 26.05864 19.18727
# Shear Modulus (GPa) = 26.92329 35.07532 30.99931
#
# Velocity S-wave (km/s) = 3.70560 4.22956 3.97622
# Velocity P-wave (km/s) = 4.95883 6.09448 5.55574
#
# Compressibility (1/GPa) = 0.08119583
#
# Stress axis : x y z
#
# Youngs Moduli (GPa) = 106.57926 19.98551 50.40114
#
# Poissons Ratio (x) = 0.10536 0.18910
# Poissons Ratio (y) = 0.56187 -0.50359
# Poissons Ratio (z) = 0.39986 -0.19969
#
# Static dielectric constant tensor:
#      x y z
#    x 1.731070 0.000000 0.000000 
#    y 0.000000 1.605900 0.000000 
#    z 0.000000 0.000000 1.679020 
# 
# From -- ./inp_files/24251.got.cif
#   From: 2010.05.17/outbox.cif.g08.bks.cpg/sg60_13_cif.got.tgz:24251.got - 2010.06.03 14:59:27.
