data_PCOD9458473
_publ_section_title
;
Structure prediction by ZEFSAII (Michael W. Deem and Ramdas Pophale) SiO2 
 PCOD9458473
Probable space group: P B C N
;
_chemical_formula_sum "Si O2"
_cell_formula_units_Z 40
_cell_length_a 8.465792
_cell_length_b 9.119290
_cell_length_c 21.733835
_cell_angle_alpha 90.000000
_cell_angle_beta 90.000000
_cell_angle_gamma 90.000000
_cell_volume 1677.895798
_symmetry_space_group_name_H-M "P B C N"
_symmetry_group_IT_number 60
_symmetry_cell_setting 'orthorhombic'
loop_
_space_group_symop_operation_xyz
x,y,z
1/2-x,1/2-y,1/2+z
1/2+x,1/2-y,-z
-x,y,1/2-z
-x,-y,-z
1/2+x,1/2+y,1/2-z
1/2-x,1/2+y,z
x,-y,1/2+z
loop_
_atom_site_type_symbol
_atom_site_label
_atom_site_fract_x
_atom_site_fract_y
_atom_site_fract_z
Si Si1 0.388039 0.787556 0.855878
Si Si2 0.637618 0.709394 0.410315
Si Si3 0.145964 0.407602 0.290271
Si Si4 0.962870 0.666634 0.482890
Si Si5 0.828885 0.926617 0.330139
O O1 0.228243 0.712960 0.832505
O O2 0.417280 0.786140 0.928619
O O3 0.532342 0.692504 0.828552
O O4 0.399392 0.951309 0.830072
O O5 0.494215 0.738883 0.456268
O O6 0.688505 0.849526 0.369568
O O7 0.617006 0.570527 0.366324
O O8 0.790374 0.681081 0.453581
O O9 0.269257 0.460113 0.237881
O O10 0.000000 0.350328 0.250000
O O11 0.000000 0.500000 0.500000
#
# Coordination Sequence:
#
# PCOD9458473 Si02
#       5
#     8   8   8   8   8
#     4  11  28  46  71 106 145 189 245 295 366 442
#     4  11  24  43  76 102 145 192 241 303 364 430
#     4  12  25  45  72 104 145 186 241 305 360 437
#     4  11  25  47  73 108 146 191 246 305 367 436
#     4  11  24  47  69 105 142 191 237 294 368 433
#
# _framework density 23.839383999999999
#
# number of rings (size 3 to 8) (size 9 to 14) (size 15 to 20)
#    0.000    0.800    2.000    5.400    2.800    8.000 
#    0.000    0.000    0.000    0.000    0.000    0.000 
#    0.000    0.000    0.000    0.000    0.000    0.000 
#
# Total GULP energy -224354.741731 kJ/mol
# GULP energy per Si atom -5608.868543 kJ/mol
# Density = 2.378512 g / cm^3
# Si number density = 23.839384 Si / 1000 Ang^3
#
#
#
# Elastic Constant Matrix: (Units=GPa)
#
#
# Indices 1 2 3 4 5 6 
#
# 1 81.7542 22.7193 24.8169 0.0000 0.0000 0.0000
# 2 22.7193 67.9391 11.2150 0.0000 0.0000 0.0000
# 3 24.8169 11.2150 99.5116 0.0000 0.0000 0.0000
# 4 0.0000 0.0000 0.0000 48.2395 0.0000 0.0000
# 5 0.0000 0.0000 0.0000 0.0000 48.5288 0.0000
# 6 0.0000 0.0000 0.0000 0.0000 0.0000 44.3733
#
#
#
# Elastic Compliance Matrix: (Units=1/GPa)
#
#
# Indices 1 2 3 4 5 6 
#
# 1 0.014365 -0.004292 -0.003099 0.000000 0.000000 0.000000
# 2 -0.004292 0.016281 -0.000764 0.000000 0.000000 0.000000
# 3 -0.003099 -0.000764 0.010908 0.000000 0.000000 0.000000
# 4 0.000000 0.000000 0.000000 0.020730 0.000000 0.000000
# 5 0.000000 0.000000 0.000000 0.000000 0.020606 0.000000
# 6 0.000000 0.000000 0.000000 0.000000 0.000000 0.022536
#
#
# Mechanical properties :
#
#
# Convention : Reuss Voigt Hill
#
# Bulk Modulus (GPa) = 39.61499 40.74526 40.18013
# Shear Modulus (GPa) = 38.41678 40.92524 39.67101
#
# Velocity S-wave (km/s) = 4.01868 4.14781 4.08376
# Velocity P-wave (km/s) = 6.17953 6.32991 6.25517
#
# Compressibility (1/GPa) = 0.02524297
#
# Stress axis : x y z
#
# Youngs Moduli (GPa) = 69.61234 61.42267 91.67572
#
# Poissons Ratio (x) = 0.26365 0.28408
# Poissons Ratio (y) = 0.29880 0.07008
# Poissons Ratio (z) = 0.21571 0.04695
#
# Static dielectric constant tensor:
#      x y z
#    x 1.983420 0.000000 0.000000 
#    y 0.000000 1.828190 0.000000 
#    z 0.000000 0.000000 1.882310 
# 
# From -- ./inp_files/23815.got.cif
#   From: 2010.05.17/outbox.cif.g08.bks.cpg/sg60_12_cif.got.tgz:23815.got - 2010.06.03 14:59:27.
