data_PCOD9458248
_publ_section_title
;
Structure prediction by ZEFSAII (Michael W. Deem and Ramdas Pophale) SiO2 
 PCOD9458248
Probable space group: P B C N
;
_chemical_formula_sum "Si O2"
_cell_formula_units_Z 56
_cell_length_a 13.114975
_cell_length_b 13.182584
_cell_length_c 14.823988
_cell_angle_alpha 90.000000
_cell_angle_beta 90.000000
_cell_angle_gamma 90.000000
_cell_volume 2562.908310
_symmetry_space_group_name_H-M "P B C N"
_symmetry_group_IT_number 60
_symmetry_cell_setting 'orthorhombic'
loop_
_space_group_symop_operation_xyz
x,y,z
1/2-x,1/2-y,1/2+z
1/2+x,1/2-y,-z
-x,y,1/2-z
-x,-y,-z
1/2+x,1/2+y,1/2-z
1/2-x,1/2+y,z
x,-y,1/2+z
loop_
_atom_site_type_symbol
_atom_site_label
_atom_site_fract_x
_atom_site_fract_y
_atom_site_fract_z
Si Si1 0.727888 0.199818 0.435446
Si Si2 0.183934 0.984452 0.294562
Si Si3 0.606320 0.334441 0.804163
Si Si4 0.118526 0.762051 0.250918
Si Si5 0.884220 0.603577 0.769433
Si Si6 0.115337 0.512270 0.533290
Si Si7 0.754555 0.351293 0.593920
O O1 0.847949 0.189123 0.405195
O O2 0.669099 0.247638 0.348194
O O3 0.715605 0.267122 0.524782
O O4 0.674169 0.093659 0.457043
O O5 0.123996 0.879689 0.283841
O O6 0.301692 0.950729 0.292282
O O7 0.164331 0.059829 0.211787
O O8 0.170459 0.065411 0.375154
O O9 0.500000 0.356543 0.750000
O O10 0.628967 0.224451 0.759357
O O11 0.186128 0.696984 0.320997
O O12 0.000000 0.729853 0.250000
O O13 0.870058 0.568602 0.871536
O O14 0.000000 0.576612 0.750000
O O15 0.165552 0.584148 0.460923
O O16 0.000000 0.500000 0.500000
#
# Coordination Sequence:
#
# PCOD9458248 Si02
#       7
#     8   8   8   8   8   8   8
#     4  12  25  48  71 105 151 187 245 315 363 443
#     4  12  22  45  69 102 137 188 238 296 363 438
#     4  11  23  43  73  99 137 191 240 291 371 441
#     4  12  26  49  73 105 146 196 242 303 373 446
#     4  11  22  41  70  99 134 182 238 293 364 434
#     4  12  24  40  66 103 137 180 235 295 365 432
#     4  12  25  44  71 104 142 189 239 302 370 432
#
# _framework density 21.850176999999999
#
# number of rings (size 3 to 8) (size 9 to 14) (size 15 to 20)
#    0.000    0.286    5.714    3.000    0.000    3.429 
#    2.571    0.714    0.000    0.000    0.000    0.000 
#    0.000    0.000    0.000    0.000    0.000    0.000 
#
# Total GULP energy -312219.227371 kJ/mol
# GULP energy per Si atom -5575.343346 kJ/mol
# Density = 2.180045 g / cm^3
# Si number density = 21.850177 Si / 1000 Ang^3
#
#
#
# Elastic Constant Matrix: (Units=GPa)
#
#
# Indices 1 2 3 4 5 6 
#
# 1 103.3704 27.6373 24.8534 0.0000 0.0000 0.0000
# 2 27.6373 142.5176 31.0165 0.0000 0.0000 0.0000
# 3 24.8534 31.0165 92.9893 0.0000 0.0000 0.0000
# 4 0.0000 0.0000 0.0000 4.0211 0.0000 0.0000
# 5 0.0000 0.0000 0.0000 0.0000 33.5872 0.0000
# 6 0.0000 0.0000 0.0000 0.0000 0.0000 -26.9589
#
#
#
# Elastic Compliance Matrix: (Units=1/GPa)
#
#
# Indices 1 2 3 4 5 6 
#
# 1 0.010650 -0.001559 -0.002326 0.000000 0.000000 0.000000
# 2 -0.001559 0.007794 -0.002183 0.000000 0.000000 0.000000
# 3 -0.002326 -0.002183 0.012104 0.000000 0.000000 0.000000
# 4 0.000000 0.000000 0.000000 0.248687 0.000000 0.000000
# 5 0.000000 0.000000 0.000000 0.000000 0.029773 0.000000
# 6 0.000000 0.000000 0.000000 0.000000 0.000000 -0.037094
#
#
# Mechanical properties :
#
#
# Convention : Reuss Voigt Hill
#
# Bulk Modulus (GPa) = 54.31506 56.21018 55.26262
# Shear Modulus (GPa) = 17.23016 19.15455 18.19236
#
# Velocity S-wave (km/s) = 2.81118 2.96401 2.88860
# Velocity P-wave (km/s) = 5.95389 6.12331 6.03920
#
# Compressibility (1/GPa) = 0.01841110
#
# Stress axis : x y z
#
# Youngs Moduli (GPa) = 93.89569 128.30219 82.61814
#
# Poissons Ratio (x) = 0.20002 0.19221
# Poissons Ratio (y) = 0.14638 0.18036
# Poissons Ratio (z) = 0.21845 0.28009
#
# Static dielectric constant tensor:
#      x y z
#    x 1.855590 0.000000 0.000000 
#    y 0.000000 1.794200 0.000000 
#    z 0.000000 0.000000 1.756440 
# 
# From -- ./inp_files/16852.got.cif
#   From: 2010.05.17/outbox.cif.g08.bks.cpg/sg60_9_cif.got.tgz:16852.got - 2010.06.03 14:59:27.
