data_PCOD9458941
_publ_section_title
;
Structure prediction by ZEFSAII (Michael W. Deem and Ramdas Pophale) SiO2 
 PCOD9458941
Probable space group: P B C N
;
_chemical_formula_sum "Si O2"
_cell_formula_units_Z 48
_cell_length_a 24.000000
_cell_length_b 12.000000
_cell_length_c 9.000000
_cell_angle_alpha 90.000000
_cell_angle_beta 90.000000
_cell_angle_gamma 90.000000
_cell_volume 2592.000000
_symmetry_space_group_name_H-M "P B C N"
_symmetry_group_IT_number 60
_symmetry_cell_setting 'orthorhombic'
loop_
_space_group_symop_operation_xyz
x,y,z
1/2-x,1/2-y,1/2+z
1/2+x,1/2-y,-z
-x,y,1/2-z
-x,-y,-z
1/2+x,1/2+y,1/2-z
1/2-x,1/2+y,z
x,-y,1/2+z
loop_
_atom_site_type_symbol
_atom_site_label
_atom_site_fract_x
_atom_site_fract_y
_atom_site_fract_z
Si Si1 0.134448 0.969742 0.505300
Si Si2 0.065916 0.880184 0.223300
Si Si3 0.744965 0.615024 0.051030
Si Si4 0.567146 0.884568 0.748813
Si Si5 0.635238 0.940135 0.451191
Si Si6 0.693184 0.733616 0.334763
O O1 0.104688 0.923277 0.358233
O O2 0.154014 0.862788 0.599198
O O3 0.090388 0.051199 0.584836
O O4 0.192050 0.037896 0.483819
O O5 0.072224 0.746362 0.209300
O O6 0.000000 0.902452 0.250000
O O7 0.803608 0.545318 0.034092
O O8 0.726694 0.677455 0.200775
O O9 0.758410 0.716759 0.940033
O O10 0.500000 0.911898 0.750000
O O11 0.593787 0.900862 0.583701
O O12 0.604160 0.960761 0.861902
O O13 0.652041 0.842450 0.331633
#
# Coordination Sequence:
#
# PCOD9458941 Si02
#       6
#     8   8   8   8   8   8
#     4  12  23  43  68  97 136 172 221 278 341 399
#     4  11  25  44  69  98 135 180 228 280 333 396
#     4  10  25  39  70  97 134 169 216 276 341 401
#     4  11  24  46  69  98 136 183 230 281 332 399
#     4  10  25  43  68  96 139 175 228 274 339 401
#     4  10  24  43  64 100 134 171 219 274 338 409
#
# _framework density 18.518519000000001
#
# number of rings (size 3 to 8) (size 9 to 14) (size 15 to 20)
#    1.000    0.333    3.333    1.000    7.000    2.667 
#    0.000    0.833    0.000    0.000    0.000    0.000 
#    0.000    0.000    0.000    0.000    0.000    0.000 
#
# Total GULP energy -267261.014990 kJ/mol
# GULP energy per Si atom -5567.937812 kJ/mol
# Density = 1.847637 g / cm^3
# Si number density = 18.518519 Si / 1000 Ang^3
#
#
#
# Elastic Constant Matrix: (Units=GPa)
#
#
# Indices 1 2 3 4 5 6 
#
# 1 142.1448 35.3939 32.0982 0.0000 0.0000 0.0000
# 2 35.3939 79.3310 40.0034 0.0000 0.0000 0.0000
# 3 32.0982 40.0034 54.8152 0.0000 0.0000 0.0000
# 4 0.0000 0.0000 0.0000 35.7310 0.0000 0.0000
# 5 0.0000 0.0000 0.0000 0.0000 41.1737 0.0000
# 6 0.0000 0.0000 0.0000 0.0000 0.0000 37.7241
#
#
#
# Elastic Compliance Matrix: (Units=1/GPa)
#
#
# Indices 1 2 3 4 5 6 
#
# 1 0.008299 -0.001981 -0.003414 0.000000 0.000000 0.000000
# 2 -0.001981 0.020418 -0.013741 0.000000 0.000000 0.000000
# 3 -0.003414 -0.013741 0.030270 0.000000 0.000000 0.000000
# 4 0.000000 0.000000 0.000000 0.027987 0.000000 0.000000
# 5 0.000000 0.000000 0.000000 0.000000 0.024287 0.000000
# 6 0.000000 0.000000 0.000000 0.000000 0.000000 0.026508
#
#
# Mechanical properties :
#
#
# Convention : Reuss Voigt Hill
#
# Bulk Modulus (GPa) = 48.27270 54.58688 51.42979
# Shear Modulus (GPa) = 27.33025 34.17880 30.75452
#
# Velocity S-wave (km/s) = 3.84583 4.30077 4.07964
# Velocity P-wave (km/s) = 6.77085 7.36227 7.07274
#
# Compressibility (1/GPa) = 0.02071564
#
# Stress axis : x y z
#
# Youngs Moduli (GPa) = 120.49171 48.97569 33.03593
#
# Poissons Ratio (x) = 0.09703 0.11278
# Poissons Ratio (y) = 0.23873 0.45394
# Poissons Ratio (z) = 0.41135 0.67297
#
# Static dielectric constant tensor:
#      x y z
#    x 1.625290 0.000000 0.000000 
#    y 0.000000 1.646310 0.000000 
#    z 0.000000 0.000000 1.719520 
# 
# From -- ./inp_files/7856.got.cif
#   From: 2010.05.17/outbox.ucp.g08.bks.cvg/sg60_4_cif.got.tgz:7856.got - 2010.06.11 16:26:41.
