data_PCOD9458386
_publ_section_title
;
Structure prediction by ZEFSAII (Michael W. Deem and Ramdas Pophale) SiO2 
 PCOD9458386
Probable space group: P B C N
;
_chemical_formula_sum "Si O2"
_cell_formula_units_Z 48
_cell_length_a 8.547029
_cell_length_b 13.758686
_cell_length_c 18.698407
_cell_angle_alpha 90.000000
_cell_angle_beta 90.000000
_cell_angle_gamma 90.000000
_cell_volume 2198.855780
_symmetry_space_group_name_H-M "P B C N"
_symmetry_group_IT_number 60
_symmetry_cell_setting 'orthorhombic'
loop_
_space_group_symop_operation_xyz
x,y,z
1/2-x,1/2-y,1/2+z
1/2+x,1/2-y,-z
-x,y,1/2-z
-x,-y,-z
1/2+x,1/2+y,1/2-z
1/2-x,1/2+y,z
x,-y,1/2+z
loop_
_atom_site_type_symbol
_atom_site_label
_atom_site_fract_x
_atom_site_fract_y
_atom_site_fract_z
Si Si1 0.282792 0.213236 0.117676
Si Si2 0.634246 0.124044 0.606442
Si Si3 0.317212 0.871467 0.023087
Si Si4 0.394011 0.898650 0.863692
Si Si5 0.669680 0.280961 0.731332
Si Si6 0.651538 0.564574 0.482938
O O1 0.304084 0.300030 0.061236
O O2 0.436786 0.150859 0.132867
O O3 0.229561 0.257993 0.192621
O O4 0.153648 0.142319 0.080886
O O5 0.487034 0.150760 0.556069
O O6 0.653327 0.197915 0.671522
O O7 0.784649 0.116766 0.554403
O O8 0.603245 0.015087 0.635272
O O9 0.280556 0.983848 0.038098
O O10 0.313528 0.864703 0.937978
O O11 0.291259 0.858878 0.798858
O O12 0.500000 0.324012 0.750000
O O13 0.500000 0.500000 0.500000
#
# Coordination Sequence:
#
# PCOD9458386 Si02
#       6
#     8   8   8   8   8   8
#     4  12  25  44  71 104 147 189 243 292 371 436
#     4  11  23  50  71 101 143 190 242 295 373 428
#     4  11  23  43  76 102 135 186 240 300 360 424
#     4  11  25  47  73 101 139 194 239 297 365 447
#     4  12  28  44  67 104 145 193 233 300 361 439
#     4  11  25  42  74 114 136 180 243 308 357 429
#
# _framework density 21.829533999999999
#
# number of rings (size 3 to 8) (size 9 to 14) (size 15 to 20)
#    0.000    0.667    5.000    2.500    9.333    2.667 
#    0.000    1.667    0.000    0.000    0.000    0.000 
#    0.000    0.000    0.000    0.000    0.000    0.000 
#
# Total GULP energy -268468.303881 kJ/mol
# GULP energy per Si atom -5593.089664 kJ/mol
# Density = 2.177985 g / cm^3
# Si number density = 21.829534 Si / 1000 Ang^3
#
#
#
# Elastic Constant Matrix: (Units=GPa)
#
#
# Indices 1 2 3 4 5 6 
#
# 1 81.9418 15.4602 23.6174 0.0000 0.0000 0.0000
# 2 15.4602 73.1105 34.7410 0.0000 0.0000 0.0000
# 3 23.6174 34.7410 110.1166 0.0000 0.0000 0.0000
# 4 0.0000 0.0000 0.0000 32.8669 0.0000 0.0000
# 5 0.0000 0.0000 0.0000 0.0000 41.1675 0.0000
# 6 0.0000 0.0000 0.0000 0.0000 0.0000 29.5229
#
#
#
# Elastic Compliance Matrix: (Units=1/GPa)
#
#
# Indices 1 2 3 4 5 6 
#
# 1 0.013185 -0.001699 -0.002292 0.000000 0.000000 0.000000
# 2 -0.001699 0.016309 -0.004781 0.000000 0.000000 0.000000
# 3 -0.002292 -0.004781 0.011081 0.000000 0.000000 0.000000
# 4 0.000000 0.000000 0.000000 0.030426 0.000000 0.000000
# 5 0.000000 0.000000 0.000000 0.000000 0.024291 0.000000
# 6 0.000000 0.000000 0.000000 0.000000 0.000000 0.033872
#
#
# Mechanical properties :
#
#
# Convention : Reuss Voigt Hill
#
# Bulk Modulus (GPa) = 43.41897 45.86736 44.64317
# Shear Modulus (GPa) = 32.38660 33.46814 32.92737
#
# Velocity S-wave (km/s) = 3.85595 3.91980 3.88801
# Velocity P-wave (km/s) = 6.30537 6.44544 6.37579
#
# Compressibility (1/GPa) = 0.02303141
#
# Stress axis : x y z
#
# Youngs Moduli (GPa) = 75.84429 61.31559 90.24307
#
# Poissons Ratio (x) = 0.10418 0.20682
# Poissons Ratio (y) = 0.12887 0.43145
# Poissons Ratio (z) = 0.17382 0.29315
#
# Static dielectric constant tensor:
#      x y z
#    x 1.848060 0.000000 0.000000 
#    y 0.000000 1.785790 0.000000 
#    z 0.000000 0.000000 1.792430 
# 
# From -- ./inp_files/19315.got.cif
#   From: 2010.05.17/outbox.cif.g08.bks.cpg/sg60_10_cif.got.tgz:19315.got - 2010.06.03 14:59:27.
