data_PCOD9458635
_publ_section_title
;
Structure prediction by ZEFSAII (Michael W. Deem and Ramdas Pophale) SiO2 
 PCOD9458635
Probable space group: P B C N
;
_chemical_formula_sum "Si O2"
_cell_formula_units_Z 64
_cell_length_a 16.982344
_cell_length_b 17.089716
_cell_length_c 8.706898
_cell_angle_alpha 90.000000
_cell_angle_beta 90.000000
_cell_angle_gamma 90.000000
_cell_volume 2526.945854
_symmetry_space_group_name_H-M "P B C N"
_symmetry_group_IT_number 60
_symmetry_cell_setting 'orthorhombic'
loop_
_space_group_symop_operation_xyz
x,y,z
1/2-x,1/2-y,1/2+z
1/2+x,1/2-y,-z
-x,y,1/2-z
-x,-y,-z
1/2+x,1/2+y,1/2-z
1/2-x,1/2+y,z
x,-y,1/2+z
loop_
_atom_site_type_symbol
_atom_site_label
_atom_site_fract_x
_atom_site_fract_y
_atom_site_fract_z
Si Si1 0.019365 0.792741 0.066045
Si Si2 0.186184 0.573207 0.355850
Si Si3 0.887866 0.106573 0.423001
Si Si4 0.187127 0.858169 0.092882
Si Si5 0.592949 0.482942 0.207027
Si Si6 0.624621 0.095507 0.651757
Si Si7 0.465723 0.879062 0.029414
Si Si8 0.228932 0.686381 0.076057
O O1 0.106908 0.029188 0.971964
O O2 0.965816 0.849268 0.966369
O O3 0.107039 0.819409 0.029057
O O4 0.997194 0.706377 0.013686
O O5 0.180802 0.479984 0.330095
O O6 0.097611 0.595579 0.404840
O O7 0.204584 0.624291 0.206656
O O8 0.000000 0.798749 0.250000
O O9 0.882554 0.069325 0.256905
O O10 0.817586 0.163478 0.464245
O O11 0.673782 0.163297 0.567689
O O12 0.227247 0.774881 0.138691
O O13 0.250498 0.901844 0.985549
O O14 0.415676 0.880512 0.187927
O O15 0.500000 0.472886 0.250000
O O16 0.649907 0.417755 0.283081
O O17 0.547678 0.925857 0.048657
#
# Coordination Sequence:
#
# PCOD9458635 Si02
#       8
#     8   8   8   8   8   8   8   8
#     4  12  24  51  82 115 161 212 263 328 402 474
#     4  12  28  47  79 112 155 213 259 332 402 481
#     4  12  28  48  77 115 155 211 262 328 392 490
#     4  12  26  48  78 115 156 203 269 323 400 475
#     4  12  27  50  80 112 157 208 263 331 400 481
#     4  11  26  51  74 120 156 201 255 335 391 477
#     4  11  26  49  82 114 155 204 268 323 392 477
#     4  12  29  48  78 113 158 207 268 320 403 469
#
# _framework density 25.327017000000001
#
# number of rings (size 3 to 8) (size 9 to 14) (size 15 to 20)
#    0.000    0.250    3.750    3.750    7.000    2.000 
#    2.250    0.000    0.000    0.000    0.000    0.000 
#    0.000    0.000    0.000    0.000    0.000    0.000 
#
# Total GULP energy -358520.889892 kJ/mol
# GULP energy per Si atom -5601.888905 kJ/mol
# Density = 2.526937 g / cm^3
# Si number density = 25.327017 Si / 1000 Ang^3
#
#
#
# Elastic Constant Matrix: (Units=GPa)
#
#
# Indices 1 2 3 4 5 6 
#
# 1 149.2042 41.4382 20.5308 0.0000 0.0000 0.0000
# 2 41.4382 124.8216 37.5050 0.0000 0.0000 0.0000
# 3 20.5308 37.5050 45.8077 0.0000 0.0000 0.0000
# 4 0.0000 0.0000 0.0000 19.9628 0.0000 0.0000
# 5 0.0000 0.0000 0.0000 0.0000 39.2435 0.0000
# 6 0.0000 0.0000 0.0000 0.0000 0.0000 50.7508
#
#
#
# Elastic Compliance Matrix: (Units=1/GPa)
#
#
# Indices 1 2 3 4 5 6 
#
# 1 0.007487 -0.001959 -0.001752 0.000000 0.000000 0.000000
# 2 -0.001959 0.011138 -0.008241 0.000000 0.000000 0.000000
# 3 -0.001752 -0.008241 0.029363 0.000000 0.000000 0.000000
# 4 0.000000 0.000000 0.000000 0.050093 0.000000 0.000000
# 5 0.000000 0.000000 0.000000 0.000000 0.025482 0.000000
# 6 0.000000 0.000000 0.000000 0.000000 0.000000 0.019704
#
#
# Mechanical properties :
#
#
# Convention : Reuss Voigt Hill
#
# Bulk Modulus (GPa) = 41.52100 57.64239 49.58169
# Shear Modulus (GPa) = 28.53885 36.68206 32.61045
#
# Velocity S-wave (km/s) = 3.36045 3.80983 3.59217
# Velocity P-wave (km/s) = 5.61127 6.49321 6.06828
#
# Compressibility (1/GPa) = 0.02408420
#
# Stress axis : x y z
#
# Youngs Moduli (GPa) = 133.55735 89.78188 34.05662
#
# Poissons Ratio (x) = 0.17592 0.05965
# Poissons Ratio (y) = 0.26169 0.28066
# Poissons Ratio (z) = 0.23394 0.73990
#
# Static dielectric constant tensor:
#      x y z
#    x 1.999970 0.000000 0.000000 
#    y 0.000000 1.986290 0.000000 
#    z 0.000000 0.000000 2.024020 
# 
# From -- ./inp_files/12128.got.cif
#   From: 2010.05.17/outbox.cif.g08.bks.cpg/sg60_7_cif.got.tgz:12128.got - 2010.06.03 14:59:27.
