data_PCOD9458463
_publ_section_title
;
Structure prediction by ZEFSAII (Michael W. Deem and Ramdas Pophale) SiO2 
 PCOD9458463
Probable space group: P B C N
;
_chemical_formula_sum "Si O2"
_cell_formula_units_Z 32
_cell_length_a 8.247813
_cell_length_b 33.640816
_cell_length_c 4.997231
_cell_angle_alpha 90.000000
_cell_angle_beta 90.000000
_cell_angle_gamma 90.000000
_cell_volume 1386.547502
_symmetry_space_group_name_H-M "P B C N"
_symmetry_group_IT_number 60
_symmetry_cell_setting 'orthorhombic'
loop_
_space_group_symop_operation_xyz
x,y,z
1/2-x,1/2-y,1/2+z
1/2+x,1/2-y,-z
-x,y,1/2-z
-x,-y,-z
1/2+x,1/2+y,1/2-z
1/2-x,1/2+y,z
x,-y,1/2+z
loop_
_atom_site_type_symbol
_atom_site_label
_atom_site_fract_x
_atom_site_fract_y
_atom_site_fract_z
Si Si1 0.156717 0.594166 0.446795
Si Si2 0.500000 0.029308 0.750000
Si Si3 0.228153 0.274589 0.482971
Si Si4 0.000000 0.830256 0.250000
Si Si5 0.500000 0.611765 0.250000
Si Si6 0.000000 0.665836 0.750000
O O1 0.143521 0.560079 0.672989
O O2 0.324869 0.590551 0.284493
O O3 0.125631 0.636043 0.601450
O O4 0.000000 0.589967 0.250000
O O5 0.500000 0.000000 0.500000
O O6 0.286188 0.262597 0.777819
O O7 0.358699 0.300438 0.326573
O O8 0.075002 0.303844 0.466582
O O9 0.996494 0.859720 0.497274
#
# Coordination Sequence:
#
# PCOD9458463 Si02
#       6
#     8   4   8   4   4   4
#     4  11  25  46  80 107 143 196 233 296 358 430
#     4  11  24  48  78 114 152 186 230 284 356 440
#     4  12  25  41  62  93 134 186 243 307 374 426
#     4  12  24  44  62  96 138 181 237 318 355 419
#     4  12  26  45  72 108 144 176 254 294 351 431
#     4  11  24  43  66  98 138 187 253 300 362 438
#
# _framework density 23.078906
#
# number of rings (size 3 to 8) (size 9 to 14) (size 15 to 20)
#    0.000    0.500    3.750    4.500    7.000    0.000 
#    0.000    1.250    0.000    0.000    0.000    0.000 
#    0.000    0.000    0.000    0.000    0.000    0.000 
#
# Total GULP energy -178701.302327 kJ/mol
# GULP energy per Si atom -5584.415698 kJ/mol
# Density = 2.302638 g / cm^3
# Si number density = 23.078906 Si / 1000 Ang^3
#
#
#
# Elastic Constant Matrix: (Units=GPa)
#
#
# Indices 1 2 3 4 5 6 
#
# 1 137.6791 19.1749 21.5074 0.0000 0.0000 0.0000
# 2 19.1749 72.7293 3.6933 0.0000 0.0000 0.0000
# 3 21.5074 3.6933 125.7061 0.0000 0.0000 0.0000
# 4 0.0000 0.0000 0.0000 33.9338 0.0000 0.0000
# 5 0.0000 0.0000 0.0000 0.0000 35.7023 0.0000
# 6 0.0000 0.0000 0.0000 0.0000 0.0000 13.3898
#
#
#
# Elastic Compliance Matrix: (Units=1/GPa)
#
#
# Indices 1 2 3 4 5 6 
#
# 1 0.007736 -0.001975 -0.001266 0.000000 0.000000 0.000000
# 2 -0.001975 0.014275 -0.000081 0.000000 0.000000 0.000000
# 3 -0.001266 -0.000081 0.008174 0.000000 0.000000 0.000000
# 4 0.000000 0.000000 0.000000 0.029469 0.000000 0.000000
# 5 0.000000 0.000000 0.000000 0.000000 0.028009 0.000000
# 6 0.000000 0.000000 0.000000 0.000000 0.000000 0.074683
#
#
# Mechanical properties :
#
#
# Convention : Reuss Voigt Hill
#
# Bulk Modulus (GPa) = 42.48091 47.20729 44.84410
# Shear Modulus (GPa) = 28.27448 36.05445 32.16447
#
# Velocity S-wave (km/s) = 3.50397 3.95679 3.73724
# Velocity P-wave (km/s) = 5.90061 6.43226 6.17216
#
# Compressibility (1/GPa) = 0.02353999
#
# Stress axis : x y z
#
# Youngs Moduli (GPa) = 129.26461 70.05474 122.33939
#
# Poissons Ratio (x) = 0.13838 0.15483
# Poissons Ratio (y) = 0.25534 0.00996
# Poissons Ratio (z) = 0.16359 0.00570
#
# Static dielectric constant tensor:
#      x y z
#    x 2.063550 0.000000 0.000000 
#    y 0.000000 1.951950 0.000000 
#    z 0.000000 0.000000 1.869970 
# 
# From -- ./inp_files/416.got.cif
#   From: 2010.05.17/outbox.cif.g08.bks.cpg/sg60_1_cif.got.tgz:416.got - 2010.06.03 14:59:27.
