data_PCOD9458177
_publ_section_title
;
Structure prediction by ZEFSAII (Michael W. Deem and Ramdas Pophale) SiO2 
 PCOD9458177
Probable space group: P B C N
;
_chemical_formula_sum "Si O2"
_cell_formula_units_Z 64
_cell_length_a 24.539224
_cell_length_b 12.589551
_cell_length_c 8.970923
_cell_angle_alpha 90.000000
_cell_angle_beta 90.000000
_cell_angle_gamma 90.000000
_cell_volume 2771.457324
_symmetry_space_group_name_H-M "P B C N"
_symmetry_group_IT_number 60
_symmetry_cell_setting 'orthorhombic'
loop_
_space_group_symop_operation_xyz
x,y,z
1/2-x,1/2-y,1/2+z
1/2+x,1/2-y,-z
-x,y,1/2-z
-x,-y,-z
1/2+x,1/2+y,1/2-z
1/2-x,1/2+y,z
x,-y,1/2+z
loop_
_atom_site_type_symbol
_atom_site_label
_atom_site_fract_x
_atom_site_fract_y
_atom_site_fract_z
Si Si1 0.561136 0.224437 0.298868
Si Si2 0.286856 0.073508 0.139244
Si Si3 0.061449 0.506580 0.051240
Si Si4 0.789435 0.966322 0.600573
Si Si5 0.539557 0.540133 0.365984
Si Si6 0.648485 0.737380 0.015091
Si Si7 0.391993 0.605757 0.867302
Si Si8 0.873536 0.405446 0.233056
O O1 0.500000 0.253066 0.250000
O O2 0.563266 0.099365 0.324494
O O3 0.586587 0.269597 0.452847
O O4 0.601664 0.271919 0.176938
O O5 0.241239 0.090501 0.263934
O O6 0.327951 0.984943 0.204370
O O7 0.318275 0.179140 0.087629
O O8 0.255878 0.021885 0.000019
O O9 0.082258 0.402530 0.135197
O O10 0.099648 0.543880 0.916113
O O11 0.000000 0.500000 0.000000
O O12 0.823856 0.876329 0.515966
O O13 0.832895 0.055008 0.649707
O O14 0.500000 0.601894 0.250000
O O15 0.500000 0.500000 0.500000
O O16 0.586825 0.592608 0.464150
O O17 0.568782 0.454980 0.254520
O O18 0.647259 0.792068 0.177173
#
# Coordination Sequence:
#
# PCOD9458177 Si02
#       8
#     8   8   8   8   8   8   8   8
#     4  11  22  41  69 104 140 190 237 285 368 441
#     4  12  24  47  71 100 140 188 237 301 371 420
#     4  11  23  41  73 104 140 180 237 305 368 440
#     4  12  27  45  71 104 145 190 248 301 360 434
#     4   9  18  35  63  92 129 188 235 279 348 413
#     4  11  26  44  72 105 142 181 246 300 362 444
#     4  11  22  41  64 100 145 190 237 299 351 430
#     4  11  21  46  68 103 136 179 229 299 368 425
#
# _framework density 23.092542000000002
#
# number of rings (size 3 to 8) (size 9 to 14) (size 15 to 20)
#    0.000    1.000    3.750    4.500    1.750    2.000 
#    0.000    5.000    0.000    6.000    0.000    0.000 
#    0.000    0.000    0.000    0.000    0.000    0.000 
#
# Total GULP energy -357631.408391 kJ/mol
# GULP energy per Si atom -5587.990756 kJ/mol
# Density = 2.303998 g / cm^3
# Si number density = 23.092542 Si / 1000 Ang^3
#
#
#
# Elastic Constant Matrix: (Units=GPa)
#
#
# Indices 1 2 3 4 5 6 
#
# 1 132.0635 39.1648 43.4425 0.0000 0.0000 0.0000
# 2 39.1648 75.1984 31.9822 0.0000 0.0000 0.0000
# 3 43.4425 31.9822 106.3374 0.0000 0.0000 0.0000
# 4 0.0000 0.0000 0.0000 31.3938 0.0000 0.0000
# 5 0.0000 0.0000 0.0000 0.0000 53.8149 0.0000
# 6 0.0000 0.0000 0.0000 0.0000 0.0000 25.9135
#
#
#
# Elastic Compliance Matrix: (Units=1/GPa)
#
#
# Indices 1 2 3 4 5 6 
#
# 1 0.009622 -0.003829 -0.002779 0.000000 0.000000 0.000000
# 2 -0.003829 0.016773 -0.003480 0.000000 0.000000 0.000000
# 3 -0.002779 -0.003480 0.011586 0.000000 0.000000 0.000000
# 4 0.000000 0.000000 0.000000 0.031853 0.000000 0.000000
# 5 0.000000 0.000000 0.000000 0.000000 0.018582 0.000000
# 6 0.000000 0.000000 0.000000 0.000000 0.000000 0.038590
#
#
# Mechanical properties :
#
#
# Convention : Reuss Voigt Hill
#
# Bulk Modulus (GPa) = 56.16898 60.30868 58.23883
# Shear Modulus (GPa) = 32.65453 35.49176 34.07315
#
# Velocity S-wave (km/s) = 3.76450 3.92463 3.84540
# Velocity P-wave (km/s) = 6.57811 6.83445 6.70750
#
# Compressibility (1/GPa) = 0.01780342
#
# Stress axis : x y z
#
# Youngs Moduli (GPa) = 103.92897 59.62086 86.31014
#
# Poissons Ratio (x) = 0.22831 0.23987
# Poissons Ratio (y) = 0.39798 0.30037
# Poissons Ratio (z) = 0.28884 0.20749
#
# Static dielectric constant tensor:
#      x y z
#    x 1.900100 0.000000 0.000000 
#    y 0.000000 1.879170 0.000000 
#    z 0.000000 0.000000 1.877280 
# 
# From -- ./inp_files/7990.got.cif
#   From: 2010.05.17/outbox.cif.g08.bks.cpg/sg60_4_cif.got.tgz:7990.got - 2010.06.03 14:59:27.
