data_PCOD9458152
_publ_section_title
;
Structure prediction by ZEFSAII (Michael W. Deem and Ramdas Pophale) SiO2 
 PCOD9458152
Probable space group: P B C N
;
_chemical_formula_sum "Si O2"
_cell_formula_units_Z 44
_cell_length_a 8.305772
_cell_length_b 15.649112
_cell_length_c 13.497766
_cell_angle_alpha 90.000000
_cell_angle_beta 90.000000
_cell_angle_gamma 90.000000
_cell_volume 1754.412039
_symmetry_space_group_name_H-M "P B C N"
_symmetry_group_IT_number 60
_symmetry_cell_setting 'orthorhombic'
loop_
_space_group_symop_operation_xyz
x,y,z
1/2-x,1/2-y,1/2+z
1/2+x,1/2-y,-z
-x,y,1/2-z
-x,-y,-z
1/2+x,1/2+y,1/2-z
1/2-x,1/2+y,z
x,-y,1/2+z
loop_
_atom_site_type_symbol
_atom_site_label
_atom_site_fract_x
_atom_site_fract_y
_atom_site_fract_z
Si Si1 0.831063 0.827980 0.563147
Si Si2 0.952984 0.393622 0.145391
Si Si3 0.496755 0.209071 0.063466
Si Si4 0.000000 0.881444 0.750000
Si Si5 0.177476 0.436215 0.656200
Si Si6 0.178503 0.979990 0.454366
O O1 0.902603 0.795777 0.460206
O O2 0.680000 0.769848 0.588285
O O3 0.760590 0.923297 0.557608
O O4 0.960414 0.830838 0.650410
O O5 0.994325 0.338930 0.045984
O O6 0.766939 0.426646 0.133404
O O7 0.000000 0.349994 0.250000
O O8 0.064361 0.480122 0.152899
O O9 0.425099 0.150696 0.150406
O O10 0.165649 0.933056 0.726798
O O11 0.249864 0.433254 0.547464
O O12 0.000000 0.000000 0.500000
#
# Coordination Sequence:
#
# PCOD9458152 Si02
#       6
#     8   8   8   4   8   8
#     4  12  24  44  63  96 133 176 222 269 339 406
#     4  11  23  42  70  99 132 172 229 282 336 397
#     4  11  25  44  67  93 138 186 212 276 346 411
#     4  12  26  38  72 102 130 168 230 288 326 410
#     4  11  22  43  68 101 129 175 227 274 344 393
#     4  11  21  42  67  94 130 174 222 277 338 407
#
# _framework density 25.079626999999999
#
# number of rings (size 3 to 8) (size 9 to 14) (size 15 to 20)
#    0.000    0.727    5.455    3.273    3.818    0.000 
#    0.000    0.000    0.000    0.000    0.000    0.000 
#    0.000    0.000    0.000    0.000    0.000    0.000 
#
# Total GULP energy -245088.431614 kJ/mol
# GULP energy per Si atom -5570.191628 kJ/mol
# Density = 2.502255 g / cm^3
# Si number density = 25.079627 Si / 1000 Ang^3
#
#
#
# Elastic Constant Matrix: (Units=GPa)
#
#
# Indices 1 2 3 4 5 6 
#
# 1 123.5349 7.8044 25.5918 0.0000 0.0000 0.0000
# 2 7.8044 81.4099 21.9663 0.0000 0.0000 0.0000
# 3 25.5918 21.9663 105.3733 0.0000 0.0000 0.0000
# 4 0.0000 0.0000 0.0000 20.5364 0.0000 0.0000
# 5 0.0000 0.0000 0.0000 0.0000 33.5234 0.0000
# 6 0.0000 0.0000 0.0000 0.0000 0.0000 24.3130
#
#
#
# Elastic Compliance Matrix: (Units=1/GPa)
#
#
# Indices 1 2 3 4 5 6 
#
# 1 0.008530 -0.000274 -0.002014 0.000000 0.000000 0.000000
# 2 -0.000274 0.013024 -0.002649 0.000000 0.000000 0.000000
# 3 -0.002014 -0.002649 0.010531 0.000000 0.000000 0.000000
# 4 0.000000 0.000000 0.000000 0.048694 0.000000 0.000000
# 5 0.000000 0.000000 0.000000 0.000000 0.029830 0.000000
# 6 0.000000 0.000000 0.000000 0.000000 0.000000 0.041130
#
#
# Mechanical properties :
#
#
# Convention : Reuss Voigt Hill
#
# Bulk Modulus (GPa) = 45.02226 46.78256 45.90241
# Shear Modulus (GPa) = 29.58274 32.67159 31.12717
#
# Velocity S-wave (km/s) = 3.43819 3.61323 3.52679
# Velocity P-wave (km/s) = 5.80967 6.00844 5.90989
#
# Compressibility (1/GPa) = 0.02221124
#
# Stress axis : x y z
#
# Youngs Moduli (GPa) = 117.24014 76.77881 94.95404
#
# Poissons Ratio (x) = 0.02105 0.19127
# Poissons Ratio (y) = 0.03214 0.25149
# Poissons Ratio (z) = 0.23617 0.20335
#
# Static dielectric constant tensor:
#      x y z
#    x 2.203940 0.000000 0.000000 
#    y 0.000000 2.122190 0.000000 
#    z 0.000000 0.000000 1.997370 
# 
# From -- ./inp_files/14899.got.cif
#   From: 2010.05.17/outbox.cif.g08.bks.cpg/sg60_8_cif.got.tgz:14899.got - 2010.06.03 14:59:27.
