data_PCOD9458081
_publ_section_title
;
Structure prediction by ZEFSAII (Michael W. Deem and Ramdas Pophale) SiO2 
 PCOD9458081
Probable space group: P B C N
;
_chemical_formula_sum "Si O2"
_cell_formula_units_Z 40
_cell_length_a 4.786187
_cell_length_b 28.575372
_cell_length_c 11.472276
_cell_angle_alpha 90.000000
_cell_angle_beta 90.000000
_cell_angle_gamma 90.000000
_cell_volume 1569.029620
_symmetry_space_group_name_H-M "P B C N"
_symmetry_group_IT_number 60
_symmetry_cell_setting 'orthorhombic'
loop_
_space_group_symop_operation_xyz
x,y,z
1/2-x,1/2-y,1/2+z
1/2+x,1/2-y,-z
-x,y,1/2-z
-x,-y,-z
1/2+x,1/2+y,1/2-z
1/2-x,1/2+y,z
x,-y,1/2+z
loop_
_atom_site_type_symbol
_atom_site_label
_atom_site_fract_x
_atom_site_fract_y
_atom_site_fract_z
Si Si1 0.585853 0.201904 0.426946
Si Si2 0.234742 0.386321 0.826810
Si Si3 0.454665 0.968222 0.116358
Si Si4 0.593319 0.695509 0.922847
Si Si5 0.969052 0.907837 0.069707
O O1 0.449605 0.157980 0.365748
O O2 0.909817 0.196108 0.456947
O O3 0.523049 0.252959 0.374613
O O4 0.421323 0.199348 0.550553
O O5 0.500000 0.373433 0.750000
O O6 0.000000 0.413829 0.750000
O O7 0.389793 0.407362 0.940340
O O8 0.500000 0.984848 0.250000
O O9 0.649638 0.922846 0.085877
O O10 0.139765 0.950006 0.124539
O O11 0.500000 0.000000 0.000000
O O12 0.523872 0.643893 0.878489
#
# Coordination Sequence:
#
# PCOD9458081 Si02
#       5
#     8   8   8   8   8
#     4   9  17  31  52  85 131 184 234 277 326 384
#     4  11  21  35  59  98 143 185 233 283 333 400
#     4  12  28  51  77 105 137 173 222 286 358 432
#     4   9  17  33  59  86 124 179 230 280 334 390
#     4  11  23  44  71 100 135 177 226 284 346 414
#
# _framework density 25.493462000000001
#
# number of rings (size 3 to 8) (size 9 to 14) (size 15 to 20)
#    0.000    1.600    0.000    7.200    0.000    2.400 
#    0.000    3.000    0.000    0.000    0.000    0.000 
#    0.000    0.000    0.000    0.000    0.000    0.000 
#
# Total GULP energy -222865.389332 kJ/mol
# GULP energy per Si atom -5571.634733 kJ/mol
# Density = 2.543544 g / cm^3
# Si number density = 25.493462 Si / 1000 Ang^3
#
#
#
# Elastic Constant Matrix: (Units=GPa)
#
#
# Indices 1 2 3 4 5 6 
#
# 1 84.8781 -21.2722 10.9064 0.0000 0.0000 0.0000
# 2 -21.2722 107.3078 30.7888 0.0000 0.0000 0.0000
# 3 10.9064 30.7888 154.4432 0.0000 0.0000 0.0000
# 4 0.0000 0.0000 0.0000 -28.8848 0.0000 0.0000
# 5 0.0000 0.0000 0.0000 0.0000 38.4104 0.0000
# 6 0.0000 0.0000 0.0000 0.0000 0.0000 27.4850
#
#
#
# Elastic Compliance Matrix: (Units=1/GPa)
#
#
# Indices 1 2 3 4 5 6 
#
# 1 0.012711 0.002946 -0.001485 0.000000 0.000000 0.000000
# 2 0.002946 0.010567 -0.002315 0.000000 0.000000 0.000000
# 3 -0.001485 -0.002315 0.007041 0.000000 0.000000 0.000000
# 4 0.000000 0.000000 0.000000 -0.034620 0.000000 0.000000
# 5 0.000000 0.000000 0.000000 0.000000 0.026035 0.000000
# 6 0.000000 0.000000 0.000000 0.000000 0.000000 0.036383
#
#
# Mechanical properties :
#
#
# Convention : Reuss Voigt Hill
#
# Bulk Modulus (GPa) = 34.95104 43.05278 39.00191
# Shear Modulus (GPa) = 72.08636 29.14918 50.61777
#
# Velocity S-wave (km/s) = 5.32333 3.38509 4.46075
# Velocity P-wave (km/s) = 7.17797 5.67476 6.47017
#
# Compressibility (1/GPa) = 0.02861145
#
# Stress axis : x y z
#
# Youngs Moduli (GPa) = 78.67409 94.63383 142.02219
#
# Poissons Ratio (x) = -0.27877 0.21088
# Poissons Ratio (y) = -0.23175 0.32872
# Poissons Ratio (z) = 0.11682 0.21904
#
# Static dielectric constant tensor:
#      x y z
#    x 1.889760 0.000000 0.000000 
#    y 0.000000 2.052040 0.000000 
#    z 0.000000 0.000000 2.195760 
# 
# From -- ./inp_files/9091.got.cif
#   From: 2010.05.17/outbox.cif.g08.bks.cpg/sg60_5_cif.got.tgz:9091.got - 2010.06.03 14:59:27.
