data_PCOD9458250
_publ_section_title
;
Structure prediction by ZEFSAII (Michael W. Deem and Ramdas Pophale) SiO2 
 PCOD9458250
Probable space group: P B C N
;
_chemical_formula_sum "Si O2"
_cell_formula_units_Z 48
_cell_length_a 8.777126
_cell_length_b 18.556568
_cell_length_c 14.195294
_cell_angle_alpha 90.000000
_cell_angle_beta 90.000000
_cell_angle_gamma 90.000000
_cell_volume 2312.034882
_symmetry_space_group_name_H-M "P B C N"
_symmetry_group_IT_number 60
_symmetry_cell_setting 'orthorhombic'
loop_
_space_group_symop_operation_xyz
x,y,z
1/2-x,1/2-y,1/2+z
1/2+x,1/2-y,-z
-x,y,1/2-z
-x,-y,-z
1/2+x,1/2+y,1/2-z
1/2-x,1/2+y,z
x,-y,1/2+z
loop_
_atom_site_type_symbol
_atom_site_label
_atom_site_fract_x
_atom_site_fract_y
_atom_site_fract_z
Si Si1 0.832453 0.913783 0.978900
Si Si2 0.179535 0.536242 0.634043
Si Si3 0.304766 0.156309 0.332582
Si Si4 0.147994 0.702340 0.129568
Si Si5 0.345322 0.346536 0.019832
Si Si6 0.176485 0.487212 0.343898
O O1 0.745228 0.841898 0.946234
O O2 0.790691 0.971805 0.898293
O O3 0.006818 0.894242 0.997200
O O4 0.765861 0.948588 0.073396
O O5 0.216974 0.602080 0.565185
O O6 0.202635 0.552134 0.744290
O O7 0.002670 0.513479 0.628766
O O8 0.482246 0.167220 0.357091
O O9 0.274977 0.193564 0.232352
O O10 0.209663 0.185292 0.420433
O O11 0.277361 0.070394 0.328571
O O12 0.125089 0.783098 0.093602
#
# Coordination Sequence:
#
# PCOD9458250 Si02
#       6
#     8   8   8   8   8   8
#     4  12  23  42  67 101 135 172 217 283 331 390
#     4  11  22  42  65 101 128 174 230 267 315 398
#     4  11  22  45  70  87 127 179 225 267 323 409
#     4  11  24  45  69  90 132 181 226 260 336 411
#     4  12  27  40  64 106 137 167 211 286 346 384
#     4  11  22  41  74  94 124 183 232 266 318 393
#
# _framework density 20.760932
#
# number of rings (size 3 to 8) (size 9 to 14) (size 15 to 20)
#    0.000    0.667    5.000    4.000    0.000    5.333 
#    0.000    1.667    0.000    0.000    0.000    0.000 
#    0.000    0.000    0.000    0.000    0.000    0.000 
#
# Total GULP energy -268412.699674 kJ/mol
# GULP energy per Si atom -5591.931243 kJ/mol
# Density = 2.071368 g / cm^3
# Si number density = 20.760932 Si / 1000 Ang^3
#
#
#
# Elastic Constant Matrix: (Units=GPa)
#
#
# Indices 1 2 3 4 5 6 
#
# 1 58.9549 20.0963 59.1537 0.0000 0.0000 0.0000
# 2 20.0963 50.8106 40.5924 0.0000 0.0000 0.0000
# 3 59.1537 40.5924 161.4112 0.0000 0.0000 0.0000
# 4 0.0000 0.0000 0.0000 20.0270 0.0000 0.0000
# 5 0.0000 0.0000 0.0000 0.0000 -13.0791 0.0000
# 6 0.0000 0.0000 0.0000 0.0000 0.0000 -19.3232
#
#
#
# Elastic Compliance Matrix: (Units=1/GPa)
#
#
# Indices 1 2 3 4 5 6 
#
# 1 0.027319 -0.003512 -0.009128 0.000000 0.000000 0.000000
# 2 -0.003512 0.025081 -0.005020 0.000000 0.000000 0.000000
# 3 -0.009128 -0.005020 0.010803 0.000000 0.000000 0.000000
# 4 0.000000 0.000000 0.000000 0.049933 0.000000 0.000000
# 5 0.000000 0.000000 0.000000 0.000000 -0.076458 0.000000
# 6 0.000000 0.000000 0.000000 0.000000 0.000000 -0.051751
#
#
# Mechanical properties :
#
#
# Convention : Reuss Voigt Hill
#
# Bulk Modulus (GPa) = 35.86708 56.76241 46.31474
# Shear Modulus (GPa) = 169.25509 7.61389 88.43449
#
# Velocity S-wave (km/s) = 9.03896 1.91713 6.53369
# Velocity P-wave (km/s) = 11.23614 5.68338 8.90370
#
# Compressibility (1/GPa) = 0.02788072
#
# Stress axis : x y z
#
# Youngs Moduli (GPa) = 36.60519 39.87126 92.56504
#
# Poissons Ratio (x) = 0.14004 0.84497
# Poissons Ratio (y) = 0.12857 0.46470
# Poissons Ratio (z) = 0.33415 0.20016
#
# Static dielectric constant tensor:
#      x y z
#    x 1.720870 0.000000 0.000000 
#    y 0.000000 1.734440 0.000000 
#    z 0.000000 0.000000 1.772410 
# 
# From -- ./inp_files/15044.got.cif
#   From: 2010.05.17/outbox.cif.g08.bks.cpg/sg60_8_cif.got.tgz:15044.got - 2010.06.03 14:59:27.
