data_PCOD9458648
_publ_section_title
;
Structure prediction by ZEFSAII (Michael W. Deem and Ramdas Pophale) SiO2 
 PCOD9458648
Probable space group: P B C N
;
_chemical_formula_sum "Si O2"
_cell_formula_units_Z 28
_cell_length_a 12.248746
_cell_length_b 5.004258
_cell_length_c 19.082999
_cell_angle_alpha 90.000000
_cell_angle_beta 90.000000
_cell_angle_gamma 90.000000
_cell_volume 1169.709315
_symmetry_space_group_name_H-M "P B C N"
_symmetry_group_IT_number 60
_symmetry_cell_setting 'orthorhombic'
loop_
_space_group_symop_operation_xyz
x,y,z
1/2-x,1/2-y,1/2+z
1/2+x,1/2-y,-z
-x,y,1/2-z
-x,-y,-z
1/2+x,1/2+y,1/2-z
1/2-x,1/2+y,z
x,-y,1/2+z
loop_
_atom_site_type_symbol
_atom_site_label
_atom_site_fract_x
_atom_site_fract_y
_atom_site_fract_z
Si Si1 0.500000 0.301913 0.750000
Si Si2 0.174078 0.661626 0.005113
Si Si3 0.829370 0.935616 0.176168
Si Si4 0.510153 0.940094 0.611011
O O1 0.605755 0.493299 0.747395
O O2 0.503113 0.111512 0.682172
O O3 0.273913 0.453465 0.000166
O O4 0.087336 0.595980 0.944066
O O5 0.106173 0.613185 0.075985
O O6 0.746597 0.691663 0.168328
O O7 0.928604 0.839288 0.126973
#
# Coordination Sequence:
#
# PCOD9458648 Si02
#       4
#     4   8   8   8
#     4  12  28  48  76 122 148 204 256 322 386 466
#     4  11  28  49  80 112 153 209 261 323 383 455
#     4  12  26  46  74 109 153 200 244 309 388 456
#     4  11  27  51  79 114 159 199 270 313 392 471
#
# _framework density 23.937570999999998
#
# number of rings (size 3 to 8) (size 9 to 14) (size 15 to 20)
#    0.000    0.571    2.857    2.571    8.000    4.571 
#    0.000    0.000    0.000    0.000    0.000    0.000 
#    0.000    0.000    0.000    0.000    0.000    0.000 
#
# Total GULP energy -156725.838046 kJ/mol
# GULP energy per Si atom -5597.351359 kJ/mol
# Density = 2.388309 g / cm^3
# Si number density = 23.937571 Si / 1000 Ang^3
#
#
#
# Elastic Constant Matrix: (Units=GPa)
#
#
# Indices 1 2 3 4 5 6 
#
# 1 87.3294 22.7357 47.5117 0.0000 0.0000 0.0000
# 2 22.7357 150.8845 37.8400 0.0000 0.0000 0.0000
# 3 47.5117 37.8400 121.5238 0.0000 0.0000 0.0000
# 4 0.0000 0.0000 0.0000 30.2324 0.0000 0.0000
# 5 0.0000 0.0000 0.0000 0.0000 50.3490 0.0000
# 6 0.0000 0.0000 0.0000 0.0000 0.0000 35.5834
#
#
#
# Elastic Compliance Matrix: (Units=1/GPa)
#
#
# Indices 1 2 3 4 5 6 
#
# 1 0.014641 -0.000836 -0.005464 0.000000 0.000000 0.000000
# 2 -0.000836 0.007237 -0.001927 0.000000 0.000000 0.000000
# 3 -0.005464 -0.001927 0.010965 0.000000 0.000000 0.000000
# 4 0.000000 0.000000 0.000000 0.033077 0.000000 0.000000
# 5 0.000000 0.000000 0.000000 0.000000 0.019861 0.000000
# 6 0.000000 0.000000 0.000000 0.000000 0.000000 0.028103
#
#
# Mechanical properties :
#
#
# Convention : Reuss Voigt Hill
#
# Bulk Modulus (GPa) = 61.01256 63.99030 62.50143
# Shear Modulus (GPa) = 36.81876 40.00965 38.41421
#
# Velocity S-wave (km/s) = 3.92614 4.09273 4.01030
# Velocity P-wave (km/s) = 6.78942 7.00886 6.90001
#
# Compressibility (1/GPa) = 0.01639007
#
# Stress axis : x y z
#
# Youngs Moduli (GPa) = 68.30056 138.18456 91.19980
#
# Poissons Ratio (x) = 0.11551 0.49831
# Poissons Ratio (y) = 0.05709 0.17570
# Poissons Ratio (z) = 0.37319 0.26622
#
# Static dielectric constant tensor:
#      x y z
#    x 1.901050 0.000000 0.000000 
#    y 0.000000 1.931170 0.000000 
#    z 0.000000 0.000000 1.972900 
# 
# From -- ./inp_files/20321.got.cif
#   From: 2010.05.17/outbox.cif.g08.bks.cpg/sg60_11_cif.got.tgz:20321.got - 2010.06.03 14:59:27.
