data_PCOD9458205
_publ_section_title
;
Structure prediction by ZEFSAII (Michael W. Deem and Ramdas Pophale) SiO2 
 PCOD9458205
Probable space group: P B C N
;
_chemical_formula_sum "Si O2"
_cell_formula_units_Z 52
_cell_length_a 23.767537
_cell_length_b 13.888220
_cell_length_c 6.950585
_cell_angle_alpha 90.000000
_cell_angle_beta 90.000000
_cell_angle_gamma 90.000000
_cell_volume 2294.310142
_symmetry_space_group_name_H-M "P B C N"
_symmetry_group_IT_number 60
_symmetry_cell_setting 'orthorhombic'
loop_
_space_group_symop_operation_xyz
x,y,z
1/2-x,1/2-y,1/2+z
1/2+x,1/2-y,-z
-x,y,1/2-z
-x,-y,-z
1/2+x,1/2+y,1/2-z
1/2-x,1/2+y,z
x,-y,1/2+z
loop_
_atom_site_type_symbol
_atom_site_label
_atom_site_fract_x
_atom_site_fract_y
_atom_site_fract_z
Si Si1 0.000000 0.206516 0.250000
Si Si2 0.841572 0.053692 0.446979
Si Si3 0.693694 0.786400 0.049176
Si Si4 0.591451 0.271573 0.029928
Si Si5 0.407641 0.648930 0.535341
Si Si6 0.200118 0.649776 0.385704
Si Si7 0.252279 0.042717 0.804569
O O1 0.959835 0.264569 0.398064
O O2 0.037074 0.146551 0.403722
O O3 0.885708 0.135869 0.411510
O O4 0.788978 0.029518 0.312310
O O5 0.875438 0.954249 0.473443
O O6 0.803419 0.099807 0.616578
O O7 0.635927 0.728139 0.047718
O O8 0.696061 0.840514 0.845937
O O9 0.744371 0.709797 0.056735
O O10 0.704867 0.868081 0.210447
O O11 0.579190 0.315374 0.244657
O O12 0.641453 0.194837 0.046094
O O13 0.213578 0.537557 0.429157
#
# Coordination Sequence:
#
# PCOD9458205 Si02
#       7
#     4   8   8   8   8   8   8
#     4  12  28  46  68  92 128 188 236 274 324 390
#     4  12  21  40  62  96 142 173 213 269 331 406
#     4  11  23  37  62  98 134 174 211 272 344 396
#     4  11  25  45  65  96 131 178 230 277 328 394
#     4  11  25  44  66  95 137 176 226 278 330 398
#     4  11  22  38  64  97 136 172 213 272 341 407
#     4  12  21  35  63 103 137 171 209 264 341 414
#
# _framework density 22.664764000000002
#
# number of rings (size 3 to 8) (size 9 to 14) (size 15 to 20)
#    0.000    0.615    6.154    2.308    2.154    0.615 
#    0.000    0.000    0.000    0.923    0.000    0.000 
#    0.000    0.000    0.000    0.000    0.000    0.000 
#
# Total GULP energy -289653.307882 kJ/mol
# GULP energy per Si atom -5570.255921 kJ/mol
# Density = 2.261318 g / cm^3
# Si number density = 22.664764 Si / 1000 Ang^3
#
#
#
# Elastic Constant Matrix: (Units=GPa)
#
#
# Indices 1 2 3 4 5 6 
#
# 1 116.8290 45.5413 64.3633 0.0000 0.0000 0.0000
# 2 45.5413 103.9652 17.6946 0.0000 0.0000 0.0000
# 3 64.3633 17.6946 93.2851 0.0000 0.0000 0.0000
# 4 0.0000 0.0000 0.0000 14.4567 0.0000 0.0000
# 5 0.0000 0.0000 0.0000 0.0000 58.6662 0.0000
# 6 0.0000 0.0000 0.0000 0.0000 0.0000 23.1277
#
#
#
# Elastic Compliance Matrix: (Units=1/GPa)
#
#
# Indices 1 2 3 4 5 6 
#
# 1 0.016293 -0.005398 -0.010217 0.000000 0.000000 0.000000
# 2 -0.005398 0.011728 0.001500 0.000000 0.000000 0.000000
# 3 -0.010217 0.001500 0.017485 0.000000 0.000000 0.000000
# 4 0.000000 0.000000 0.000000 0.069172 0.000000 0.000000
# 5 0.000000 0.000000 0.000000 0.000000 0.017046 0.000000
# 6 0.000000 0.000000 0.000000 0.000000 0.000000 0.043238
#
#
# Mechanical properties :
#
#
# Convention : Reuss Voigt Hill
#
# Bulk Modulus (GPa) = 57.88918 63.25307 60.57112
# Shear Modulus (GPa) = 23.92909 31.68213 27.80561
#
# Velocity S-wave (km/s) = 3.25281 3.74285 3.50640
# Velocity P-wave (km/s) = 6.30116 6.82988 6.57084
#
# Compressibility (1/GPa) = 0.01727439
#
# Stress axis : x y z
#
# Youngs Moduli (GPa) = 61.37727 85.26700 57.19184
#
# Poissons Ratio (x) = 0.46026 0.58436
# Poissons Ratio (y) = 0.33131 -0.08578
# Poissons Ratio (z) = 0.62712 -0.12788
#
# Static dielectric constant tensor:
#      x y z
#    x 1.832850 0.000000 0.000000 
#    y 0.000000 1.766430 0.000000 
#    z 0.000000 0.000000 2.542970 
# 
# From -- ./inp_files/7356.got.cif
#   From: 2010.05.17/outbox.cif.g08.bks.cpg/sg60_4_cif.got.tgz:7356.got - 2010.06.03 14:59:27.
