data_PCOD9458329
_publ_section_title
;
Structure prediction by ZEFSAII (Michael W. Deem and Ramdas Pophale) SiO2 
 PCOD9458329
Probable space group: P B C N
;
_chemical_formula_sum "Si O2"
_cell_formula_units_Z 40
_cell_length_a 8.478037
_cell_length_b 10.061050
_cell_length_c 22.214489
_cell_angle_alpha 90.000000
_cell_angle_beta 90.000000
_cell_angle_gamma 90.000000
_cell_volume 1894.850464
_symmetry_space_group_name_H-M "P B C N"
_symmetry_group_IT_number 60
_symmetry_cell_setting 'orthorhombic'
loop_
_space_group_symop_operation_xyz
x,y,z
1/2-x,1/2-y,1/2+z
1/2+x,1/2-y,-z
-x,y,1/2-z
-x,-y,-z
1/2+x,1/2+y,1/2-z
1/2-x,1/2+y,z
x,-y,1/2+z
loop_
_atom_site_type_symbol
_atom_site_label
_atom_site_fract_x
_atom_site_fract_y
_atom_site_fract_z
Si Si1 0.897412 0.124922 0.979249
Si Si2 0.051543 0.292469 0.875575
Si Si3 0.933786 0.044082 0.814511
Si Si4 0.404451 0.688347 0.385918
Si Si5 0.370754 0.063703 0.618679
O O1 0.743286 0.083736 0.940068
O O2 0.003376 0.218727 0.937447
O O3 0.864571 0.193311 0.042966
O O4 0.000000 0.000000 0.000000
O O5 0.233893 0.289205 0.857632
O O6 0.964728 0.199426 0.827200
O O7 0.990335 0.441374 0.884521
O O8 0.749183 0.028283 0.827403
O O9 0.000000 0.005551 0.750000
O O10 0.024546 0.951525 0.863210
O O11 0.532468 0.801269 0.372179
#
# Coordination Sequence:
#
# PCOD9458329 Si02
#       5
#     8   8   8   8   8
#     4  11  23  40  66  98 136 176 220 265 331 399
#     4  11  25  42  67 100 136 176 225 272 337 402
#     4  11  25  46  68  93 129 177 229 280 336 396
#     4  12  24  43  68 100 135 176 225 272 336 402
#     4  11  25  44  70  97 140 180 218 282 335 396
#
# _framework density 21.109845
#
# number of rings (size 3 to 8) (size 9 to 14) (size 15 to 20)
#    0.000    0.800    4.000    4.800    2.800    4.800 
#    0.000    3.000    0.000    0.000    0.000    0.000 
#    0.000    0.000    0.000    0.000    0.000    0.000 
#
# Total GULP energy -223386.450430 kJ/mol
# GULP energy per Si atom -5584.661261 kJ/mol
# Density = 2.106180 g / cm^3
# Si number density = 21.109845 Si / 1000 Ang^3
#
#
#
# Elastic Constant Matrix: (Units=GPa)
#
#
# Indices 1 2 3 4 5 6 
#
# 1 102.9040 16.8170 15.3964 0.0000 0.0000 0.0000
# 2 16.8170 76.5840 9.0998 0.0000 0.0000 0.0000
# 3 15.3964 9.0998 90.0792 0.0000 0.0000 0.0000
# 4 0.0000 0.0000 0.0000 7.2010 0.0000 0.0000
# 5 0.0000 0.0000 0.0000 0.0000 -14.9247 0.0000
# 6 0.0000 0.0000 0.0000 0.0000 0.0000 39.0832
#
#
#
# Elastic Compliance Matrix: (Units=1/GPa)
#
#
# Indices 1 2 3 4 5 6 
#
# 1 0.010289 -0.002075 -0.001549 0.000000 0.000000 0.000000
# 2 -0.002075 0.013635 -0.001023 0.000000 0.000000 0.000000
# 3 -0.001549 -0.001023 0.011469 0.000000 0.000000 0.000000
# 4 0.000000 0.000000 0.000000 0.138869 0.000000 0.000000
# 5 0.000000 0.000000 0.000000 0.000000 -0.067003 0.000000
# 6 0.000000 0.000000 0.000000 0.000000 0.000000 0.025586
#
#
# Mechanical properties :
#
#
# Convention : Reuss Voigt Hill
#
# Bulk Modulus (GPa) = 38.31536 39.13262 38.72399
# Shear Modulus (GPa) = 33.14795 21.48885 27.31840
#
# Velocity S-wave (km/s) = 3.96695 3.19400 3.60127
# Velocity P-wave (km/s) = 6.25876 5.67275 5.97295
#
# Compressibility (1/GPa) = 0.02609920
#
# Stress axis : x y z
#
# Youngs Moduli (GPa) = 97.19417 73.34187 87.18860
#
# Poissons Ratio (x) = 0.15220 0.13505
# Poissons Ratio (y) = 0.20170 0.08917
# Poissons Ratio (z) = 0.15054 0.07501
#
# Static dielectric constant tensor:
#      x y z
#    x 1.797670 0.000000 0.000000 
#    y 0.000000 1.724740 0.000000 
#    z 0.000000 0.000000 1.839780 
# 
# From -- ./inp_files/23817.got.cif
#   From: 2010.05.17/outbox.cif.g08.bks.cpg/sg60_12_cif.got.tgz:23817.got - 2010.06.03 14:59:27.
