data_PCOD9458080
_publ_section_title
;
Structure prediction by ZEFSAII (Michael W. Deem and Ramdas Pophale) SiO2 
 PCOD9458080
Probable space group: P B C N
;
_chemical_formula_sum "Si O2"
_cell_formula_units_Z 24
_cell_length_a 7.609281
_cell_length_b 27.913397
_cell_length_c 5.041139
_cell_angle_alpha 90.000000
_cell_angle_beta 90.000000
_cell_angle_gamma 90.000000
_cell_volume 1070.742367
_symmetry_space_group_name_H-M "P B C N"
_symmetry_group_IT_number 60
_symmetry_cell_setting 'orthorhombic'
loop_
_space_group_symop_operation_xyz
x,y,z
1/2-x,1/2-y,1/2+z
1/2+x,1/2-y,-z
-x,y,1/2-z
-x,-y,-z
1/2+x,1/2+y,1/2-z
1/2-x,1/2+y,z
x,-y,1/2+z
loop_
_atom_site_type_symbol
_atom_site_label
_atom_site_fract_x
_atom_site_fract_y
_atom_site_fract_z
Si Si1 0.878956 0.378383 0.497036
Si Si2 0.802736 0.220350 0.847739
Si Si3 0.285562 0.026536 0.275603
O O1 0.781474 0.331000 0.404445
O O2 0.755019 0.421259 0.600973
O O3 0.000000 0.365825 0.750000
O O4 0.000000 0.395673 0.250000
O O5 0.702756 0.248032 0.613126
O O6 0.000000 0.214373 0.750000
O O7 0.500000 0.024876 0.250000
O O8 0.222589 0.986746 0.484224
#
# Coordination Sequence:
#
# PCOD9458080 Si02
#       3
#     8   8   8
#     4  11  21  35  58  86 116 150 192 238 286 339
#     4  12  25  42  62  85 116 153 196 243 295 351
#     4   9  16  28  49  80 113 145 185 232 276 326
#
# _framework density 22.414356000000002
#
# number of rings (size 3 to 8) (size 9 to 14) (size 15 to 20)
#    0.000    1.333    0.000   11.000    0.000    0.000 
#    0.000    0.000    0.000    2.000    0.000    0.000 
#    0.000    5.333    0.000    0.000    0.000    0.000 
#
# Total GULP energy -134302.903808 kJ/mol
# GULP energy per Si atom -5595.954325 kJ/mol
# Density = 2.236334 g / cm^3
# Si number density = 22.414356 Si / 1000 Ang^3
#
#
#
# Elastic Constant Matrix: (Units=GPa)
#
#
# Indices 1 2 3 4 5 6 
#
# 1 46.3153 25.7893 17.0766 0.0000 0.0000 0.0000
# 2 25.7893 172.1397 58.2117 0.0000 0.0000 0.0000
# 3 17.0766 58.2117 146.4913 0.0000 0.0000 0.0000
# 4 0.0000 0.0000 0.0000 50.0575 0.0000 0.0000
# 5 0.0000 0.0000 0.0000 0.0000 17.4347 0.0000
# 6 0.0000 0.0000 0.0000 0.0000 0.0000 -1.4032
#
#
#
# Elastic Compliance Matrix: (Units=1/GPa)
#
#
# Indices 1 2 3 4 5 6 
#
# 1 0.023866 -0.003044 -0.001573 0.000000 0.000000 0.000000
# 2 -0.003044 0.007099 -0.002466 0.000000 0.000000 0.000000
# 3 -0.001573 -0.002466 0.007990 0.000000 0.000000 0.000000
# 4 0.000000 0.000000 0.000000 0.019977 0.000000 0.000000
# 5 0.000000 0.000000 0.000000 0.000000 0.057357 0.000000
# 6 0.000000 0.000000 0.000000 0.000000 0.000000 -0.712641
#
#
# Mechanical properties :
#
#
# Convention : Reuss Voigt Hill
#
# Bulk Modulus (GPa) = 40.33943 63.01127 51.67535
# Shear Modulus (GPa) = -8.71195 30.80904 11.04854
#
# Velocity S-wave (km/s) = -1.97363 3.71148 2.22259
# Velocity P-wave (km/s) = 3.58366 6.82201 5.44896
#
# Compressibility (1/GPa) = 0.02478964
#
# Stress axis : x y z
#
# Youngs Moduli (GPa) = 41.90112 140.86054 125.16153
#
# Poissons Ratio (x) = 0.42873 0.19683
# Poissons Ratio (y) = 0.12753 0.30868
# Poissons Ratio (z) = 0.06589 0.34739
#
# Static dielectric constant tensor:
#      x y z
#    x 1.848730 0.000000 0.000000 
#    y 0.000000 1.836840 0.000000 
#    z 0.000000 0.000000 1.802390 
# 
# From -- ./inp_files/276.got.cif
#   From: 2010.05.17/outbox.cif.g08.bks.cpg/sg60_1_cif.got.tgz:276.got - 2010.06.03 14:59:27.
