data_PCOD9458371
_publ_section_title
;
Structure prediction by ZEFSAII (Michael W. Deem and Ramdas Pophale) SiO2 
 PCOD9458371
Probable space group: P B C N
;
_chemical_formula_sum "Si O2"
_cell_formula_units_Z 40
_cell_length_a 13.184547
_cell_length_b 7.646370
_cell_length_c 16.061188
_cell_angle_alpha 90.000000
_cell_angle_beta 90.000000
_cell_angle_gamma 90.000000
_cell_volume 1619.191397
_symmetry_space_group_name_H-M "P B C N"
_symmetry_group_IT_number 60
_symmetry_cell_setting 'orthorhombic'
loop_
_space_group_symop_operation_xyz
x,y,z
1/2-x,1/2-y,1/2+z
1/2+x,1/2-y,-z
-x,y,1/2-z
-x,-y,-z
1/2+x,1/2+y,1/2-z
1/2-x,1/2+y,z
x,-y,1/2+z
loop_
_atom_site_type_symbol
_atom_site_label
_atom_site_fract_x
_atom_site_fract_y
_atom_site_fract_z
Si Si1 0.934569 0.153395 0.455930
Si Si2 0.873517 0.774206 0.643526
Si Si3 0.672834 0.118528 0.088733
Si Si4 0.813887 0.031805 0.314375
Si Si5 0.114884 0.329315 0.738627
O O1 0.899546 0.307688 0.517639
O O2 0.833463 0.103538 0.406011
O O3 0.011077 0.203871 0.382232
O O4 0.000000 0.000000 0.500000
O O5 0.852424 0.571983 0.623410
O O6 0.794133 0.870026 0.580096
O O7 0.853161 0.852693 0.735434
O O8 0.651399 0.235744 0.170451
O O9 0.693087 0.029516 0.297633
O O10 0.870553 0.846027 0.314297
O O11 0.000000 0.387577 0.750000
#
# Coordination Sequence:
#
# PCOD9458371 Si02
#       5
#     8   8   8   8   8
#     4  12  25  43  68  99 138 182 234 301 364 427
#     4  11  23  44  65  92 134 178 228 285 358 433
#     4  11  24  41  66  95 131 176 225 291 354 421
#     4  11  24  43  70 100 136 188 240 292 366 448
#     4  11  23  43  68  98 137 180 232 293 356 431
#
# _framework density 24.703689000000001
#
# number of rings (size 3 to 8) (size 9 to 14) (size 15 to 20)
#    0.000    0.800    0.000   10.800    0.000    8.000 
#    0.000    3.000    0.000    0.000    0.000    0.000 
#    0.000    0.000    0.000    0.000    0.000    0.000 
#
# Total GULP energy -223534.416409 kJ/mol
# GULP energy per Si atom -5588.360410 kJ/mol
# Density = 2.464746 g / cm^3
# Si number density = 24.703689 Si / 1000 Ang^3
#
#
#
# Elastic Constant Matrix: (Units=GPa)
#
#
# Indices 1 2 3 4 5 6 
#
# 1 147.3821 -3.3172 26.2721 0.0000 0.0000 0.0000
# 2 -3.3172 68.9666 10.3875 0.0000 0.0000 0.0000
# 3 26.2721 10.3875 63.3876 0.0000 0.0000 0.0000
# 4 0.0000 0.0000 0.0000 13.3492 0.0000 0.0000
# 5 0.0000 0.0000 0.0000 0.0000 26.4266 0.0000
# 6 0.0000 0.0000 0.0000 0.0000 0.0000 28.5053
#
#
#
# Elastic Compliance Matrix: (Units=1/GPa)
#
#
# Indices 1 2 3 4 5 6 
#
# 1 0.007373 0.000836 -0.003193 0.000000 0.000000 0.000000
# 2 0.000836 0.014961 -0.002798 0.000000 0.000000 0.000000
# 3 -0.003193 -0.002798 0.017558 0.000000 0.000000 0.000000
# 4 0.000000 0.000000 0.000000 0.074911 0.000000 0.000000
# 5 0.000000 0.000000 0.000000 0.000000 0.037841 0.000000
# 6 0.000000 0.000000 0.000000 0.000000 0.000000 0.035081
#
#
# Mechanical properties :
#
#
# Convention : Reuss Voigt Hill
#
# Bulk Modulus (GPa) = 33.80488 38.49125 36.14807
# Shear Modulus (GPa) = 24.05048 30.08249 27.06648
#
# Velocity S-wave (km/s) = 3.12357 3.49339 3.31364
# Velocity P-wave (km/s) = 5.16941 5.64683 5.41339
#
# Compressibility (1/GPa) = 0.02958153
#
# Stress axis : x y z
#
# Youngs Moduli (GPa) = 135.62942 66.83868 56.95477
#
# Poissons Ratio (x) = -0.05585 0.18185
# Poissons Ratio (y) = -0.11332 0.15936
# Poissons Ratio (z) = 0.43304 0.18702
#
# Static dielectric constant tensor:
#      x y z
#    x 2.098330 0.000000 0.000000 
#    y 0.000000 2.035630 0.000000 
#    z 0.000000 0.000000 1.931260 
# 
# From -- ./inp_files/20392.got.cif
#   From: 2010.05.17/outbox.cif.g08.bks.cpg/sg60_11_cif.got.tgz:20392.got - 2010.06.03 14:59:27.
