data_PCOD9458782
_publ_section_title
;
Structure prediction by ZEFSAII (Michael W. Deem and Ramdas Pophale) SiO2 
 PCOD9458782
Probable space group: P B C N
;
_chemical_formula_sum "Si O2"
_cell_formula_units_Z 36
_cell_length_a 7.066992
_cell_length_b 12.307204
_cell_length_c 18.448842
_cell_angle_alpha 90.000000
_cell_angle_beta 90.000000
_cell_angle_gamma 90.000000
_cell_volume 1604.586413
_symmetry_space_group_name_H-M "P B C N"
_symmetry_group_IT_number 60
_symmetry_cell_setting 'orthorhombic'
loop_
_space_group_symop_operation_xyz
x,y,z
1/2-x,1/2-y,1/2+z
1/2+x,1/2-y,-z
-x,y,1/2-z
-x,-y,-z
1/2+x,1/2+y,1/2-z
1/2-x,1/2+y,z
x,-y,1/2+z
loop_
_atom_site_type_symbol
_atom_site_label
_atom_site_fract_x
_atom_site_fract_y
_atom_site_fract_z
Si Si1 0.989426 0.128290 0.987856
Si Si2 0.714248 0.161764 0.265868
Si Si3 0.000000 0.981182 0.250000
Si Si4 0.255920 0.165569 0.854029
Si Si5 0.859397 0.705805 0.897860
O O1 0.785179 0.152356 0.953493
O O2 0.145323 0.168537 0.929576
O O3 0.033708 0.196847 0.059836
O O4 0.000000 0.000000 0.000000
O O5 0.500000 0.129542 0.250000
O O6 0.222277 0.223612 0.307579
O O7 0.738647 0.247307 0.330972
O O8 0.846628 0.061213 0.285405
O O9 0.876377 0.910443 0.195226
O O10 0.471693 0.129421 0.868723
#
# Coordination Sequence:
#
# PCOD9458782 Si02
#       5
#     8   8   4   8   8
#     4  12  27  46  75 112 153 202 257 307 387 461
#     4  12  25  46  79 109 150 199 252 317 381 454
#     4  12  26  44  78 118 146 196 260 314 394 448
#     4  12  25  48  75 110 154 193 258 316 376 460
#     4  12  25  49  76 108 156 200 253 322 376 461
#
# _framework density 22.435689
#
# number of rings (size 3 to 8) (size 9 to 14) (size 15 to 20)
#    0.000    0.000    7.778    1.333    0.000    6.222 
#    0.000    0.000    0.000    0.000    0.000    0.000 
#    0.000    0.000    0.000    0.000    0.000    0.000 
#
# Total GULP energy -201456.911354 kJ/mol
# GULP energy per Si atom -5596.025315 kJ/mol
# Density = 2.238462 g / cm^3
# Si number density = 22.435689 Si / 1000 Ang^3
#
#
#
# Elastic Constant Matrix: (Units=GPa)
#
#
# Indices 1 2 3 4 5 6 
#
# 1 186.8044 57.9705 40.2324 0.0000 0.0000 0.0000
# 2 57.9705 81.6595 42.8837 0.0000 0.0000 0.0000
# 3 40.2324 42.8837 116.5409 0.0000 0.0000 0.0000
# 4 0.0000 0.0000 0.0000 14.1185 0.0000 0.0000
# 5 0.0000 0.0000 0.0000 0.0000 51.5971 0.0000
# 6 0.0000 0.0000 0.0000 0.0000 0.0000 30.5163
#
#
#
# Elastic Compliance Matrix: (Units=1/GPa)
#
#
# Indices 1 2 3 4 5 6 
#
# 1 0.006914 -0.004530 -0.000720 0.000000 0.000000 0.000000
# 2 -0.004530 0.018148 -0.005114 0.000000 0.000000 0.000000
# 3 -0.000720 -0.005114 0.010711 0.000000 0.000000 0.000000
# 4 0.000000 0.000000 0.000000 0.070829 0.000000 0.000000
# 5 0.000000 0.000000 0.000000 0.000000 0.019381 0.000000
# 6 0.000000 0.000000 0.000000 0.000000 0.000000 0.032769
#
#
# Mechanical properties :
#
#
# Convention : Reuss Voigt Hill
#
# Bulk Modulus (GPa) = 66.46901 74.13089 70.29995
# Shear Modulus (GPa) = 27.10101 35.50760 31.30430
#
# Velocity S-wave (km/s) = 3.47932 3.98256 3.73941
# Velocity P-wave (km/s) = 6.76991 7.36620 7.07434
#
# Compressibility (1/GPa) = 0.01504461
#
# Stress axis : x y z
#
# Youngs Moduli (GPa) = 144.63161 55.10367 93.36252
#
# Poissons Ratio (x) = 0.24964 0.06721
# Poissons Ratio (y) = 0.65523 0.47744
# Poissons Ratio (z) = 0.10412 0.28179
#
# Static dielectric constant tensor:
#      x y z
#    x 1.849900 0.000000 0.000000 
#    y 0.000000 1.832010 0.000000 
#    z 0.000000 0.000000 1.831910 
# 
# From -- ./inp_files/23455.got.cif
#   From: 2010.05.17/outbox.cif.g08.bks.cpg/sg60_12_cif.got.tgz:23455.got - 2010.06.03 14:59:27.
