data_PCOD9458774
_publ_section_title
;
Structure prediction by ZEFSAII (Michael W. Deem and Ramdas Pophale) SiO2 
 PCOD9458774
Probable space group: P B C N
;
_chemical_formula_sum "Si O2"
_cell_formula_units_Z 32
_cell_length_a 8.064701
_cell_length_b 19.360084
_cell_length_c 8.310258
_cell_angle_alpha 90.000000
_cell_angle_beta 90.000000
_cell_angle_gamma 90.000000
_cell_volume 1297.507912
_symmetry_space_group_name_H-M "P B C N"
_symmetry_group_IT_number 60
_symmetry_cell_setting 'orthorhombic'
loop_
_space_group_symop_operation_xyz
x,y,z
1/2-x,1/2-y,1/2+z
1/2+x,1/2-y,-z
-x,y,1/2-z
-x,-y,-z
1/2+x,1/2+y,1/2-z
1/2-x,1/2+y,z
x,-y,1/2+z
loop_
_atom_site_type_symbol
_atom_site_label
_atom_site_fract_x
_atom_site_fract_y
_atom_site_fract_z
Si Si1 0.316382 0.216892 0.323372
Si Si2 0.181323 0.901026 0.014508
Si Si3 0.696797 0.646530 0.490746
Si Si4 0.679983 0.971822 0.174747
O O1 0.500000 0.219240 0.250000
O O2 0.291797 0.166153 0.475052
O O3 0.268690 0.292960 0.380660
O O4 0.211418 0.182027 0.182221
O O5 0.217208 0.933850 0.186787
O O6 0.989911 0.880738 0.005781
O O7 0.232760 0.959079 0.885383
O O8 0.819085 0.582578 0.526230
O O9 0.500000 0.984100 0.250000
#
# Coordination Sequence:
#
# PCOD9458774 Si02
#       4
#     8   8   8   8
#     4  12  25  45  69 102 142 190 241 298 361 427
#     4  12  26  46  72 107 147 190 239 294 356 425
#     4  12  26  45  72 104 142 187 240 300 359 426
#     4  12  25  46  73 107 146 189 237 294 355 426
#
# _framework density 24.662662999999998
#
# number of rings (size 3 to 8) (size 9 to 14) (size 15 to 20)
#    0.000    0.000    0.000   11.250    0.000    4.000 
#    0.000    0.000    0.000    0.000    0.000    0.000 
#    0.000    0.000    0.000    0.000    0.000    0.000 
#
# Total GULP energy -179667.674169 kJ/mol
# GULP energy per Si atom -5614.614818 kJ/mol
# Density = 2.460653 g / cm^3
# Si number density = 24.662663 Si / 1000 Ang^3
#
#
#
# Elastic Constant Matrix: (Units=GPa)
#
#
# Indices 1 2 3 4 5 6 
#
# 1 51.6187 28.7756 23.4619 0.0000 0.0000 0.0000
# 2 28.7756 177.8240 49.7161 0.0000 0.0000 0.0000
# 3 23.4619 49.7161 84.4827 0.0000 0.0000 0.0000
# 4 0.0000 0.0000 0.0000 91.2201 0.0000 0.0000
# 5 0.0000 0.0000 0.0000 0.0000 48.9634 0.0000
# 6 0.0000 0.0000 0.0000 0.0000 0.0000 40.4965
#
#
#
# Elastic Compliance Matrix: (Units=1/GPa)
#
#
# Indices 1 2 3 4 5 6 
#
# 1 0.022938 -0.002311 -0.005010 0.000000 0.000000 0.000000
# 2 -0.002311 0.006964 -0.003456 0.000000 0.000000 0.000000
# 3 -0.005010 -0.003456 0.015262 0.000000 0.000000 0.000000
# 4 0.000000 0.000000 0.000000 0.010962 0.000000 0.000000
# 5 0.000000 0.000000 0.000000 0.000000 0.020423 0.000000
# 6 0.000000 0.000000 0.000000 0.000000 0.000000 0.024693
#
#
# Mechanical properties :
#
#
# Convention : Reuss Voigt Hill
#
# Bulk Modulus (GPa) = 42.35648 57.53696 49.94672
# Shear Modulus (GPa) = 38.26473 50.26746 44.26610
#
# Velocity S-wave (km/s) = 3.94321 4.51954 4.24118
# Velocity P-wave (km/s) = 6.15983 7.11444 6.65428
#
# Compressibility (1/GPa) = 0.02360914
#
# Stress axis : x y z
#
# Youngs Moduli (GPa) = 43.59489 143.59939 65.52201
#
# Poissons Ratio (x) = 0.33188 0.32828
# Poissons Ratio (y) = 0.10075 0.22646
# Poissons Ratio (z) = 0.21842 0.49631
#
# Static dielectric constant tensor:
#      x y z
#    x 1.899100 0.000000 0.000000 
#    y 0.000000 1.917760 0.000000 
#    z 0.000000 0.000000 2.018830 
# 
# From -- ./inp_files/3590.got.cif
#   From: 2010.05.17/outbox.cif.g08.bks.cpg/sg60_2_cif.got.tgz:3590.got - 2010.06.03 14:59:27.
