data_PCOD9458738
_publ_section_title
;
Structure prediction by ZEFSAII (Michael W. Deem and Ramdas Pophale) SiO2 
 PCOD9458738
Probable space group: P B C N
;
_chemical_formula_sum "Si O2"
_cell_formula_units_Z 40
_cell_length_a 13.826589
_cell_length_b 7.354258
_cell_length_c 14.242552
_cell_angle_alpha 90.000000
_cell_angle_beta 90.000000
_cell_angle_gamma 90.000000
_cell_volume 1448.243970
_symmetry_space_group_name_H-M "P B C N"
_symmetry_group_IT_number 60
_symmetry_cell_setting 'orthorhombic'
loop_
_space_group_symop_operation_xyz
x,y,z
1/2-x,1/2-y,1/2+z
1/2+x,1/2-y,-z
-x,y,1/2-z
-x,-y,-z
1/2+x,1/2+y,1/2-z
1/2-x,1/2+y,z
x,-y,1/2+z
loop_
_atom_site_type_symbol
_atom_site_label
_atom_site_fract_x
_atom_site_fract_y
_atom_site_fract_z
Si Si1 0.852890 0.492719 0.625599
Si Si2 0.000000 0.456942 0.750000
Si Si3 0.873471 0.381463 0.419603
Si Si4 0.000000 0.000000 0.500000
Si Si5 0.850910 0.027992 0.882892
Si Si6 0.635030 0.410542 0.669537
O O1 0.887980 0.467005 0.520761
O O2 0.739761 0.457742 0.628668
O O3 0.868908 0.692004 0.668251
O O4 0.910742 0.362249 0.697209
O O5 0.054430 0.556000 0.661968
O O6 0.761723 0.421067 0.390755
O O7 0.882111 0.162542 0.436419
O O8 0.054415 0.019565 0.399419
O O9 0.918890 0.849813 0.446984
O O10 0.870917 0.983224 0.775315
#
# Coordination Sequence:
#
# PCOD9458738 Si02
#       6
#     8   4   8   4   8   8
#     4  12  26  49  78 107 150 195 247 307 373 439
#     4  12  24  46  74 106 144 194 238 308 368 440
#     4  12  26  49  78 107 150 195 247 307 373 439
#     4  12  28  42  80 106 144 206 242 298 370 446
#     4  12  25  51  76 109 151 198 245 308 371 437
#     4  12  25  51  76 109 151 198 245 308 371 437
#
# _framework density 27.619654000000001
#
# number of rings (size 3 to 8) (size 9 to 14) (size 15 to 20)
#    0.000    0.000    6.000    3.600    0.000    0.000 
#    0.000    0.000    0.000    0.000    0.000    0.000 
#    0.000    0.000    0.000    0.000    0.000    0.000 
#
# Total GULP energy -223608.015783 kJ/mol
# GULP energy per Si atom -5590.200395 kJ/mol
# Density = 2.755679 g / cm^3
# Si number density = 27.619654 Si / 1000 Ang^3
#
#
#
# Elastic Constant Matrix: (Units=GPa)
#
#
# Indices 1 2 3 4 5 6 
#
# 1 189.5850 -4.9525 42.7429 0.0000 0.0000 0.0000
# 2 -4.9525 89.4083 44.2548 0.0000 0.0000 0.0000
# 3 42.7429 44.2548 205.5628 0.0000 0.0000 0.0000
# 4 0.0000 0.0000 0.0000 -0.9634 0.0000 0.0000
# 5 0.0000 0.0000 0.0000 0.0000 54.2457 0.0000
# 6 0.0000 0.0000 0.0000 0.0000 0.0000 18.4658
#
#
#
# Elastic Compliance Matrix: (Units=1/GPa)
#
#
# Indices 1 2 3 4 5 6 
#
# 1 0.005612 0.000994 -0.001381 0.000000 0.000000 0.000000
# 2 0.000994 0.012695 -0.002940 0.000000 0.000000 0.000000
# 3 -0.001381 -0.002940 0.005785 0.000000 0.000000 0.000000
# 4 0.000000 0.000000 0.000000 -1.038029 0.000000 0.000000
# 5 0.000000 0.000000 0.000000 0.000000 0.018435 0.000000
# 6 0.000000 0.000000 0.000000 0.000000 0.000000 0.054154
#
#
# Mechanical properties :
#
#
# Convention : Reuss Voigt Hill
#
# Bulk Modulus (GPa) = 57.34320 72.07183 64.70752
# Shear Modulus (GPa) = -5.38281 41.18366 17.90043
#
# Velocity S-wave (km/s) = -1.39755 3.86567 2.54855
# Velocity P-wave (km/s) = 4.26645 6.78790 5.66913
#
# Compressibility (1/GPa) = 0.01743886
#
# Stress axis : x y z
#
# Youngs Moduli (GPa) = 178.18929 78.77209 172.86854
#
# Poissons Ratio (x) = -0.07833 0.23873
# Poissons Ratio (y) = -0.17719 0.50820
# Poissons Ratio (z) = 0.24608 0.23157
#
# Static dielectric constant tensor:
#      x y z
#    x 1.943670 0.000000 0.000000 
#    y 0.000000 1.821040 0.000000 
#    z 0.000000 0.000000 2.118670 
# 
# From -- ./inp_files/16642.got.cif
#   From: 2010.05.17/outbox.cif.g08.bks.cpg/sg60_9_cif.got.tgz:16642.got - 2010.06.03 14:59:27.
