data_PCOD9458672
_publ_section_title
;
Structure prediction by ZEFSAII (Michael W. Deem and Ramdas Pophale) SiO2 
 PCOD9458672
Probable space group: P B C N
;
_chemical_formula_sum "Si O2"
_cell_formula_units_Z 56
_cell_length_a 15.359657
_cell_length_b 14.526372
_cell_length_c 11.730695
_cell_angle_alpha 90.000000
_cell_angle_beta 90.000000
_cell_angle_gamma 90.000000
_cell_volume 2617.353740
_symmetry_space_group_name_H-M "P B C N"
_symmetry_group_IT_number 60
_symmetry_cell_setting 'orthorhombic'
loop_
_space_group_symop_operation_xyz
x,y,z
1/2-x,1/2-y,1/2+z
1/2+x,1/2-y,-z
-x,y,1/2-z
-x,-y,-z
1/2+x,1/2+y,1/2-z
1/2-x,1/2+y,z
x,-y,1/2+z
loop_
_atom_site_type_symbol
_atom_site_label
_atom_site_fract_x
_atom_site_fract_y
_atom_site_fract_z
Si Si1 0.914186 0.117447 0.818339
Si Si2 0.419262 0.887943 0.328485
Si Si3 0.823706 0.179584 0.446053
Si Si4 0.530479 0.695033 0.059482
Si Si5 0.272073 0.859354 0.143471
Si Si6 0.774066 0.488449 0.046869
Si Si7 0.857277 0.923243 0.727783
O O1 0.818443 0.154739 0.790136
O O2 0.000000 0.146717 0.750000
O O3 0.900960 0.008389 0.796273
O O4 0.927170 0.151991 0.946559
O O5 0.500000 0.919924 0.250000
O O6 0.447925 0.800530 0.406020
O O7 0.348606 0.855970 0.234870
O O8 0.369562 0.964144 0.404392
O O9 0.784433 0.280460 0.450332
O O10 0.775089 0.107577 0.524631
O O11 0.811443 0.142854 0.317733
O O12 0.927478 0.183908 0.459475
O O13 0.569864 0.633013 0.159960
O O14 0.274228 0.953758 0.070706
O O15 0.714483 0.539652 0.139699
#
# Coordination Sequence:
#
# PCOD9458672 Si02
#       7
#     8   8   8   8   8   8   8
#     4  12  25  43  69 112 148 180 244 301 372 443
#     4  12  25  50  75  98 144 200 250 300 358 443
#     4  12  24  43  72 103 146 190 240 310 370 437
#     4  12  24  44  73 106 143 197 244 303 379 444
#     4  12  25  47  71 106 142 193 246 297 370 445
#     4  12  26  44  74 107 144 194 244 309 371 435
#     4  12  22  42  70 107 147 185 238 304 377 443
#
# _framework density 21.395655000000001
#
# number of rings (size 3 to 8) (size 9 to 14) (size 15 to 20)
#    0.000    0.000    7.143    3.000    0.000    2.286 
#    0.000    0.000    0.000    0.000    0.000    0.000 
#    0.000    0.000    0.000    0.000    0.000    0.000 
#
# Total GULP energy -313121.026454 kJ/mol
# GULP energy per Si atom -5591.446901 kJ/mol
# Density = 2.134696 g / cm^3
# Si number density = 21.395655 Si / 1000 Ang^3
#
#
#
# Elastic Constant Matrix: (Units=GPa)
#
#
# Indices 1 2 3 4 5 6 
#
# 1 141.2467 25.5139 19.8779 0.0000 0.0000 0.0000
# 2 25.5139 41.9865 3.7436 0.0000 0.0000 0.0000
# 3 19.8779 3.7436 80.7001 0.0000 0.0000 0.0000
# 4 0.0000 0.0000 0.0000 9.5127 0.0000 0.0000
# 5 0.0000 0.0000 0.0000 0.0000 40.6966 0.0000
# 6 0.0000 0.0000 0.0000 0.0000 0.0000 18.2223
#
#
#
# Elastic Compliance Matrix: (Units=1/GPa)
#
#
# Indices 1 2 3 4 5 6 
#
# 1 0.008204 -0.004825 -0.001797 0.000000 0.000000 0.000000
# 2 -0.004825 0.026754 -0.000053 0.000000 0.000000 0.000000
# 3 -0.001797 -0.000053 0.012837 0.000000 0.000000 0.000000
# 4 0.000000 0.000000 0.000000 0.105123 0.000000 0.000000
# 5 0.000000 0.000000 0.000000 0.000000 0.024572 0.000000
# 6 0.000000 0.000000 0.000000 0.000000 0.000000 0.054878
#
#
# Mechanical properties :
#
#
# Convention : Reuss Voigt Hill
#
# Bulk Modulus (GPa) = 29.03157 40.24491 34.63824
# Shear Modulus (GPa) = 19.44017 28.00618 23.72317
#
# Velocity S-wave (km/s) = 3.01758 3.62189 3.33345
# Velocity P-wave (km/s) = 5.07340 6.02839 5.57139
#
# Compressibility (1/GPa) = 0.03444526
#
# Stress axis : x y z
#
# Youngs Moduli (GPa) = 121.88708 37.37758 77.90202
#
# Poissons Ratio (x) = 0.18036 0.13999
# Poissons Ratio (y) = 0.58814 0.00409
# Poissons Ratio (z) = 0.21904 0.00196
#
# Static dielectric constant tensor:
#      x y z
#    x 1.784480 0.000000 0.000000 
#    y 0.000000 1.782790 0.000000 
#    z 0.000000 0.000000 1.781630 
# 
# From -- ./inp_files/11948.got.cif
#   From: 2010.05.17/outbox.cif.g08.bks.cpg/sg60_6_cif.got.tgz:11948.got - 2010.06.03 14:59:27.
