data_PCOD9458052
_publ_section_title
;
Structure prediction by ZEFSAII (Michael W. Deem and Ramdas Pophale) SiO2 
 PCOD9458052
Probable space group: P B C N
;
_chemical_formula_sum "Si O2"
_cell_formula_units_Z 40
_cell_length_a 13.178659
_cell_length_b 16.349151
_cell_length_c 7.207004
_cell_angle_alpha 90.000000
_cell_angle_beta 90.000000
_cell_angle_gamma 90.000000
_cell_volume 1552.820260
_symmetry_space_group_name_H-M "P B C N"
_symmetry_group_IT_number 60
_symmetry_cell_setting 'orthorhombic'
loop_
_space_group_symop_operation_xyz
x,y,z
1/2-x,1/2-y,1/2+z
1/2+x,1/2-y,-z
-x,y,1/2-z
-x,-y,-z
1/2+x,1/2+y,1/2-z
1/2-x,1/2+y,z
x,-y,1/2+z
loop_
_atom_site_type_symbol
_atom_site_label
_atom_site_fract_x
_atom_site_fract_y
_atom_site_fract_z
Si Si1 0.398939 0.378386 0.801367
Si Si2 0.607264 0.236252 0.451250
Si Si3 0.663121 0.726609 0.543043
Si Si4 0.804907 0.407351 0.466409
Si Si5 0.597499 0.931639 0.115934
O O1 0.500000 0.430637 0.750000
O O2 0.447753 0.302702 0.921585
O O3 0.352939 0.342838 0.610319
O O4 0.303574 0.410326 0.925423
O O5 0.616787 0.275039 0.248047
O O6 0.716155 0.235941 0.551067
O O7 0.582233 0.140486 0.465330
O O8 0.639129 0.819964 0.484363
O O9 0.876248 0.480399 0.535665
O O10 0.802405 0.416853 0.244984
O O11 0.500000 0.930153 0.250000
#
# Coordination Sequence:
#
# PCOD9458052 Si02
#       5
#     8   8   8   8   8
#     4  11  24  46  67 101 141 183 246 293 343 424
#     4  11  20  40  70 102 135 176 229 285 355 417
#     4  11  21  40  69  98 135 187 226 286 349 414
#     4  11  24  43  67 100 144 186 228 292 361 422
#     4  12  25  45  69 108 147 182 232 297 367 446
#
# _framework density 25.759581000000001
#
# number of rings (size 3 to 8) (size 9 to 14) (size 15 to 20)
#    0.000    0.800    6.000    3.600    0.000    0.800 
#    0.000    1.000    0.000    0.000    0.000    0.000 
#    0.000    0.000    0.000    0.000    0.000    0.000 
#
# Total GULP energy -223193.922208 kJ/mol
# GULP energy per Si atom -5579.848055 kJ/mol
# Density = 2.570095 g / cm^3
# Si number density = 25.759581 Si / 1000 Ang^3
#
#
#
# Elastic Constant Matrix: (Units=GPa)
#
#
# Indices 1 2 3 4 5 6 
#
# 1 99.6468 -3.2311 7.9324 0.0000 0.0000 0.0000
# 2 -3.2311 67.3144 7.7330 0.0000 0.0000 0.0000
# 3 7.9324 7.7330 158.4064 0.0000 0.0000 0.0000
# 4 0.0000 0.0000 0.0000 32.2903 0.0000 0.0000
# 5 0.0000 0.0000 0.0000 0.0000 37.7165 0.0000
# 6 0.0000 0.0000 0.0000 0.0000 0.0000 23.1026
#
#
#
# Elastic Compliance Matrix: (Units=1/GPa)
#
#
# Indices 1 2 3 4 5 6 
#
# 1 0.010096 0.000546 -0.000532 0.000000 0.000000 0.000000
# 2 0.000546 0.014969 -0.000758 0.000000 0.000000 0.000000
# 3 -0.000532 -0.000758 0.006377 0.000000 0.000000 0.000000
# 4 0.000000 0.000000 0.000000 0.030969 0.000000 0.000000
# 5 0.000000 0.000000 0.000000 0.000000 0.026514 0.000000
# 6 0.000000 0.000000 0.000000 0.000000 0.000000 0.043285
#
#
# Mechanical properties :
#
#
# Convention : Reuss Voigt Hill
#
# Bulk Modulus (GPa) = 33.38683 38.91512 36.15098
# Shear Modulus (GPa) = 34.79912 39.48411 37.14161
#
# Velocity S-wave (km/s) = 3.67947 3.91934 3.80130
# Velocity P-wave (km/s) = 5.57139 5.96837 5.77330
#
# Compressibility (1/GPa) = 0.02995193
#
# Stress axis : x y z
#
# Youngs Moduli (GPa) = 99.05399 66.80496 156.82502
#
# Poissons Ratio (x) = -0.03646 0.08346
# Poissons Ratio (y) = -0.05406 0.11888
# Poissons Ratio (z) = 0.05272 0.05064
#
# Static dielectric constant tensor:
#      x y z
#    x 2.145690 0.000000 0.000000 
#    y 0.000000 2.177200 0.000000 
#    z 0.000000 0.000000 2.141400 
# 
# From -- ./inp_files/4776.got.cif
#   From: 2010.05.17/outbox.cif.g08.bks.cpg/sg60_3_cif.got.tgz:4776.got - 2010.06.03 14:59:27.
