data_PCOD9458269
_publ_section_title
;
Structure prediction by ZEFSAII (Michael W. Deem and Ramdas Pophale) SiO2 
 PCOD9458269
Probable space group: P B C N
;
_chemical_formula_sum "Si O2"
_cell_formula_units_Z 44
_cell_length_a 12.264821
_cell_length_b 11.418768
_cell_length_c 16.081978
_cell_angle_alpha 90.000000
_cell_angle_beta 90.000000
_cell_angle_gamma 90.000000
_cell_volume 2252.267278
_symmetry_space_group_name_H-M "P B C N"
_symmetry_group_IT_number 60
_symmetry_cell_setting 'orthorhombic'
loop_
_space_group_symop_operation_xyz
x,y,z
1/2-x,1/2-y,1/2+z
1/2+x,1/2-y,-z
-x,y,1/2-z
-x,-y,-z
1/2+x,1/2+y,1/2-z
1/2-x,1/2+y,z
x,-y,1/2+z
loop_
_atom_site_type_symbol
_atom_site_label
_atom_site_fract_x
_atom_site_fract_y
_atom_site_fract_z
Si Si1 0.051526 0.884582 0.956266
Si Si2 0.500000 0.361667 0.250000
Si Si3 0.894570 0.494993 0.798608
Si Si4 0.375389 0.739190 0.161011
Si Si5 0.674455 0.445813 0.698239
Si Si6 0.128966 0.273614 0.605706
O O1 0.085970 0.786581 0.022605
O O2 0.844253 0.084635 0.101811
O O3 0.958680 0.831871 0.896323
O O4 0.000000 0.000000 0.000000
O O5 0.407517 0.446724 0.286541
O O6 0.440483 0.286770 0.179437
O O7 0.911615 0.629265 0.821961
O O8 0.791216 0.480113 0.736787
O O9 0.880480 0.412670 0.879150
O O10 0.000000 0.452965 0.750000
O O11 0.361432 0.665416 0.245903
O O12 0.256667 0.750654 0.119102
#
# Coordination Sequence:
#
# PCOD9458269 Si02
#       6
#     8   4   8   8   8   8
#     4  12  24  43  70 101 134 178 235 278 337 417
#     4  12  18  46  70  92 126 182 230 268 330 420
#     4  11  24  42  67  98 137 181 226 283 347 398
#     4  11  24  45  67  97 137 176 226 282 344 408
#     4  11  22  42  74  91 128 184 229 271 333 420
#     4  11  25  41  67 100 136 176 224 293 342 401
#
# _framework density 19.535869999999999
#
# number of rings (size 3 to 8) (size 9 to 14) (size 15 to 20)
#    0.000    0.727    6.364    1.091    2.545    2.182 
#    6.545    0.000    0.000    0.000    0.000    0.000 
#    0.000    0.000    0.000    0.000    0.000    0.000 
#
# Total GULP energy -245796.739027 kJ/mol
# GULP energy per Si atom -5586.289523 kJ/mol
# Density = 1.949141 g / cm^3
# Si number density = 19.535870 Si / 1000 Ang^3
#
#
#
# Elastic Constant Matrix: (Units=GPa)
#
#
# Indices 1 2 3 4 5 6 
#
# 1 92.6854 20.1266 23.3082 0.0000 0.0000 0.0000
# 2 20.1266 115.1398 38.4965 0.0000 0.0000 0.0000
# 3 23.3082 38.4965 94.2949 0.0000 0.0000 0.0000
# 4 0.0000 0.0000 0.0000 33.7998 0.0000 0.0000
# 5 0.0000 0.0000 0.0000 0.0000 20.8048 0.0000
# 6 0.0000 0.0000 0.0000 0.0000 0.0000 20.3224
#
#
#
# Elastic Compliance Matrix: (Units=1/GPa)
#
#
# Indices 1 2 3 4 5 6 
#
# 1 0.011656 -0.001244 -0.002373 0.000000 0.000000 0.000000
# 2 -0.001244 0.010191 -0.003853 0.000000 0.000000 0.000000
# 3 -0.002373 -0.003853 0.012765 0.000000 0.000000 0.000000
# 4 0.000000 0.000000 0.000000 0.029586 0.000000 0.000000
# 5 0.000000 0.000000 0.000000 0.000000 0.048066 0.000000
# 6 0.000000 0.000000 0.000000 0.000000 0.000000 0.049207
#
#
# Mechanical properties :
#
#
# Convention : Reuss Voigt Hill
#
# Bulk Modulus (GPa) = 50.83621 51.77584 51.30603
# Shear Modulus (GPa) = 27.32722 29.66465 28.49593
#
# Velocity S-wave (km/s) = 3.74414 3.90098 3.82337
# Velocity P-wave (km/s) = 6.69103 6.84476 6.76833
#
# Compressibility (1/GPa) = 0.01967102
#
# Stress axis : x y z
#
# Youngs Moduli (GPa) = 85.79154 98.12809 78.34122
#
# Poissons Ratio (x) = 0.12207 0.18593
# Poissons Ratio (y) = 0.10672 0.30184
# Poissons Ratio (z) = 0.20361 0.37808
#
# Static dielectric constant tensor:
#      x y z
#    x 1.682790 0.000000 0.000000 
#    y 0.000000 1.685820 0.000000 
#    z 0.000000 0.000000 1.629190 
# 
# From -- ./inp_files/19974.got.cif
#   From: 2010.05.17/outbox.cif.g08.bks.cpg/sg60_10_cif.got.tgz:19974.got - 2010.06.03 14:59:27.
