data_PCOD9458308
_publ_section_title
;
Structure prediction by ZEFSAII (Michael W. Deem and Ramdas Pophale) SiO2 
 PCOD9458308
Probable space group: P B C N
;
_chemical_formula_sum "Si O2"
_cell_formula_units_Z 48
_cell_length_a 28.435159
_cell_length_b 7.113718
_cell_length_c 9.136664
_cell_angle_alpha 90.000000
_cell_angle_beta 90.000000
_cell_angle_gamma 90.000000
_cell_volume 1848.161675
_symmetry_space_group_name_H-M "P B C N"
_symmetry_group_IT_number 60
_symmetry_cell_setting 'orthorhombic'
loop_
_space_group_symop_operation_xyz
x,y,z
1/2-x,1/2-y,1/2+z
1/2+x,1/2-y,-z
-x,y,1/2-z
-x,-y,-z
1/2+x,1/2+y,1/2-z
1/2-x,1/2+y,z
x,-y,1/2+z
loop_
_atom_site_type_symbol
_atom_site_label
_atom_site_fract_x
_atom_site_fract_y
_atom_site_fract_z
Si Si1 0.893904 0.787537 0.416240
Si Si2 0.051759 0.767302 0.804830
Si Si3 0.888722 0.670004 0.931921
Si Si4 0.546874 0.811826 0.671524
Si Si5 0.205023 0.749212 0.049001
Si Si6 0.702057 0.878803 0.610349
O O1 0.933811 0.834611 0.533637
O O2 0.886487 0.557348 0.415688
O O3 0.914456 0.809080 0.256306
O O4 0.842692 0.869999 0.444087
O O5 0.101547 0.781483 0.715776
O O6 0.048635 0.538025 0.811418
O O7 0.000000 0.831002 0.750000
O O8 0.939690 0.711236 0.004985
O O9 0.844014 0.711187 0.033709
O O10 0.500000 0.754664 0.750000
O O11 0.209142 0.672272 0.218247
O O12 0.252952 0.839816 0.993060
O O13 0.195513 0.599831 0.918024
#
# Coordination Sequence:
#
# PCOD9458308 Si02
#       6
#     8   8   8   8   8   8
#     4   9  17  27  43  66  99 135 174 211 265 316
#     4   9  16  24  39  64  97 137 173 209 256 317
#     4   9  17  27  43  66  99 135 174 211 265 316
#     4   9  14  24  39  62  95 133 169 207 252 319
#     4  11  23  38  58  81 110 146 186 230 278 327
#     4  11  23  38  58  81 110 146 186 230 278 327
#
# _framework density 25.971757
#
# number of rings (size 3 to 8) (size 9 to 14) (size 15 to 20)
#    0.000    2.333    1.667    2.000    9.333    4.000 
#    0.000    0.000    0.000    0.000    0.000    0.000 
#    0.000    8.000    0.000    0.000    0.000    0.000 
#
# Total GULP energy -267539.625608 kJ/mol
# GULP energy per Si atom -5573.742200 kJ/mol
# Density = 2.591264 g / cm^3
# Si number density = 25.971757 Si / 1000 Ang^3
#
#
#
# Elastic Constant Matrix: (Units=GPa)
#
#
# Indices 1 2 3 4 5 6 
#
# 1 124.7044 -11.0365 18.6392 0.0000 0.0000 0.0000
# 2 -11.0365 83.1217 -9.9124 0.0000 0.0000 0.0000
# 3 18.6392 -9.9124 73.7513 0.0000 0.0000 0.0000
# 4 0.0000 0.0000 0.0000 17.0985 0.0000 0.0000
# 5 0.0000 0.0000 0.0000 0.0000 41.4124 0.0000
# 6 0.0000 0.0000 0.0000 0.0000 0.0000 -7.0745
#
#
#
# Elastic Compliance Matrix: (Units=1/GPa)
#
#
# Indices 1 2 3 4 5 6 
#
# 1 0.008396 0.000876 -0.002004 0.000000 0.000000 0.000000
# 2 0.000876 0.012318 0.001434 0.000000 0.000000 0.000000
# 3 -0.002004 0.001434 0.014258 0.000000 0.000000 0.000000
# 4 0.000000 0.000000 0.000000 0.058485 0.000000 0.000000
# 5 0.000000 0.000000 0.000000 0.000000 0.024147 0.000000
# 6 0.000000 0.000000 0.000000 0.000000 0.000000 -0.141352
#
#
# Mechanical properties :
#
#
# Convention : Reuss Voigt Hill
#
# Bulk Modulus (GPa) = 28.10265 30.77311 29.43788
# Shear Modulus (GPa) = -400.06157 29.21308 -185.42425
#
# Velocity S-wave (km/s) = -12.42464 3.35745 -8.45870
# Velocity P-wave (km/s) = 13.96370 5.18694 9.16735
#
# Compressibility (1/GPa) = 0.03558383
#
# Stress axis : x y z
#
# Youngs Moduli (GPa) = 119.10383 81.18285 70.13421
#
# Poissons Ratio (x) = -0.07110 0.14057
# Poissons Ratio (y) = -0.10431 -0.10059
# Poissons Ratio (z) = 0.23871 -0.11643
#
# Static dielectric constant tensor:
#      x y z
#    x 2.101560 0.000000 0.000000 
#    y 0.000000 2.155880 0.000000 
#    z 0.000000 0.000000 2.002340 
# 
# From -- ./inp_files/8394.got.cif
#   From: 2010.05.17/outbox.cif.g08.bks.cpg/sg60_5_cif.got.tgz:8394.got - 2010.06.03 14:59:27.
