data_PCOD9458370
_publ_section_title
;
Structure prediction by ZEFSAII (Michael W. Deem and Ramdas Pophale) SiO2 
 PCOD9458370
Probable space group: P B C N
;
_chemical_formula_sum "Si O2"
_cell_formula_units_Z 48
_cell_length_a 16.257601
_cell_length_b 8.525775
_cell_length_c 14.785509
_cell_angle_alpha 90.000000
_cell_angle_beta 90.000000
_cell_angle_gamma 90.000000
_cell_volume 2049.399415
_symmetry_space_group_name_H-M "P B C N"
_symmetry_group_IT_number 60
_symmetry_cell_setting 'orthorhombic'
loop_
_space_group_symop_operation_xyz
x,y,z
1/2-x,1/2-y,1/2+z
1/2+x,1/2-y,-z
-x,y,1/2-z
-x,-y,-z
1/2+x,1/2+y,1/2-z
1/2-x,1/2+y,z
x,-y,1/2+z
loop_
_atom_site_type_symbol
_atom_site_label
_atom_site_fract_x
_atom_site_fract_y
_atom_site_fract_z
Si Si1 0.079228 0.408971 0.959041
Si Si2 0.635933 0.268255 0.874435
Si Si3 0.339876 0.284998 0.313900
Si Si4 0.171394 0.282598 0.430703
Si Si5 0.926594 0.104557 0.201070
Si Si6 0.800202 0.875717 0.377038
O O1 0.090726 0.320320 0.862857
O O2 0.152094 0.537248 0.953073
O O3 0.095298 0.271791 0.031344
O O4 0.000000 0.500000 0.000000
O O5 0.583469 0.274853 0.784400
O O6 0.671044 0.445151 0.876776
O O7 0.703793 0.136869 0.859447
O O8 0.250824 0.263104 0.364164
O O9 0.361272 0.469107 0.322101
O O10 0.335974 0.270618 0.205168
O O11 0.088170 0.213485 0.385301
O O12 0.185346 0.196983 0.525187
O O13 0.000000 0.007999 0.250000
#
# Coordination Sequence:
#
# PCOD9458370 Si02
#       6
#     8   8   8   8   8   8
#     4  12  27  44  71 110 155 194 245 311 381 451
#     4  11  23  43  68 106 145 188 247 301 375 425
#     4  11  25  46  74 106 143 197 257 306 367 449
#     4  12  24  45  76 106 141 196 248 309 365 447
#     4  11  25  46  72 105 150 195 240 308 378 447
#     4  11  24  42  77 105 141 186 255 316 353 445
#
# _framework density 23.421495
#
# number of rings (size 3 to 8) (size 9 to 14) (size 15 to 20)
#    0.000    0.667    3.333    4.000    2.333    4.000 
#    0.000    8.333    0.000    0.000    0.000    0.000 
#    0.000    0.000    0.000    0.000    0.000    0.000 
#
# Total GULP energy -267477.650772 kJ/mol
# GULP energy per Si atom -5572.451058 kJ/mol
# Density = 2.336819 g / cm^3
# Si number density = 23.421495 Si / 1000 Ang^3
#
#
#
# Elastic Constant Matrix: (Units=GPa)
#
#
# Indices 1 2 3 4 5 6 
#
# 1 80.9222 31.7102 37.7723 0.0000 0.0000 0.0000
# 2 31.7102 95.4060 45.3895 0.0000 0.0000 0.0000
# 3 37.7723 45.3895 107.8593 0.0000 0.0000 0.0000
# 4 0.0000 0.0000 0.0000 51.5557 0.0000 0.0000
# 5 0.0000 0.0000 0.0000 0.0000 16.9811 0.0000
# 6 0.0000 0.0000 0.0000 0.0000 0.0000 3.9177
#
#
#
# Elastic Compliance Matrix: (Units=1/GPa)
#
#
# Indices 1 2 3 4 5 6 
#
# 1 0.015524 -0.003217 -0.004083 0.000000 0.000000 0.000000
# 2 -0.003217 0.013772 -0.004669 0.000000 0.000000 0.000000
# 3 -0.004083 -0.004669 0.012666 0.000000 0.000000 0.000000
# 4 0.000000 0.000000 0.000000 0.019397 0.000000 0.000000
# 5 0.000000 0.000000 0.000000 0.000000 0.058889 0.000000
# 6 0.000000 0.000000 0.000000 0.000000 0.000000 0.255254
#
#
# Mechanical properties :
#
#
# Convention : Reuss Voigt Hill
#
# Bulk Modulus (GPa) = 55.48089 57.10350 56.29220
# Shear Modulus (GPa) = 12.33206 25.77859 19.05532
#
# Velocity S-wave (km/s) = 2.29711 3.32119 2.85543
# Velocity P-wave (km/s) = 5.54753 6.25626 5.91252
#
# Compressibility (1/GPa) = 0.01802422
#
# Stress axis : x y z
#
# Youngs Moduli (GPa) = 64.41662 72.61049 78.95288
#
# Poissons Ratio (x) = 0.23362 0.32233
# Poissons Ratio (y) = 0.20726 0.36862
# Poissons Ratio (z) = 0.26298 0.33901
#
# Static dielectric constant tensor:
#      x y z
#    x 2.434290 0.000000 0.000000 
#    y 0.000000 1.900400 0.000000 
#    z 0.000000 0.000000 1.906010 
# 
# From -- ./inp_files/17347.got.cif
#   From: 2010.05.17/outbox.cif.g08.bks.cpg/sg60_9_cif.got.tgz:17347.got - 2010.06.03 14:59:27.
