data_PCOD9458947
_publ_section_title
;
Structure prediction by ZEFSAII (Michael W. Deem and Ramdas Pophale) SiO2 
 PCOD9458947
Probable space group: P B C N
;
_chemical_formula_sum "Si O2"
_cell_formula_units_Z 64
_cell_length_a 18.000000
_cell_length_b 12.000000
_cell_length_c 15.000000
_cell_angle_alpha 90.000000
_cell_angle_beta 90.000000
_cell_angle_gamma 90.000000
_cell_volume 3240.000000
_symmetry_space_group_name_H-M "P B C N"
_symmetry_group_IT_number 60
_symmetry_cell_setting 'orthorhombic'
loop_
_space_group_symop_operation_xyz
x,y,z
1/2-x,1/2-y,1/2+z
1/2+x,1/2-y,-z
-x,y,1/2-z
-x,-y,-z
1/2+x,1/2+y,1/2-z
1/2-x,1/2+y,z
x,-y,1/2+z
loop_
_atom_site_type_symbol
_atom_site_label
_atom_site_fract_x
_atom_site_fract_y
_atom_site_fract_z
Si Si1 0.244676 0.993328 0.508109
Si Si2 0.492833 0.518172 0.852908
Si Si3 0.375953 0.325617 0.445463
Si Si4 0.838236 0.596516 0.147505
Si Si5 0.644554 0.897020 0.846698
Si Si6 0.005525 0.517379 0.892822
Si Si7 0.007841 0.769218 0.920078
Si Si8 0.877746 0.834133 0.436693
O O1 0.191091 0.887613 0.494295
O O2 0.307359 0.957756 0.577841
O O3 0.281917 0.031506 0.416121
O O4 0.195890 0.097470 0.541702
O O5 0.500000 0.545519 0.750000
O O6 0.419764 0.577712 0.891891
O O7 0.493200 0.385213 0.866383
O O8 0.561729 0.575484 0.903661
O O9 0.347449 0.223997 0.385332
O O10 0.436936 0.275984 0.513704
O O11 0.817933 0.590858 0.250809
O O12 0.918197 0.538542 0.136640
O O13 0.635396 0.766293 0.868594
O O14 0.563690 0.953968 0.849283
O O15 0.004665 0.649618 0.873261
O O16 0.000000 0.500000 0.000000
O O17 0.083261 0.776009 0.978262
#
# Coordination Sequence:
#
# PCOD9458947 Si02
#       8
#     8   8   8   8   8   8   8   8
#     4  12  24  44  66  94 140 180 210 264 334 392
#     4  11  22  37  64  98 125 163 216 270 321 380
#     4  11  21  43  67  90 129 173 215 266 326 390
#     4  12  26  42  67  99 127 171 226 273 326 387
#     4  12  26  42  67  99 127 171 226 273 326 387
#     4  12  21  43  70  91 126 167 218 276 330 379
#     4  11  20  40  67  94 122 169 214 263 328 386
#     4  11  21  43  67  90 129 173 215 266 326 390
#
# _framework density 19.753086
#
# number of rings (size 3 to 8) (size 9 to 14) (size 15 to 20)
#    0.000    0.500    6.250    3.375    0.000    3.000 
#    0.000    0.000    0.000    0.000    0.000    0.000 
#    0.000    0.000    0.000    0.000    0.000    0.000 
#
# Total GULP energy -357967.771813 kJ/mol
# GULP energy per Si atom -5593.246435 kJ/mol
# Density = 1.970813 g / cm^3
# Si number density = 19.753086 Si / 1000 Ang^3
#
#
#
# Elastic Constant Matrix: (Units=GPa)
#
#
# Indices 1 2 3 4 5 6 
#
# 1 41.9636 14.6967 -18.3741 0.0000 0.0000 0.0000
# 2 14.6967 131.2291 6.3334 0.0000 0.0000 0.0000
# 3 -18.3741 6.3334 41.4700 0.0000 0.0000 0.0000
# 4 0.0000 0.0000 0.0000 9.0160 0.0000 0.0000
# 5 0.0000 0.0000 0.0000 0.0000 5.6954 0.0000
# 6 0.0000 0.0000 0.0000 0.0000 0.0000 12.5292
#
#
#
# Elastic Compliance Matrix: (Units=1/GPa)
#
#
# Indices 1 2 3 4 5 6 
#
# 1 0.031775 -0.004270 0.014731 0.000000 0.000000 0.000000
# 2 -0.004270 0.008251 -0.003152 0.000000 0.000000 0.000000
# 3 0.014731 -0.003152 0.031122 0.000000 0.000000 0.000000
# 4 0.000000 0.000000 0.000000 0.110914 0.000000 0.000000
# 5 0.000000 0.000000 0.000000 0.000000 0.175579 0.000000
# 6 0.000000 0.000000 0.000000 0.000000 0.000000 0.079813
#
#
# Mechanical properties :
#
#
# Convention : Reuss Voigt Hill
#
# Bulk Modulus (GPa) = 11.65951 24.44164 18.05057
# Shear Modulus (GPa) = 11.07604 19.58190 15.32897
#
# Velocity S-wave (km/s) = 2.37053 3.15196 2.78875
# Velocity P-wave (km/s) = 3.66169 5.06428 4.41899
#
# Compressibility (1/GPa) = 0.08576690
#
# Stress axis : x y z
#
# Youngs Moduli (GPa) = 31.47080 121.20433 32.13168
#
# Poissons Ratio (x) = 0.51749 -0.47333
# Poissons Ratio (y) = 0.13437 0.10127
# Poissons Ratio (z) = -0.46359 0.38201
#
# Static dielectric constant tensor:
#      x y z
#    x 1.678870 0.000000 0.000000 
#    y 0.000000 1.674720 0.000000 
#    z 0.000000 0.000000 1.725490 
# 
# From -- ./inp_files/17494.got.cif
#   From: 2010.05.17/outbox.ucp.g08.bks.cvg/sg60_9_cif.got.tgz:17494.got - 2010.06.11 16:26:41.
