data_PCOD9458987
_publ_section_title
;
Structure prediction by ZEFSAII (Michael W. Deem and Ramdas Pophale) SiO2 
 PCOD9458987
Probable space group: P B C A
;
_chemical_formula_sum "Si O2"
_cell_formula_units_Z 60
_cell_length_a 13.528795
_cell_length_b 19.948661
_cell_length_c 8.182828
_cell_angle_alpha 90.000000
_cell_angle_beta 90.000000
_cell_angle_gamma 90.000000
_cell_volume 2208.392628
_symmetry_space_group_name_H-M "P B C A"
_symmetry_group_IT_number 61
_symmetry_cell_setting 'orthorhombic'
loop_
_space_group_symop_operation_xyz
x,y,z
1/2-x,-y,1/2+z
1/2+x,1/2-y,-z
-x,1/2+y,1/2-z
-x,-y,-z
1/2+x,y,1/2-z
1/2-x,1/2+y,z
x,1/2-y,1/2+z
loop_
_atom_site_type_symbol
_atom_site_label
_atom_site_fract_x
_atom_site_fract_y
_atom_site_fract_z
Si Si1 0.966824 0.301145 0.524351
Si Si2 0.472892 0.902033 0.232139
Si Si3 0.198375 0.499305 0.646273
Si Si4 0.218187 0.176885 0.802709
Si Si5 0.500000 0.500000 0.000000
Si Si6 0.272752 0.141723 0.475058
Si Si7 0.916081 0.696074 0.151277
Si Si8 0.850295 0.422513 0.025447
O O1 0.977908 0.350720 0.366428
O O2 0.865075 0.323387 0.614321
O O3 0.994637 0.226450 0.460709
O O4 0.045635 0.314094 0.667211
O O5 0.361723 0.876893 0.233657
O O6 0.534687 0.908213 0.063906
O O7 0.480689 0.973073 0.317514
O O8 0.198393 0.567837 0.536567
O O9 0.180490 0.526928 0.827038
O O10 0.299213 0.457170 0.629099
O O11 0.104398 0.462792 0.566212
O O12 0.274240 0.190172 0.635185
O O13 0.157199 0.239892 0.856772
O O14 0.289105 0.144624 0.934608
O O15 0.164550 0.140419 0.396102
#
# Coordination Sequence:
#
# PCOD9458987 Si02
#       8
#     8   8   8   8   4   8   8   8
#     4  11  23  41  65  92 123 172 211 270 321 388
#     4  10  20  35  65  87 123 161 215 252 322 382
#     4  10  21  38  64  91 128 165 209 263 321 382
#     4  10  20  40  62  86 127 167 208 263 315 384
#     4  10  16  34  62  90 112 168 210 252 306 392
#     4  11  23  44  60  94 136 164 214 276 318 383
#     4  11  25  39  64  93 124 171 219 260 329 386
#     4  10  20  39  63  92 123 165 208 262 320 381
#
# _framework density 27.169080999999998
#
# number of rings (size 3 to 8) (size 9 to 14) (size 15 to 20)
#    0.000    1.600    6.667    0.000    1.867    2.133 
#    0.000    4.000    0.000    0.000    0.000    0.000 
#    0.000    0.000    0.000    0.000    0.000    0.000 
#
# Total GULP energy -334219.112381 kJ/mol
# GULP energy per Si atom -5570.318540 kJ/mol
# Density = 2.710724 g / cm^3
# Si number density = 27.169081 Si / 1000 Ang^3
#
#
#
# Elastic Constant Matrix: (Units=GPa)
#
#
# Indices 1 2 3 4 5 6 
#
# 1 86.1479 2.8038 4.0201 0.0000 0.0000 0.0000
# 2 2.8038 48.4302 8.4954 0.0000 0.0000 0.0000
# 3 4.0201 8.4954 43.3232 0.0000 0.0000 0.0000
# 4 0.0000 0.0000 0.0000 30.5678 0.0000 0.0000
# 5 0.0000 0.0000 0.0000 0.0000 37.4345 0.0000
# 6 0.0000 0.0000 0.0000 0.0000 0.0000 13.3582
#
#
#
# Elastic Compliance Matrix: (Units=1/GPa)
#
#
# Indices 1 2 3 4 5 6 
#
# 1 0.011670 -0.000503 -0.000984 0.000000 0.000000 0.000000
# 2 -0.000503 0.021406 -0.004151 0.000000 0.000000 0.000000
# 3 -0.000984 -0.004151 0.023988 0.000000 0.000000 0.000000
# 4 0.000000 0.000000 0.000000 0.032714 0.000000 0.000000
# 5 0.000000 0.000000 0.000000 0.000000 0.026713 0.000000
# 6 0.000000 0.000000 0.000000 0.000000 0.000000 0.074860
#
#
# Mechanical properties :
#
#
# Convention : Reuss Voigt Hill
#
# Bulk Modulus (GPa) = 21.84014 23.17109 22.50561
# Shear Modulus (GPa) = 22.94738 27.11090 25.02914
#
# Velocity S-wave (km/s) = 2.90938 3.16232 3.03848
# Velocity P-wave (km/s) = 4.39796 4.67768 4.53997
#
# Compressibility (1/GPa) = 0.04578725
#
# Stress axis : x y z
#
# Youngs Moduli (GPa) = 85.68804 46.71696 41.68820
#
# Poissons Ratio (x) = 0.02350 0.04103
# Poissons Ratio (y) = 0.04310 0.17304
# Poissons Ratio (z) = 0.08434 0.19391
#
# Static dielectric constant tensor:
#      x y z
#    x 2.757530 0.000000 0.000000 
#    y 0.000000 2.194480 0.000000 
#    z 0.000000 0.000000 2.183250 
# 
# From -- ./inp_files/3167.got.cif
#   From: 2010.05.17/outbox.cif.g08.bks.cpg/sg61_2_cif.got.tgz:3167.got - 2010.06.03 15:17:17.
