data_PCOD9458524
_publ_section_title
;
Structure prediction by ZEFSAII (Michael W. Deem and Ramdas Pophale) SiO2 
 PCOD9458524
Probable space group: P B C N
;
_chemical_formula_sum "Si O2"
_cell_formula_units_Z 32
_cell_length_a 8.526586
_cell_length_b 17.629139
_cell_length_c 9.624089
_cell_angle_alpha 90.000000
_cell_angle_beta 90.000000
_cell_angle_gamma 90.000000
_cell_volume 1446.658121
_symmetry_space_group_name_H-M "P B C N"
_symmetry_group_IT_number 60
_symmetry_cell_setting 'orthorhombic'
loop_
_space_group_symop_operation_xyz
x,y,z
1/2-x,1/2-y,1/2+z
1/2+x,1/2-y,-z
-x,y,1/2-z
-x,-y,-z
1/2+x,1/2+y,1/2-z
1/2-x,1/2+y,z
x,-y,1/2+z
loop_
_atom_site_type_symbol
_atom_site_label
_atom_site_fract_x
_atom_site_fract_y
_atom_site_fract_z
Si Si1 0.940642 0.779915 0.603828
Si Si2 0.395881 0.039735 0.613169
Si Si3 0.415674 0.555200 0.106653
Si Si4 0.088421 0.330835 0.895032
O O1 0.044698 0.856615 0.574420
O O2 0.969085 0.725795 0.473049
O O3 0.000000 0.746478 0.750000
O O4 0.758043 0.795310 0.636465
O O5 0.500000 0.054076 0.750000
O O6 0.356138 0.113643 0.522213
O O7 0.500000 0.000000 0.500000
O O8 0.255839 0.979611 0.632639
O O9 0.500000 0.543764 0.250000
O O10 0.500000 0.500000 0.000000
O O11 0.000000 0.356050 0.750000
#
# Coordination Sequence:
#
# PCOD9458524 Si02
#       4
#     8   8   8   8
#     4  11  26  48  75 106 150 193 247 299 366 438
#     4  12  27  45  75 111 149 193 245 302 362 438
#     4  11  24  47  72 105 147 191 239 297 366 430
#     4  12  27  49  77 109 150 194 243 305 367 439
#
# _framework density 22.119947
#
# number of rings (size 3 to 8) (size 9 to 14) (size 15 to 20)
#    0.000    0.500    2.500    4.500   14.000    1.000 
#    4.500    0.000    0.000    0.000    0.000    0.000 
#    0.000    0.000    0.000    0.000    0.000    0.000 
#
# Total GULP energy -178322.282156 kJ/mol
# GULP energy per Si atom -5572.571317 kJ/mol
# Density = 2.206960 g / cm^3
# Si number density = 22.119947 Si / 1000 Ang^3
#
#
#
# Elastic Constant Matrix: (Units=GPa)
#
#
# Indices 1 2 3 4 5 6 
#
# 1 124.8593 5.0612 0.2986 0.0000 0.0000 0.0000
# 2 5.0612 41.3903 22.2156 0.0000 0.0000 0.0000
# 3 0.2986 22.2156 106.6910 0.0000 0.0000 0.0000
# 4 0.0000 0.0000 0.0000 38.9964 0.0000 0.0000
# 5 0.0000 0.0000 0.0000 0.0000 39.0523 0.0000
# 6 0.0000 0.0000 0.0000 0.0000 0.0000 25.1939
#
#
#
# Elastic Compliance Matrix: (Units=1/GPa)
#
#
# Indices 1 2 3 4 5 6 
#
# 1 0.008053 -0.001095 0.000205 0.000000 0.000000 0.000000
# 2 -0.001095 0.027349 -0.005692 0.000000 0.000000 0.000000
# 3 0.000205 -0.005692 0.010557 0.000000 0.000000 0.000000
# 4 0.000000 0.000000 0.000000 0.025643 0.000000 0.000000
# 5 0.000000 0.000000 0.000000 0.000000 0.025607 0.000000
# 6 0.000000 0.000000 0.000000 0.000000 0.000000 0.039692
#
#
# Mechanical properties :
#
#
# Convention : Reuss Voigt Hill
#
# Bulk Modulus (GPa) = 30.49056 36.45459 33.47258
# Shear Modulus (GPa) = 31.05662 37.00621 34.03141
#
# Velocity S-wave (km/s) = 3.75108 4.09464 3.92662
# Velocity P-wave (km/s) = 5.70744 6.23466 5.97687
#
# Compressibility (1/GPa) = 0.03279703
#
# Stress axis : x y z
#
# Youngs Moduli (GPa) = 124.17868 36.56432 94.72007
#
# Poissons Ratio (x) = 0.04004 -0.01946
# Poissons Ratio (y) = 0.13597 0.53911
# Poissons Ratio (z) = -0.02551 0.20811
#
# Static dielectric constant tensor:
#      x y z
#    x 1.808360 0.000000 0.000000 
#    y 0.000000 -0.288700 0.000000 
#    z 0.000000 0.000000 1.712110 
# 
# From -- ./inp_files/3610.got.cif
#   From: 2010.05.17/outbox.cif.g08.bks.cpg/sg60_2_cif.got.tgz:3610.got - 2010.06.03 14:59:27.
