data_PCOD9458159
_publ_section_title
;
Structure prediction by ZEFSAII (Michael W. Deem and Ramdas Pophale) SiO2 
 PCOD9458159
Probable space group: P B C N
;
_chemical_formula_sum "Si O2"
_cell_formula_units_Z 40
_cell_length_a 5.364616
_cell_length_b 18.961000
_cell_length_c 17.951026
_cell_angle_alpha 90.000000
_cell_angle_beta 90.000000
_cell_angle_gamma 90.000000
_cell_volume 1825.951151
_symmetry_space_group_name_H-M "P B C N"
_symmetry_group_IT_number 60
_symmetry_cell_setting 'orthorhombic'
loop_
_space_group_symop_operation_xyz
x,y,z
1/2-x,1/2-y,1/2+z
1/2+x,1/2-y,-z
-x,y,1/2-z
-x,-y,-z
1/2+x,1/2+y,1/2-z
1/2-x,1/2+y,z
x,-y,1/2+z
loop_
_atom_site_type_symbol
_atom_site_label
_atom_site_fract_x
_atom_site_fract_y
_atom_site_fract_z
Si Si1 0.900659 0.130526 0.831833
Si Si2 0.056868 0.590395 0.077221
Si Si3 0.241205 0.511619 0.205726
Si Si4 0.803413 0.029021 0.560358
Si Si5 0.876909 0.746824 0.451060
O O1 0.838235 0.193881 0.887683
O O2 0.000000 0.153017 0.750000
O O3 0.094431 0.081869 0.878058
O O4 0.693492 0.070299 0.816796
O O5 0.263065 0.559103 0.132404
O O6 0.039954 0.673162 0.085765
O O7 0.825079 0.539916 0.093819
O O8 0.112975 0.573522 0.990903
O O9 0.500000 0.513794 0.250000
O O10 0.000000 0.537449 0.250000
O O11 0.000000 0.000000 0.500000
O O12 0.613913 0.735225 0.494998
#
# Coordination Sequence:
#
# PCOD9458159 Si02
#       5
#     8   8   8   8   8
#     4  11  24  46  72 103 144 185 235 293 361 424
#     4  11  24  40  72 100 139 182 241 292 348 422
#     4  11  25  43  70 104 141 182 238 296 354 419
#     4  11  21  42  73 104 134 184 238 293 352 423
#     4  12  28  46  69 104 145 189 234 292 357 431
#
# _framework density 21.906389999999998
#
# number of rings (size 3 to 8) (size 9 to 14) (size 15 to 20)
#    0.000    0.800    4.000    3.600    2.800    4.000 
#    0.000    1.000    0.000    0.000    0.000    0.000 
#    0.000    0.000    0.000    0.000    0.000    0.000 
#
# Total GULP energy -223345.809959 kJ/mol
# GULP energy per Si atom -5583.645249 kJ/mol
# Density = 2.185653 g / cm^3
# Si number density = 21.906390 Si / 1000 Ang^3
#
#
#
# Elastic Constant Matrix: (Units=GPa)
#
#
# Indices 1 2 3 4 5 6 
#
# 1 75.2019 1.1566 30.8735 0.0000 0.0000 0.0000
# 2 1.1566 115.7912 30.9801 0.0000 0.0000 0.0000
# 3 30.8735 30.9801 138.5244 0.0000 0.0000 0.0000
# 4 0.0000 0.0000 0.0000 48.1083 0.0000 0.0000
# 5 0.0000 0.0000 0.0000 0.0000 35.8093 0.0000
# 6 0.0000 0.0000 0.0000 0.0000 0.0000 26.5337
#
#
#
# Elastic Compliance Matrix: (Units=1/GPa)
#
#
# Indices 1 2 3 4 5 6 
#
# 1 0.014702 0.000776 -0.003450 0.000000 0.000000 0.000000
# 2 0.000776 0.009227 -0.002237 0.000000 0.000000 0.000000
# 3 -0.003450 -0.002237 0.008488 0.000000 0.000000 0.000000
# 4 0.000000 0.000000 0.000000 0.020786 0.000000 0.000000
# 5 0.000000 0.000000 0.000000 0.000000 0.027926 0.000000
# 6 0.000000 0.000000 0.000000 0.000000 0.000000 0.037688
#
#
# Mechanical properties :
#
#
# Convention : Reuss Voigt Hill
#
# Bulk Modulus (GPa) = 44.25577 50.61531 47.43554
# Shear Modulus (GPa) = 36.71872 39.85741 38.28807
#
# Velocity S-wave (km/s) = 4.09854 4.27012 4.18521
# Velocity P-wave (km/s) = 6.53020 6.88965 6.71233
#
# Compressibility (1/GPa) = 0.02259592
#
# Stress axis : x y z
#
# Youngs Moduli (GPa) = 68.01743 108.37909 117.81163
#
# Poissons Ratio (x) = -0.08413 0.40649
# Poissons Ratio (y) = -0.05280 0.26349
# Poissons Ratio (z) = 0.23468 0.24239
#
# Static dielectric constant tensor:
#      x y z
#    x 1.895620 0.000000 0.000000 
#    y 0.000000 1.788990 0.000000 
#    z 0.000000 0.000000 1.963670 
# 
# From -- ./inp_files/18505.got.cif
#   From: 2010.05.17/outbox.cif.g08.bks.cpg/sg60_10_cif.got.tgz:18505.got - 2010.06.03 14:59:27.
