data_PCOD9458949
_publ_section_title
;
Structure prediction by ZEFSAII (Michael W. Deem and Ramdas Pophale) SiO2 
 PCOD9458949
Probable space group: P B C N
;
_chemical_formula_sum "Si O2"
_cell_formula_units_Z 64
_cell_length_a 24.000000
_cell_length_b 15.000000
_cell_length_c 9.000000
_cell_angle_alpha 90.000000
_cell_angle_beta 90.000000
_cell_angle_gamma 90.000000
_cell_volume 3240.000000
_symmetry_space_group_name_H-M "P B C N"
_symmetry_group_IT_number 60
_symmetry_cell_setting 'orthorhombic'
loop_
_space_group_symop_operation_xyz
x,y,z
1/2-x,1/2-y,1/2+z
1/2+x,1/2-y,-z
-x,y,1/2-z
-x,-y,-z
1/2+x,1/2+y,1/2-z
1/2-x,1/2+y,z
x,-y,1/2+z
loop_
_atom_site_type_symbol
_atom_site_label
_atom_site_fract_x
_atom_site_fract_y
_atom_site_fract_z
Si Si1 0.151719 0.093515 0.838684
Si Si2 0.774226 0.408181 0.308248
Si Si3 0.774336 0.595450 0.167479
Si Si4 0.379000 0.203675 0.788596
Si Si5 0.849287 0.099279 0.299494
Si Si6 0.439555 0.104166 0.553893
Si Si7 0.118795 0.708275 0.306376
Si Si8 0.567962 0.893183 0.954904
O O1 0.214139 0.105283 0.770437
O O2 0.118659 0.184365 0.793744
O O3 0.132134 0.996892 0.772071
O O4 0.151792 0.091298 0.019975
O O5 0.795024 0.502462 0.240023
O O6 0.769139 0.412755 0.487855
O O7 0.819211 0.333393 0.265497
O O8 0.713700 0.611452 0.238183
O O9 0.818200 0.671889 0.209807
O O10 0.381179 0.309803 0.753217
O O11 0.427634 0.141672 0.716871
O O12 0.389233 0.171501 0.956637
O O13 0.400305 0.173567 0.466841
O O14 0.503349 0.113177 0.503603
O O15 0.420597 0.000366 0.539304
O O16 0.077123 0.649022 0.206782
#
# Coordination Sequence:
#
# PCOD9458949 Si02
#       8
#     8   8   8   8   8   8   8   8
#     4  11  24  42  63  91 130 165 211 258 302 363
#     4  11  22  37  61  94 132 164 204 250 307 374
#     4  11  22  37  61  94 132 164 204 250 307 374
#     4  12  24  39  66  94 126 167 208 253 308 374
#     4  11  24  42  63  91 130 165 211 258 302 363
#     4  11  22  48  60  99 125 161 202 260 318 365
#     4  12  24  39  66  94 126 167 208 253 308 374
#     4  11  26  38  72  91 129 161 204 254 316 385
#
# _framework density 19.753086
#
# number of rings (size 3 to 8) (size 9 to 14) (size 15 to 20)
#    0.000    0.750    2.500    6.750    7.000    2.000 
#    0.000    0.000    0.000    4.500    0.000    0.000 
#    0.000    0.000    0.000    0.000    0.000    0.000 
#
# Total GULP energy -357254.614448 kJ/mol
# GULP energy per Si atom -5582.103351 kJ/mol
# Density = 1.970813 g / cm^3
# Si number density = 19.753086 Si / 1000 Ang^3
#
#
#
# Elastic Constant Matrix: (Units=GPa)
#
#
# Indices 1 2 3 4 5 6 
#
# 1 46.8313 31.3782 4.1663 0.0000 0.0000 0.0000
# 2 31.3782 176.9667 15.6728 0.0000 0.0000 0.0000
# 3 4.1663 15.6728 75.7201 0.0000 0.0000 0.0000
# 4 0.0000 0.0000 0.0000 32.4153 0.0000 0.0000
# 5 0.0000 0.0000 0.0000 0.0000 32.7272 0.0000
# 6 0.0000 0.0000 0.0000 0.0000 0.0000 26.8114
#
#
#
# Elastic Compliance Matrix: (Units=1/GPa)
#
#
# Indices 1 2 3 4 5 6 
#
# 1 0.024247 -0.004259 -0.000453 0.000000 0.000000 0.000000
# 2 -0.004259 0.006504 -0.001112 0.000000 0.000000 0.000000
# 3 -0.000453 -0.001112 0.013462 0.000000 0.000000 0.000000
# 4 0.000000 0.000000 0.000000 0.030850 0.000000 0.000000
# 5 0.000000 0.000000 0.000000 0.000000 0.030556 0.000000
# 6 0.000000 0.000000 0.000000 0.000000 0.000000 0.037298
#
#
# Mechanical properties :
#
#
# Convention : Reuss Voigt Hill
#
# Bulk Modulus (GPa) = 30.70703 44.66143 37.68423
# Shear Modulus (GPa) = 30.22628 34.94417 32.58523
#
# Velocity S-wave (km/s) = 3.91603 4.21057 4.06597
# Velocity P-wave (km/s) = 6.00218 6.80422 6.41575
#
# Compressibility (1/GPa) = 0.03256583
#
# Stress axis : x y z
#
# Youngs Moduli (GPa) = 41.24170 153.74039 74.28541
#
# Poissons Ratio (x) = 0.65482 0.03362
# Poissons Ratio (y) = 0.17566 0.08260
# Poissons Ratio (z) = 0.01866 0.17095
#
# Static dielectric constant tensor:
#      x y z
#    x 1.678930 0.000000 0.000000 
#    y 0.000000 1.688730 0.000000 
#    z 0.000000 0.000000 1.751220 
# 
# From -- ./inp_files/7962.got.cif
#   From: 2010.05.17/outbox.ucp.g08.bks.cvg/sg60_4_cif.got.tgz:7962.got - 2010.06.11 16:26:41.
