data_PCOD9458658
_publ_section_title
;
Structure prediction by ZEFSAII (Michael W. Deem and Ramdas Pophale) SiO2 
 PCOD9458658
Probable space group: P B C N
;
_chemical_formula_sum "Si O2"
_cell_formula_units_Z 48
_cell_length_a 4.819553
_cell_length_b 18.398363
_cell_length_c 20.280041
_cell_angle_alpha 90.000000
_cell_angle_beta 90.000000
_cell_angle_gamma 90.000000
_cell_volume 1798.269475
_symmetry_space_group_name_H-M "P B C N"
_symmetry_group_IT_number 60
_symmetry_cell_setting 'orthorhombic'
loop_
_space_group_symop_operation_xyz
x,y,z
1/2-x,1/2-y,1/2+z
1/2+x,1/2-y,-z
-x,y,1/2-z
-x,-y,-z
1/2+x,1/2+y,1/2-z
1/2-x,1/2+y,z
x,-y,1/2+z
loop_
_atom_site_type_symbol
_atom_site_label
_atom_site_fract_x
_atom_site_fract_y
_atom_site_fract_z
Si Si1 0.315048 0.221699 0.960437
Si Si2 0.450589 0.227981 0.322205
Si Si3 0.894468 0.998022 0.573719
Si Si4 0.963469 0.128586 0.341796
Si Si5 0.000000 0.997288 0.750000
Si Si6 0.500000 0.099670 0.750000
Si Si7 0.603568 0.906549 0.393642
O O1 0.182114 0.236480 0.887736
O O2 0.491612 0.148359 0.949009
O O3 0.551929 0.275334 0.990269
O O4 0.500000 0.265651 0.250000
O O5 0.728630 0.188478 0.346257
O O6 0.225122 0.165509 0.306379
O O7 0.585365 0.022579 0.591905
O O8 0.086935 0.062325 0.604539
O O9 0.000000 0.000000 0.500000
O O10 0.867831 0.057576 0.302089
O O11 0.070098 0.085883 0.405412
O O12 0.246143 0.048718 0.770860
O O13 0.423794 0.132522 0.678598
#
# Coordination Sequence:
#
# PCOD9458658 Si02
#       7
#     8   8   8   8   4   4   8
#     4  12  30  54  75 100 147 207 255 304 371 447
#     4  12  26  47  75 109 143 193 252 308 358 428
#     4  12  27  43  73 110 147 189 236 297 371 454
#     4  12  23  41  73 108 147 183 231 298 369 439
#     4  12  20  40  67 108 151 174 220 280 386 430
#     4  12  22  44  71 104 145 182 232 294 372 442
#     4  12  26  49  72 105 143 193 244 303 366 437
#
# _framework density 26.692329000000001
#
# number of rings (size 3 to 8) (size 9 to 14) (size 15 to 20)
#    0.000    0.000    5.000    4.500    7.000    0.000 
#   10.500    0.000    0.000    0.000    0.000    0.000 
#    0.000    0.000    0.000    0.000    0.000    0.000 
#
# Total GULP energy -268339.670718 kJ/mol
# GULP energy per Si atom -5590.409807 kJ/mol
# Density = 2.663158 g / cm^3
# Si number density = 26.692329 Si / 1000 Ang^3
#
#
#
# Elastic Constant Matrix: (Units=GPa)
#
#
# Indices 1 2 3 4 5 6 
#
# 1 127.9661 25.1823 10.1855 0.0000 0.0000 0.0000
# 2 25.1823 72.2367 26.3621 0.0000 0.0000 0.0000
# 3 10.1855 26.3621 138.5444 0.0000 0.0000 0.0000
# 4 0.0000 0.0000 0.0000 51.7411 0.0000 0.0000
# 5 0.0000 0.0000 0.0000 0.0000 45.3008 0.0000
# 6 0.0000 0.0000 0.0000 0.0000 0.0000 31.9650
#
#
#
# Elastic Compliance Matrix: (Units=1/GPa)
#
#
# Indices 1 2 3 4 5 6 
#
# 1 0.008391 -0.002901 -0.000065 0.000000 0.000000 0.000000
# 2 -0.002901 0.015880 -0.002808 0.000000 0.000000 0.000000
# 3 -0.000065 -0.002808 0.007757 0.000000 0.000000 0.000000
# 4 0.000000 0.000000 0.000000 0.019327 0.000000 0.000000
# 5 0.000000 0.000000 0.000000 0.000000 0.022075 0.000000
# 6 0.000000 0.000000 0.000000 0.000000 0.000000 0.031284
#
#
# Mechanical properties :
#
#
# Convention : Reuss Voigt Hill
#
# Bulk Modulus (GPa) = 48.83181 51.35635 50.09408
# Shear Modulus (GPa) = 40.62120 44.26918 42.44519
#
# Velocity S-wave (km/s) = 3.90530 4.07688 3.99201
# Velocity P-wave (km/s) = 6.21845 6.43764 6.32900
#
# Compressibility (1/GPa) = 0.02047845
#
# Stress axis : x y z
#
# Youngs Moduli (GPa) = 119.17966 62.97351 128.91552
#
# Poissons Ratio (x) = 0.18271 0.00835
# Poissons Ratio (y) = 0.34579 0.36203
# Poissons Ratio (z) = 0.00772 0.17685
#
# Static dielectric constant tensor:
#      x y z
#    x 2.003980 0.000000 0.000000 
#    y 0.000000 2.097560 0.000000 
#    z 0.000000 0.000000 2.300570 
# 
# From -- ./inp_files/23642.got.cif
#   From: 2010.05.17/outbox.cif.g08.bks.cpg/sg60_12_cif.got.tgz:23642.got - 2010.06.03 14:59:27.
