data_PCOD9458083
_publ_section_title
;
Structure prediction by ZEFSAII (Michael W. Deem and Ramdas Pophale) SiO2 
 PCOD9458083
Probable space group: P B C N
;
_chemical_formula_sum "Si O2"
_cell_formula_units_Z 48
_cell_length_a 5.657990
_cell_length_b 27.932529
_cell_length_c 12.595387
_cell_angle_alpha 90.000000
_cell_angle_beta 90.000000
_cell_angle_gamma 90.000000
_cell_volume 1990.599771
_symmetry_space_group_name_H-M "P B C N"
_symmetry_group_IT_number 60
_symmetry_cell_setting 'orthorhombic'
loop_
_space_group_symop_operation_xyz
x,y,z
1/2-x,1/2-y,1/2+z
1/2+x,1/2-y,-z
-x,y,1/2-z
-x,-y,-z
1/2+x,1/2+y,1/2-z
1/2-x,1/2+y,z
x,-y,1/2+z
loop_
_atom_site_type_symbol
_atom_site_label
_atom_site_fract_x
_atom_site_fract_y
_atom_site_fract_z
Si Si1 0.946665 0.695893 0.919947
Si Si2 0.695757 0.945407 0.658299
Si Si3 0.038256 0.782643 0.428159
Si Si4 0.966719 0.852121 0.865382
Si Si5 0.763845 0.053991 0.694043
Si Si6 0.915616 0.400050 0.995616
O O1 0.952976 0.728937 0.026208
O O2 0.211473 0.703887 0.876927
O O3 0.930579 0.640421 0.948267
O O4 0.704500 0.711256 0.864429
O O5 0.500000 0.940238 0.750000
O O6 0.863788 0.898882 0.647676
O O7 0.562326 0.944284 0.546438
O O8 0.803217 0.997330 0.675657
O O9 0.005011 0.816144 0.534656
O O10 0.000000 0.827562 0.750000
O O11 0.713774 0.874717 0.896671
O O12 0.500000 0.059724 0.750000
O O13 0.761958 0.080975 0.582351
O O14 0.000000 0.072589 0.750000
#
# Coordination Sequence:
#
# PCOD9458083 Si02
#       6
#     8   8   8   8   8   8
#     4   9  18  34  57  86 114 159 203 248 296 378
#     4  11  22  40  63  94 129 163 208 269 322 388
#     4   9  18  33  54  84 125 155 196 244 313 364
#     4  11  21  35  61  95 133 161 208 266 321 384
#     4  11  28  46  63  90 127 170 222 271 317 382
#     4  11  23  40  67  92 123 173 213 262 326 376
#
# _framework density 24.113333999999998
#
# number of rings (size 3 to 8) (size 9 to 14) (size 15 to 20)
#    0.000    1.667    3.333    1.000    4.667    0.667 
#    0.000    0.833    0.000    7.000    0.000    0.000 
#    0.000    0.000    0.000    0.000    0.000    0.000 
#
# Total GULP energy -267625.335668 kJ/mol
# GULP energy per Si atom -5575.527826 kJ/mol
# Density = 2.405845 g / cm^3
# Si number density = 24.113334 Si / 1000 Ang^3
#
#
#
# Elastic Constant Matrix: (Units=GPa)
#
#
# Indices 1 2 3 4 5 6 
#
# 1 148.6569 -4.1543 8.1514 0.0000 0.0000 0.0000
# 2 -4.1543 61.5789 0.8951 0.0000 0.0000 0.0000
# 3 8.1514 0.8951 59.4831 0.0000 0.0000 0.0000
# 4 0.0000 0.0000 0.0000 -12.5053 0.0000 0.0000
# 5 0.0000 0.0000 0.0000 0.0000 24.8587 0.0000
# 6 0.0000 0.0000 0.0000 0.0000 0.0000 -8.7191
#
#
#
# Elastic Compliance Matrix: (Units=1/GPa)
#
#
# Indices 1 2 3 4 5 6 
#
# 1 0.006792 0.000472 -0.000938 0.000000 0.000000 0.000000
# 2 0.000472 0.016276 -0.000310 0.000000 0.000000 0.000000
# 3 -0.000938 -0.000310 0.016945 0.000000 0.000000 0.000000
# 4 0.000000 0.000000 0.000000 -0.079966 0.000000 0.000000
# 5 0.000000 0.000000 0.000000 0.000000 0.040227 0.000000
# 6 0.000000 0.000000 0.000000 0.000000 0.000000 -0.114691
#
#
# Mechanical properties :
#
#
# Convention : Reuss Voigt Hill
#
# Bulk Modulus (GPa) = 26.00055 31.05593 28.52824
# Shear Modulus (GPa) = -49.97677 18.38198 -15.79740
#
# Velocity S-wave (km/s) = -4.55750 2.76400 -2.56233
# Velocity P-wave (km/s) = 4.10954 4.80556 1.76140
#
# Compressibility (1/GPa) = 0.03846072
#
# Stress axis : x y z
#
# Youngs Moduli (GPa) = 147.24272 61.44142 59.01561
#
# Poissons Ratio (x) = -0.02899 0.05534
# Poissons Ratio (y) = -0.06947 0.01827
# Poissons Ratio (z) = 0.13808 0.01902
#
# Static dielectric constant tensor:
#      x y z
#    x 2.058200 0.000000 0.000000 
#    y 0.000000 1.903000 0.000000 
#    z 0.000000 0.000000 1.901520 
# 
# From -- ./inp_files/13928.got.cif
#   From: 2010.05.17/outbox.cif.g08.bks.cpg/sg60_7_cif.got.tgz:13928.got - 2010.06.03 14:59:27.
