data_PCOD9458343
_publ_section_title
;
Structure prediction by ZEFSAII (Michael W. Deem and Ramdas Pophale) SiO2 
 PCOD9458343
Probable space group: P B C N
;
_chemical_formula_sum "Si O2"
_cell_formula_units_Z 32
_cell_length_a 16.354890
_cell_length_b 9.478793
_cell_length_c 7.952165
_cell_angle_alpha 90.000000
_cell_angle_beta 90.000000
_cell_angle_gamma 90.000000
_cell_volume 1232.781332
_symmetry_space_group_name_H-M "P B C N"
_symmetry_group_IT_number 60
_symmetry_cell_setting 'orthorhombic'
loop_
_space_group_symop_operation_xyz
x,y,z
1/2-x,1/2-y,1/2+z
1/2+x,1/2-y,-z
-x,y,1/2-z
-x,-y,-z
1/2+x,1/2+y,1/2-z
1/2-x,1/2+y,z
x,-y,1/2+z
loop_
_atom_site_type_symbol
_atom_site_label
_atom_site_fract_x
_atom_site_fract_y
_atom_site_fract_z
Si Si1 0.816881 0.197236 0.730359
Si Si2 0.095048 0.027831 0.467403
Si Si3 0.919538 0.567729 0.353464
Si Si4 0.877338 0.701636 0.708947
O O1 0.844853 0.358127 0.754522
O O2 0.720275 0.190965 0.715802
O O3 0.858378 0.116007 0.576055
O O4 0.855046 0.114417 0.890934
O O5 0.098634 0.135963 0.308230
O O6 0.000000 0.000000 0.500000
O O7 0.912603 0.626795 0.540538
O O8 0.911281 0.399419 0.353316
O O9 0.000000 0.611568 0.250000
#
# Coordination Sequence:
#
# PCOD9458343 Si02
#       4
#     8   8   8   8
#     4  11  23  42  65  97 136 178 230 287 350 421
#     4  11  24  43  67 100 139 185 234 290 354 425
#     4  11  24  43  65  97 134 175 227 286 346 415
#     4  11  24  42  67  98 133 180 230 289 349 417
#
# _framework density 25.957564000000001
#
# number of rings (size 3 to 8) (size 9 to 14) (size 15 to 20)
#    0.000    1.000    0.000    7.500    0.000    8.000 
#    0.000    0.000    0.000    0.000    0.000    0.000 
#    0.000    0.000    0.000    0.000    0.000    0.000 
#
# Total GULP energy -179487.870327 kJ/mol
# GULP energy per Si atom -5608.995948 kJ/mol
# Density = 2.589848 g / cm^3
# Si number density = 25.957564 Si / 1000 Ang^3
#
#
#
# Elastic Constant Matrix: (Units=GPa)
#
#
# Indices 1 2 3 4 5 6 
#
# 1 238.7058 35.5753 34.9557 0.0000 0.0000 0.0000
# 2 35.5753 132.6878 11.6961 0.0000 0.0000 0.0000
# 3 34.9557 11.6961 72.7829 0.0000 0.0000 0.0000
# 4 0.0000 0.0000 0.0000 46.4688 0.0000 0.0000
# 5 0.0000 0.0000 0.0000 0.0000 32.5496 0.0000
# 6 0.0000 0.0000 0.0000 0.0000 0.0000 77.4474
#
#
#
# Elastic Compliance Matrix: (Units=1/GPa)
#
#
# Indices 1 2 3 4 5 6 
#
# 1 0.004650 -0.001065 -0.002062 0.000000 0.000000 0.000000
# 2 -0.001065 0.007889 -0.000756 0.000000 0.000000 0.000000
# 3 -0.002062 -0.000756 0.014851 0.000000 0.000000 0.000000
# 4 0.000000 0.000000 0.000000 0.021520 0.000000 0.000000
# 5 0.000000 0.000000 0.000000 0.000000 0.030722 0.000000
# 6 0.000000 0.000000 0.000000 0.000000 0.000000 0.012912
#
#
# Mechanical properties :
#
#
# Convention : Reuss Voigt Hill
#
# Bulk Modulus (GPa) = 50.95945 67.62563 59.29254
# Shear Modulus (GPa) = 46.79375 55.42312 51.10844
#
# Velocity S-wave (km/s) = 4.25043 4.62577 4.44207
# Velocity P-wave (km/s) = 6.61533 7.39184 7.01434
#
# Compressibility (1/GPa) = 0.01962345
#
# Stress axis : x y z
#
# Youngs Moduli (GPa) = 215.05653 126.76409 67.33374
#
# Poissons Ratio (x) = 0.13500 0.13885
# Poissons Ratio (y) = 0.22902 0.05092
# Poissons Ratio (z) = 0.44347 0.09586
#
# Static dielectric constant tensor:
#      x y z
#    x 1.948110 0.000000 0.000000 
#    y 0.000000 2.047030 0.000000 
#    z 0.000000 0.000000 2.156750 
# 
# From -- ./inp_files/5448.got.cif
#   From: 2010.05.17/outbox.cif.g08.bks.cpg/sg60_3_cif.got.tgz:5448.got - 2010.06.03 14:59:27.
