data_PCOD9458264
_publ_section_title
;
Structure prediction by ZEFSAII (Michael W. Deem and Ramdas Pophale) SiO2 
 PCOD9458264
Probable space group: P B C N
;
_chemical_formula_sum "Si O2"
_cell_formula_units_Z 60
_cell_length_a 9.184304
_cell_length_b 25.256379
_cell_length_c 11.761899
_cell_angle_alpha 90.000000
_cell_angle_beta 90.000000
_cell_angle_gamma 90.000000
_cell_volume 2728.316705
_symmetry_space_group_name_H-M "P B C N"
_symmetry_group_IT_number 60
_symmetry_cell_setting 'orthorhombic'
loop_
_space_group_symop_operation_xyz
x,y,z
1/2-x,1/2-y,1/2+z
1/2+x,1/2-y,-z
-x,y,1/2-z
-x,-y,-z
1/2+x,1/2+y,1/2-z
1/2-x,1/2+y,z
x,-y,1/2+z
loop_
_atom_site_type_symbol
_atom_site_label
_atom_site_fract_x
_atom_site_fract_y
_atom_site_fract_z
Si Si1 0.714520 0.988790 0.764026
Si Si2 0.000000 0.065989 0.250000
Si Si3 0.761954 0.609536 0.821869
Si Si4 0.615699 0.793051 0.650483
Si Si5 0.846633 0.173075 0.620462
Si Si6 0.970183 0.549223 0.078140
Si Si7 0.106744 0.141084 0.451256
Si Si8 0.512788 0.157805 0.554771
O O1 0.687031 0.050910 0.784306
O O2 0.679235 0.967232 0.638676
O O3 0.603384 0.953849 0.835427
O O4 0.874992 0.972701 0.794011
O O5 0.954608 0.103303 0.145997
O O6 0.655183 0.631725 0.725134
O O7 0.898785 0.649395 0.842130
O O8 0.684338 0.610240 0.944386
O O9 0.500000 0.812582 0.750000
O O10 0.647085 0.731763 0.673707
O O11 0.768452 0.823512 0.616353
O O12 0.532991 0.795864 0.529996
O O13 0.683018 0.163504 0.574994
O O14 0.970005 0.167070 0.522120
O O15 0.981837 0.604099 0.015463
O O16 0.000000 0.500000 0.000000
#
# Coordination Sequence:
#
# PCOD9458264 Si02
#       8
#     8   4   8   8   8   8   8   8
#     4  11  25  40  69 102 144 186 243 283 368 429
#     4  12  28  46  64 108 146 190 236 306 364 436
#     4  11  24  46  69 105 145 194 240 301 361 447
#     4  11  26  47  75 102 144 195 243 304 374 448
#     4  12  25  46  77 106 143 187 245 313 371 432
#     4  11  22  42  70 101 139 187 237 292 349 442
#     4  11  27  48  69 104 148 186 247 297 375 439
#     4  11  24  44  74 104 147 187 250 301 367 441
#
# _framework density 21.991582999999999
#
# number of rings (size 3 to 8) (size 9 to 14) (size 15 to 20)
#    0.000    0.800    1.333    5.600    9.333    1.600 
#    2.400    0.000    0.000    0.000    0.000    0.000 
#    0.000    0.000    0.000    0.000    0.000    0.000 
#
# Total GULP energy -334515.230383 kJ/mol
# GULP energy per Si atom -5575.253840 kJ/mol
# Density = 2.194153 g / cm^3
# Si number density = 21.991583 Si / 1000 Ang^3
#
#
#
# Elastic Constant Matrix: (Units=GPa)
#
#
# Indices 1 2 3 4 5 6 
#
# 1 158.0678 20.7867 43.1607 0.0000 0.0000 0.0000
# 2 20.7867 65.0713 14.4855 0.0000 0.0000 0.0000
# 3 43.1607 14.4855 77.5864 0.0000 0.0000 0.0000
# 4 0.0000 0.0000 0.0000 35.0890 0.0000 0.0000
# 5 0.0000 0.0000 0.0000 0.0000 50.4285 0.0000
# 6 0.0000 0.0000 0.0000 0.0000 0.0000 11.4637
#
#
#
# Elastic Compliance Matrix: (Units=1/GPa)
#
#
# Indices 1 2 3 4 5 6 
#
# 1 0.007607 -0.001553 -0.003942 0.000000 0.000000 0.000000
# 2 -0.001553 0.016351 -0.002189 0.000000 0.000000 0.000000
# 3 -0.003942 -0.002189 0.015490 0.000000 0.000000 0.000000
# 4 0.000000 0.000000 0.000000 0.028499 0.000000 0.000000
# 5 0.000000 0.000000 0.000000 0.000000 0.019830 0.000000
# 6 0.000000 0.000000 0.000000 0.000000 0.000000 0.087232
#
#
# Mechanical properties :
#
#
# Convention : Reuss Voigt Hill
#
# Bulk Modulus (GPa) = 41.52577 50.84347 46.18462
# Shear Modulus (GPa) = 25.20125 34.21575 29.70850
#
# Velocity S-wave (km/s) = 3.38886 3.94871 3.67945
# Velocity P-wave (km/s) = 5.85116 6.63020 6.25282
#
# Compressibility (1/GPa) = 0.02408143
#
# Stress axis : x y z
#
# Youngs Moduli (GPa) = 131.46007 61.15832 64.55630
#
# Poissons Ratio (x) = 0.09495 0.25447
# Poissons Ratio (y) = 0.20409 0.14132
# Poissons Ratio (z) = 0.51819 0.13388
#
# Static dielectric constant tensor:
#      x y z
#    x 1.874580 0.000000 0.000000 
#    y 0.000000 1.684670 0.000000 
#    z 0.000000 0.000000 2.007360 
# 
# From -- ./inp_files/10322.got.cif
#   From: 2010.05.17/outbox.cif.g08.bks.cpg/sg60_6_cif.got.tgz:10322.got - 2010.06.03 14:59:27.
