data_PCOD9458855
_publ_section_title
;
Structure prediction by ZEFSAII (Michael W. Deem and Ramdas Pophale) SiO2 
 PCOD9458855
Probable space group: P B C N
;
_chemical_formula_sum "Si O2"
_cell_formula_units_Z 40
_cell_length_a 14.796378
_cell_length_b 7.882904
_cell_length_c 15.768930
_cell_angle_alpha 90.000000
_cell_angle_beta 90.000000
_cell_angle_gamma 90.000000
_cell_volume 1839.263196
_symmetry_space_group_name_H-M "P B C N"
_symmetry_group_IT_number 60
_symmetry_cell_setting 'orthorhombic'
loop_
_space_group_symop_operation_xyz
x,y,z
1/2-x,1/2-y,1/2+z
1/2+x,1/2-y,-z
-x,y,1/2-z
-x,-y,-z
1/2+x,1/2+y,1/2-z
1/2-x,1/2+y,z
x,-y,1/2+z
loop_
_atom_site_type_symbol
_atom_site_label
_atom_site_fract_x
_atom_site_fract_y
_atom_site_fract_z
Si Si1 0.327240 0.956054 0.648156
Si Si2 0.382545 0.656378 0.965012
Si Si3 0.411996 0.109017 0.309769
Si Si4 0.703571 0.655488 0.964525
Si Si5 0.494319 0.867467 0.077856
O O1 0.329046 0.897252 0.744534
O O2 0.348801 0.807045 0.580832
O O3 0.235984 0.036637 0.613206
O O4 0.407195 0.090769 0.636081
O O5 0.408030 0.735684 0.874957
O O6 0.294025 0.767383 0.993492
O O7 0.350121 0.463170 0.971227
O O8 0.463469 0.695173 0.031696
O O9 0.500000 0.131080 0.250000
O O10 0.423269 0.932270 0.363077
O O11 0.500000 0.000000 0.000000
#
# Coordination Sequence:
#
# PCOD9458855 Si02
#       5
#     8   8   8   8   8
#     4   9  17  30  49  69  96 124 156 199 242 283
#     4   9  17  31  51  72  96 126 164 197 239 297
#     4   9  17  30  49  69  93 128 163 198 238 283
#     4   9  18  31  48  73  97 127 159 197 246 290
#     4   8  15  30  49  67  90 125 158 187 231 287
#
# _framework density 21.747838999999999
#
# number of rings (size 3 to 8) (size 9 to 14) (size 15 to 20)
#    0.000    3.200    0.000    0.000    0.000    1.600 
#    0.000    9.000    0.000   37.200    0.000    0.000 
#    0.000    0.000    0.000    0.000    0.000    0.000 
#
# Total GULP energy -222704.705608 kJ/mol
# GULP energy per Si atom -5567.617640 kJ/mol
# Density = 2.169834 g / cm^3
# Si number density = 21.747839 Si / 1000 Ang^3
#
#
#
# Elastic Constant Matrix: (Units=GPa)
#
#
# Indices 1 2 3 4 5 6 
#
# 1 52.3654 20.0804 23.2294 0.0000 0.0000 0.0000
# 2 20.0804 57.2603 11.3378 0.0000 0.0000 0.0000
# 3 23.2294 11.3378 107.1042 0.0000 0.0000 0.0000
# 4 0.0000 0.0000 0.0000 16.0738 0.0000 0.0000
# 5 0.0000 0.0000 0.0000 0.0000 35.2004 0.0000
# 6 0.0000 0.0000 0.0000 0.0000 0.0000 28.7933
#
#
#
# Elastic Compliance Matrix: (Units=1/GPa)
#
#
# Indices 1 2 3 4 5 6 
#
# 1 0.023930 -0.007522 -0.004394 0.000000 0.000000 0.000000
# 2 -0.007522 0.020202 -0.000507 0.000000 0.000000 0.000000
# 3 -0.004394 -0.000507 0.010343 0.000000 0.000000 0.000000
# 4 0.000000 0.000000 0.000000 0.062213 0.000000 0.000000
# 5 0.000000 0.000000 0.000000 0.000000 0.028409 0.000000
# 6 0.000000 0.000000 0.000000 0.000000 0.000000 0.034730
#
#
# Mechanical properties :
#
#
# Convention : Reuss Voigt Hill
#
# Bulk Modulus (GPa) = 33.74969 36.22500 34.98735
# Shear Modulus (GPa) = 23.30453 26.81898 25.06176
#
# Velocity S-wave (km/s) = 3.27705 3.51547 3.39835
# Velocity P-wave (km/s) = 5.46544 5.75943 5.61436
#
# Compressibility (1/GPa) = 0.02962990
#
# Stress axis : x y z
#
# Youngs Moduli (GPa) = 41.78831 49.49915 96.68040
#
# Poissons Ratio (x) = 0.37233 0.42480
# Poissons Ratio (y) = 0.31433 0.04903
# Poissons Ratio (z) = 0.18361 0.02510
#
# Static dielectric constant tensor:
#      x y z
#    x 1.896010 0.000000 0.000000 
#    y 0.000000 1.859340 0.000000 
#    z 0.000000 0.000000 1.827390 
# 
# From -- ./inp_files/12757.got.cif
#   From: 2010.05.17/outbox.cif.g08.bks.cpg/sg60_7_cif.got.tgz:12757.got - 2010.06.03 14:59:27.
