data_PCOD9458620
_publ_section_title
;
Structure prediction by ZEFSAII (Michael W. Deem and Ramdas Pophale) SiO2 
 PCOD9458620
Probable space group: P B C N
;
_chemical_formula_sum "Si O2"
_cell_formula_units_Z 40
_cell_length_a 12.091519
_cell_length_b 13.980006
_cell_length_c 10.223377
_cell_angle_alpha 90.000000
_cell_angle_beta 90.000000
_cell_angle_gamma 90.000000
_cell_volume 1728.154620
_symmetry_space_group_name_H-M "P B C N"
_symmetry_group_IT_number 60
_symmetry_cell_setting 'orthorhombic'
loop_
_space_group_symop_operation_xyz
x,y,z
1/2-x,1/2-y,1/2+z
1/2+x,1/2-y,-z
-x,y,1/2-z
-x,-y,-z
1/2+x,1/2+y,1/2-z
1/2-x,1/2+y,z
x,-y,1/2+z
loop_
_atom_site_type_symbol
_atom_site_label
_atom_site_fract_x
_atom_site_fract_y
_atom_site_fract_z
Si Si1 0.107002 0.645960 0.822678
Si Si2 0.382700 0.544526 0.468065
Si Si3 0.535299 0.746297 0.957490
Si Si4 0.327557 0.766926 0.795813
Si Si5 0.243242 0.518441 0.221216
O O1 0.218355 0.705205 0.805463
O O2 0.137628 0.545236 0.759834
O O3 0.000000 0.687646 0.750000
O O4 0.074424 0.655704 0.974030
O O5 0.500000 0.500000 0.500000
O O6 0.415399 0.657182 0.460105
O O7 0.337035 0.503662 0.332195
O O8 0.295084 0.513880 0.582040
O O9 0.404961 0.755953 0.924777
O O10 0.597790 0.730472 0.822318
O O11 0.292880 0.873005 0.751076
#
# Coordination Sequence:
#
# PCOD9458620 Si02
#       5
#     8   8   8   8   8
#     4  12  28  45  77 108 149 192 252 302 380 453
#     4  12  26  45  79 107 147 195 257 305 370 438
#     4  11  26  48  77 104 152 193 245 314 370 440
#     4  11  26  48  73 108 148 193 243 310 376 437
#     4  12  27  48  75 110 149 195 249 310 373 454
#
# _framework density 23.146076999999998
#
# number of rings (size 3 to 8) (size 9 to 14) (size 15 to 20)
#    0.000    0.400    4.000    3.000   14.000    0.800 
#    0.000    0.000    0.000    0.000    0.000    0.000 
#    0.000    0.000    0.000    0.000    0.000    0.000 
#
# Total GULP energy -223443.043188 kJ/mol
# GULP energy per Si atom -5586.076080 kJ/mol
# Density = 2.309340 g / cm^3
# Si number density = 23.146077 Si / 1000 Ang^3
#
#
#
# Elastic Constant Matrix: (Units=GPa)
#
#
# Indices 1 2 3 4 5 6 
#
# 1 127.1566 4.8171 1.0019 0.0000 0.0000 0.0000
# 2 4.8171 67.3707 -27.0997 0.0000 0.0000 0.0000
# 3 1.0019 -27.0997 42.3868 0.0000 0.0000 0.0000
# 4 0.0000 0.0000 0.0000 22.2812 0.0000 0.0000
# 5 0.0000 0.0000 0.0000 0.0000 38.9096 0.0000
# 6 0.0000 0.0000 0.0000 0.0000 0.0000 18.9084
#
#
#
# Elastic Compliance Matrix: (Units=1/GPa)
#
#
# Indices 1 2 3 4 5 6 
#
# 1 0.007903 -0.000862 -0.000738 0.000000 0.000000 0.000000
# 2 -0.000862 0.020076 0.012856 0.000000 0.000000 0.000000
# 3 -0.000738 0.012856 0.031829 0.000000 0.000000 0.000000
# 4 0.000000 0.000000 0.000000 0.044881 0.000000 0.000000
# 5 0.000000 0.000000 0.000000 0.000000 0.025701 0.000000
# 6 0.000000 0.000000 0.000000 0.000000 0.000000 0.052887
#
#
# Mechanical properties :
#
#
# Convention : Reuss Voigt Hill
#
# Bulk Modulus (GPa) = 12.14764 21.59473 16.87118
# Shear Modulus (GPa) = 26.56697 33.23283 29.89990
#
# Velocity S-wave (km/s) = 3.39159 3.79329 3.59805
# Velocity P-wave (km/s) = 4.53837 5.34185 4.95642
#
# Compressibility (1/GPa) = 0.08232052
#
# Stress axis : x y z
#
# Youngs Moduli (GPa) = 126.53769 49.81035 31.41785
#
# Poissons Ratio (x) = 0.04293 0.02318
# Poissons Ratio (y) = 0.10906 -0.40391
# Poissons Ratio (z) = 0.09336 -0.64036
#
# Static dielectric constant tensor:
#      x y z
#    x 1.850660 0.000000 0.000000 
#    y 0.000000 6.104480 0.000000 
#    z 0.000000 0.000000 1.959080 
# 
# From -- ./inp_files/10843.got.cif
#   From: 2010.05.17/outbox.cif.g08.bks.cpg/sg60_6_cif.got.tgz:10843.got - 2010.06.03 14:59:27.
