data_PCOD9458535
_publ_section_title
;
Structure prediction by ZEFSAII (Michael W. Deem and Ramdas Pophale) SiO2 
 PCOD9458535
Probable space group: P B C N
;
_chemical_formula_sum "Si O2"
_cell_formula_units_Z 32
_cell_length_a 7.442612
_cell_length_b 14.952464
_cell_length_c 11.803163
_cell_angle_alpha 90.000000
_cell_angle_beta 90.000000
_cell_angle_gamma 90.000000
_cell_volume 1313.519574
_symmetry_space_group_name_H-M "P B C N"
_symmetry_group_IT_number 60
_symmetry_cell_setting 'orthorhombic'
loop_
_space_group_symop_operation_xyz
x,y,z
1/2-x,1/2-y,1/2+z
1/2+x,1/2-y,-z
-x,y,1/2-z
-x,-y,-z
1/2+x,1/2+y,1/2-z
1/2-x,1/2+y,z
x,-y,1/2+z
loop_
_atom_site_type_symbol
_atom_site_label
_atom_site_fract_x
_atom_site_fract_y
_atom_site_fract_z
Si Si1 0.310005 0.649215 0.023064
Si Si2 0.811573 0.605591 0.716960
Si Si3 0.700508 0.346685 0.454271
Si Si4 0.517859 0.080954 0.130511
O O1 0.278804 0.653020 0.888083
O O2 0.233000 0.742060 0.070049
O O3 0.522818 0.637487 0.029492
O O4 0.183347 0.574291 0.079698
O O5 0.876897 0.509291 0.667671
O O6 0.000000 0.652118 0.750000
O O7 0.699037 0.605123 0.832285
O O8 0.868813 0.375528 0.530655
O O9 0.500000 0.132109 0.250000
#
# Coordination Sequence:
#
# PCOD9458535 Si02
#       4
#     8   8   8   8
#     4  12  25  47  77 107 149 196 253 310 381 439
#     4  11  24  48  75 105 155 194 242 316 377 446
#     4  12  26  47  76 112 146 198 256 312 374 451
#     4  11  27  48  72 106 156 195 246 309 377 446
#
# _framework density 24.362027000000001
#
# number of rings (size 3 to 8) (size 9 to 14) (size 15 to 20)
#    0.000    0.500    5.000    1.500    7.000    2.000 
#    9.000    0.000    0.000    0.000    0.000    0.000 
#    0.000    0.000    0.000    0.000    0.000    0.000 
#
# Total GULP energy -178897.509117 kJ/mol
# GULP energy per Si atom -5590.547160 kJ/mol
# Density = 2.430658 g / cm^3
# Si number density = 24.362027 Si / 1000 Ang^3
#
#
#
# Elastic Constant Matrix: (Units=GPa)
#
#
# Indices 1 2 3 4 5 6 
#
# 1 131.7459 12.4862 18.5902 0.0000 0.0000 0.0000
# 2 12.4862 92.6294 34.8749 0.0000 0.0000 0.0000
# 3 18.5902 34.8749 146.4182 0.0000 0.0000 0.0000
# 4 0.0000 0.0000 0.0000 30.6443 0.0000 0.0000
# 5 0.0000 0.0000 0.0000 0.0000 32.0507 0.0000
# 6 0.0000 0.0000 0.0000 0.0000 0.0000 16.9212
#
#
#
# Elastic Compliance Matrix: (Units=1/GPa)
#
#
# Indices 1 2 3 4 5 6 
#
# 1 0.007775 -0.000743 -0.000810 0.000000 0.000000 0.000000
# 2 -0.000743 0.011930 -0.002747 0.000000 0.000000 0.000000
# 3 -0.000810 -0.002747 0.007587 0.000000 0.000000 0.000000
# 4 0.000000 0.000000 0.000000 0.032632 0.000000 0.000000
# 5 0.000000 0.000000 0.000000 0.000000 0.031201 0.000000
# 6 0.000000 0.000000 0.000000 0.000000 0.000000 0.059097
#
#
# Mechanical properties :
#
#
# Convention : Reuss Voigt Hill
#
# Bulk Modulus (GPa) = 53.50079 55.85509 54.67794
# Shear Modulus (GPa) = 30.29307 36.24606 33.26956
#
# Velocity S-wave (km/s) = 3.53009 3.86140 3.69945
# Velocity P-wave (km/s) = 6.21480 6.54656 6.38284
#
# Compressibility (1/GPa) = 0.01869131
#
# Stress axis : x y z
#
# Youngs Moduli (GPa) = 128.61551 83.82078 131.80468
#
# Poissons Ratio (x) = 0.06228 0.10679
# Poissons Ratio (y) = 0.09556 0.36210
# Poissons Ratio (z) = 0.10420 0.23028
#
# Static dielectric constant tensor:
#      x y z
#    x 1.969900 0.000000 0.000000 
#    y 0.000000 2.032960 0.000000 
#    z 0.000000 0.000000 1.951110 
# 
# From -- ./inp_files/9532.got.cif
#   From: 2010.05.17/outbox.cif.g08.bks.cpg/sg60_5_cif.got.tgz:9532.got - 2010.06.03 14:59:27.
