data_PCOD9458753
_publ_section_title
;
Structure prediction by ZEFSAII (Michael W. Deem and Ramdas Pophale) SiO2 
 PCOD9458753
Probable space group: P B C N
;
_chemical_formula_sum "Si O2"
_cell_formula_units_Z 48
_cell_length_a 17.365248
_cell_length_b 8.639630
_cell_length_c 13.371056
_cell_angle_alpha 90.000000
_cell_angle_beta 90.000000
_cell_angle_gamma 90.000000
_cell_volume 2006.050407
_symmetry_space_group_name_H-M "P B C N"
_symmetry_group_IT_number 60
_symmetry_cell_setting 'orthorhombic'
loop_
_space_group_symop_operation_xyz
x,y,z
1/2-x,1/2-y,1/2+z
1/2+x,1/2-y,-z
-x,y,1/2-z
-x,-y,-z
1/2+x,1/2+y,1/2-z
1/2-x,1/2+y,z
x,-y,1/2+z
loop_
_atom_site_type_symbol
_atom_site_label
_atom_site_fract_x
_atom_site_fract_y
_atom_site_fract_z
Si Si1 0.147696 0.905745 0.464623
Si Si2 0.673950 0.447250 0.822532
Si Si3 0.434877 0.867675 0.503223
Si Si4 0.333382 0.191337 0.189398
Si Si5 0.694561 0.931358 0.591873
Si Si6 0.438041 0.611399 0.336993
O O1 0.123670 0.944104 0.577215
O O2 0.175377 0.731013 0.459682
O O3 0.218281 0.016905 0.430523
O O4 0.079427 0.946932 0.388802
O O5 0.755205 0.378045 0.857487
O O6 0.680183 0.626520 0.791788
O O7 0.637715 0.350279 0.731716
O O8 0.406322 0.827863 0.615920
O O9 0.454884 0.727853 0.427777
O O10 0.500000 0.000000 0.500000
O O11 0.359027 0.938772 0.453456
O O12 0.331548 0.099254 0.293929
O O13 0.500000 0.602915 0.250000
#
# Coordination Sequence:
#
# PCOD9458753 Si02
#       6
#     8   8   8   8   8   8
#     4  12  24  48  75 115 144 195 254 313 381 451
#     4  12  26  45  79 110 147 191 254 317 376 455
#     4  12  31  50  72 111 154 204 255 315 388 464
#     4  12  25  46  77 112 147 196 252 315 384 449
#     4  12  25  45  78 108 149 190 253 312 370 459
#     4  12  29  49  73 107 152 197 253 315 388 463
#
# _framework density 23.927614999999999
#
# number of rings (size 3 to 8) (size 9 to 14) (size 15 to 20)
#    0.000    0.000    6.667    2.000    7.000    2.000 
#    0.000    0.000    0.000    0.000    0.000    0.000 
#    0.000    0.000    0.000    0.000    0.000    0.000 
#
# Total GULP energy -268505.757588 kJ/mol
# GULP energy per Si atom -5593.869950 kJ/mol
# Density = 2.387315 g / cm^3
# Si number density = 23.927615 Si / 1000 Ang^3
#
#
#
# Elastic Constant Matrix: (Units=GPa)
#
#
# Indices 1 2 3 4 5 6 
#
# 1 55.6115 -4.7053 1.3922 0.0000 0.0000 0.0000
# 2 -4.7053 60.1203 -19.2788 0.0000 0.0000 0.0000
# 3 1.3922 -19.2788 112.5628 0.0000 0.0000 0.0000
# 4 0.0000 0.0000 0.0000 38.7102 0.0000 0.0000
# 5 0.0000 0.0000 0.0000 0.0000 22.3515 0.0000
# 6 0.0000 0.0000 0.0000 0.0000 0.0000 33.5938
#
#
#
# Elastic Compliance Matrix: (Units=1/GPa)
#
#
# Indices 1 2 3 4 5 6 
#
# 1 0.018102 0.001423 0.000020 0.000000 0.000000 0.000000
# 2 0.001423 0.017712 0.003016 0.000000 0.000000 0.000000
# 3 0.000020 0.003016 0.009400 0.000000 0.000000 0.000000
# 4 0.000000 0.000000 0.000000 0.025833 0.000000 0.000000
# 5 0.000000 0.000000 0.000000 0.000000 0.044740 0.000000
# 6 0.000000 0.000000 0.000000 0.000000 0.000000 0.029767
#
#
# Mechanical properties :
#
#
# Convention : Reuss Voigt Hill
#
# Bulk Modulus (GPa) = 18.47349 20.34564 19.40956
# Shear Modulus (GPa) = 32.32476 35.65685 33.99080
#
# Velocity S-wave (km/s) = 3.67950 3.86449 3.77313
# Velocity P-wave (km/s) = 5.07828 5.33234 5.20686
#
# Compressibility (1/GPa) = 0.05413163
#
# Stress axis : x y z
#
# Youngs Moduli (GPa) = 55.24308 56.45948 106.38043
#
# Poissons Ratio (x) = -0.08035 -0.00211
# Poissons Ratio (y) = -0.07862 -0.32084
# Poissons Ratio (z) = -0.00110 -0.17028
#
# Static dielectric constant tensor:
#      x y z
#    x 1.995230 0.000000 0.000000 
#    y 0.000000 1.867340 0.000000 
#    z 0.000000 0.000000 2.011560 
# 
# From -- ./inp_files/17317.got.cif
#   From: 2010.05.17/outbox.cif.g08.bks.cpg/sg60_9_cif.got.tgz:17317.got - 2010.06.03 14:59:27.
