data_PCOD9458274
_publ_section_title
;
Structure prediction by ZEFSAII (Michael W. Deem and Ramdas Pophale) SiO2 
 PCOD9458274
Probable space group: P B C N
;
_chemical_formula_sum "Si O2"
_cell_formula_units_Z 32
_cell_length_a 8.839072
_cell_length_b 10.293098
_cell_length_c 14.848102
_cell_angle_alpha 90.000000
_cell_angle_beta 90.000000
_cell_angle_gamma 90.000000
_cell_volume 1350.901617
_symmetry_space_group_name_H-M "P B C N"
_symmetry_group_IT_number 60
_symmetry_cell_setting 'orthorhombic'
loop_
_space_group_symop_operation_xyz
x,y,z
1/2-x,1/2-y,1/2+z
1/2+x,1/2-y,-z
-x,y,1/2-z
-x,-y,-z
1/2+x,1/2+y,1/2-z
1/2-x,1/2+y,z
x,-y,1/2+z
loop_
_atom_site_type_symbol
_atom_site_label
_atom_site_fract_x
_atom_site_fract_y
_atom_site_fract_z
Si Si1 0.324312 0.035458 0.731508
Si Si2 0.311314 0.608230 0.926077
Si Si3 0.606235 0.661955 0.002313
Si Si4 0.118620 0.803122 0.668147
O O1 0.500000 0.005621 0.750000
O O2 0.239957 0.911477 0.692236
O O3 0.252173 0.081711 0.826328
O O4 0.314430 0.158234 0.664132
O O5 0.210930 0.714729 0.978523
O O6 0.306098 0.471685 0.979254
O O7 0.487090 0.654322 0.920317
O O8 0.482485 0.665103 0.083028
O O9 0.000000 0.798908 0.750000
#
# Coordination Sequence:
#
# PCOD9458274 Si02
#       4
#     8   8   8   8
#     4  11  22  44  70  97 134 180 229 278 333 405
#     4  11  23  46  68  99 137 178 220 282 340 402
#     4  11  25  46  68  99 141 176 225 283 338 409
#     4  11  22  43  67  99 134 177 231 277 333 399
#
# _framework density 23.687884
#
# number of rings (size 3 to 8) (size 9 to 14) (size 15 to 20)
#    0.000    1.000    7.500    0.000    0.000    6.000 
#   13.500    0.000    0.000    0.000    0.000    0.000 
#    0.000    0.000    0.000    0.000    0.000    0.000 
#
# Total GULP energy -179252.925329 kJ/mol
# GULP energy per Si atom -5601.653917 kJ/mol
# Density = 2.363397 g / cm^3
# Si number density = 23.687884 Si / 1000 Ang^3
#
#
#
# Elastic Constant Matrix: (Units=GPa)
#
#
# Indices 1 2 3 4 5 6 
#
# 1 121.0185 101.8147 6.6888 0.0000 0.0000 0.0000
# 2 101.8147 209.3481 4.1298 0.0000 0.0000 0.0000
# 3 6.6888 4.1298 34.7928 0.0000 0.0000 0.0000
# 4 0.0000 0.0000 0.0000 25.7758 0.0000 0.0000
# 5 0.0000 0.0000 0.0000 0.0000 42.0455 0.0000
# 6 0.0000 0.0000 0.0000 0.0000 0.0000 58.5944
#
#
#
# Elastic Compliance Matrix: (Units=1/GPa)
#
#
# Indices 1 2 3 4 5 6 
#
# 1 0.014110 -0.006825 -0.001903 0.000000 0.000000 0.000000
# 2 -0.006825 0.008089 0.000352 0.000000 0.000000 0.000000
# 3 -0.001903 0.000352 0.029066 0.000000 0.000000 0.000000
# 4 0.000000 0.000000 0.000000 0.038796 0.000000 0.000000
# 5 0.000000 0.000000 0.000000 0.000000 0.023784 0.000000
# 6 0.000000 0.000000 0.000000 0.000000 0.000000 0.017066
#
#
# Mechanical properties :
#
#
# Convention : Reuss Voigt Hill
#
# Bulk Modulus (GPa) = 28.97388 65.60287 47.28838
# Shear Modulus (GPa) = 31.41363 42.11824 36.76593
#
# Velocity S-wave (km/s) = 3.64558 4.22127 3.94394
# Velocity P-wave (km/s) = 5.47526 7.17730 6.38326
#
# Compressibility (1/GPa) = 0.03451384
#
# Stress axis : x y z
#
# Youngs Moduli (GPa) = 70.87071 123.62472 34.40494
#
# Poissons Ratio (x) = 0.84372 0.06546
# Poissons Ratio (y) = 0.48368 -0.01211
# Poissons Ratio (z) = 0.13483 -0.04350
#
# Static dielectric constant tensor:
#      x y z
#    x 1.935590 0.000000 0.000000 
#    y 0.000000 1.890540 0.000000 
#    z 0.000000 0.000000 1.976520 
# 
# From -- ./inp_files/14416.got.cif
#   From: 2010.05.17/outbox.cif.g08.bks.cpg/sg60_8_cif.got.tgz:14416.got - 2010.06.03 14:59:27.
