data_PCOD9458178
_publ_section_title
;
Structure prediction by ZEFSAII (Michael W. Deem and Ramdas Pophale) SiO2 
 PCOD9458178
Probable space group: P B C N
;
_chemical_formula_sum "Si O2"
_cell_formula_units_Z 32
_cell_length_a 10.499773
_cell_length_b 13.692077
_cell_length_c 8.395050
_cell_angle_alpha 90.000000
_cell_angle_beta 90.000000
_cell_angle_gamma 90.000000
_cell_volume 1206.903453
_symmetry_space_group_name_H-M "P B C N"
_symmetry_group_IT_number 60
_symmetry_cell_setting 'orthorhombic'
loop_
_space_group_symop_operation_xyz
x,y,z
1/2-x,1/2-y,1/2+z
1/2+x,1/2-y,-z
-x,y,1/2-z
-x,-y,-z
1/2+x,1/2+y,1/2-z
1/2-x,1/2+y,z
x,-y,1/2+z
loop_
_atom_site_type_symbol
_atom_site_label
_atom_site_fract_x
_atom_site_fract_y
_atom_site_fract_z
Si Si1 0.594439 0.778145 0.500765
Si Si2 0.836661 0.322891 0.869700
Si Si3 0.213369 0.549097 0.632177
Si Si4 0.902908 0.961268 0.630218
O O1 0.442657 0.767471 0.524633
O O2 0.636248 0.793881 0.686770
O O3 0.695005 0.701636 0.429200
O O4 0.608642 0.868393 0.376714
O O5 0.846166 0.441021 0.881448
O O6 0.292145 0.581649 0.475944
O O7 0.321071 0.540821 0.768589
O O8 0.000000 0.908349 0.750000
O O9 0.000000 0.000000 0.500000
#
# Coordination Sequence:
#
# PCOD9458178 Si02
#       4
#     8   8   8   8
#     4  11  27  49  72 106 146 192 244 308 364 443
#     4  11  27  49  71 106 145 191 247 301 369 438
#     4  11  21  46  72 103 141 193 244 296 363 438
#     4   9  20  36  64 106 143 180 230 291 357 426
#
# _framework density 26.514133000000001
#
# number of rings (size 3 to 8) (size 9 to 14) (size 15 to 20)
#    0.000    1.500    2.500    0.750    3.500    7.000 
#    4.500    0.000    0.000    0.000    0.000    0.000 
#    0.000    0.000    0.000    0.000    0.000    0.000 
#
# Total GULP energy -178584.984728 kJ/mol
# GULP energy per Si atom -5580.780773 kJ/mol
# Density = 2.645379 g / cm^3
# Si number density = 26.514133 Si / 1000 Ang^3
#
#
#
# Elastic Constant Matrix: (Units=GPa)
#
#
# Indices 1 2 3 4 5 6 
#
# 1 142.0772 13.5109 76.9569 0.0000 0.0000 0.0000
# 2 13.5109 72.4574 10.7396 0.0000 0.0000 0.0000
# 3 76.9569 10.7396 106.2336 0.0000 0.0000 0.0000
# 4 0.0000 0.0000 0.0000 0.1040 0.0000 0.0000
# 5 0.0000 0.0000 0.0000 0.0000 75.8214 0.0000
# 6 0.0000 0.0000 0.0000 0.0000 0.0000 22.0377
#
#
#
# Elastic Compliance Matrix: (Units=1/GPa)
#
#
# Indices 1 2 3 4 5 6 
#
# 1 0.011646 -0.000935 -0.008342 0.000000 0.000000 0.000000
# 2 -0.000935 0.014086 -0.000747 0.000000 0.000000 0.000000
# 3 -0.008342 -0.000747 0.015532 0.000000 0.000000 0.000000
# 4 0.000000 0.000000 0.000000 9.617139 0.000000 0.000000
# 5 0.000000 0.000000 0.000000 0.000000 0.013189 0.000000
# 6 0.000000 0.000000 0.000000 0.000000 0.000000 0.045377
#
#
# Mechanical properties :
#
#
# Convention : Reuss Voigt Hill
#
# Bulk Modulus (GPa) = 47.13310 58.13145 52.63228
# Shear Modulus (GPa) = 0.51313 34.23000 17.37156
#
# Velocity S-wave (km/s) = 0.44040 3.59696 2.56243
# Velocity P-wave (km/s) = 4.25133 6.26284 5.35243
#
# Compressibility (1/GPa) = 0.02121651
#
# Stress axis : x y z
#
# Youngs Moduli (GPa) = 85.86848 70.99126 64.38496
#
# Poissons Ratio (x) = 0.06639 0.53708
# Poissons Ratio (y) = 0.08030 0.04807
# Poissons Ratio (z) = 0.71629 0.05300
#
# Static dielectric constant tensor:
#      x y z
#    x 2.139960 0.000000 0.000000 
#    y 0.000000 2.132550 0.000000 
#    z 0.000000 0.000000 2.100610 
# 
# From -- ./inp_files/4545.got.cif
#   From: 2010.05.17/outbox.cif.g08.bks.cpg/sg60_3_cif.got.tgz:4545.got - 2010.06.03 14:59:27.
