data_PCOD9458225
_publ_section_title
;
Structure prediction by ZEFSAII (Michael W. Deem and Ramdas Pophale) SiO2 
 PCOD9458225
Probable space group: P B C N
;
_chemical_formula_sum "Si O2"
_cell_formula_units_Z 48
_cell_length_a 13.250737
_cell_length_b 8.836637
_cell_length_c 19.386737
_cell_angle_alpha 90.000000
_cell_angle_beta 90.000000
_cell_angle_gamma 90.000000
_cell_volume 2270.030895
_symmetry_space_group_name_H-M "P B C N"
_symmetry_group_IT_number 60
_symmetry_cell_setting 'orthorhombic'
loop_
_space_group_symop_operation_xyz
x,y,z
1/2-x,1/2-y,1/2+z
1/2+x,1/2-y,-z
-x,y,1/2-z
-x,-y,-z
1/2+x,1/2+y,1/2-z
1/2-x,1/2+y,z
x,-y,1/2+z
loop_
_atom_site_type_symbol
_atom_site_label
_atom_site_fract_x
_atom_site_fract_y
_atom_site_fract_z
Si Si1 0.970762 0.263361 0.452710
Si Si2 0.054009 0.918156 0.821658
Si Si3 0.473538 0.218978 0.328425
Si Si4 0.198502 0.913836 0.477341
Si Si5 0.256535 0.162363 0.380845
Si Si6 0.381229 0.912258 0.561041
O O1 0.910681 0.150865 0.504241
O O2 0.902121 0.408479 0.434547
O O3 0.005289 0.171667 0.385821
O O4 0.061256 0.342166 0.494671
O O5 0.172210 0.873063 0.824330
O O6 0.000000 0.878675 0.750000
O O7 0.042803 0.099289 0.831684
O O8 0.500000 0.179607 0.250000
O O9 0.371516 0.136239 0.355952
O O10 0.567306 0.169572 0.375096
O O11 0.239226 0.833048 0.408084
O O12 0.264565 0.887292 0.545276
O O13 0.217946 0.082343 0.451470
#
# Coordination Sequence:
#
# PCOD9458225 Si02
#       6
#     8   8   8   8   8   8
#     4  11  23  40  66  98 127 168 221 275 326 390
#     4  11  26  44  66  96 135 177 224 271 333 405
#     4  11  26  45  66  96 137 179 220 276 331 398
#     4  12  23  39  67 101 131 169 220 276 330 395
#     4  12  22  43  66  95 131 176 215 270 340 390
#     4  11  22  40  64  98 129 164 224 274 324 390
#
# _framework density 21.145085999999999
#
# number of rings (size 3 to 8) (size 9 to 14) (size 15 to 20)
#    0.000    0.667    6.667    1.000    2.333    3.333 
#    0.000    3.333    0.000    0.000    0.000    0.000 
#    0.000    0.000    0.000    0.000    0.000    0.000 
#
# Total GULP energy -268009.297232 kJ/mol
# GULP energy per Si atom -5583.527026 kJ/mol
# Density = 2.109696 g / cm^3
# Si number density = 21.145086 Si / 1000 Ang^3
#
#
#
# Elastic Constant Matrix: (Units=GPa)
#
#
# Indices 1 2 3 4 5 6 
#
# 1 82.0564 18.9481 33.0780 0.0000 0.0000 0.0000
# 2 18.9481 58.7228 27.9540 0.0000 0.0000 0.0000
# 3 33.0780 27.9540 119.8176 0.0000 0.0000 0.0000
# 4 0.0000 0.0000 0.0000 26.7051 0.0000 0.0000
# 5 0.0000 0.0000 0.0000 0.0000 34.5843 0.0000
# 6 0.0000 0.0000 0.0000 0.0000 0.0000 27.7138
#
#
#
# Elastic Compliance Matrix: (Units=1/GPa)
#
#
# Indices 1 2 3 4 5 6 
#
# 1 0.014183 -0.003051 -0.003204 0.000000 0.000000 0.000000
# 2 -0.003051 0.019813 -0.003780 0.000000 0.000000 0.000000
# 3 -0.003204 -0.003780 0.010112 0.000000 0.000000 0.000000
# 4 0.000000 0.000000 0.000000 0.037446 0.000000 0.000000
# 5 0.000000 0.000000 0.000000 0.000000 0.028915 0.000000
# 6 0.000000 0.000000 0.000000 0.000000 0.000000 0.036083
#
#
# Mechanical properties :
#
#
# Convention : Reuss Voigt Hill
#
# Bulk Modulus (GPa) = 41.60034 46.72853 44.16444
# Shear Modulus (GPa) = 28.63115 29.84177 29.23646
#
# Velocity S-wave (km/s) = 3.68371 3.76078 3.72245
# Velocity P-wave (km/s) = 6.14894 6.40351 6.27752
#
# Compressibility (1/GPa) = 0.02403827
#
# Stress axis : x y z
#
# Youngs Moduli (GPa) = 70.50824 50.47134 98.88916
#
# Poissons Ratio (x) = 0.15401 0.31679
# Poissons Ratio (y) = 0.21515 0.37381
# Poissons Ratio (z) = 0.22587 0.19079
#
# Static dielectric constant tensor:
#      x y z
#    x 1.799160 0.000000 0.000000 
#    y 0.000000 1.759890 0.000000 
#    z 0.000000 0.000000 1.728430 
# 
# From -- ./inp_files/20477.got.cif
#   From: 2010.05.17/outbox.cif.g08.bks.cpg/sg60_11_cif.got.tgz:20477.got - 2010.06.03 14:59:27.
