data_PCOD9458962
_publ_section_title
;
Structure prediction by ZEFSAII (Michael W. Deem and Ramdas Pophale) SiO2 
 PCOD9458962
Probable space group: P B C N
;
_chemical_formula_sum "Si O2"
_cell_formula_units_Z 40
_cell_length_a 12.000000
_cell_length_b 9.000000
_cell_length_c 18.000000
_cell_angle_alpha 90.000000
_cell_angle_beta 90.000000
_cell_angle_gamma 90.000000
_cell_volume 1944.000000
_symmetry_space_group_name_H-M "P B C N"
_symmetry_group_IT_number 60
_symmetry_cell_setting 'orthorhombic'
loop_
_space_group_symop_operation_xyz
x,y,z
1/2-x,1/2-y,1/2+z
1/2+x,1/2-y,-z
-x,y,1/2-z
-x,-y,-z
1/2+x,1/2+y,1/2-z
1/2-x,1/2+y,z
x,-y,1/2+z
loop_
_atom_site_type_symbol
_atom_site_label
_atom_site_fract_x
_atom_site_fract_y
_atom_site_fract_z
Si Si1 0.510225 0.318571 0.338014
Si Si2 0.277766 0.290111 0.422921
Si Si3 0.695821 0.069936 0.314186
Si Si4 0.869547 0.723278 0.726845
Si Si5 0.316299 0.449432 0.040797
O O1 0.500000 0.378861 0.250000
O O2 0.389119 0.268802 0.370652
O O3 0.593068 0.180411 0.326567
O O4 0.574641 0.410517 0.405890
O O5 0.176714 0.286279 0.359734
O O6 0.234462 0.184579 0.490670
O O7 0.318511 0.429082 0.474273
O O8 0.794935 0.157004 0.271846
O O9 0.660408 0.935162 0.262071
O O10 0.733590 0.006517 0.394166
O O11 0.000000 0.750022 0.750000
#
# Coordination Sequence:
#
# PCOD9458962 Si02
#       5
#     8   8   8   8   8
#     4  12  25  49  78 104 153 203 250 314 376 470
#     4  12  27  47  75 116 154 198 254 319 388 443
#     4  12  24  51  74 108 152 202 258 314 381 466
#     4  12  28  48  78 112 152 208 262 311 382 473
#     4  12  26  48  72 114 151 196 253 318 386 450
#
# _framework density 20.576132000000001
#
# number of rings (size 3 to 8) (size 9 to 14) (size 15 to 20)
#    0.000    0.000    6.000    2.400    2.800    8.000 
#    0.000    0.000    0.000    0.000    0.000    0.000 
#    0.000    0.000    0.000    0.000    0.000    0.000 
#
# Total GULP energy -222798.052461 kJ/mol
# GULP energy per Si atom -5569.951312 kJ/mol
# Density = 2.052930 g / cm^3
# Si number density = 20.576132 Si / 1000 Ang^3
#
#
#
# Elastic Constant Matrix: (Units=GPa)
#
#
# Indices 1 2 3 4 5 6 
#
# 1 160.9390 53.9538 65.2074 0.0000 0.0000 0.0000
# 2 53.9538 98.4299 55.8852 0.0000 0.0000 0.0000
# 3 65.2074 55.8852 201.2399 0.0000 0.0000 0.0000
# 4 0.0000 0.0000 0.0000 53.4966 0.0000 0.0000
# 5 0.0000 0.0000 0.0000 0.0000 53.5748 0.0000
# 6 0.0000 0.0000 0.0000 0.0000 0.0000 25.6797
#
#
#
# Elastic Compliance Matrix: (Units=1/GPa)
#
#
# Indices 1 2 3 4 5 6 
#
# 1 0.008044 -0.003478 -0.001641 0.000000 0.000000 0.000000
# 2 -0.003478 0.013565 -0.002640 0.000000 0.000000 0.000000
# 3 -0.001641 -0.002640 0.006234 0.000000 0.000000 0.000000
# 4 0.000000 0.000000 0.000000 0.018693 0.000000 0.000000
# 5 0.000000 0.000000 0.000000 0.000000 0.018665 0.000000
# 6 0.000000 0.000000 0.000000 0.000000 0.000000 0.038941
#
#
# Mechanical properties :
#
#
# Convention : Reuss Voigt Hill
#
# Bulk Modulus (GPa) = 81.13121 90.07794 85.60457
# Shear Modulus (GPa) = 40.39799 45.58773 42.99286
#
# Velocity S-wave (km/s) = 4.43577 4.71208 4.57601
# Velocity P-wave (km/s) = 8.10864 8.57192 8.34350
#
# Compressibility (1/GPa) = 0.01232571
#
# Stress axis : x y z
#
# Youngs Moduli (GPa) = 124.31252 73.72002 160.41049
#
# Poissons Ratio (x) = 0.25639 0.26319
# Poissons Ratio (y) = 0.43234 0.42350
# Poissons Ratio (z) = 0.20397 0.19463
#
# Static dielectric constant tensor:
#      x y z
#    x 1.763350 0.000000 0.000000 
#    y 0.000000 1.827970 0.000000 
#    z 0.000000 0.000000 1.716540 
# 
# From -- ./inp_files/19825.got.cif
#   From: 2010.05.17/outbox.ucp.g08.bks.cvg/sg60_10_cif.got.tgz:19825.got - 2010.06.11 16:26:41.
