data_PCOD9458954
_publ_section_title
;
Structure prediction by ZEFSAII (Michael W. Deem and Ramdas Pophale) SiO2 
 PCOD9458954
Probable space group: P B C N
;
_chemical_formula_sum "Si O2"
_cell_formula_units_Z 48
_cell_length_a 18.000000
_cell_length_b 15.000000
_cell_length_c 9.000000
_cell_angle_alpha 90.000000
_cell_angle_beta 90.000000
_cell_angle_gamma 90.000000
_cell_volume 2430.000000
_symmetry_space_group_name_H-M "P B C N"
_symmetry_group_IT_number 60
_symmetry_cell_setting 'orthorhombic'
loop_
_space_group_symop_operation_xyz
x,y,z
1/2-x,1/2-y,1/2+z
1/2+x,1/2-y,-z
-x,y,1/2-z
-x,-y,-z
1/2+x,1/2+y,1/2-z
1/2-x,1/2+y,z
x,-y,1/2+z
loop_
_atom_site_type_symbol
_atom_site_label
_atom_site_fract_x
_atom_site_fract_y
_atom_site_fract_z
Si Si1 0.178475 0.887515 0.890299
Si Si2 0.587112 0.778421 0.210502
Si Si3 0.579725 0.883627 0.698756
Si Si4 0.681909 0.767626 0.512180
Si Si5 0.792137 0.938900 0.954061
Si Si6 0.876877 0.452582 0.014347
O O1 0.113017 0.814978 0.863983
O O2 0.243291 0.826357 0.966481
O O3 0.202771 0.923157 0.724798
O O4 0.160773 0.975464 0.989069
O O5 0.500000 0.775678 0.250000
O O6 0.639138 0.787590 0.357363
O O7 0.601262 0.864596 0.107059
O O8 0.500000 0.850684 0.750000
O O9 0.630013 0.803146 0.644185
O O10 0.580714 0.959802 0.571978
O O11 0.609498 0.934143 0.842394
O O12 0.693088 0.660890 0.517485
O O13 0.711431 0.966007 0.018193
#
# Coordination Sequence:
#
# PCOD9458954 Si02
#       6
#     8   8   8   8   8   8
#     4  11  24  42  66  93 128 165 212 268 310 383
#     4  11  25  44  65  95 132 173 214 268 329 380
#     4  12  24  38  59  94 131 168 206 257 325 388
#     4  11  23  42  64  92 126 169 214 263 314 386
#     4  11  23  39  64  96 120 163 220 262 316 372
#     4  12  21  37  62  90 131 165 209 263 320 383
#
# _framework density 19.753086
#
# number of rings (size 3 to 8) (size 9 to 14) (size 15 to 20)
#    0.000    0.667    5.000    3.000    2.333    1.333 
#    0.000    4.167    0.000    0.000    0.000    0.000 
#    0.000    0.000    0.000    0.000    0.000    0.000 
#
# Total GULP energy -268182.010528 kJ/mol
# GULP energy per Si atom -5587.125219 kJ/mol
# Density = 1.970813 g / cm^3
# Si number density = 19.753086 Si / 1000 Ang^3
#
#
#
# Elastic Constant Matrix: (Units=GPa)
#
#
# Indices 1 2 3 4 5 6 
#
# 1 29.8929 0.7237 0.6847 0.0000 0.0000 0.0000
# 2 0.7237 83.8567 17.2043 0.0000 0.0000 0.0000
# 3 0.6847 17.2043 67.8676 0.0000 0.0000 0.0000
# 4 0.0000 0.0000 0.0000 -108.3380 0.0000 0.0000
# 5 0.0000 0.0000 0.0000 0.0000 18.7274 0.0000
# 6 0.0000 0.0000 0.0000 0.0000 0.0000 -1.8383
#
#
#
# Elastic Compliance Matrix: (Units=1/GPa)
#
#
# Indices 1 2 3 4 5 6 
#
# 1 0.033465 -0.000232 -0.000279 0.000000 0.000000 0.000000
# 2 -0.000232 0.012581 -0.003187 0.000000 0.000000 0.000000
# 3 -0.000279 -0.003187 0.015545 0.000000 0.000000 0.000000
# 4 0.000000 0.000000 0.000000 -0.009230 0.000000 0.000000
# 5 0.000000 0.000000 0.000000 0.000000 0.053398 0.000000
# 6 0.000000 0.000000 0.000000 0.000000 0.000000 -0.543978
#
#
# Mechanical properties :
#
#
# Convention : Reuss Voigt Hill
#
# Bulk Modulus (GPa) = 18.45150 24.31584 21.38367
# Shear Modulus (GPa) = -12.11359 -7.42282 -9.76820
#
# Velocity S-wave (km/s) = -2.47908 -1.94061 -2.22618
# Velocity P-wave (km/s) = 1.08024 2.70469 2.05940
#
# Compressibility (1/GPa) = 0.05419615
#
# Stress axis : x y z
#
# Youngs Moduli (GPa) = 29.88218 79.48528 64.32828
#
# Poissons Ratio (x) = 0.01841 0.01794
# Poissons Ratio (y) = 0.00692 0.20501
# Poissons Ratio (z) = 0.00834 0.25331
#
# Static dielectric constant tensor:
#      x y z
#    x 1.769560 0.000000 0.000000 
#    y 0.000000 1.662110 0.000000 
#    z 0.000000 0.000000 1.715430 
# 
# From -- ./inp_files/6693.got.cif
#   From: 2010.05.17/outbox.ucp.g08.bks.cvg/sg60_4_cif.got.tgz:6693.got - 2010.06.11 16:26:41.
