data_PCOD9458960
_publ_section_title
;
Structure prediction by ZEFSAII (Michael W. Deem and Ramdas Pophale) SiO2 
 PCOD9458960
Probable space group: P B C N
;
_chemical_formula_sum "Si O2"
_cell_formula_units_Z 48
_cell_length_a 18.000000
_cell_length_b 9.000000
_cell_length_c 15.000000
_cell_angle_alpha 90.000000
_cell_angle_beta 90.000000
_cell_angle_gamma 90.000000
_cell_volume 2430.000000
_symmetry_space_group_name_H-M "P B C N"
_symmetry_group_IT_number 60
_symmetry_cell_setting 'orthorhombic'
loop_
_space_group_symop_operation_xyz
x,y,z
1/2-x,1/2-y,1/2+z
1/2+x,1/2-y,-z
-x,y,1/2-z
-x,-y,-z
1/2+x,1/2+y,1/2-z
1/2-x,1/2+y,z
x,-y,1/2+z
loop_
_atom_site_type_symbol
_atom_site_label
_atom_site_fract_x
_atom_site_fract_y
_atom_site_fract_z
Si Si1 0.300250 0.202350 0.538631
Si Si2 0.684063 0.503067 0.863218
Si Si3 0.919976 0.239000 0.796519
Si Si4 0.580323 0.940236 0.972186
Si Si5 0.275717 0.120339 0.291504
Si Si6 0.696475 0.836210 0.101840
O O1 0.326220 0.339240 0.598898
O O2 0.225678 0.118268 0.571507
O O3 0.269968 0.288378 0.452213
O O4 0.364287 0.080430 0.535688
O O5 0.609076 0.579527 0.830172
O O6 0.746381 0.480851 0.788195
O O7 0.924162 0.351315 0.879896
O O8 0.850910 0.295284 0.735659
O O9 0.000000 0.234535 0.750000
O O10 0.621414 0.834071 0.044639
O O11 0.500000 0.000000 0.000000
O O12 0.206063 0.225414 0.315798
O O13 0.293734 0.004659 0.368567
#
# Coordination Sequence:
#
# PCOD9458960 Si02
#       6
#     8   8   8   8   8   8
#     4  12  21  43  72  98 130 180 229 278 329 407
#     4  12  21  44  71  96 131 180 226 279 333 404
#     4  12  26  45  65  96 143 178 222 288 346 399
#     4  12  26  46  67  99 140 182 224 280 349 403
#     4  12  22  38  69 100 129 171 228 273 332 404
#     4  12  22  38  68 101 130 169 227 276 324 409
#
# _framework density 19.753086
#
# number of rings (size 3 to 8) (size 9 to 14) (size 15 to 20)
#    0.000    0.000   10.000    1.000    0.000    0.000 
#    3.000    0.833    0.000    0.000    0.000    0.000 
#    0.000    0.000    0.000    0.000    0.000    0.000 
#
# Total GULP energy -267704.113087 kJ/mol
# GULP energy per Si atom -5577.169023 kJ/mol
# Density = 1.970813 g / cm^3
# Si number density = 19.753086 Si / 1000 Ang^3
#
#
#
# Elastic Constant Matrix: (Units=GPa)
#
#
# Indices 1 2 3 4 5 6 
#
# 1 94.1004 3.4009 17.3519 0.0000 0.0000 0.0000
# 2 3.4009 45.3009 18.7133 0.0000 0.0000 0.0000
# 3 17.3519 18.7133 47.2108 0.0000 0.0000 0.0000
# 4 0.0000 0.0000 0.0000 12.7161 0.0000 0.0000
# 5 0.0000 0.0000 0.0000 0.0000 36.8129 0.0000
# 6 0.0000 0.0000 0.0000 0.0000 0.0000 33.6308
#
#
#
# Elastic Compliance Matrix: (Units=1/GPa)
#
#
# Indices 1 2 3 4 5 6 
#
# 1 0.011441 0.001050 -0.004621 0.000000 0.000000 0.000000
# 2 0.001050 0.026493 -0.010887 0.000000 0.000000 0.000000
# 3 -0.004621 -0.010887 0.027196 0.000000 0.000000 0.000000
# 4 0.000000 0.000000 0.000000 0.078640 0.000000 0.000000
# 5 0.000000 0.000000 0.000000 0.000000 0.027164 0.000000
# 6 0.000000 0.000000 0.000000 0.000000 0.000000 0.029735
#
#
# Mechanical properties :
#
#
# Convention : Reuss Voigt Hill
#
# Bulk Modulus (GPa) = 27.61444 29.50494 28.55969
# Shear Modulus (GPa) = 20.69045 26.44169 23.56607
#
# Velocity S-wave (km/s) = 3.23995 3.66267 3.45778
# Velocity P-wave (km/s) = 5.29212 5.73203 5.51646
#
# Compressibility (1/GPa) = 0.03621293
#
# Stress axis : x y z
#
# Youngs Moduli (GPa) = 87.40375 37.74549 36.77066
#
# Poissons Ratio (x) = -0.03964 0.16993
# Poissons Ratio (y) = -0.09178 0.40033
# Poissons Ratio (z) = 0.40392 0.41095
#
# Static dielectric constant tensor:
#      x y z
#    x 1.621950 0.000000 0.000000 
#    y 0.000000 1.748870 0.000000 
#    z 0.000000 0.000000 2.000570 
# 
# From -- ./inp_files/17303.got.cif
#   From: 2010.05.17/outbox.ucp.g08.bks.cvg/sg60_9_cif.got.tgz:17303.got - 2010.06.11 16:26:41.
