data_PCOD9458836
_publ_section_title
;
Structure prediction by ZEFSAII (Michael W. Deem and Ramdas Pophale) SiO2 
 PCOD9458836
Probable space group: P B C N
;
_chemical_formula_sum "Si O2"
_cell_formula_units_Z 24
_cell_length_a 13.474879
_cell_length_b 7.095801
_cell_length_c 9.803858
_cell_angle_alpha 90.000000
_cell_angle_beta 90.000000
_cell_angle_gamma 90.000000
_cell_volume 937.396470
_symmetry_space_group_name_H-M "P B C N"
_symmetry_group_IT_number 60
_symmetry_cell_setting 'orthorhombic'
loop_
_space_group_symop_operation_xyz
x,y,z
1/2-x,1/2-y,1/2+z
1/2+x,1/2-y,-z
-x,y,1/2-z
-x,-y,-z
1/2+x,1/2+y,1/2-z
1/2-x,1/2+y,z
x,-y,1/2+z
loop_
_atom_site_type_symbol
_atom_site_label
_atom_site_fract_x
_atom_site_fract_y
_atom_site_fract_z
Si Si1 0.897000 0.907589 0.036626
Si Si2 0.898790 0.416170 0.336587
Si Si3 0.814950 0.830376 0.320669
O O1 0.595961 0.194645 0.979933
O O2 0.819249 0.031702 0.950246
O O3 0.875065 0.913720 0.194529
O O4 0.000000 0.000000 0.000000
O O5 0.868662 0.633703 0.351766
O O6 0.799522 0.320782 0.271825
O O7 0.000000 0.393859 0.250000
#
# Coordination Sequence:
#
# PCOD9458836 Si02
#       3
#     8   8   8
#     4  12  28  52  84 117 164 210 276 332 410 478
#     4  12  28  49  78 117 161 209 269 329 410 484
#     4  12  29  51  80 117 161 215 266 343 403 481
#
# _framework density 25.602827000000001
#
# number of rings (size 3 to 8) (size 9 to 14) (size 15 to 20)
#    0.000    0.000    3.333    5.000    4.667    8.000 
#    0.000    0.000    0.000    0.000    0.000    0.000 
#    0.000    0.000    0.000    0.000    0.000    0.000 
#
# Total GULP energy -134584.390696 kJ/mol
# GULP energy per Si atom -5607.682946 kJ/mol
# Density = 2.554455 g / cm^3
# Si number density = 25.602827 Si / 1000 Ang^3
#
#
#
# Elastic Constant Matrix: (Units=GPa)
#
#
# Indices 1 2 3 4 5 6 
#
# 1 158.2138 15.8869 -5.9245 0.0000 0.0000 0.0000
# 2 15.8869 168.9748 42.3931 0.0000 0.0000 0.0000
# 3 -5.9245 42.3931 67.5668 0.0000 0.0000 0.0000
# 4 0.0000 0.0000 0.0000 52.4588 0.0000 0.0000
# 5 0.0000 0.0000 0.0000 0.0000 35.7095 0.0000
# 6 0.0000 0.0000 0.0000 0.0000 0.0000 42.6058
#
#
#
# Elastic Compliance Matrix: (Units=1/GPa)
#
#
# Indices 1 2 3 4 5 6 
#
# 1 0.006452 -0.000888 0.001123 0.000000 0.000000 0.000000
# 2 -0.000888 0.007146 -0.004561 0.000000 0.000000 0.000000
# 3 0.001123 -0.004561 0.017761 0.000000 0.000000 0.000000
# 4 0.000000 0.000000 0.000000 0.019063 0.000000 0.000000
# 5 0.000000 0.000000 0.000000 0.000000 0.028004 0.000000
# 6 0.000000 0.000000 0.000000 0.000000 0.000000 0.023471
#
#
# Mechanical properties :
#
#
# Convention : Reuss Voigt Hill
#
# Bulk Modulus (GPa) = 44.04323 55.49626 49.76975
# Shear Modulus (GPa) = 42.33073 48.98147 45.65610
#
# Velocity S-wave (km/s) = 4.07057 4.37868 4.22743
# Velocity P-wave (km/s) = 6.27156 6.87653 6.58100
#
# Compressibility (1/GPa) = 0.02270497
#
# Stress axis : x y z
#
# Youngs Moduli (GPa) = 154.99496 139.93916 56.30437
#
# Poissons Ratio (x) = 0.12432 -0.06324
# Poissons Ratio (y) = 0.13769 0.25683
# Poissons Ratio (z) = -0.17407 0.63833
#
# Static dielectric constant tensor:
#      x y z
#    x 2.101860 0.000000 0.000000 
#    y 0.000000 2.049640 0.000000 
#    z 0.000000 0.000000 1.977580 
# 
# From -- ./inp_files/10456.got.cif
#   From: 2010.05.17/outbox.cif.g08.bks.cpg/sg60_6_cif.got.tgz:10456.got - 2010.06.03 14:59:27.
