data_PCOD9458235
_publ_section_title
;
Structure prediction by ZEFSAII (Michael W. Deem and Ramdas Pophale) SiO2 
 PCOD9458235
Probable space group: P B C N
;
_chemical_formula_sum "Si O2"
_cell_formula_units_Z 48
_cell_length_a 13.861483
_cell_length_b 20.381125
_cell_length_c 8.142787
_cell_angle_alpha 90.000000
_cell_angle_beta 90.000000
_cell_angle_gamma 90.000000
_cell_volume 2300.440071
_symmetry_space_group_name_H-M "P B C N"
_symmetry_group_IT_number 60
_symmetry_cell_setting 'orthorhombic'
loop_
_space_group_symop_operation_xyz
x,y,z
1/2-x,1/2-y,1/2+z
1/2+x,1/2-y,-z
-x,y,1/2-z
-x,-y,-z
1/2+x,1/2+y,1/2-z
1/2-x,1/2+y,z
x,-y,1/2+z
loop_
_atom_site_type_symbol
_atom_site_label
_atom_site_fract_x
_atom_site_fract_y
_atom_site_fract_z
Si Si1 0.821102 0.683986 0.313305
Si Si2 0.000000 0.251773 0.750000
Si Si3 0.016853 0.853019 0.485983
Si Si4 0.173502 0.078019 0.561481
Si Si5 0.500000 0.750265 0.250000
Si Si6 0.188565 0.694715 0.582000
Si Si7 0.312381 0.570602 0.167911
O O1 0.751553 0.740759 0.379796
O O2 0.780546 0.614895 0.374219
O O3 0.930017 0.703269 0.356369
O O4 0.822692 0.685444 0.114160
O O5 0.939848 0.200183 0.640092
O O6 0.096798 0.896076 0.575957
O O7 0.935356 0.897981 0.404930
O O8 0.964961 0.802800 0.613303
O O9 0.249409 0.130696 0.631929
O O10 0.176644 0.076449 0.363518
O O11 0.193263 0.005292 0.623813
O O12 0.412157 0.792419 0.176155
#
# Coordination Sequence:
#
# PCOD9458235 Si02
#       7
#     8   4   8   8   4   8   8
#     4  11  22  41  62  94 128 167 216 272 319 389
#     4  12  24  36  66 100 124 164 220 268 326 380
#     4  12  22  40  64  96 128 165 211 273 328 385
#     4  11  24  41  61  93 128 170 211 262 324 395
#     4  12  20  42  66  92 126 168 212 272 328 368
#     4  11  23  40  65  91 129 166 218 268 324 385
#     4  11  24  41  62  90 132 170 211 263 328 385
#
# _framework density 20.865570999999999
#
# number of rings (size 3 to 8) (size 9 to 14) (size 15 to 20)
#    0.000    0.667    6.667    1.500    2.333    1.333 
#    0.000    0.833    0.000    4.000    0.000    0.000 
#    0.000    0.000    0.000    0.000    0.000    0.000 
#
# Total GULP energy -268122.321336 kJ/mol
# GULP energy per Si atom -5585.881695 kJ/mol
# Density = 2.081808 g / cm^3
# Si number density = 20.865571 Si / 1000 Ang^3
#
#
#
# Elastic Constant Matrix: (Units=GPa)
#
#
# Indices 1 2 3 4 5 6 
#
# 1 99.7838 72.2575 5.2786 0.0000 0.0000 0.0000
# 2 72.2575 180.9161 20.0337 0.0000 0.0000 0.0000
# 3 5.2786 20.0337 22.7887 0.0000 0.0000 0.0000
# 4 0.0000 0.0000 0.0000 33.7496 0.0000 0.0000
# 5 0.0000 0.0000 0.0000 0.0000 27.4953 0.0000
# 6 0.0000 0.0000 0.0000 0.0000 0.0000 33.4864
#
#
#
# Elastic Compliance Matrix: (Units=1/GPa)
#
#
# Indices 1 2 3 4 5 6 
#
# 1 0.014172 -0.005868 0.001876 0.000000 0.000000 0.000000
# 2 -0.005868 0.008553 -0.006160 0.000000 0.000000 0.000000
# 3 0.001876 -0.006160 0.048862 0.000000 0.000000 0.000000
# 4 0.000000 0.000000 0.000000 0.029630 0.000000 0.000000
# 5 0.000000 0.000000 0.000000 0.000000 0.036370 0.000000
# 6 0.000000 0.000000 0.000000 0.000000 0.000000 0.029863
#
#
# Mechanical properties :
#
#
# Convention : Reuss Voigt Hill
#
# Bulk Modulus (GPa) = 19.49960 55.40313 37.45136
# Shear Modulus (GPa) = 24.40836 32.67417 28.54126
#
# Velocity S-wave (km/s) = 3.42393 3.96149 3.70248
# Velocity P-wave (km/s) = 4.99967 6.89453 6.02209
#
# Compressibility (1/GPa) = 0.05128310
#
# Stress axis : x y z
#
# Youngs Moduli (GPa) = 70.56388 116.91612 20.46570
#
# Poissons Ratio (x) = 0.68604 -0.03839
# Poissons Ratio (y) = 0.41406 0.12607
# Poissons Ratio (z) = -0.13237 0.72020
#
# Static dielectric constant tensor:
#      x y z
#    x 1.787430 0.000000 0.000000 
#    y 0.000000 1.715010 0.000000 
#    z 0.000000 0.000000 1.914310 
# 
# From -- ./inp_files/5957.got.cif
#   From: 2010.05.17/outbox.cif.g08.bks.cpg/sg60_3_cif.got.tgz:5957.got - 2010.06.03 14:59:27.
