data_PCOD9458544
_publ_section_title
;
Structure prediction by ZEFSAII (Michael W. Deem and Ramdas Pophale) SiO2 
 PCOD9458544
Probable space group: P B C N
;
_chemical_formula_sum "Si O2"
_cell_formula_units_Z 56
_cell_length_a 5.220880
_cell_length_b 15.322586
_cell_length_c 27.686363
_cell_angle_alpha 90.000000
_cell_angle_beta 90.000000
_cell_angle_gamma 90.000000
_cell_volume 2214.836579
_symmetry_space_group_name_H-M "P B C N"
_symmetry_group_IT_number 60
_symmetry_cell_setting 'orthorhombic'
loop_
_space_group_symop_operation_xyz
x,y,z
1/2-x,1/2-y,1/2+z
1/2+x,1/2-y,-z
-x,y,1/2-z
-x,-y,-z
1/2+x,1/2+y,1/2-z
1/2-x,1/2+y,z
x,-y,1/2+z
loop_
_atom_site_type_symbol
_atom_site_label
_atom_site_fract_x
_atom_site_fract_y
_atom_site_fract_z
Si Si1 0.016660 0.260720 0.625158
Si Si2 0.000000 0.480102 0.250000
Si Si3 0.642361 0.940058 0.038776
Si Si4 0.344101 0.431328 0.097661
Si Si5 0.500000 0.680084 0.250000
Si Si6 0.084809 0.278733 0.984028
Si Si7 0.172770 0.079854 0.171984
Si Si8 0.292432 0.328599 0.282650
O O1 0.160816 0.170191 0.612454
O O2 0.893408 0.288811 0.573792
O O3 0.183157 0.343135 0.642856
O O4 0.840985 0.221625 0.667877
O O5 0.835475 0.543755 0.283209
O O6 0.902449 0.407888 0.210760
O O7 0.447278 0.950214 0.083026
O O8 0.602348 0.846851 0.013080
O O9 0.931690 0.950053 0.057795
O O10 0.500000 0.000000 0.000000
O O11 0.409651 0.499082 0.139923
O O12 0.448664 0.626490 0.298092
O O13 0.723040 0.751580 0.255848
O O14 0.866333 0.204015 0.993698
O O15 0.500000 0.378474 0.250000
#
# Coordination Sequence:
#
# PCOD9458544 Si02
#       8
#     8   4   8   8   4   8   8   8
#     4  12  26  49  80 111 160 210 272 323 420 479
#     4  11  28  48  77 114 172 204 273 340 409 490
#     4  12  26  52  79 115 159 207 266 342 412 478
#     4  12  29  49  80 118 162 211 272 338 408 490
#     4  11  26  46  73 108 156 198 273 324 399 482
#     4  12  25  49  77 111 156 208 267 330 391 478
#     4  12  28  47  76 122 152 217 272 336 409 504
#     4  11  24  50  77 108 155 210 254 338 405 480
#
# _framework density 25.284032
#
# number of rings (size 3 to 8) (size 9 to 14) (size 15 to 20)
#    0.000    0.286    4.286    3.000    7.000    4.571 
#    0.000    0.000    0.000    0.000    0.000    0.000 
#    0.000    0.000    0.000    0.000    0.000    0.000 
#
# Total GULP energy -312069.701497 kJ/mol
# GULP energy per Si atom -5572.673241 kJ/mol
# Density = 2.522648 g / cm^3
# Si number density = 25.284032 Si / 1000 Ang^3
#
#
#
# Elastic Constant Matrix: (Units=GPa)
#
#
# Indices 1 2 3 4 5 6 
#
# 1 92.8420 8.6461 25.8598 0.0000 0.0000 0.0000
# 2 8.6461 76.7434 32.7177 0.0000 0.0000 0.0000
# 3 25.8598 32.7177 127.9669 0.0000 0.0000 0.0000
# 4 0.0000 0.0000 0.0000 47.3363 0.0000 0.0000
# 5 0.0000 0.0000 0.0000 0.0000 38.0136 0.0000
# 6 0.0000 0.0000 0.0000 0.0000 0.0000 12.1336
#
#
#
# Elastic Compliance Matrix: (Units=1/GPa)
#
#
# Indices 1 2 3 4 5 6 
#
# 1 0.011421 -0.000340 -0.002221 0.000000 0.000000 0.000000
# 2 -0.000340 0.014635 -0.003673 0.000000 0.000000 0.000000
# 3 -0.002221 -0.003673 0.009202 0.000000 0.000000 0.000000
# 4 0.000000 0.000000 0.000000 0.021125 0.000000 0.000000
# 5 0.000000 0.000000 0.000000 0.000000 0.026306 0.000000
# 6 0.000000 0.000000 0.000000 0.000000 0.000000 0.082416
#
#
# Mechanical properties :
#
#
# Convention : Reuss Voigt Hill
#
# Bulk Modulus (GPa) = 43.87807 47.99995 45.93901
# Shear Modulus (GPa) = 27.00213 34.85194 30.92703
#
# Velocity S-wave (km/s) = 3.27150 3.71673 3.50120
# Velocity P-wave (km/s) = 5.62690 6.11917 5.87819
#
# Compressibility (1/GPa) = 0.02279043
#
# Stress axis : x y z
#
# Youngs Moduli (GPa) = 87.55566 68.33112 108.66649
#
# Poissons Ratio (x) = 0.02322 0.24137
# Poissons Ratio (y) = 0.02975 0.39913
# Poissons Ratio (z) = 0.19448 0.25098
#
# Static dielectric constant tensor:
#      x y z
#    x 2.017090 0.000000 0.000000 
#    y 0.000000 2.229910 0.000000 
#    z 0.000000 0.000000 1.993870 
# 
# From -- ./inp_files/25738.got.cif
#   From: 2010.05.17/outbox.cif.g08.bks.cpg/sg60_13_cif.got.tgz:25738.got - 2010.06.03 14:59:27.
