data_PCOD9458149
_publ_section_title
;
Structure prediction by ZEFSAII (Michael W. Deem and Ramdas Pophale) SiO2 
 PCOD9458149
Probable space group: P B C N
;
_chemical_formula_sum "Si O2"
_cell_formula_units_Z 28
_cell_length_a 12.380310
_cell_length_b 14.403860
_cell_length_c 7.884557
_cell_angle_alpha 90.000000
_cell_angle_beta 90.000000
_cell_angle_gamma 90.000000
_cell_volume 1406.007729
_symmetry_space_group_name_H-M "P B C N"
_symmetry_group_IT_number 60
_symmetry_cell_setting 'orthorhombic'
loop_
_space_group_symop_operation_xyz
x,y,z
1/2-x,1/2-y,1/2+z
1/2+x,1/2-y,-z
-x,y,1/2-z
-x,-y,-z
1/2+x,1/2+y,1/2-z
1/2-x,1/2+y,z
x,-y,1/2+z
loop_
_atom_site_type_symbol
_atom_site_label
_atom_site_fract_x
_atom_site_fract_y
_atom_site_fract_z
Si Si1 0.086999 0.278455 0.901040
Si Si2 0.125269 0.082114 0.778409
Si Si3 0.500000 0.261583 0.750000
Si Si4 0.694036 0.384999 0.600633
O O1 0.124058 0.170170 0.902607
O O2 0.190122 0.341019 0.864272
O O3 0.000000 0.285866 0.750000
O O4 0.036024 0.296537 0.085310
O O5 0.171534 0.117035 0.600319
O O6 0.000000 0.054907 0.750000
O O7 0.185701 0.991824 0.843689
O O8 0.599712 0.325759 0.689811
#
# Coordination Sequence:
#
# PCOD9458149 Si02
#       4
#     8   8   4   8
#     4  11  25  45  68  99 135 172 222 274 332 396
#     4  11  21  42  66 102 130 171 227 275 317 386
#     4  12  22  40  70  98 128 170 220 274 334 376
#     4  12  23  41  71  99 134 171 220 280 328 389
#
# _framework density 19.914542999999998
#
# number of rings (size 3 to 8) (size 9 to 14) (size 15 to 20)
#    0.000    0.571    7.143    4.286    0.000    0.000 
#    5.143    1.429    3.143    0.000    0.000    0.000 
#    0.000    0.000    0.000    0.000    0.000    0.000 
#
# Total GULP energy -156633.114211 kJ/mol
# GULP energy per Si atom -5594.039793 kJ/mol
# Density = 1.986922 g / cm^3
# Si number density = 19.914543 Si / 1000 Ang^3
#
#
#
# Elastic Constant Matrix: (Units=GPa)
#
#
# Indices 1 2 3 4 5 6 
#
# 1 135.6372 70.5203 32.0873 0.0000 0.0000 0.0000
# 2 70.5203 77.4972 6.8039 0.0000 0.0000 0.0000
# 3 32.0873 6.8039 87.0823 0.0000 0.0000 0.0000
# 4 0.0000 0.0000 0.0000 -141.3415 0.0000 0.0000
# 5 0.0000 0.0000 0.0000 0.0000 20.6836 0.0000
# 6 0.0000 0.0000 0.0000 0.0000 0.0000 37.8991
#
#
#
# Elastic Compliance Matrix: (Units=1/GPa)
#
#
# Indices 1 2 3 4 5 6 
#
# 1 0.015696 -0.013870 -0.004700 0.000000 0.000000 0.000000
# 2 -0.013870 0.025250 0.003138 0.000000 0.000000 0.000000
# 3 -0.004700 0.003138 0.012970 0.000000 0.000000 0.000000
# 4 0.000000 0.000000 0.000000 -0.007075 0.000000 0.000000
# 5 0.000000 0.000000 0.000000 0.000000 0.048348 0.000000
# 6 0.000000 0.000000 0.000000 0.000000 0.000000 0.026386
#
#
# Mechanical properties :
#
#
# Convention : Reuss Voigt Hill
#
# Bulk Modulus (GPa) = 43.38112 57.67106 50.52609
# Shear Modulus (GPa) = 31.22635 -3.83143 13.69746
#
# Velocity S-wave (km/s) = 3.96412 -1.38857 2.62546
# Velocity P-wave (km/s) = 6.54089 5.14308 5.88364
#
# Compressibility (1/GPa) = 0.02305151
#
# Stress axis : x y z
#
# Youngs Moduli (GPa) = 63.71165 39.60463 77.10140
#
# Poissons Ratio (x) = 0.54932 0.36236
# Poissons Ratio (y) = 0.88368 -0.24194
# Poissons Ratio (z) = 0.29943 -0.12428
#
# Static dielectric constant tensor:
#      x y z
#    x 1.745070 0.000000 0.000000 
#    y 0.000000 1.676980 0.000000 
#    z 0.000000 0.000000 1.739190 
# 
# From -- ./inp_files/3441.got.cif
#   From: 2010.05.17/outbox.cif.g08.bks.cpg/sg60_2_cif.got.tgz:3441.got - 2010.06.03 14:59:27.
