data_PCOD9458333
_publ_section_title
;
Structure prediction by ZEFSAII (Michael W. Deem and Ramdas Pophale) SiO2 
 PCOD9458333
Probable space group: P B C N
;
_chemical_formula_sum "Si O2"
_cell_formula_units_Z 32
_cell_length_a 4.903588
_cell_length_b 24.465367
_cell_length_c 12.540275
_cell_angle_alpha 90.000000
_cell_angle_beta 90.000000
_cell_angle_gamma 90.000000
_cell_volume 1504.432715
_symmetry_space_group_name_H-M "P B C N"
_symmetry_group_IT_number 60
_symmetry_cell_setting 'orthorhombic'
loop_
_space_group_symop_operation_xyz
x,y,z
1/2-x,1/2-y,1/2+z
1/2+x,1/2-y,-z
-x,y,1/2-z
-x,-y,-z
1/2+x,1/2+y,1/2-z
1/2-x,1/2+y,z
x,-y,1/2+z
loop_
_atom_site_type_symbol
_atom_site_label
_atom_site_fract_x
_atom_site_fract_y
_atom_site_fract_z
Si Si1 0.483529 0.212886 0.510574
Si Si2 0.607675 0.894023 0.630286
Si Si3 0.619104 0.440741 0.978558
Si Si4 0.744482 0.134538 0.677972
O O1 0.198410 0.242505 0.530156
O O2 0.445345 0.163890 0.426978
O O3 0.608379 0.185037 0.615752
O O4 0.500000 0.891587 0.750000
O O5 0.419434 0.938744 0.570971
O O6 0.918056 0.910124 0.604780
O O7 0.500000 0.500000 0.000000
O O8 0.641958 0.406724 0.088275
O O9 0.500000 0.109958 0.750000
O O10 0.000000 0.150621 0.750000
#
# Coordination Sequence:
#
# PCOD9458333 Si02
#       4
#     8   8   8   8
#     4  11  23  41  63  90 124 162 206 255 307 366
#     4  11  24  43  64  93 127 163 207 257 307 369
#     4  11  24  43  65  93 127 163 206 257 309 369
#     4  11  23  41  63  92 125 162 208 259 309 370
#
# _framework density 21.270478000000001
#
# number of rings (size 3 to 8) (size 9 to 14) (size 15 to 20)
#    0.000    1.000    0.000    9.000    0.000    6.000 
#    0.000    2.500    0.000    0.000    0.000    0.000 
#    0.000    0.000    0.000    0.000    0.000    0.000 
#
# Total GULP energy -179038.666119 kJ/mol
# GULP energy per Si atom -5594.958316 kJ/mol
# Density = 2.122207 g / cm^3
# Si number density = 21.270478 Si / 1000 Ang^3
#
#
#
# Elastic Constant Matrix: (Units=GPa)
#
#
# Indices 1 2 3 4 5 6 
#
# 1 94.7765 7.0580 12.9336 0.0000 0.0000 0.0000
# 2 7.0580 68.8293 10.7694 0.0000 0.0000 0.0000
# 3 12.9336 10.7694 91.1675 0.0000 0.0000 0.0000
# 4 0.0000 0.0000 0.0000 2.0118 0.0000 0.0000
# 5 0.0000 0.0000 0.0000 0.0000 47.6710 0.0000
# 6 0.0000 0.0000 0.0000 0.0000 0.0000 9.6162
#
#
#
# Elastic Compliance Matrix: (Units=1/GPa)
#
#
# Indices 1 2 3 4 5 6 
#
# 1 0.010812 -0.000885 -0.001429 0.000000 0.000000 0.000000
# 2 -0.000885 0.014875 -0.001632 0.000000 0.000000 0.000000
# 3 -0.001429 -0.001632 0.011364 0.000000 0.000000 0.000000
# 4 0.000000 0.000000 0.000000 0.497073 0.000000 0.000000
# 5 0.000000 0.000000 0.000000 0.000000 0.020977 0.000000
# 6 0.000000 0.000000 0.000000 0.000000 0.000000 0.103991
#
#
# Mechanical properties :
#
#
# Convention : Reuss Voigt Hill
#
# Bulk Modulus (GPa) = 34.29442 35.14393 34.71918
# Shear Modulus (GPa) = 7.38876 26.79395 17.09135
#
# Velocity S-wave (km/s) = 1.86581 3.55304 2.83773
# Velocity P-wave (km/s) = 4.56067 5.77845 5.20529
#
# Compressibility (1/GPa) = 0.02915926
#
# Stress axis : x y z
#
# Youngs Moduli (GPa) = 92.48901 67.22809 87.99467
#
# Poissons Ratio (x) = 0.05950 0.12577
# Poissons Ratio (y) = 0.08186 0.14357
# Poissons Ratio (z) = 0.13220 0.10969
#
# Static dielectric constant tensor:
#      x y z
#    x 1.770340 0.000000 0.000000 
#    y 0.000000 1.734970 0.000000 
#    z 0.000000 0.000000 1.765450 
# 
# From -- ./inp_files/8839.got.cif
#   From: 2010.05.17/outbox.cif.g08.bks.cpg/sg60_5_cif.got.tgz:8839.got - 2010.06.03 14:59:27.
