data_PCOD9458763
_publ_section_title
;
Structure prediction by ZEFSAII (Michael W. Deem and Ramdas Pophale) SiO2 
 PCOD9458763
Probable space group: P B C N
;
_chemical_formula_sum "Si O2"
_cell_formula_units_Z 24
_cell_length_a 9.034407
_cell_length_b 12.332394
_cell_length_c 8.497366
_cell_angle_alpha 90.000000
_cell_angle_beta 90.000000
_cell_angle_gamma 90.000000
_cell_volume 946.741397
_symmetry_space_group_name_H-M "P B C N"
_symmetry_group_IT_number 60
_symmetry_cell_setting 'orthorhombic'
loop_
_space_group_symop_operation_xyz
x,y,z
1/2-x,1/2-y,1/2+z
1/2+x,1/2-y,-z
-x,y,1/2-z
-x,-y,-z
1/2+x,1/2+y,1/2-z
1/2-x,1/2+y,z
x,-y,1/2+z
loop_
_atom_site_type_symbol
_atom_site_label
_atom_site_fract_x
_atom_site_fract_y
_atom_site_fract_z
Si Si1 0.143824 0.761143 0.139725
Si Si2 0.396686 0.072943 0.891608
Si Si3 0.344281 0.394000 0.838428
O O1 0.269126 0.710319 0.252666
O O2 0.000000 0.767760 0.250000
O O3 0.140679 0.667862 0.009112
O O4 0.149979 0.865714 0.025548
O O5 0.500000 0.110280 0.750000
O O6 0.261324 0.999741 0.829289
O O7 0.500000 0.000000 0.000000
O O8 0.500000 0.411766 0.750000
#
# Coordination Sequence:
#
# PCOD9458763 Si02
#       3
#     8   8   8
#     4  12  26  50  75 107 149 200 245 302 385 454
#     4  12  24  50  78 103 148 204 247 293 382 461
#     4  12  27  44  74 114 147 189 255 317 368 437
#
# _framework density 25.350110000000001
#
# number of rings (size 3 to 8) (size 9 to 14) (size 15 to 20)
#    0.000    0.000    6.667    3.000    4.667    1.333 
#    0.000    5.000    0.000    0.000    0.000    0.000 
#    0.000    0.000    0.000    0.000    0.000    0.000 
#
# Total GULP energy -134378.316275 kJ/mol
# GULP energy per Si atom -5599.096511 kJ/mol
# Density = 2.529241 g / cm^3
# Si number density = 25.350110 Si / 1000 Ang^3
#
#
#
# Elastic Constant Matrix: (Units=GPa)
#
#
# Indices 1 2 3 4 5 6 
#
# 1 176.6629 45.2274 97.6460 0.0000 0.0000 0.0000
# 2 45.2274 65.5012 63.0143 0.0000 0.0000 0.0000
# 3 97.6460 63.0143 220.8671 0.0000 0.0000 0.0000
# 4 0.0000 0.0000 0.0000 -6.8453 0.0000 0.0000
# 5 0.0000 0.0000 0.0000 0.0000 64.8038 0.0000
# 6 0.0000 0.0000 0.0000 0.0000 0.0000 38.7794
#
#
#
# Elastic Compliance Matrix: (Units=1/GPa)
#
#
# Indices 1 2 3 4 5 6 
#
# 1 0.007865 -0.002874 -0.002657 0.000000 0.000000 0.000000
# 2 -0.002874 0.022093 -0.005032 0.000000 0.000000 0.000000
# 3 -0.002657 -0.005032 0.007138 0.000000 0.000000 0.000000
# 4 0.000000 0.000000 0.000000 -0.146085 0.000000 0.000000
# 5 0.000000 0.000000 0.000000 0.000000 0.015431 0.000000
# 6 0.000000 0.000000 0.000000 0.000000 0.000000 0.025787
#
#
# Mechanical properties :
#
#
# Convention : Reuss Voigt Hill
#
# Bulk Modulus (GPa) = 62.62442 97.20074 79.91258
# Shear Modulus (GPa) = -121.00641 36.49048 -42.25797
#
# Velocity S-wave (km/s) = -6.91648 3.79814 -4.08729
# Velocity P-wave (km/s) = 6.24709 7.59349 3.05245
#
# Compressibility (1/GPa) = 0.01596821
#
# Stress axis : x y z
#
# Youngs Moduli (GPa) = 127.14541 45.26317 140.09407
#
# Poissons Ratio (x) = 0.13011 0.37224
# Poissons Ratio (y) = 0.36548 0.70501
# Poissons Ratio (z) = 0.33783 0.22778
#
# Static dielectric constant tensor:
#      x y z
#    x 1.981920 0.000000 0.000000 
#    y 0.000000 2.076090 0.000000 
#    z 0.000000 0.000000 2.272570 
# 
# From -- ./inp_files/3306.got.cif
#   From: 2010.05.17/outbox.cif.g08.bks.cpg/sg60_2_cif.got.tgz:3306.got - 2010.06.03 14:59:27.
