data_PCOD9458733
_publ_section_title
;
Structure prediction by ZEFSAII (Michael W. Deem and Ramdas Pophale) SiO2 
 PCOD9458733
Probable space group: P B C N
;
_chemical_formula_sum "Si O2"
_cell_formula_units_Z 48
_cell_length_a 7.194965
_cell_length_b 9.140343
_cell_length_c 32.568458
_cell_angle_alpha 90.000000
_cell_angle_beta 90.000000
_cell_angle_gamma 90.000000
_cell_volume 2141.846662
_symmetry_space_group_name_H-M "P B C N"
_symmetry_group_IT_number 60
_symmetry_cell_setting 'orthorhombic'
loop_
_space_group_symop_operation_xyz
x,y,z
1/2-x,1/2-y,1/2+z
1/2+x,1/2-y,-z
-x,y,1/2-z
-x,-y,-z
1/2+x,1/2+y,1/2-z
1/2-x,1/2+y,z
x,-y,1/2+z
loop_
_atom_site_type_symbol
_atom_site_label
_atom_site_fract_x
_atom_site_fract_y
_atom_site_fract_z
Si Si1 0.795801 0.027084 0.855383
Si Si2 0.474260 0.063352 0.797695
Si Si3 0.669027 0.194093 0.413246
Si Si4 0.294658 0.701160 0.927318
Si Si5 0.323359 0.345747 0.839523
Si Si6 0.964048 0.086228 0.041605
O O1 0.684206 0.076114 0.815635
O O2 0.808311 0.154810 0.888851
O O3 0.650255 0.918228 0.876482
O O4 0.991922 0.945953 0.847789
O O5 0.500000 0.030253 0.750000
O O6 0.380322 0.219611 0.807509
O O7 0.339712 0.944823 0.820174
O O8 0.484372 0.215244 0.438551
O O9 0.842667 0.133801 0.438109
O O10 0.231553 0.757227 0.881850
O O11 0.341604 0.529958 0.931530
O O12 0.146231 0.761775 0.959414
O O13 0.000000 0.000000 0.000000
#
# Coordination Sequence:
#
# PCOD9458733 Si02
#       6
#     8   8   8   8   8   8
#     4  12  24  45  74 107 138 190 249 297 351 441
#     4  12  29  45  72 109 153 190 240 311 368 430
#     4  12  24  44  74 102 141 187 244 293 357 431
#     4  12  25  48  76 102 145 194 246 301 356 446
#     4  12  26  49  75 108 141 199 253 293 366 440
#     4  12  30  46  71 113 147 189 241 306 374 432
#
# _framework density 22.410565999999999
#
# number of rings (size 3 to 8) (size 9 to 14) (size 15 to 20)
#    0.000    0.000    6.667    2.000    7.000    0.667 
#    0.000    0.000    0.000    0.000    0.000    0.000 
#    0.000    0.000    0.000    0.000    0.000    0.000 
#
# Total GULP energy -268138.360314 kJ/mol
# GULP energy per Si atom -5586.215840 kJ/mol
# Density = 2.235956 g / cm^3
# Si number density = 22.410566 Si / 1000 Ang^3
#
#
#
# Elastic Constant Matrix: (Units=GPa)
#
#
# Indices 1 2 3 4 5 6 
#
# 1 127.8352 49.6262 27.6009 0.0000 0.0000 0.0000
# 2 49.6262 106.2600 12.7218 0.0000 0.0000 0.0000
# 3 27.6009 12.7218 85.9536 0.0000 0.0000 0.0000
# 4 0.0000 0.0000 0.0000 26.3903 0.0000 0.0000
# 5 0.0000 0.0000 0.0000 0.0000 6.1458 0.0000
# 6 0.0000 0.0000 0.0000 0.0000 0.0000 39.3864
#
#
#
# Elastic Compliance Matrix: (Units=1/GPa)
#
#
# Indices 1 2 3 4 5 6 
#
# 1 0.010091 -0.004403 -0.002589 0.000000 0.000000 0.000000
# 2 -0.004403 0.011502 -0.000289 0.000000 0.000000 0.000000
# 3 -0.002589 -0.000289 0.012508 0.000000 0.000000 0.000000
# 4 0.000000 0.000000 0.000000 0.037893 0.000000 0.000000
# 5 0.000000 0.000000 0.000000 0.000000 0.162713 0.000000
# 6 0.000000 0.000000 0.000000 0.000000 0.000000 0.025389
#
#
# Mechanical properties :
#
#
# Convention : Reuss Voigt Hill
#
# Bulk Modulus (GPa) = 51.17537 55.54963 53.36250
# Shear Modulus (GPa) = 17.78292 29.72450 23.75371
#
# Velocity S-wave (km/s) = 2.81998 3.64587 3.25919
# Velocity P-wave (km/s) = 5.78688 6.52413 6.16653
#
# Compressibility (1/GPa) = 0.01954065
#
# Stress axis : x y z
#
# Youngs Moduli (GPa) = 99.10205 86.94459 79.94794
#
# Poissons Ratio (x) = 0.38279 0.20695
# Poissons Ratio (y) = 0.43631 0.02307
# Poissons Ratio (z) = 0.25654 0.02509
#
# Static dielectric constant tensor:
#      x y z
#    x 1.854250 0.000000 0.000000 
#    y 0.000000 1.771720 0.000000 
#    z 0.000000 0.000000 1.874490 
# 
# From -- ./inp_files/25955.got.cif
#   From: 2010.05.17/outbox.cif.g08.bks.cpg/sg60_13_cif.got.tgz:25955.got - 2010.06.03 14:59:27.
