data_PCOD9458937
_publ_section_title
;
Structure prediction by ZEFSAII (Michael W. Deem and Ramdas Pophale) SiO2 
 PCOD9458937
Probable space group: P B C N
;
_chemical_formula_sum "Si O2"
_cell_formula_units_Z 56
_cell_length_a 12.000000
_cell_length_b 15.000000
_cell_length_c 15.000000
_cell_angle_alpha 90.000000
_cell_angle_beta 90.000000
_cell_angle_gamma 90.000000
_cell_volume 2700.000000
_symmetry_space_group_name_H-M "P B C N"
_symmetry_group_IT_number 60
_symmetry_cell_setting 'orthorhombic'
loop_
_space_group_symop_operation_xyz
x,y,z
1/2-x,1/2-y,1/2+z
1/2+x,1/2-y,-z
-x,y,1/2-z
-x,-y,-z
1/2+x,1/2+y,1/2-z
1/2-x,1/2+y,z
x,-y,1/2+z
loop_
_atom_site_type_symbol
_atom_site_label
_atom_site_fract_x
_atom_site_fract_y
_atom_site_fract_z
Si Si1 0.142543 0.650597 0.516765
Si Si2 0.983261 0.853514 0.144863
Si Si3 0.753572 0.311375 0.069981
Si Si4 0.976314 0.756509 0.644936
Si Si5 0.219299 0.457585 0.577225
Si Si6 0.475862 0.838631 0.644449
Si Si7 0.465006 0.547938 0.145984
O O1 0.230476 0.727370 0.493885
O O2 0.192800 0.559491 0.553916
O O3 0.060560 0.695439 0.588848
O O4 0.074158 0.633920 0.424372
O O5 0.857129 0.826204 0.126347
O O6 0.000000 0.862953 0.250000
O O7 0.051084 0.764607 0.116969
O O8 0.002298 0.951810 0.104910
O O9 0.856295 0.285247 0.130109
O O10 0.772342 0.399890 0.012926
O O11 0.000000 0.757245 0.750000
O O12 0.984938 0.858990 0.610161
O O13 0.121148 0.409131 0.630067
O O14 0.332985 0.447193 0.631897
O O15 0.500000 0.836586 0.750000
O O16 0.500000 0.546575 0.250000
#
# Coordination Sequence:
#
# PCOD9458937 Si02
#       7
#     8   8   8   8   8   8   8
#     4  11  25  46  67 104 140 179 230 288 341 416
#     4   9  22  44  67  98 132 176 228 279 336 412
#     4  11  25  44  69  97 135 186 222 283 357 394
#     4  11  25  45  70 103 143 179 234 289 340 408
#     4  12  25  42  71  99 136 183 224 283 351 408
#     4  10  23  45  72  98 141 180 233 281 338 415
#     4  10  24  42  67 102 135 174 233 285 338 407
#
# _framework density 20.740741
#
# number of rings (size 3 to 8) (size 9 to 14) (size 15 to 20)
#    0.000    1.429    2.857    0.429    4.000   10.286 
#    2.571    0.000    0.000    0.000    0.000    0.000 
#    0.000    0.000    0.000    0.000    0.000    0.000 
#
# Total GULP energy -312672.168950 kJ/mol
# GULP energy per Si atom -5583.431588 kJ/mol
# Density = 2.069353 g / cm^3
# Si number density = 20.740741 Si / 1000 Ang^3
#
#
#
# Elastic Constant Matrix: (Units=GPa)
#
#
# Indices 1 2 3 4 5 6 
#
# 1 49.7135 21.9370 19.8825 0.0000 0.0000 0.0000
# 2 21.9370 140.5303 19.4750 0.0000 0.0000 0.0000
# 3 19.8825 19.4750 70.8132 0.0000 0.0000 0.0000
# 4 0.0000 0.0000 0.0000 15.6957 0.0000 0.0000
# 5 0.0000 0.0000 0.0000 0.0000 32.8952 0.0000
# 6 0.0000 0.0000 0.0000 0.0000 0.0000 381.8510
#
#
#
# Elastic Compliance Matrix: (Units=1/GPa)
#
#
# Indices 1 2 3 4 5 6 
#
# 1 0.023739 -0.002892 -0.005870 0.000000 0.000000 0.000000
# 2 -0.002892 0.007750 -0.001319 0.000000 0.000000 0.000000
# 3 -0.005870 -0.001319 0.016133 0.000000 0.000000 0.000000
# 4 0.000000 0.000000 0.000000 0.063712 0.000000 0.000000
# 5 0.000000 0.000000 0.000000 0.000000 0.030400 0.000000
# 6 0.000000 0.000000 0.000000 0.000000 0.000000 0.002619
#
#
# Mechanical properties :
#
#
# Convention : Reuss Voigt Hill
#
# Bulk Modulus (GPa) = 36.41806 42.62733 39.52269
# Shear Modulus (GPa) = 28.79052 99.40588 64.09820
#
# Velocity S-wave (km/s) = 3.72978 6.93050 5.56521
# Velocity P-wave (km/s) = 6.01209 9.19998 7.77125
#
# Compressibility (1/GPa) = 0.02745891
#
# Stress axis : x y z
#
# Youngs Moduli (GPa) = 42.12453 129.02838 61.98616
#
# Poissons Ratio (x) = 0.37318 0.36385
# Poissons Ratio (y) = 0.12183 0.08178
# Poissons Ratio (z) = 0.24727 0.17024
#
# Static dielectric constant tensor:
#      x y z
#    x 1.744570 0.000000 0.000000 
#    y 0.000000 1.757370 0.000000 
#    z 0.000000 0.000000 1.726350 
# 
# From -- ./inp_files/16154.got.cif
#   From: 2010.05.17/outbox.ucp.g08.bks.cvg/sg60_9_cif.got.tgz:16154.got - 2010.06.11 16:26:41.
