data_PCOD9458969
_publ_section_title
;
Structure prediction by ZEFSAII (Michael W. Deem and Ramdas Pophale) SiO2 
 PCOD9458969
Probable space group: P B C A
;
_chemical_formula_sum "Si O2"
_cell_formula_units_Z 60
_cell_length_a 12.644281
_cell_length_b 32.031072
_cell_length_c 5.519261
_cell_angle_alpha 90.000000
_cell_angle_beta 90.000000
_cell_angle_gamma 90.000000
_cell_volume 2235.355208
_symmetry_space_group_name_H-M "P B C A"
_symmetry_group_IT_number 61
_symmetry_cell_setting 'orthorhombic'
loop_
_space_group_symop_operation_xyz
x,y,z
1/2-x,-y,1/2+z
1/2+x,1/2-y,-z
-x,1/2+y,1/2-z
-x,-y,-z
1/2+x,y,1/2-z
1/2-x,1/2+y,z
x,1/2-y,1/2+z
loop_
_atom_site_type_symbol
_atom_site_label
_atom_site_fract_x
_atom_site_fract_y
_atom_site_fract_z
Si Si1 0.513481 0.274534 0.886630
Si Si2 0.784540 0.245736 0.616675
Si Si3 0.554138 0.371309 0.888878
Si Si4 0.299826 0.483225 0.834409
Si Si5 0.797828 0.384885 0.626864
Si Si6 0.821679 0.349399 0.127155
Si Si7 0.533630 0.096891 0.888719
Si Si8 0.000000 0.000000 0.500000
O O1 0.532992 0.252647 0.627923
O O2 0.383254 0.277337 0.885868
O O3 0.560384 0.321054 0.909848
O O4 0.724094 0.249545 0.366508
O O5 0.832662 0.199755 0.617372
O O6 0.427103 0.380199 0.869907
O O7 0.594614 0.388969 0.631382
O O8 0.587301 0.397138 0.127638
O O9 0.225686 0.496481 0.600404
O O10 0.282362 0.434465 0.879346
O O11 0.415213 0.492689 0.728492
O O12 0.767936 0.361709 0.378892
O O13 0.764913 0.364393 0.882190
O O14 0.934702 0.371714 0.127933
O O15 0.495609 0.049984 0.933101
#
# Coordination Sequence:
#
# PCOD9458969 Si02
#       8
#     8   8   8   8   8   8   8   4
#     4  10  16  24  40  68 110 161 198 246 317 380
#     4  10  16  23  38  68 110 158 198 247 314 378
#     4  10  18  31  49  79 115 162 214 253 327 403
#     4  12  28  46  69 101 132 172 231 291 336 416
#     4  10  18  35  53  78 112 158 210 253 328 386
#     4  10  17  30  50  77 112 165 212 249 329 403
#     4  10  20  32  55  80 108 162 217 255 323 398
#     4  12  26  48  72  96 136 180 234 286 356 394
#
# _framework density 26.841372
#
# number of rings (size 3 to 8) (size 9 to 14) (size 15 to 20)
#    0.000    1.600    2.667    8.800    1.867    2.133 
#    0.000    0.000    0.000    0.000    0.000    0.000 
#    0.000    0.000    0.000  292.800    0.000    0.000 
#
# Total GULP energy -335107.956686 kJ/mol
# GULP energy per Si atom -5585.132611 kJ/mol
# Density = 2.678028 g / cm^3
# Si number density = 26.841372 Si / 1000 Ang^3
#
#
#
# Elastic Constant Matrix: (Units=GPa)
#
#
# Indices 1 2 3 4 5 6 
#
# 1 41.7569 -8.9688 10.3056 0.0000 0.0000 0.0000
# 2 -8.9688 137.1038 20.5691 0.0000 0.0000 0.0000
# 3 10.3056 20.5691 225.4418 0.0000 0.0000 0.0000
# 4 0.0000 0.0000 0.0000 45.3220 0.0000 0.0000
# 5 0.0000 0.0000 0.0000 0.0000 51.1545 0.0000
# 6 0.0000 0.0000 0.0000 0.0000 0.0000 -23.3903
#
#
#
# Elastic Compliance Matrix: (Units=1/GPa)
#
#
# Indices 1 2 3 4 5 6 
#
# 1 0.024655 0.001807 -0.001292 0.000000 0.000000 0.000000
# 2 0.001807 0.007527 -0.000769 0.000000 0.000000 0.000000
# 3 -0.001292 -0.000769 0.004565 0.000000 0.000000 0.000000
# 4 0.000000 0.000000 0.000000 0.022064 0.000000 0.000000
# 5 0.000000 0.000000 0.000000 0.000000 0.019549 0.000000
# 6 0.000000 0.000000 0.000000 0.000000 0.000000 -0.042753
#
#
# Mechanical properties :
#
#
# Convention : Reuss Voigt Hill
#
# Bulk Modulus (GPa) = 27.59526 49.79048 38.69287
# Shear Modulus (GPa) = 103.74264 40.11034 71.92649
#
# Velocity S-wave (km/s) = 6.22368 3.86987 5.18219
# Velocity P-wave (km/s) = 7.87075 6.20951 7.08896
#
# Compressibility (1/GPa) = 0.03623811
#
# Stress axis : x y z
#
# Youngs Moduli (GPa) = 40.55972 132.84878 219.05869
#
# Poissons Ratio (x) = -0.24001 0.28300
# Poissons Ratio (y) = -0.07328 0.16854
# Poissons Ratio (z) = 0.05240 0.10221
#
# Static dielectric constant tensor:
#      x y z
#    x 2.623180 0.000000 0.000000 
#    y 0.000000 1.948630 0.000000 
#    z 0.000000 0.000000 2.153080 
# 
# From -- ./inp_files/826.got.cif
#   From: 2010.05.17/outbox.cif.g08.bks.cpg/sg61_1_cif.got.tgz:826.got - 2010.06.03 15:17:17.
