data_PCOD9458950
_publ_section_title
;
Structure prediction by ZEFSAII (Michael W. Deem and Ramdas Pophale) SiO2 
 PCOD9458950
Probable space group: P B C N
;
_chemical_formula_sum "Si O2"
_cell_formula_units_Z 56
_cell_length_a 21.000000
_cell_length_b 9.000000
_cell_length_c 15.000000
_cell_angle_alpha 90.000000
_cell_angle_beta 90.000000
_cell_angle_gamma 90.000000
_cell_volume 2835.000000
_symmetry_space_group_name_H-M "P B C N"
_symmetry_group_IT_number 60
_symmetry_cell_setting 'orthorhombic'
loop_
_space_group_symop_operation_xyz
x,y,z
1/2-x,1/2-y,1/2+z
1/2+x,1/2-y,-z
-x,y,1/2-z
-x,-y,-z
1/2+x,1/2+y,1/2-z
1/2-x,1/2+y,z
x,-y,1/2+z
loop_
_atom_site_type_symbol
_atom_site_label
_atom_site_fract_x
_atom_site_fract_y
_atom_site_fract_z
Si Si1 0.318372 0.224958 0.750213
Si Si2 0.000683 0.619013 0.857069
Si Si3 0.360628 0.005964 0.899579
Si Si4 0.177370 0.715204 0.253038
Si Si5 0.101234 0.006618 0.750559
Si Si6 0.862950 0.498287 0.395892
Si Si7 0.499250 0.469733 0.604853
O O1 0.252217 0.309218 0.748970
O O2 0.376741 0.337511 0.751832
O O3 0.326227 0.125441 0.662311
O O4 0.323697 0.125610 0.838653
O O5 0.065038 0.547194 0.893595
O O6 0.000000 0.601527 0.750000
O O7 0.937161 0.544766 0.894798
O O8 0.999953 0.792529 0.880993
O O9 0.349796 0.856282 0.843435
O O10 0.340557 0.006340 0.002355
O O11 0.146012 0.642650 0.165605
O O12 0.161352 0.887525 0.252550
O O13 0.061081 0.030333 0.660368
O O14 0.058378 0.032772 0.838010
O O15 0.500000 0.500000 0.500000
#
# Coordination Sequence:
#
# PCOD9458950 Si02
#       7
#     8   8   8   8   8   8   8
#     4  11  22  47  65  85 134 172 206 259 322 369
#     4  12  19  44  68  90 128 171 202 262 326 382
#     4  11  24  42  68  96 125 165 214 263 318 377
#     4  11  26  40  65  96 123 170 218 261 303 371
#     4  11  22  41  64  91 127 161 210 256 313 383
#     4  11  24  42  68  96 125 165 214 263 318 377
#     4  11  23  37  64  94 128 163 198 257 330 372
#
# _framework density 19.753086
#
# number of rings (size 3 to 8) (size 9 to 14) (size 15 to 20)
#    0.000    0.857    7.143    2.143    4.000    3.429 
#    0.000    2.857    0.000    0.000    0.000    0.000 
#    0.000    0.000    0.000    0.000    0.000    0.000 
#
# Total GULP energy -312651.584202 kJ/mol
# GULP energy per Si atom -5583.064004 kJ/mol
# Density = 1.970813 g / cm^3
# Si number density = 19.753086 Si / 1000 Ang^3
#
#
#
# Elastic Constant Matrix: (Units=GPa)
#
#
# Indices 1 2 3 4 5 6 
#
# 1 55.9289 -4.9954 -25.4171 0.0000 0.0000 0.0000
# 2 -4.9954 41.3926 -4.7440 0.0000 0.0000 0.0000
# 3 -25.4171 -4.7440 108.3734 0.0000 0.0000 0.0000
# 4 0.0000 0.0000 0.0000 5.4430 0.0000 0.0000
# 5 0.0000 0.0000 0.0000 0.0000 8.9286 0.0000
# 6 0.0000 0.0000 0.0000 0.0000 0.0000 31.4760
#
#
#
# Elastic Compliance Matrix: (Units=1/GPa)
#
#
# Indices 1 2 3 4 5 6 
#
# 1 0.020382 0.003023 0.004913 0.000000 0.000000 0.000000
# 2 0.003023 0.024729 0.001791 0.000000 0.000000 0.000000
# 3 0.004913 0.001791 0.010458 0.000000 0.000000 0.000000
# 4 0.000000 0.000000 0.000000 0.183724 0.000000 0.000000
# 5 0.000000 0.000000 0.000000 0.000000 0.111999 0.000000
# 6 0.000000 0.000000 0.000000 0.000000 0.000000 0.031770
#
#
# Mechanical properties :
#
#
# Convention : Reuss Voigt Hill
#
# Bulk Modulus (GPa) = 13.32917 15.04243 14.18580
# Shear Modulus (GPa) = 12.86615 25.22628 19.04622
#
# Velocity S-wave (km/s) = 2.55492 3.57750 3.10855
# Velocity P-wave (km/s) = 3.93269 4.96955 4.48121
#
# Compressibility (1/GPa) = 0.07502343
#
# Stress axis : x y z
#
# Youngs Moduli (GPa) = 49.06191 40.43824 95.62102
#
# Poissons Ratio (x) = -0.12224 -0.46975
# Poissons Ratio (y) = -0.14831 -0.17130
# Poissons Ratio (z) = -0.24102 -0.07244
#
# Static dielectric constant tensor:
#      x y z
#    x 1.669310 0.000000 0.000000 
#    y 0.000000 1.701320 0.000000 
#    z 0.000000 0.000000 1.701170 
# 
# From -- ./inp_files/17732.got.cif
#   From: 2010.05.17/outbox.ucp.g08.bks.cvg/sg60_9_cif.got.tgz:17732.got - 2010.06.11 16:26:41.
