data_PCOD9458884
_publ_section_title
;
Structure prediction by ZEFSAII (Michael W. Deem and Ramdas Pophale) SiO2 
 PCOD9458884
Probable space group: P B C N
;
_chemical_formula_sum "Si O2"
_cell_formula_units_Z 64
_cell_length_a 21.000000
_cell_length_b 18.000000
_cell_length_c 9.000000
_cell_angle_alpha 90.000000
_cell_angle_beta 90.000000
_cell_angle_gamma 90.000000
_cell_volume 3402.000000
_symmetry_space_group_name_H-M "P B C N"
_symmetry_group_IT_number 60
_symmetry_cell_setting 'orthorhombic'
loop_
_space_group_symop_operation_xyz
x,y,z
1/2-x,1/2-y,1/2+z
1/2+x,1/2-y,-z
-x,y,1/2-z
-x,-y,-z
1/2+x,1/2+y,1/2-z
1/2-x,1/2+y,z
x,-y,1/2+z
loop_
_atom_site_type_symbol
_atom_site_label
_atom_site_fract_x
_atom_site_fract_y
_atom_site_fract_z
Si Si1 0.367649 0.916288 0.937437
Si Si2 0.300965 0.712549 0.783246
Si Si3 0.572668 0.790560 0.737988
Si Si4 0.726276 0.561251 0.162203
Si Si5 0.700544 0.301243 0.554019
Si Si6 0.741577 0.413546 0.008915
Si Si7 0.927658 0.541526 0.754216
Si Si8 0.878497 0.346611 0.038766
O O1 0.403982 0.840350 0.899020
O O2 0.291706 0.916816 0.924784
O O3 0.387796 0.976789 0.818473
O O4 0.395785 0.943321 0.090484
O O5 0.375331 0.726109 0.760744
O O6 0.277639 0.693670 0.617427
O O7 0.257881 0.782178 0.832062
O O8 0.289752 0.659201 0.921652
O O9 0.500000 0.767996 0.750000
O O10 0.586788 0.840486 0.882681
O O11 0.674832 0.619326 0.102461
O O12 0.715920 0.478244 0.112527
O O13 0.731207 0.569188 0.337784
O O14 0.650703 0.234297 0.571534
O O15 0.816780 0.399192 0.027364
O O16 0.922975 0.617082 0.659966
O O17 0.000000 0.516303 0.750000
#
# Coordination Sequence:
#
# PCOD9458884 Si02
#       8
#     8   8   8   8   8   8   8   8
#     4  12  22  34  52  75 108 150 196 223 270 320
#     4  10  21  36  55  83 107 147 179 235 278 330
#     4  11  21  38  57  79 112 149 191 227 273 333
#     4  12  21  36  55  84 106 151 174 230 284 337
#     4  10  20  34  56  76 108 136 184 224 283 326
#     4  11  22  35  56  77 114 135 186 224 281 337
#     4  12  24  36  50  73 109 155 195 229 264 312
#     4  10  21  37  52  79 106 144 182 235 267 321
#
# _framework density 18.812463000000001
#
# number of rings (size 3 to 8) (size 9 to 14) (size 15 to 20)
#    0.000    1.000    3.750    5.250    3.500    1.000 
#    0.000    0.000    0.000    0.000    0.000    8.750 
#    0.000    0.000    0.000    0.000    0.000    0.000 
#
# Total GULP energy -356523.885603 kJ/mol
# GULP energy per Si atom -5570.685713 kJ/mol
# Density = 1.876965 g / cm^3
# Si number density = 18.812463 Si / 1000 Ang^3
#
#
#
# Elastic Constant Matrix: (Units=GPa)
#
#
# Indices 1 2 3 4 5 6 
#
# 1 8.7767 3.3198 1.6183 0.0000 0.0000 0.0000
# 2 3.3198 51.5700 16.9446 0.0000 0.0000 0.0000
# 3 1.6183 16.9446 50.8045 0.0000 0.0000 0.0000
# 4 0.0000 0.0000 0.0000 22.9074 0.0000 0.0000
# 5 0.0000 0.0000 0.0000 0.0000 18.2050 0.0000
# 6 0.0000 0.0000 0.0000 0.0000 0.0000 14.7395
#
#
#
# Elastic Compliance Matrix: (Units=1/GPa)
#
#
# Indices 1 2 3 4 5 6 
#
# 1 0.116866 -0.007075 -0.001363 0.000000 0.000000 0.000000
# 2 -0.007075 0.022206 -0.007181 0.000000 0.000000 0.000000
# 3 -0.001363 -0.007181 0.022122 0.000000 0.000000 0.000000
# 4 0.000000 0.000000 0.000000 0.043654 0.000000 0.000000
# 5 0.000000 0.000000 0.000000 0.000000 0.054930 0.000000
# 6 0.000000 0.000000 0.000000 0.000000 0.000000 0.067845
#
#
# Mechanical properties :
#
#
# Convention : Reuss Voigt Hill
#
# Bulk Modulus (GPa) = 7.69496 17.21297 12.45397
# Shear Modulus (GPa) = 12.43228 17.12161 14.77694
#
# Velocity S-wave (km/s) = 2.57350 3.02009 2.80569
# Velocity P-wave (km/s) = 3.59579 4.61854 4.13888
#
# Compressibility (1/GPa) = 0.12995515
#
# Stress axis : x y z
#
# Youngs Moduli (GPa) = 8.55683 45.03270 45.20446
#
# Poissons Ratio (x) = 0.31863 0.06160
# Poissons Ratio (y) = 0.06054 0.32461
# Poissons Ratio (z) = 0.01166 0.32338
#
# Static dielectric constant tensor:
#      x y z
#    x 1.627950 0.000000 0.000000 
#    y 0.000000 1.728880 0.000000 
#    z 0.000000 0.000000 1.665210 
# 
# From -- ./inp_files/7551.got.cif
#   From: 2010.05.17/outbox.ucp.g08.bks.cvg/sg60_4_cif.got.tgz:7551.got - 2010.06.11 16:26:41.
