data_PCOD9458062
_publ_section_title
;
Structure prediction by ZEFSAII (Michael W. Deem and Ramdas Pophale) SiO2 
 PCOD9458062
Probable space group: P B C N
;
_chemical_formula_sum "Si O2"
_cell_formula_units_Z 40
_cell_length_a 5.439727
_cell_length_b 21.553461
_cell_length_c 15.349576
_cell_angle_alpha 90.000000
_cell_angle_beta 90.000000
_cell_angle_gamma 90.000000
_cell_volume 1799.660175
_symmetry_space_group_name_H-M "P B C N"
_symmetry_group_IT_number 60
_symmetry_cell_setting 'orthorhombic'
loop_
_space_group_symop_operation_xyz
x,y,z
1/2-x,1/2-y,1/2+z
1/2+x,1/2-y,-z
-x,y,1/2-z
-x,-y,-z
1/2+x,1/2+y,1/2-z
1/2-x,1/2+y,z
x,-y,1/2+z
loop_
_atom_site_type_symbol
_atom_site_label
_atom_site_fract_x
_atom_site_fract_y
_atom_site_fract_z
Si Si1 0.441176 0.631272 0.089114
Si Si2 0.390062 0.231270 0.653405
Si Si3 0.556589 0.881184 0.480927
Si Si4 0.316510 0.934962 0.326837
Si Si5 0.000000 0.955981 0.750000
Si Si6 0.500000 0.672116 0.750000
O O1 0.470751 0.702311 0.119840
O O2 0.408941 0.588219 0.173452
O O3 0.683175 0.613161 0.031431
O O4 0.181610 0.626599 0.040627
O O5 0.500000 0.218964 0.750000
O O6 0.439568 0.178940 0.582056
O O7 0.108506 0.220180 0.679098
O O8 0.476008 0.936137 0.414617
O O9 0.500000 0.919340 0.250000
O O10 0.124627 0.878274 0.316749
O O11 0.189286 0.998552 0.299119
#
# Coordination Sequence:
#
# PCOD9458062 Si02
#       6
#     8   8   8   8   4   4
#     4  12  30  48  72 111 162 189 250 317 396 454
#     4  12  24  44  78 109 151 198 240 307 390 469
#     4  12  26  48  75 115 145 194 254 321 371 454
#     4  11  24  47  80 103 148 202 268 312 371 460
#     4  11  30  50  72 106 152 219 250 318 392 455
#     4  11  20  42  80 110 142 197 254 304 372 463
#
# _framework density 22.226420999999998
#
# number of rings (size 3 to 8) (size 9 to 14) (size 15 to 20)
#    0.000    0.400    5.000    2.400    8.400    1.600 
#    0.000    0.000    0.000    0.000    0.000    0.000 
#    0.000    0.000    0.000    0.000    0.000    0.000 
#
# Total GULP energy -223103.398093 kJ/mol
# GULP energy per Si atom -5577.584952 kJ/mol
# Density = 2.217583 g / cm^3
# Si number density = 22.226421 Si / 1000 Ang^3
#
#
#
# Elastic Constant Matrix: (Units=GPa)
#
#
# Indices 1 2 3 4 5 6 
#
# 1 82.9330 31.0759 46.5952 0.0000 0.0000 0.0000
# 2 31.0759 75.6566 48.7167 0.0000 0.0000 0.0000
# 3 46.5952 48.7167 129.7546 0.0000 0.0000 0.0000
# 4 0.0000 0.0000 0.0000 54.0611 0.0000 0.0000
# 5 0.0000 0.0000 0.0000 0.0000 17.3814 0.0000
# 6 0.0000 0.0000 0.0000 0.0000 0.0000 16.1446
#
#
#
# Elastic Compliance Matrix: (Units=1/GPa)
#
#
# Indices 1 2 3 4 5 6 
#
# 1 0.015877 -0.003759 -0.004290 0.000000 0.000000 0.000000
# 2 -0.003759 0.018322 -0.005529 0.000000 0.000000 0.000000
# 3 -0.004290 -0.005529 0.011323 0.000000 0.000000 0.000000
# 4 0.000000 0.000000 0.000000 0.018498 0.000000 0.000000
# 5 0.000000 0.000000 0.000000 0.000000 0.057533 0.000000
# 6 0.000000 0.000000 0.000000 0.000000 0.000000 0.061940
#
#
# Mechanical properties :
#
#
# Convention : Reuss Voigt Hill
#
# Bulk Modulus (GPa) = 54.44925 60.12441 57.28683
# Shear Modulus (GPa) = 23.06580 28.31451 25.69015
#
# Velocity S-wave (km/s) = 3.22493 3.57306 3.40345
# Velocity P-wave (km/s) = 6.19819 6.64319 6.42455
#
# Compressibility (1/GPa) = 0.01836573
#
# Stress axis : x y z
#
# Youngs Moduli (GPa) = 62.98509 54.57937 88.31282
#
# Poissons Ratio (x) = 0.20516 0.37887
# Poissons Ratio (y) = 0.23676 0.48830
# Poissons Ratio (z) = 0.27021 0.30178
#
# Static dielectric constant tensor:
#      x y z
#    x 2.454230 0.000000 0.000000 
#    y 0.000000 1.854890 0.000000 
#    z 0.000000 0.000000 1.798670 
# 
# From -- ./inp_files/18640.got.cif
#   From: 2010.05.17/outbox.cif.g08.bks.cpg/sg60_10_cif.got.tgz:18640.got - 2010.06.03 14:59:27.
