data_PCOD9458432
_publ_section_title
;
Structure prediction by ZEFSAII (Michael W. Deem and Ramdas Pophale) SiO2 
 PCOD9458432
Probable space group: P B C N
;
_chemical_formula_sum "Si O2"
_cell_formula_units_Z 56
_cell_length_a 15.358307
_cell_length_b 10.157196
_cell_length_c 14.789642
_cell_angle_alpha 90.000000
_cell_angle_beta 90.000000
_cell_angle_gamma 90.000000
_cell_volume 2307.144729
_symmetry_space_group_name_H-M "P B C N"
_symmetry_group_IT_number 60
_symmetry_cell_setting 'orthorhombic'
loop_
_space_group_symop_operation_xyz
x,y,z
1/2-x,1/2-y,1/2+z
1/2+x,1/2-y,-z
-x,y,1/2-z
-x,-y,-z
1/2+x,1/2+y,1/2-z
1/2-x,1/2+y,z
x,-y,1/2+z
loop_
_atom_site_type_symbol
_atom_site_label
_atom_site_fract_x
_atom_site_fract_y
_atom_site_fract_z
Si Si1 0.076549 0.855302 0.679143
Si Si2 0.014368 0.538545 0.856661
Si Si3 0.169249 0.423126 0.144386
Si Si4 0.284175 0.600405 0.477983
Si Si5 0.475207 0.699135 0.478630
Si Si6 0.694539 0.553000 0.708500
Si Si7 0.122402 0.717957 0.386037
O O1 0.133938 0.728308 0.649192
O O2 0.000000 0.823734 0.750000
O O3 0.024506 0.900279 0.590204
O O4 0.135850 0.958044 0.730998
O O5 0.916175 0.494250 0.882586
O O6 0.000000 0.562059 0.750000
O O7 0.033069 0.665513 0.918616
O O8 0.085548 0.427179 0.868632
O O9 0.213188 0.442782 0.241311
O O10 0.240962 0.452785 0.069020
O O11 0.377989 0.658595 0.500567
O O12 0.297140 0.503403 0.392860
O O13 0.211247 0.703677 0.443145
O O14 0.542787 0.717876 0.559422
O O15 0.649561 0.695518 0.699855
#
# Coordination Sequence:
#
# PCOD9458432 Si02
#       7
#     8   8   8   8   8   8   8
#     4  11  23  50  74 103 152 207 251 310 400 456
#     4  11  25  49  80 106 151 206 260 319 382 458
#     4  11  26  49  78 113 152 207 260 321 379 470
#     4  12  27  46  78 113 155 204 256 321 387 462
#     4  11  25  48  78 108 154 205 257 313 392 467
#     4  12  29  45  76 115 160 194 261 325 388 465
#     4  12  28  48  75 116 152 197 264 323 379 465
#
# _framework density 24.272427
#
# number of rings (size 3 to 8) (size 9 to 14) (size 15 to 20)
#    0.000    0.571    4.286    3.857    6.000    4.571 
#    0.000    0.000    0.000    0.000    0.000    0.000 
#    0.000    0.000    0.000    0.000    0.000    0.000 
#
# Total GULP energy -313368.800688 kJ/mol
# GULP energy per Si atom -5595.871441 kJ/mol
# Density = 2.421718 g / cm^3
# Si number density = 24.272427 Si / 1000 Ang^3
#
#
#
# Elastic Constant Matrix: (Units=GPa)
#
#
# Indices 1 2 3 4 5 6 
#
# 1 186.3702 43.0825 39.4051 0.0000 0.0000 0.0000
# 2 43.0825 56.2345 6.0691 0.0000 0.0000 0.0000
# 3 39.4051 6.0691 65.2797 0.0000 0.0000 0.0000
# 4 0.0000 0.0000 0.0000 26.0123 0.0000 0.0000
# 5 0.0000 0.0000 0.0000 0.0000 55.6933 0.0000
# 6 0.0000 0.0000 0.0000 0.0000 0.0000 28.3239
#
#
#
# Elastic Compliance Matrix: (Units=1/GPa)
#
#
# Indices 1 2 3 4 5 6 
#
# 1 0.007425 -0.005258 -0.003993 0.000000 0.000000 0.000000
# 2 -0.005258 0.021686 0.001158 0.000000 0.000000 0.000000
# 3 -0.003993 0.001158 0.017622 0.000000 0.000000 0.000000
# 4 0.000000 0.000000 0.000000 0.038443 0.000000 0.000000
# 5 0.000000 0.000000 0.000000 0.000000 0.017955 0.000000
# 6 0.000000 0.000000 0.000000 0.000000 0.000000 0.035306
#
#
# Mechanical properties :
#
#
# Convention : Reuss Voigt Hill
#
# Bulk Modulus (GPa) = 32.73776 53.88862 43.31319
# Shear Modulus (GPa) = 30.33857 36.62776 33.48317
#
# Velocity S-wave (km/s) = 3.53926 3.88883 3.71816
# Velocity P-wave (km/s) = 5.49715 6.51259 6.02630
#
# Compressibility (1/GPa) = 0.03054577
#
# Stress axis : x y z
#
# Youngs Moduli (GPa) = 134.67218 46.11299 56.74841
#
# Poissons Ratio (x) = 0.24245 0.22662
# Poissons Ratio (y) = 0.70808 -0.06569
# Poissons Ratio (z) = 0.53780 -0.05338
#
# Static dielectric constant tensor:
#      x y z
#    x 1.926900 0.000000 0.000000 
#    y 0.000000 1.981090 0.000000 
#    z 0.000000 0.000000 1.970990 
# 
# From -- ./inp_files/16844.got.cif
#   From: 2010.05.17/outbox.cif.g08.bks.cpg/sg60_9_cif.got.tgz:16844.got - 2010.06.03 14:59:27.
