data_PCOD9458324
_publ_section_title
;
Structure prediction by ZEFSAII (Michael W. Deem and Ramdas Pophale) SiO2 
 PCOD9458324
Probable space group: P B C N
;
_chemical_formula_sum "Si O2"
_cell_formula_units_Z 40
_cell_length_a 5.458869
_cell_length_b 27.453004
_cell_length_c 12.861319
_cell_angle_alpha 90.000000
_cell_angle_beta 90.000000
_cell_angle_gamma 90.000000
_cell_volume 1927.427521
_symmetry_space_group_name_H-M "P B C N"
_symmetry_group_IT_number 60
_symmetry_cell_setting 'orthorhombic'
loop_
_space_group_symop_operation_xyz
x,y,z
1/2-x,1/2-y,1/2+z
1/2+x,1/2-y,-z
-x,y,1/2-z
-x,-y,-z
1/2+x,1/2+y,1/2-z
1/2-x,1/2+y,z
x,-y,1/2+z
loop_
_atom_site_type_symbol
_atom_site_label
_atom_site_fract_x
_atom_site_fract_y
_atom_site_fract_z
Si Si1 0.023101 0.140298 0.128921
Si Si2 0.357919 0.236970 0.142528
Si Si3 0.877183 0.313265 0.476601
Si Si4 0.505838 0.093552 0.627866
Si Si5 0.483585 0.444336 0.466008
O O1 0.202616 0.187144 0.135331
O O2 0.000000 0.126523 0.250000
O O3 0.074581 0.091431 0.063638
O O4 0.793842 0.161987 0.064044
O O5 0.500000 0.235833 0.250000
O O6 0.231639 0.288884 0.126987
O O7 0.518796 0.232618 0.038746
O O8 0.048387 0.355973 0.434656
O O9 0.500000 0.102593 0.750000
O O10 0.743573 0.060903 0.605789
O O11 0.242267 0.072733 0.586922
O O12 0.500000 0.500000 0.500000
#
# Coordination Sequence:
#
# PCOD9458324 Si02
#       5
#     8   8   8   8   8
#     4  11  23  40  64  94 130 179 230 291 347 417
#     4  12  23  39  65  94 137 184 234 278 350 413
#     4  11  24  39  63  96 136 181 229 283 338 415
#     4  11  25  45  72 100 142 180 231 286 354 418
#     4  11  25  47  72 104 137 180 232 297 358 425
#
# _framework density 20.753049000000001
#
# number of rings (size 3 to 8) (size 9 to 14) (size 15 to 20)
#    0.000    0.800    6.000    1.200    0.000    7.200 
#    0.000    1.000    0.000    0.000    0.000    0.000 
#    0.000    0.000    0.000    0.000    0.000    0.000 
#
# Total GULP energy -222928.487598 kJ/mol
# GULP energy per Si atom -5573.212190 kJ/mol
# Density = 2.070581 g / cm^3
# Si number density = 20.753049 Si / 1000 Ang^3
#
#
#
# Elastic Constant Matrix: (Units=GPa)
#
#
# Indices 1 2 3 4 5 6 
#
# 1 68.3334 21.4786 32.2788 0.0000 0.0000 0.0000
# 2 21.4786 101.5431 39.0518 0.0000 0.0000 0.0000
# 3 32.2788 39.0518 126.2355 0.0000 0.0000 0.0000
# 4 0.0000 0.0000 0.0000 27.3959 0.0000 0.0000
# 5 0.0000 0.0000 0.0000 0.0000 22.8839 0.0000
# 6 0.0000 0.0000 0.0000 0.0000 0.0000 28.3363
#
#
#
# Elastic Compliance Matrix: (Units=1/GPa)
#
#
# Indices 1 2 3 4 5 6 
#
# 1 0.017064 -0.002192 -0.003685 0.000000 0.000000 0.000000
# 2 -0.002192 0.011460 -0.002985 0.000000 0.000000 0.000000
# 3 -0.003685 -0.002985 0.009787 0.000000 0.000000 0.000000
# 4 0.000000 0.000000 0.000000 0.036502 0.000000 0.000000
# 5 0.000000 0.000000 0.000000 0.000000 0.043699 0.000000
# 6 0.000000 0.000000 0.000000 0.000000 0.000000 0.035290
#
#
# Mechanical properties :
#
#
# Convention : Reuss Voigt Hill
#
# Bulk Modulus (GPa) = 48.57414 53.52559 51.04986
# Shear Modulus (GPa) = 28.02881 29.27674 28.65278
#
# Velocity S-wave (km/s) = 3.67902 3.76003 3.71975
# Velocity P-wave (km/s) = 6.44232 6.68566 6.56512
#
# Compressibility (1/GPa) = 0.02058709
#
# Stress axis : x y z
#
# Youngs Moduli (GPa) = 58.60315 87.26359 102.17327
#
# Poissons Ratio (x) = 0.19129 0.37652
# Poissons Ratio (y) = 0.12847 0.30494
# Poissons Ratio (z) = 0.21596 0.26044
#
# Static dielectric constant tensor:
#      x y z
#    x 2.003010 0.000000 0.000000 
#    y 0.000000 1.724790 0.000000 
#    z 0.000000 0.000000 1.723710 
# 
# From -- ./inp_files/9047.got.cif
#   From: 2010.05.17/outbox.cif.g08.bks.cpg/sg60_5_cif.got.tgz:9047.got - 2010.06.03 14:59:27.
