data_PCOD9458485
_publ_section_title
;
Structure prediction by ZEFSAII (Michael W. Deem and Ramdas Pophale) SiO2 
 PCOD9458485
Probable space group: P B C N
;
_chemical_formula_sum "Si O2"
_cell_formula_units_Z 32
_cell_length_a 4.887404
_cell_length_b 21.139856
_cell_length_c 12.794653
_cell_angle_alpha 90.000000
_cell_angle_beta 90.000000
_cell_angle_gamma 90.000000
_cell_volume 1321.930968
_symmetry_space_group_name_H-M "P B C N"
_symmetry_group_IT_number 60
_symmetry_cell_setting 'orthorhombic'
loop_
_space_group_symop_operation_xyz
x,y,z
1/2-x,1/2-y,1/2+z
1/2+x,1/2-y,-z
-x,y,1/2-z
-x,-y,-z
1/2+x,1/2+y,1/2-z
1/2-x,1/2+y,z
x,-y,1/2+z
loop_
_atom_site_type_symbol
_atom_site_label
_atom_site_fract_x
_atom_site_fract_y
_atom_site_fract_z
Si Si1 0.289594 0.159524 0.661351
Si Si2 0.500000 0.221932 0.250000
Si Si3 0.834025 0.039788 0.412161
Si Si4 0.830720 0.373131 0.570335
Si Si5 0.500000 0.443953 0.250000
O O1 0.500000 0.132782 0.750000
O O2 0.213856 0.228814 0.699822
O O3 0.376541 0.158903 0.542275
O O4 0.029121 0.111203 0.660845
O O5 0.601565 0.176921 0.158913
O O6 0.535074 0.066734 0.433682
O O7 0.030902 0.100450 0.401981
O O8 0.812122 0.995511 0.309654
O O9 0.000000 0.000000 0.500000
#
# Coordination Sequence:
#
# PCOD9458485 Si02
#       5
#     8   4   8   8   4
#     4  11  27  46  75 103 149 198 249 305 367 443
#     4  11  30  48  74 110 146 203 254 316 366 445
#     4  12  25  46  75 109 148 190 239 308 369 453
#     4  12  28  49  76 109 149 194 251 305 381 437
#     4  11  24  44  72 112 148 189 244 294 384 437
#
# _framework density 24.207014000000001
#
# number of rings (size 3 to 8) (size 9 to 14) (size 15 to 20)
#    0.000    0.500    2.500    3.750   14.000    0.000 
#    0.000    0.000    0.000    0.000    0.000    0.000 
#    0.000    0.000    0.000    0.000    0.000    0.000 
#
# Total GULP energy -178296.109632 kJ/mol
# GULP energy per Si atom -5571.753426 kJ/mol
# Density = 2.415192 g / cm^3
# Si number density = 24.207014 Si / 1000 Ang^3
#
#
#
# Elastic Constant Matrix: (Units=GPa)
#
#
# Indices 1 2 3 4 5 6 
#
# 1 78.0795 12.2956 16.9110 0.0000 0.0000 0.0000
# 2 12.2956 110.2445 73.0747 0.0000 0.0000 0.0000
# 3 16.9110 73.0747 171.5486 0.0000 0.0000 0.0000
# 4 0.0000 0.0000 0.0000 48.1187 0.0000 0.0000
# 5 0.0000 0.0000 0.0000 0.0000 26.2325 0.0000
# 6 0.0000 0.0000 0.0000 0.0000 0.0000 20.1085
#
#
#
# Elastic Compliance Matrix: (Units=1/GPa)
#
#
# Indices 1 2 3 4 5 6 
#
# 1 0.013143 -0.000846 -0.000935 0.000000 0.000000 0.000000
# 2 -0.000846 0.012694 -0.005324 0.000000 0.000000 0.000000
# 3 -0.000935 -0.005324 0.008189 0.000000 0.000000 0.000000
# 4 0.000000 0.000000 0.000000 0.020782 0.000000 0.000000
# 5 0.000000 0.000000 0.000000 0.000000 0.038121 0.000000
# 6 0.000000 0.000000 0.000000 0.000000 0.000000 0.049730
#
#
# Mechanical properties :
#
#
# Convention : Reuss Voigt Hill
#
# Bulk Modulus (GPa) = 50.46347 62.71502 56.58925
# Shear Modulus (GPa) = 30.58573 36.06469 33.32521
#
# Velocity S-wave (km/s) = 3.55844 3.86404 3.71438
# Velocity P-wave (km/s) = 6.14615 6.77287 6.46711
#
# Compressibility (1/GPa) = 0.01981631
#
# Stress axis : x y z
#
# Youngs Moduli (GPa) = 76.08472 78.77747 122.11100
#
# Poissons Ratio (x) = 0.06664 0.11421
# Poissons Ratio (y) = 0.06436 0.65010
# Poissons Ratio (z) = 0.07116 0.41940
#
# Static dielectric constant tensor:
#      x y z
#    x 2.105110 0.000000 0.000000 
#    y 0.000000 1.881970 0.000000 
#    z 0.000000 0.000000 1.950390 
# 
# From -- ./inp_files/13610.got.cif
#   From: 2010.05.17/outbox.cif.g08.bks.cpg/sg60_7_cif.got.tgz:13610.got - 2010.06.03 14:59:27.
