data_PCOD9458670
_publ_section_title
;
Structure prediction by ZEFSAII (Michael W. Deem and Ramdas Pophale) SiO2 
 PCOD9458670
Probable space group: P B C N
;
_chemical_formula_sum "Si O2"
_cell_formula_units_Z 40
_cell_length_a 7.208733
_cell_length_b 10.118488
_cell_length_c 23.265083
_cell_angle_alpha 90.000000
_cell_angle_beta 90.000000
_cell_angle_gamma 90.000000
_cell_volume 1696.989548
_symmetry_space_group_name_H-M "P B C N"
_symmetry_group_IT_number 60
_symmetry_cell_setting 'orthorhombic'
loop_
_space_group_symop_operation_xyz
x,y,z
1/2-x,1/2-y,1/2+z
1/2+x,1/2-y,-z
-x,y,1/2-z
-x,-y,-z
1/2+x,1/2+y,1/2-z
1/2-x,1/2+y,z
x,-y,1/2+z
loop_
_atom_site_type_symbol
_atom_site_label
_atom_site_fract_x
_atom_site_fract_y
_atom_site_fract_z
Si Si1 0.923708 0.844722 0.186524
Si Si2 0.593043 0.661196 0.451215
Si Si3 0.623945 0.667900 0.932168
Si Si4 0.256009 0.401783 0.865456
Si Si5 0.093110 0.494928 0.561541
O O1 0.782114 0.729127 0.170765
O O2 0.000000 0.828599 0.250000
O O3 0.072267 0.830902 0.135390
O O4 0.841167 0.988703 0.176106
O O5 0.544190 0.665585 0.519428
O O6 0.668907 0.495894 0.439635
O O7 0.399095 0.637342 0.416214
O O8 0.628439 0.830857 0.434078
O O9 0.670460 0.829120 0.941920
O O10 0.067361 0.465684 0.891194
O O11 0.000000 0.500000 0.500000
#
# Coordination Sequence:
#
# PCOD9458670 Si02
#       5
#     8   8   8   8   8
#     4  12  29  51  79 110 150 207 263 308 377 463
#     4  12  23  42  73 108 156 193 247 321 387 455
#     4  12  23  43  70 109 154 196 250 313 387 450
#     4  12  26  52  78 112 152 203 255 320 387 455
#     4  12  22  40  72 110 152 195 240 311 390 458
#
# _framework density 23.571152999999999
#
# number of rings (size 3 to 8) (size 9 to 14) (size 15 to 20)
#    0.000    0.000    6.000    5.400    0.000    3.200 
#    0.000    3.000    0.000    0.000    0.000    0.000 
#    0.000    0.000    0.000    0.000    0.000    0.000 
#
# Total GULP energy -223307.365400 kJ/mol
# GULP energy per Si atom -5582.684135 kJ/mol
# Density = 2.351750 g / cm^3
# Si number density = 23.571153 Si / 1000 Ang^3
#
#
#
# Elastic Constant Matrix: (Units=GPa)
#
#
# Indices 1 2 3 4 5 6 
#
# 1 141.5768 73.2840 75.3304 0.0000 0.0000 0.0000
# 2 73.2840 206.6583 35.4381 0.0000 0.0000 0.0000
# 3 75.3304 35.4381 172.0017 0.0000 0.0000 0.0000
# 4 0.0000 0.0000 0.0000 30.3884 0.0000 0.0000
# 5 0.0000 0.0000 0.0000 0.0000 12.6660 0.0000
# 6 0.0000 0.0000 0.0000 0.0000 0.0000 91.3689
#
#
#
# Elastic Compliance Matrix: (Units=1/GPa)
#
#
# Indices 1 2 3 4 5 6 
#
# 1 0.010888 -0.003155 -0.004118 0.000000 0.000000 0.000000
# 2 -0.003155 0.005930 0.000160 0.000000 0.000000 0.000000
# 3 -0.004118 0.000160 0.007585 0.000000 0.000000 0.000000
# 4 0.000000 0.000000 0.000000 0.032907 0.000000 0.000000
# 5 0.000000 0.000000 0.000000 0.000000 0.078952 0.000000
# 6 0.000000 0.000000 0.000000 0.000000 0.000000 0.010945
#
#
# Mechanical properties :
#
#
# Convention : Reuss Voigt Hill
#
# Bulk Modulus (GPa) = 98.27093 98.70463 98.48778
# Shear Modulus (GPa) = 30.33532 49.29696 39.81614
#
# Velocity S-wave (km/s) = 3.59133 4.57816 4.11443
# Velocity P-wave (km/s) = 7.67975 8.36135 8.02778
#
# Compressibility (1/GPa) = 0.01017595
#
# Stress axis : x y z
#
# Youngs Moduli (GPa) = 91.84795 168.62867 131.84493
#
# Poissons Ratio (x) = 0.53197 0.54299
# Poissons Ratio (y) = 0.28975 -0.02107
# Poissons Ratio (z) = 0.37826 -0.02695
#
# Static dielectric constant tensor:
#      x y z
#    x 1.955110 0.000000 0.000000 
#    y 0.000000 2.240200 0.000000 
#    z 0.000000 0.000000 1.747610 
# 
# From -- ./inp_files/22548.got.cif
#   From: 2010.05.17/outbox.cif.g08.bks.cpg/sg60_12_cif.got.tgz:22548.got - 2010.06.03 14:59:27.
