data_PCOD9458466
_publ_section_title
;
Structure prediction by ZEFSAII (Michael W. Deem and Ramdas Pophale) SiO2 
 PCOD9458466
Probable space group: P B C N
;
_chemical_formula_sum "Si O2"
_cell_formula_units_Z 36
_cell_length_a 8.395729
_cell_length_b 20.836795
_cell_length_c 8.393413
_cell_angle_alpha 90.000000
_cell_angle_beta 90.000000
_cell_angle_gamma 90.000000
_cell_volume 1468.344376
_symmetry_space_group_name_H-M "P B C N"
_symmetry_group_IT_number 60
_symmetry_cell_setting 'orthorhombic'
loop_
_space_group_symop_operation_xyz
x,y,z
1/2-x,1/2-y,1/2+z
1/2+x,1/2-y,-z
-x,y,1/2-z
-x,-y,-z
1/2+x,1/2+y,1/2-z
1/2-x,1/2+y,z
x,-y,1/2+z
loop_
_atom_site_type_symbol
_atom_site_label
_atom_site_fract_x
_atom_site_fract_y
_atom_site_fract_z
Si Si1 0.245947 0.880634 0.820135
Si Si2 0.000000 0.847853 0.250000
Si Si3 0.925889 0.929923 0.972882
Si Si4 0.725524 0.760061 0.884838
Si Si5 0.490410 0.158929 0.570965
O O1 0.214473 0.923782 0.659388
O O2 0.254788 0.807217 0.764480
O O3 0.602036 0.885780 0.559955
O O4 0.080289 0.892046 0.908502
O O5 0.895286 0.895704 0.140984
O O6 0.891299 0.798274 0.346150
O O7 0.000000 0.000000 0.000000
O O8 0.886944 0.724135 0.919994
O O9 0.655045 0.810577 0.010623
O O10 0.500000 0.131665 0.750000
#
# Coordination Sequence:
#
# PCOD9458466 Si02
#       5
#     8   4   8   8   8
#     4  11  24  43  68 105 148 183 250 325 370 458
#     4  12  22  40  72 110 146 190 250 310 402 462
#     4  11  26  46  74 105 144 205 266 316 368 455
#     4  12  25  41  68 114 153 195 240 316 409 462
#     4  12  26  41  67 107 159 198 238 302 406 485
#
# _framework density 24.517409000000001
#
# number of rings (size 3 to 8) (size 9 to 14) (size 15 to 20)
#    0.000    0.444    4.444    4.000    9.333    0.000 
#    0.000    0.000    0.000    9.333    0.000    0.000 
#    0.000    0.000    0.000    0.000    0.000    0.000 
#
# Total GULP energy -201036.143326 kJ/mol
# GULP energy per Si atom -5584.337315 kJ/mol
# Density = 2.446161 g / cm^3
# Si number density = 24.517409 Si / 1000 Ang^3
#
#
#
# Elastic Constant Matrix: (Units=GPa)
#
#
# Indices 1 2 3 4 5 6 
#
# 1 58.1339 21.5589 34.6183 0.0000 0.0000 0.0000
# 2 21.5589 116.6151 64.3074 0.0000 0.0000 0.0000
# 3 34.6183 64.3074 147.1818 0.0000 0.0000 0.0000
# 4 0.0000 0.0000 0.0000 21.5612 0.0000 0.0000
# 5 0.0000 0.0000 0.0000 0.0000 58.0686 0.0000
# 6 0.0000 0.0000 0.0000 0.0000 0.0000 24.4124
#
#
#
# Elastic Compliance Matrix: (Units=1/GPa)
#
#
# Indices 1 2 3 4 5 6 
#
# 1 0.020192 -0.001468 -0.004108 0.000000 0.000000 0.000000
# 2 -0.001468 0.011404 -0.004637 0.000000 0.000000 0.000000
# 3 -0.004108 -0.004637 0.009787 0.000000 0.000000 0.000000
# 4 0.000000 0.000000 0.000000 0.046380 0.000000 0.000000
# 5 0.000000 0.000000 0.000000 0.000000 0.017221 0.000000
# 6 0.000000 0.000000 0.000000 0.000000 0.000000 0.040963
#
#
# Mechanical properties :
#
#
# Convention : Reuss Voigt Hill
#
# Bulk Modulus (GPa) = 47.71763 62.54446 55.13104
# Shear Modulus (GPa) = 28.84201 34.23819 31.54010
#
# Velocity S-wave (km/s) = 3.43357 3.74101 3.59058
# Velocity P-wave (km/s) = 5.93500 6.65025 6.30278
#
# Compressibility (1/GPa) = 0.02095662
#
# Stress axis : x y z
#
# Youngs Moduli (GPa) = 49.52383 87.68968 102.17830
#
# Poissons Ratio (x) = 0.12869 0.41977
# Poissons Ratio (y) = 0.07268 0.47385
# Poissons Ratio (z) = 0.20345 0.40666
#
# Static dielectric constant tensor:
#      x y z
#    x 2.126420 0.000000 0.000000 
#    y 0.000000 1.859540 0.000000 
#    z 0.000000 0.000000 2.314140 
# 
# From -- ./inp_files/3664.got.cif
#   From: 2010.05.17/outbox.cif.g08.bks.cpg/sg60_2_cif.got.tgz:3664.got - 2010.06.03 14:59:27.
