data_PCOD9458174
_publ_section_title
;
Structure prediction by ZEFSAII (Michael W. Deem and Ramdas Pophale) SiO2 
 PCOD9458174
Probable space group: P B C N
;
_chemical_formula_sum "Si O2"
_cell_formula_units_Z 32
_cell_length_a 8.895121
_cell_length_b 10.699883
_cell_length_c 12.581831
_cell_angle_alpha 90.000000
_cell_angle_beta 90.000000
_cell_angle_gamma 90.000000
_cell_volume 1197.497834
_symmetry_space_group_name_H-M "P B C N"
_symmetry_group_IT_number 60
_symmetry_cell_setting 'orthorhombic'
loop_
_space_group_symop_operation_xyz
x,y,z
1/2-x,1/2-y,1/2+z
1/2+x,1/2-y,-z
-x,y,1/2-z
-x,-y,-z
1/2+x,1/2+y,1/2-z
1/2-x,1/2+y,z
x,-y,1/2+z
loop_
_atom_site_type_symbol
_atom_site_label
_atom_site_fract_x
_atom_site_fract_y
_atom_site_fract_z
Si Si1 0.422463 0.677242 0.450954
Si Si2 0.654600 0.104725 0.685608
Si Si3 0.498238 0.857589 0.627581
Si Si4 0.821334 0.990424 0.871411
O O1 0.322246 0.772000 0.382713
O O2 0.519440 0.763851 0.530885
O O3 0.340029 0.585061 0.531296
O O4 0.033147 0.902829 0.623039
O O5 0.500000 0.130772 0.750000
O O6 0.787854 0.068534 0.764768
O O7 0.607449 0.978065 0.624507
O O8 0.500000 0.810486 0.750000
O O9 0.327594 0.907796 0.614934
#
# Coordination Sequence:
#
# PCOD9458174 Si02
#       4
#     8   8   8   8
#     4  11  21  44  76 107 152 198 254 320 387 446
#     4   9  21  45  70 103 152 197 255 309 388 455
#     4   9  21  44  73 105 146 194 251 301 390 457
#     4   9  23  43  69 115 147 193 264 307 386 468
#
# _framework density 26.722389
#
# number of rings (size 3 to 8) (size 9 to 14) (size 15 to 20)
#    0.000    3.000    0.000    0.750    7.000    0.000 
#    9.000    2.500    0.000    1.500    0.000    0.000 
#    0.000    0.000    0.000    0.000    0.000    0.000 
#
# Total GULP energy -179525.870479 kJ/mol
# GULP energy per Si atom -5610.183452 kJ/mol
# Density = 2.666157 g / cm^3
# Si number density = 26.722389 Si / 1000 Ang^3
#
#
#
# Elastic Constant Matrix: (Units=GPa)
#
#
# Indices 1 2 3 4 5 6 
#
# 1 113.9988 60.9585 83.5757 0.0000 0.0000 0.0000
# 2 60.9585 121.4954 91.7747 0.0000 0.0000 0.0000
# 3 83.5757 91.7747 162.1202 0.0000 0.0000 0.0000
# 4 0.0000 0.0000 0.0000 97.4117 0.0000 0.0000
# 5 0.0000 0.0000 0.0000 0.0000 60.7385 0.0000
# 6 0.0000 0.0000 0.0000 0.0000 0.0000 10.7207
#
#
#
# Elastic Compliance Matrix: (Units=1/GPa)
#
#
# Indices 1 2 3 4 5 6 
#
# 1 0.014655 -0.002876 -0.005927 0.000000 0.000000 0.000000
# 2 -0.002876 0.014944 -0.006977 0.000000 0.000000 0.000000
# 3 -0.005927 -0.006977 0.013173 0.000000 0.000000 0.000000
# 4 0.000000 0.000000 0.000000 0.010266 0.000000 0.000000
# 5 0.000000 0.000000 0.000000 0.000000 0.016464 0.000000
# 6 0.000000 0.000000 0.000000 0.000000 0.000000 0.093278
#
#
# Mechanical properties :
#
#
# Convention : Reuss Voigt Hill
#
# Bulk Modulus (GPa) = 89.18525 96.69246 92.93885
# Shear Modulus (GPa) = 25.24267 44.52787 34.88527
#
# Velocity S-wave (km/s) = 3.07681 4.08648 3.61705
# Velocity P-wave (km/s) = 6.78745 7.65038 7.23180
#
# Compressibility (1/GPa) = 0.01121262
#
# Stress axis : x y z
#
# Youngs Moduli (GPa) = 68.23591 66.91631 75.91085
#
# Poissons Ratio (x) = 0.19245 0.44992
# Poissons Ratio (y) = 0.19624 0.52964
# Poissons Ratio (z) = 0.40443 0.46688
#
# Static dielectric constant tensor:
#      x y z
#    x 2.068160 0.000000 0.000000 
#    y 0.000000 2.087020 0.000000 
#    z 0.000000 0.000000 2.082000 
# 
# From -- ./inp_files/16506.got.cif
#   From: 2010.05.17/outbox.cif.g08.bks.cpg/sg60_9_cif.got.tgz:16506.got - 2010.06.03 14:59:27.
