data_PCOD9458910
_publ_section_title
;
Structure prediction by ZEFSAII (Michael W. Deem and Ramdas Pophale) SiO2 
 PCOD9458910
Probable space group: P B C N
;
_chemical_formula_sum "Si O2"
_cell_formula_units_Z 24
_cell_length_a 9.000000
_cell_length_b 15.000000
_cell_length_c 9.000000
_cell_angle_alpha 90.000000
_cell_angle_beta 90.000000
_cell_angle_gamma 90.000000
_cell_volume 1215.000000
_symmetry_space_group_name_H-M "P B C N"
_symmetry_group_IT_number 60
_symmetry_cell_setting 'orthorhombic'
loop_
_space_group_symop_operation_xyz
x,y,z
1/2-x,1/2-y,1/2+z
1/2+x,1/2-y,-z
-x,y,1/2-z
-x,-y,-z
1/2+x,1/2+y,1/2-z
1/2-x,1/2+y,z
x,-y,1/2+z
loop_
_atom_site_type_symbol
_atom_site_label
_atom_site_fract_x
_atom_site_fract_y
_atom_site_fract_z
Si Si1 0.674771 0.210714 0.269142
Si Si2 0.667235 0.627993 0.559932
Si Si3 0.885288 0.073915 0.112116
O O1 0.500000 0.192941 0.250000
O O2 0.741136 0.179278 0.429169
O O3 0.694480 0.312349 0.207120
O O4 0.765238 0.145769 0.159686
O O5 0.693233 0.520793 0.574070
O O6 0.493024 0.619941 0.510516
O O7 0.000000 0.056327 0.250000
#
# Coordination Sequence:
#
# PCOD9458910 Si02
#       3
#     8   8   8
#     4  11  22  36  59  88 114 145 191 247 289 329
#     4  10  21  39  61  83 115 156 194 232 289 356
#     4   9  20  39  60  82 113 158 197 228 284 359
#
# _framework density 19.753086
#
# number of rings (size 3 to 8) (size 9 to 14) (size 15 to 20)
#    0.000    2.000    0.000    3.000    0.000    6.667 
#    0.000    5.000    0.000    0.000    0.000    0.000 
#    0.000    0.000    0.000    0.000    0.000    0.000 
#
# Total GULP energy -133763.459120 kJ/mol
# GULP energy per Si atom -5573.477463 kJ/mol
# Density = 1.970813 g / cm^3
# Si number density = 19.753086 Si / 1000 Ang^3
#
#
#
# Elastic Constant Matrix: (Units=GPa)
#
#
# Indices 1 2 3 4 5 6 
#
# 1 66.9316 41.6904 11.4495 0.0000 0.0000 0.0000
# 2 41.6904 135.8126 40.6431 0.0000 0.0000 0.0000
# 3 11.4495 40.6431 69.8686 0.0000 0.0000 0.0000
# 4 0.0000 0.0000 0.0000 39.8229 0.0000 0.0000
# 5 0.0000 0.0000 0.0000 0.0000 36.5920 0.0000
# 6 0.0000 0.0000 0.0000 0.0000 0.0000 35.1483
#
#
#
# Elastic Compliance Matrix: (Units=1/GPa)
#
#
# Indices 1 2 3 4 5 6 
#
# 1 0.018479 -0.005771 0.000329 0.000000 0.000000 0.000000
# 2 -0.005771 0.010717 -0.005289 0.000000 0.000000 0.000000
# 3 0.000329 -0.005289 0.017335 0.000000 0.000000 0.000000
# 4 0.000000 0.000000 0.000000 0.025111 0.000000 0.000000
# 5 0.000000 0.000000 0.000000 0.000000 0.027328 0.000000
# 6 0.000000 0.000000 0.000000 0.000000 0.000000 0.028451
#
#
# Mechanical properties :
#
#
# Convention : Reuss Voigt Hill
#
# Bulk Modulus (GPa) = 39.88845 51.13097 45.50971
# Shear Modulus (GPa) = 31.79857 34.23465 33.01661
#
# Velocity S-wave (km/s) = 4.01659 4.16760 4.09279
# Velocity P-wave (km/s) = 6.46127 7.00713 6.73973
#
# Compressibility (1/GPa) = 0.02506991
#
# Stress axis : x y z
#
# Youngs Moduli (GPa) = 54.11560 93.30758 57.68632
#
# Poissons Ratio (x) = 0.53847 -0.01897
# Poissons Ratio (y) = 0.31229 0.30508
# Poissons Ratio (z) = -0.01779 0.49347
#
# Static dielectric constant tensor:
#      x y z
#    x 1.665380 0.000000 0.000000 
#    y 0.000000 1.696490 0.000000 
#    z 0.000000 0.000000 1.804500 
# 
# From -- ./inp_files/3354.got.cif
#   From: 2010.05.17/outbox.ucp.g08.bks.cvg/sg60_2_cif.got.tgz:3354.got - 2010.06.11 16:26:41.
