data_PCOD9458349
_publ_section_title
;
Structure prediction by ZEFSAII (Michael W. Deem and Ramdas Pophale) SiO2 
 PCOD9458349
Probable space group: P B C N
;
_chemical_formula_sum "Si O2"
_cell_formula_units_Z 56
_cell_length_a 19.416636
_cell_length_b 14.738110
_cell_length_c 9.192214
_cell_angle_alpha 90.000000
_cell_angle_beta 90.000000
_cell_angle_gamma 90.000000
_cell_volume 2630.485481
_symmetry_space_group_name_H-M "P B C N"
_symmetry_group_IT_number 60
_symmetry_cell_setting 'orthorhombic'
loop_
_space_group_symop_operation_xyz
x,y,z
1/2-x,1/2-y,1/2+z
1/2+x,1/2-y,-z
-x,y,1/2-z
-x,-y,-z
1/2+x,1/2+y,1/2-z
1/2-x,1/2+y,z
x,-y,1/2+z
loop_
_atom_site_type_symbol
_atom_site_label
_atom_site_fract_x
_atom_site_fract_y
_atom_site_fract_z
Si Si1 0.917812 0.594050 0.088813
Si Si2 0.702979 0.404478 0.675612
Si Si3 0.178570 0.086790 0.988308
Si Si4 0.018130 0.091678 0.916617
Si Si5 0.390348 0.283993 0.033494
Si Si6 0.580188 0.085746 0.437376
Si Si7 0.322297 0.759224 0.842332
O O1 0.911301 0.582537 0.263102
O O2 0.880616 0.689339 0.062372
O O3 0.997684 0.595031 0.044226
O O4 0.890058 0.504978 0.008395
O O5 0.709925 0.499413 0.590985
O O6 0.649341 0.346326 0.580304
O O7 0.769647 0.340773 0.689124
O O8 0.679447 0.424791 0.839198
O O9 0.099261 0.102682 0.940381
O O10 0.213321 0.179766 0.934130
O O11 0.000000 0.075344 0.750000
O O12 0.967767 0.175142 0.958069
O O13 0.000000 0.000000 0.000000
O O14 0.390400 0.177804 0.995903
O O15 0.354471 0.282586 0.193944
#
# Coordination Sequence:
#
# PCOD9458349 Si02
#       7
#     8   8   8   8   8   8   8
#     4   9  19  36  60  91 120 169 213 276 331 390
#     4  12  27  43  65  96 140 179 227 279 338 421
#     4  12  25  45  67 101 135 178 230 285 343 407
#     4  12  23  41  73 100 136 172 224 293 355 410
#     4  11  23  42  66  99 131 179 224 284 349 410
#     4   9  19  36  62  88 125 157 219 274 335 395
#     4  11  24  44  67  93 134 183 231 272 338 414
#
# _framework density 21.288845999999999
#
# number of rings (size 3 to 8) (size 9 to 14) (size 15 to 20)
#    0.000    1.143    2.857    3.429    2.000    4.571 
#    0.000    2.857    0.000    0.000    0.000    0.000 
#    0.000    0.000    0.000    0.000    0.000    0.000 
#
# Total GULP energy -312838.752369 kJ/mol
# GULP energy per Si atom -5586.406292 kJ/mol
# Density = 2.124039 g / cm^3
# Si number density = 21.288846 Si / 1000 Ang^3
#
#
#
# Elastic Constant Matrix: (Units=GPa)
#
#
# Indices 1 2 3 4 5 6 
#
# 1 73.9957 13.4070 23.3815 0.0000 0.0000 0.0000
# 2 13.4070 162.6235 63.5435 0.0000 0.0000 0.0000
# 3 23.3815 63.5435 86.0162 0.0000 0.0000 0.0000
# 4 0.0000 0.0000 0.0000 42.1818 0.0000 0.0000
# 5 0.0000 0.0000 0.0000 0.0000 19.5316 0.0000
# 6 0.0000 0.0000 0.0000 0.0000 0.0000 32.8756
#
#
#
# Elastic Compliance Matrix: (Units=1/GPa)
#
#
# Indices 1 2 3 4 5 6 
#
# 1 0.014812 0.000495 -0.004392 0.000000 0.000000 0.000000
# 2 0.000495 0.008661 -0.006533 0.000000 0.000000 0.000000
# 3 -0.004392 -0.006533 0.017646 0.000000 0.000000 0.000000
# 4 0.000000 0.000000 0.000000 0.023707 0.000000 0.000000
# 5 0.000000 0.000000 0.000000 0.000000 0.051199 0.000000
# 6 0.000000 0.000000 0.000000 0.000000 0.000000 0.030418
#
#
# Mechanical properties :
#
#
# Convention : Reuss Voigt Hill
#
# Bulk Modulus (GPa) = 49.35996 58.14436 53.75216
# Shear Modulus (GPa) = 28.72647 33.73804 31.23226
#
# Velocity S-wave (km/s) = 3.67736 3.98524 3.83439
# Velocity P-wave (km/s) = 6.42392 6.96761 6.70128
#
# Compressibility (1/GPa) = 0.02025933
#
# Stress axis : x y z
#
# Youngs Moduli (GPa) = 67.51082 115.46060 56.67141
#
# Poissons Ratio (x) = -0.05715 0.24891
# Poissons Ratio (y) = -0.03342 0.37022
# Poissons Ratio (z) = 0.29651 0.75427
#
# Static dielectric constant tensor:
#      x y z
#    x 1.851370 0.000000 0.000000 
#    y 0.000000 1.810590 0.000000 
#    z 0.000000 0.000000 1.731280 
# 
# From -- ./inp_files/7428.got.cif
#   From: 2010.05.17/outbox.cif.g08.bks.cpg/sg60_4_cif.got.tgz:7428.got - 2010.06.03 14:59:27.
