data_PCOD9458076
_publ_section_title
;
Structure prediction by ZEFSAII (Michael W. Deem and Ramdas Pophale) SiO2 
 PCOD9458076
Probable space group: P B C N
;
_chemical_formula_sum "Si O2"
_cell_formula_units_Z 64
_cell_length_a 7.304321
_cell_length_b 21.836948
_cell_length_c 21.499647
_cell_angle_alpha 90.000000
_cell_angle_beta 90.000000
_cell_angle_gamma 90.000000
_cell_volume 3429.281369
_symmetry_space_group_name_H-M "P B C N"
_symmetry_group_IT_number 60
_symmetry_cell_setting 'orthorhombic'
loop_
_space_group_symop_operation_xyz
x,y,z
1/2-x,1/2-y,1/2+z
1/2+x,1/2-y,-z
-x,y,1/2-z
-x,-y,-z
1/2+x,1/2+y,1/2-z
1/2-x,1/2+y,z
x,-y,1/2+z
loop_
_atom_site_type_symbol
_atom_site_label
_atom_site_fract_x
_atom_site_fract_y
_atom_site_fract_z
Si Si1 0.700884 0.205783 0.058415
Si Si2 0.339298 0.531853 0.166578
Si Si3 0.873376 0.814610 0.964654
Si Si4 0.245155 0.677076 0.305293
Si Si5 0.245515 0.465690 0.808462
Si Si6 0.436652 0.900505 0.511260
Si Si7 0.529058 0.982104 0.402316
Si Si8 0.183256 0.824851 0.670067
O O1 0.671687 0.210625 0.133163
O O2 0.561215 0.156260 0.031176
O O3 0.908801 0.182673 0.045882
O O4 0.672445 0.267638 0.019601
O O5 0.556543 0.530775 0.159056
O O6 0.283039 0.516842 0.237291
O O7 0.276941 0.602835 0.159650
O O8 0.236414 0.486391 0.121002
O O9 0.772110 0.878185 0.980437
O O10 0.792148 0.793846 0.897009
O O11 0.187139 0.605728 0.309688
O O12 0.215347 0.696425 0.233183
O O13 0.466192 0.677911 0.314528
O O14 0.100198 0.506812 0.843411
O O15 0.476894 0.923242 0.441805
O O16 0.490577 0.957637 0.554544
#
# Coordination Sequence:
#
# PCOD9458076 Si02
#       8
#     8   8   8   8   8   8   8   8
#     4  11  21  37  59  79 113 150 189 237 282 335
#     4   9  17  31  53  80 109 143 183 232 286 329
#     4  11  21  37  59  79 113 150 189 237 282 335
#     4   8  15  29  51  80 108 136 179 233 286 329
#     4   9  17  31  53  80 109 143 183 232 286 329
#     4  11  24  36  50  86 110 155 190 216 286 335
#     4  11  21  34  54  78 125 141 184 232 266 361
#     4   8  15  29  51  80 108 136 179 233 286 329
#
# _framework density 18.662801999999999
#
# number of rings (size 3 to 8) (size 9 to 14) (size 15 to 20)
#    0.000    2.250    3.750    1.875    0.000    1.000 
#    0.000    3.125    0.000    3.000    0.000    0.000 
#    0.000    0.000    0.000    0.000    0.000    0.000 
#
# Total GULP energy -356753.644446 kJ/mol
# GULP energy per Si atom -5574.275694 kJ/mol
# Density = 1.862032 g / cm^3
# Si number density = 18.662802 Si / 1000 Ang^3
#
#
#
# Elastic Constant Matrix: (Units=GPa)
#
#
# Indices 1 2 3 4 5 6 
#
# 1 51.4154 -3.5248 -3.2469 0.0000 0.0000 0.0000
# 2 -3.5248 19.7184 16.0040 0.0000 0.0000 0.0000
# 3 -3.2469 16.0040 86.4448 0.0000 0.0000 0.0000
# 4 0.0000 0.0000 0.0000 16.0711 0.0000 0.0000
# 5 0.0000 0.0000 0.0000 0.0000 26.1196 0.0000
# 6 0.0000 0.0000 0.0000 0.0000 0.0000 12.6291
#
#
#
# Elastic Compliance Matrix: (Units=1/GPa)
#
#
# Indices 1 2 3 4 5 6 
#
# 1 0.019692 0.003436 0.000103 0.000000 0.000000 0.000000
# 2 0.003436 0.060282 -0.011031 0.000000 0.000000 0.000000
# 3 0.000103 -0.011031 0.013614 0.000000 0.000000 0.000000
# 4 0.000000 0.000000 0.000000 0.062223 0.000000 0.000000
# 5 0.000000 0.000000 0.000000 0.000000 0.038285 0.000000
# 6 0.000000 0.000000 0.000000 0.000000 0.000000 0.079182
#
#
# Mechanical properties :
#
#
# Convention : Reuss Voigt Hill
#
# Bulk Modulus (GPa) = 12.72200 19.56035 16.14117
# Shear Modulus (GPa) = 15.90012 20.85373 18.37693
#
# Velocity S-wave (km/s) = 2.92202 3.34637 3.14137
# Velocity P-wave (km/s) = 4.26800 5.04328 4.67175
#
# Compressibility (1/GPa) = 0.07860399
#
# Stress axis : x y z
#
# Youngs Moduli (GPa) = 50.78328 16.58878 73.45246
#
# Poissons Ratio (x) = -0.05700 -0.00760
# Poissons Ratio (y) = -0.17449 0.81027
# Poissons Ratio (z) = -0.00526 0.18300
#
# Static dielectric constant tensor:
#      x y z
#    x 1.696770 0.000000 0.000000 
#    y 0.000000 1.601510 0.000000 
#    z 0.000000 0.000000 1.698970 
# 
# From -- ./inp_files/19729.got.cif
#   From: 2010.05.17/outbox.cif.g08.bks.cpg/sg60_10_cif.got.tgz:19729.got - 2010.06.03 14:59:27.
