data_PCOD9458736
_publ_section_title
;
Structure prediction by ZEFSAII (Michael W. Deem and Ramdas Pophale) SiO2 
 PCOD9458736
Probable space group: P B C N
;
_chemical_formula_sum "Si O2"
_cell_formula_units_Z 40
_cell_length_a 10.829253
_cell_length_b 18.436764
_cell_length_c 8.449161
_cell_angle_alpha 90.000000
_cell_angle_beta 90.000000
_cell_angle_gamma 90.000000
_cell_volume 1686.928915
_symmetry_space_group_name_H-M "P B C N"
_symmetry_group_IT_number 60
_symmetry_cell_setting 'orthorhombic'
loop_
_space_group_symop_operation_xyz
x,y,z
1/2-x,1/2-y,1/2+z
1/2+x,1/2-y,-z
-x,y,1/2-z
-x,-y,-z
1/2+x,1/2+y,1/2-z
1/2-x,1/2+y,z
x,-y,1/2+z
loop_
_atom_site_type_symbol
_atom_site_label
_atom_site_fract_x
_atom_site_fract_y
_atom_site_fract_z
Si Si1 0.642274 0.766921 0.255078
Si Si2 0.360368 0.978625 0.737887
Si Si3 0.738107 0.849948 0.948933
Si Si4 0.734202 0.103781 0.954306
Si Si5 0.504308 0.417471 0.061123
O O1 0.500000 0.744159 0.250000
O O2 0.680457 0.805513 0.092770
O O3 0.735014 0.702573 0.300965
O O4 0.661033 0.826506 0.394640
O O5 0.500000 0.005555 0.750000
O O6 0.346186 0.916942 0.604006
O O7 0.273232 0.045172 0.689549
O O8 0.322529 0.939146 0.898801
O O9 0.872192 0.880191 0.998984
O O10 0.876731 0.120363 0.991466
O O11 0.500000 0.415744 0.250000
O O12 0.500000 0.500000 0.000000
#
# Coordination Sequence:
#
# PCOD9458736 Si02
#       5
#     8   8   8   8   8
#     4  12  28  48  71 102 148 192 244 296 368 436
#     4  12  25  45  75 105 146 187 241 294 359 429
#     4  12  28  47  72 109 142 196 242 305 368 433
#     4  12  24  46  73 106 144 188 238 295 359 430
#     4  12  25  46  76 109 148 182 245 309 362 432
#
# _framework density 23.711728999999998
#
# number of rings (size 3 to 8) (size 9 to 14) (size 15 to 20)
#    0.000    0.000    4.000    6.000    5.600    0.000 
#    0.000    0.000    0.000    0.000    0.000    0.000 
#    0.000    0.000    0.000    0.000    0.000    0.000 
#
# Total GULP energy -224415.737915 kJ/mol
# GULP energy per Si atom -5610.393448 kJ/mol
# Density = 2.365776 g / cm^3
# Si number density = 23.711729 Si / 1000 Ang^3
#
#
#
# Elastic Constant Matrix: (Units=GPa)
#
#
# Indices 1 2 3 4 5 6 
#
# 1 110.7018 -6.7599 6.9753 0.0000 0.0000 0.0000
# 2 -6.7599 68.4818 2.4487 0.0000 0.0000 0.0000
# 3 6.9753 2.4487 67.7982 0.0000 0.0000 0.0000
# 4 0.0000 0.0000 0.0000 52.7057 0.0000 0.0000
# 5 0.0000 0.0000 0.0000 0.0000 34.6141 0.0000
# 6 0.0000 0.0000 0.0000 0.0000 0.0000 40.6933
#
#
#
# Elastic Compliance Matrix: (Units=1/GPa)
#
#
# Indices 1 2 3 4 5 6 
#
# 1 0.009152 0.000938 -0.000975 0.000000 0.000000 0.000000
# 2 0.000938 0.014717 -0.000628 0.000000 0.000000 0.000000
# 3 -0.000975 -0.000628 0.014873 0.000000 0.000000 0.000000
# 4 0.000000 0.000000 0.000000 0.018973 0.000000 0.000000
# 5 0.000000 0.000000 0.000000 0.000000 0.028890 0.000000
# 6 0.000000 0.000000 0.000000 0.000000 0.000000 0.024574
#
#
# Mechanical properties :
#
#
# Convention : Reuss Voigt Hill
#
# Bulk Modulus (GPa) = 26.72963 28.03443 27.38203
# Shear Modulus (GPa) = 40.00618 41.89047 40.94833
#
# Velocity S-wave (km/s) = 4.11200 4.20772 4.16013
# Velocity P-wave (km/s) = 5.81738 5.95443 5.88630
#
# Compressibility (1/GPa) = 0.03741167
#
# Stress axis : x y z
#
# Youngs Moduli (GPa) = 109.26526 67.94634 67.23734
#
# Poissons Ratio (x) = -0.06375 0.06559
# Poissons Ratio (y) = -0.10252 0.04223
# Poissons Ratio (z) = 0.10659 0.04268
#
# Static dielectric constant tensor:
#      x y z
#    x 1.837580 0.000000 0.000000 
#    y 0.000000 1.865760 0.000000 
#    z 0.000000 0.000000 1.920090 
# 
# From -- ./inp_files/4784.got.cif
#   From: 2010.05.17/outbox.cif.g08.bks.cpg/sg60_3_cif.got.tgz:4784.got - 2010.06.03 14:59:27.
