data_PCOD9458800
_publ_section_title
;
Structure prediction by ZEFSAII (Michael W. Deem and Ramdas Pophale) SiO2 
 PCOD9458800
Probable space group: P B C N
;
_chemical_formula_sum "Si O2"
_cell_formula_units_Z 32
_cell_length_a 4.889180
_cell_length_b 10.185337
_cell_length_c 25.375341
_cell_angle_alpha 90.000000
_cell_angle_beta 90.000000
_cell_angle_gamma 90.000000
_cell_volume 1263.639860
_symmetry_space_group_name_H-M "P B C N"
_symmetry_group_IT_number 60
_symmetry_cell_setting 'orthorhombic'
loop_
_space_group_symop_operation_xyz
x,y,z
1/2-x,1/2-y,1/2+z
1/2+x,1/2-y,-z
-x,y,1/2-z
-x,-y,-z
1/2+x,1/2+y,1/2-z
1/2-x,1/2+y,z
x,-y,1/2+z
loop_
_atom_site_type_symbol
_atom_site_label
_atom_site_fract_x
_atom_site_fract_y
_atom_site_fract_z
Si Si1 0.938369 0.852533 0.647017
Si Si2 0.754814 0.090899 0.515126
Si Si3 0.526729 0.214910 0.417696
Si Si4 0.259375 0.397347 0.286005
O O1 0.723214 0.878359 0.599382
O O2 0.838523 0.721572 0.677084
O O3 0.240280 0.816748 0.625606
O O4 0.898317 0.978856 0.684264
O O5 0.699947 0.204176 0.471589
O O6 0.500000 0.000000 0.500000
O O7 0.845837 0.155453 0.570045
O O8 0.000000 0.000000 0.500000
O O9 0.500000 0.340506 0.250000
O O10 0.000000 0.438664 0.250000
#
# Coordination Sequence:
#
# PCOD9458800 Si02
#       4
#     8   8   8   8
#     4  12  27  45  81 108 155 197 262 321 380 481
#     4  12  26  46  75 102 160 203 251 320 387 461
#     4  12  27  47  69 117 146 202 261 313 387 455
#     4  12  26  50  75 111 150 200 254 324 407 465
#
# _framework density 25.323668999999999
#
# number of rings (size 3 to 8) (size 9 to 14) (size 15 to 20)
#    0.000    0.000    0.000   10.500   10.500    0.000 
#    0.000    0.000    0.000    0.000    0.000    0.000 
#    0.000    0.000    0.000    0.000    0.000    0.000 
#
# Total GULP energy -178675.559121 kJ/mol
# GULP energy per Si atom -5583.611223 kJ/mol
# Density = 2.526603 g / cm^3
# Si number density = 25.323669 Si / 1000 Ang^3
#
#
#
# Elastic Constant Matrix: (Units=GPa)
#
#
# Indices 1 2 3 4 5 6 
#
# 1 208.5858 37.9333 46.8797 0.0000 0.0000 0.0000
# 2 37.9333 137.0528 40.6752 0.0000 0.0000 0.0000
# 3 46.8797 40.6752 75.9284 0.0000 0.0000 0.0000
# 4 0.0000 0.0000 0.0000 31.2720 0.0000 0.0000
# 5 0.0000 0.0000 0.0000 0.0000 73.7170 0.0000
# 6 0.0000 0.0000 0.0000 0.0000 0.0000 36.5425
#
#
#
# Elastic Compliance Matrix: (Units=1/GPa)
#
#
# Indices 1 2 3 4 5 6 
#
# 1 0.005611 -0.000624 -0.003130 0.000000 0.000000 0.000000
# 2 -0.000624 0.008745 -0.004300 0.000000 0.000000 0.000000
# 3 -0.003130 -0.004300 0.017406 0.000000 0.000000 0.000000
# 4 0.000000 0.000000 0.000000 0.031978 0.000000 0.000000
# 5 0.000000 0.000000 0.000000 0.000000 0.013565 0.000000
# 6 0.000000 0.000000 0.000000 0.000000 0.000000 0.027365
#
#
# Mechanical properties :
#
#
# Convention : Reuss Voigt Hill
#
# Bulk Modulus (GPa) = 63.87698 74.72705 69.30201
# Shear Modulus (GPa) = 39.68354 48.04487 43.86421
#
# Velocity S-wave (km/s) = 3.96290 4.36045 4.16642
# Velocity P-wave (km/s) = 6.79841 7.41108 7.11135
#
# Compressibility (1/GPa) = 0.01565509
#
# Stress axis : x y z
#
# Youngs Moduli (GPa) = 178.21549 114.34802 57.45080
#
# Poissons Ratio (x) = 0.07136 0.17983
# Poissons Ratio (y) = 0.11122 0.24701
# Poissons Ratio (z) = 0.55784 0.49164
#
# Static dielectric constant tensor:
#      x y z
#    x 1.945450 0.000000 0.000000 
#    y 0.000000 2.063860 0.000000 
#    z 0.000000 0.000000 2.227250 
# 
# From -- ./inp_files/25545.got.cif
#   From: 2010.05.17/outbox.cif.g08.bks.cpg/sg60_13_cif.got.tgz:25545.got - 2010.06.03 14:59:27.
