data_PCOD9458454
_publ_section_title
;
Structure prediction by ZEFSAII (Michael W. Deem and Ramdas Pophale) SiO2 
 PCOD9458454
Probable space group: P B C N
;
_chemical_formula_sum "Si O2"
_cell_formula_units_Z 48
_cell_length_a 16.323209
_cell_length_b 9.680971
_cell_length_c 13.995228
_cell_angle_alpha 90.000000
_cell_angle_beta 90.000000
_cell_angle_gamma 90.000000
_cell_volume 2211.589088
_symmetry_space_group_name_H-M "P B C N"
_symmetry_group_IT_number 60
_symmetry_cell_setting 'orthorhombic'
loop_
_space_group_symop_operation_xyz
x,y,z
1/2-x,1/2-y,1/2+z
1/2+x,1/2-y,-z
-x,y,1/2-z
-x,-y,-z
1/2+x,1/2+y,1/2-z
1/2-x,1/2+y,z
x,-y,1/2+z
loop_
_atom_site_type_symbol
_atom_site_label
_atom_site_fract_x
_atom_site_fract_y
_atom_site_fract_z
Si Si1 0.035509 0.643126 0.959423
Si Si2 0.215041 0.279057 0.885297
Si Si3 0.588290 0.980131 0.718211
Si Si4 0.206094 0.674858 0.695139
Si Si5 0.841872 0.148750 0.965279
Si Si6 0.113417 0.146084 0.055080
O O1 0.067329 0.604883 0.854296
O O2 0.965842 0.758668 0.953785
O O3 0.107901 0.710127 0.021637
O O4 0.000000 0.500000 0.000000
O O5 0.144627 0.372537 0.837939
O O6 0.257958 0.196590 0.800147
O O7 0.284760 0.365207 0.940839
O O8 0.173387 0.188172 0.967895
O O9 0.500000 0.922553 0.750000
O O10 0.642181 0.047853 0.802142
O O11 0.280732 0.650007 0.623712
O O12 0.158677 0.807398 0.652695
O O13 0.899597 0.016635 0.951715
#
# Coordination Sequence:
#
# PCOD9458454 Si02
#       6
#     8   8   8   8   8   8
#     4  12  25  46  71  99 138 190 237 294 359 430
#     4  11  24  42  70 100 144 186 237 291 361 424
#     4  12  24  43  70 102 141 188 240 295 352 434
#     4  11  24  42  69 105 141 188 233 297 356 424
#     4  11  26  44  71 104 145 183 240 297 358 435
#     4  11  24  43  67 104 140 185 236 295 364 423
#
# _framework density 21.703849999999999
#
# number of rings (size 3 to 8) (size 9 to 14) (size 15 to 20)
#    0.000    0.667    5.000    2.500    4.667    0.000 
#    0.000    0.000    0.000    0.000    0.000    0.000 
#    0.000    0.000    0.000    0.000    0.000    0.000 
#
# Total GULP energy -268531.938214 kJ/mol
# GULP energy per Si atom -5594.415379 kJ/mol
# Density = 2.165445 g / cm^3
# Si number density = 21.703850 Si / 1000 Ang^3
#
#
#
# Elastic Constant Matrix: (Units=GPa)
#
#
# Indices 1 2 3 4 5 6 
#
# 1 113.9889 31.0233 19.3978 0.0000 0.0000 0.0000
# 2 31.0233 81.0322 -4.8887 0.0000 0.0000 0.0000
# 3 19.3978 -4.8887 66.1395 0.0000 0.0000 0.0000
# 4 0.0000 0.0000 0.0000 19.9951 0.0000 0.0000
# 5 0.0000 0.0000 0.0000 0.0000 36.1649 0.0000
# 6 0.0000 0.0000 0.0000 0.0000 0.0000 37.4270
#
#
#
# Elastic Compliance Matrix: (Units=1/GPa)
#
#
# Indices 1 2 3 4 5 6 
#
# 1 0.010500 -0.004224 -0.003392 0.000000 0.000000 0.000000
# 2 -0.004224 0.014096 0.002281 0.000000 0.000000 0.000000
# 3 -0.003392 0.002281 0.016283 0.000000 0.000000 0.000000
# 4 0.000000 0.000000 0.000000 0.050012 0.000000 0.000000
# 5 0.000000 0.000000 0.000000 0.000000 0.027651 0.000000
# 6 0.000000 0.000000 0.000000 0.000000 0.000000 0.026719
#
#
# Mechanical properties :
#
#
# Convention : Reuss Voigt Hill
#
# Bulk Modulus (GPa) = 33.10408 39.13617 36.12012
# Shear Modulus (GPa) = 30.12047 33.09262 31.60655
#
# Velocity S-wave (km/s) = 3.72935 3.90902 3.82024
# Velocity P-wave (km/s) = 5.81634 6.20040 6.01144
#
# Compressibility (1/GPa) = 0.03020776
#
# Stress axis : x y z
#
# Youngs Moduli (GPa) = 95.24102 70.94356 61.41428
#
# Poissons Ratio (x) = 0.29970 0.20830
# Poissons Ratio (y) = 0.40234 -0.14008
# Poissons Ratio (z) = 0.32302 -0.16181
#
# Static dielectric constant tensor:
#      x y z
#    x 1.830960 0.000000 0.000000 
#    y 0.000000 1.775780 0.000000 
#    z 0.000000 0.000000 1.793320 
# 
# From -- ./inp_files/17344.got.cif
#   From: 2010.05.17/outbox.cif.g08.bks.cpg/sg60_9_cif.got.tgz:17344.got - 2010.06.03 14:59:27.
