data_PCOD9458791
_publ_section_title
;
Structure prediction by ZEFSAII (Michael W. Deem and Ramdas Pophale) SiO2 
 PCOD9458791
Probable space group: P B C N
;
_chemical_formula_sum "Si O2"
_cell_formula_units_Z 40
_cell_length_a 17.549986
_cell_length_b 11.917738
_cell_length_c 8.173712
_cell_angle_alpha 90.000000
_cell_angle_beta 90.000000
_cell_angle_gamma 90.000000
_cell_volume 1709.582011
_symmetry_space_group_name_H-M "P B C N"
_symmetry_group_IT_number 60
_symmetry_cell_setting 'orthorhombic'
loop_
_space_group_symop_operation_xyz
x,y,z
1/2-x,1/2-y,1/2+z
1/2+x,1/2-y,-z
-x,y,1/2-z
-x,-y,-z
1/2+x,1/2+y,1/2-z
1/2-x,1/2+y,z
x,-y,1/2+z
loop_
_atom_site_type_symbol
_atom_site_label
_atom_site_fract_x
_atom_site_fract_y
_atom_site_fract_z
Si Si1 0.173545 0.070539 0.908539
Si Si2 0.115267 0.857624 0.059447
Si Si3 0.069875 0.576348 0.568376
Si Si4 0.460492 0.324228 0.571158
Si Si5 0.151046 0.615071 0.913768
O O1 0.134155 0.112117 0.743830
O O2 0.258638 0.116588 0.888924
O O3 0.122087 0.119851 0.056890
O O4 0.165808 0.937674 0.941829
O O5 0.128566 0.727562 0.011339
O O6 0.026148 0.881865 0.033767
O O7 0.053303 0.699201 0.501977
O O8 0.095057 0.603397 0.755925
O O9 0.139444 0.501356 0.508912
O O10 0.000000 0.500000 0.500000
O O11 0.500000 0.320428 0.750000
#
# Coordination Sequence:
#
# PCOD9458791 Si02
#       5
#     8   8   8   8   8
#     4  12  30  47  81 113 163 214 267 333 416 472
#     4  12  27  52  74 115 158 212 269 329 398 491
#     4  12  25  50  79 114 155 210 268 330 399 474
#     4  12  25  50  81 112 157 209 268 326 395 490
#     4  12  29  48  81 117 163 208 273 338 403 480
#
# _framework density 23.39753
#
# number of rings (size 3 to 8) (size 9 to 14) (size 15 to 20)
#    0.000    0.000    4.000    4.200    8.400    1.600 
#    0.000    0.000    0.000    0.000    0.000    0.000 
#    0.000    0.000    0.000    0.000    0.000    0.000 
#
# Total GULP energy -223391.442445 kJ/mol
# GULP energy per Si atom -5584.786061 kJ/mol
# Density = 2.334428 g / cm^3
# Si number density = 23.397530 Si / 1000 Ang^3
#
#
#
# Elastic Constant Matrix: (Units=GPa)
#
#
# Indices 1 2 3 4 5 6 
#
# 1 119.4494 40.7460 35.4916 0.0000 0.0000 0.0000
# 2 40.7460 103.3879 34.5978 0.0000 0.0000 0.0000
# 3 35.4916 34.5978 87.2074 0.0000 0.0000 0.0000
# 4 0.0000 0.0000 0.0000 28.0886 0.0000 0.0000
# 5 0.0000 0.0000 0.0000 0.0000 22.9856 0.0000
# 6 0.0000 0.0000 0.0000 0.0000 0.0000 38.7820
#
#
#
# Elastic Compliance Matrix: (Units=1/GPa)
#
#
# Indices 1 2 3 4 5 6 
#
# 1 0.010301 -0.003064 -0.002977 0.000000 0.000000 0.000000
# 2 -0.003064 0.012064 -0.003539 0.000000 0.000000 0.000000
# 3 -0.002977 -0.003539 0.014083 0.000000 0.000000 0.000000
# 4 0.000000 0.000000 0.000000 0.035602 0.000000 0.000000
# 5 0.000000 0.000000 0.000000 0.000000 0.043506 0.000000
# 6 0.000000 0.000000 0.000000 0.000000 0.000000 0.025785
#
#
# Mechanical properties :
#
#
# Convention : Reuss Voigt Hill
#
# Bulk Modulus (GPa) = 57.84308 59.07950 58.46129
# Shear Modulus (GPa) = 30.07281 31.25185 30.66233
#
# Velocity S-wave (km/s) = 3.58900 3.65867 3.62400
# Velocity P-wave (km/s) = 6.47689 6.56909 6.52315
#
# Compressibility (1/GPa) = 0.01728815
#
# Stress axis : x y z
#
# Youngs Moduli (GPa) = 97.07473 82.89038 71.00921
#
# Poissons Ratio (x) = 0.25394 0.21139
# Poissons Ratio (y) = 0.29740 0.25133
# Poissons Ratio (z) = 0.28899 0.29338
#
# Static dielectric constant tensor:
#      x y z
#    x 1.902890 0.000000 0.000000 
#    y 0.000000 1.917700 0.000000 
#    z 0.000000 0.000000 1.949610 
# 
# From -- ./inp_files/6527.got.cif
#   From: 2010.05.17/outbox.cif.g08.bks.cpg/sg60_4_cif.got.tgz:6527.got - 2010.06.03 14:59:27.
