data_PCOD9458805
_publ_section_title
;
Structure prediction by ZEFSAII (Michael W. Deem and Ramdas Pophale) SiO2 
 PCOD9458805
Probable space group: P B C N
;
_chemical_formula_sum "Si O2"
_cell_formula_units_Z 36
_cell_length_a 6.731235
_cell_length_b 11.343131
_cell_length_c 19.240809
_cell_angle_alpha 90.000000
_cell_angle_beta 90.000000
_cell_angle_gamma 90.000000
_cell_volume 1469.098885
_symmetry_space_group_name_H-M "P B C N"
_symmetry_group_IT_number 60
_symmetry_cell_setting 'orthorhombic'
loop_
_space_group_symop_operation_xyz
x,y,z
1/2-x,1/2-y,1/2+z
1/2+x,1/2-y,-z
-x,y,1/2-z
-x,-y,-z
1/2+x,1/2+y,1/2-z
1/2-x,1/2+y,z
x,-y,1/2+z
loop_
_atom_site_type_symbol
_atom_site_label
_atom_site_fract_x
_atom_site_fract_y
_atom_site_fract_z
Si Si1 0.481267 0.063918 0.891013
Si Si2 0.858005 0.113119 0.496240
Si Si3 0.386051 0.837708 0.812460
Si Si4 0.000000 0.719134 0.750000
Si Si5 0.658887 0.713281 0.908603
O O1 0.325815 0.101279 0.950397
O O2 0.502829 0.137476 0.818882
O O3 0.703457 0.097022 0.916508
O O4 0.399528 0.934026 0.872779
O O5 0.792609 0.170507 0.422849
O O6 0.998295 0.211344 0.530768
O O7 0.000000 0.000000 0.500000
O O8 0.500000 0.898169 0.750000
O O9 0.181464 0.800698 0.776605
O O10 0.523698 0.728621 0.839663
#
# Coordination Sequence:
#
# PCOD9458805 Si02
#       5
#     8   8   8   4   8
#     4  12  27  48  77 112 152 206 267 322 398 476
#     4  12  28  46  76 114 155 208 263 327 398 472
#     4  12  27  47  76 109 150 201 258 323 392 469
#     4  12  26  50  74 110 156 200 258 326 390 470
#     4  12  26  48  75 113 155 204 258 327 397 472
#
# _framework density 24.504818
#
# number of rings (size 3 to 8) (size 9 to 14) (size 15 to 20)
#    0.000    0.000    7.778    1.333    6.222    3.556 
#    2.000    0.000    0.000    0.000    0.000    0.000 
#    0.000    0.000    0.000    0.000    0.000    0.000 
#
# Total GULP energy -200480.073487 kJ/mol
# GULP energy per Si atom -5568.890930 kJ/mol
# Density = 2.444904 g / cm^3
# Si number density = 24.504818 Si / 1000 Ang^3
#
#
#
# Elastic Constant Matrix: (Units=GPa)
#
#
# Indices 1 2 3 4 5 6 
#
# 1 178.5134 63.3084 58.5586 0.0000 0.0000 0.0000
# 2 63.3084 91.2737 15.8544 0.0000 0.0000 0.0000
# 3 58.5586 15.8544 82.8426 0.0000 0.0000 0.0000
# 4 0.0000 0.0000 0.0000 40.7724 0.0000 0.0000
# 5 0.0000 0.0000 0.0000 0.0000 62.6131 0.0000
# 6 0.0000 0.0000 0.0000 0.0000 0.0000 17.3958
#
#
#
# Elastic Compliance Matrix: (Units=1/GPa)
#
#
# Indices 1 2 3 4 5 6 
#
# 1 0.009402 -0.005552 -0.005584 0.000000 0.000000 0.000000
# 2 -0.005552 0.014611 0.001128 0.000000 0.000000 0.000000
# 3 -0.005584 0.001128 0.015802 0.000000 0.000000 0.000000
# 4 0.000000 0.000000 0.000000 0.024526 0.000000 0.000000
# 5 0.000000 0.000000 0.000000 0.000000 0.015971 0.000000
# 6 0.000000 0.000000 0.000000 0.000000 0.000000 0.057485
#
#
# Mechanical properties :
#
#
# Convention : Reuss Voigt Hill
#
# Bulk Modulus (GPa) = 50.50340 69.78582 60.14461
# Shear Modulus (GPa) = 30.41128 38.48348 34.44738
#
# Velocity S-wave (km/s) = 3.52665 3.96718 3.75339
# Velocity P-wave (km/s) = 6.10224 7.03740 6.58644
#
# Compressibility (1/GPa) = 0.01980065
#
# Stress axis : x y z
#
# Youngs Moduli (GPa) = 106.35684 68.44254 63.28266
#
# Poissons Ratio (x) = 0.37997 0.35335
# Poissons Ratio (y) = 0.59046 -0.07139
# Poissons Ratio (z) = 0.59386 -0.07721
#
# Static dielectric constant tensor:
#      x y z
#    x 2.095750 0.000000 0.000000 
#    y 0.000000 2.063320 0.000000 
#    z 0.000000 0.000000 2.107410 
# 
# From -- ./inp_files/23478.got.cif
#   From: 2010.05.17/outbox.cif.g08.bks.cpg/sg60_12_cif.got.tgz:23478.got - 2010.06.03 14:59:27.
