data_PCOD9458171
_publ_section_title
;
Structure prediction by ZEFSAII (Michael W. Deem and Ramdas Pophale) SiO2 
 PCOD9458171
Probable space group: P B C N
;
_chemical_formula_sum "Si O2"
_cell_formula_units_Z 48
_cell_length_a 9.698430
_cell_length_b 15.290354
_cell_length_c 15.617300
_cell_angle_alpha 90.000000
_cell_angle_beta 90.000000
_cell_angle_gamma 90.000000
_cell_volume 2315.927335
_symmetry_space_group_name_H-M "P B C N"
_symmetry_group_IT_number 60
_symmetry_cell_setting 'orthorhombic'
loop_
_space_group_symop_operation_xyz
x,y,z
1/2-x,1/2-y,1/2+z
1/2+x,1/2-y,-z
-x,y,1/2-z
-x,-y,-z
1/2+x,1/2+y,1/2-z
1/2-x,1/2+y,z
x,-y,1/2+z
loop_
_atom_site_type_symbol
_atom_site_label
_atom_site_fract_x
_atom_site_fract_y
_atom_site_fract_z
Si Si1 0.786160 0.663984 0.842657
Si Si2 0.629822 0.015214 0.435806
Si Si3 0.552518 0.808190 0.883035
Si Si4 0.910763 0.085383 0.508151
Si Si5 0.533186 0.753492 0.074022
Si Si6 0.315939 0.695663 0.841694
O O1 0.806115 0.572746 0.893617
O O2 0.677168 0.737171 0.877337
O O3 0.740199 0.653606 0.744813
O O4 0.935322 0.707379 0.853543
O O5 0.588677 0.090774 0.367621
O O6 0.754843 0.061314 0.485559
O O7 0.500000 0.000000 0.500000
O O8 0.422870 0.774517 0.828829
O O9 0.509069 0.802613 0.983628
O O10 0.902281 0.126686 0.602372
O O11 0.980629 0.156489 0.446248
O O12 0.000000 0.000000 0.500000
O O13 0.689523 0.766678 0.102801
#
# Coordination Sequence:
#
# PCOD9458171 Si02
#       6
#     8   8   8   8   8   8
#     4  12  24  44  67  99 145 174 228 298 342 401
#     4  12  23  41  73 101 133 183 234 281 338 423
#     4  11  22  43  69  99 129 186 231 270 348 423
#     4  11  24  42  69 102 129 180 235 275 340 422
#     4  11  21  44  69  88 134 179 227 278 336 417
#     4  11  24  43  66  99 136 179 222 291 351 391
#
# _framework density 20.726039
#
# number of rings (size 3 to 8) (size 9 to 14) (size 15 to 20)
#    0.000    0.667    5.000    4.000    2.333    0.000 
#    3.000    3.333    0.000    0.000    0.000    0.000 
#    0.000    0.000    0.000    0.000    0.000    0.000 
#
# Total GULP energy -267983.352654 kJ/mol
# GULP energy per Si atom -5582.986514 kJ/mol
# Density = 2.067887 g / cm^3
# Si number density = 20.726039 Si / 1000 Ang^3
#
#
#
# Elastic Constant Matrix: (Units=GPa)
#
#
# Indices 1 2 3 4 5 6 
#
# 1 101.1620 33.6406 17.5909 0.0000 0.0000 0.0000
# 2 33.6406 151.3397 27.4329 0.0000 0.0000 0.0000
# 3 17.5909 27.4329 82.6424 0.0000 0.0000 0.0000
# 4 0.0000 0.0000 0.0000 19.6681 0.0000 0.0000
# 5 0.0000 0.0000 0.0000 0.0000 36.9450 0.0000
# 6 0.0000 0.0000 0.0000 0.0000 0.0000 39.9224
#
#
#
# Elastic Compliance Matrix: (Units=1/GPa)
#
#
# Indices 1 2 3 4 5 6 
#
# 1 0.010872 -0.002125 -0.001609 0.000000 0.000000 0.000000
# 2 -0.002125 0.007446 -0.002019 0.000000 0.000000 0.000000
# 3 -0.001609 -0.002019 0.013113 0.000000 0.000000 0.000000
# 4 0.000000 0.000000 0.000000 0.050844 0.000000 0.000000
# 5 0.000000 0.000000 0.000000 0.000000 0.027067 0.000000
# 6 0.000000 0.000000 0.000000 0.000000 0.000000 0.025049
#
#
# Mechanical properties :
#
#
# Convention : Reuss Voigt Hill
#
# Bulk Modulus (GPa) = 50.18935 54.71922 52.45429
# Shear Modulus (GPa) = 32.77874 36.40573 34.59224
#
# Velocity S-wave (km/s) = 3.98115 4.19563 4.08980
# Velocity P-wave (km/s) = 6.73802 7.06609 6.90401
#
# Compressibility (1/GPa) = 0.01992455
#
# Stress axis : x y z
#
# Youngs Moduli (GPa) = 91.98350 134.29943 76.25982
#
# Poissons Ratio (x) = 0.28538 0.12268
# Poissons Ratio (y) = 0.19546 0.15400
# Poissons Ratio (z) = 0.14797 0.27120
#
# Static dielectric constant tensor:
#      x y z
#    x 2.383270 0.000000 0.000000 
#    y 0.000000 1.796940 0.000000 
#    z 0.000000 0.000000 1.781320 
# 
# From -- ./inp_files/19303.got.cif
#   From: 2010.05.17/outbox.cif.g08.bks.cpg/sg60_10_cif.got.tgz:19303.got - 2010.06.03 14:59:27.
