data_PCOD9458820
_publ_section_title
;
Structure prediction by ZEFSAII (Michael W. Deem and Ramdas Pophale) SiO2 
 PCOD9458820
Probable space group: P B C N
;
_chemical_formula_sum "Si O2"
_cell_formula_units_Z 48
_cell_length_a 15.255335
_cell_length_b 8.495210
_cell_length_c 15.099368
_cell_angle_alpha 90.000000
_cell_angle_beta 90.000000
_cell_angle_gamma 90.000000
_cell_volume 1956.836939
_symmetry_space_group_name_H-M "P B C N"
_symmetry_group_IT_number 60
_symmetry_cell_setting 'orthorhombic'
loop_
_space_group_symop_operation_xyz
x,y,z
1/2-x,1/2-y,1/2+z
1/2+x,1/2-y,-z
-x,y,1/2-z
-x,-y,-z
1/2+x,1/2+y,1/2-z
1/2-x,1/2+y,z
x,-y,1/2+z
loop_
_atom_site_type_symbol
_atom_site_label
_atom_site_fract_x
_atom_site_fract_y
_atom_site_fract_z
Si Si1 0.131078 0.717594 0.206619
Si Si2 0.925093 0.096608 0.943742
Si Si3 0.873032 0.348273 0.085564
Si Si4 0.301156 0.311737 0.579458
Si Si5 0.548001 0.886210 0.329394
Si Si6 0.721926 0.173628 0.116366
O O1 0.065162 0.837592 0.156724
O O2 0.219014 0.699435 0.145666
O O3 0.089225 0.544854 0.207314
O O4 0.162741 0.749455 0.306505
O O5 0.840540 0.984890 0.933824
O O6 0.899830 0.253571 0.997495
O O7 0.000000 0.000000 0.000000
O O8 0.823393 0.210164 0.141243
O O9 0.807386 0.494784 0.099724
O O10 0.966111 0.422375 0.109325
O O11 0.378872 0.210369 0.621361
O O12 0.285683 0.249896 0.480530
O O13 0.500000 0.793809 0.250000
#
# Coordination Sequence:
#
# PCOD9458820 Si02
#       6
#     8   8   8   8   8   8
#     4  12  28  50  79 119 160 218 273 337 414 490
#     4  12  27  49  76 116 161 211 266 331 407 484
#     4  12  26  52  80 116 155 215 268 336 409 481
#     4  12  27  52  81 116 164 212 270 341 405 488
#     4  12  26  52  80 117 160 214 274 336 407 488
#     4  12  28  51  85 115 162 211 280 338 420 486
#
# _framework density 24.529381000000001
#
# number of rings (size 3 to 8) (size 9 to 14) (size 15 to 20)
#    0.000    0.000    5.000    4.000    4.667    1.333 
#    3.000    0.833    0.000    0.000    0.000    0.000 
#    0.000    0.000    0.000    0.000    0.000    0.000 
#
# Total GULP energy -268045.603404 kJ/mol
# GULP energy per Si atom -5584.283404 kJ/mol
# Density = 2.447355 g / cm^3
# Si number density = 24.529381 Si / 1000 Ang^3
#
#
#
# Elastic Constant Matrix: (Units=GPa)
#
#
# Indices 1 2 3 4 5 6 
#
# 1 129.6076 23.2569 50.6603 0.0000 0.0000 0.0000
# 2 23.2569 66.4198 39.1176 0.0000 0.0000 0.0000
# 3 50.6603 39.1176 144.6444 0.0000 0.0000 0.0000
# 4 0.0000 0.0000 0.0000 16.8916 0.0000 0.0000
# 5 0.0000 0.0000 0.0000 0.0000 26.8798 0.0000
# 6 0.0000 0.0000 0.0000 0.0000 0.0000 40.8969
#
#
#
# Elastic Compliance Matrix: (Units=1/GPa)
#
#
# Indices 1 2 3 4 5 6 
#
# 1 0.009072 -0.001553 -0.002758 0.000000 0.000000 0.000000
# 2 -0.001553 0.018174 -0.004371 0.000000 0.000000 0.000000
# 3 -0.002758 -0.004371 0.009061 0.000000 0.000000 0.000000
# 4 0.000000 0.000000 0.000000 0.059201 0.000000 0.000000
# 5 0.000000 0.000000 0.000000 0.000000 0.037203 0.000000
# 6 0.000000 0.000000 0.000000 0.000000 0.000000 0.024452
#
#
# Mechanical properties :
#
#
# Convention : Reuss Voigt Hill
#
# Bulk Modulus (GPa) = 52.78496 62.97127 57.87811
# Shear Modulus (GPa) = 27.64877 32.10946 29.87912
#
# Velocity S-wave (km/s) = 3.36098 3.62196 3.49391
# Velocity P-wave (km/s) = 6.05205 6.57412 6.31848
#
# Compressibility (1/GPa) = 0.01894479
#
# Stress axis : x y z
#
# Youngs Moduli (GPa) = 110.22889 55.02444 110.35784
#
# Poissons Ratio (x) = 0.08543 0.30431
# Poissons Ratio (y) = 0.17114 0.48239
# Poissons Ratio (z) = 0.30396 0.24052
#
# Static dielectric constant tensor:
#      x y z
#    x 2.045530 0.000000 0.000000 
#    y 0.000000 1.913630 0.000000 
#    z 0.000000 0.000000 2.192370 
# 
# From -- ./inp_files/17346.got.cif
#   From: 2010.05.17/outbox.cif.g08.bks.cpg/sg60_9_cif.got.tgz:17346.got - 2010.06.03 14:59:27.
