data_PCOD9458540
_publ_section_title
;
Structure prediction by ZEFSAII (Michael W. Deem and Ramdas Pophale) SiO2 
 PCOD9458540
Probable space group: P B C N
;
_chemical_formula_sum "Si O2"
_cell_formula_units_Z 28
_cell_length_a 8.000552
_cell_length_b 12.812828
_cell_length_c 11.511012
_cell_angle_alpha 90.000000
_cell_angle_beta 90.000000
_cell_angle_gamma 90.000000
_cell_volume 1179.990349
_symmetry_space_group_name_H-M "P B C N"
_symmetry_group_IT_number 60
_symmetry_cell_setting 'orthorhombic'
loop_
_space_group_symop_operation_xyz
x,y,z
1/2-x,1/2-y,1/2+z
1/2+x,1/2-y,-z
-x,y,1/2-z
-x,-y,-z
1/2+x,1/2+y,1/2-z
1/2-x,1/2+y,z
x,-y,1/2+z
loop_
_atom_site_type_symbol
_atom_site_label
_atom_site_fract_x
_atom_site_fract_y
_atom_site_fract_z
Si Si1 0.104993 0.904743 0.549923
Si Si2 0.000000 0.230347 0.250000
Si Si3 0.466527 0.949958 0.626555
Si Si4 0.648857 0.727534 0.673499
O O1 0.988549 0.837457 0.633249
O O2 0.267984 0.932319 0.624142
O O3 0.170870 0.836025 0.443628
O O4 0.000000 0.000000 0.500000
O O5 0.816887 0.280298 0.249182
O O6 0.500000 0.007151 0.750000
O O7 0.576671 0.843136 0.638937
O O8 0.500000 0.000000 0.500000
O O9 0.500000 0.679557 0.750000
#
# Coordination Sequence:
#
# PCOD9458540 Si02
#       4
#     8   4   8   8
#     4  12  27  46  76 109 151 196 253 320 383 462
#     4  12  24  48  76 106 146 194 254 304 386 466
#     4  11  24  49  73 109 153 194 251 319 382 464
#     4  11  25  50  75 108 149 197 257 312 387 468
#
# _framework density 23.729009999999999
#
# number of rings (size 3 to 8) (size 9 to 14) (size 15 to 20)
#    0.000    0.571    5.714    3.429    2.000    0.000 
#   15.429    0.000    0.000    0.000    0.000    0.000 
#    0.000    0.000    0.000    0.000    0.000    0.000 
#
# Total GULP energy -156500.549455 kJ/mol
# GULP energy per Si atom -5589.305338 kJ/mol
# Density = 2.367500 g / cm^3
# Si number density = 23.729010 Si / 1000 Ang^3
#
#
#
# Elastic Constant Matrix: (Units=GPa)
#
#
# Indices 1 2 3 4 5 6 
#
# 1 181.3235 30.4436 21.4861 0.0000 0.0000 0.0000
# 2 30.4436 57.4151 19.3754 0.0000 0.0000 0.0000
# 3 21.4861 19.3754 147.4410 0.0000 0.0000 0.0000
# 4 0.0000 0.0000 0.0000 1241.5144 0.0000 0.0000
# 5 0.0000 0.0000 0.0000 0.0000 59.1102 0.0000
# 6 0.0000 0.0000 0.0000 0.0000 0.0000 3.5508
#
#
#
# Elastic Compliance Matrix: (Units=1/GPa)
#
#
# Indices 1 2 3 4 5 6 
#
# 1 0.006087 -0.003064 -0.000484 0.000000 0.000000 0.000000
# 2 -0.003064 0.019768 -0.002151 0.000000 0.000000 0.000000
# 3 -0.000484 -0.002151 0.007136 0.000000 0.000000 0.000000
# 4 0.000000 0.000000 0.000000 0.000805 0.000000 0.000000
# 5 0.000000 0.000000 0.000000 0.000000 0.016918 0.000000
# 6 0.000000 0.000000 0.000000 0.000000 0.000000 0.281630
#
#
# Mechanical properties :
#
#
# Convention : Reuss Voigt Hill
#
# Bulk Modulus (GPa) = 46.31561 58.75442 52.53501
# Shear Modulus (GPa) = 14.24748 281.82671 148.03709
#
# Velocity S-wave (km/s) = 2.45301 10.90994 7.90708
# Velocity P-wave (km/s) = 5.25204 13.54683 10.27377
#
# Compressibility (1/GPa) = 0.02159099
#
# Stress axis : x y z
#
# Youngs Moduli (GPa) = 164.28892 50.58777 140.14142
#
# Poissons Ratio (x) = 0.15500 0.06788
# Poissons Ratio (y) = 0.50338 0.30147
# Poissons Ratio (z) = 0.07958 0.10882
#
# Static dielectric constant tensor:
#      x y z
#    x 1.857420 0.000000 0.000000 
#    y 0.000000 1.986000 0.000000 
#    z 0.000000 0.000000 1.954500 
# 
# From -- ./inp_files/9424.got.cif
#   From: 2010.05.17/outbox.cif.g08.bks.cpg/sg60_5_cif.got.tgz:9424.got - 2010.06.03 14:59:27.
