data_PCOD9458532
_publ_section_title
;
Structure prediction by ZEFSAII (Michael W. Deem and Ramdas Pophale) SiO2 
 PCOD9458532
Probable space group: P B C N
;
_chemical_formula_sum "Si O2"
_cell_formula_units_Z 40
_cell_length_a 8.745596
_cell_length_b 9.799295
_cell_length_c 18.473799
_cell_angle_alpha 90.000000
_cell_angle_beta 90.000000
_cell_angle_gamma 90.000000
_cell_volume 1583.217047
_symmetry_space_group_name_H-M "P B C N"
_symmetry_group_IT_number 60
_symmetry_cell_setting 'orthorhombic'
loop_
_space_group_symop_operation_xyz
x,y,z
1/2-x,1/2-y,1/2+z
1/2+x,1/2-y,-z
-x,y,1/2-z
-x,-y,-z
1/2+x,1/2+y,1/2-z
1/2-x,1/2+y,z
x,-y,1/2+z
loop_
_atom_site_type_symbol
_atom_site_label
_atom_site_fract_x
_atom_site_fract_y
_atom_site_fract_z
Si Si1 0.482615 0.063068 0.336165
Si Si2 0.031102 0.224797 0.948186
Si Si3 0.436434 0.672229 0.172943
Si Si4 0.136552 0.659206 0.929870
Si Si5 0.285516 0.410338 0.128578
O O1 0.500000 0.058404 0.250000
O O2 0.359002 0.960992 0.370766
O O3 0.634378 0.002226 0.373696
O O4 0.453350 0.211779 0.367805
O O5 0.196948 0.168860 0.964973
O O6 0.887406 0.123534 0.941602
O O7 0.984162 0.341720 0.004323
O O8 0.500000 0.715093 0.250000
O O9 0.566294 0.711370 0.114432
O O10 0.394068 0.513076 0.173338
O O11 0.287878 0.768280 0.157216
#
# Coordination Sequence:
#
# PCOD9458532 Si02
#       5
#     8   8   8   8   8
#     4  11  26  47  75 109 154 193 255 309 381 452
#     4  12  27  47  77 108 150 200 254 312 384 449
#     4  11  26  47  75 110 154 197 260 311 378 454
#     4  11  26  47  73 111 147 199 251 315 378 459
#     4  11  24  48  73 104 150 198 245 312 374 446
#
# _framework density 25.265011999999999
#
# number of rings (size 3 to 8) (size 9 to 14) (size 15 to 20)
#    0.000    0.800    2.000    5.400    5.600    4.800 
#    0.000    0.000    0.000    0.000    0.000    0.000 
#    0.000    0.000    0.000    0.000    0.000    0.000 
#
# Total GULP energy -223400.920385 kJ/mol
# GULP energy per Si atom -5585.023010 kJ/mol
# Density = 2.520751 g / cm^3
# Si number density = 25.265012 Si / 1000 Ang^3
#
#
#
# Elastic Constant Matrix: (Units=GPa)
#
#
# Indices 1 2 3 4 5 6 
#
# 1 98.5467 13.9710 19.8625 0.0000 0.0000 0.0000
# 2 13.9710 91.5302 18.3779 0.0000 0.0000 0.0000
# 3 19.8625 18.3779 116.3895 0.0000 0.0000 0.0000
# 4 0.0000 0.0000 0.0000 32.4707 0.0000 0.0000
# 5 0.0000 0.0000 0.0000 0.0000 27.8467 0.0000
# 6 0.0000 0.0000 0.0000 0.0000 0.0000 16.7316
#
#
#
# Elastic Compliance Matrix: (Units=1/GPa)
#
#
# Indices 1 2 3 4 5 6 
#
# 1 0.010657 -0.001303 -0.001613 0.000000 0.000000 0.000000
# 2 -0.001303 0.011442 -0.001584 0.000000 0.000000 0.000000
# 3 -0.001613 -0.001584 0.009117 0.000000 0.000000 0.000000
# 4 0.000000 0.000000 0.000000 0.030797 0.000000 0.000000
# 5 0.000000 0.000000 0.000000 0.000000 0.035911 0.000000
# 6 0.000000 0.000000 0.000000 0.000000 0.000000 0.059767
#
#
# Mechanical properties :
#
#
# Convention : Reuss Voigt Hill
#
# Bulk Modulus (GPa) = 45.01179 45.65436 45.33307
# Shear Modulus (GPa) = 28.71947 32.36013 30.53980
#
# Velocity S-wave (km/s) = 3.37520 3.58275 3.48052
# Velocity P-wave (km/s) = 5.74838 5.93500 5.84243
#
# Compressibility (1/GPa) = 0.02221640
#
# Stress axis : x y z
#
# Youngs Moduli (GPa) = 93.83252 87.39471 109.68170
#
# Poissons Ratio (x) = 0.11386 0.17692
# Poissons Ratio (y) = 0.12225 0.17378
# Poissons Ratio (z) = 0.15135 0.13847
#
# Static dielectric constant tensor:
#      x y z
#    x 2.064320 0.000000 0.000000 
#    y 0.000000 2.099520 0.000000 
#    z 0.000000 0.000000 1.998310 
# 
# From -- ./inp_files/18985.got.cif
#   From: 2010.05.17/outbox.cif.g08.bks.cpg/sg60_10_cif.got.tgz:18985.got - 2010.06.03 14:59:27.
