data_PCOD9458935
_publ_section_title
;
Structure prediction by ZEFSAII (Michael W. Deem and Ramdas Pophale) SiO2 
 PCOD9458935
Probable space group: P B C N
;
_chemical_formula_sum "Si O2"
_cell_formula_units_Z 40
_cell_length_a 9.000000
_cell_length_b 24.000000
_cell_length_c 9.000000
_cell_angle_alpha 90.000000
_cell_angle_beta 90.000000
_cell_angle_gamma 90.000000
_cell_volume 1944.000000
_symmetry_space_group_name_H-M "P B C N"
_symmetry_group_IT_number 60
_symmetry_cell_setting 'orthorhombic'
loop_
_space_group_symop_operation_xyz
x,y,z
1/2-x,1/2-y,1/2+z
1/2+x,1/2-y,-z
-x,y,1/2-z
-x,-y,-z
1/2+x,1/2+y,1/2-z
1/2-x,1/2+y,z
x,-y,1/2+z
loop_
_atom_site_type_symbol
_atom_site_label
_atom_site_fract_x
_atom_site_fract_y
_atom_site_fract_z
Si Si1 0.831031 0.440899 0.683575
Si Si2 0.690909 0.324689 0.577920
Si Si3 0.669741 0.478046 0.975144
Si Si4 0.327128 0.215698 0.735547
Si Si5 0.404567 0.361599 0.398203
O O1 0.780173 0.378857 0.634913
O O2 0.717044 0.465163 0.806902
O O3 0.792101 0.480090 0.543087
O O4 0.000000 0.442054 0.750000
O O5 0.769262 0.297894 0.430873
O O6 0.684645 0.279467 0.709383
O O7 0.524895 0.341677 0.521303
O O8 0.500000 0.500000 0.000000
O O9 0.673486 0.418193 0.053638
O O10 0.500000 0.199019 0.750000
O O11 0.219797 0.182448 0.848972
O O12 0.500000 0.372937 0.250000
#
# Coordination Sequence:
#
# PCOD9458935 Si02
#       5
#     8   8   8   8   8
#     4  12  29  46  74 108 148 186 248 305 370 432
#     4  11  26  46  70 105 145 199 238 299 365 443
#     4  12  25  47  77 104 142 193 241 303 364 448
#     4  11  26  43  73 103 146 189 248 303 364 429
#     4  10  23  44  71 102 142 187 246 292 366 437
#
# _framework density 20.576132000000001
#
# number of rings (size 3 to 8) (size 9 to 14) (size 15 to 20)
#    0.000    0.800    2.000    3.600   11.200    3.200 
#    0.000    0.000    0.000    0.000    0.000    0.000 
#    0.000    0.000    0.000    0.000    0.000    0.000 
#
# Total GULP energy -223769.368848 kJ/mol
# GULP energy per Si atom -5594.234221 kJ/mol
# Density = 2.052930 g / cm^3
# Si number density = 20.576132 Si / 1000 Ang^3
#
#
#
# Elastic Constant Matrix: (Units=GPa)
#
#
# Indices 1 2 3 4 5 6 
#
# 1 114.0904 14.7625 30.8667 0.0000 0.0000 0.0000
# 2 14.7625 106.1279 57.0522 0.0000 0.0000 0.0000
# 3 30.8667 57.0522 93.6428 0.0000 0.0000 0.0000
# 4 0.0000 0.0000 0.0000 43.0711 0.0000 0.0000
# 5 0.0000 0.0000 0.0000 0.0000 36.6296 0.0000
# 6 0.0000 0.0000 0.0000 0.0000 0.0000 25.9270
#
#
#
# Elastic Compliance Matrix: (Units=1/GPa)
#
#
# Indices 1 2 3 4 5 6 
#
# 1 0.009644 0.000546 -0.003512 0.000000 0.000000 0.000000
# 2 0.000546 0.014043 -0.008736 0.000000 0.000000 0.000000
# 3 -0.003512 -0.008736 0.017159 0.000000 0.000000 0.000000
# 4 0.000000 0.000000 0.000000 0.023217 0.000000 0.000000
# 5 0.000000 0.000000 0.000000 0.000000 0.027300 0.000000
# 6 0.000000 0.000000 0.000000 0.000000 0.000000 0.038570
#
#
# Mechanical properties :
#
#
# Convention : Reuss Voigt Hill
#
# Bulk Modulus (GPa) = 57.32805 57.69154 57.50980
# Shear Modulus (GPa) = 31.41684 35.20417 33.31050
#
# Velocity S-wave (km/s) = 3.91174 4.14082 4.02791
# Velocity P-wave (km/s) = 6.95156 7.13868 7.04574
#
# Compressibility (1/GPa) = 0.01744347
#
# Stress axis : x y z
#
# Youngs Moduli (GPa) = 103.68700 71.21127 58.27941
#
# Poissons Ratio (x) = -0.03891 0.20467
# Poissons Ratio (y) = -0.05665 0.50911
# Poissons Ratio (z) = 0.36414 0.62208
#
# Static dielectric constant tensor:
#      x y z
#    x 1.713800 0.000000 0.000000 
#    y 0.000000 1.738530 0.000000 
#    z 0.000000 0.000000 1.768250 
# 
# From -- ./inp_files/3839.got.cif
#   From: 2010.05.17/outbox.ucp.g08.bks.cvg/sg60_2_cif.got.tgz:3839.got - 2010.06.11 16:26:41.
