data_PCOD9458292
_publ_section_title
;
Structure prediction by ZEFSAII (Michael W. Deem and Ramdas Pophale) SiO2 
 PCOD9458292
Probable space group: P B C N
;
_chemical_formula_sum "Si O2"
_cell_formula_units_Z 40
_cell_length_a 5.978575
_cell_length_b 12.807718
_cell_length_c 22.043310
_cell_angle_alpha 90.000000
_cell_angle_beta 90.000000
_cell_angle_gamma 90.000000
_cell_volume 1687.898187
_symmetry_space_group_name_H-M "P B C N"
_symmetry_group_IT_number 60
_symmetry_cell_setting 'orthorhombic'
loop_
_space_group_symop_operation_xyz
x,y,z
1/2-x,1/2-y,1/2+z
1/2+x,1/2-y,-z
-x,y,1/2-z
-x,-y,-z
1/2+x,1/2+y,1/2-z
1/2-x,1/2+y,z
x,-y,1/2+z
loop_
_atom_site_type_symbol
_atom_site_label
_atom_site_fract_x
_atom_site_fract_y
_atom_site_fract_z
Si Si1 0.396042 0.045019 0.120627
Si Si2 0.892807 0.241282 0.623619
Si Si3 0.500000 0.336936 0.250000
Si Si4 0.704458 0.371891 0.460342
Si Si5 0.000000 0.553302 0.750000
Si Si6 0.022876 0.176224 0.078088
O O1 0.367007 0.956923 0.069312
O O2 0.483781 0.005956 0.185225
O O3 0.538414 0.144479 0.099765
O O4 0.150763 0.098212 0.122482
O O5 0.998706 0.147774 0.585748
O O6 0.993223 0.231347 0.689784
O O7 0.628903 0.247446 0.618483
O O8 0.747538 0.393195 0.248799
O O9 0.600173 0.389513 0.525905
O O10 0.824252 0.258331 0.459297
#
# Coordination Sequence:
#
# PCOD9458292 Si02
#       6
#     8   8   4   8   4   8
#     4  11  26  44  71 110 143 196 257 315 383 454
#     4  11  25  45  71 103 142 197 244 318 375 460
#     4  12  27  50  79 104 150 202 251 312 385 458
#     4  11  22  46  67 106 147 194 248 310 385 455
#     4  12  27  50  77 108 152 202 255 318 381 464
#     4  11  24  43  74 104 151 196 256 311 388 462
#
# _framework density 23.698111000000001
#
# number of rings (size 3 to 8) (size 9 to 14) (size 15 to 20)
#    0.000    0.800    4.000    2.400    5.600    2.400 
#    0.000    0.000    0.000    0.000    0.000    0.000 
#    0.000    0.000    0.000    0.000    0.000    0.000 
#
# Total GULP energy -223102.712725 kJ/mol
# GULP energy per Si atom -5577.567818 kJ/mol
# Density = 2.364417 g / cm^3
# Si number density = 23.698111 Si / 1000 Ang^3
#
#
#
# Elastic Constant Matrix: (Units=GPa)
#
#
# Indices 1 2 3 4 5 6 
#
# 1 98.6251 34.7584 46.1354 0.0000 0.0000 0.0000
# 2 34.7584 73.6323 3.4548 0.0000 0.0000 0.0000
# 3 46.1354 3.4548 95.5104 0.0000 0.0000 0.0000
# 4 0.0000 0.0000 0.0000 29.9011 0.0000 0.0000
# 5 0.0000 0.0000 0.0000 0.0000 50.0394 0.0000
# 6 0.0000 0.0000 0.0000 0.0000 0.0000 30.0337
#
#
#
# Elastic Compliance Matrix: (Units=1/GPa)
#
#
# Indices 1 2 3 4 5 6 
#
# 1 0.016275 -0.007326 -0.007596 0.000000 0.000000 0.000000
# 2 -0.007326 0.016902 0.002927 0.000000 0.000000 0.000000
# 3 -0.007596 0.002927 0.014034 0.000000 0.000000 0.000000
# 4 0.000000 0.000000 0.000000 0.033444 0.000000 0.000000
# 5 0.000000 0.000000 0.000000 0.000000 0.019984 0.000000
# 6 0.000000 0.000000 0.000000 0.000000 0.000000 0.033296
#
#
# Mechanical properties :
#
#
# Convention : Reuss Voigt Hill
#
# Bulk Modulus (GPa) = 43.06608 48.49613 45.78111
# Shear Modulus (GPa) = 30.18145 34.22277 32.20211
#
# Velocity S-wave (km/s) = 3.57260 3.80427 3.69025
# Velocity P-wave (km/s) = 5.93550 6.30914 6.12517
#
# Compressibility (1/GPa) = 0.02322013
#
# Stress axis : x y z
#
# Youngs Moduli (GPa) = 61.44435 59.16452 71.25778
#
# Poissons Ratio (x) = 0.43345 0.54130
# Poissons Ratio (y) = 0.45015 -0.20861
# Poissons Ratio (z) = 0.46676 -0.17320
#
# Static dielectric constant tensor:
#      x y z
#    x 2.178230 0.000000 0.000000 
#    y 0.000000 1.902630 0.000000 
#    z 0.000000 0.000000 1.970510 
# 
# From -- ./inp_files/23547.got.cif
#   From: 2010.05.17/outbox.cif.g08.bks.cpg/sg60_12_cif.got.tgz:23547.got - 2010.06.03 14:59:27.
