data_PCOD9458847
_publ_section_title
;
Structure prediction by ZEFSAII (Michael W. Deem and Ramdas Pophale) SiO2 
 PCOD9458847
Probable space group: P B C N
;
_chemical_formula_sum "Si O2"
_cell_formula_units_Z 20
_cell_length_a 4.889186
_cell_length_b 20.404265
_cell_length_c 8.124968
_cell_angle_alpha 90.000000
_cell_angle_beta 90.000000
_cell_angle_gamma 90.000000
_cell_volume 810.548813
_symmetry_space_group_name_H-M "P B C N"
_symmetry_group_IT_number 60
_symmetry_cell_setting 'orthorhombic'
loop_
_space_group_symop_operation_xyz
x,y,z
1/2-x,1/2-y,1/2+z
1/2+x,1/2-y,-z
-x,y,1/2-z
-x,-y,-z
1/2+x,1/2+y,1/2-z
1/2-x,1/2+y,z
x,-y,1/2+z
loop_
_atom_site_type_symbol
_atom_site_label
_atom_site_fract_x
_atom_site_fract_y
_atom_site_fract_z
Si Si1 0.133407 0.842882 0.535465
Si Si2 0.098042 0.570812 0.438760
Si Si3 0.500000 0.757777 0.750000
O O1 0.407856 0.877223 0.467253
O O2 0.252575 0.805152 0.696390
O O3 0.043807 0.788279 0.406364
O O4 0.906946 0.901046 0.550513
O O5 0.000000 0.570903 0.250000
O O6 0.000000 0.500000 0.500000
#
# Coordination Sequence:
#
# PCOD9458847 Si02
#       3
#     8   8   4
#     4  12  29  51  83 116 163 208 266 335 406 482
#     4  12  29  51  81 112 158 212 276 330 395 478
#     4  12  30  52  84 120 166 210 266 334 422 482
#
# _framework density 24.674638999999999
#
# number of rings (size 3 to 8) (size 9 to 14) (size 15 to 20)
#    0.000    0.000    2.000    4.800   11.200    6.400 
#    0.000    0.000    0.000    0.000    0.000    0.000 
#    0.000    0.000    0.000    0.000    0.000    0.000 
#
# Total GULP energy -111790.204959 kJ/mol
# GULP energy per Si atom -5589.510248 kJ/mol
# Density = 2.461848 g / cm^3
# Si number density = 24.674639 Si / 1000 Ang^3
#
#
#
# Elastic Constant Matrix: (Units=GPa)
#
#
# Indices 1 2 3 4 5 6 
#
# 1 194.5188 63.7715 46.4489 0.0000 0.0000 0.0000
# 2 63.7715 165.3433 49.1439 0.0000 0.0000 0.0000
# 3 46.4489 49.1439 86.8279 0.0000 0.0000 0.0000
# 4 0.0000 0.0000 0.0000 46.3261 0.0000 0.0000
# 5 0.0000 0.0000 0.0000 0.0000 27.5924 0.0000
# 6 0.0000 0.0000 0.0000 0.0000 0.0000 45.5630
#
#
#
# Elastic Compliance Matrix: (Units=1/GPa)
#
#
# Indices 1 2 3 4 5 6 
#
# 1 0.006271 -0.001709 -0.002387 0.000000 0.000000 0.000000
# 2 -0.001709 0.007737 -0.003465 0.000000 0.000000 0.000000
# 3 -0.002387 -0.003465 0.014755 0.000000 0.000000 0.000000
# 4 0.000000 0.000000 0.000000 0.021586 0.000000 0.000000
# 5 0.000000 0.000000 0.000000 0.000000 0.036242 0.000000
# 6 0.000000 0.000000 0.000000 0.000000 0.000000 0.021948
#
#
# Mechanical properties :
#
#
# Convention : Reuss Voigt Hill
#
# Bulk Modulus (GPa) = 73.30971 85.04652 79.17812
# Shear Modulus (GPa) = 38.99878 43.05133 41.02505
#
# Velocity S-wave (km/s) = 3.97989 4.18156 4.08197
# Velocity P-wave (km/s) = 7.13403 7.60631 7.37395
#
# Compressibility (1/GPa) = 0.01364076
#
# Stress axis : x y z
#
# Youngs Moduli (GPa) = 159.45556 129.24820 67.77243
#
# Poissons Ratio (x) = 0.22091 0.16181
# Poissons Ratio (y) = 0.27254 0.23482
# Poissons Ratio (z) = 0.38070 0.44782
#
# Static dielectric constant tensor:
#      x y z
#    x 2.101850 0.000000 0.000000 
#    y 0.000000 1.952740 0.000000 
#    z 0.000000 0.000000 2.121720 
# 
# From -- ./inp_files/2814.got.cif
#   From: 2010.05.17/outbox.cif.g08.bks.cpg/sg60_2_cif.got.tgz:2814.got - 2010.06.03 14:59:27.
