data_PCOD9458623
_publ_section_title
;
Structure prediction by ZEFSAII (Michael W. Deem and Ramdas Pophale) SiO2 
 PCOD9458623
Probable space group: P B C N
;
_chemical_formula_sum "Si O2"
_cell_formula_units_Z 24
_cell_length_a 12.260270
_cell_length_b 7.566621
_cell_length_c 11.294708
_cell_angle_alpha 90.000000
_cell_angle_beta 90.000000
_cell_angle_gamma 90.000000
_cell_volume 1047.796693
_symmetry_space_group_name_H-M "P B C N"
_symmetry_group_IT_number 60
_symmetry_cell_setting 'orthorhombic'
loop_
_space_group_symop_operation_xyz
x,y,z
1/2-x,1/2-y,1/2+z
1/2+x,1/2-y,-z
-x,y,1/2-z
-x,-y,-z
1/2+x,1/2+y,1/2-z
1/2-x,1/2+y,z
x,-y,1/2+z
loop_
_atom_site_type_symbol
_atom_site_label
_atom_site_fract_x
_atom_site_fract_y
_atom_site_fract_z
Si Si1 0.654732 0.822952 0.228384
Si Si2 0.896093 0.284477 0.689304
Si Si3 0.974531 0.190560 0.443922
O O1 0.782712 0.815303 0.204341
O O2 0.586071 0.758974 0.114853
O O3 0.614115 0.705290 0.338649
O O4 0.620928 0.025377 0.249789
O O5 0.927420 0.304403 0.552332
O O6 0.000000 0.193473 0.750000
O O7 0.000000 0.000000 0.500000
#
# Coordination Sequence:
#
# PCOD9458623 Si02
#       3
#     8   8   8
#     4  11  27  48  72 112 148 197 253 308 381 452
#     4  12  27  46  79 106 152 194 250 309 377 445
#     4  11  26  48  75 107 153 195 250 307 382 443
#
# _framework density 22.905204999999999
#
# number of rings (size 3 to 8) (size 9 to 14) (size 15 to 20)
#    0.000    0.667    3.333    3.000   14.000    0.000 
#    0.000    0.000    0.000    0.000    0.000    0.000 
#    0.000    0.000    0.000    0.000    0.000    0.000 
#
# Total GULP energy -134338.431679 kJ/mol
# GULP energy per Si atom -5597.434653 kJ/mol
# Density = 2.285307 g / cm^3
# Si number density = 22.905205 Si / 1000 Ang^3
#
#
#
# Elastic Constant Matrix: (Units=GPa)
#
#
# Indices 1 2 3 4 5 6 
#
# 1 226.2734 1.4653 73.5843 0.0000 0.0000 0.0000
# 2 1.4653 53.5014 18.0205 0.0000 0.0000 0.0000
# 3 73.5843 18.0205 130.6110 0.0000 0.0000 0.0000
# 4 0.0000 0.0000 0.0000 37.2504 0.0000 0.0000
# 5 0.0000 0.0000 0.0000 0.0000 22.5701 0.0000
# 6 0.0000 0.0000 0.0000 0.0000 0.0000 23.6053
#
#
#
# Elastic Compliance Matrix: (Units=1/GPa)
#
#
# Indices 1 2 3 4 5 6 
#
# 1 0.005454 0.000929 -0.003201 0.000000 0.000000 0.000000
# 2 0.000929 0.019760 -0.003250 0.000000 0.000000 0.000000
# 3 -0.003201 -0.003250 0.009908 0.000000 0.000000 0.000000
# 4 0.000000 0.000000 0.000000 0.026845 0.000000 0.000000
# 5 0.000000 0.000000 0.000000 0.000000 0.044306 0.000000
# 6 0.000000 0.000000 0.000000 0.000000 0.000000 0.042363
#
#
# Mechanical properties :
#
#
# Convention : Reuss Voigt Hill
#
# Bulk Modulus (GPa) = 41.53001 66.28066 53.90533
# Shear Modulus (GPa) = 29.81373 37.83953 33.82663
#
# Velocity S-wave (km/s) = 3.61170 4.06890 3.84710
# Velocity P-wave (km/s) = 5.96348 7.14663 6.58170
#
# Compressibility (1/GPa) = 0.02407897
#
# Stress axis : x y z
#
# Youngs Moduli (GPa) = 183.33769 50.60676 100.92730
#
# Poissons Ratio (x) = -0.04700 0.32308
# Poissons Ratio (y) = -0.17029 0.32797
# Poissons Ratio (z) = 0.58688 0.16445
#
# Static dielectric constant tensor:
#      x y z
#    x 1.835220 0.000000 0.000000 
#    y 0.000000 1.896560 0.000000 
#    z 0.000000 0.000000 1.860740 
# 
# From -- ./inp_files/10459.got.cif
#   From: 2010.05.17/outbox.cif.g08.bks.cpg/sg60_6_cif.got.tgz:10459.got - 2010.06.03 14:59:27.
