data_PCOD9458915
_publ_section_title
;
Structure prediction by ZEFSAII (Michael W. Deem and Ramdas Pophale) SiO2 
 PCOD9458915
Probable space group: P B C N
;
_chemical_formula_sum "Si O2"
_cell_formula_units_Z 60
_cell_length_a 30.000000
_cell_length_b 12.000000
_cell_length_c 9.000000
_cell_angle_alpha 90.000000
_cell_angle_beta 90.000000
_cell_angle_gamma 90.000000
_cell_volume 3240.000000
_symmetry_space_group_name_H-M "P B C N"
_symmetry_group_IT_number 60
_symmetry_cell_setting 'orthorhombic'
loop_
_space_group_symop_operation_xyz
x,y,z
1/2-x,1/2-y,1/2+z
1/2+x,1/2-y,-z
-x,y,1/2-z
-x,-y,-z
1/2+x,1/2+y,1/2-z
1/2-x,1/2+y,z
x,-y,1/2+z
loop_
_atom_site_type_symbol
_atom_site_label
_atom_site_fract_x
_atom_site_fract_y
_atom_site_fract_z
Si Si1 0.575526 0.705238 0.468589
Si Si2 0.000000 0.848062 0.750000
Si Si3 0.891464 0.216239 0.792401
Si Si4 0.421542 0.444724 0.958266
Si Si5 0.171340 0.976706 0.336501
Si Si6 0.833528 0.347442 0.430610
Si Si7 0.674733 0.910631 0.783082
Si Si8 0.224386 0.867430 0.612210
O O1 0.532125 0.722490 0.363442
O O2 0.577378 0.732134 0.645985
O O3 0.577360 0.568908 0.469538
O O4 0.620189 0.773686 0.417115
O O5 0.963875 0.919713 0.650330
O O6 0.852148 0.128720 0.744845
O O7 0.865658 0.329308 0.836720
O O8 0.918896 0.152984 0.919892
O O9 0.372215 0.450892 0.884449
O O10 0.203271 0.924329 0.463529
O O11 0.201346 0.057553 0.238680
O O12 0.833211 0.459845 0.330190
O O13 0.825911 0.387605 0.603237
O O14 0.794368 0.259421 0.388614
O O15 0.722393 0.875245 0.857329
#
# Coordination Sequence:
#
# PCOD9458915 Si02
#       8
#     8   4   8   8   8   8   8   8
#     4  10  21  41  61  88 132 162 204 272 332 398
#     4  12  24  34  66 108 120 158 216 270 334 424
#     4  10  21  41  60  85 132 175 209 255 337 386
#     4  11  21  38  63  95 134 169 207 263 349 400
#     4  11  21  40  62  92 131 181 198 272 337 378
#     4  11  24  46  60  92 137 173 218 278 326 379
#     4  11  26  39  66  93 124 182 229 267 313 379
#     4  12  23  40  66  94 138 168 230 273 312 393
#
# _framework density 18.518519000000001
#
# number of rings (size 3 to 8) (size 9 to 14) (size 15 to 20)
#    0.000    1.067    5.333    3.600    1.867    4.800 
#    0.000    0.000    0.000    7.200    0.000    0.933 
#    0.000    0.000    0.000    0.000    0.000    0.000 
#
# Total GULP energy -334683.268374 kJ/mol
# GULP energy per Si atom -5578.054473 kJ/mol
# Density = 1.847637 g / cm^3
# Si number density = 18.518519 Si / 1000 Ang^3
#
#
#
# Elastic Constant Matrix: (Units=GPa)
#
#
# Indices 1 2 3 4 5 6 
#
# 1 120.2315 44.1117 54.5397 0.0000 0.0000 0.0000
# 2 44.1117 131.1844 55.4340 0.0000 0.0000 0.0000
# 3 54.5397 55.4340 85.3416 0.0000 0.0000 0.0000
# 4 0.0000 0.0000 0.0000 34.8362 0.0000 0.0000
# 5 0.0000 0.0000 0.0000 0.0000 41.7449 0.0000
# 6 0.0000 0.0000 0.0000 0.0000 0.0000 28.4979
#
#
#
# Elastic Compliance Matrix: (Units=1/GPa)
#
#
# Indices 1 2 3 4 5 6 
#
# 1 0.011823 -0.001079 -0.006855 0.000000 0.000000 0.000000
# 2 -0.001079 0.010605 -0.006199 0.000000 0.000000 0.000000
# 3 -0.006855 -0.006199 0.020125 0.000000 0.000000 0.000000
# 4 0.000000 0.000000 0.000000 0.028706 0.000000 0.000000
# 5 0.000000 0.000000 0.000000 0.000000 0.023955 0.000000
# 6 0.000000 0.000000 0.000000 0.000000 0.000000 0.035090
#
#
# Mechanical properties :
#
#
# Convention : Reuss Voigt Hill
#
# Bulk Modulus (GPa) = 69.99255 71.65870 70.82563
# Shear Modulus (GPa) = 30.61251 33.19393 31.90322
#
# Velocity S-wave (km/s) = 4.07021 4.23835 4.15513
# Velocity P-wave (km/s) = 7.74383 7.92030 7.83256
#
# Compressibility (1/GPa) = 0.01428723
#
# Stress axis : x y z
#
# Youngs Moduli (GPa) = 84.58390 94.29347 49.68939
#
# Poissons Ratio (x) = 0.10173 0.34061
# Poissons Ratio (y) = 0.09125 0.30803
# Poissons Ratio (z) = 0.57980 0.58454
#
# Static dielectric constant tensor:
#      x y z
#    x 1.647170 0.000000 0.000000 
#    y 0.000000 1.630760 0.000000 
#    z 0.000000 0.000000 1.719940 
# 
# From -- ./inp_files/8470.got.cif
#   From: 2010.05.17/outbox.ucp.g08.bks.cvg/sg60_5_cif.got.tgz:8470.got - 2010.06.11 16:26:41.
