data_PCOD9458720
_publ_section_title
;
Structure prediction by ZEFSAII (Michael W. Deem and Ramdas Pophale) SiO2 
 PCOD9458720
Probable space group: P B C N
;
_chemical_formula_sum "Si O2"
_cell_formula_units_Z 24
_cell_length_a 12.283656
_cell_length_b 15.364521
_cell_length_c 5.238035
_cell_angle_alpha 90.000000
_cell_angle_beta 90.000000
_cell_angle_gamma 90.000000
_cell_volume 988.587391
_symmetry_space_group_name_H-M "P B C N"
_symmetry_group_IT_number 60
_symmetry_cell_setting 'orthorhombic'
loop_
_space_group_symop_operation_xyz
x,y,z
1/2-x,1/2-y,1/2+z
1/2+x,1/2-y,-z
-x,y,1/2-z
-x,-y,-z
1/2+x,1/2+y,1/2-z
1/2-x,1/2+y,z
x,-y,1/2+z
loop_
_atom_site_type_symbol
_atom_site_label
_atom_site_fract_x
_atom_site_fract_y
_atom_site_fract_z
Si Si1 0.714497 0.210815 0.556803
Si Si2 0.000000 0.793685 0.750000
Si Si3 0.000000 0.082170 0.750000
Si Si4 0.725715 0.474325 0.823937
O O1 0.792864 0.235733 0.792019
O O2 0.601117 0.230561 0.697120
O O3 0.754575 0.118206 0.455018
O O4 0.006585 0.857216 0.502436
O O5 0.892690 0.019587 0.770632
O O6 0.776511 0.465081 0.542988
#
# Coordination Sequence:
#
# PCOD9458720 Si02
#       4
#     8   4   4   8
#     4  12  26  45  68 102 146 186 229 290 357 417
#     4  12  26  47  74 107 144 186 236 291 352 418
#     4  12  24  43  74 107 136 180 242 297 344 408
#     4  12  24  41  68 102 139 181 232 291 347 412
#
# _framework density 24.277066999999999
#
# number of rings (size 3 to 8) (size 9 to 14) (size 15 to 20)
#    0.000    0.000    0.000   13.000    0.000    1.333 
#    0.000    3.333    0.000    0.000    0.000    2.333 
#    0.000    0.000    0.000    0.000    0.000    0.000 
#
# Total GULP energy -133838.628264 kJ/mol
# GULP energy per Si atom -5576.609511 kJ/mol
# Density = 2.422181 g / cm^3
# Si number density = 24.277067 Si / 1000 Ang^3
#
#
#
# Elastic Constant Matrix: (Units=GPa)
#
#
# Indices 1 2 3 4 5 6 
#
# 1 74.6574 57.5782 29.1377 0.0000 0.0000 0.0000
# 2 57.5782 119.3518 48.0561 0.0000 0.0000 0.0000
# 3 29.1377 48.0561 229.5936 0.0000 0.0000 0.0000
# 4 0.0000 0.0000 0.0000 68.8080 0.0000 0.0000
# 5 0.0000 0.0000 0.0000 0.0000 24.2946 0.0000
# 6 0.0000 0.0000 0.0000 0.0000 0.0000 42.8217
#
#
#
# Elastic Compliance Matrix: (Units=1/GPa)
#
#
# Indices 1 2 3 4 5 6 
#
# 1 0.021408 -0.010084 -0.000606 0.000000 0.000000 0.000000
# 2 -0.010084 0.013899 -0.001630 0.000000 0.000000 0.000000
# 3 -0.000606 -0.001630 0.004774 0.000000 0.000000 0.000000
# 4 0.000000 0.000000 0.000000 0.014533 0.000000 0.000000
# 5 0.000000 0.000000 0.000000 0.000000 0.041161 0.000000
# 6 0.000000 0.000000 0.000000 0.000000 0.000000 0.023353
#
#
# Mechanical properties :
#
#
# Convention : Reuss Voigt Hill
#
# Bulk Modulus (GPa) = 64.75881 77.01632 70.88756
# Shear Modulus (GPa) = 33.57637 46.44023 40.00830
#
# Velocity S-wave (km/s) = 3.72297 4.37845 4.06395
# Velocity P-wave (km/s) = 6.72410 7.57323 7.16126
#
# Compressibility (1/GPa) = 0.01544191
#
# Stress axis : x y z
#
# Youngs Moduli (GPa) = 46.71162 71.94609 209.48795
#
# Poissons Ratio (x) = 0.72548 0.12701
# Poissons Ratio (y) = 0.47102 0.34137
# Poissons Ratio (z) = 0.02832 0.11724
#
# Static dielectric constant tensor:
#      x y z
#    x 2.067800 0.000000 0.000000 
#    y 0.000000 2.060920 0.000000 
#    z 0.000000 0.000000 2.267050 
# 
# From -- ./inp_files/1005.got.cif
#   From: 2010.05.17/outbox.cif.g08.bks.cpg/sg60_1_cif.got.tgz:1005.got - 2010.06.03 14:59:27.
