data_PCOD9458692
_publ_section_title
;
Structure prediction by ZEFSAII (Michael W. Deem and Ramdas Pophale) SiO2 
 PCOD9458692
Probable space group: P B C N
;
_chemical_formula_sum "Si O2"
_cell_formula_units_Z 24
_cell_length_a 13.207757
_cell_length_b 12.846773
_cell_length_c 7.291080
_cell_angle_alpha 90.000000
_cell_angle_beta 90.000000
_cell_angle_gamma 90.000000
_cell_volume 1237.128990
_symmetry_space_group_name_H-M "P B C N"
_symmetry_group_IT_number 60
_symmetry_cell_setting 'orthorhombic'
loop_
_space_group_symop_operation_xyz
x,y,z
1/2-x,1/2-y,1/2+z
1/2+x,1/2-y,-z
-x,y,1/2-z
-x,-y,-z
1/2+x,1/2+y,1/2-z
1/2-x,1/2+y,z
x,-y,1/2+z
loop_
_atom_site_type_symbol
_atom_site_label
_atom_site_fract_x
_atom_site_fract_y
_atom_site_fract_z
Si Si1 0.112570 0.746374 0.732476
Si Si2 0.309222 0.362117 0.384119
Si Si3 0.394673 0.437075 0.011161
O O1 0.142867 0.779929 0.526456
O O2 0.200046 0.675796 0.818326
O O3 0.000000 0.700721 0.750000
O O4 0.890820 0.852789 0.649013
O O5 0.309845 0.474442 0.482594
O O6 0.376811 0.379700 0.202848
O O7 0.500000 0.500000 0.000000
#
# Coordination Sequence:
#
# PCOD9458692 Si02
#       3
#     8   8   8
#     4  12  25  41  67 100 132 174 218 276 337 395
#     4  12  24  40  66  99 133 167 224 277 331 392
#     4  12  23  40  71  99 128 172 227 277 326 395
#
# _framework density 19.399756
#
# number of rings (size 3 to 8) (size 9 to 14) (size 15 to 20)
#    0.000    0.000   10.000    1.000    0.000    0.000 
#    0.000    1.667    0.000    0.000    0.000    0.000 
#    0.000    0.000    0.000    0.000    0.000    0.000 
#
# Total GULP energy -134202.774158 kJ/mol
# GULP energy per Si atom -5591.782257 kJ/mol
# Density = 1.935560 g / cm^3
# Si number density = 19.399756 Si / 1000 Ang^3
#
#
#
# Elastic Constant Matrix: (Units=GPa)
#
#
# Indices 1 2 3 4 5 6 
#
# 1 185.6318 65.7061 73.4119 0.0000 0.0000 0.0000
# 2 65.7061 66.6643 26.4532 0.0000 0.0000 0.0000
# 3 73.4119 26.4532 147.0759 0.0000 0.0000 0.0000
# 4 0.0000 0.0000 0.0000 25.3070 0.0000 0.0000
# 5 0.0000 0.0000 0.0000 0.0000 30.9569 0.0000
# 6 0.0000 0.0000 0.0000 0.0000 0.0000 46.6200
#
#
#
# Elastic Compliance Matrix: (Units=1/GPa)
#
#
# Indices 1 2 3 4 5 6 
#
# 1 0.009573 -0.008119 -0.003318 0.000000 0.000000 0.000000
# 2 -0.008119 0.023039 -0.000091 0.000000 0.000000 0.000000
# 3 -0.003318 -0.000091 0.008472 0.000000 0.000000 0.000000
# 4 0.000000 0.000000 0.000000 0.039515 0.000000 0.000000
# 5 0.000000 0.000000 0.000000 0.000000 0.032303 0.000000
# 6 0.000000 0.000000 0.000000 0.000000 0.000000 0.021450
#
#
# Mechanical properties :
#
#
# Convention : Reuss Voigt Hill
#
# Bulk Modulus (GPa) = 55.47137 81.16828 68.31983
# Shear Modulus (GPa) = 30.59669 36.16349 33.38009
#
# Velocity S-wave (km/s) = 3.97567 4.32223 4.15257
# Velocity P-wave (km/s) = 7.05199 8.17555 7.63446
#
# Compressibility (1/GPa) = 0.01802732
#
# Stress axis : x y z
#
# Youngs Moduli (GPa) = 104.46215 43.40515 118.03856
#
# Poissons Ratio (x) = 0.35239 0.39165
# Poissons Ratio (y) = 0.84809 0.01079
# Poissons Ratio (z) = 0.34660 0.00397
#
# Static dielectric constant tensor:
#      x y z
#    x 1.698770 0.000000 0.000000 
#    y 0.000000 1.667230 0.000000 
#    z 0.000000 0.000000 1.731830 
# 
# From -- ./inp_files/4397.got.cif
#   From: 2010.05.17/outbox.cif.g08.bks.cpg/sg60_3_cif.got.tgz:4397.got - 2010.06.03 14:59:27.
