data_PCOD9458447
_publ_section_title
;
Structure prediction by ZEFSAII (Michael W. Deem and Ramdas Pophale) SiO2 
 PCOD9458447
Probable space group: P B C N
;
_chemical_formula_sum "Si O2"
_cell_formula_units_Z 36
_cell_length_a 4.958762
_cell_length_b 24.640365
_cell_length_c 11.229676
_cell_angle_alpha 90.000000
_cell_angle_beta 90.000000
_cell_angle_gamma 90.000000
_cell_volume 1372.105886
_symmetry_space_group_name_H-M "P B C N"
_symmetry_group_IT_number 60
_symmetry_cell_setting 'orthorhombic'
loop_
_space_group_symop_operation_xyz
x,y,z
1/2-x,1/2-y,1/2+z
1/2+x,1/2-y,-z
-x,y,1/2-z
-x,-y,-z
1/2+x,1/2+y,1/2-z
1/2-x,1/2+y,z
x,-y,1/2+z
loop_
_atom_site_type_symbol
_atom_site_label
_atom_site_fract_x
_atom_site_fract_y
_atom_site_fract_z
Si Si1 0.188730 0.037626 0.420342
Si Si2 0.000000 0.292459 0.750000
Si Si3 0.834936 0.728258 0.943445
Si Si4 0.614493 0.895955 0.386292
Si Si5 0.000000 0.043328 0.750000
Si Si6 0.500000 0.373149 0.750000
O O1 0.430101 0.062534 0.502029
O O2 0.023818 0.088062 0.365091
O O3 0.000000 0.000000 0.500000
O O4 0.223427 0.997968 0.304774
O O5 0.849517 0.251139 0.838866
O O6 0.240673 0.335915 0.762071
O O7 0.619482 0.740435 0.048862
O O8 0.903602 0.665172 0.931302
O O9 0.500000 0.898093 0.250000
O O10 0.916176 0.915478 0.353946
#
# Coordination Sequence:
#
# PCOD9458447 Si02
#       6
#     8   4   8   8   4   4
#     4   9  20  46  68 101 144 183 246 301 377 445
#     4  12  25  46  73 100 147 184 249 296 366 438
#     4  12  28  46  73 106 146 195 244 308 371 444
#     4  11  24  41  69 102 140 190 243 306 376 449
#     4   9  21  42  68 100 142 184 245 307 370 450
#     4  11  24  48  71 108 137 198 238 309 370 448
#
# _framework density 26.237044999999998
#
# number of rings (size 3 to 8) (size 9 to 14) (size 15 to 20)
#    0.000    1.333    0.000    4.667    7.778    0.889 
#   26.000    0.000    0.000    0.000    0.000    0.000 
#    0.000    0.000    0.000    0.000    0.000    0.000 
#
# Total GULP energy -200550.147530 kJ/mol
# GULP energy per Si atom -5570.837431 kJ/mol
# Density = 2.617733 g / cm^3
# Si number density = 26.237045 Si / 1000 Ang^3
#
#
#
# Elastic Constant Matrix: (Units=GPa)
#
#
# Indices 1 2 3 4 5 6 
#
# 1 96.2076 43.0772 18.8448 0.0000 0.0000 0.0000
# 2 43.0772 163.2353 38.5422 0.0000 0.0000 0.0000
# 3 18.8448 38.5422 88.9185 0.0000 0.0000 0.0000
# 4 0.0000 0.0000 0.0000 26.9078 0.0000 0.0000
# 5 0.0000 0.0000 0.0000 0.0000 39.8250 0.0000
# 6 0.0000 0.0000 0.0000 0.0000 0.0000 24.8750
#
#
#
# Elastic Compliance Matrix: (Units=1/GPa)
#
#
# Indices 1 2 3 4 5 6 
#
# 1 0.011919 -0.002840 -0.001295 0.000000 0.000000 0.000000
# 2 -0.002840 0.007501 -0.002650 0.000000 0.000000 0.000000
# 3 -0.001295 -0.002650 0.012669 0.000000 0.000000 0.000000
# 4 0.000000 0.000000 0.000000 0.037164 0.000000 0.000000
# 5 0.000000 0.000000 0.000000 0.000000 0.025110 0.000000
# 6 0.000000 0.000000 0.000000 0.000000 0.000000 0.040201
#
#
# Mechanical properties :
#
#
# Convention : Reuss Voigt Hill
#
# Bulk Modulus (GPa) = 53.99352 61.03220 57.51286
# Shear Modulus (GPa) = 32.40291 34.84802 33.62547
#
# Velocity S-wave (km/s) = 3.51808 3.64840 3.58383
# Velocity P-wave (km/s) = 6.09313 6.40782 6.25246
#
# Compressibility (1/GPa) = 0.01852074
#
# Stress axis : x y z
#
# Youngs Moduli (GPa) = 83.89712 133.31372 78.93139
#
# Poissons Ratio (x) = 0.37856 0.10224
# Poissons Ratio (y) = 0.23824 0.20913
# Poissons Ratio (z) = 0.10867 0.35323
#
# Static dielectric constant tensor:
#      x y z
#    x 2.100720 0.000000 0.000000 
#    y 0.000000 1.973080 0.000000 
#    z 0.000000 0.000000 2.478070 
# 
# From -- ./inp_files/9010.got.cif
#   From: 2010.05.17/outbox.cif.g08.bks.cpg/sg60_5_cif.got.tgz:9010.got - 2010.06.03 14:59:27.
