data_PCOD9458439
_publ_section_title
;
Structure prediction by ZEFSAII (Michael W. Deem and Ramdas Pophale) SiO2 
 PCOD9458439
Probable space group: P B C N
;
_chemical_formula_sum "Si O2"
_cell_formula_units_Z 48
_cell_length_a 27.059499
_cell_length_b 5.724952
_cell_length_c 14.051681
_cell_angle_alpha 90.000000
_cell_angle_beta 90.000000
_cell_angle_gamma 90.000000
_cell_volume 2176.806789
_symmetry_space_group_name_H-M "P B C N"
_symmetry_group_IT_number 60
_symmetry_cell_setting 'orthorhombic'
loop_
_space_group_symop_operation_xyz
x,y,z
1/2-x,1/2-y,1/2+z
1/2+x,1/2-y,-z
-x,y,1/2-z
-x,-y,-z
1/2+x,1/2+y,1/2-z
1/2-x,1/2+y,z
x,-y,1/2+z
loop_
_atom_site_type_symbol
_atom_site_label
_atom_site_fract_x
_atom_site_fract_y
_atom_site_fract_z
Si Si1 0.053354 0.183139 0.713772
Si Si2 0.399587 0.037658 0.863182
Si Si3 0.353425 0.686292 0.005355
Si Si4 0.550293 0.352611 0.496173
Si Si5 0.278077 0.585705 0.845177
Si Si6 0.646242 0.365857 0.781268
O O1 0.075215 0.360732 0.790226
O O2 0.050355 0.277906 0.605796
O O3 0.000000 0.108709 0.750000
O O4 0.091339 0.970229 0.710193
O O5 0.359576 0.177693 0.801640
O O6 0.371260 0.914661 0.949672
O O7 0.442144 0.189927 0.912946
O O8 0.401000 0.515779 0.001345
O O9 0.339413 0.724893 0.114964
O O10 0.309088 0.581742 0.943328
O O11 0.500000 0.500000 0.500000
O O12 0.247436 0.341531 0.840007
O O13 0.316891 0.562151 0.757965
#
# Coordination Sequence:
#
# PCOD9458439 Si02
#       6
#     8   8   8   8   8   8
#     4  11  24  40  67 105 141 195 246 301 384 461
#     4  12  21  43  69 102 153 197 250 310 381 462
#     4  11  25  45  71 107 147 196 251 321 389 465
#     4  11  24  42  68 103 149 194 247 306 383 470
#     4  12  27  50  79 110 147 200 261 322 390 452
#     4  11  25  46  71 104 150 194 249 321 384 465
#
# _framework density 22.050649
#
# number of rings (size 3 to 8) (size 9 to 14) (size 15 to 20)
#    0.000    0.667    3.333    4.000    0.000    7.333 
#    0.000    0.000    0.000    0.000    0.000    0.000 
#    0.000    0.000    0.000    0.000    0.000    0.000 
#
# Total GULP energy -268432.654418 kJ/mol
# GULP energy per Si atom -5592.346967 kJ/mol
# Density = 2.200046 g / cm^3
# Si number density = 22.050649 Si / 1000 Ang^3
#
#
#
# Elastic Constant Matrix: (Units=GPa)
#
#
# Indices 1 2 3 4 5 6 
#
# 1 75.8014 18.2008 -0.1432 0.0000 0.0000 0.0000
# 2 18.2008 67.1301 26.4371 0.0000 0.0000 0.0000
# 3 -0.1432 26.4371 150.6409 0.0000 0.0000 0.0000
# 4 0.0000 0.0000 0.0000 25.7190 0.0000 0.0000
# 5 0.0000 0.0000 0.0000 0.0000 29.3288 0.0000
# 6 0.0000 0.0000 0.0000 0.0000 0.0000 33.0199
#
#
#
# Elastic Compliance Matrix: (Units=1/GPa)
#
#
# Indices 1 2 3 4 5 6 
#
# 1 0.014187 -0.004138 0.000740 0.000000 0.000000 0.000000
# 2 -0.004138 0.017209 -0.003024 0.000000 0.000000 0.000000
# 3 0.000740 -0.003024 0.007170 0.000000 0.000000 0.000000
# 4 0.000000 0.000000 0.000000 0.038882 0.000000 0.000000
# 5 0.000000 0.000000 0.000000 0.000000 0.034096 0.000000
# 6 0.000000 0.000000 0.000000 0.000000 0.000000 0.030285
#
#
# Mechanical properties :
#
#
# Convention : Reuss Voigt Hill
#
# Bulk Modulus (GPa) = 38.87765 42.50686 40.69225
# Shear Modulus (GPa) = 30.62832 34.21871 32.42352
#
# Velocity S-wave (km/s) = 3.73097 3.94359 3.83875
# Velocity P-wave (km/s) = 6.01910 6.32888 6.17593
#
# Compressibility (1/GPa) = 0.02572172
#
# Stress axis : x y z
#
# Youngs Moduli (GPa) = 70.48549 58.10816 139.47527
#
# Poissons Ratio (x) = 0.24044 -0.10317
# Poissons Ratio (y) = 0.29166 0.42179
# Poissons Ratio (z) = -0.05214 0.17573
#
# Static dielectric constant tensor:
#      x y z
#    x 1.792680 0.000000 0.000000 
#    y 0.000000 2.088920 0.000000 
#    z 0.000000 0.000000 1.818610 
# 
# From -- ./inp_files/18049.got.cif
#   From: 2010.05.17/outbox.cif.g08.bks.cpg/sg60_10_cif.got.tgz:18049.got - 2010.06.03 14:59:27.
