data_PCOD9458902
_publ_section_title
;
Structure prediction by ZEFSAII (Michael W. Deem and Ramdas Pophale) SiO2 
 PCOD9458902
Probable space group: P B C N
;
_chemical_formula_sum "Si O2"
_cell_formula_units_Z 52
_cell_length_a 15.000000
_cell_length_b 9.000000
_cell_length_c 21.000000
_cell_angle_alpha 90.000000
_cell_angle_beta 90.000000
_cell_angle_gamma 90.000000
_cell_volume 2835.000000
_symmetry_space_group_name_H-M "P B C N"
_symmetry_group_IT_number 60
_symmetry_cell_setting 'orthorhombic'
loop_
_space_group_symop_operation_xyz
x,y,z
1/2-x,1/2-y,1/2+z
1/2+x,1/2-y,-z
-x,y,1/2-z
-x,-y,-z
1/2+x,1/2+y,1/2-z
1/2-x,1/2+y,z
x,-y,1/2+z
loop_
_atom_site_type_symbol
_atom_site_label
_atom_site_fract_x
_atom_site_fract_y
_atom_site_fract_z
Si Si1 0.500000 0.700994 0.250000
Si Si2 0.925616 0.703011 0.549586
Si Si3 0.227146 0.333742 0.051356
Si Si4 0.937952 0.004723 0.128388
Si Si5 0.276421 0.404733 0.454245
Si Si6 0.578247 0.756357 0.901377
Si Si7 0.432188 0.072345 0.642749
O O1 0.449885 0.592278 0.302828
O O2 0.555252 0.817098 0.296252
O O3 0.821419 0.662645 0.561936
O O4 0.945602 0.692518 0.474213
O O5 0.985635 0.602240 0.594897
O O6 0.947417 0.868166 0.574508
O O7 0.317752 0.286979 0.087874
O O8 0.156638 0.388222 0.103007
O O9 0.183290 0.205266 0.007845
O O10 0.255150 0.451952 0.997427
O O11 0.842077 0.933475 0.105678
O O12 0.014805 0.879935 0.119899
O O13 0.570213 0.893099 0.851695
#
# Coordination Sequence:
#
# PCOD9458902 Si02
#       7
#     4   8   8   8   8   8   8
#     4  10  28  46  62  84 130 190 224 252 310 388
#     4  10  21  36  61 101 127 165 202 269 345 368
#     4  11  22  37  64 103 129 155 207 268 337 378
#     4  11  23  42  62  90 134 171 217 260 313 399
#     4  11  21  37  63 101 132 157 205 269 332 384
#     4  11  22  36  68  99 122 166 210 273 335 368
#     4  11  23  42  61  88 133 169 215 262 309 389
#
# _framework density 18.342151999999999
#
# number of rings (size 3 to 8) (size 9 to 14) (size 15 to 20)
#    0.000    1.231    6.154    1.846    6.462    0.615 
#    0.000    6.154    0.000    0.000    0.000    0.000 
#    0.000    0.000    0.000    0.000    0.000    0.000 
#
# Total GULP energy -289694.266332 kJ/mol
# GULP energy per Si atom -5571.043583 kJ/mol
# Density = 1.830040 g / cm^3
# Si number density = 18.342152 Si / 1000 Ang^3
#
#
#
# Elastic Constant Matrix: (Units=GPa)
#
#
# Indices 1 2 3 4 5 6 
#
# 1 102.8646 47.4966 41.1041 0.0000 0.0000 0.0000
# 2 47.4966 124.1623 42.5692 0.0000 0.0000 0.0000
# 3 41.1041 42.5692 104.4546 0.0000 0.0000 0.0000
# 4 0.0000 0.0000 0.0000 34.6035 0.0000 0.0000
# 5 0.0000 0.0000 0.0000 0.0000 28.4014 0.0000
# 6 0.0000 0.0000 0.0000 0.0000 0.0000 29.8945
#
#
#
# Elastic Compliance Matrix: (Units=1/GPa)
#
#
# Indices 1 2 3 4 5 6 
#
# 1 0.012847 -0.003698 -0.003548 0.000000 0.000000 0.000000
# 2 -0.003698 0.010426 -0.002794 0.000000 0.000000 0.000000
# 3 -0.003548 -0.002794 0.012109 0.000000 0.000000 0.000000
# 4 0.000000 0.000000 0.000000 0.028899 0.000000 0.000000
# 5 0.000000 0.000000 0.000000 0.000000 0.035210 0.000000
# 6 0.000000 0.000000 0.000000 0.000000 0.000000 0.033451
#
#
# Mechanical properties :
#
#
# Convention : Reuss Voigt Hill
#
# Bulk Modulus (GPa) = 65.35362 65.98014 65.66688
# Shear Modulus (GPa) = 31.62114 31.93401 31.77757
#
# Velocity S-wave (km/s) = 4.15656 4.17708 4.16683
# Velocity P-wave (km/s) = 7.66444 7.70155 7.68302
#
# Compressibility (1/GPa) = 0.01530137
#
# Stress axis : x y z
#
# Youngs Moduli (GPa) = 77.84007 95.90982 82.58636
#
# Poissons Ratio (x) = 0.35466 0.29305
# Poissons Ratio (y) = 0.28784 0.23075
# Poissons Ratio (z) = 0.27621 0.26798
#
# Static dielectric constant tensor:
#      x y z
#    x 1.658620 0.000000 0.000000 
#    y 0.000000 1.780730 0.000000 
#    z 0.000000 0.000000 1.598500 
# 
# From -- ./inp_files/22843.got.cif
#   From: 2010.05.17/outbox.ucp.g08.bks.cvg/sg60_12_cif.got.tgz:22843.got - 2010.06.11 16:26:41.
