data_PCOD9458043
_publ_section_title
;
Structure prediction by ZEFSAII (Michael W. Deem and Ramdas Pophale) SiO2 
 PCOD9458043
Probable space group: P B C N
;
_chemical_formula_sum "Si O2"
_cell_formula_units_Z 48
_cell_length_a 8.878546
_cell_length_b 14.406628
_cell_length_c 17.751863
_cell_angle_alpha 90.000000
_cell_angle_beta 90.000000
_cell_angle_gamma 90.000000
_cell_volume 2270.639188
_symmetry_space_group_name_H-M "P B C N"
_symmetry_group_IT_number 60
_symmetry_cell_setting 'orthorhombic'
loop_
_space_group_symop_operation_xyz
x,y,z
1/2-x,1/2-y,1/2+z
1/2+x,1/2-y,-z
-x,y,1/2-z
-x,-y,-z
1/2+x,1/2+y,1/2-z
1/2-x,1/2+y,z
x,-y,1/2+z
loop_
_atom_site_type_symbol
_atom_site_label
_atom_site_fract_x
_atom_site_fract_y
_atom_site_fract_z
Si Si1 0.221451 0.476425 0.945598
Si Si2 0.939599 0.640374 0.480321
Si Si3 0.250541 0.128243 0.161912
Si Si4 0.829399 0.734905 0.716127
Si Si5 0.175700 0.521479 0.773571
Si Si6 0.448426 0.326971 0.930331
O O1 0.198943 0.477529 0.855589
O O2 0.376446 0.422386 0.959719
O O3 0.096693 0.413631 0.987913
O O4 0.185874 0.580527 0.973944
O O5 0.889694 0.632101 0.394222
O O6 0.957980 0.745166 0.508471
O O7 0.266852 0.204069 0.227081
O O8 0.236794 0.032105 0.207423
O O9 0.105299 0.151497 0.111117
O O10 0.780572 0.628724 0.717539
O O11 0.841815 0.781467 0.634480
O O12 0.000000 0.736773 0.750000
O O13 0.000000 0.516853 0.750000
#
# Coordination Sequence:
#
# PCOD9458043 Si02
#       6
#     8   8   8   8   8   8
#     4  11  23  39  66  89 127 169 211 258 312 385
#     4  11  24  41  62  95 125 172 213 252 322 385
#     4  11  23  39  67  94 124 163 211 263 315 367
#     4   9  20  36  63  90 117 163 207 250 309 370
#     4  11  20  39  66  92 123 164 214 254 303 383
#     4  11  22  41  63  93 130 162 206 270 318 369
#
# _framework density 21.139422
#
# number of rings (size 3 to 8) (size 9 to 14) (size 15 to 20)
#    0.000    1.333    5.000    1.000    0.000    2.000 
#    0.000    1.667    7.333    0.000    0.000    0.000 
#    0.000    0.000    0.000    0.000    0.000    0.000 
#
# Total GULP energy -268066.346912 kJ/mol
# GULP energy per Si atom -5584.715561 kJ/mol
# Density = 2.109131 g / cm^3
# Si number density = 21.139422 Si / 1000 Ang^3
#
#
#
# Elastic Constant Matrix: (Units=GPa)
#
#
# Indices 1 2 3 4 5 6 
#
# 1 14.0992 22.7838 -4.3955 0.0000 0.0000 0.0000
# 2 22.7838 83.8053 4.2142 0.0000 0.0000 0.0000
# 3 -4.3955 4.2142 62.4426 0.0000 0.0000 0.0000
# 4 0.0000 0.0000 0.0000 33.2593 0.0000 0.0000
# 5 0.0000 0.0000 0.0000 0.0000 18.6594 0.0000
# 6 0.0000 0.0000 0.0000 0.0000 0.0000 27.3429
#
#
#
# Elastic Compliance Matrix: (Units=1/GPa)
#
#
# Indices 1 2 3 4 5 6 
#
# 1 0.134923 -0.037285 0.012014 0.000000 0.000000 0.000000
# 2 -0.037285 0.022277 -0.004128 0.000000 0.000000 0.000000
# 3 0.012014 -0.004128 0.017139 0.000000 0.000000 0.000000
# 4 0.000000 0.000000 0.000000 0.030067 0.000000 0.000000
# 5 0.000000 0.000000 0.000000 0.000000 0.053592 0.000000
# 6 0.000000 0.000000 0.000000 0.000000 0.000000 0.036573
#
#
# Mechanical properties :
#
#
# Convention : Reuss Voigt Hill
#
# Bulk Modulus (GPa) = 8.65499 22.83913 15.74706
# Shear Modulus (GPa) = 12.75894 25.03529 18.89711
#
# Velocity S-wave (km/s) = 2.45941 3.44509 2.99311
# Velocity P-wave (km/s) = 3.48828 5.16259 4.40570
#
# Compressibility (1/GPa) = 0.11554024
#
# Stress axis : x y z
#
# Youngs Moduli (GPa) = 7.41163 44.89022 58.34639
#
# Poissons Ratio (x) = 1.67374 -0.70097
# Poissons Ratio (y) = 0.27634 0.24086
# Poissons Ratio (z) = -0.08904 0.18531
#
# Static dielectric constant tensor:
#      x y z
#    x 1.779120 0.000000 0.000000 
#    y 0.000000 1.763270 0.000000 
#    z 0.000000 0.000000 1.745460 
# 
# From -- ./inp_files/19307.got.cif
#   From: 2010.05.17/outbox.cif.g08.bks.cpg/sg60_10_cif.got.tgz:19307.got - 2010.06.03 14:59:27.
