data_PCOD9458834
_publ_section_title
;
Structure prediction by ZEFSAII (Michael W. Deem and Ramdas Pophale) SiO2 
 PCOD9458834
Probable space group: P B C N
;
_chemical_formula_sum "Si O2"
_cell_formula_units_Z 28
_cell_length_a 4.920878
_cell_length_b 22.642792
_cell_length_c 11.002787
_cell_angle_alpha 90.000000
_cell_angle_beta 90.000000
_cell_angle_gamma 90.000000
_cell_volume 1225.957121
_symmetry_space_group_name_H-M "P B C N"
_symmetry_group_IT_number 60
_symmetry_cell_setting 'orthorhombic'
loop_
_space_group_symop_operation_xyz
x,y,z
1/2-x,1/2-y,1/2+z
1/2+x,1/2-y,-z
-x,y,1/2-z
-x,-y,-z
1/2+x,1/2+y,1/2-z
1/2-x,1/2+y,z
x,-y,1/2+z
loop_
_atom_site_type_symbol
_atom_site_label
_atom_site_fract_x
_atom_site_fract_y
_atom_site_fract_z
Si Si1 0.000000 0.000000 0.500000
Si Si2 0.299256 0.788916 0.987964
Si Si3 0.744766 0.102474 0.836522
Si Si4 0.500000 0.144716 0.250000
Si Si5 0.500000 0.562893 0.250000
O O1 0.915246 0.975779 0.635578
O O2 0.822317 0.946698 0.434794
O O3 0.390577 0.816163 0.860239
O O4 0.490558 0.733180 0.016170
O O5 0.334118 0.838467 0.090637
O O6 0.500000 0.083034 0.750000
O O7 0.000000 0.115204 0.750000
O O8 0.748464 0.103312 0.291993
#
# Coordination Sequence:
#
# PCOD9458834 Si02
#       5
#     4   8   8   4   4
#     4  12  28  52  76 118 152 210 254 326 386 468
#     4  12  28  50  78 111 155 203 258 320 384 459
#     4  12  29  51  78 115 157 204 261 322 393 462
#     4  12  28  50  73 112 151 204 254 312 386 462
#     4  12  28  48  79 108 163 196 260 314 390 464
#
# _framework density 22.839297999999999
#
# number of rings (size 3 to 8) (size 9 to 14) (size 15 to 20)
#    0.000    0.000    4.286    3.429   12.000    2.286 
#    0.000    0.000    0.000    0.000    0.000    0.000 
#    0.000    0.000    0.000    0.000    0.000    0.000 
#
# Total GULP energy -155984.060958 kJ/mol
# GULP energy per Si atom -5570.859320 kJ/mol
# Density = 2.278731 g / cm^3
# Si number density = 22.839298 Si / 1000 Ang^3
#
#
#
# Elastic Constant Matrix: (Units=GPa)
#
#
# Indices 1 2 3 4 5 6 
#
# 1 60.2691 -1.3588 4.5074 0.0000 0.0000 0.0000
# 2 -1.3588 74.0018 32.5699 0.0000 0.0000 0.0000
# 3 4.5074 32.5699 192.3361 0.0000 0.0000 0.0000
# 4 0.0000 0.0000 0.0000 27.4838 0.0000 0.0000
# 5 0.0000 0.0000 0.0000 0.0000 -1.1623 0.0000
# 6 0.0000 0.0000 0.0000 0.0000 0.0000 58.1830
#
#
#
# Elastic Compliance Matrix: (Units=1/GPa)
#
#
# Indices 1 2 3 4 5 6 
#
# 1 0.016640 0.000516 -0.000477 0.000000 0.000000 0.000000
# 2 0.000516 0.014617 -0.002487 0.000000 0.000000 0.000000
# 3 -0.000477 -0.002487 0.005632 0.000000 0.000000 0.000000
# 4 0.000000 0.000000 0.000000 0.036385 0.000000 0.000000
# 5 0.000000 0.000000 0.000000 0.000000 -0.860336 0.000000
# 6 0.000000 0.000000 0.000000 0.000000 0.000000 0.017187
#
#
# Mechanical properties :
#
#
# Convention : Reuss Voigt Hill
#
# Bulk Modulus (GPa) = 31.25927 44.22710 37.74319
# Shear Modulus (GPa) = -6.62854 36.29347 14.83247
#
# Velocity S-wave (km/s) = -1.70545 3.99065 2.55115
# Velocity P-wave (km/s) = 3.13660 6.37497 5.02387
#
# Compressibility (1/GPa) = 0.03199051
#
# Stress axis : x y z
#
# Youngs Moduli (GPa) = 60.09776 68.41165 177.56872
#
# Poissons Ratio (x) = -0.03527 0.08475
# Poissons Ratio (y) = -0.03099 0.44168
# Poissons Ratio (z) = 0.02868 0.17017
#
# Static dielectric constant tensor:
#      x y z
#    x 1.873110 0.000000 0.000000 
#    y 0.000000 1.830070 0.000000 
#    z 0.000000 0.000000 1.773060 
# 
# From -- ./inp_files/8796.got.cif
#   From: 2010.05.17/outbox.cif.g08.bks.cpg/sg60_5_cif.got.tgz:8796.got - 2010.06.03 14:59:27.
