data_PCOD9458038
_publ_section_title
;
Structure prediction by ZEFSAII (Michael W. Deem and Ramdas Pophale) SiO2 
 PCOD9458038
Probable space group: P B C N
;
_chemical_formula_sum "Si O2"
_cell_formula_units_Z 52
_cell_length_a 5.870899
_cell_length_b 21.089274
_cell_length_c 19.894881
_cell_angle_alpha 90.000000
_cell_angle_beta 90.000000
_cell_angle_gamma 90.000000
_cell_volume 2463.244854
_symmetry_space_group_name_H-M "P B C N"
_symmetry_group_IT_number 60
_symmetry_cell_setting 'orthorhombic'
loop_
_space_group_symop_operation_xyz
x,y,z
1/2-x,1/2-y,1/2+z
1/2+x,1/2-y,-z
-x,y,1/2-z
-x,-y,-z
1/2+x,1/2+y,1/2-z
1/2-x,1/2+y,z
x,-y,1/2+z
loop_
_atom_site_type_symbol
_atom_site_label
_atom_site_fract_x
_atom_site_fract_y
_atom_site_fract_z
Si Si1 0.049443 0.350920 0.637806
Si Si2 0.938644 0.775975 0.925542
Si Si3 0.500000 0.954714 0.750000
Si Si4 0.668014 0.726020 0.664390
Si Si5 0.721638 0.847369 0.500887
Si Si6 0.500000 0.477742 0.250000
Si Si7 0.500000 0.154479 0.750000
Si Si8 0.318017 0.385925 0.140268
O O1 0.278837 0.310157 0.628391
O O2 0.044408 0.412301 0.683470
O O3 0.895099 0.298617 0.674703
O O4 0.950133 0.361985 0.562168
O O5 0.826736 0.724101 0.973746
O O6 0.134683 0.733998 0.890880
O O7 0.034839 0.836036 0.965624
O O8 0.249522 0.988543 0.758089
O O9 0.784950 0.695840 0.728778
O O10 0.466013 0.679519 0.641142
O O11 0.742147 0.893292 0.437007
O O12 0.468880 0.435660 0.182121
O O13 0.410841 0.117482 0.685374
#
# Coordination Sequence:
#
# PCOD9458038 Si02
#       8
#     8   8   4   8   8   4   4   8
#     4  11  26  43  69 106 147 198 224 290 372 468
#     4  11  20  37  64 106 160 176 212 272 377 464
#     4  12  33  55  74  95 148 201 262 302 358 434
#     4  11  22  35  66 109 146 176 227 285 381 445
#     4  11  21  38  66 111 143 185 218 288 372 446
#     4  12  30  56  74  99 135 202 268 320 358 400
#     4  12  21  35  64 108 145 179 222 292 370 442
#     4  12  24  43  73 104 142 180 243 314 367 418
#
# _framework density 21.110365000000002
#
# number of rings (size 3 to 8) (size 9 to 14) (size 15 to 20)
#    0.000    0.615    6.154    1.385    8.615    0.000 
#    0.000    1.538    0.000    0.000    0.000    0.000 
#    0.000    0.000    0.000    0.000    0.000    0.000 
#
# Total GULP energy -289800.113872 kJ/mol
# GULP energy per Si atom -5573.079113 kJ/mol
# Density = 2.106232 g / cm^3
# Si number density = 21.110365 Si / 1000 Ang^3
#
#
#
# Elastic Constant Matrix: (Units=GPa)
#
#
# Indices 1 2 3 4 5 6 
#
# 1 99.4456 43.4522 43.5371 0.0000 0.0000 0.0000
# 2 43.4522 73.5004 41.2050 0.0000 0.0000 0.0000
# 3 43.5371 41.2050 120.8341 0.0000 0.0000 0.0000
# 4 0.0000 0.0000 0.0000 25.0049 0.0000 0.0000
# 5 0.0000 0.0000 0.0000 0.0000 39.4367 0.0000
# 6 0.0000 0.0000 0.0000 0.0000 0.0000 22.8761
#
#
#
# Elastic Compliance Matrix: (Units=1/GPa)
#
#
# Indices 1 2 3 4 5 6 
#
# 1 0.014287 -0.006875 -0.002803 0.000000 0.000000 0.000000
# 2 -0.006875 0.020129 -0.004387 0.000000 0.000000 0.000000
# 3 -0.002803 -0.004387 0.010782 0.000000 0.000000 0.000000
# 4 0.000000 0.000000 0.000000 0.039992 0.000000 0.000000
# 5 0.000000 0.000000 0.000000 0.000000 0.025357 0.000000
# 6 0.000000 0.000000 0.000000 0.000000 0.000000 0.043714
#
#
# Mechanical properties :
#
#
# Convention : Reuss Voigt Hill
#
# Bulk Modulus (GPa) = 58.59052 61.12987 59.86019
# Shear Modulus (GPa) = 26.58443 28.50259 27.54351
#
# Velocity S-wave (km/s) = 3.55252 3.67845 3.61604
# Velocity P-wave (km/s) = 6.68146 6.86014 6.77139
#
# Compressibility (1/GPa) = 0.01706761
#
# Stress axis : x y z
#
# Youngs Moduli (GPa) = 69.99447 49.67971 92.74785
#
# Poissons Ratio (x) = 0.34152 0.26001
# Poissons Ratio (y) = 0.48118 0.40690
# Poissons Ratio (z) = 0.19622 0.21795
#
# Static dielectric constant tensor:
#      x y z
#    x 1.875560 0.000000 0.000000 
#    y 0.000000 1.771400 0.000000 
#    z 0.000000 0.000000 1.830630 
# 
# From -- ./inp_files/21686.got.cif
#   From: 2010.05.17/outbox.cif.g08.bks.cpg/sg60_11_cif.got.tgz:21686.got - 2010.06.03 14:59:27.
