data_PCOD9458835
_publ_section_title
;
Structure prediction by ZEFSAII (Michael W. Deem and Ramdas Pophale) SiO2 
 PCOD9458835
Probable space group: P B C N
;
_chemical_formula_sum "Si O2"
_cell_formula_units_Z 32
_cell_length_a 24.650250
_cell_length_b 5.001583
_cell_length_c 9.221068
_cell_angle_alpha 90.000000
_cell_angle_beta 90.000000
_cell_angle_gamma 90.000000
_cell_volume 1136.867976
_symmetry_space_group_name_H-M "P B C N"
_symmetry_group_IT_number 60
_symmetry_cell_setting 'orthorhombic'
loop_
_space_group_symop_operation_xyz
x,y,z
1/2-x,1/2-y,1/2+z
1/2+x,1/2-y,-z
-x,y,1/2-z
-x,-y,-z
1/2+x,1/2+y,1/2-z
1/2-x,1/2+y,z
x,-y,1/2+z
loop_
_atom_site_type_symbol
_atom_site_label
_atom_site_fract_x
_atom_site_fract_y
_atom_site_fract_z
Si Si1 0.448116 0.840875 0.445370
Si Si2 0.284263 0.251935 0.634562
Si Si3 0.651062 0.885591 0.643812
Si Si4 0.440666 0.535208 0.707137
O O1 0.441907 0.566417 0.535531
O O2 0.444750 0.754694 0.278089
O O3 0.500000 0.000000 0.500000
O O4 0.392783 0.994024 0.468399
O O5 0.231152 0.061830 0.654160
O O6 0.324017 0.115946 0.752615
O O7 0.304475 0.225669 0.468440
O O8 0.612786 0.680689 0.733236
O O9 0.500000 0.657083 0.750000
#
# Coordination Sequence:
#
# PCOD9458835 Si02
#       4
#     8   8   8   8
#     4  12  29  51  77 123 166 217 270 334 415 516
#     4  12  30  54  79 116 159 214 288 357 422 493
#     4  12  28  48  84 112 162 213 272 344 426 491
#     4  12  28  48  79 116 169 212 267 330 408 510
#
# _framework density 28.14751
#
# number of rings (size 3 to 8) (size 9 to 14) (size 15 to 20)
#    0.000    0.000    5.000    2.250   14.000    0.000 
#    0.000    0.000    0.000    0.000    0.000    0.000 
#    0.000    0.000    0.000    0.000    0.000    0.000 
#
# Total GULP energy -179252.141893 kJ/mol
# GULP energy per Si atom -5601.629434 kJ/mol
# Density = 2.808344 g / cm^3
# Si number density = 28.147510 Si / 1000 Ang^3
#
#
#
# Elastic Constant Matrix: (Units=GPa)
#
#
# Indices 1 2 3 4 5 6 
#
# 1 148.7477 18.8587 32.4738 0.0000 0.0000 0.0000
# 2 18.8587 92.0824 11.3720 0.0000 0.0000 0.0000
# 3 32.4738 11.3720 102.0850 0.0000 0.0000 0.0000
# 4 0.0000 0.0000 0.0000 50.5953 0.0000 0.0000
# 5 0.0000 0.0000 0.0000 0.0000 56.2697 0.0000
# 6 0.0000 0.0000 0.0000 0.0000 0.0000 51.1853
#
#
#
# Elastic Compliance Matrix: (Units=1/GPa)
#
#
# Indices 1 2 3 4 5 6 
#
# 1 0.007361 -0.001235 -0.002204 0.000000 0.000000 0.000000
# 2 -0.001235 0.011219 -0.000857 0.000000 0.000000 0.000000
# 3 -0.002204 -0.000857 0.010592 0.000000 0.000000 0.000000
# 4 0.000000 0.000000 0.000000 0.019765 0.000000 0.000000
# 5 0.000000 0.000000 0.000000 0.000000 0.017772 0.000000
# 6 0.000000 0.000000 0.000000 0.000000 0.000000 0.019537
#
#
# Mechanical properties :
#
#
# Convention : Reuss Voigt Hill
#
# Bulk Modulus (GPa) = 48.59169 52.03603 50.31386
# Shear Modulus (GPa) = 49.16604 50.29074 49.72839
#
# Velocity S-wave (km/s) = 4.18392 4.23151 4.20778
# Velocity P-wave (km/s) = 6.37503 6.51162 6.44369
#
# Compressibility (1/GPa) = 0.02057965
#
# Stress axis : x y z
#
# Youngs Moduli (GPa) = 135.85973 89.13738 94.40865
#
# Poissons Ratio (x) = 0.11011 0.20806
# Poissons Ratio (y) = 0.16783 0.08089
# Poissons Ratio (z) = 0.29941 0.07637
#
# Static dielectric constant tensor:
#      x y z
#    x 2.234940 0.000000 0.000000 
#    y 0.000000 2.163970 0.000000 
#    z 0.000000 0.000000 2.125960 
# 
# From -- ./inp_files/8307.got.cif
#   From: 2010.05.17/outbox.cif.g08.bks.cpg/sg60_5_cif.got.tgz:8307.got - 2010.06.03 14:59:27.
