data_PCOD9458928
_publ_section_title
;
Structure prediction by ZEFSAII (Michael W. Deem and Ramdas Pophale) SiO2 
 PCOD9458928
Probable space group: P B C N
;
_chemical_formula_sum "Si O2"
_cell_formula_units_Z 40
_cell_length_a 9.000000
_cell_length_b 9.000000
_cell_length_c 24.000000
_cell_angle_alpha 90.000000
_cell_angle_beta 90.000000
_cell_angle_gamma 90.000000
_cell_volume 1944.000000
_symmetry_space_group_name_H-M "P B C N"
_symmetry_group_IT_number 60
_symmetry_cell_setting 'orthorhombic'
loop_
_space_group_symop_operation_xyz
x,y,z
1/2-x,1/2-y,1/2+z
1/2+x,1/2-y,-z
-x,y,1/2-z
-x,-y,-z
1/2+x,1/2+y,1/2-z
1/2-x,1/2+y,z
x,-y,1/2+z
loop_
_atom_site_type_symbol
_atom_site_label
_atom_site_fract_x
_atom_site_fract_y
_atom_site_fract_z
Si Si1 0.609713 0.793611 0.342335
Si Si2 0.860989 0.364401 0.565959
Si Si3 0.951298 0.704263 0.541789
Si Si4 0.148870 0.986334 0.222112
Si Si5 0.905716 0.438167 0.695133
O O1 0.575780 0.778052 0.408712
O O2 0.610576 0.633510 0.313417
O O3 0.758535 0.876969 0.319054
O O4 0.480064 0.902991 0.320264
O O5 0.885539 0.537707 0.550334
O O6 0.691533 0.310748 0.553578
O O7 0.895863 0.354751 0.633972
O O8 0.971586 0.284628 0.519987
O O9 0.248397 0.033708 0.275547
O O10 0.000000 0.925574 0.250000
O O11 0.000000 0.384227 0.750000
#
# Coordination Sequence:
#
# PCOD9458928 Si02
#       5
#     8   8   8   8   8
#     4  10  23  41  60  89 127 161 205 256 309 372
#     4  10  22  41  66  91 124 165 207 259 311 369
#     4  10  23  44  65  92 126 163 211 260 311 370
#     4  11  21  37  63  90 122 163 206 253 308 366
#     4   9  20  39  60  86 126 161 196 248 306 366
#
# _framework density 20.576132000000001
#
# number of rings (size 3 to 8) (size 9 to 14) (size 15 to 20)
#    0.000    2.000    0.000    3.000    0.000   12.800 
#    0.000   14.000    0.000    0.000    0.000    0.000 
#    0.000    0.000    0.000    0.000    0.000    0.000 
#
# Total GULP energy -223121.987370 kJ/mol
# GULP energy per Si atom -5578.049684 kJ/mol
# Density = 2.052930 g / cm^3
# Si number density = 20.576132 Si / 1000 Ang^3
#
#
#
# Elastic Constant Matrix: (Units=GPa)
#
#
# Indices 1 2 3 4 5 6 
#
# 1 130.6678 16.6627 67.5572 0.0000 0.0000 0.0000
# 2 16.6627 67.0962 19.2690 0.0000 0.0000 0.0000
# 3 67.5572 19.2690 203.4526 0.0000 0.0000 0.0000
# 4 0.0000 0.0000 0.0000 25.5464 0.0000 0.0000
# 5 0.0000 0.0000 0.0000 0.0000 36.8114 0.0000
# 6 0.0000 0.0000 0.0000 0.0000 0.0000 29.8654
#
#
#
# Elastic Compliance Matrix: (Units=1/GPa)
#
#
# Indices 1 2 3 4 5 6 
#
# 1 0.009379 -0.001475 -0.002975 0.000000 0.000000 0.000000
# 2 -0.001475 0.015553 -0.000983 0.000000 0.000000 0.000000
# 3 -0.002975 -0.000983 0.005996 0.000000 0.000000 0.000000
# 4 0.000000 0.000000 0.000000 0.039144 0.000000 0.000000
# 5 0.000000 0.000000 0.000000 0.000000 0.027166 0.000000
# 6 0.000000 0.000000 0.000000 0.000000 0.000000 0.033484
#
#
# Mechanical properties :
#
#
# Convention : Reuss Voigt Hill
#
# Bulk Modulus (GPa) = 49.84534 67.57714 58.71124
# Shear Modulus (GPa) = 33.72132 38.29315 36.00724
#
# Velocity S-wave (km/s) = 4.05267 4.31867 4.18778
# Velocity P-wave (km/s) = 6.79531 7.60142 7.20964
#
# Compressibility (1/GPa) = 0.02006206
#
# Stress axis : x y z
#
# Youngs Moduli (GPa) = 106.62101 64.29779 166.77749
#
# Poissons Ratio (x) = 0.09483 0.49610
# Poissons Ratio (y) = 0.15726 0.16398
# Poissons Ratio (z) = 0.31716 0.06322
#
# Static dielectric constant tensor:
#      x y z
#    x 1.792490 0.000000 0.000000 
#    y 0.000000 1.743320 0.000000 
#    z 0.000000 0.000000 1.736440 
# 
# From -- ./inp_files/23834.got.cif
#   From: 2010.05.17/outbox.ucp.g08.bks.cvg/sg60_12_cif.got.tgz:23834.got - 2010.06.11 16:26:41.
