data_PCOD9458814
_publ_section_title
;
Structure prediction by ZEFSAII (Michael W. Deem and Ramdas Pophale) SiO2 
 PCOD9458814
Probable space group: P B C N
;
_chemical_formula_sum "Si O2"
_cell_formula_units_Z 32
_cell_length_a 9.114406
_cell_length_b 10.647324
_cell_length_c 14.325778
_cell_angle_alpha 90.000000
_cell_angle_beta 90.000000
_cell_angle_gamma 90.000000
_cell_volume 1390.231284
_symmetry_space_group_name_H-M "P B C N"
_symmetry_group_IT_number 60
_symmetry_cell_setting 'orthorhombic'
loop_
_space_group_symop_operation_xyz
x,y,z
1/2-x,1/2-y,1/2+z
1/2+x,1/2-y,-z
-x,y,1/2-z
-x,-y,-z
1/2+x,1/2+y,1/2-z
1/2-x,1/2+y,z
x,-y,1/2+z
loop_
_atom_site_type_symbol
_atom_site_label
_atom_site_fract_x
_atom_site_fract_y
_atom_site_fract_z
Si Si1 0.390240 0.764697 0.316814
Si Si2 0.874046 0.282600 0.817889
Si Si3 0.602853 0.377390 0.487033
Si Si4 0.904910 0.466627 0.410433
O O1 0.500000 0.687564 0.250000
O O2 0.247422 0.780375 0.250588
O O3 0.377370 0.692165 0.414257
O O4 0.482356 0.889260 0.345675
O O5 0.954995 0.203072 0.899234
O O6 0.825655 0.411026 0.867313
O O7 0.000000 0.327261 0.750000
O O8 0.500000 0.500000 0.500000
O O9 0.768781 0.388863 0.448946
O O10 0.000000 0.500000 0.500000
#
# Coordination Sequence:
#
# PCOD9458814 Si02
#       4
#     8   8   8   8
#     4  12  26  50  78 115 153 203 266 317 399 478
#     4  12  28  48  78 113 153 206 263 327 393 475
#     4  12  29  48  76 113 158 199 262 334 395 473
#     4  12  26  50  81 109 156 209 259 328 401 470
#
# _framework density 23.017754
#
# number of rings (size 3 to 8) (size 9 to 14) (size 15 to 20)
#    0.000    0.000    5.000    3.750    3.500    3.000 
#    0.000    0.000    0.000    0.000    0.000    0.000 
#    0.000    0.000    0.000    0.000    0.000    0.000 
#
# Total GULP energy -178373.873295 kJ/mol
# GULP energy per Si atom -5574.183540 kJ/mol
# Density = 2.296536 g / cm^3
# Si number density = 23.017754 Si / 1000 Ang^3
#
#
#
# Elastic Constant Matrix: (Units=GPa)
#
#
# Indices 1 2 3 4 5 6 
#
# 1 45.2319 10.8995 26.2477 0.0000 0.0000 0.0000
# 2 10.8995 95.2842 64.0927 0.0000 0.0000 0.0000
# 3 26.2477 64.0927 201.0085 0.0000 0.0000 0.0000
# 4 0.0000 0.0000 0.0000 31.6211 0.0000 0.0000
# 5 0.0000 0.0000 0.0000 0.0000 49.2357 0.0000
# 6 0.0000 0.0000 0.0000 0.0000 0.0000 25.2339
#
#
#
# Elastic Compliance Matrix: (Units=1/GPa)
#
#
# Indices 1 2 3 4 5 6 
#
# 1 0.023970 -0.000810 -0.002872 0.000000 0.000000 0.000000
# 2 -0.000810 0.013388 -0.004163 0.000000 0.000000 0.000000
# 3 -0.002872 -0.004163 0.006677 0.000000 0.000000 0.000000
# 4 0.000000 0.000000 0.000000 0.031624 0.000000 0.000000
# 5 0.000000 0.000000 0.000000 0.000000 0.020310 0.000000
# 6 0.000000 0.000000 0.000000 0.000000 0.000000 0.039629
#
#
# Mechanical properties :
#
#
# Convention : Reuss Voigt Hill
#
# Bulk Modulus (GPa) = 35.27934 60.44493 47.86213
# Shear Modulus (GPa) = 31.10665 37.23713 34.17189
#
# Velocity S-wave (km/s) = 3.68015 4.02650 3.85722
# Velocity P-wave (km/s) = 5.78086 6.92344 6.37779
#
# Compressibility (1/GPa) = 0.02834521
#
# Stress axis : x y z
#
# Youngs Moduli (GPa) = 41.71898 74.69472 149.76164
#
# Poissons Ratio (x) = 0.06053 0.43006
# Poissons Ratio (y) = 0.03381 0.62345
# Poissons Ratio (z) = 0.11980 0.31095
#
# Static dielectric constant tensor:
#      x y z
#    x 1.199020 0.000000 0.000000 
#    y 0.000000 1.613050 0.000000 
#    z 0.000000 0.000000 1.389290 
# 
# From -- ./inp_files/14431.got.cif
#   From: 2010.05.17/outbox.cif.g08.bks.cpg/sg60_8_cif.got.tgz:14431.got - 2010.06.03 14:59:27.
