data_PCOD9458936
_publ_section_title
;
Structure prediction by ZEFSAII (Michael W. Deem and Ramdas Pophale) SiO2 
 PCOD9458936
Probable space group: P B C N
;
_chemical_formula_sum "Si O2"
_cell_formula_units_Z 40
_cell_length_a 9.000000
_cell_length_b 24.000000
_cell_length_c 9.000000
_cell_angle_alpha 90.000000
_cell_angle_beta 90.000000
_cell_angle_gamma 90.000000
_cell_volume 1944.000000
_symmetry_space_group_name_H-M "P B C N"
_symmetry_group_IT_number 60
_symmetry_cell_setting 'orthorhombic'
loop_
_space_group_symop_operation_xyz
x,y,z
1/2-x,1/2-y,1/2+z
1/2+x,1/2-y,-z
-x,y,1/2-z
-x,-y,-z
1/2+x,1/2+y,1/2-z
1/2-x,1/2+y,z
x,-y,1/2+z
loop_
_atom_site_type_symbol
_atom_site_label
_atom_site_fract_x
_atom_site_fract_y
_atom_site_fract_z
Si Si1 0.158823 0.435180 0.927336
Si Si2 0.681060 0.319000 0.542311
Si Si3 0.807143 0.448279 0.923598
Si Si4 0.325808 0.225425 0.738161
Si Si5 0.395109 0.362696 0.390993
O O1 0.234723 0.377424 0.968891
O O2 0.202313 0.445056 0.754877
O O3 0.980443 0.431641 0.951372
O O4 0.211161 0.488145 0.022312
O O5 0.760659 0.278368 0.425879
O O6 0.693251 0.287319 0.697150
O O7 0.511693 0.330443 0.496225
O O8 0.692450 0.409808 0.015497
O O9 0.500000 0.211142 0.750000
O O10 0.226694 0.180107 0.826497
O O11 0.500000 0.381895 0.250000
#
# Coordination Sequence:
#
# PCOD9458936 Si02
#       5
#     8   8   8   8   8
#     4  10  24  43  72  97 132 177 226 271 333 400
#     4  11  25  43  66 103 131 177 221 274 333 390
#     4  10  23  45  68  99 134 174 226 274 330 405
#     4  11  24  43  67  92 135 180 221 269 326 394
#     4  10  24  43  66 101 136 174 227 277 338 396
#
# _framework density 20.576132000000001
#
# number of rings (size 3 to 8) (size 9 to 14) (size 15 to 20)
#    0.000    1.600    0.000    2.400   11.200    0.800 
#    7.200    0.000    0.000    0.000    0.000    0.000 
#    0.000    0.000    0.000    0.000    0.000    0.000 
#
# Total GULP energy -223612.722639 kJ/mol
# GULP energy per Si atom -5590.318066 kJ/mol
# Density = 2.052930 g / cm^3
# Si number density = 20.576132 Si / 1000 Ang^3
#
#
#
# Elastic Constant Matrix: (Units=GPa)
#
#
# Indices 1 2 3 4 5 6 
#
# 1 109.1247 64.9099 38.3391 0.0000 0.0000 0.0000
# 2 64.9099 93.7930 42.4693 0.0000 0.0000 0.0000
# 3 38.3391 42.4693 68.1936 0.0000 0.0000 0.0000
# 4 0.0000 0.0000 0.0000 6.5119 0.0000 0.0000
# 5 0.0000 0.0000 0.0000 0.0000 37.3933 0.0000
# 6 0.0000 0.0000 0.0000 0.0000 0.0000 -8.4399
#
#
#
# Elastic Compliance Matrix: (Units=1/GPa)
#
#
# Indices 1 2 3 4 5 6 
#
# 1 0.015983 -0.009738 -0.002921 0.000000 0.000000 0.000000
# 2 -0.009738 0.020783 -0.007468 0.000000 0.000000 0.000000
# 3 -0.002921 -0.007468 0.020957 0.000000 0.000000 0.000000
# 4 0.000000 0.000000 0.000000 0.153565 0.000000 0.000000
# 5 0.000000 0.000000 0.000000 0.000000 0.026743 0.000000
# 6 0.000000 0.000000 0.000000 0.000000 0.000000 -0.118485
#
#
# Mechanical properties :
#
#
# Convention : Reuss Voigt Hill
#
# Bulk Modulus (GPa) = 57.24678 62.50532 59.87605
# Shear Modulus (GPa) = 30.18929 15.45261 22.82095
#
# Velocity S-wave (km/s) = 3.83456 2.74341 3.33393
# Velocity P-wave (km/s) = 6.89111 6.36228 6.63197
#
# Compressibility (1/GPa) = 0.01746823
#
# Stress axis : x y z
#
# Youngs Moduli (GPa) = 62.56833 48.11701 47.71652
#
# Poissons Ratio (x) = 0.46858 0.13937
# Poissons Ratio (y) = 0.60931 0.35635
# Poissons Ratio (z) = 0.18275 0.35934
#
# Static dielectric constant tensor:
#      x y z
#    x 1.707210 0.000000 0.000000 
#    y 0.000000 1.693880 0.000000 
#    z 0.000000 0.000000 1.763570 
# 
# From -- ./inp_files/3844.got.cif
#   From: 2010.05.17/outbox.ucp.g08.bks.cvg/sg60_2_cif.got.tgz:3844.got - 2010.06.11 16:26:41.
