data_PCOD9458649
_publ_section_title
;
Structure prediction by ZEFSAII (Michael W. Deem and Ramdas Pophale) SiO2 
 PCOD9458649
Probable space group: P B C N
;
_chemical_formula_sum "Si O2"
_cell_formula_units_Z 32
_cell_length_a 5.577695
_cell_length_b 13.443687
_cell_length_c 17.522391
_cell_angle_alpha 90.000000
_cell_angle_beta 90.000000
_cell_angle_gamma 90.000000
_cell_volume 1313.912735
_symmetry_space_group_name_H-M "P B C N"
_symmetry_group_IT_number 60
_symmetry_cell_setting 'orthorhombic'
loop_
_space_group_symop_operation_xyz
x,y,z
1/2-x,1/2-y,1/2+z
1/2+x,1/2-y,-z
-x,y,1/2-z
-x,-y,-z
1/2+x,1/2+y,1/2-z
1/2-x,1/2+y,z
x,-y,1/2+z
loop_
_atom_site_type_symbol
_atom_site_label
_atom_site_fract_x
_atom_site_fract_y
_atom_site_fract_z
Si Si1 0.986325 0.886213 0.339330
Si Si2 0.208107 0.226362 0.087858
Si Si3 0.747340 0.436840 0.793677
Si Si4 0.868078 0.591342 0.542971
O O1 0.210150 0.937647 0.382832
O O2 0.000000 0.853226 0.250000
O O3 0.946259 0.788268 0.390650
O O4 0.759725 0.962275 0.344561
O O5 0.176641 0.163631 0.164306
O O6 0.026045 0.312746 0.066215
O O7 0.210841 0.141449 0.024366
O O8 0.500000 0.459681 0.750000
O O9 0.000000 0.429408 0.750000
O O10 0.000000 0.500000 0.500000
#
# Coordination Sequence:
#
# PCOD9458649 Si02
#       4
#     8   8   8   8
#     4  11  28  49  79 113 165 217 283 351 425 507
#     4  12  27  47  78 111 165 215 287 336 443 501
#     4  11  29  49  82 119 164 216 284 351 423 505
#     4  12  29  49  82 120 168 221 290 363 436 522
#
# _framework density 24.354738999999999
#
# number of rings (size 3 to 8) (size 9 to 14) (size 15 to 20)
#    0.000    0.500    2.500    2.250   24.500    2.000 
#    0.000    0.000    0.000    0.000    0.000    0.000 
#    0.000    0.000    0.000    0.000    0.000    0.000 
#
# Total GULP energy -178307.547522 kJ/mol
# GULP energy per Si atom -5572.110860 kJ/mol
# Density = 2.429931 g / cm^3
# Si number density = 24.354739 Si / 1000 Ang^3
#
#
#
# Elastic Constant Matrix: (Units=GPa)
#
#
# Indices 1 2 3 4 5 6 
#
# 1 85.7002 10.5081 57.5761 0.0000 0.0000 0.0000
# 2 10.5081 88.6041 21.2325 0.0000 0.0000 0.0000
# 3 57.5761 21.2325 121.9692 0.0000 0.0000 0.0000
# 4 0.0000 0.0000 0.0000 54.5166 0.0000 0.0000
# 5 0.0000 0.0000 0.0000 0.0000 46.2405 0.0000
# 6 0.0000 0.0000 0.0000 0.0000 0.0000 33.0944
#
#
#
# Elastic Compliance Matrix: (Units=1/GPa)
#
#
# Indices 1 2 3 4 5 6 
#
# 1 0.017089 -0.000098 -0.008050 0.000000 0.000000 0.000000
# 2 -0.000098 0.011778 -0.002004 0.000000 0.000000 0.000000
# 3 -0.008050 -0.002004 0.012348 0.000000 0.000000 0.000000
# 4 0.000000 0.000000 0.000000 0.018343 0.000000 0.000000
# 5 0.000000 0.000000 0.000000 0.000000 0.021626 0.000000
# 6 0.000000 0.000000 0.000000 0.000000 0.000000 0.030217
#
#
# Mechanical properties :
#
#
# Convention : Reuss Voigt Hill
#
# Bulk Modulus (GPa) = 47.82177 52.76742 50.29460
# Shear Modulus (GPa) = 36.05591 40.56744 38.31167
#
# Velocity S-wave (km/s) = 3.85183 4.08571 3.97050
# Velocity P-wave (km/s) = 6.28174 6.63104 6.45875
#
# Compressibility (1/GPa) = 0.02091098
#
# Stress axis : x y z
#
# Youngs Moduli (GPa) = 58.51839 84.90395 80.98737
#
# Poissons Ratio (x) = 0.00829 0.65193
# Poissons Ratio (y) = 0.00572 0.16232
# Poissons Ratio (z) = 0.47106 0.17017
#
# Static dielectric constant tensor:
#      x y z
#    x 2.084350 0.000000 0.000000 
#    y 0.000000 2.036120 0.000000 
#    z 0.000000 0.000000 3.069590 
# 
# From -- ./inp_files/18453.got.cif
#   From: 2010.05.17/outbox.cif.g08.bks.cpg/sg60_10_cif.got.tgz:18453.got - 2010.06.03 14:59:27.
