data_PCOD9458603
_publ_section_title
;
Structure prediction by ZEFSAII (Michael W. Deem and Ramdas Pophale) SiO2 
 PCOD9458603
Probable space group: P B C N
;
_chemical_formula_sum "Si O2"
_cell_formula_units_Z 48
_cell_length_a 9.102488
_cell_length_b 11.828100
_cell_length_c 18.530634
_cell_angle_alpha 90.000000
_cell_angle_beta 90.000000
_cell_angle_gamma 90.000000
_cell_volume 1995.103273
_symmetry_space_group_name_H-M "P B C N"
_symmetry_group_IT_number 60
_symmetry_cell_setting 'orthorhombic'
loop_
_space_group_symop_operation_xyz
x,y,z
1/2-x,1/2-y,1/2+z
1/2+x,1/2-y,-z
-x,y,1/2-z
-x,-y,-z
1/2+x,1/2+y,1/2-z
1/2-x,1/2+y,z
x,-y,1/2+z
loop_
_atom_site_type_symbol
_atom_site_label
_atom_site_fract_x
_atom_site_fract_y
_atom_site_fract_z
Si Si1 0.577879 0.328835 0.010368
Si Si2 0.392549 0.996208 0.656625
Si Si3 0.094778 0.353927 0.429910
Si Si4 0.500000 0.790029 0.750000
Si Si5 0.560012 0.510568 0.890657
Si Si6 0.500000 0.600852 0.250000
Si Si7 0.191397 0.696469 0.768771
O O1 0.526931 0.210338 0.977777
O O2 0.522750 0.415813 0.949315
O O3 0.749691 0.348892 0.028247
O O4 0.487182 0.367504 0.080618
O O5 0.515501 0.032912 0.598396
O O6 0.233152 0.998527 0.620749
O O7 0.362042 0.089172 0.721511
O O8 0.445373 0.877759 0.688754
O O9 0.132050 0.301412 0.350698
O O10 0.364039 0.711500 0.769462
O O11 0.474754 0.475711 0.818857
O O12 0.369357 0.687895 0.233536
#
# Coordination Sequence:
#
# PCOD9458603 Si02
#       7
#     8   8   8   4   8   4   8
#     4  11  27  45  70 104 143 195 238 295 373 442
#     4  12  25  46  72 108 148 189 246 316 359 437
#     4  12  25  47  70 100 149 192 242 304 365 442
#     4  12  27  41  74 118 146 188 243 309 376 426
#     4  11  26  44  72 105 141 190 242 294 372 438
#     4  12  21  45  76  94 148 182 237 305 360 434
#     4  12  25  45  73 112 145 188 246 309 369 432
#
# _framework density 24.058906
#
# number of rings (size 3 to 8) (size 9 to 14) (size 15 to 20)
#    0.000    0.333    6.667    1.000    7.000    2.000 
#    0.000    0.000    0.000    0.000    0.000    0.000 
#    0.000    0.000    0.000    0.000    0.000    0.000 
#
# Total GULP energy -268405.850779 kJ/mol
# GULP energy per Si atom -5591.788558 kJ/mol
# Density = 2.400415 g / cm^3
# Si number density = 24.058906 Si / 1000 Ang^3
#
#
#
# Elastic Constant Matrix: (Units=GPa)
#
#
# Indices 1 2 3 4 5 6 
#
# 1 110.1119 4.8844 -8.9044 0.0000 0.0000 0.0000
# 2 4.8844 62.7252 33.3504 0.0000 0.0000 0.0000
# 3 -8.9044 33.3504 93.1041 0.0000 0.0000 0.0000
# 4 0.0000 0.0000 0.0000 17.4688 0.0000 0.0000
# 5 0.0000 0.0000 0.0000 0.0000 48.5408 0.0000
# 6 0.0000 0.0000 0.0000 0.0000 0.0000 28.6642
#
#
#
# Elastic Compliance Matrix: (Units=1/GPa)
#
#
# Indices 1 2 3 4 5 6 
#
# 1 0.009261 -0.001473 0.001413 0.000000 0.000000 0.000000
# 2 -0.001473 0.019927 -0.007279 0.000000 0.000000 0.000000
# 3 0.001413 -0.007279 0.013483 0.000000 0.000000 0.000000
# 4 0.000000 0.000000 0.000000 0.057245 0.000000 0.000000
# 5 0.000000 0.000000 0.000000 0.000000 0.020601 0.000000
# 6 0.000000 0.000000 0.000000 0.000000 0.000000 0.034887
#
#
# Mechanical properties :
#
#
# Convention : Reuss Voigt Hill
#
# Bulk Modulus (GPa) = 35.72032 36.06688 35.89360
# Shear Modulus (GPa) = 27.86867 34.70882 31.28874
#
# Velocity S-wave (km/s) = 3.40715 3.80236 3.61016
# Velocity P-wave (km/s) = 5.50976 5.85669 5.68587
#
# Compressibility (1/GPa) = 0.02799527
#
# Stress axis : x y z
#
# Youngs Moduli (GPa) = 107.97646 50.18219 74.16641
#
# Poissons Ratio (x) = 0.07390 -0.10481
# Poissons Ratio (y) = 0.15900 0.53985
# Poissons Ratio (z) = -0.15260 0.36527
#
# Static dielectric constant tensor:
#      x y z
#    x 1.970690 0.000000 0.000000 
#    y 0.000000 1.898250 0.000000 
#    z 0.000000 0.000000 1.967060 
# 
# From -- ./inp_files/19346.got.cif
#   From: 2010.05.17/outbox.cif.g08.bks.cpg/sg60_10_cif.got.tgz:19346.got - 2010.06.03 14:59:27.
