data_PCOD9458666
_publ_section_title
;
Structure prediction by ZEFSAII (Michael W. Deem and Ramdas Pophale) SiO2 
 PCOD9458666
Probable space group: P B C N
;
_chemical_formula_sum "Si O2"
_cell_formula_units_Z 28
_cell_length_a 13.325646
_cell_length_b 7.190926
_cell_length_c 11.507191
_cell_angle_alpha 90.000000
_cell_angle_beta 90.000000
_cell_angle_gamma 90.000000
_cell_volume 1102.662013
_symmetry_space_group_name_H-M "P B C N"
_symmetry_group_IT_number 60
_symmetry_cell_setting 'orthorhombic'
loop_
_space_group_symop_operation_xyz
x,y,z
1/2-x,1/2-y,1/2+z
1/2+x,1/2-y,-z
-x,y,1/2-z
-x,-y,-z
1/2+x,1/2+y,1/2-z
1/2-x,1/2+y,z
x,-y,1/2+z
loop_
_atom_site_type_symbol
_atom_site_label
_atom_site_fract_x
_atom_site_fract_y
_atom_site_fract_z
Si Si1 0.680508 0.744819 0.017388
Si Si2 0.648079 0.895760 0.385398
Si Si3 0.392853 0.637193 0.931962
Si Si4 0.500000 0.881925 0.750000
O O1 0.778574 0.792194 0.094780
O O2 0.614129 0.583638 0.070452
O O3 0.734322 0.656569 0.900039
O O4 0.633795 0.939307 0.981003
O O5 0.594385 0.982963 0.275535
O O6 0.595969 0.712923 0.436256
O O7 0.470864 0.742879 0.853095
#
# Coordination Sequence:
#
# PCOD9458666 Si02
#       4
#     8   8   8   4
#     4   8  18  40  60  66 108 154 182 210 272 316
#     4   9  19  38  56  79 108 147 176 228 263 321
#     4   9  19  38  56  79 108 147 176 228 263 321
#     4  12  22  30  58  88 114 132 188 222 276 316
#
# _framework density 25.393093
#
# number of rings (size 3 to 8) (size 9 to 14) (size 15 to 20)
#    1.714    1.143    0.000    0.857    0.000    3.429 
#    0.000    5.714    0.000    0.000    0.000    0.000 
#    0.000    0.000    0.000    0.000    0.000    0.000 
#
# Total GULP energy -156072.598954 kJ/mol
# GULP energy per Si atom -5574.021391 kJ/mol
# Density = 2.533530 g / cm^3
# Si number density = 25.393093 Si / 1000 Ang^3
#
#
#
# Elastic Constant Matrix: (Units=GPa)
#
#
# Indices 1 2 3 4 5 6 
#
# 1 90.1634 25.4989 -2.0383 0.0000 0.0000 0.0000
# 2 25.4989 101.9524 -14.3938 0.0000 0.0000 0.0000
# 3 -2.0383 -14.3938 19.3598 0.0000 0.0000 0.0000
# 4 0.0000 0.0000 0.0000 0.3116 0.0000 0.0000
# 5 0.0000 0.0000 0.0000 0.0000 27.2762 0.0000
# 6 0.0000 0.0000 0.0000 0.0000 0.0000 -2.0658
#
#
#
# Elastic Compliance Matrix: (Units=1/GPa)
#
#
# Indices 1 2 3 4 5 6 
#
# 1 0.011955 -0.003142 -0.001077 0.000000 0.000000 0.000000
# 2 -0.003142 0.011785 0.008431 0.000000 0.000000 0.000000
# 3 -0.001077 0.008431 0.057808 0.000000 0.000000 0.000000
# 4 0.000000 0.000000 0.000000 3.209584 0.000000 0.000000
# 5 0.000000 0.000000 0.000000 0.000000 0.036662 0.000000
# 6 0.000000 0.000000 0.000000 0.000000 0.000000 -0.484082
#
#
# Mechanical properties :
#
#
# Convention : Reuss Voigt Hill
#
# Bulk Modulus (GPa) = 11.11470 25.51213 18.31342
# Shear Modulus (GPa) = 1.74503 18.59832 10.17168
#
# Velocity S-wave (km/s) = 0.82988 2.70926 2.00359
# Velocity P-wave (km/s) = 2.30322 4.45594 3.54685
#
# Compressibility (1/GPa) = 0.08997091
#
# Stress axis : x y z
#
# Youngs Moduli (GPa) = 83.64522 84.85590 17.29853
#
# Poissons Ratio (x) = 0.26663 0.01864
# Poissons Ratio (y) = 0.26283 -0.14584
# Poissons Ratio (z) = 0.09013 -0.71542
#
# Static dielectric constant tensor:
#      x y z
#    x 2.106370 0.000000 0.000000 
#    y 0.000000 1.924810 0.000000 
#    z 0.000000 0.000000 2.058080 
# 
# From -- ./inp_files/6445.got.cif
#   From: 2010.05.17/outbox.cif.g08.bks.cpg/sg60_4_cif.got.tgz:6445.got - 2010.06.03 14:59:27.
