data_PCOD9458182
_publ_section_title
;
Structure prediction by ZEFSAII (Michael W. Deem and Ramdas Pophale) SiO2 
 PCOD9458182
Probable space group: P B C N
;
_chemical_formula_sum "Si O2"
_cell_formula_units_Z 28
_cell_length_a 17.973943
_cell_length_b 15.923991
_cell_length_c 5.224559
_cell_angle_alpha 90.000000
_cell_angle_beta 90.000000
_cell_angle_gamma 90.000000
_cell_volume 1495.357115
_symmetry_space_group_name_H-M "P B C N"
_symmetry_group_IT_number 60
_symmetry_cell_setting 'orthorhombic'
loop_
_space_group_symop_operation_xyz
x,y,z
1/2-x,1/2-y,1/2+z
1/2+x,1/2-y,-z
-x,y,1/2-z
-x,-y,-z
1/2+x,1/2+y,1/2-z
1/2-x,1/2+y,z
x,-y,1/2+z
loop_
_atom_site_type_symbol
_atom_site_label
_atom_site_fract_x
_atom_site_fract_y
_atom_site_fract_z
Si Si1 0.540518 0.264678 0.002354
Si Si2 0.500000 0.902313 0.750000
Si Si3 0.336636 0.954420 0.679678
Si Si4 0.706552 0.771150 0.610629
O O1 0.500000 0.295638 0.750000
O O2 0.628792 0.271556 0.026145
O O3 0.500000 0.302316 0.250000
O O4 0.523347 0.164328 0.029707
O O5 0.426865 0.952295 0.674890
O O6 0.311962 0.979599 0.396325
O O7 0.311370 0.863223 0.775304
O O8 0.744508 0.725205 0.852836
#
# Coordination Sequence:
#
# PCOD9458182 Si02
#       4
#     8   4   8   8
#     4   9  18  31  51  74 106 139 182 219 245 313
#     4   8  20  28  52  72 112 142 176 196 254 302
#     4  11  22  33  51  77 110 145 181 211 257 322
#     4  11  22  36  54  75 111 149 183 222 269 310
#
# _framework density 18.724623999999999
#
# number of rings (size 3 to 8) (size 9 to 14) (size 15 to 20)
#    0.857    1.143    0.000    4.286    8.000    0.000 
#    0.000    0.000    0.000    0.000    0.000    0.000 
#    0.000   80.000    0.000    0.000    0.000    0.000 
#
# Total GULP energy -156012.883840 kJ/mol
# GULP energy per Si atom -5571.888709 kJ/mol
# Density = 1.868201 g / cm^3
# Si number density = 18.724624 Si / 1000 Ang^3
#
#
#
# Elastic Constant Matrix: (Units=GPa)
#
#
# Indices 1 2 3 4 5 6 
#
# 1 105.9584 12.8677 50.9432 0.0000 0.0000 0.0000
# 2 12.8677 20.1582 -1.3667 0.0000 0.0000 0.0000
# 3 50.9432 -1.3667 107.5297 0.0000 0.0000 0.0000
# 4 0.0000 0.0000 0.0000 22.4987 0.0000 0.0000
# 5 0.0000 0.0000 0.0000 0.0000 27.1263 0.0000
# 6 0.0000 0.0000 0.0000 0.0000 0.0000 15.1402
#
#
#
# Elastic Compliance Matrix: (Units=1/GPa)
#
#
# Indices 1 2 3 4 5 6 
#
# 1 0.013745 -0.009223 -0.006629 0.000000 0.000000 0.000000
# 2 -0.009223 0.055839 0.005079 0.000000 0.000000 0.000000
# 3 -0.006629 0.005079 0.012505 0.000000 0.000000 0.000000
# 4 0.000000 0.000000 0.000000 0.044447 0.000000 0.000000
# 5 0.000000 0.000000 0.000000 0.000000 0.036865 0.000000
# 6 0.000000 0.000000 0.000000 0.000000 0.000000 0.066049
#
#
# Mechanical properties :
#
#
# Convention : Reuss Voigt Hill
#
# Bulk Modulus (GPa) = 16.51709 39.83719 28.17714
# Shear Modulus (GPa) = 18.43814 24.36653 21.40234
#
# Velocity S-wave (km/s) = 3.14140 3.61128 3.38450
# Velocity P-wave (km/s) = 4.69021 6.22173 5.50945
#
# Compressibility (1/GPa) = 0.06054336
#
# Stress axis : x y z
#
# Youngs Moduli (GPa) = 72.75453 17.90847 79.96901
#
# Poissons Ratio (x) = 0.16517 0.53011
# Poissons Ratio (y) = 0.67103 -0.40619
# Poissons Ratio (z) = 0.48229 -0.09096
#
# Static dielectric constant tensor:
#      x y z
#    x 1.664130 0.000000 0.000000 
#    y 0.000000 1.640740 0.000000 
#    z 0.000000 0.000000 1.674730 
# 
# From -- ./inp_files/1538.got.cif
#   From: 2010.05.17/outbox.cif.g08.bks.cpg/sg60_1_cif.got.tgz:1538.got - 2010.06.03 14:59:27.
