data_PCOD9458849
_publ_section_title
;
Structure prediction by ZEFSAII (Michael W. Deem and Ramdas Pophale) SiO2 
 PCOD9458849
Probable space group: P B C N
;
_chemical_formula_sum "Si O2"
_cell_formula_units_Z 28
_cell_length_a 8.286965
_cell_length_b 8.598354
_cell_length_c 13.991781
_cell_angle_alpha 90.000000
_cell_angle_beta 90.000000
_cell_angle_gamma 90.000000
_cell_volume 996.973982
_symmetry_space_group_name_H-M "P B C N"
_symmetry_group_IT_number 60
_symmetry_cell_setting 'orthorhombic'
loop_
_space_group_symop_operation_xyz
x,y,z
1/2-x,1/2-y,1/2+z
1/2+x,1/2-y,-z
-x,y,1/2-z
-x,-y,-z
1/2+x,1/2+y,1/2-z
1/2-x,1/2+y,z
x,-y,1/2+z
loop_
_atom_site_type_symbol
_atom_site_label
_atom_site_fract_x
_atom_site_fract_y
_atom_site_fract_z
Si Si1 0.215041 0.927246 0.746851
Si Si2 0.134801 0.606518 0.049701
Si Si3 0.925023 0.893158 0.081337
Si Si4 0.000000 0.381105 0.250000
O O1 0.382493 0.986324 0.797440
O O2 0.902373 0.009881 0.677000
O O3 0.266062 0.970036 0.637393
O O4 0.144047 0.751427 0.737080
O O5 0.044580 0.752206 0.094036
O O6 0.257570 0.662947 0.967082
O O7 0.000000 0.500000 0.000000
O O8 0.000000 0.000000 0.000000
#
# Coordination Sequence:
#
# PCOD9458849 Si02
#       4
#     8   8   8   4
#     4  12  32  56  88 130 186 248 306 392 480 564
#     4  12  30  56  88 132 181 240 316 391 475 571
#     4  12  30  56  88 132 181 240 316 391 475 571
#     4  12  32  52  92 132 180 246 312 376 476 564
#
# _framework density 28.084987000000002
#
# number of rings (size 3 to 8) (size 9 to 14) (size 15 to 20)
#    0.000    0.000    0.000    5.143   32.000    0.000 
#    0.000    0.000    0.000    0.000    0.000    0.000 
#    0.000    0.000    0.000    0.000    0.000    0.000 
#
# Total GULP energy -156108.705560 kJ/mol
# GULP energy per Si atom -5575.310913 kJ/mol
# Density = 2.802106 g / cm^3
# Si number density = 28.084987 Si / 1000 Ang^3
#
#
#
# Elastic Constant Matrix: (Units=GPa)
#
#
# Indices 1 2 3 4 5 6 
#
# 1 172.4105 100.6631 80.8914 0.0000 0.0000 0.0000
# 2 100.6631 185.0348 65.2628 0.0000 0.0000 0.0000
# 3 80.8914 65.2628 223.3362 0.0000 0.0000 0.0000
# 4 0.0000 0.0000 0.0000 43.2241 0.0000 0.0000
# 5 0.0000 0.0000 0.0000 0.0000 75.5497 0.0000
# 6 0.0000 0.0000 0.0000 0.0000 0.0000 72.9149
#
#
#
# Elastic Compliance Matrix: (Units=1/GPa)
#
#
# Indices 1 2 3 4 5 6 
#
# 1 0.009314 -0.004323 -0.002110 0.000000 0.000000 0.000000
# 2 -0.004323 0.008032 -0.000781 0.000000 0.000000 0.000000
# 3 -0.002110 -0.000781 0.005470 0.000000 0.000000 0.000000
# 4 0.000000 0.000000 0.000000 0.023135 0.000000 0.000000
# 5 0.000000 0.000000 0.000000 0.000000 0.013236 0.000000
# 6 0.000000 0.000000 0.000000 0.000000 0.000000 0.013715
#
#
# Mechanical properties :
#
#
# Convention : Reuss Voigt Hill
#
# Bulk Modulus (GPa) = 119.22982 119.37955 119.30469
# Shear Modulus (GPa) = 55.47747 60.60202 58.03975
#
# Velocity S-wave (km/s) = 4.44930 4.65026 4.55089
# Velocity P-wave (km/s) = 8.30304 8.45175 8.37772
#
# Compressibility (1/GPa) = 0.00838716
#
# Stress axis : x y z
#
# Youngs Moduli (GPa) = 107.36400 124.50772 182.80792
#
# Poissons Ratio (x) = 0.53822 0.38579
# Poissons Ratio (y) = 0.46411 0.14283
# Poissons Ratio (z) = 0.22658 0.09728
#
# Static dielectric constant tensor:
#      x y z
#    x 2.318450 0.000000 0.000000 
#    y 0.000000 2.114210 0.000000 
#    z 0.000000 0.000000 2.350180 
# 
# From -- ./inp_files/18896.got.cif
#   From: 2010.05.17/outbox.cif.g08.bks.cpg/sg60_10_cif.got.tgz:18896.got - 2010.06.03 14:59:27.
