data_PCOD9458604
_publ_section_title
;
Structure prediction by ZEFSAII (Michael W. Deem and Ramdas Pophale) SiO2 
 PCOD9458604
Probable space group: P B C N
;
_chemical_formula_sum "Si O2"
_cell_formula_units_Z 36
_cell_length_a 8.205585
_cell_length_b 21.877083
_cell_length_c 8.818291
_cell_angle_alpha 90.000000
_cell_angle_beta 90.000000
_cell_angle_gamma 90.000000
_cell_volume 1583.009020
_symmetry_space_group_name_H-M "P B C N"
_symmetry_group_IT_number 60
_symmetry_cell_setting 'orthorhombic'
loop_
_space_group_symop_operation_xyz
x,y,z
1/2-x,1/2-y,1/2+z
1/2+x,1/2-y,-z
-x,y,1/2-z
-x,-y,-z
1/2+x,1/2+y,1/2-z
1/2-x,1/2+y,z
x,-y,1/2+z
loop_
_atom_site_type_symbol
_atom_site_label
_atom_site_fract_x
_atom_site_fract_y
_atom_site_fract_z
Si Si1 0.333179 0.223156 0.667940
Si Si2 0.190122 0.458271 0.747284
Si Si3 0.675951 0.827339 0.668835
Si Si4 0.000000 0.845440 0.250000
Si Si5 0.373250 0.550224 0.944422
O O1 0.500000 0.201648 0.750000
O O2 0.340921 0.208804 0.489474
O O3 0.302584 0.292729 0.721478
O O4 0.165168 0.191682 0.722261
O O5 0.222430 0.398527 0.851139
O O6 0.283356 0.517968 0.803805
O O7 0.246908 0.439921 0.579862
O O8 0.000000 0.471505 0.750000
O O9 0.500000 0.827922 0.750000
O O10 0.961346 0.888910 0.108171
O O11 0.500000 0.500000 0.000000
#
# Coordination Sequence:
#
# PCOD9458604 Si02
#       5
#     8   8   8   4   8
#     4  12  28  47  78 107 154 198 247 310 373 446
#     4  11  26  44  75 105 148 190 255 302 374 441
#     4  11  26  49  72 111 148 195 253 307 373 444
#     4  12  28  46  76 110 154 186 260 296 380 450
#     4  12  24  47  70 106 146 196 237 310 371 442
#
# _framework density 22.741499999999998
#
# number of rings (size 3 to 8) (size 9 to 14) (size 15 to 20)
#    0.000    0.444    3.333    3.333    9.333    2.667 
#    0.000    0.000    0.000    0.000    0.000    0.000 
#    0.000    0.000    0.000    0.000    0.000    0.000 
#
# Total GULP energy -201528.528357 kJ/mol
# GULP energy per Si atom -5598.014677 kJ/mol
# Density = 2.268974 g / cm^3
# Si number density = 22.741500 Si / 1000 Ang^3
#
#
#
# Elastic Constant Matrix: (Units=GPa)
#
#
# Indices 1 2 3 4 5 6 
#
# 1 134.9902 32.6575 15.7473 0.0000 0.0000 0.0000
# 2 32.6575 60.2932 -5.0387 0.0000 0.0000 0.0000
# 3 15.7473 -5.0387 86.0571 0.0000 0.0000 0.0000
# 4 0.0000 0.0000 0.0000 27.2963 0.0000 0.0000
# 5 0.0000 0.0000 0.0000 0.0000 41.4053 0.0000
# 6 0.0000 0.0000 0.0000 0.0000 0.0000 26.9909
#
#
#
# Elastic Compliance Matrix: (Units=1/GPa)
#
#
# Indices 1 2 3 4 5 6 
#
# 1 0.008825 -0.004939 -0.001904 0.000000 0.000000 0.000000
# 2 -0.004939 0.019431 0.002042 0.000000 0.000000 0.000000
# 3 -0.001904 0.002042 0.012088 0.000000 0.000000 0.000000
# 4 0.000000 0.000000 0.000000 0.036635 0.000000 0.000000
# 5 0.000000 0.000000 0.000000 0.000000 0.024152 0.000000
# 6 0.000000 0.000000 0.000000 0.000000 0.000000 0.037050
#
#
# Mechanical properties :
#
#
# Convention : Reuss Voigt Hill
#
# Bulk Modulus (GPa) = 32.52953 40.89697 36.71325
# Shear Modulus (GPa) = 31.63935 35.00344 33.32140
#
# Velocity S-wave (km/s) = 3.73401 3.92750 3.83198
# Velocity P-wave (km/s) = 5.73807 6.21205 5.97976
#
# Compressibility (1/GPa) = 0.03074130
#
# Stress axis : x y z
#
# Youngs Moduli (GPa) = 113.31495 51.46285 82.72575
#
# Poissons Ratio (x) = 0.25418 0.15751
# Poissons Ratio (y) = 0.55968 -0.16889
# Poissons Ratio (z) = 0.21576 -0.10506
#
# Static dielectric constant tensor:
#      x y z
#    x 1.827760 0.000000 0.000000 
#    y 0.000000 1.852840 0.000000 
#    z 0.000000 0.000000 2.014580 
# 
# From -- ./inp_files/3713.got.cif
#   From: 2010.05.17/outbox.cif.g08.bks.cpg/sg60_2_cif.got.tgz:3713.got - 2010.06.03 14:59:27.
