data_PCOD9458046
_publ_section_title
;
Structure prediction by ZEFSAII (Michael W. Deem and Ramdas Pophale) SiO2 
 PCOD9458046
Probable space group: P B C N
;
_chemical_formula_sum "Si O2"
_cell_formula_units_Z 48
_cell_length_a 15.813535
_cell_length_b 17.629006
_cell_length_c 7.591738
_cell_angle_alpha 90.000000
_cell_angle_beta 90.000000
_cell_angle_gamma 90.000000
_cell_volume 2116.401211
_symmetry_space_group_name_H-M "P B C N"
_symmetry_group_IT_number 60
_symmetry_cell_setting 'orthorhombic'
loop_
_space_group_symop_operation_xyz
x,y,z
1/2-x,1/2-y,1/2+z
1/2+x,1/2-y,-z
-x,y,1/2-z
-x,-y,-z
1/2+x,1/2+y,1/2-z
1/2-x,1/2+y,z
x,-y,1/2+z
loop_
_atom_site_type_symbol
_atom_site_label
_atom_site_fract_x
_atom_site_fract_y
_atom_site_fract_z
Si Si1 0.595753 0.240465 0.075391
Si Si2 0.596280 0.450469 0.705855
Si Si3 0.739754 0.943975 0.202435
Si Si4 0.177366 0.401088 0.916149
Si Si5 0.211658 0.843039 0.606868
Si Si6 0.059449 0.163270 0.604440
O O1 0.593789 0.150071 0.083448
O O2 0.671240 0.263948 0.945663
O O3 0.614319 0.283253 0.263874
O O4 0.506599 0.277177 0.017108
O O5 0.500000 0.468620 0.750000
O O6 0.666682 0.516550 0.696176
O O7 0.782424 0.411475 0.392009
O O8 0.595629 0.396840 0.531425
O O9 0.736723 0.880877 0.051822
O O10 0.677370 0.014434 0.162613
O O11 0.236925 0.352124 0.785527
O O12 0.130637 0.897326 0.637818
O O13 0.000000 0.123087 0.750000
#
# Coordination Sequence:
#
# PCOD9458046 Si02
#       6
#     8   8   8   8   8   8
#     4   9  22  41  64  88 120 166 210 268 313 366
#     4  11  20  40  61  88 134 167 204 253 315 395
#     4  11  25  41  57  93 130 169 211 250 319 392
#     4  11  23  42  61  86 131 162 215 260 312 383
#     4  11  24  39  59  93 123 167 213 251 319 377
#     4   8  20  40  62  92 122 158 216 264 321 367
#
# _framework density 22.680008999999998
#
# number of rings (size 3 to 8) (size 9 to 14) (size 15 to 20)
#    1.000    0.667    5.000    0.000    7.000    0.667 
#    6.000    0.000    0.000    4.000    0.000    0.000 
#    0.000    0.000    0.000    0.000    0.000    0.000 
#
# Total GULP energy -267683.287621 kJ/mol
# GULP energy per Si atom -5576.735159 kJ/mol
# Density = 2.262839 g / cm^3
# Si number density = 22.680009 Si / 1000 Ang^3
#
#
#
# Elastic Constant Matrix: (Units=GPa)
#
#
# Indices 1 2 3 4 5 6 
#
# 1 24.2998 21.4628 15.3074 0.0000 0.0000 0.0000
# 2 21.4628 81.4690 44.1632 0.0000 0.0000 0.0000
# 3 15.3074 44.1632 147.3247 0.0000 0.0000 0.0000
# 4 0.0000 0.0000 0.0000 11.0169 0.0000 0.0000
# 5 0.0000 0.0000 0.0000 0.0000 17.2406 0.0000
# 6 0.0000 0.0000 0.0000 0.0000 0.0000 20.5051
#
#
#
# Elastic Compliance Matrix: (Units=1/GPa)
#
#
# Indices 1 2 3 4 5 6 
#
# 1 0.053949 -0.013342 -0.001606 0.000000 0.000000 0.000000
# 2 -0.013342 0.017956 -0.003996 0.000000 0.000000 0.000000
# 3 -0.001606 -0.003996 0.008153 0.000000 0.000000 0.000000
# 4 0.000000 0.000000 0.000000 0.090769 0.000000 0.000000
# 5 0.000000 0.000000 0.000000 0.000000 0.058003 0.000000
# 6 0.000000 0.000000 0.000000 0.000000 0.000000 0.048768
#
#
# Mechanical properties :
#
#
# Convention : Reuss Voigt Hill
#
# Bulk Modulus (GPa) = 23.71438 46.10669 34.91054
# Shear Modulus (GPa) = 15.17257 21.22987 18.20122
#
# Velocity S-wave (km/s) = 2.58928 3.06283 2.83596
# Velocity P-wave (km/s) = 4.40658 5.73422 5.11367
#
# Compressibility (1/GPa) = 0.04216851
#
# Stress axis : x y z
#
# Youngs Moduli (GPa) = 18.53615 55.69203 122.66098
#
# Poissons Ratio (x) = 0.74305 0.19698
# Poissons Ratio (y) = 0.24731 0.49019
# Poissons Ratio (z) = 0.02977 0.22256
#
# Static dielectric constant tensor:
#      x y z
#    x 1.907610 0.000000 0.000000 
#    y 0.000000 1.857750 0.000000 
#    z 0.000000 0.000000 1.876420 
# 
# From -- ./inp_files/6745.got.cif
#   From: 2010.05.17/outbox.cif.g08.bks.cpg/sg60_4_cif.got.tgz:6745.got - 2010.06.03 14:59:27.
