data_PCOD9458715
_publ_section_title
;
Structure prediction by ZEFSAII (Michael W. Deem and Ramdas Pophale) SiO2 
 PCOD9458715
Probable space group: P B C N
;
_chemical_formula_sum "Si O2"
_cell_formula_units_Z 32
_cell_length_a 5.141065
_cell_length_b 14.483933
_cell_length_c 18.394995
_cell_angle_alpha 90.000000
_cell_angle_beta 90.000000
_cell_angle_gamma 90.000000
_cell_volume 1369.743588
_symmetry_space_group_name_H-M "P B C N"
_symmetry_group_IT_number 60
_symmetry_cell_setting 'orthorhombic'
loop_
_space_group_symop_operation_xyz
x,y,z
1/2-x,1/2-y,1/2+z
1/2+x,1/2-y,-z
-x,y,1/2-z
-x,-y,-z
1/2+x,1/2+y,1/2-z
1/2-x,1/2+y,z
x,-y,1/2+z
loop_
_atom_site_type_symbol
_atom_site_label
_atom_site_fract_x
_atom_site_fract_y
_atom_site_fract_z
Si Si1 0.500000 0.765616 0.250000
Si Si2 0.977680 0.843985 0.975160
Si Si3 0.000000 0.360555 0.750000
Si Si4 0.121517 0.652962 0.904278
Si Si5 0.975776 0.441689 0.593138
O O1 0.251289 0.701962 0.232563
O O2 0.411322 0.823588 0.319955
O O3 0.733143 0.893056 0.936773
O O4 0.994392 0.738624 0.947660
O O5 0.228622 0.897721 0.947318
O O6 0.912636 0.847382 0.061079
O O7 0.943334 0.419587 0.678364
O O8 0.014403 0.551062 0.917243
#
# Coordination Sequence:
#
# PCOD9458715 Si02
#       5
#     4   8   4   8   8
#     4  12  27  48  79 106 160 200 255 318 381 452
#     4  12  27  47  76 114 155 195 256 324 372 459
#     4  12  23  50  73 112 152 204 251 322 373 454
#     4  12  27  50  78 114 150 210 247 317 391 455
#     4  12  26  48  77 110 156 199 258 312 384 454
#
# _framework density 23.362037999999998
#
# number of rings (size 3 to 8) (size 9 to 14) (size 15 to 20)
#    0.000    0.000    5.000    3.750    0.000    8.000 
#    0.000    2.500    0.000    0.000    0.000    0.000 
#    0.000    0.000    0.000    0.000    0.000    0.000 
#
# Total GULP energy -179450.552743 kJ/mol
# GULP energy per Si atom -5607.829773 kJ/mol
# Density = 2.330886 g / cm^3
# Si number density = 23.362038 Si / 1000 Ang^3
#
#
#
# Elastic Constant Matrix: (Units=GPa)
#
#
# Indices 1 2 3 4 5 6 
#
# 1 169.6552 78.1296 62.9888 0.0000 0.0000 0.0000
# 2 78.1296 223.1150 71.3224 0.0000 0.0000 0.0000
# 3 62.9888 71.3224 211.5350 0.0000 0.0000 0.0000
# 4 0.0000 0.0000 0.0000 -17.8408 0.0000 0.0000
# 5 0.0000 0.0000 0.0000 0.0000 37.3776 0.0000
# 6 0.0000 0.0000 0.0000 0.0000 0.0000 22.1530
#
#
#
# Elastic Compliance Matrix: (Units=1/GPa)
#
#
# Indices 1 2 3 4 5 6 
#
# 1 0.007427 -0.002123 -0.001496 0.000000 0.000000 0.000000
# 2 -0.002123 0.005630 -0.001266 0.000000 0.000000 0.000000
# 3 -0.001496 -0.001266 0.005600 0.000000 0.000000 0.000000
# 4 0.000000 0.000000 0.000000 -0.056051 0.000000 0.000000
# 5 0.000000 0.000000 0.000000 0.000000 0.026754 0.000000
# 6 0.000000 0.000000 0.000000 0.000000 0.000000 0.045141
#
#
# Mechanical properties :
#
#
# Convention : Reuss Voigt Hill
#
# Bulk Modulus (GPa) = 112.51816 114.35410 113.43613
# Shear Modulus (GPa) = 105.85979 34.46226 70.16102
#
# Velocity S-wave (km/s) = 6.73878 3.84492 5.48610
# Velocity P-wave (km/s) = 10.43147 8.29254 9.42289
#
# Compressibility (1/GPa) = 0.00888745
#
# Stress axis : x y z
#
# Youngs Moduli (GPa) = 134.63980 177.61813 178.58066
#
# Poissons Ratio (x) = 0.37702 0.26714
# Poissons Ratio (y) = 0.28579 0.22612
# Poissons Ratio (z) = 0.20141 0.22490
#
# Static dielectric constant tensor:
#      x y z
#    x 1.904810 0.000000 0.000000 
#    y 0.000000 1.830800 0.000000 
#    z 0.000000 0.000000 1.925460 
# 
# From -- ./inp_files/18458.got.cif
#   From: 2010.05.17/outbox.cif.g08.bks.cpg/sg60_10_cif.got.tgz:18458.got - 2010.06.03 14:59:27.
