data_PCOD9458129
_publ_section_title
;
Structure prediction by ZEFSAII (Michael W. Deem and Ramdas Pophale) SiO2 
 PCOD9458129
Probable space group: P B C N
;
_chemical_formula_sum "Si O2"
_cell_formula_units_Z 36
_cell_length_a 5.647657
_cell_length_b 16.846689
_cell_length_c 13.815833
_cell_angle_alpha 90.000000
_cell_angle_beta 90.000000
_cell_angle_gamma 90.000000
_cell_volume 1314.498051
_symmetry_space_group_name_H-M "P B C N"
_symmetry_group_IT_number 60
_symmetry_cell_setting 'orthorhombic'
loop_
_space_group_symop_operation_xyz
x,y,z
1/2-x,1/2-y,1/2+z
1/2+x,1/2-y,-z
-x,y,1/2-z
-x,-y,-z
1/2+x,1/2+y,1/2-z
1/2-x,1/2+y,z
x,-y,1/2+z
loop_
_atom_site_type_symbol
_atom_site_label
_atom_site_fract_x
_atom_site_fract_y
_atom_site_fract_z
Si Si1 0.308241 0.616684 0.668270
Si Si2 0.500000 0.256273 0.750000
Si Si3 0.512433 0.959049 0.854076
Si Si4 0.885403 0.745382 0.555742
Si Si5 0.216006 0.919295 0.456208
O O1 0.500000 0.599014 0.750000
O O2 0.144307 0.540809 0.670620
O O3 0.448082 0.607592 0.565944
O O4 0.205897 0.701275 0.702312
O O5 0.400329 0.297747 0.846464
O O6 0.500000 0.916183 0.750000
O O7 0.279529 0.995844 0.907651
O O8 0.677910 0.919290 0.935657
O O9 0.633630 0.755621 0.501976
O O10 0.858194 0.653783 0.591294
#
# Coordination Sequence:
#
# PCOD9458129 Si02
#       5
#     8   4   8   8   8
#     4  12  18  38  70  98 125 176 238 286 334 417
#     4  12  24  44  74  94 136 184 254 288 336 436
#     4  11  21  40  63 101 141 172 222 286 359 422
#     4  12  27  47  72 102 139 185 243 295 351 417
#     4  11  24  39  68  99 132 179 233 287 346 425
#
# _framework density 27.386876999999998
#
# number of rings (size 3 to 8) (size 9 to 14) (size 15 to 20)
#    0.000    0.444    7.778    2.000    0.000    0.000 
#    4.000    0.000    0.000    0.000    0.000    0.000 
#    0.000    0.000    0.000    0.000    0.000    0.000 
#
# Total GULP energy -200955.806525 kJ/mol
# GULP energy per Si atom -5582.105737 kJ/mol
# Density = 2.732454 g / cm^3
# Si number density = 27.386877 Si / 1000 Ang^3
#
#
#
# Elastic Constant Matrix: (Units=GPa)
#
#
# Indices 1 2 3 4 5 6 
#
# 1 133.4575 16.9754 59.7448 0.0000 0.0000 0.0000
# 2 16.9754 30.4795 -3.1458 0.0000 0.0000 0.0000
# 3 59.7448 -3.1458 196.3202 0.0000 0.0000 0.0000
# 4 0.0000 0.0000 0.0000 26.1649 0.0000 0.0000
# 5 0.0000 0.0000 0.0000 0.0000 70.5730 0.0000
# 6 0.0000 0.0000 0.0000 0.0000 0.0000 39.8601
#
#
#
# Elastic Compliance Matrix: (Units=1/GPa)
#
#
# Indices 1 2 3 4 5 6 
#
# 1 0.009550 -0.005628 -0.002997 0.000000 0.000000 0.000000
# 2 -0.005628 0.036180 0.002293 0.000000 0.000000 0.000000
# 3 -0.002997 0.002293 0.006042 0.000000 0.000000 0.000000
# 4 0.000000 0.000000 0.000000 0.038219 0.000000 0.000000
# 5 0.000000 0.000000 0.000000 0.000000 0.014170 0.000000
# 6 0.000000 0.000000 0.000000 0.000000 0.000000 0.025088
#
#
# Mechanical properties :
#
#
# Convention : Reuss Voigt Hill
#
# Bulk Modulus (GPa) = 25.56999 56.37843 40.97421
# Shear Modulus (GPa) = 32.26836 46.43179 39.35007
#
# Velocity S-wave (km/s) = 3.43628 4.12199 3.79466
# Velocity P-wave (km/s) = 5.01007 6.57914 5.84747
#
# Compressibility (1/GPa) = 0.03910835
#
# Stress axis : x y z
#
# Youngs Moduli (GPa) = 104.70750 27.63938 165.49737
#
# Poissons Ratio (x) = 0.15556 0.49593
# Poissons Ratio (y) = 0.58933 -0.37942
# Poissons Ratio (z) = 0.31377 -0.06337
#
# Static dielectric constant tensor:
#      x y z
#    x 2.275890 0.000000 0.000000 
#    y 0.000000 2.151780 0.000000 
#    z 0.000000 0.000000 2.458110 
# 
# From -- ./inp_files/13708.got.cif
#   From: 2010.05.17/outbox.cif.g08.bks.cpg/sg60_7_cif.got.tgz:13708.got - 2010.06.03 14:59:27.
