data_PCOD9458927
_publ_section_title
;
Structure prediction by ZEFSAII (Michael W. Deem and Ramdas Pophale) SiO2 
 PCOD9458927
Probable space group: P B C N
;
_chemical_formula_sum "Si O2"
_cell_formula_units_Z 48
_cell_length_a 9.000000
_cell_length_b 9.000000
_cell_length_c 30.000000
_cell_angle_alpha 90.000000
_cell_angle_beta 90.000000
_cell_angle_gamma 90.000000
_cell_volume 2430.000000
_symmetry_space_group_name_H-M "P B C N"
_symmetry_group_IT_number 60
_symmetry_cell_setting 'orthorhombic'
loop_
_space_group_symop_operation_xyz
x,y,z
1/2-x,1/2-y,1/2+z
1/2+x,1/2-y,-z
-x,y,1/2-z
-x,-y,-z
1/2+x,1/2+y,1/2-z
1/2-x,1/2+y,z
x,-y,1/2+z
loop_
_atom_site_type_symbol
_atom_site_label
_atom_site_fract_x
_atom_site_fract_y
_atom_site_fract_z
Si Si1 0.452972 0.321269 0.371989
Si Si2 0.430346 0.841223 0.199655
Si Si3 0.257423 0.067709 0.984019
Si Si4 0.139889 0.522655 0.881460
Si Si5 0.431351 0.691115 0.532241
Si Si6 0.607131 0.489173 0.293852
O O1 0.307785 0.426905 0.370780
O O2 0.561076 0.341644 0.414929
O O3 0.539768 0.371626 0.328654
O O4 0.394883 0.151720 0.374895
O O5 0.500000 0.851340 0.250000
O O6 0.530072 0.897189 0.156060
O O7 0.400492 0.664037 0.192335
O O8 0.279766 0.938042 0.206476
O O9 0.346822 0.051832 0.936323
O O10 0.106611 0.168297 0.978960
O O11 0.368532 0.148151 0.018455
O O12 0.177567 0.920875 0.004788
O O13 0.500000 0.477613 0.250000
#
# Coordination Sequence:
#
# PCOD9458927 Si02
#       6
#     8   8   8   8   8   8
#     4  11  24  41  65  95 128 173 222 279 336 400
#     4  11  25  44  69  98 133 175 215 270 333 400
#     4  10  22  41  62  90 127 170 216 273 332 395
#     4  11  23  42  67  94 130 175 224 275 339 401
#     4  10  23  40  62  91 128 170 220 273 332 396
#     4  11  25  44  67 100 136 171 219 272 333 404
#
# _framework density 19.753086
#
# number of rings (size 3 to 8) (size 9 to 14) (size 15 to 20)
#    0.000    1.333    0.000    5.000    0.000   14.667 
#    0.000    0.000    0.000    0.000    0.000    0.000 
#    0.000    0.000    0.000    0.000    0.000    0.000 
#
# Total GULP energy -267362.301127 kJ/mol
# GULP energy per Si atom -5570.047940 kJ/mol
# Density = 1.970813 g / cm^3
# Si number density = 19.753086 Si / 1000 Ang^3
#
#
#
# Elastic Constant Matrix: (Units=GPa)
#
#
# Indices 1 2 3 4 5 6 
#
# 1 105.1929 52.9186 65.8553 0.0000 0.0000 0.0000
# 2 52.9186 89.6682 40.3647 0.0000 0.0000 0.0000
# 3 65.8553 40.3647 135.5316 0.0000 0.0000 0.0000
# 4 0.0000 0.0000 0.0000 37.3598 0.0000 0.0000
# 5 0.0000 0.0000 0.0000 0.0000 48.7416 0.0000
# 6 0.0000 0.0000 0.0000 0.0000 0.0000 42.7435
#
#
#
# Elastic Compliance Matrix: (Units=1/GPa)
#
#
# Indices 1 2 3 4 5 6 
#
# 1 0.016976 -0.007281 -0.006080 0.000000 0.000000 0.000000
# 2 -0.007281 0.016002 -0.001228 0.000000 0.000000 0.000000
# 3 -0.006080 -0.001228 0.010698 0.000000 0.000000 0.000000
# 4 0.000000 0.000000 0.000000 0.026767 0.000000 0.000000
# 5 0.000000 0.000000 0.000000 0.000000 0.020516 0.000000
# 6 0.000000 0.000000 0.000000 0.000000 0.000000 0.023395
#
#
# Mechanical properties :
#
#
# Convention : Reuss Voigt Hill
#
# Bulk Modulus (GPa) = 68.97603 72.07444 70.52524
# Shear Modulus (GPa) = 33.70058 37.18593 35.44326
#
# Velocity S-wave (km/s) = 4.13497 4.34353 4.24053
# Velocity P-wave (km/s) = 7.60212 7.85633 7.73027
#
# Compressibility (1/GPa) = 0.01449779
#
# Stress axis : x y z
#
# Youngs Moduli (GPa) = 58.90784 62.49175 93.47302
#
# Poissons Ratio (x) = 0.45503 0.56831
# Poissons Ratio (y) = 0.42893 0.11476
# Poissons Ratio (z) = 0.35816 0.07672
#
# Static dielectric constant tensor:
#      x y z
#    x 1.696720 0.000000 0.000000 
#    y 0.000000 1.710400 0.000000 
#    z 0.000000 0.000000 1.725920 
# 
# From -- ./inp_files/25940.got.cif
#   From: 2010.05.17/outbox.ucp.g08.bks.cvg/sg60_13_cif.got.tgz:25940.got - 2010.06.11 16:26:41.
