data_PCOD9458860
_publ_section_title
;
Structure prediction by ZEFSAII (Michael W. Deem and Ramdas Pophale) SiO2 
 PCOD9458860
Probable space group: P B C N
;
_chemical_formula_sum "Si O2"
_cell_formula_units_Z 20
_cell_length_a 8.650477
_cell_length_b 9.005885
_cell_length_c 9.799480
_cell_angle_alpha 90.000000
_cell_angle_beta 90.000000
_cell_angle_gamma 90.000000
_cell_volume 763.430460
_symmetry_space_group_name_H-M "P B C N"
_symmetry_group_IT_number 60
_symmetry_cell_setting 'orthorhombic'
loop_
_space_group_symop_operation_xyz
x,y,z
1/2-x,1/2-y,1/2+z
1/2+x,1/2-y,-z
-x,y,1/2-z
-x,-y,-z
1/2+x,1/2+y,1/2-z
1/2-x,1/2+y,z
x,-y,1/2+z
loop_
_atom_site_type_symbol
_atom_site_label
_atom_site_fract_x
_atom_site_fract_y
_atom_site_fract_z
Si Si1 0.962396 0.227829 0.978846
Si Si2 0.239246 0.948882 0.436352
Si Si3 0.000000 0.613926 0.750000
O O1 0.854134 0.369930 0.954512
O O2 0.038799 0.277085 0.123710
O O3 0.848327 0.090609 0.007513
O O4 0.105076 0.167311 0.892342
O O5 0.354712 0.974064 0.310946
#
# Coordination Sequence:
#
# PCOD9458860 Si02
#       3
#     8   8   4
#     4   9  19  40  62  93 122 164 207 267 301 380
#     4   9  19  40  62  91 126 158 215 254 317 364
#     4   8  20  40  58  92 124 166 202 260 312 380
#
# _framework density 26.19754
#
# number of rings (size 3 to 8) (size 9 to 14) (size 15 to 20)
#    2.400    0.800    0.000    0.000    0.000    1.600 
#   14.400    2.000    0.000    0.000    0.000    0.000 
#    0.000    0.000    0.000    0.000    0.000    0.000 
#
# Total GULP energy -111516.904908 kJ/mol
# GULP energy per Si atom -5575.845245 kJ/mol
# Density = 2.613791 g / cm^3
# Si number density = 26.197540 Si / 1000 Ang^3
#
#
#
# Elastic Constant Matrix: (Units=GPa)
#
#
# Indices 1 2 3 4 5 6 
#
# 1 207.5357 63.6435 59.5486 0.0000 0.0000 0.0000
# 2 63.6435 103.7666 21.7197 0.0000 0.0000 0.0000
# 3 59.5486 21.7197 40.6901 0.0000 0.0000 0.0000
# 4 0.0000 0.0000 0.0000 17.3854 0.0000 0.0000
# 5 0.0000 0.0000 0.0000 0.0000 46.4651 0.0000
# 6 0.0000 0.0000 0.0000 0.0000 0.0000 70.2733
#
#
#
# Elastic Compliance Matrix: (Units=1/GPa)
#
#
# Indices 1 2 3 4 5 6 
#
# 1 0.009143 -0.003160 -0.011693 0.000000 0.000000 0.000000
# 2 -0.003160 0.011941 -0.001750 0.000000 0.000000 0.000000
# 3 -0.011693 -0.001750 0.042623 0.000000 0.000000 0.000000
# 4 0.000000 0.000000 0.000000 0.057520 0.000000 0.000000
# 5 0.000000 0.000000 0.000000 0.000000 0.021522 0.000000
# 6 0.000000 0.000000 0.000000 0.000000 0.000000 0.014230
#
#
# Mechanical properties :
#
#
# Convention : Reuss Voigt Hill
#
# Bulk Modulus (GPa) = 32.78586 71.31289 52.04938
# Shear Modulus (GPa) = 24.95630 40.63015 32.79322
#
# Velocity S-wave (km/s) = 3.08980 3.94244 3.54187
# Velocity P-wave (km/s) = 5.02705 6.92850 6.05290
#
# Compressibility (1/GPa) = 0.03050095
#
# Stress axis : x y z
#
# Youngs Moduli (GPa) = 109.37763 83.74282 23.46176
#
# Poissons Ratio (x) = 0.26462 0.27434
# Poissons Ratio (y) = 0.34563 0.04105
# Poissons Ratio (z) = 1.27898 0.14652
#
# Static dielectric constant tensor:
#      x y z
#    x 2.054670 0.000000 0.000000 
#    y 0.000000 2.081000 0.000000 
#    z 0.000000 0.000000 2.096990 
# 
# From -- ./inp_files/9268.got.cif
#   From: 2010.05.17/outbox.cif.g08.bks.cpg/sg60_5_cif.got.tgz:9268.got - 2010.06.03 14:59:27.
