data_PCOD9458417
_publ_section_title
;
Structure prediction by ZEFSAII (Michael W. Deem and Ramdas Pophale) SiO2 
 PCOD9458417
Probable space group: P B C N
;
_chemical_formula_sum "Si O2"
_cell_formula_units_Z 40
_cell_length_a 25.136127
_cell_length_b 8.271596
_cell_length_c 8.700660
_cell_angle_alpha 90.000000
_cell_angle_beta 90.000000
_cell_angle_gamma 90.000000
_cell_volume 1809.005446
_symmetry_space_group_name_H-M "P B C N"
_symmetry_group_IT_number 60
_symmetry_cell_setting 'orthorhombic'
loop_
_space_group_symop_operation_xyz
x,y,z
1/2-x,1/2-y,1/2+z
1/2+x,1/2-y,-z
-x,y,1/2-z
-x,-y,-z
1/2+x,1/2+y,1/2-z
1/2-x,1/2+y,z
x,-y,1/2+z
loop_
_atom_site_type_symbol
_atom_site_label
_atom_site_fract_x
_atom_site_fract_y
_atom_site_fract_z
Si Si1 0.789106 0.654617 0.998663
Si Si2 0.123726 0.179944 0.211410
Si Si3 0.367368 0.116173 0.008473
Si Si4 0.806976 0.866122 0.284275
Si Si5 0.039117 0.604886 0.609123
O O1 0.826231 0.739312 0.872778
O O2 0.825396 0.509983 0.062414
O O3 0.738304 0.586007 0.907906
O O4 0.780467 0.785243 0.133678
O O5 0.111575 0.270826 0.371492
O O6 0.072262 0.222766 0.102616
O O7 0.148152 0.002685 0.246506
O O8 0.337133 0.224582 0.129020
O O9 0.411268 0.017946 0.103636
O O10 0.000000 0.627360 0.750000
O O11 0.000000 0.500000 0.500000
#
# Coordination Sequence:
#
# PCOD9458417 Si02
#       5
#     8   8   8   8   8
#     4  11  24  42  68  95 143 190 226 276 361 433
#     4  11  24  42  67 104 139 178 240 298 342 416
#     4  11  24  43  69  98 133 185 232 282 352 437
#     4  12  25  43  68 104 142 181 231 296 347 417
#     4  11  23  46  76  99 134 188 236 284 362 435
#
# _framework density 22.111597
#
# number of rings (size 3 to 8) (size 9 to 14) (size 15 to 20)
#    0.000    0.800    2.000    6.000    2.800    4.800 
#    0.000    4.000    0.000    0.000    0.000    0.000 
#    0.000    0.000    0.000    0.000    0.000    0.000 
#
# Total GULP energy -222833.446684 kJ/mol
# GULP energy per Si atom -5570.836167 kJ/mol
# Density = 2.206127 g / cm^3
# Si number density = 22.111597 Si / 1000 Ang^3
#
#
#
# Elastic Constant Matrix: (Units=GPa)
#
#
# Indices 1 2 3 4 5 6 
#
# 1 128.4741 35.2252 27.9344 0.0000 0.0000 0.0000
# 2 35.2252 87.0160 29.0696 0.0000 0.0000 0.0000
# 3 27.9344 29.0696 63.4429 0.0000 0.0000 0.0000
# 4 0.0000 0.0000 0.0000 33.8575 0.0000 0.0000
# 5 0.0000 0.0000 0.0000 0.0000 45.6817 0.0000
# 6 0.0000 0.0000 0.0000 0.0000 0.0000 41.1424
#
#
#
# Elastic Compliance Matrix: (Units=1/GPa)
#
#
# Indices 1 2 3 4 5 6 
#
# 1 0.009145 -0.002783 -0.002752 0.000000 0.000000 0.000000
# 2 -0.002783 0.014416 -0.005380 0.000000 0.000000 0.000000
# 3 -0.002752 -0.005380 0.019439 0.000000 0.000000 0.000000
# 4 0.000000 0.000000 0.000000 0.029536 0.000000 0.000000
# 5 0.000000 0.000000 0.000000 0.000000 0.021891 0.000000
# 6 0.000000 0.000000 0.000000 0.000000 0.000000 0.024306
#
#
# Mechanical properties :
#
#
# Convention : Reuss Voigt Hill
#
# Bulk Modulus (GPa) = 47.23450 51.48791 49.36121
# Shear Modulus (GPa) = 33.87128 36.58324 35.22726
#
# Velocity S-wave (km/s) = 3.91811 4.07195 3.99577
# Velocity P-wave (km/s) = 6.47125 6.74119 6.60760
#
# Compressibility (1/GPa) = 0.02117097
#
# Stress axis : x y z
#
# Youngs Moduli (GPa) = 109.35031 69.36738 51.44323
#
# Poissons Ratio (x) = 0.19303 0.14155
# Poissons Ratio (y) = 0.30430 0.27677
# Poissons Ratio (z) = 0.30088 0.37321
#
# Static dielectric constant tensor:
#      x y z
#    x 2.026520 0.000000 0.000000 
#    y 0.000000 2.152880 0.000000 
#    z 0.000000 0.000000 1.866050 
# 
# From -- ./inp_files/7722.got.cif
#   From: 2010.05.17/outbox.cif.g08.bks.cpg/sg60_4_cif.got.tgz:7722.got - 2010.06.03 14:59:27.
