data_PCOD9458542
_publ_section_title
;
Structure prediction by ZEFSAII (Michael W. Deem and Ramdas Pophale) SiO2 
 PCOD9458542
Probable space group: P B C N
;
_chemical_formula_sum "Si O2"
_cell_formula_units_Z 40
_cell_length_a 17.863837
_cell_length_b 12.224611
_cell_length_c 8.322689
_cell_angle_alpha 90.000000
_cell_angle_beta 90.000000
_cell_angle_gamma 90.000000
_cell_volume 1817.495993
_symmetry_space_group_name_H-M "P B C N"
_symmetry_group_IT_number 60
_symmetry_cell_setting 'orthorhombic'
loop_
_space_group_symop_operation_xyz
x,y,z
1/2-x,1/2-y,1/2+z
1/2+x,1/2-y,-z
-x,y,1/2-z
-x,-y,-z
1/2+x,1/2+y,1/2-z
1/2-x,1/2+y,z
x,-y,1/2+z
loop_
_atom_site_type_symbol
_atom_site_label
_atom_site_fract_x
_atom_site_fract_y
_atom_site_fract_z
Si Si1 0.120484 0.848584 0.084828
Si Si2 0.924102 0.419427 0.339385
Si Si3 0.665992 0.554053 0.573519
Si Si4 0.337069 0.888081 0.480906
Si Si5 0.966616 0.814410 0.929319
O O1 0.145761 0.901889 0.250885
O O2 0.148610 0.725086 0.071301
O O3 0.031645 0.846821 0.053361
O O4 0.155551 0.924543 0.946079
O O5 0.883565 0.514686 0.435685
O O6 0.946088 0.313896 0.445213
O O7 0.000000 0.457652 0.250000
O O8 0.869195 0.377386 0.199180
O O9 0.749954 0.584392 0.526501
O O10 0.605377 0.611890 0.458441
O O11 0.000000 0.827088 0.750000
#
# Coordination Sequence:
#
# PCOD9458542 Si02
#       5
#     8   8   8   8   8
#     4  12  27  49  74 111 148 206 248 307 377 447
#     4  11  25  48  75 110 151 195 252 307 371 452
#     4  12  29  45  78 109 156 191 261 306 382 445
#     4  12  28  47  79 109 153 196 248 317 379 438
#     4  11  24  49  78 104 154 196 250 308 368 449
#
# _framework density 22.008299999999998
#
# number of rings (size 3 to 8) (size 9 to 14) (size 15 to 20)
#    0.000    0.400    4.000    4.200    8.400    0.000 
#    0.000    0.000    0.000    0.000    0.000    0.000 
#    0.000    0.000    0.000    0.000    0.000    0.000 
#
# Total GULP energy -224156.836267 kJ/mol
# GULP energy per Si atom -5603.920907 kJ/mol
# Density = 2.195821 g / cm^3
# Si number density = 22.008300 Si / 1000 Ang^3
#
#
#
# Elastic Constant Matrix: (Units=GPa)
#
#
# Indices 1 2 3 4 5 6 
#
# 1 171.9674 21.4930 0.7702 0.0000 0.0000 0.0000
# 2 21.4930 45.0248 14.9382 0.0000 0.0000 0.0000
# 3 0.7702 14.9382 45.8001 0.0000 0.0000 0.0000
# 4 0.0000 0.0000 0.0000 34.0203 0.0000 0.0000
# 5 0.0000 0.0000 0.0000 0.0000 21.6086 0.0000
# 6 0.0000 0.0000 0.0000 0.0000 0.0000 -111.5120
#
#
#
# Elastic Compliance Matrix: (Units=1/GPa)
#
#
# Indices 1 2 3 4 5 6 
#
# 1 0.006222 -0.003292 0.000969 0.000000 0.000000 0.000000
# 2 -0.003292 0.026646 -0.008636 0.000000 0.000000 0.000000
# 3 0.000969 -0.008636 0.024634 0.000000 0.000000 0.000000
# 4 0.000000 0.000000 0.000000 0.029394 0.000000 0.000000
# 5 0.000000 0.000000 0.000000 0.000000 0.046278 0.000000
# 6 0.000000 0.000000 0.000000 0.000000 0.000000 -0.008968
#
#
# Mechanical properties :
#
#
# Convention : Reuss Voigt Hill
#
# Bulk Modulus (GPa) = 28.10084 37.46614 32.78349
# Shear Modulus (GPa) = 31.64835 3.86277 17.75556
#
# Velocity S-wave (km/s) = 3.79624 1.32625 2.84344
# Velocity P-wave (km/s) = 5.65785 4.40521 5.07036
#
# Compressibility (1/GPa) = 0.03558613
#
# Stress axis : x y z
#
# Youngs Moduli (GPa) = 160.71695 37.52852 40.59372
#
# Poissons Ratio (x) = 0.12353 -0.03933
# Poissons Ratio (y) = 0.52903 0.35055
# Poissons Ratio (z) = -0.15573 0.32408
#
# Static dielectric constant tensor:
#      x y z
#    x 1.776930 0.000000 0.000000 
#    y 0.000000 1.789630 0.000000 
#    z 0.000000 0.000000 1.833360 
# 
# From -- ./inp_files/6519.got.cif
#   From: 2010.05.17/outbox.cif.g08.bks.cpg/sg60_4_cif.got.tgz:6519.got - 2010.06.03 14:59:27.
