data_PCOD9458338
_publ_section_title
;
Structure prediction by ZEFSAII (Michael W. Deem and Ramdas Pophale) SiO2 
 PCOD9458338
Probable space group: P B C N
;
_chemical_formula_sum "Si O2"
_cell_formula_units_Z 36
_cell_length_a 13.282604
_cell_length_b 9.838697
_cell_length_c 11.158881
_cell_angle_alpha 90.000000
_cell_angle_beta 90.000000
_cell_angle_gamma 90.000000
_cell_volume 1458.281805
_symmetry_space_group_name_H-M "P B C N"
_symmetry_group_IT_number 60
_symmetry_cell_setting 'orthorhombic'
loop_
_space_group_symop_operation_xyz
x,y,z
1/2-x,1/2-y,1/2+z
1/2+x,1/2-y,-z
-x,y,1/2-z
-x,-y,-z
1/2+x,1/2+y,1/2-z
1/2-x,1/2+y,z
x,-y,1/2+z
loop_
_atom_site_type_symbol
_atom_site_label
_atom_site_fract_x
_atom_site_fract_y
_atom_site_fract_z
Si Si1 0.698574 0.372656 0.954358
Si Si2 0.500000 0.961460 0.750000
Si Si3 0.696627 0.634958 0.829100
Si Si4 0.992680 0.760241 0.451004
Si Si5 0.843525 0.637924 0.640922
O O1 0.699777 0.472845 0.841168
O O2 0.743290 0.224983 0.926114
O O3 0.589138 0.347617 0.010719
O O4 0.782585 0.442510 0.039200
O O5 0.488420 0.875889 0.872628
O O6 0.402105 0.056656 0.755861
O O7 0.581302 0.664289 0.859126
O O8 0.745511 0.696029 0.709233
O O9 0.927848 0.723922 0.570483
#
# Coordination Sequence:
#
# PCOD9458338 Si02
#       5
#     8   4   8   8   8
#     4  11  24  44  67 100 138 181 230 288 348 416
#     4  12  22  42  68 100 134 180 230 284 350 424
#     4  11  24  42  66  97 134 178 226 283 350 416
#     4  11  24  42  67 100 135 180 232 291 347 414
#     4  11  23  41  67  96 135 180 229 281 345 424
#
# _framework density 24.686585999999998
#
# number of rings (size 3 to 8) (size 9 to 14) (size 15 to 20)
#    0.000    0.889    0.000    8.000    0.000    5.333 
#    0.000    4.444    0.000    0.000    0.000    0.000 
#    0.000    0.000    0.000    0.000    0.000    0.000 
#
# Total GULP energy -200658.757295 kJ/mol
# GULP energy per Si atom -5573.854369 kJ/mol
# Density = 2.463040 g / cm^3
# Si number density = 24.686586 Si / 1000 Ang^3
#
#
#
# Elastic Constant Matrix: (Units=GPa)
#
#
# Indices 1 2 3 4 5 6 
#
# 1 152.9407 34.9607 39.7491 0.0000 0.0000 0.0000
# 2 34.9607 79.6212 15.3664 0.0000 0.0000 0.0000
# 3 39.7491 15.3664 70.8019 0.0000 0.0000 0.0000
# 4 0.0000 0.0000 0.0000 12.1521 0.0000 0.0000
# 5 0.0000 0.0000 0.0000 0.0000 61.1216 0.0000
# 6 0.0000 0.0000 0.0000 0.0000 0.0000 20.2278
#
#
#
# Elastic Compliance Matrix: (Units=1/GPa)
#
#
# Indices 1 2 3 4 5 6 
#
# 1 0.008228 -0.002840 -0.004003 0.000000 0.000000 0.000000
# 2 -0.002840 0.014089 -0.001463 0.000000 0.000000 0.000000
# 3 -0.004003 -0.001463 0.016689 0.000000 0.000000 0.000000
# 4 0.000000 0.000000 0.000000 0.082290 0.000000 0.000000
# 5 0.000000 0.000000 0.000000 0.000000 0.016361 0.000000
# 6 0.000000 0.000000 0.000000 0.000000 0.000000 0.049437
#
#
# Mechanical properties :
#
#
# Convention : Reuss Voigt Hill
#
# Bulk Modulus (GPa) = 44.65679 53.72403 49.19041
# Shear Modulus (GPa) = 23.67751 32.91948 28.29850
#
# Velocity S-wave (km/s) = 3.10033 3.65567 3.38939
# Velocity P-wave (km/s) = 5.56281 6.29510 5.94025
#
# Compressibility (1/GPa) = 0.02239301
#
# Stress axis : x y z
#
# Youngs Moduli (GPa) = 121.53467 70.97727 59.92051
#
# Poissons Ratio (x) = 0.20160 0.23986
# Poissons Ratio (y) = 0.34520 0.08768
# Poissons Ratio (z) = 0.48649 0.10385
#
# Static dielectric constant tensor:
#      x y z
#    x 1.990140 0.000000 0.000000 
#    y 0.000000 2.044900 0.000000 
#    z 0.000000 0.000000 2.092610 
# 
# From -- ./inp_files/11629.got.cif
#   From: 2010.05.17/outbox.cif.g08.bks.cpg/sg60_6_cif.got.tgz:11629.got - 2010.06.03 14:59:27.
