data_PCOD9458154
_publ_section_title
;
Structure prediction by ZEFSAII (Michael W. Deem and Ramdas Pophale) SiO2 
 PCOD9458154
Probable space group: P B C N
;
_chemical_formula_sum "Si O2"
_cell_formula_units_Z 36
_cell_length_a 14.703862
_cell_length_b 9.414619
_cell_length_c 10.413746
_cell_angle_alpha 90.000000
_cell_angle_beta 90.000000
_cell_angle_gamma 90.000000
_cell_volume 1441.587965
_symmetry_space_group_name_H-M "P B C N"
_symmetry_group_IT_number 60
_symmetry_cell_setting 'orthorhombic'
loop_
_space_group_symop_operation_xyz
x,y,z
1/2-x,1/2-y,1/2+z
1/2+x,1/2-y,-z
-x,y,1/2-z
-x,-y,-z
1/2+x,1/2+y,1/2-z
1/2-x,1/2+y,z
x,-y,1/2+z
loop_
_atom_site_type_symbol
_atom_site_label
_atom_site_fract_x
_atom_site_fract_y
_atom_site_fract_z
Si Si1 0.593863 0.277908 0.995141
Si Si2 0.623661 0.972136 0.926804
Si Si3 0.500000 0.219190 0.250000
Si Si4 0.766198 0.339895 0.132205
Si Si5 0.312120 0.573747 0.201928
O O1 0.538198 0.300911 0.125741
O O2 0.699853 0.258224 0.035201
O O3 0.599775 0.400650 0.887593
O O4 0.571279 0.120249 0.943316
O O5 0.576995 0.878242 0.816366
O O6 0.728259 0.983889 0.882128
O O7 0.642757 0.896377 0.063690
O O8 0.699350 0.464940 0.181294
O O9 0.791977 0.229099 0.241528
#
# Coordination Sequence:
#
# PCOD9458154 Si02
#       5
#     8   8   4   8   8
#     4  11  24  40  67  99 136 181 223 284 342 403
#     4  11  22  39  69 101 134 180 225 283 339 405
#     4  12  24  44  62 104 148 178 226 280 352 428
#     4  11  21  42  69 101 132 173 232 284 331 406
#     4  11  22  41  71 100 133 171 237 283 333 404
#
# _framework density 24.972460000000002
#
# number of rings (size 3 to 8) (size 9 to 14) (size 15 to 20)
#    0.000    0.889    6.667    0.667    0.000    0.000 
#    0.000    1.111    0.000    0.000    0.000    0.000 
#    0.000    0.000    0.000    0.000    0.000    0.000 
#
# Total GULP energy -200884.897222 kJ/mol
# GULP energy per Si atom -5580.136034 kJ/mol
# Density = 2.491562 g / cm^3
# Si number density = 24.972460 Si / 1000 Ang^3
#
#
#
# Elastic Constant Matrix: (Units=GPa)
#
#
# Indices 1 2 3 4 5 6 
#
# 1 47.6113 28.1487 16.0803 0.0000 0.0000 0.0000
# 2 28.1487 105.7544 54.3712 0.0000 0.0000 0.0000
# 3 16.0803 54.3712 111.6373 0.0000 0.0000 0.0000
# 4 0.0000 0.0000 0.0000 40.9067 0.0000 0.0000
# 5 0.0000 0.0000 0.0000 0.0000 59.5774 0.0000
# 6 0.0000 0.0000 0.0000 0.0000 0.0000 8.1236
#
#
#
# Elastic Compliance Matrix: (Units=1/GPa)
#
#
# Indices 1 2 3 4 5 6 
#
# 1 0.024945 -0.006393 -0.000479 0.000000 0.000000 0.000000
# 2 -0.006393 0.014253 -0.006021 0.000000 0.000000 0.000000
# 3 -0.000479 -0.006021 0.011959 0.000000 0.000000 0.000000
# 4 0.000000 0.000000 0.000000 0.024446 0.000000 0.000000
# 5 0.000000 0.000000 0.000000 0.000000 0.016785 0.000000
# 6 0.000000 0.000000 0.000000 0.000000 0.000000 0.123099
#
#
# Mechanical properties :
#
#
# Convention : Reuss Voigt Hill
#
# Bulk Modulus (GPa) = 39.41622 51.35593 45.38608
# Shear Modulus (GPa) = 20.02163 32.81506 26.41834
#
# Velocity S-wave (km/s) = 2.83459 3.62892 3.25606
# Velocity P-wave (km/s) = 5.15086 6.17806 5.68769
#
# Compressibility (1/GPa) = 0.02537027
#
# Stress axis : x y z
#
# Youngs Moduli (GPa) = 40.08807 70.16067 83.61919
#
# Poissons Ratio (x) = 0.44855 0.04009
# Poissons Ratio (y) = 0.25629 0.50346
# Poissons Ratio (z) = 0.01922 0.42242
#
# Static dielectric constant tensor:
#      x y z
#    x 1.956710 0.000000 0.000000 
#    y 0.000000 2.023660 0.000000 
#    z 0.000000 0.000000 2.205340 
# 
# From -- ./inp_files/11627.got.cif
#   From: 2010.05.17/outbox.cif.g08.bks.cpg/sg60_6_cif.got.tgz:11627.got - 2010.06.03 14:59:27.
