data_PCOD9458812
_publ_section_title
;
Structure prediction by ZEFSAII (Michael W. Deem and Ramdas Pophale) SiO2 
 PCOD9458812
Probable space group: P B C N
;
_chemical_formula_sum "Si O2"
_cell_formula_units_Z 40
_cell_length_a 10.765528
_cell_length_b 29.013516
_cell_length_c 5.092218
_cell_angle_alpha 90.000000
_cell_angle_beta 90.000000
_cell_angle_gamma 90.000000
_cell_volume 1590.533001
_symmetry_space_group_name_H-M "P B C N"
_symmetry_group_IT_number 60
_symmetry_cell_setting 'orthorhombic'
loop_
_space_group_symop_operation_xyz
x,y,z
1/2-x,1/2-y,1/2+z
1/2+x,1/2-y,-z
-x,y,1/2-z
-x,-y,-z
1/2+x,1/2+y,1/2-z
1/2-x,1/2+y,z
x,-y,1/2+z
loop_
_atom_site_type_symbol
_atom_site_label
_atom_site_fract_x
_atom_site_fract_y
_atom_site_fract_z
Si Si1 0.500000 0.317802 0.250000
Si Si2 0.625814 0.393814 0.910926
Si Si3 0.197169 0.469369 0.480553
Si Si4 0.134111 0.647909 0.352051
Si Si5 0.176503 0.744287 0.063347
Si Si6 0.000000 0.599087 0.750000
O O1 0.406815 0.351225 0.400542
O O2 0.570808 0.283046 0.443794
O O3 0.500000 0.403186 0.750000
O O4 0.740500 0.377562 0.729922
O O5 0.679122 0.438550 0.055703
O O6 0.195104 0.489279 0.772955
O O7 0.079579 0.437154 0.422429
O O8 0.141407 0.698344 0.223365
O O9 0.107670 0.634440 0.651915
O O10 0.000000 0.630363 0.250000
O O11 0.278488 0.764562 0.268668
#
# Coordination Sequence:
#
# PCOD9458812 Si02
#       6
#     4   8   8   8   8   4
#     4  12  28  48  78 113 170 227 266 336 406 484
#     4  12  29  52  80 117 167 218 268 333 418 496
#     4  12  29  53  84 120 157 210 272 348 418 496
#     4  12  26  49  81 121 159 216 276 330 396 482
#     4  12  28  48  76 118 167 216 279 329 392 475
#     4  12  28  50  88 119 168 201 274 344 426 480
#
# _framework density 25.148802
#
# number of rings (size 3 to 8) (size 9 to 14) (size 15 to 20)
#    0.000    0.000    5.000    3.000   11.200    0.800 
#    0.000    0.000    0.000    0.000    0.000    0.000 
#    0.000    0.000    0.000    0.000    0.000    0.000 
#
# Total GULP energy -223798.933648 kJ/mol
# GULP energy per Si atom -5594.973341 kJ/mol
# Density = 2.509156 g / cm^3
# Si number density = 25.148802 Si / 1000 Ang^3
#
#
#
# Elastic Constant Matrix: (Units=GPa)
#
#
# Indices 1 2 3 4 5 6 
#
# 1 161.1342 55.1187 34.1500 0.0000 0.0000 0.0000
# 2 55.1187 113.1250 6.3776 0.0000 0.0000 0.0000
# 3 34.1500 6.3776 56.4204 0.0000 0.0000 0.0000
# 4 0.0000 0.0000 0.0000 17.1445 0.0000 0.0000
# 5 0.0000 0.0000 0.0000 0.0000 57.4328 0.0000
# 6 0.0000 0.0000 0.0000 0.0000 0.0000 58.7749
#
#
#
# Elastic Compliance Matrix: (Units=1/GPa)
#
#
# Indices 1 2 3 4 5 6 
#
# 1 0.008541 -0.003895 -0.004729 0.000000 0.000000 0.000000
# 2 -0.003895 0.010673 0.001151 0.000000 0.000000 0.000000
# 3 -0.004729 0.001151 0.020456 0.000000 0.000000 0.000000
# 4 0.000000 0.000000 0.000000 0.058328 0.000000 0.000000
# 5 0.000000 0.000000 0.000000 0.000000 0.017412 0.000000
# 6 0.000000 0.000000 0.000000 0.000000 0.000000 0.017014
#
#
# Mechanical properties :
#
#
# Convention : Reuss Voigt Hill
#
# Bulk Modulus (GPa) = 40.44691 57.99694 49.22192
# Shear Modulus (GPa) = 32.13162 42.33932 37.23547
#
# Velocity S-wave (km/s) = 3.57831 4.10756 3.85204
# Velocity P-wave (km/s) = 5.76111 6.75334 6.27686
#
# Compressibility (1/GPa) = 0.02472377
#
# Stress axis : x y z
#
# Youngs Moduli (GPa) = 117.08910 93.69874 48.88439
#
# Poissons Ratio (x) = 0.36492 0.23118
# Poissons Ratio (y) = 0.45602 -0.05626
# Poissons Ratio (z) = 0.55373 -0.10784
#
# Static dielectric constant tensor:
#      x y z
#    x 1.998640 0.000000 0.000000 
#    y 0.000000 1.963140 0.000000 
#    z 0.000000 0.000000 4.135400 
# 
# From -- ./inp_files/870.got.cif
#   From: 2010.05.17/outbox.cif.g08.bks.cpg/sg60_1_cif.got.tgz:870.got - 2010.06.03 14:59:27.
