data_PCOD9458761
_publ_section_title
;
Structure prediction by ZEFSAII (Michael W. Deem and Ramdas Pophale) SiO2 
 PCOD9458761
Probable space group: P B C N
;
_chemical_formula_sum "Si O2"
_cell_formula_units_Z 40
_cell_length_a 8.525816
_cell_length_b 20.770173
_cell_length_c 8.790601
_cell_angle_alpha 90.000000
_cell_angle_beta 90.000000
_cell_angle_gamma 90.000000
_cell_volume 1556.663125
_symmetry_space_group_name_H-M "P B C N"
_symmetry_group_IT_number 60
_symmetry_cell_setting 'orthorhombic'
loop_
_space_group_symop_operation_xyz
x,y,z
1/2-x,1/2-y,1/2+z
1/2+x,1/2-y,-z
-x,y,1/2-z
-x,-y,-z
1/2+x,1/2+y,1/2-z
1/2-x,1/2+y,z
x,-y,1/2+z
loop_
_atom_site_type_symbol
_atom_site_label
_atom_site_fract_x
_atom_site_fract_y
_atom_site_fract_z
Si Si1 0.164352 0.675435 0.185998
Si Si2 0.127293 0.255758 0.380346
Si Si3 0.416497 0.369689 0.087797
Si Si4 0.874466 0.059181 0.360765
Si Si5 0.389243 0.044401 0.610353
O O1 0.216986 0.736520 0.286572
O O2 0.302963 0.624913 0.205963
O O3 0.000000 0.650714 0.250000
O O4 0.150619 0.689374 0.006362
O O5 0.079084 0.194785 0.485047
O O6 0.000000 0.269272 0.250000
O O7 0.500000 0.358526 0.250000
O O8 0.234800 0.396331 0.079033
O O9 0.532089 0.421764 0.010382
O O10 0.000000 0.030742 0.250000
O O11 0.734908 0.010598 0.356136
O O12 0.500000 0.064061 0.750000
O O13 0.500000 0.000000 0.500000
#
# Coordination Sequence:
#
# PCOD9458761 Si02
#       5
#     8   8   8   8   8
#     4  12  26  44  76 113 147 193 251 313 373 440
#     4  12  26  51  75 109 149 199 249 307 383 456
#     4  12  25  47  74 110 152 201 248 300 378 464
#     4  12  24  49  77 102 150 207 251 298 382 452
#     4  12  27  47  74 113 148 190 254 321 373 436
#
# _framework density 25.695988
#
# number of rings (size 3 to 8) (size 9 to 14) (size 15 to 20)
#    0.000    0.000    4.000    6.000    5.600    0.000 
#    0.000    1.000    0.000    0.000    0.000    0.000 
#    0.000    0.000    0.000    0.000    0.000    0.000 
#
# Total GULP energy -223928.761429 kJ/mol
# GULP energy per Si atom -5598.219036 kJ/mol
# Density = 2.563750 g / cm^3
# Si number density = 25.695988 Si / 1000 Ang^3
#
#
#
# Elastic Constant Matrix: (Units=GPa)
#
#
# Indices 1 2 3 4 5 6 
#
# 1 182.7667 20.3161 52.5675 0.0000 0.0000 0.0000
# 2 20.3161 34.3781 4.6367 0.0000 0.0000 0.0000
# 3 52.5675 4.6367 138.0852 0.0000 0.0000 0.0000
# 4 0.0000 0.0000 0.0000 34.5888 0.0000 0.0000
# 5 0.0000 0.0000 0.0000 0.0000 72.3363 0.0000
# 6 0.0000 0.0000 0.0000 0.0000 0.0000 43.2988
#
#
#
# Elastic Compliance Matrix: (Units=1/GPa)
#
#
# Indices 1 2 3 4 5 6 
#
# 1 0.006549 -0.003550 -0.002374 0.000000 0.000000 0.000000
# 2 -0.003550 0.031145 0.000306 0.000000 0.000000 0.000000
# 3 -0.002374 0.000306 0.008135 0.000000 0.000000 0.000000
# 4 0.000000 0.000000 0.000000 0.028911 0.000000 0.000000
# 5 0.000000 0.000000 0.000000 0.000000 0.013824 0.000000
# 6 0.000000 0.000000 0.000000 0.000000 0.000000 0.023095
#
#
# Mechanical properties :
#
#
# Convention : Reuss Voigt Hill
#
# Bulk Modulus (GPa) = 28.90777 56.69672 42.80224
# Shear Modulus (GPa) = 37.19487 48.55876 42.87682
#
# Velocity S-wave (km/s) = 3.80873 4.35183 4.08930
# Velocity P-wave (km/s) = 5.53319 6.88212 6.24419
#
# Compressibility (1/GPa) = 0.03459277
#
# Stress axis : x y z
#
# Youngs Moduli (GPa) = 152.69892 32.10794 122.92037
#
# Poissons Ratio (x) = 0.11398 0.29180
# Poissons Ratio (y) = 0.54207 -0.03757
# Poissons Ratio (z) = 0.36249 -0.00981
#
# Static dielectric constant tensor:
#      x y z
#    x 1.940880 0.000000 0.000000 
#    y 0.000000 2.109030 0.000000 
#    z 0.000000 0.000000 1.949240 
# 
# From -- ./inp_files/3979.got.cif
#   From: 2010.05.17/outbox.cif.g08.bks.cpg/sg60_2_cif.got.tgz:3979.got - 2010.06.03 14:59:27.
