data_PCOD9458161
_publ_section_title
;
Structure prediction by ZEFSAII (Michael W. Deem and Ramdas Pophale) SiO2 
 PCOD9458161
Probable space group: P B C N
;
_chemical_formula_sum "Si O2"
_cell_formula_units_Z 48
_cell_length_a 9.691255
_cell_length_b 28.103555
_cell_length_c 8.417229
_cell_angle_alpha 90.000000
_cell_angle_beta 90.000000
_cell_angle_gamma 90.000000
_cell_volume 2292.505699
_symmetry_space_group_name_H-M "P B C N"
_symmetry_group_IT_number 60
_symmetry_cell_setting 'orthorhombic'
loop_
_space_group_symop_operation_xyz
x,y,z
1/2-x,1/2-y,1/2+z
1/2+x,1/2-y,-z
-x,y,1/2-z
-x,-y,-z
1/2+x,1/2+y,1/2-z
1/2-x,1/2+y,z
x,-y,1/2+z
loop_
_atom_site_type_symbol
_atom_site_label
_atom_site_fract_x
_atom_site_fract_y
_atom_site_fract_z
Si Si1 0.725234 0.710454 0.944018
Si Si2 0.281427 0.814919 0.425087
Si Si3 0.951877 0.642130 0.069040
Si Si4 0.912899 0.541074 0.910964
Si Si5 0.505777 0.358947 0.058294
Si Si6 0.914047 0.040458 0.911952
O O1 0.757215 0.698126 0.759817
O O2 0.577435 0.688101 0.988669
O O3 0.729468 0.765999 0.977901
O O4 0.832205 0.680694 0.048433
O O5 0.426308 0.839187 0.456168
O O6 0.164529 0.851827 0.482653
O O7 0.000000 0.640632 0.250000
O O8 0.911696 0.589734 0.011040
O O9 0.748972 0.529480 0.887074
O O10 0.000000 0.549460 0.750000
O O11 0.000000 0.500000 0.000000
O O12 0.500000 0.358870 0.250000
O O13 0.434537 0.407846 0.004735
O O14 0.000000 0.044948 0.750000
O O15 0.000000 0.000000 0.000000
#
# Coordination Sequence:
#
# PCOD9458161 Si02
#       6
#     8   8   8   8   8   8
#     4  11  21  43  64  99 134 177 227 281 347 405
#     4  11  23  39  70  96 134 180 223 286 343 415
#     4  12  26  43  65  98 138 181 234 282 339 411
#     4  12  26  46  74 103 138 178 229 289 354 424
#     4   9  21  40  65  92 129 171 219 268 338 406
#     4  11  24  45  71 100 135 177 222 277 343 417
#
# _framework density 20.937788999999999
#
# number of rings (size 3 to 8) (size 9 to 14) (size 15 to 20)
#    0.000    1.000    1.667    5.000    7.000    1.333 
#    0.000    2.500    0.000    0.000    0.000    0.000 
#    0.000    0.000    0.000    0.000    0.000    0.000 
#
# Total GULP energy -268152.305882 kJ/mol
# GULP energy per Si atom -5586.506373 kJ/mol
# Density = 2.089013 g / cm^3
# Si number density = 20.937789 Si / 1000 Ang^3
#
#
#
# Elastic Constant Matrix: (Units=GPa)
#
#
# Indices 1 2 3 4 5 6 
#
# 1 121.5381 40.2446 13.7574 0.0000 0.0000 0.0000
# 2 40.2446 101.3854 8.1320 0.0000 0.0000 0.0000
# 3 13.7574 8.1320 60.3983 0.0000 0.0000 0.0000
# 4 0.0000 0.0000 0.0000 16.7462 0.0000 0.0000
# 5 0.0000 0.0000 0.0000 0.0000 19.4746 0.0000
# 6 0.0000 0.0000 0.0000 0.0000 0.0000 38.5083
#
#
#
# Elastic Compliance Matrix: (Units=1/GPa)
#
#
# Indices 1 2 3 4 5 6 
#
# 1 0.009643 -0.003691 -0.001699 0.000000 0.000000 0.000000
# 2 -0.003691 0.011384 -0.000692 0.000000 0.000000 0.000000
# 3 -0.001699 -0.000692 0.017037 0.000000 0.000000 0.000000
# 4 0.000000 0.000000 0.000000 0.059715 0.000000 0.000000
# 5 0.000000 0.000000 0.000000 0.000000 0.051349 0.000000
# 6 0.000000 0.000000 0.000000 0.000000 0.000000 0.025968
#
#
# Mechanical properties :
#
#
# Convention : Reuss Voigt Hill
#
# Bulk Modulus (GPa) = 38.61236 45.28776 41.95006
# Shear Modulus (GPa) = 25.52403 29.69169 27.60786
#
# Velocity S-wave (km/s) = 3.49527 3.76984 3.63515
# Velocity P-wave (km/s) = 5.89667 6.37382 6.13988
#
# Compressibility (1/GPa) = 0.02589844
#
# Stress axis : x y z
#
# Youngs Moduli (GPa) = 103.70746 87.84189 58.69576
#
# Poissons Ratio (x) = 0.32425 0.09975
# Poissons Ratio (y) = 0.38281 0.04061
# Poissons Ratio (z) = 0.17624 0.06078
#
# Static dielectric constant tensor:
#      x y z
#    x 1.743020 0.000000 0.000000 
#    y 0.000000 1.749970 0.000000 
#    z 0.000000 0.000000 1.753570 
# 
# From -- ./inp_files/4226.got.cif
#   From: 2010.05.17/outbox.cif.g08.bks.cpg/sg60_3_cif.got.tgz:4226.got - 2010.06.03 14:59:27.
