data_PCOD9458683
_publ_section_title
;
Structure prediction by ZEFSAII (Michael W. Deem and Ramdas Pophale) SiO2 
 PCOD9458683
Probable space group: P B C N
;
_chemical_formula_sum "Si O2"
_cell_formula_units_Z 40
_cell_length_a 4.924916
_cell_length_b 16.414373
_cell_length_c 21.014914
_cell_angle_alpha 90.000000
_cell_angle_beta 90.000000
_cell_angle_gamma 90.000000
_cell_volume 1698.833212
_symmetry_space_group_name_H-M "P B C N"
_symmetry_group_IT_number 60
_symmetry_cell_setting 'orthorhombic'
loop_
_space_group_symop_operation_xyz
x,y,z
1/2-x,1/2-y,1/2+z
1/2+x,1/2-y,-z
-x,y,1/2-z
-x,-y,-z
1/2+x,1/2+y,1/2-z
1/2-x,1/2+y,z
x,-y,1/2+z
loop_
_atom_site_type_symbol
_atom_site_label
_atom_site_fract_x
_atom_site_fract_y
_atom_site_fract_z
Si Si1 0.174350 0.593615 0.929212
Si Si2 0.878713 0.251505 0.620581
Si Si3 0.500000 0.156331 0.250000
Si Si4 0.653329 0.667958 0.435855
Si Si5 0.500000 0.466346 0.750000
Si Si6 0.150991 0.996737 0.114814
O O1 0.256568 0.661366 0.877375
O O2 0.369957 0.516079 0.921961
O O3 0.873829 0.561141 0.917000
O O4 0.260450 0.636205 0.994903
O O5 0.649753 0.306176 0.584369
O O6 0.971155 0.285782 0.688530
O O7 0.151589 0.256239 0.578795
O O8 0.750465 0.094896 0.239587
O O9 0.733060 0.590919 0.391670
O O10 0.414996 0.518006 0.688557
#
# Coordination Sequence:
#
# PCOD9458683 Si02
#       6
#     8   8   4   8   4   8
#     4  12  26  42  67 107 146 172 232 298 366 407
#     4  12  24  43  71 100 137 185 234 287 352 419
#     4  12  22  45  68  97 128 180 244 282 328 429
#     4  12  23  45  70 100 139 192 229 281 349 446
#     4  12  24  45  72  93 134 180 244 280 338 425
#     4  12  24  44  68 101 135 187 230 293 348 422
#
# _framework density 23.545573000000001
#
# number of rings (size 3 to 8) (size 9 to 14) (size 15 to 20)
#    0.000    0.000    4.000    7.200    0.000    0.800 
#    0.000    2.000    0.000    0.000    0.000    0.000 
#    0.000    0.000    0.000    0.000    0.000    0.000 
#
# Total GULP energy -223695.007204 kJ/mol
# GULP energy per Si atom -5592.375180 kJ/mol
# Density = 2.349198 g / cm^3
# Si number density = 23.545573 Si / 1000 Ang^3
#
#
#
# Elastic Constant Matrix: (Units=GPa)
#
#
# Indices 1 2 3 4 5 6 
#
# 1 116.6050 8.5351 23.1146 0.0000 0.0000 0.0000
# 2 8.5351 71.9504 5.4299 0.0000 0.0000 0.0000
# 3 23.1146 5.4299 120.2064 0.0000 0.0000 0.0000
# 4 0.0000 0.0000 0.0000 25.0227 0.0000 0.0000
# 5 0.0000 0.0000 0.0000 0.0000 31.5392 0.0000
# 6 0.0000 0.0000 0.0000 0.0000 0.0000 21.9764
#
#
#
# Elastic Compliance Matrix: (Units=1/GPa)
#
#
# Indices 1 2 3 4 5 6 
#
# 1 0.008978 -0.000938 -0.001684 0.000000 0.000000 0.000000
# 2 -0.000938 0.014044 -0.000454 0.000000 0.000000 0.000000
# 3 -0.001684 -0.000454 0.008663 0.000000 0.000000 0.000000
# 4 0.000000 0.000000 0.000000 0.039964 0.000000 0.000000
# 5 0.000000 0.000000 0.000000 0.000000 0.031707 0.000000
# 6 0.000000 0.000000 0.000000 0.000000 0.000000 0.045503
#
#
# Mechanical properties :
#
#
# Convention : Reuss Voigt Hill
#
# Bulk Modulus (GPa) = 39.16408 42.54680 40.85544
# Shear Modulus (GPa) = 30.57676 33.81981 32.19828
#
# Velocity S-wave (km/s) = 3.60755 3.79404 3.70197
# Velocity P-wave (km/s) = 5.83283 6.10755 5.97177
#
# Compressibility (1/GPa) = 0.02553360
#
# Stress axis : x y z
#
# Youngs Moduli (GPa) = 111.37769 71.20485 115.42852
#
# Poissons Ratio (x) = 0.06679 0.19439
# Poissons Ratio (y) = 0.10447 0.05241
# Poissons Ratio (z) = 0.18757 0.03233
#
# Static dielectric constant tensor:
#      x y z
#    x 1.849220 0.000000 0.000000 
#    y 0.000000 1.881860 0.000000 
#    z 0.000000 0.000000 1.969660 
# 
# From -- ./inp_files/21540.got.cif
#   From: 2010.05.17/outbox.cif.g08.bks.cpg/sg60_11_cif.got.tgz:21540.got - 2010.06.03 14:59:27.
