data_PCOD9458659
_publ_section_title
;
Structure prediction by ZEFSAII (Michael W. Deem and Ramdas Pophale) SiO2 
 PCOD9458659
Probable space group: P B C N
;
_chemical_formula_sum "Si O2"
_cell_formula_units_Z 56
_cell_length_a 4.963693
_cell_length_b 33.471637
_cell_length_c 14.456464
_cell_angle_alpha 90.000000
_cell_angle_beta 90.000000
_cell_angle_gamma 90.000000
_cell_volume 2401.839290
_symmetry_space_group_name_H-M "P B C N"
_symmetry_group_IT_number 60
_symmetry_cell_setting 'orthorhombic'
loop_
_space_group_symop_operation_xyz
x,y,z
1/2-x,1/2-y,1/2+z
1/2+x,1/2-y,-z
-x,y,1/2-z
-x,-y,-z
1/2+x,1/2+y,1/2-z
1/2-x,1/2+y,z
x,-y,1/2+z
loop_
_atom_site_type_symbol
_atom_site_label
_atom_site_fract_x
_atom_site_fract_y
_atom_site_fract_z
Si Si1 0.982551 0.478243 0.401744
Si Si2 0.999884 0.103651 0.436410
Si Si3 0.992929 0.640216 0.973441
Si Si4 0.000000 0.292101 0.750000
Si Si5 0.761821 0.596650 0.681363
Si Si6 0.000000 0.150284 0.250000
Si Si7 0.991731 0.729669 0.042771
Si Si8 0.530519 0.522087 0.151243
O O1 0.155192 0.437237 0.395757
O O2 0.170126 0.506295 0.341293
O O3 0.000000 0.500000 0.500000
O O4 0.677320 0.485501 0.366967
O O5 0.705091 0.120475 0.456481
O O6 0.209908 0.116514 0.516769
O O7 0.081407 0.124456 0.339782
O O8 0.002150 0.056181 0.424721
O O9 0.147559 0.636373 0.874802
O O10 0.936516 0.684952 0.006415
O O11 0.748066 0.320615 0.771503
O O12 0.951648 0.268518 0.653803
O O13 0.500000 0.597846 0.750000
O O14 0.000000 0.586566 0.750000
O O15 0.791945 0.758908 0.988037
O O16 0.500000 0.542168 0.250000
#
# Coordination Sequence:
#
# PCOD9458659 Si02
#       8
#     8   8   8   4   8   4   8   8
#     4  12  25  43  64  94 131 183 238 297 360 409
#     4  12  22  41  68 107 141 180 227 294 365 424
#     4  12  26  47  73 101 141 182 244 295 355 441
#     4  12  24  46  76 108 144 195 230 287 382 438
#     4  12  26  48  72  96 139 199 251 299 366 440
#     4  12  20  40  70 104 144 181 226 287 356 454
#     4  12  26  48  75 110 149 187 235 300 363 444
#     4  12  24  38  62  98 135 170 223 286 350 415
#
# _framework density 23.315463999999999
#
# number of rings (size 3 to 8) (size 9 to 14) (size 15 to 20)
#    0.000    0.000    3.571    8.143    0.000    0.000 
#    3.857    0.000    0.000    0.000    0.000    0.000 
#    0.000    0.000    0.000    0.000    0.000    0.000 
#
# Total GULP energy -312599.898986 kJ/mol
# GULP energy per Si atom -5582.141053 kJ/mol
# Density = 2.326240 g / cm^3
# Si number density = 23.315464 Si / 1000 Ang^3
#
#
#
# Elastic Constant Matrix: (Units=GPa)
#
#
# Indices 1 2 3 4 5 6 
#
# 1 111.9766 -1.6330 2.0925 0.0000 0.0000 0.0000
# 2 -1.6330 57.5495 16.7359 0.0000 0.0000 0.0000
# 3 2.0925 16.7359 120.9860 0.0000 0.0000 0.0000
# 4 0.0000 0.0000 0.0000 33.6218 0.0000 0.0000
# 5 0.0000 0.0000 0.0000 0.0000 38.3739 0.0000
# 6 0.0000 0.0000 0.0000 0.0000 0.0000 24.7285
#
#
#
# Elastic Compliance Matrix: (Units=1/GPa)
#
#
# Indices 1 2 3 4 5 6 
#
# 1 0.008939 0.000311 -0.000198 0.000000 0.000000 0.000000
# 2 0.000311 0.018115 -0.002511 0.000000 0.000000 0.000000
# 3 -0.000198 -0.002511 0.008616 0.000000 0.000000 0.000000
# 4 0.000000 0.000000 0.000000 0.029743 0.000000 0.000000
# 5 0.000000 0.000000 0.000000 0.000000 0.026059 0.000000
# 6 0.000000 0.000000 0.000000 0.000000 0.000000 0.040439
#
#
# Mechanical properties :
#
#
# Convention : Reuss Voigt Hill
#
# Bulk Modulus (GPa) = 32.38890 36.10030 34.24460
# Shear Modulus (GPa) = 34.01392 37.56597 35.78995
#
# Velocity S-wave (km/s) = 3.82364 4.01834 3.92220
# Velocity P-wave (km/s) = 5.78061 6.08657 5.93556
#
# Compressibility (1/GPa) = 0.03087477
#
# Stress axis : x y z
#
# Youngs Moduli (GPa) = 111.87348 55.20147 116.06015
#
# Poissons Ratio (x) = -0.01717 0.02294
# Poissons Ratio (y) = -0.03481 0.29146
# Poissons Ratio (z) = 0.02211 0.13863
#
# Static dielectric constant tensor:
#      x y z
#    x 1.297640 0.000000 0.000000 
#    y 0.000000 1.912430 0.000000 
#    z 0.000000 0.000000 2.102590 
# 
# From -- ./inp_files/14150.got.cif
#   From: 2010.05.17/outbox.cif.g08.bks.cpg/sg60_8_cif.got.tgz:14150.got - 2010.06.03 14:59:27.
