data_PCOD9458499
_publ_section_title
;
Structure prediction by ZEFSAII (Michael W. Deem and Ramdas Pophale) SiO2 
 PCOD9458499
Probable space group: P B C N
;
_chemical_formula_sum "Si O2"
_cell_formula_units_Z 40
_cell_length_a 6.859400
_cell_length_b 10.520250
_cell_length_c 26.436906
_cell_angle_alpha 90.000000
_cell_angle_beta 90.000000
_cell_angle_gamma 90.000000
_cell_volume 1907.755948
_symmetry_space_group_name_H-M "P B C N"
_symmetry_group_IT_number 60
_symmetry_cell_setting 'orthorhombic'
loop_
_space_group_symop_operation_xyz
x,y,z
1/2-x,1/2-y,1/2+z
1/2+x,1/2-y,-z
-x,y,1/2-z
-x,-y,-z
1/2+x,1/2+y,1/2-z
1/2-x,1/2+y,z
x,-y,1/2+z
loop_
_atom_site_type_symbol
_atom_site_label
_atom_site_fract_x
_atom_site_fract_y
_atom_site_fract_z
Si Si1 0.854921 0.099989 0.477840
Si Si2 0.820062 0.822929 0.145489
Si Si3 0.040517 0.341832 0.449930
Si Si4 0.784527 0.028059 0.881249
Si Si5 0.055615 0.449576 0.808683
O O1 0.663259 0.078123 0.510109
O O2 0.946070 0.236587 0.485811
O O3 0.849448 0.086713 0.417398
O O4 0.000000 0.000000 0.500000
O O5 0.699538 0.803130 0.093226
O O6 0.697261 0.930502 0.177020
O O7 0.853274 0.685251 0.172002
O O8 0.031339 0.886821 0.134444
O O9 0.862979 0.399254 0.418595
O O10 0.649289 0.976504 0.836829
O O11 0.000000 0.443014 0.750000
#
# Coordination Sequence:
#
# PCOD9458499 Si02
#       5
#     8   8   8   8   8
#     4  12  23  40  66  99 142 192 230 286 348 426
#     4  11  25  50  72 107 144 186 239 298 367 431
#     4  11  25  40  65 102 141 185 239 285 350 426
#     4  11  24  45  70 100 140 189 235 297 356 426
#     4  11  28  47  76 105 140 186 242 303 364 432
#
# _framework density 20.967043
#
# number of rings (size 3 to 8) (size 9 to 14) (size 15 to 20)
#    0.000    0.800    2.000    4.200    8.400    1.600 
#    0.000    0.000    0.000    0.000    0.000    0.000 
#    0.000    0.000    0.000    0.000    0.000    0.000 
#
# Total GULP energy -223263.070895 kJ/mol
# GULP energy per Si atom -5581.576772 kJ/mol
# Density = 2.091932 g / cm^3
# Si number density = 20.967043 Si / 1000 Ang^3
#
#
#
# Elastic Constant Matrix: (Units=GPa)
#
#
# Indices 1 2 3 4 5 6 
#
# 1 141.4358 51.6394 49.1277 0.0000 0.0000 0.0000
# 2 51.6394 75.6358 35.1134 0.0000 0.0000 0.0000
# 3 49.1277 35.1134 119.8167 0.0000 0.0000 0.0000
# 4 0.0000 0.0000 0.0000 28.0808 0.0000 0.0000
# 5 0.0000 0.0000 0.0000 0.0000 26.6129 0.0000
# 6 0.0000 0.0000 0.0000 0.0000 0.0000 43.0018
#
#
#
# Elastic Compliance Matrix: (Units=1/GPa)
#
#
# Indices 1 2 3 4 5 6 
#
# 1 0.009993 -0.005695 -0.002428 0.000000 0.000000 0.000000
# 2 -0.005695 0.018549 -0.003101 0.000000 0.000000 0.000000
# 3 -0.002428 -0.003101 0.010250 0.000000 0.000000 0.000000
# 4 0.000000 0.000000 0.000000 0.035611 0.000000 0.000000
# 5 0.000000 0.000000 0.000000 0.000000 0.037576 0.000000
# 6 0.000000 0.000000 0.000000 0.000000 0.000000 0.023255
#
#
# Mechanical properties :
#
#
# Convention : Reuss Voigt Hill
#
# Bulk Modulus (GPa) = 61.18510 67.62771 64.40641
# Shear Modulus (GPa) = 30.64998 32.93963 31.79481
#
# Velocity S-wave (km/s) = 3.82752 3.96791 3.89835
# Velocity P-wave (km/s) = 6.98413 7.30183 7.14475
#
# Compressibility (1/GPa) = 0.01634385
#
# Stress axis : x y z
#
# Youngs Moduli (GPa) = 100.06708 53.91047 97.55636
#
# Poissons Ratio (x) = 0.30704 0.23690
# Poissons Ratio (y) = 0.56993 0.30250
# Poissons Ratio (z) = 0.24300 0.16716
#
# Static dielectric constant tensor:
#      x y z
#    x 1.631220 0.000000 0.000000 
#    y 0.000000 1.828090 0.000000 
#    z 0.000000 0.000000 1.802740 
# 
# From -- ./inp_files/24722.got.cif
#   From: 2010.05.17/outbox.cif.g08.bks.cpg/sg60_13_cif.got.tgz:24722.got - 2010.06.03 14:59:27.
