data_PCOD9458975
_publ_section_title
;
Structure prediction by ZEFSAII (Michael W. Deem and Ramdas Pophale) SiO2 
 PCOD9458975
Probable space group: P B C A
;
_chemical_formula_sum "Si O2"
_cell_formula_units_Z 64
_cell_length_a 18.752116
_cell_length_b 32.245192
_cell_length_c 5.630549
_cell_angle_alpha 90.000000
_cell_angle_beta 90.000000
_cell_angle_gamma 90.000000
_cell_volume 3404.599181
_symmetry_space_group_name_H-M "P B C A"
_symmetry_group_IT_number 61
_symmetry_cell_setting 'orthorhombic'
loop_
_space_group_symop_operation_xyz
x,y,z
1/2-x,-y,1/2+z
1/2+x,1/2-y,-z
-x,1/2+y,1/2-z
-x,-y,-z
1/2+x,y,1/2-z
1/2-x,1/2+y,z
x,1/2-y,1/2+z
loop_
_atom_site_type_symbol
_atom_site_label
_atom_site_fract_x
_atom_site_fract_y
_atom_site_fract_z
Si Si1 0.563261 0.978080 0.214771
Si Si2 0.060932 0.442841 0.472028
Si Si3 0.370392 0.860007 0.608949
Si Si4 0.792335 0.052916 0.963361
Si Si5 0.843362 0.501913 0.823419
Si Si6 0.248348 0.767787 0.097562
Si Si7 0.587025 0.235169 0.396542
Si Si8 0.782795 0.638212 0.892180
O O1 0.503998 0.944729 0.285335
O O2 0.640735 0.962316 0.308045
O O3 0.544540 0.021731 0.337603
O O4 0.583170 0.991445 0.952515
O O5 0.075504 0.398267 0.580966
O O6 0.133225 0.461738 0.358359
O O7 0.404361 0.814305 0.609836
O O8 0.330187 0.864721 0.864034
O O9 0.323758 0.862140 0.363198
O O10 0.723582 0.022788 0.949575
O O11 0.769037 0.098903 0.904543
O O12 0.819121 0.042503 0.225896
O O13 0.219378 0.749649 0.848418
O O14 0.332825 0.755137 0.099636
O O15 0.244891 0.817283 0.094573
O O16 0.553775 0.250793 0.148106
#
# Coordination Sequence:
#
# PCOD9458975 Si02
#       8
#     8   8   8   8   8   8   8   8
#     4  10  22  42  54  75 113 151 192 237 292 338
#     4  10  23  37  58  79 106 152 195 238 284 343
#     4  12  21  33  54  85 114 143 189 231 280 340
#     4  11  23  32  54  81 109 148 190 236 283 334
#     4  11  20  37  56  76 108 149 191 236 283 337
#     4  10  16  31  48  74 114 145 172 222 295 334
#     4  10  16  30  48  75 114 142 170 225 291 330
#     4  12  22  32  54  84 118 143 185 237 284 340
#
# _framework density 18.798103000000001
#
# number of rings (size 3 to 8) (size 9 to 14) (size 15 to 20)
#    0.000    1.250    7.500    1.125    3.500    0.000 
#    0.000    0.000    0.000    0.000    0.000    1.750 
#    0.000    0.000    0.000    0.000    0.000    0.000 
#
# Total GULP energy -356282.514032 kJ/mol
# GULP energy per Si atom -5566.914282 kJ/mol
# Density = 1.875532 g / cm^3
# Si number density = 18.798103 Si / 1000 Ang^3
#
#
#
# Elastic Constant Matrix: (Units=GPa)
#
#
# Indices 1 2 3 4 5 6 
#
# 1 41.9979 19.9344 20.0704 0.0000 0.0000 0.0000
# 2 19.9344 121.9582 19.1583 0.0000 0.0000 0.0000
# 3 20.0704 19.1583 112.3723 0.0000 0.0000 0.0000
# 4 0.0000 0.0000 0.0000 20.3980 0.0000 0.0000
# 5 0.0000 0.0000 0.0000 0.0000 26.1307 0.0000
# 6 0.0000 0.0000 0.0000 0.0000 0.0000 13.7210
#
#
#
# Elastic Compliance Matrix: (Units=1/GPa)
#
#
# Indices 1 2 3 4 5 6 
#
# 1 0.027689 -0.003852 -0.004289 0.000000 0.000000 0.000000
# 2 -0.003852 0.008961 -0.000840 0.000000 0.000000 0.000000
# 3 -0.004289 -0.000840 0.009808 0.000000 0.000000 0.000000
# 4 0.000000 0.000000 0.000000 0.049024 0.000000 0.000000
# 5 0.000000 0.000000 0.000000 0.000000 0.038269 0.000000
# 6 0.000000 0.000000 0.000000 0.000000 0.000000 0.072881
#
#
# Mechanical properties :
#
#
# Convention : Reuss Voigt Hill
#
# Bulk Modulus (GPa) = 35.09154 43.85050 39.47102
# Shear Modulus (GPa) = 21.35911 26.52764 23.94338
#
# Velocity S-wave (km/s) = 3.37447 3.76065 3.57278
# Velocity P-wave (km/s) = 5.82158 6.49880 6.16949
#
# Compressibility (1/GPa) = 0.02849690
#
# Stress axis : x y z
#
# Youngs Moduli (GPa) = 36.11590 111.59373 101.95611
#
# Poissons Ratio (x) = 0.42987 0.43725
# Poissons Ratio (y) = 0.13912 0.08562
# Poissons Ratio (z) = 0.15489 0.09371
#
# Static dielectric constant tensor:
#      x y z
#    x 1.681800 0.000000 0.000000 
#    y 0.000000 1.614140 0.000000 
#    z 0.000000 0.000000 1.852990 
# 
# From -- ./inp_files/857.got.cif
#   From: 2010.05.17/outbox.cif.g08.bks.cpg/sg61_1_cif.got.tgz:857.got - 2010.06.03 15:17:17.
