data_PCOD9458816
_publ_section_title
;
Structure prediction by ZEFSAII (Michael W. Deem and Ramdas Pophale) SiO2 
 PCOD9458816
Probable space group: P B C N
;
_chemical_formula_sum "Si O2"
_cell_formula_units_Z 20
_cell_length_a 4.928833
_cell_length_b 13.555735
_cell_length_c 12.105745
_cell_angle_alpha 90.000000
_cell_angle_beta 90.000000
_cell_angle_gamma 90.000000
_cell_volume 808.832690
_symmetry_space_group_name_H-M "P B C N"
_symmetry_group_IT_number 60
_symmetry_cell_setting 'orthorhombic'
loop_
_space_group_symop_operation_xyz
x,y,z
1/2-x,1/2-y,1/2+z
1/2+x,1/2-y,-z
-x,y,1/2-z
-x,-y,-z
1/2+x,1/2+y,1/2-z
1/2-x,1/2+y,z
x,-y,1/2+z
loop_
_atom_site_type_symbol
_atom_site_label
_atom_site_fract_x
_atom_site_fract_y
_atom_site_fract_z
Si Si1 0.468405 0.265564 0.929726
Si Si2 0.000000 0.386796 0.250000
Si Si3 0.254423 0.476696 0.919841
O O1 0.598675 0.189620 0.842907
O O2 0.317269 0.363296 0.885813
O O3 0.721661 0.289926 0.008323
O O4 0.211547 0.457819 0.311066
O O5 0.500000 0.500000 0.000000
O O6 0.000000 0.500000 0.000000
#
# Coordination Sequence:
#
# PCOD9458816 Si02
#       3
#     8   4   8
#     4  12  26  50  79 118 166 214 279 343 413 512
#     4  12  28  50  88 114 166 228 266 348 446 476
#     4  12  26  50  79 119 166 214 279 347 417 510
#
# _framework density 24.726994999999999
#
# number of rings (size 3 to 8) (size 9 to 14) (size 15 to 20)
#    0.000    0.000    8.000    0.000    0.000   12.800 
#    0.000    0.000    0.000    0.000    0.000    0.000 
#    0.000    0.000    0.000    0.000    0.000    0.000 
#
# Total GULP energy -111812.100547 kJ/mol
# GULP energy per Si atom -5590.605027 kJ/mol
# Density = 2.467072 g / cm^3
# Si number density = 24.726995 Si / 1000 Ang^3
#
#
#
# Elastic Constant Matrix: (Units=GPa)
#
#
# Indices 1 2 3 4 5 6 
#
# 1 173.1122 36.8374 64.3854 0.0000 0.0000 0.0000
# 2 36.8374 198.3421 86.6002 0.0000 0.0000 0.0000
# 3 64.3854 86.6002 121.8170 0.0000 0.0000 0.0000
# 4 0.0000 0.0000 0.0000 55.1509 0.0000 0.0000
# 5 0.0000 0.0000 0.0000 0.0000 39.5560 0.0000
# 6 0.0000 0.0000 0.0000 0.0000 0.0000 25.7834
#
#
#
# Elastic Compliance Matrix: (Units=1/GPa)
#
#
# Indices 1 2 3 4 5 6 
#
# 1 0.007220 0.000472 -0.004152 0.000000 0.000000 0.000000
# 2 0.000472 0.007342 -0.005469 0.000000 0.000000 0.000000
# 3 -0.004152 -0.005469 0.014291 0.000000 0.000000 0.000000
# 4 0.000000 0.000000 0.000000 0.018132 0.000000 0.000000
# 5 0.000000 0.000000 0.000000 0.000000 0.025281 0.000000
# 6 0.000000 0.000000 0.000000 0.000000 0.000000 0.038785
#
#
# Mechanical properties :
#
#
# Convention : Reuss Voigt Hill
#
# Bulk Modulus (GPa) = 94.73203 96.54637 95.63920
# Shear Modulus (GPa) = 37.63177 44.46129 41.04653
#
# Velocity S-wave (km/s) = 3.90537 4.24499 4.07872
# Velocity P-wave (km/s) = 7.66357 7.94709 7.80662
#
# Compressibility (1/GPa) = 0.01055609
#
# Stress axis : x y z
#
# Youngs Moduli (GPa) = 138.49827 136.20370 69.97406
#
# Poissons Ratio (x) = -0.06424 0.29050
# Poissons Ratio (y) = -0.06532 0.38267
# Poissons Ratio (z) = 0.57498 0.74486
#
# Static dielectric constant tensor:
#      x y z
#    x 1.874200 0.000000 0.000000 
#    y 0.000000 2.056140 0.000000 
#    z 0.000000 0.000000 2.024220 
# 
# From -- ./inp_files/8609.got.cif
#   From: 2010.05.17/outbox.cif.g08.bks.cpg/sg60_5_cif.got.tgz:8609.got - 2010.06.03 14:59:27.
