data_PCOD9458097
_publ_section_title
;
Structure prediction by ZEFSAII (Michael W. Deem and Ramdas Pophale) SiO2 
 PCOD9458097
Probable space group: P B C N
;
_chemical_formula_sum "Si O2"
_cell_formula_units_Z 40
_cell_length_a 12.328508
_cell_length_b 9.277129
_cell_length_c 16.836535
_cell_angle_alpha 90.000000
_cell_angle_beta 90.000000
_cell_angle_gamma 90.000000
_cell_volume 1925.647696
_symmetry_space_group_name_H-M "P B C N"
_symmetry_group_IT_number 60
_symmetry_cell_setting 'orthorhombic'
loop_
_space_group_symop_operation_xyz
x,y,z
1/2-x,1/2-y,1/2+z
1/2+x,1/2-y,-z
-x,y,1/2-z
-x,-y,-z
1/2+x,1/2+y,1/2-z
1/2-x,1/2+y,z
x,-y,1/2+z
loop_
_atom_site_type_symbol
_atom_site_label
_atom_site_fract_x
_atom_site_fract_y
_atom_site_fract_z
Si Si1 0.817366 0.519775 0.408063
Si Si2 0.265578 0.750111 0.183842
Si Si3 0.465552 0.765120 0.075521
Si Si4 0.160488 0.882202 0.450713
Si Si5 0.308634 0.328920 0.864232
O O1 0.831233 0.668455 0.361466
O O2 0.760604 0.416679 0.341805
O O3 0.921060 0.427788 0.434458
O O4 0.740957 0.552565 0.482375
O O5 0.379097 0.705408 0.140552
O O6 0.276217 0.708560 0.274687
O O7 0.584746 0.758771 0.109359
O O8 0.447581 0.668027 0.997157
O O9 0.213008 0.735372 0.418186
O O10 0.160908 0.005336 0.383569
#
# Coordination Sequence:
#
# PCOD9458097 Si02
#       5
#     8   8   8   8   8
#     4   9  18  38  55  78 116 152 183 222 291 344
#     4   9  19  35  57  84 107 152 188 226 286 334
#     4   9  21  37  58  81 113 157 184 228 294 346
#     4  11  21  37  57  87 115 151 190 237 288 336
#     4  12  21  36  60  86 116 143 200 242 277 334
#
# _framework density 20.772231999999999
#
# number of rings (size 3 to 8) (size 9 to 14) (size 15 to 20)
#    1.200    0.800    2.000    2.400    0.000    0.800 
#    0.000    0.000    0.000    0.000   10.400    0.000 
#    0.000    0.000    0.000    0.000    0.000    0.000 
#
# Total GULP energy -222673.374456 kJ/mol
# GULP energy per Si atom -5566.834361 kJ/mol
# Density = 2.072495 g / cm^3
# Si number density = 20.772232 Si / 1000 Ang^3
#
#
#
# Elastic Constant Matrix: (Units=GPa)
#
#
# Indices 1 2 3 4 5 6 
#
# 1 20.8845 -3.8000 2.7006 0.0000 0.0000 0.0000
# 2 -3.8000 32.1156 3.5559 0.0000 0.0000 0.0000
# 3 2.7006 3.5559 94.7947 0.0000 0.0000 0.0000
# 4 0.0000 0.0000 0.0000 28.0678 0.0000 0.0000
# 5 0.0000 0.0000 0.0000 0.0000 12.5076 0.0000
# 6 0.0000 0.0000 0.0000 0.0000 0.0000 17.0545
#
#
#
# Elastic Compliance Matrix: (Units=1/GPa)
#
#
# Indices 1 2 3 4 5 6 
#
# 1 0.049184 0.006000 -0.001626 0.000000 0.000000 0.000000
# 2 0.006000 0.031999 -0.001371 0.000000 0.000000 0.000000
# 3 -0.001626 -0.001371 0.010647 0.000000 0.000000 0.000000
# 4 0.000000 0.000000 0.000000 0.035628 0.000000 0.000000
# 5 0.000000 0.000000 0.000000 0.000000 0.079951 0.000000
# 6 0.000000 0.000000 0.000000 0.000000 0.000000 0.058635
#
#
# Mechanical properties :
#
#
# Convention : Reuss Voigt Hill
#
# Bulk Modulus (GPa) = 10.22130 16.96754 13.59442
# Shear Modulus (GPa) = 17.08512 21.21522 19.15017
#
# Velocity S-wave (km/s) = 2.87103 3.19929 3.03959
# Velocity P-wave (km/s) = 3.99021 4.67262 4.34483
#
# Compressibility (1/GPa) = 0.09783487
#
# Stress axis : x y z
#
# Youngs Moduli (GPa) = 20.33166 31.25072 93.92418
#
# Poissons Ratio (x) = -0.18750 0.15275
# Poissons Ratio (y) = -0.12198 0.12880
# Poissons Ratio (z) = 0.03307 0.04285
#
# Static dielectric constant tensor:
#      x y z
#    x 1.714810 0.000000 0.000000 
#    y 0.000000 1.799240 0.000000 
#    z 0.000000 0.000000 1.743990 
# 
# From -- ./inp_files/16596.got.cif
#   From: 2010.05.17/outbox.cif.g08.bks.cpg/sg60_9_cif.got.tgz:16596.got - 2010.06.03 14:59:27.
