data_PCOD9458070
_publ_section_title
;
Structure prediction by ZEFSAII (Michael W. Deem and Ramdas Pophale) SiO2 
 PCOD9458070
Probable space group: P B C N
;
_chemical_formula_sum "Si O2"
_cell_formula_units_Z 64
_cell_length_a 14.465381
_cell_length_b 11.557338
_cell_length_c 18.037027
_cell_angle_alpha 90.000000
_cell_angle_beta 90.000000
_cell_angle_gamma 90.000000
_cell_volume 3015.453577
_symmetry_space_group_name_H-M "P B C N"
_symmetry_group_IT_number 60
_symmetry_cell_setting 'orthorhombic'
loop_
_space_group_symop_operation_xyz
x,y,z
1/2-x,1/2-y,1/2+z
1/2+x,1/2-y,-z
-x,y,1/2-z
-x,-y,-z
1/2+x,1/2+y,1/2-z
1/2-x,1/2+y,z
x,-y,1/2+z
loop_
_atom_site_type_symbol
_atom_site_label
_atom_site_fract_x
_atom_site_fract_y
_atom_site_fract_z
Si Si1 0.187946 0.634755 0.368225
Si Si2 0.771990 0.263331 0.259985
Si Si3 0.920611 0.573179 0.687879
Si Si4 0.930488 0.128489 0.313328
Si Si5 0.531845 0.258892 0.563930
Si Si6 0.380263 0.611252 0.650620
Si Si7 0.427684 0.332301 0.430090
Si Si8 0.674205 0.563633 0.011617
O O1 0.258363 0.663044 0.301356
O O2 0.106334 0.554151 0.338602
O O3 0.150618 0.761703 0.388163
O O4 0.234695 0.570168 0.437931
O O5 0.827477 0.368277 0.221427
O O6 0.843873 0.212255 0.319100
O O7 0.678523 0.298773 0.301464
O O8 0.952407 0.651884 0.618159
O O9 0.000000 0.570307 0.750000
O O10 0.000000 0.169529 0.250000
O O11 0.988328 0.137681 0.387540
O O12 0.897850 0.999938 0.298569
O O13 0.462158 0.247369 0.495949
O O14 0.624796 0.314653 0.532338
O O15 0.480904 0.647931 0.619822
O O16 0.322605 0.568278 0.577780
O O17 0.386230 0.452052 0.462861
#
# Coordination Sequence:
#
# PCOD9458070 Si02
#       8
#     8   8   8   8   8   8   8   8
#     4  12  28  42  67 101 142 183 220 287 349 415
#     4  12  25  43  65 104 135 183 231 281 343 411
#     4  12  25  45  68  95 142 183 224 280 349 419
#     4  12  21  41  72  97 130 183 228 280 345 413
#     4  11  20  45  71  93 127 178 232 274 339 410
#     4  11  26  41  71 104 135 173 236 294 333 408
#     4  11  25  45  71  99 136 178 233 287 348 411
#     4  11  22  45  71 101 132 174 239 289 338 402
#
# _framework density 21.224004000000001
#
# number of rings (size 3 to 8) (size 9 to 14) (size 15 to 20)
#    0.000    0.500    6.250    2.250    5.250    0.500 
#    2.250    0.000    0.000    0.000    0.000    0.000 
#    0.000    0.000    0.000    0.000    0.000    0.000 
#
# Total GULP energy -357402.241904 kJ/mol
# GULP energy per Si atom -5584.410030 kJ/mol
# Density = 2.117570 g / cm^3
# Si number density = 21.224004 Si / 1000 Ang^3
#
#
#
# Elastic Constant Matrix: (Units=GPa)
#
#
# Indices 1 2 3 4 5 6 
#
# 1 60.4544 5.2569 18.5471 0.0000 0.0000 0.0000
# 2 5.2569 49.4525 4.8472 0.0000 0.0000 0.0000
# 3 18.5471 4.8472 47.4590 0.0000 0.0000 0.0000
# 4 0.0000 0.0000 0.0000 21.2519 0.0000 0.0000
# 5 0.0000 0.0000 0.0000 0.0000 29.0770 0.0000
# 6 0.0000 0.0000 0.0000 0.0000 0.0000 29.6906
#
#
#
# Elastic Compliance Matrix: (Units=1/GPa)
#
#
# Indices 1 2 3 4 5 6 
#
# 1 0.018877 -0.001297 -0.007245 0.000000 0.000000 0.000000
# 2 -0.001297 0.020515 -0.001589 0.000000 0.000000 0.000000
# 3 -0.007245 -0.001589 0.024064 0.000000 0.000000 0.000000
# 4 0.000000 0.000000 0.000000 0.047055 0.000000 0.000000
# 5 0.000000 0.000000 0.000000 0.000000 0.034391 0.000000
# 6 0.000000 0.000000 0.000000 0.000000 0.000000 0.033681
#
#
# Mechanical properties :
#
#
# Convention : Reuss Voigt Hill
#
# Bulk Modulus (GPa) = 23.15007 23.85204 23.50106
# Shear Modulus (GPa) = 23.44762 24.58487 24.01625
#
# Velocity S-wave (km/s) = 3.32741 3.40715 3.36752
# Velocity P-wave (km/s) = 5.06887 5.17116 5.12027
#
# Compressibility (1/GPa) = 0.04319642
#
# Stress axis : x y z
#
# Youngs Moduli (GPa) = 52.97515 48.74492 41.55529
#
# Poissons Ratio (x) = 0.06320 0.30105
# Poissons Ratio (y) = 0.06869 0.06601
# Poissons Ratio (z) = 0.38379 0.07744
#
# Static dielectric constant tensor:
#      x y z
#    x 1.790940 0.000000 0.000000 
#    y 0.000000 1.727060 0.000000 
#    z 0.000000 0.000000 1.822220 
# 
# From -- ./inp_files/20653.got.cif
#   From: 2010.05.17/outbox.cif.g08.bks.cpg/sg60_11_cif.got.tgz:20653.got - 2010.06.03 14:59:27.
