data_PCOD9458815
_publ_section_title
;
Structure prediction by ZEFSAII (Michael W. Deem and Ramdas Pophale) SiO2 
 PCOD9458815
Probable space group: P B C N
;
_chemical_formula_sum "Si O2"
_cell_formula_units_Z 28
_cell_length_a 4.862614
_cell_length_b 13.975091
_cell_length_c 15.625671
_cell_angle_alpha 90.000000
_cell_angle_beta 90.000000
_cell_angle_gamma 90.000000
_cell_volume 1061.849866
_symmetry_space_group_name_H-M "P B C N"
_symmetry_group_IT_number 60
_symmetry_cell_setting 'orthorhombic'
loop_
_space_group_symop_operation_xyz
x,y,z
1/2-x,1/2-y,1/2+z
1/2+x,1/2-y,-z
-x,y,1/2-z
-x,-y,-z
1/2+x,1/2+y,1/2-z
1/2-x,1/2+y,z
x,-y,1/2+z
loop_
_atom_site_type_symbol
_atom_site_label
_atom_site_fract_x
_atom_site_fract_y
_atom_site_fract_z
Si Si1 0.104279 0.393736 0.014073
Si Si2 0.500000 0.447914 0.750000
Si Si3 0.386604 0.619915 0.873569
Si Si4 0.118518 0.681334 0.162096
O O1 0.909970 0.351021 0.089373
O O2 0.416306 0.399259 0.044858
O O3 0.028653 0.342398 0.926360
O O4 0.000000 0.500000 0.000000
O O5 0.351313 0.528808 0.811252
O O6 0.593380 0.372714 0.825580
O O7 0.559820 0.706433 0.832092
O O8 0.000000 0.636185 0.250000
#
# Coordination Sequence:
#
# PCOD9458815 Si02
#       4
#     8   4   8   8
#     4  12  26  50  79 109 157 205 260 324 400 467
#     4  12  28  48  80 110 160 204 260 330 392 472
#     4  12  28  51  76 113 157 206 260 324 392 480
#     4  12  28  47  78 113 156 204 262 325 399 467
#
# _framework density 26.369077999999998
#
# number of rings (size 3 to 8) (size 9 to 14) (size 15 to 20)
#    0.000    0.000    4.286    4.286    8.000    0.000 
#    0.000    0.000    0.000    0.000    0.000    0.000 
#    0.000    0.000    0.000    0.000    0.000    0.000 
#
# Total GULP energy -156107.821804 kJ/mol
# GULP energy per Si atom -5575.279350 kJ/mol
# Density = 2.630906 g / cm^3
# Si number density = 26.369078 Si / 1000 Ang^3
#
#
#
# Elastic Constant Matrix: (Units=GPa)
#
#
# Indices 1 2 3 4 5 6 
#
# 1 109.0040 17.1232 39.5929 0.0000 0.0000 0.0000
# 2 17.1232 185.4133 35.5627 0.0000 0.0000 0.0000
# 3 39.5929 35.5627 142.4557 0.0000 0.0000 0.0000
# 4 0.0000 0.0000 0.0000 65.7145 0.0000 0.0000
# 5 0.0000 0.0000 0.0000 0.0000 1.9961 0.0000
# 6 0.0000 0.0000 0.0000 0.0000 0.0000 21.3757
#
#
#
# Elastic Compliance Matrix: (Units=1/GPa)
#
#
# Indices 1 2 3 4 5 6 
#
# 1 0.010235 -0.000420 -0.002740 0.000000 0.000000 0.000000
# 2 -0.000420 0.005682 -0.001302 0.000000 0.000000 0.000000
# 3 -0.002740 -0.001302 0.008106 0.000000 0.000000 0.000000
# 4 0.000000 0.000000 0.000000 0.015217 0.000000 0.000000
# 5 0.000000 0.000000 0.000000 0.000000 0.500967 0.000000
# 6 0.000000 0.000000 0.000000 0.000000 0.000000 0.046782
#
#
# Mechanical properties :
#
#
# Convention : Reuss Voigt Hill
#
# Bulk Modulus (GPa) = 66.22342 69.04785 67.63563
# Shear Modulus (GPa) = 8.32022 40.79021 24.55521
#
# Velocity S-wave (km/s) = 1.77824 3.93733 3.05489
# Velocity P-wave (km/s) = 5.42077 6.84924 6.17644
#
# Compressibility (1/GPa) = 0.01510040
#
# Stress axis : x y z
#
# Youngs Moduli (GPa) = 97.70303 176.00070 123.36243
#
# Poissons Ratio (x) = 0.07387 0.33800
# Poissons Ratio (y) = 0.04101 0.16059
# Poissons Ratio (z) = 0.26769 0.22911
#
# Static dielectric constant tensor:
#      x y z
#    x 20.290530 0.000000 0.000000 
#    y 0.000000 2.117040 0.000000 
#    z 0.000000 0.000000 2.416090 
# 
# From -- ./inp_files/18351.got.cif
#   From: 2010.05.17/outbox.cif.g08.bks.cpg/sg60_10_cif.got.tgz:18351.got - 2010.06.03 14:59:27.
