data_PCOD9458762
_publ_section_title
;
Structure prediction by ZEFSAII (Michael W. Deem and Ramdas Pophale) SiO2 
 PCOD9458762
Probable space group: P B C N
;
_chemical_formula_sum "Si O2"
_cell_formula_units_Z 40
_cell_length_a 6.461523
_cell_length_b 22.372159
_cell_length_c 9.769759
_cell_angle_alpha 90.000000
_cell_angle_beta 90.000000
_cell_angle_gamma 90.000000
_cell_volume 1412.298970
_symmetry_space_group_name_H-M "P B C N"
_symmetry_group_IT_number 60
_symmetry_cell_setting 'orthorhombic'
loop_
_space_group_symop_operation_xyz
x,y,z
1/2-x,1/2-y,1/2+z
1/2+x,1/2-y,-z
-x,y,1/2-z
-x,-y,-z
1/2+x,1/2+y,1/2-z
1/2-x,1/2+y,z
x,-y,1/2+z
loop_
_atom_site_type_symbol
_atom_site_label
_atom_site_fract_x
_atom_site_fract_y
_atom_site_fract_z
Si Si1 0.869763 0.115845 0.641420
Si Si2 0.592264 0.840486 0.602882
Si Si3 0.374604 0.459448 0.609132
Si Si4 0.130882 0.428335 0.141983
Si Si5 0.852335 0.268118 0.122099
O O1 0.853158 0.099867 0.477962
O O2 0.629636 0.083757 0.678116
O O3 0.836338 0.186868 0.647444
O O4 0.121323 0.099826 0.673802
O O5 0.500000 0.854774 0.750000
O O6 0.622773 0.897555 0.508281
O O7 0.455059 0.793457 0.515048
O O8 0.797519 0.800864 0.621121
O O9 0.500000 0.453881 0.750000
O O10 0.500000 0.500000 0.500000
O O11 0.174190 0.500555 0.634135
O O12 0.000000 0.281443 0.250000
#
# Coordination Sequence:
#
# PCOD9458762 Si02
#       5
#     8   8   8   8   8
#     4  12  24  49  79 104 151 203 240 310 381 449
#     4  12  27  46  75 114 147 192 258 309 368 457
#     4  12  25  47  75 109 146 193 254 305 377 454
#     4  12  25  51  74 104 153 200 242 311 386 441
#     4  12  26  51  76 109 152 198 245 306 384 446
#
# _framework density 28.322613
#
# number of rings (size 3 to 8) (size 9 to 14) (size 15 to 20)
#    0.000    0.000    8.000    1.800    2.800    2.400 
#    0.000    5.000    0.000    0.000    0.000    0.000 
#    0.000    0.000    0.000    0.000    0.000    0.000 
#
# Total GULP energy -223985.096194 kJ/mol
# GULP energy per Si atom -5599.627405 kJ/mol
# Density = 2.825815 g / cm^3
# Si number density = 28.322613 Si / 1000 Ang^3
#
#
#
# Elastic Constant Matrix: (Units=GPa)
#
#
# Indices 1 2 3 4 5 6 
#
# 1 168.7423 51.9905 102.6021 0.0000 0.0000 0.0000
# 2 51.9905 143.4792 87.9963 0.0000 0.0000 0.0000
# 3 102.6021 87.9963 310.3157 0.0000 0.0000 0.0000
# 4 0.0000 0.0000 0.0000 72.3338 0.0000 0.0000
# 5 0.0000 0.0000 0.0000 0.0000 44.2289 0.0000
# 6 0.0000 0.0000 0.0000 0.0000 0.0000 43.4638
#
#
#
# Elastic Compliance Matrix: (Units=1/GPa)
#
#
# Indices 1 2 3 4 5 6 
#
# 1 0.007669 -0.001481 -0.002116 0.000000 0.000000 0.000000
# 2 -0.001481 0.008723 -0.001984 0.000000 0.000000 0.000000
# 3 -0.002116 -0.001984 0.004485 0.000000 0.000000 0.000000
# 4 0.000000 0.000000 0.000000 0.013825 0.000000 0.000000
# 5 0.000000 0.000000 0.000000 0.000000 0.022610 0.000000
# 6 0.000000 0.000000 0.000000 0.000000 0.000000 0.023008
#
#
# Mechanical properties :
#
#
# Convention : Reuss Voigt Hill
#
# Bulk Modulus (GPa) = 102.93271 123.07946 113.00608
# Shear Modulus (GPa) = 52.78787 57.33518 55.06153
#
# Velocity S-wave (km/s) = 4.32187 4.50417 4.41396
# Velocity P-wave (km/s) = 7.83113 8.40242 8.12180
#
# Compressibility (1/GPa) = 0.00971508
#
# Stress axis : x y z
#
# Youngs Moduli (GPa) = 130.39538 114.63787 222.98729
#
# Poissons Ratio (x) = 0.16983 0.47175
# Poissons Ratio (y) = 0.19317 0.44236
# Poissons Ratio (z) = 0.27586 0.22742
#
# Static dielectric constant tensor:
#      x y z
#    x 2.317960 0.000000 0.000000 
#    y 0.000000 2.036660 0.000000 
#    z 0.000000 0.000000 2.145110 
# 
# From -- ./inp_files/3791.got.cif
#   From: 2010.05.17/outbox.cif.g08.bks.cpg/sg60_2_cif.got.tgz:3791.got - 2010.06.03 14:59:27.
