data_PCOD9458626
_publ_section_title
;
Structure prediction by ZEFSAII (Michael W. Deem and Ramdas Pophale) SiO2 
 PCOD9458626
Probable space group: P B C N
;
_chemical_formula_sum "Si O2"
_cell_formula_units_Z 32
_cell_length_a 14.968571
_cell_length_b 7.524964
_cell_length_c 11.633291
_cell_angle_alpha 90.000000
_cell_angle_beta 90.000000
_cell_angle_gamma 90.000000
_cell_volume 1310.350142
_symmetry_space_group_name_H-M "P B C N"
_symmetry_group_IT_number 60
_symmetry_cell_setting 'orthorhombic'
loop_
_space_group_symop_operation_xyz
x,y,z
1/2-x,1/2-y,1/2+z
1/2+x,1/2-y,-z
-x,y,1/2-z
-x,-y,-z
1/2+x,1/2+y,1/2-z
1/2-x,1/2+y,z
x,-y,1/2+z
loop_
_atom_site_type_symbol
_atom_site_label
_atom_site_fract_x
_atom_site_fract_y
_atom_site_fract_z
Si Si1 0.047794 0.299356 0.138311
Si Si2 0.601069 0.183408 0.272900
Si Si3 0.173915 0.862957 0.445414
Si Si4 0.132361 0.749703 0.979650
O O1 0.094246 0.476673 0.189352
O O2 0.000000 0.211426 0.250000
O O3 0.119831 0.200880 0.058765
O O4 0.961381 0.335791 0.057114
O O5 0.500000 0.239361 0.250000
O O6 0.653806 0.230340 0.159074
O O7 0.634399 0.285924 0.384392
O O8 0.280226 0.866327 0.459373
O O9 0.140974 0.060845 0.418284
#
# Coordination Sequence:
#
# PCOD9458626 Si02
#       4
#     8   8   8   8
#     4  11  27  48  78 108 153 197 251 314 380 443
#     4  11  26  48  79 103 153 197 252 311 379 445
#     4  12  29  47  76 116 153 201 260 309 382 453
#     4  12  28  47  77 111 157 199 256 313 378 450
#
# _framework density 24.420954999999999
#
# number of rings (size 3 to 8) (size 9 to 14) (size 15 to 20)
#    0.000    0.500    2.500    3.000   17.500    0.000 
#    0.000    0.000    0.000    0.000    0.000    0.000 
#    0.000    0.000    0.000    0.000    0.000    0.000 
#
# Total GULP energy -179133.986466 kJ/mol
# GULP energy per Si atom -5597.937077 kJ/mol
# Density = 2.436537 g / cm^3
# Si number density = 24.420955 Si / 1000 Ang^3
#
#
#
# Elastic Constant Matrix: (Units=GPa)
#
#
# Indices 1 2 3 4 5 6 
#
# 1 71.7701 34.5518 -1.7449 0.0000 0.0000 0.0000
# 2 34.5518 111.5156 30.4812 0.0000 0.0000 0.0000
# 3 -1.7449 30.4812 108.8772 0.0000 0.0000 0.0000
# 4 0.0000 0.0000 0.0000 38.5126 0.0000 0.0000
# 5 0.0000 0.0000 0.0000 0.0000 26.8388 0.0000
# 6 0.0000 0.0000 0.0000 0.0000 0.0000-1716.9905
#
#
#
# Elastic Compliance Matrix: (Units=1/GPa)
#
#
# Indices 1 2 3 4 5 6 
#
# 1 0.016717 -0.005688 0.001860 0.000000 0.000000 0.000000
# 2 -0.005688 0.011646 -0.003352 0.000000 0.000000 0.000000
# 3 0.001860 -0.003352 0.010153 0.000000 0.000000 0.000000
# 4 0.000000 0.000000 0.000000 0.025966 0.000000 0.000000
# 5 0.000000 0.000000 0.000000 0.000000 0.037260 0.000000
# 6 0.000000 0.000000 0.000000 0.000000 0.000000 -0.000582
#
#
# Mechanical properties :
#
#
# Convention : Reuss Voigt Hill
#
# Bulk Modulus (GPa) = 41.39572 46.52656 43.96114
# Shear Modulus (GPa) = 40.46321 -315.06950 -137.30314
#
# Velocity S-wave (km/s) = 4.07493 -11.37085 -7.50637
# Velocity P-wave (km/s) = 6.25522 12.38150 7.55559
#
# Compressibility (1/GPa) = 0.02415709
#
# Stress axis : x y z
#
# Youngs Moduli (GPa) = 59.81944 85.86763 98.49531
#
# Poissons Ratio (x) = 0.48842 -0.18324
# Poissons Ratio (y) = 0.34026 0.33011
# Poissons Ratio (z) = -0.11128 0.28779
#
# Static dielectric constant tensor:
#      x y z
#    x 1.871170 0.000000 0.000000 
#    y 0.000000 1.964940 0.000000 
#    z 0.000000 0.000000 1.761460 
# 
# From -- ./inp_files/11573.got.cif
#   From: 2010.05.17/outbox.cif.g08.bks.cpg/sg60_6_cif.got.tgz:11573.got - 2010.06.03 14:59:27.
