data_PCOD9458993
_publ_section_title
;
Structure prediction by ZEFSAII (Michael W. Deem and Ramdas Pophale) SiO2 
 PCOD9458993
Probable space group: P B C A
;
_chemical_formula_sum "Si O2"
_cell_formula_units_Z 64
_cell_length_a 29.251659
_cell_length_b 22.873165
_cell_length_c 5.472684
_cell_angle_alpha 90.000000
_cell_angle_beta 90.000000
_cell_angle_gamma 90.000000
_cell_volume 3661.652590
_symmetry_space_group_name_H-M "P B C A"
_symmetry_group_IT_number 61
_symmetry_cell_setting 'orthorhombic'
loop_
_space_group_symop_operation_xyz
x,y,z
1/2-x,-y,1/2+z
1/2+x,1/2-y,-z
-x,1/2+y,1/2-z
-x,-y,-z
1/2+x,y,1/2-z
1/2-x,1/2+y,z
x,1/2-y,1/2+z
loop_
_atom_site_type_symbol
_atom_site_label
_atom_site_fract_x
_atom_site_fract_y
_atom_site_fract_z
Si Si1 0.899901 0.450948 0.351708
Si Si2 0.022920 0.909445 0.475794
Si Si3 0.244761 0.037498 0.563439
Si Si4 0.827026 0.097087 0.171839
Si Si5 0.649200 0.017870 0.976998
Si Si6 0.848504 0.283213 0.886060
Si Si7 0.958743 0.283781 0.864183
Si Si8 0.050884 0.478177 0.267147
O O1 0.928214 0.414023 0.158099
O O2 0.874499 0.404526 0.521320
O O3 0.934688 0.497415 0.470580
O O4 0.861022 0.493440 0.245345
O O5 0.019203 0.847655 0.605248
O O6 0.026343 0.964074 0.658324
O O7 0.982814 0.924747 0.284120
O O8 0.283360 0.085154 0.499187
O O9 0.252373 0.008520 0.831807
O O10 0.192273 0.060194 0.547716
O O11 0.833792 0.039636 0.334771
O O12 0.825254 0.154711 0.332230
O O13 0.599598 0.033717 0.867418
O O14 0.836727 0.242271 0.652475
O O15 0.903588 0.290168 0.873933
O O16 0.970893 0.245975 0.105800
#
# Coordination Sequence:
#
# PCOD9458993 Si02
#       8
#     8   8   8   8   8   8   8   8
#     4  10  17  29  49  72 102 134 165 203 262 308
#     4  10  20  32  49  74 102 137 178 210 261 315
#     4  10  19  32  50  76 101 132 165 202 250 310
#     4  10  20  31  49  71 104 136 166 211 256 304
#     4   9  18  31  48  73 102 130 166 204 256 314
#     4  10  22  33  49  71 100 135 173 205 246 297
#     4  10  22  36  51  72 100 138 177 215 251 300
#     4   9  19  32  49  74 104 136 169 214 263 314
#
# _framework density 17.478446999999999
#
# number of rings (size 3 to 8) (size 9 to 14) (size 15 to 20)
#    0.000    2.250    1.250    2.625    8.750    0.000 
#    0.000    0.000    0.000    0.000    0.000    1.750 
#    0.000    0.000    0.000    0.000    0.000    0.000 
#
# Total GULP energy -356423.807193 kJ/mol
# GULP energy per Si atom -5569.121987 kJ/mol
# Density = 1.743867 g / cm^3
# Si number density = 17.478447 Si / 1000 Ang^3
#
#
#
# Elastic Constant Matrix: (Units=GPa)
#
#
# Indices 1 2 3 4 5 6 
#
# 1 57.9361 20.7967 5.1974 0.0000 0.0000 0.0000
# 2 20.7967 59.6081 13.1738 0.0000 0.0000 0.0000
# 3 5.1974 13.1738 63.1148 0.0000 0.0000 0.0000
# 4 0.0000 0.0000 0.0000 9.2797 0.0000 0.0000
# 5 0.0000 0.0000 0.0000 0.0000 24.0008 0.0000
# 6 0.0000 0.0000 0.0000 0.0000 0.0000 14.3680
#
#
#
# Elastic Compliance Matrix: (Units=1/GPa)
#
#
# Indices 1 2 3 4 5 6 
#
# 1 0.019734 -0.006841 -0.000197 0.000000 0.000000 0.000000
# 2 -0.006841 0.019959 -0.003603 0.000000 0.000000 0.000000
# 3 -0.000197 -0.003603 0.016612 0.000000 0.000000 0.000000
# 4 0.000000 0.000000 0.000000 0.107762 0.000000 0.000000
# 5 0.000000 0.000000 0.000000 0.000000 0.041665 0.000000
# 6 0.000000 0.000000 0.000000 0.000000 0.000000 0.069599
#
#
# Mechanical properties :
#
#
# Convention : Reuss Voigt Hill
#
# Bulk Modulus (GPa) = 28.55245 28.77720 28.66482
# Shear Modulus (GPa) = 16.21856 18.96243 17.59050
#
# Velocity S-wave (km/s) = 3.04948 3.29736 3.17584
# Velocity P-wave (km/s) = 5.36380 5.56749 5.46659
#
# Compressibility (1/GPa) = 0.03502327
#
# Stress axis : x y z
#
# Youngs Moduli (GPa) = 50.67435 50.10186 60.19612
#
# Poissons Ratio (x) = 0.34277 0.01186
# Poissons Ratio (y) = 0.34668 0.21687
# Poissons Ratio (z) = 0.00999 0.18050
#
# Static dielectric constant tensor:
#      x y z
#    x 1.662740 0.000000 0.000000 
#    y 0.000000 1.605230 0.000000 
#    z 0.000000 0.000000 1.700480 
# 
# From -- ./inp_files/1423.got.cif
#   From: 2010.05.17/outbox.cif.g08.bks.cpg/sg61_1_cif.got.tgz:1423.got - 2010.06.03 15:17:17.
