data_PCOD9458363
_publ_section_title
;
Structure prediction by ZEFSAII (Michael W. Deem and Ramdas Pophale) SiO2 
 PCOD9458363
Probable space group: P B C N
;
_chemical_formula_sum "Si O2"
_cell_formula_units_Z 32
_cell_length_a 12.410042
_cell_length_b 17.847380
_cell_length_c 6.895127
_cell_angle_alpha 90.000000
_cell_angle_beta 90.000000
_cell_angle_gamma 90.000000
_cell_volume 1527.179169
_symmetry_space_group_name_H-M "P B C N"
_symmetry_group_IT_number 60
_symmetry_cell_setting 'orthorhombic'
loop_
_space_group_symop_operation_xyz
x,y,z
1/2-x,1/2-y,1/2+z
1/2+x,1/2-y,-z
-x,y,1/2-z
-x,-y,-z
1/2+x,1/2+y,1/2-z
1/2-x,1/2+y,z
x,-y,1/2+z
loop_
_atom_site_type_symbol
_atom_site_label
_atom_site_fract_x
_atom_site_fract_y
_atom_site_fract_z
Si Si1 0.616608 0.443593 0.229487
Si Si2 0.202609 0.824981 0.527311
Si Si3 0.622571 0.831090 0.317178
Si Si4 0.258134 0.584060 0.409323
O O1 0.500000 0.480673 0.250000
O O2 0.615100 0.381481 0.063426
O O3 0.648277 0.404261 0.430648
O O4 0.710156 0.502902 0.176026
O O5 0.154105 0.743495 0.563167
O O6 0.299850 0.828349 0.371949
O O7 0.261212 0.640758 0.231620
O O8 0.500000 0.831819 0.250000
O O9 0.652998 0.900168 0.460057
#
# Coordination Sequence:
#
# PCOD9458363 Si02
#       4
#     8   8   8   8
#     4  11  24  39  71 105 136 178 220 292 353 390
#     4  11  24  43  66 101 135 171 232 280 335 415
#     4  11  26  45  69  97 137 186 223 279 343 403
#     4  11  23  43  63 101 138 170 228 276 334 417
#
# _framework density 20.953662999999999
#
# number of rings (size 3 to 8) (size 9 to 14) (size 15 to 20)
#    0.000    1.000    5.000    0.750    3.500    1.000 
#    0.000    5.000    0.000    0.000    0.000    0.000 
#    0.000    0.000    0.000    0.000    0.000    0.000 
#
# Total GULP energy -178584.499583 kJ/mol
# GULP energy per Si atom -5580.765612 kJ/mol
# Density = 2.090597 g / cm^3
# Si number density = 20.953663 Si / 1000 Ang^3
#
#
#
# Elastic Constant Matrix: (Units=GPa)
#
#
# Indices 1 2 3 4 5 6 
#
# 1 115.6088 51.8994 37.1678 0.0000 0.0000 0.0000
# 2 51.8994 89.6993 48.7258 0.0000 0.0000 0.0000
# 3 37.1678 48.7258 126.2067 0.0000 0.0000 0.0000
# 4 0.0000 0.0000 0.0000 51.9439 0.0000 0.0000
# 5 0.0000 0.0000 0.0000 0.0000 18.0248 0.0000
# 6 0.0000 0.0000 0.0000 0.0000 0.0000 18.3823
#
#
#
# Elastic Compliance Matrix: (Units=1/GPa)
#
#
# Indices 1 2 3 4 5 6 
#
# 1 0.011796 -0.006249 -0.001062 0.000000 0.000000 0.000000
# 2 -0.006249 0.017417 -0.004884 0.000000 0.000000 0.000000
# 3 -0.001062 -0.004884 0.010122 0.000000 0.000000 0.000000
# 4 0.000000 0.000000 0.000000 0.019252 0.000000 0.000000
# 5 0.000000 0.000000 0.000000 0.000000 0.055479 0.000000
# 6 0.000000 0.000000 0.000000 0.000000 0.000000 0.054400
#
#
# Mechanical properties :
#
#
# Convention : Reuss Voigt Hill
#
# Bulk Modulus (GPa) = 66.90545 67.45564 67.18054
# Shear Modulus (GPa) = 25.27342 30.58499 27.92920
#
# Velocity S-wave (km/s) = 3.47675 3.82468 3.65486
# Velocity P-wave (km/s) = 6.93661 7.19492 7.06694
#
# Compressibility (1/GPa) = 0.01494647
#
# Stress axis : x y z
#
# Youngs Moduli (GPa) = 84.77253 57.41572 98.79692
#
# Poissons Ratio (x) = 0.35877 0.10488
# Poissons Ratio (y) = 0.52971 0.48253
# Poissons Ratio (z) = 0.08999 0.28042
#
# Static dielectric constant tensor:
#      x y z
#    x 1.735340 0.000000 0.000000 
#    y 0.000000 1.794570 0.000000 
#    z 0.000000 0.000000 1.774460 
# 
# From -- ./inp_files/4693.got.cif
#   From: 2010.05.17/outbox.cif.g08.bks.cpg/sg60_3_cif.got.tgz:4693.got - 2010.06.03 14:59:27.
