data_PCOD9458215
_publ_section_title
;
Structure prediction by ZEFSAII (Michael W. Deem and Ramdas Pophale) SiO2 
 PCOD9458215
Probable space group: P B C N
;
_chemical_formula_sum "Si O2"
_cell_formula_units_Z 64
_cell_length_a 11.931404
_cell_length_b 25.024740
_cell_length_c 8.959729
_cell_angle_alpha 90.000000
_cell_angle_beta 90.000000
_cell_angle_gamma 90.000000
_cell_volume 2675.198420
_symmetry_space_group_name_H-M "P B C N"
_symmetry_group_IT_number 60
_symmetry_cell_setting 'orthorhombic'
loop_
_space_group_symop_operation_xyz
x,y,z
1/2-x,1/2-y,1/2+z
1/2+x,1/2-y,-z
-x,y,1/2-z
-x,-y,-z
1/2+x,1/2+y,1/2-z
1/2-x,1/2+y,z
x,-y,1/2+z
loop_
_atom_site_type_symbol
_atom_site_label
_atom_site_fract_x
_atom_site_fract_y
_atom_site_fract_z
Si Si1 0.079302 0.974943 0.872121
Si Si2 0.818482 0.698771 0.000448
Si Si3 0.914864 0.557791 0.379128
Si Si4 0.592974 0.719469 0.877328
Si Si5 0.730580 0.468005 0.364612
Si Si6 0.433135 0.102542 0.617468
Si Si7 0.568150 0.308674 0.901366
Si Si8 0.693789 0.827951 0.836557
O O1 0.142621 0.017829 0.765643
O O2 0.000000 0.944679 0.750000
O O3 0.174243 0.949336 0.978454
O O4 0.000000 0.000000 0.000000
O O5 0.717611 0.694669 0.880415
O O6 0.893814 0.646914 0.995453
O O7 0.888304 0.750423 0.953769
O O8 0.782130 0.699546 0.174080
O O9 0.805005 0.521231 0.393037
O O10 0.874765 0.617721 0.337528
O O11 0.000000 0.539077 0.250000
O O12 0.986609 0.561940 0.530480
O O13 0.500000 0.727832 0.750000
O O14 0.628415 0.780439 0.924297
O O15 0.526098 0.677671 0.979999
O O16 0.823307 0.425551 0.318740
O O17 0.500000 0.129375 0.750000
O O18 0.500000 0.305688 0.750000
O O19 0.682608 0.341298 0.898170
#
# Coordination Sequence:
#
# PCOD9458215 Si02
#       8
#     8   8   8   8   8   8   8   8
#     4   9  20  41  66  90 121 164 211 259 316 371
#     4  11  23  40  64  93 128 169 213 261 319 387
#     4  12  23  40  67  93 128 171 212 263 323 380
#     4  11  22  40  65  92 128 165 210 265 321 378
#     4  11  22  41  67  98 128 165 219 262 312 382
#     4  12  25  41  62  96 136 164 209 268 327 370
#     4  11  22  39  63  92 127 165 210 263 321 377
#     4  11  23  40  64  95 126 167 218 260 312 393
#
# _framework density 23.923459999999999
#
# number of rings (size 3 to 8) (size 9 to 14) (size 15 to 20)
#    0.000    1.000    3.750    3.750    0.000    1.000 
#    0.000    7.500    0.000    0.000    0.000    0.000 
#    0.000    0.000    0.000    0.000    0.000    0.000 
#
# Total GULP energy -357114.949925 kJ/mol
# GULP energy per Si atom -5579.921093 kJ/mol
# Density = 2.386901 g / cm^3
# Si number density = 23.923460 Si / 1000 Ang^3
#
#
#
# Elastic Constant Matrix: (Units=GPa)
#
#
# Indices 1 2 3 4 5 6 
#
# 1 133.0458 18.6625 43.0593 0.0000 0.0000 0.0000
# 2 18.6625 51.0526 -8.5518 0.0000 0.0000 0.0000
# 3 43.0593 -8.5518 56.4023 0.0000 0.0000 0.0000
# 4 0.0000 0.0000 0.0000 10.4977 0.0000 0.0000
# 5 0.0000 0.0000 0.0000 0.0000 46.6156 0.0000
# 6 0.0000 0.0000 0.0000 0.0000 0.0000 14.3076
#
#
#
# Elastic Compliance Matrix: (Units=1/GPa)
#
#
# Indices 1 2 3 4 5 6 
#
# 1 0.011439 -0.005792 -0.009611 0.000000 0.000000 0.000000
# 2 -0.005792 0.023030 0.007913 0.000000 0.000000 0.000000
# 3 -0.009611 0.007913 0.026267 0.000000 0.000000 0.000000
# 4 0.000000 0.000000 0.000000 0.095259 0.000000 0.000000
# 5 0.000000 0.000000 0.000000 0.000000 0.021452 0.000000
# 6 0.000000 0.000000 0.000000 0.000000 0.000000 0.069893
#
#
# Mechanical properties :
#
#
# Convention : Reuss Voigt Hill
#
# Bulk Modulus (GPa) = 21.85415 38.53786 30.19601
# Shear Modulus (GPa) = 18.01336 26.77288 22.39312
#
# Velocity S-wave (km/s) = 2.74698 3.34893 3.06278
# Velocity P-wave (km/s) = 4.38362 5.57652 5.01566
#
# Compressibility (1/GPa) = 0.04575789
#
# Stress axis : x y z
#
# Youngs Moduli (GPa) = 87.41873 43.42090 38.07042
#
# Poissons Ratio (x) = 0.25148 0.36590
# Poissons Ratio (y) = 0.50630 -0.30127
# Poissons Ratio (z) = 0.84020 -0.34361
#
# Static dielectric constant tensor:
#      x y z
#    x 1.967280 0.000000 0.000000 
#    y 0.000000 1.889590 0.000000 
#    z 0.000000 0.000000 2.071260 
# 
# From -- ./inp_files/5355.got.cif
#   From: 2010.05.17/outbox.cif.g08.bks.cpg/sg60_3_cif.got.tgz:5355.got - 2010.06.03 14:59:27.
