data_PCOD9458256
_publ_section_title
;
Structure prediction by ZEFSAII (Michael W. Deem and Ramdas Pophale) SiO2 
 PCOD9458256
Probable space group: P B C N
;
_chemical_formula_sum "Si O2"
_cell_formula_units_Z 64
_cell_length_a 9.126288
_cell_length_b 14.161533
_cell_length_c 21.479227
_cell_angle_alpha 90.000000
_cell_angle_beta 90.000000
_cell_angle_gamma 90.000000
_cell_volume 2776.023168
_symmetry_space_group_name_H-M "P B C N"
_symmetry_group_IT_number 60
_symmetry_cell_setting 'orthorhombic'
loop_
_space_group_symop_operation_xyz
x,y,z
1/2-x,1/2-y,1/2+z
1/2+x,1/2-y,-z
-x,y,1/2-z
-x,-y,-z
1/2+x,1/2+y,1/2-z
1/2-x,1/2+y,z
x,-y,1/2+z
loop_
_atom_site_type_symbol
_atom_site_label
_atom_site_fract_x
_atom_site_fract_y
_atom_site_fract_z
Si Si1 0.335671 0.798938 0.491992
Si Si2 0.389652 0.340333 0.097695
Si Si3 0.163336 0.748917 0.223916
Si Si4 0.428623 0.881012 0.103001
Si Si5 0.765435 0.370660 0.597195
Si Si6 0.630160 0.452408 0.037413
Si Si7 0.424350 0.275678 0.810406
Si Si8 0.960222 0.573274 0.321198
O O1 0.401429 0.751145 0.553120
O O2 0.458737 0.853687 0.452025
O O3 0.260162 0.717760 0.449131
O O4 0.211861 0.876007 0.505033
O O5 0.347321 0.322635 0.168652
O O6 0.234659 0.382480 0.074730
O O7 0.539930 0.396784 0.090760
O O8 0.278285 0.769463 0.278540
O O9 0.000000 0.743921 0.250000
O O10 0.174968 0.645994 0.189663
O O11 0.473586 0.799657 0.153914
O O12 0.440749 0.980104 0.138083
O O13 0.741162 0.470169 0.563573
O O14 0.628207 0.355569 0.643282
O O15 0.908333 0.373366 0.641263
O O16 0.500000 0.500000 0.000000
O O17 0.500000 0.316825 0.750000
O O18 0.000000 0.544629 0.250000
#
# Coordination Sequence:
#
# PCOD9458256 Si02
#       8
#     8   8   8   8   8   8   8   8
#     4  11  25  48  75  99 141 193 234 298 373 424
#     4  12  26  45  70 106 140 186 248 299 353 436
#     4  11  24  44  68 102 143 186 236 295 360 431
#     4  11  25  43  70  99 141 186 236 292 359 427
#     4  11  23  46  72 101 144 189 233 299 372 421
#     4  12  26  47  73 109 147 184 247 305 359 443
#     4  11  22  43  68  98 138 188 233 288 358 426
#     4  11  22  42  68 101 136 185 238 289 355 440
#
# _framework density 23.054562000000001
#
# number of rings (size 3 to 8) (size 9 to 14) (size 15 to 20)
#    0.000    0.750    6.250    1.875    3.500    2.000 
#    0.000    1.875    0.000    0.000    0.000    0.000 
#    0.000    0.000    0.000    0.000    0.000    0.000 
#
# Total GULP energy -357324.523502 kJ/mol
# GULP energy per Si atom -5583.195680 kJ/mol
# Density = 2.300209 g / cm^3
# Si number density = 23.054562 Si / 1000 Ang^3
#
#
#
# Elastic Constant Matrix: (Units=GPa)
#
#
# Indices 1 2 3 4 5 6 
#
# 1 58.7217 14.8485 6.0678 0.0000 0.0000 0.0000
# 2 14.8485 57.1145 -3.1270 0.0000 0.0000 0.0000
# 3 6.0678 -3.1270 61.1129 0.0000 0.0000 0.0000
# 4 0.0000 0.0000 0.0000 31.3143 0.0000 0.0000
# 5 0.0000 0.0000 0.0000 0.0000 41.9704 0.0000
# 6 0.0000 0.0000 0.0000 0.0000 0.0000 32.0634
#
#
#
# Elastic Compliance Matrix: (Units=1/GPa)
#
#
# Indices 1 2 3 4 5 6 
#
# 1 0.018490 -0.004921 -0.002088 0.000000 0.000000 0.000000
# 2 -0.004921 0.018868 0.001454 0.000000 0.000000 0.000000
# 3 -0.002088 0.001454 0.016645 0.000000 0.000000 0.000000
# 4 0.000000 0.000000 0.000000 0.031934 0.000000 0.000000
# 5 0.000000 0.000000 0.000000 0.000000 0.023826 0.000000
# 6 0.000000 0.000000 0.000000 0.000000 0.000000 0.031188
#
#
# Mechanical properties :
#
#
# Convention : Reuss Voigt Hill
#
# Bulk Modulus (GPa) = 23.31405 23.61419 23.46412
# Shear Modulus (GPa) = 30.05567 31.68026 30.86796
#
# Velocity S-wave (km/s) = 3.61456 3.71096 3.66308
# Velocity P-wave (km/s) = 5.24925 5.35039 5.30006
#
# Compressibility (1/GPa) = 0.04289260
#
# Stress axis : x y z
#
# Youngs Moduli (GPa) = 54.08453 53.00066 60.07874
#
# Poissons Ratio (x) = 0.26083 0.12542
# Poissons Ratio (y) = 0.26616 -0.08736
# Poissons Ratio (z) = 0.11291 -0.07706
#
# Static dielectric constant tensor:
#      x y z
#    x 1.952770 0.000000 0.000000 
#    y 0.000000 1.920230 0.000000 
#    z 0.000000 0.000000 1.890850 
# 
# From -- ./inp_files/24109.got.cif
#   From: 2010.05.17/outbox.cif.g08.bks.cpg/sg60_13_cif.got.tgz:24109.got - 2010.06.03 14:59:27.
