data_PCOD9458195
_publ_section_title
;
Structure prediction by ZEFSAII (Michael W. Deem and Ramdas Pophale) SiO2 
 PCOD9458195
Probable space group: P B C N
;
_chemical_formula_sum "Si O2"
_cell_formula_units_Z 36
_cell_length_a 7.814590
_cell_length_b 9.587391
_cell_length_c 20.861932
_cell_angle_alpha 90.000000
_cell_angle_beta 90.000000
_cell_angle_gamma 90.000000
_cell_volume 1563.007861
_symmetry_space_group_name_H-M "P B C N"
_symmetry_group_IT_number 60
_symmetry_cell_setting 'orthorhombic'
loop_
_space_group_symop_operation_xyz
x,y,z
1/2-x,1/2-y,1/2+z
1/2+x,1/2-y,-z
-x,y,1/2-z
-x,-y,-z
1/2+x,1/2+y,1/2-z
1/2-x,1/2+y,z
x,-y,1/2+z
loop_
_atom_site_type_symbol
_atom_site_label
_atom_site_fract_x
_atom_site_fract_y
_atom_site_fract_z
Si Si1 0.902457 0.364883 0.877342
Si Si2 0.749812 0.877508 0.440493
Si Si3 0.393339 0.708066 0.424145
Si Si4 0.500000 0.984975 0.750000
Si Si5 0.264969 0.975226 0.363553
O O1 0.780972 0.464579 0.919383
O O2 0.868487 0.205945 0.891180
O O3 0.894447 0.396550 0.801931
O O4 0.088041 0.425573 0.894822
O O5 0.569671 0.793472 0.434802
O O6 0.836505 0.859009 0.508964
O O7 0.392657 0.581696 0.371811
O O8 0.265569 0.831567 0.401281
O O9 0.644927 0.057793 0.705469
#
# Coordination Sequence:
#
# PCOD9458195 Si02
#       5
#     8   8   8   4   8
#     4   9  21  40  59  84 118 158 193 244 294 353
#     4  11  22  37  62  90 122 154 199 247 303 349
#     4  11  22  37  62  90 122 154 199 247 303 349
#     4   8  20  44  60  78 120 164 198 232 300 356
#     4   9  21  40  59  84 118 158 193 244 294 353
#
# _framework density 23.032512000000001
#
# number of rings (size 3 to 8) (size 9 to 14) (size 15 to 20)
#    1.333    0.889    0.000    2.667    0.000   10.667 
#    0.000    0.000    0.000    0.000    0.000    0.000 
#    0.000    0.000    0.000    0.000    0.000    0.000 
#
# Total GULP energy -200489.335234 kJ/mol
# GULP energy per Si atom -5569.148201 kJ/mol
# Density = 2.298009 g / cm^3
# Si number density = 23.032512 Si / 1000 Ang^3
#
#
#
# Elastic Constant Matrix: (Units=GPa)
#
#
# Indices 1 2 3 4 5 6 
#
# 1 57.3549 4.9572 -7.0598 0.0000 0.0000 0.0000
# 2 4.9572 88.0220 -17.2150 0.0000 0.0000 0.0000
# 3 -7.0598 -17.2150 60.9508 0.0000 0.0000 0.0000
# 4 0.0000 0.0000 0.0000 -9.7881 0.0000 0.0000
# 5 0.0000 0.0000 0.0000 0.0000 0.8986 0.0000
# 6 0.0000 0.0000 0.0000 0.0000 0.0000 26.6519
#
#
#
# Elastic Compliance Matrix: (Units=1/GPa)
#
#
# Indices 1 2 3 4 5 6 
#
# 1 0.017721 -0.000631 0.001874 0.000000 0.000000 0.000000
# 2 -0.000631 0.012048 0.003330 0.000000 0.000000 0.000000
# 3 0.001874 0.003330 0.017564 0.000000 0.000000 0.000000
# 4 0.000000 0.000000 0.000000 -0.102165 0.000000 0.000000
# 5 0.000000 0.000000 0.000000 0.000000 1.112782 0.000000
# 6 0.000000 0.000000 0.000000 0.000000 0.000000 0.037521
#
#
# Mechanical properties :
#
#
# Convention : Reuss Voigt Hill
#
# Bulk Modulus (GPa) = 17.70634 18.63250 18.16942
# Shear Modulus (GPa) = 4.52427 18.59552 11.55990
#
# Velocity S-wave (km/s) = 1.40305 2.84449 2.24273
# Velocity P-wave (km/s) = 3.21387 4.34688 3.82259
#
# Compressibility (1/GPa) = 0.05647695
#
# Stress axis : x y z
#
# Youngs Moduli (GPa) = 56.43160 83.00449 56.93411
#
# Poissons Ratio (x) = 0.05241 -0.10671
# Poissons Ratio (y) = 0.03563 -0.18957
# Poissons Ratio (z) = -0.10576 -0.27637
#
# Static dielectric constant tensor:
#      x y z
#    x 2.007600 0.000000 0.000000 
#    y 0.000000 1.808230 0.000000 
#    z 0.000000 0.000000 1.888800 
# 
# From -- ./inp_files/21913.got.cif
#   From: 2010.05.17/outbox.cif.g08.bks.cpg/sg60_11_cif.got.tgz:21913.got - 2010.06.03 14:59:27.
