data_PCOD9458867
_publ_section_title
;
Structure prediction by ZEFSAII (Michael W. Deem and Ramdas Pophale) SiO2 
 PCOD9458867
Probable space group: P B C N
;
_chemical_formula_sum "Si O2"
_cell_formula_units_Z 48
_cell_length_a 17.317020
_cell_length_b 12.462387
_cell_length_c 9.684798
_cell_angle_alpha 90.000000
_cell_angle_beta 90.000000
_cell_angle_gamma 90.000000
_cell_volume 2090.089863
_symmetry_space_group_name_H-M "P B C N"
_symmetry_group_IT_number 60
_symmetry_cell_setting 'orthorhombic'
loop_
_space_group_symop_operation_xyz
x,y,z
1/2-x,1/2-y,1/2+z
1/2+x,1/2-y,-z
-x,y,1/2-z
-x,-y,-z
1/2+x,1/2+y,1/2-z
1/2-x,1/2+y,z
x,-y,1/2+z
loop_
_atom_site_type_symbol
_atom_site_label
_atom_site_fract_x
_atom_site_fract_y
_atom_site_fract_z
Si Si1 0.726813 0.627235 0.588609
Si Si2 0.386959 0.891036 0.042745
Si Si3 0.915644 0.174191 0.102596
Si Si4 0.280052 0.317975 0.101053
Si Si5 0.398467 0.926609 0.348520
Si Si6 0.910802 0.142390 0.421510
O O1 0.707498 0.685382 0.734622
O O2 0.755998 0.704326 0.465078
O O3 0.804790 0.567185 0.631901
O O4 0.648333 0.581102 0.522125
O O5 0.293568 0.891608 0.062524
O O6 0.418320 0.930353 0.188989
O O7 0.405519 0.766006 0.026802
O O8 0.422024 0.968042 0.929450
O O9 0.922277 0.305792 0.105369
O O10 0.887781 0.143567 0.258304
O O11 0.998245 0.119892 0.077335
O O12 0.855591 0.149982 0.982719
#
# Coordination Sequence:
#
# PCOD9458867 Si02
#       6
#     8   8   8   8   8   8
#     4   9  17  30  47  67  90 118 155 193 226 265
#     4   9  18  30  45  67  94 122 151 186 226 269
#     4   9  18  32  48  68  95 123 151 187 230 272
#     4   9  17  30  47  67  90 118 155 193 226 265
#     4   9  18  30  45  67  94 122 151 186 226 269
#     4   9  18  32  48  68  95 123 151 187 230 272
#
# _framework density 22.965522
#
# number of rings (size 3 to 8) (size 9 to 14) (size 15 to 20)
#    0.000    3.000    0.000    3.000    0.000    8.000 
#    0.000    0.000    0.000    1.000    0.000    0.000 
#    0.000    0.000    0.000    0.000    0.000    0.000 
#
# Total GULP energy -267640.706964 kJ/mol
# GULP energy per Si atom -5575.848062 kJ/mol
# Density = 2.291325 g / cm^3
# Si number density = 22.965522 Si / 1000 Ang^3
#
#
#
# Elastic Constant Matrix: (Units=GPa)
#
#
# Indices 1 2 3 4 5 6 
#
# 1 99.0270 -29.0890 11.8547 0.0000 0.0000 0.0000
# 2 -29.0890 43.0471 16.3950 0.0000 0.0000 0.0000
# 3 11.8547 16.3950 54.8134 0.0000 0.0000 0.0000
# 4 0.0000 0.0000 0.0000 92.2080 0.0000 0.0000
# 5 0.0000 0.0000 0.0000 0.0000 39.2905 0.0000
# 6 0.0000 0.0000 0.0000 0.0000 0.0000 -5.5494
#
#
#
# Elastic Compliance Matrix: (Units=1/GPa)
#
#
# Indices 1 2 3 4 5 6 
#
# 1 0.014590 0.012483 -0.006889 0.000000 0.000000 0.000000
# 2 0.012483 0.036897 -0.013736 0.000000 0.000000 0.000000
# 3 -0.006889 -0.013736 0.023842 0.000000 0.000000 0.000000
# 4 0.000000 0.000000 0.000000 0.010845 0.000000 0.000000
# 5 0.000000 0.000000 0.000000 0.000000 0.025451 0.000000
# 6 0.000000 0.000000 0.000000 0.000000 0.000000 -0.180199
#
#
# Mechanical properties :
#
#
# Convention : Reuss Voigt Hill
#
# Bulk Modulus (GPa) = 16.93631 21.68986 19.31308
# Shear Modulus (GPa) = -153.33547 38.37161 -57.48193
#
# Velocity S-wave (km/s) = -8.18001 4.09202 -5.00839
# Velocity P-wave (km/s) = 9.04578 5.63837 5.00175
#
# Compressibility (1/GPa) = 0.05904475
#
# Stress axis : x y z
#
# Youngs Moduli (GPa) = 68.54125 27.10246 41.94267
#
# Poissons Ratio (x) = -0.33831 0.28894
# Poissons Ratio (y) = -0.85559 0.57612
# Poissons Ratio (z) = 0.47218 0.37227
#
# Static dielectric constant tensor:
#      x y z
#    x 1.996100 0.000000 0.000000 
#    y 0.000000 1.893450 0.000000 
#    z 0.000000 0.000000 1.807910 
# 
# From -- ./inp_files/6720.got.cif
#   From: 2010.05.17/outbox.cif.g08.bks.cpg/sg60_4_cif.got.tgz:6720.got - 2010.06.03 14:59:27.
