data_PCOD9458669
_publ_section_title
;
Structure prediction by ZEFSAII (Michael W. Deem and Ramdas Pophale) SiO2 
 PCOD9458669
Probable space group: P B C N
;
_chemical_formula_sum "Si O2"
_cell_formula_units_Z 48
_cell_length_a 18.335072
_cell_length_b 14.059469
_cell_length_c 8.335625
_cell_angle_alpha 90.000000
_cell_angle_beta 90.000000
_cell_angle_gamma 90.000000
_cell_volume 2148.768886
_symmetry_space_group_name_H-M "P B C N"
_symmetry_group_IT_number 60
_symmetry_cell_setting 'orthorhombic'
loop_
_space_group_symop_operation_xyz
x,y,z
1/2-x,1/2-y,1/2+z
1/2+x,1/2-y,-z
-x,y,1/2-z
-x,-y,-z
1/2+x,1/2+y,1/2-z
1/2-x,1/2+y,z
x,-y,1/2+z
loop_
_atom_site_type_symbol
_atom_site_label
_atom_site_fract_x
_atom_site_fract_y
_atom_site_fract_z
Si Si1 0.780557 0.046304 0.843918
Si Si2 0.686260 0.356975 0.005508
Si Si3 0.923876 0.749049 0.821175
Si Si4 0.827027 0.773463 0.510234
Si Si5 0.418451 0.131125 0.196614
Si Si6 0.884843 0.442740 0.461661
O O1 0.801529 0.087362 0.671105
O O2 0.820859 0.116206 0.968348
O O3 0.694990 0.056384 0.882524
O O4 0.800081 0.936847 0.870697
O O5 0.608816 0.308577 0.969613
O O6 0.747528 0.275042 0.001883
O O7 0.863780 0.755260 0.681150
O O8 0.930489 0.640184 0.876571
O O9 0.000000 0.783806 0.750000
O O10 0.875390 0.718824 0.377728
O O11 0.500000 0.155570 0.250000
O O12 0.379862 0.086144 0.352765
O O13 0.418611 0.046419 0.065654
#
# Coordination Sequence:
#
# PCOD9458669 Si02
#       6
#     8   8   8   8   8   8
#     4  12  25  42  72 102 131 177 239 288 335 408
#     4  12  24  45  68 100 135 179 232 287 339 413
#     4  12  26  46  70 103 142 183 230 290 354 413
#     4  12  24  43  69  99 133 183 229 281 342 408
#     4  12  25  40  63 101 144 182 223 279 349 418
#     4  12  22  40  67  97 142 179 229 285 342 413
#
# _framework density 22.338372
#
# number of rings (size 3 to 8) (size 9 to 14) (size 15 to 20)
#    0.000    0.000    5.000    6.000    2.333    0.000 
#    0.000    4.167    0.000    0.000    0.000    0.000 
#    0.000    0.000    0.000    0.000    0.000    0.000 
#
# Total GULP energy -269044.008682 kJ/mol
# GULP energy per Si atom -5605.083514 kJ/mol
# Density = 2.228753 g / cm^3
# Si number density = 22.338372 Si / 1000 Ang^3
#
#
#
# Elastic Constant Matrix: (Units=GPa)
#
#
# Indices 1 2 3 4 5 6 
#
# 1 71.0912 28.7254 12.4836 0.0000 0.0000 0.0000
# 2 28.7254 66.6071 5.5289 0.0000 0.0000 0.0000
# 3 12.4836 5.5289 72.2220 0.0000 0.0000 0.0000
# 4 0.0000 0.0000 0.0000 33.1727 0.0000 0.0000
# 5 0.0000 0.0000 0.0000 0.0000 35.3929 0.0000
# 6 0.0000 0.0000 0.0000 0.0000 0.0000 24.5706
#
#
#
# Elastic Compliance Matrix: (Units=1/GPa)
#
#
# Indices 1 2 3 4 5 6 
#
# 1 0.017458 -0.007325 -0.002457 0.000000 0.000000 0.000000
# 2 -0.007325 0.018183 -0.000126 0.000000 0.000000 0.000000
# 3 -0.002457 -0.000126 0.014280 0.000000 0.000000 0.000000
# 4 0.000000 0.000000 0.000000 0.030145 0.000000 0.000000
# 5 0.000000 0.000000 0.000000 0.000000 0.028254 0.000000
# 6 0.000000 0.000000 0.000000 0.000000 0.000000 0.040699
#
#
# Mechanical properties :
#
#
# Convention : Reuss Voigt Hill
#
# Bulk Modulus (GPa) = 33.21626 33.71070 33.46348
# Shear Modulus (GPa) = 27.95326 29.50606 28.72966
#
# Velocity S-wave (km/s) = 3.54129 3.63832 3.59013
# Velocity P-wave (km/s) = 5.62342 5.72482 5.67434
#
# Compressibility (1/GPa) = 0.03010574
#
# Stress axis : x y z
#
# Youngs Moduli (GPa) = 57.28169 54.99686 70.02563
#
# Poissons Ratio (x) = 0.40285 0.17204
# Poissons Ratio (y) = 0.41958 0.00881
# Poissons Ratio (z) = 0.14073 0.00692
#
# Static dielectric constant tensor:
#      x y z
#    x 1.812250 0.000000 0.000000 
#    y 0.000000 1.788520 0.000000 
#    z 0.000000 0.000000 1.880000 
# 
# From -- ./inp_files/6710.got.cif
#   From: 2010.05.17/outbox.cif.g08.bks.cpg/sg60_4_cif.got.tgz:6710.got - 2010.06.03 14:59:27.
