data_PCOD9458991
_publ_section_title
;
Structure prediction by ZEFSAII (Michael W. Deem and Ramdas Pophale) SiO2 
 PCOD9458991
Probable space group: P B C A
;
_chemical_formula_sum "Si O2"
_cell_formula_units_Z 56
_cell_length_a 22.727828
_cell_length_b 5.108012
_cell_length_c 31.213066
_cell_angle_alpha 90.000000
_cell_angle_beta 90.000000
_cell_angle_gamma 90.000000
_cell_volume 3623.650251
_symmetry_space_group_name_H-M "P B C A"
_symmetry_group_IT_number 61
_symmetry_cell_setting 'orthorhombic'
loop_
_space_group_symop_operation_xyz
x,y,z
1/2-x,-y,1/2+z
1/2+x,1/2-y,-z
-x,1/2+y,1/2-z
-x,-y,-z
1/2+x,y,1/2-z
1/2-x,1/2+y,z
x,1/2-y,1/2+z
loop_
_atom_site_type_symbol
_atom_site_label
_atom_site_fract_x
_atom_site_fract_y
_atom_site_fract_z
Si Si1 0.422429 0.264956 0.984281
Si Si2 0.979939 0.770416 0.555594
Si Si3 0.212274 0.737078 0.367189
Si Si4 0.520719 0.356152 0.154003
Si Si5 0.710221 0.783196 0.031262
Si Si6 0.464916 0.247926 0.236859
Si Si7 0.093115 0.856885 0.318900
O O1 0.460739 0.228813 0.027316
O O2 0.438306 0.546204 0.964516
O O3 0.353062 0.235562 0.990777
O O4 0.446779 0.044581 0.951619
O O5 0.991734 0.703524 0.604756
O O6 0.235929 0.446119 0.359240
O O7 0.197244 0.767076 0.417581
O O8 0.156117 0.805227 0.339060
O O9 0.466243 0.310581 0.186548
O O10 0.547775 0.643640 0.161127
O O11 0.569377 0.144390 0.169607
O O12 0.754560 0.546972 0.021721
O O13 0.514406 0.450360 0.255339
O O14 0.410366 0.309855 0.267668
#
# Coordination Sequence:
#
# PCOD9458991 Si02
#       7
#     8   8   8   8   8   8   8
#     4  10  20  32  44  66  91 116 148 179 222 262
#     4  10  19  30  47  66  91 117 142 182 221 267
#     4  10  19  28  40  60  82 110 145 170 199 247
#     4  10  17  28  46  66  85 112 141 168 214 258
#     4  10  19  30  44  61  84 114 147 180 211 253
#     4   8  16  27  41  63  85 106 135 165 201 249
#     4  10  18  29  44  62  90 115 136 174 210 246
#
# _framework density 15.454032
#
# number of rings (size 3 to 8) (size 9 to 14) (size 15 to 20)
#    0.000    2.286    0.000    4.286    0.000    2.286 
#    0.000    0.000    0.000    0.000    0.000    2.000 
#    0.000    0.000    0.000    0.000    0.000    0.000 
#
# Total GULP energy -312201.179326 kJ/mol
# GULP energy per Si atom -5575.021059 kJ/mol
# Density = 1.541886 g / cm^3
# Si number density = 15.454032 Si / 1000 Ang^3
#
#
#
# Elastic Constant Matrix: (Units=GPa)
#
#
# Indices 1 2 3 4 5 6 
#
# 1 57.4765 -5.4385 9.2659 0.0000 0.0000 0.0000
# 2 -5.4385 40.7450 -17.7515 0.0000 0.0000 0.0000
# 3 9.2659 -17.7515 53.5407 0.0000 0.0000 0.0000
# 4 0.0000 0.0000 0.0000 14.0578 0.0000 0.0000
# 5 0.0000 0.0000 0.0000 0.0000 18.0315 0.0000
# 6 0.0000 0.0000 0.0000 0.0000 0.0000 6.0767
#
#
#
# Elastic Compliance Matrix: (Units=1/GPa)
#
#
# Indices 1 2 3 4 5 6 
#
# 1 0.017949 0.001218 -0.002702 0.000000 0.000000 0.000000
# 2 0.001218 0.028769 0.009328 0.000000 0.000000 0.000000
# 3 -0.002702 0.009328 0.022238 0.000000 0.000000 0.000000
# 4 0.000000 0.000000 0.000000 0.071135 0.000000 0.000000
# 5 0.000000 0.000000 0.000000 0.000000 0.055458 0.000000
# 6 0.000000 0.000000 0.000000 0.000000 0.000000 0.164562
#
#
# Mechanical properties :
#
#
# Convention : Reuss Voigt Hill
#
# Bulk Modulus (GPa) = 11.81422 13.76822 12.79122
# Shear Modulus (GPa) = 13.41780 18.67895 16.04837
#
# Velocity S-wave (km/s) = 2.94979 3.48038 3.22601
# Velocity P-wave (km/s) = 4.38896 5.00791 4.70862
#
# Compressibility (1/GPa) = 0.08464375
#
# Stress axis : x y z
#
# Youngs Moduli (GPa) = 55.71224 34.75925 44.96878
#
# Poissons Ratio (x) = -0.04235 0.12152
# Poissons Ratio (y) = -0.06788 -0.41945
# Poissons Ratio (z) = 0.15056 -0.32422
#
# Static dielectric constant tensor:
#      x y z
#    x 1.490810 0.000000 0.000000 
#    y 0.000000 1.529270 0.000000 
#    z 0.000000 0.000000 1.529790 
# 
# From -- ./inp_files/10008.got.cif
#   From: 2010.05.17/outbox.cif.g08.bks.cpg/sg61_6_cif.got.tgz:10008.got - 2010.06.03 15:17:17.
