data_PCOD9458550
_publ_section_title
;
Structure prediction by ZEFSAII (Michael W. Deem and Ramdas Pophale) SiO2 
 PCOD9458550
Probable space group: P B C N
;
_chemical_formula_sum "Si O2"
_cell_formula_units_Z 40
_cell_length_a 8.608482
_cell_length_b 9.728768
_cell_length_c 20.012452
_cell_angle_alpha 90.000000
_cell_angle_beta 90.000000
_cell_angle_gamma 90.000000
_cell_volume 1676.041338
_symmetry_space_group_name_H-M "P B C N"
_symmetry_group_IT_number 60
_symmetry_cell_setting 'orthorhombic'
loop_
_space_group_symop_operation_xyz
x,y,z
1/2-x,1/2-y,1/2+z
1/2+x,1/2-y,-z
-x,y,1/2-z
-x,-y,-z
1/2+x,1/2+y,1/2-z
1/2-x,1/2+y,z
x,-y,1/2+z
loop_
_atom_site_type_symbol
_atom_site_label
_atom_site_fract_x
_atom_site_fract_y
_atom_site_fract_z
Si Si1 0.175123 0.021095 0.522114
Si Si2 0.395785 0.757554 0.613418
Si Si3 0.401443 0.462084 0.316260
Si Si4 0.602082 0.028775 0.604097
Si Si5 0.908004 0.203742 0.371697
O O1 0.179726 0.176045 0.549866
O O2 0.293334 0.993875 0.462091
O O3 0.180175 0.907574 0.580580
O O4 0.000000 0.000000 0.500000
O O5 0.531112 0.651474 0.633554
O O6 0.249939 0.749898 0.665809
O O7 0.485805 0.900503 0.608499
O O8 0.500000 0.430132 0.250000
O O9 0.217367 0.463718 0.331536
O O10 0.464485 0.613388 0.334860
O O11 0.500129 0.166997 0.599058
#
# Coordination Sequence:
#
# PCOD9458550 Si02
#       5
#     8   8   8   8   8
#     4  11  25  40  67 105 145 181 232 280 345 421
#     4  11  26  45  68 105 142 186 237 285 348 422
#     4  11  26  47  70  99 134 182 239 295 359 416
#     4  12  25  46  76  99 146 195 227 296 352 407
#     4  11  26  45  68 105 142 186 237 285 348 422
#
# _framework density 23.865759000000001
#
# number of rings (size 3 to 8) (size 9 to 14) (size 15 to 20)
#    0.000    0.800    4.000    3.600    5.600    4.800 
#    0.000    3.000    0.000    0.000    0.000    0.000 
#    0.000    0.000    0.000    0.000    0.000    0.000 
#
# Total GULP energy -223104.666266 kJ/mol
# GULP energy per Si atom -5577.616657 kJ/mol
# Density = 2.381144 g / cm^3
# Si number density = 23.865759 Si / 1000 Ang^3
#
#
#
# Elastic Constant Matrix: (Units=GPa)
#
#
# Indices 1 2 3 4 5 6 
#
# 1 197.6760 34.3830 25.6250 0.0000 0.0000 0.0000
# 2 34.3830 87.4500 5.9566 0.0000 0.0000 0.0000
# 3 25.6250 5.9566 56.9320 0.0000 0.0000 0.0000
# 4 0.0000 0.0000 0.0000 5.2521 0.0000 0.0000
# 5 0.0000 0.0000 0.0000 0.0000 8.2850 0.0000
# 6 0.0000 0.0000 0.0000 0.0000 0.0000 47.8230
#
#
#
# Elastic Compliance Matrix: (Units=1/GPa)
#
#
# Indices 1 2 3 4 5 6 
#
# 1 0.005728 -0.002092 -0.002360 0.000000 0.000000 0.000000
# 2 -0.002092 0.012281 -0.000343 0.000000 0.000000 0.000000
# 3 -0.002360 -0.000343 0.018663 0.000000 0.000000 0.000000
# 4 0.000000 0.000000 0.000000 0.190401 0.000000 0.000000
# 5 0.000000 0.000000 0.000000 0.000000 0.120699 0.000000
# 6 0.000000 0.000000 0.000000 0.000000 0.000000 0.020910
#
#
# Mechanical properties :
#
#
# Convention : Reuss Voigt Hill
#
# Bulk Modulus (GPa) = 36.92366 52.66525 44.79445
# Shear Modulus (GPa) = 12.90989 30.67825 21.79407
#
# Velocity S-wave (km/s) = 2.32833 3.58921 3.02519
# Velocity P-wave (km/s) = 4.76793 6.26831 5.56888
#
# Compressibility (1/GPa) = 0.02708291
#
# Stress axis : x y z
#
# Youngs Moduli (GPa) = 174.56733 81.42766 53.58259
#
# Poissons Ratio (x) = 0.17031 0.12643
# Poissons Ratio (y) = 0.36512 0.01840
# Poissons Ratio (z) = 0.41190 0.02797
#
# Static dielectric constant tensor:
#      x y z
#    x 2.068540 0.000000 0.000000 
#    y 0.000000 3.018700 0.000000 
#    z 0.000000 0.000000 2.261530 
# 
# From -- ./inp_files/23843.got.cif
#   From: 2010.05.17/outbox.cif.g08.bks.cpg/sg60_12_cif.got.tgz:23843.got - 2010.06.03 14:59:27.
