data_PCOD9458440
_publ_section_title
;
Structure prediction by ZEFSAII (Michael W. Deem and Ramdas Pophale) SiO2 
 PCOD9458440
Probable space group: P B C N
;
_chemical_formula_sum "Si O2"
_cell_formula_units_Z 60
_cell_length_a 29.337991
_cell_length_b 11.229729
_cell_length_c 9.661123
_cell_angle_alpha 90.000000
_cell_angle_beta 90.000000
_cell_angle_gamma 90.000000
_cell_volume 3182.931250
_symmetry_space_group_name_H-M "P B C N"
_symmetry_group_IT_number 60
_symmetry_cell_setting 'orthorhombic'
loop_
_space_group_symop_operation_xyz
x,y,z
1/2-x,1/2-y,1/2+z
1/2+x,1/2-y,-z
-x,y,1/2-z
-x,-y,-z
1/2+x,1/2+y,1/2-z
1/2-x,1/2+y,z
x,-y,1/2+z
loop_
_atom_site_type_symbol
_atom_site_label
_atom_site_fract_x
_atom_site_fract_y
_atom_site_fract_z
Si Si1 0.257913 0.105442 0.565526
Si Si2 0.346439 0.033420 0.973941
Si Si3 0.022966 0.924322 0.384660
Si Si4 0.210932 0.259641 0.325303
Si Si5 0.102304 0.381856 0.746999
Si Si6 0.000000 0.308890 0.750000
Si Si7 0.823910 0.938213 0.875574
Si Si8 0.127120 0.114363 0.835224
O O1 0.238381 0.185704 0.440941
O O2 0.257835 0.176196 0.710380
O O3 0.308231 0.059716 0.527847
O O4 0.225474 0.992175 0.588319
O O5 0.319447 0.141006 0.900153
O O6 0.379453 0.970328 0.864496
O O7 0.374839 0.081005 0.103345
O O8 0.076834 0.932336 0.373406
O O9 0.000000 0.977971 0.250000
O O10 0.007957 0.785066 0.376758
O O11 0.000000 0.000000 0.500000
O O12 0.181165 0.168973 0.233051
O O13 0.047316 0.378049 0.735643
O O14 0.119889 0.250127 0.788061
O O15 0.851767 0.039683 0.792164
O O16 0.844621 0.899064 0.022674
#
# Coordination Sequence:
#
# PCOD9458440 Si02
#       8
#     8   8   8   8   8   4   8   8
#     4  12  26  45  63  97 132 174 223 273 337 391
#     4  12  26  45  69  96 129 182 225 277 326 400
#     4   9  18  37  63  95 129 169 212 267 335 389
#     4  12  26  42  66  94 131 175 225 272 332 392
#     4  11  25  46  70  96 134 172 228 276 334 400
#     4   8  22  42  68  96 132 176 212 280 340 390
#     4  12  25  42  63  98 132 176 217 269 336 394
#     4  11  24  40  67  98 135 170 218 275 330 403
#
# _framework density 18.850549000000001
#
# number of rings (size 3 to 8) (size 9 to 14) (size 15 to 20)
#    0.400    0.533    2.667    4.000    5.600    0.533 
#    0.000    0.000    0.000    0.000    0.000    0.000 
#    0.000    0.000    0.000    0.000    0.000    0.000 
#
# Total GULP energy -335136.904663 kJ/mol
# GULP energy per Si atom -5585.615078 kJ/mol
# Density = 1.880764 g / cm^3
# Si number density = 18.850549 Si / 1000 Ang^3
#
#
#
# Elastic Constant Matrix: (Units=GPa)
#
#
# Indices 1 2 3 4 5 6 
#
# 1 92.7493 22.0213 31.3184 0.0000 0.0000 0.0000
# 2 22.0213 56.1954 25.3616 0.0000 0.0000 0.0000
# 3 31.3184 25.3616 118.8009 0.0000 0.0000 0.0000
# 4 0.0000 0.0000 0.0000 42.2302 0.0000 0.0000
# 5 0.0000 0.0000 0.0000 0.0000 24.7301 0.0000
# 6 0.0000 0.0000 0.0000 0.0000 0.0000 32.5225
#
#
#
# Elastic Compliance Matrix: (Units=1/GPa)
#
#
# Indices 1 2 3 4 5 6 
#
# 1 0.012522 -0.003781 -0.002494 0.000000 0.000000 0.000000
# 2 -0.003781 0.020834 -0.003451 0.000000 0.000000 0.000000
# 3 -0.002494 -0.003451 0.009812 0.000000 0.000000 0.000000
# 4 0.000000 0.000000 0.000000 0.023680 0.000000 0.000000
# 5 0.000000 0.000000 0.000000 0.000000 0.040437 0.000000
# 6 0.000000 0.000000 0.000000 0.000000 0.000000 0.030748
#
#
# Mechanical properties :
#
#
# Convention : Reuss Voigt Hill
#
# Bulk Modulus (GPa) = 42.16651 47.23870 44.70261
# Shear Modulus (GPa) = 30.23179 32.49949 31.36564
#
# Velocity S-wave (km/s) = 4.00904 4.15669 4.08353
# Velocity P-wave (km/s) = 6.62173 6.93912 6.78228
#
# Compressibility (1/GPa) = 0.02371550
#
# Stress axis : x y z
#
# Youngs Moduli (GPa) = 79.86197 47.99780 101.92095
#
# Poissons Ratio (x) = 0.18150 0.25416
# Poissons Ratio (y) = 0.30199 0.35171
# Poissons Ratio (z) = 0.19915 0.16563
#
# Static dielectric constant tensor:
#      x y z
#    x 1.639960 0.000000 0.000000 
#    y 0.000000 2.113750 0.000000 
#    z 0.000000 0.000000 1.592160 
# 
# From -- ./inp_files/8481.got.cif
#   From: 2010.05.17/outbox.cif.g08.bks.cpg/sg60_5_cif.got.tgz:8481.got - 2010.06.03 14:59:27.
