data_PCOD9458980
_publ_section_title
;
Structure prediction by ZEFSAII (Michael W. Deem and Ramdas Pophale) SiO2 
 PCOD9458980
Probable space group: P B C A
;
_chemical_formula_sum "Si O2"
_cell_formula_units_Z 48
_cell_length_a 5.901691
_cell_length_b 24.107910
_cell_length_c 17.754331
_cell_angle_alpha 90.000000
_cell_angle_beta 90.000000
_cell_angle_gamma 90.000000
_cell_volume 2526.040683
_symmetry_space_group_name_H-M "P B C A"
_symmetry_group_IT_number 61
_symmetry_cell_setting 'orthorhombic'
loop_
_space_group_symop_operation_xyz
x,y,z
1/2-x,-y,1/2+z
1/2+x,1/2-y,-z
-x,1/2+y,1/2-z
-x,-y,-z
1/2+x,y,1/2-z
1/2-x,1/2+y,z
x,1/2-y,1/2+z
loop_
_atom_site_type_symbol
_atom_site_label
_atom_site_fract_x
_atom_site_fract_y
_atom_site_fract_z
Si Si1 0.490030 0.359318 0.788932
Si Si2 0.031413 0.381413 0.966507
Si Si3 0.691212 0.291033 0.911736
Si Si4 0.086689 0.815198 0.055371
Si Si5 0.643506 0.425478 0.058419
Si Si6 0.893975 0.453491 0.600763
O O1 0.735741 0.354333 0.746632
O O2 0.506602 0.311296 0.852458
O O3 0.495830 0.418936 0.830843
O O4 0.867374 0.341675 0.919445
O O5 0.147131 0.427210 0.914263
O O6 0.898071 0.412083 0.033468
O O7 0.214961 0.342201 0.005505
O O8 0.812404 0.233308 0.893705
O O9 0.583873 0.287323 0.995198
O O10 0.962821 0.868753 0.090304
O O11 0.613767 0.480502 0.107008
O O12 0.525616 0.438299 0.977014
#
# Coordination Sequence:
#
# PCOD9458980 Si02
#       6
#     8   8   8   8   8   8
#     4  12  26  41  60  86 124 173 208 244 293 378
#     4  10  16  31  53  89 115 149 181 254 333 368
#     4  11  20  34  56  85 123 152 207 249 318 377
#     4  10  19  31  57  87 114 151 187 266 324 361
#     4   9  19  32  56  89 114 148 189 265 328 365
#     4  10  19  35  55  82 121 148 201 252 314 371
#
# _framework density 19.002068000000001
#
# number of rings (size 3 to 8) (size 9 to 14) (size 15 to 20)
#    0.000    1.667    6.667    1.500    0.000    0.000 
#    0.000    0.000    0.000    2.000    0.000    0.000 
#    0.000    0.000    0.000    0.000    0.000    0.000 
#
# Total GULP energy -267412.430850 kJ/mol
# GULP energy per Si atom -5571.092309 kJ/mol
# Density = 1.895882 g / cm^3
# Si number density = 19.002068 Si / 1000 Ang^3
#
#
#
# Elastic Constant Matrix: (Units=GPa)
#
#
# Indices 1 2 3 4 5 6 
#
# 1 80.6941 31.7226 12.8580 0.0000 0.0000 0.0000
# 2 31.7226 139.4557 24.4129 0.0000 0.0000 0.0000
# 3 12.8580 24.4129 24.1886 0.0000 0.0000 0.0000
# 4 0.0000 0.0000 0.0000 19.8502 0.0000 0.0000
# 5 0.0000 0.0000 0.0000 0.0000 27.5950 0.0000
# 6 0.0000 0.0000 0.0000 0.0000 0.0000 19.9260
#
#
#
# Elastic Compliance Matrix: (Units=1/GPa)
#
#
# Indices 1 2 3 4 5 6 
#
# 1 0.014125 -0.002306 -0.005181 0.000000 0.000000 0.000000
# 2 -0.002306 0.009086 -0.007944 0.000000 0.000000 0.000000
# 3 -0.005181 -0.007944 0.052114 0.000000 0.000000 0.000000
# 4 0.000000 0.000000 0.000000 0.050377 0.000000 0.000000
# 5 0.000000 0.000000 0.000000 0.000000 0.036238 0.000000
# 6 0.000000 0.000000 0.000000 0.000000 0.000000 0.050186
#
#
# Mechanical properties :
#
#
# Convention : Reuss Voigt Hill
#
# Bulk Modulus (GPa) = 22.49119 42.48060 32.48589
# Shear Modulus (GPa) = 19.39419 25.16390 22.27905
#
# Velocity S-wave (km/s) = 3.19821 3.64300 3.42783
# Velocity P-wave (km/s) = 5.04974 6.33242 5.72711
#
# Compressibility (1/GPa) = 0.04446186
#
# Stress axis : x y z
#
# Youngs Moduli (GPa) = 70.79870 110.05878 19.18875
#
# Poissons Ratio (x) = 0.25380 0.09941
# Poissons Ratio (y) = 0.16326 0.15244
# Poissons Ratio (z) = 0.36679 0.87436
#
# Static dielectric constant tensor:
#      x y z
#    x 1.748940 0.000000 0.000000 
#    y 0.000000 1.667740 0.000000 
#    z 0.000000 0.000000 1.674300 
# 
# From -- ./inp_files/977.got.cif
#   From: 2010.05.17/outbox.cif.g08.bks.cpg/sg61_1_cif.got.tgz:977.got - 2010.06.03 15:17:17.
