data_PCOD9458243
_publ_section_title
;
Structure prediction by ZEFSAII (Michael W. Deem and Ramdas Pophale) SiO2 
 PCOD9458243
Probable space group: P B C N
;
_chemical_formula_sum "Si O2"
_cell_formula_units_Z 64
_cell_length_a 15.936090
_cell_length_b 11.695064
_cell_length_c 17.217583
_cell_angle_alpha 90.000000
_cell_angle_beta 90.000000
_cell_angle_gamma 90.000000
_cell_volume 3208.902797
_symmetry_space_group_name_H-M "P B C N"
_symmetry_group_IT_number 60
_symmetry_cell_setting 'orthorhombic'
loop_
_space_group_symop_operation_xyz
x,y,z
1/2-x,1/2-y,1/2+z
1/2+x,1/2-y,-z
-x,y,1/2-z
-x,-y,-z
1/2+x,1/2+y,1/2-z
1/2-x,1/2+y,z
x,-y,1/2+z
loop_
_atom_site_type_symbol
_atom_site_label
_atom_site_fract_x
_atom_site_fract_y
_atom_site_fract_z
Si Si1 0.941160 0.335813 0.825620
Si Si2 0.077884 0.628959 0.453894
Si Si3 0.193268 0.160757 0.620149
Si Si4 0.463676 0.235590 0.621404
Si Si5 0.716343 0.289289 0.022816
Si Si6 0.370563 0.894120 0.386811
Si Si7 0.582761 0.538362 0.453724
Si Si8 0.851394 0.429475 0.289271
O O1 0.866975 0.244139 0.831219
O O2 0.898008 0.460099 0.823674
O O3 0.000000 0.323656 0.750000
O O4 0.001348 0.328929 0.900736
O O5 0.064835 0.670378 0.541946
O O6 0.165067 0.691153 0.432100
O O7 0.089966 0.494782 0.439602
O O8 0.243831 0.234679 0.555551
O O9 0.261957 0.095074 0.671843
O O10 0.132574 0.069592 0.579007
O O11 0.560401 0.203226 0.627284
O O12 0.446072 0.369086 0.610701
O O13 0.409889 0.178390 0.689083
O O14 0.791205 0.341514 0.071488
O O15 0.649291 0.388601 0.004092
O O16 0.347674 0.944675 0.302922
O O17 0.500000 0.500000 0.500000
#
# Coordination Sequence:
#
# PCOD9458243 Si02
#       8
#     8   8   8   8   8   8   8   8
#     4  12  25  45  69  98 141 183 233 283 344 422
#     4  11  22  41  67  99 131 176 234 283 333 412
#     4  12  25  44  72 100 138 183 224 287 348 413
#     4  11  23  43  69  99 131 179 228 278 350 415
#     4  11  24  42  70 104 132 177 239 281 345 411
#     4  12  24  40  69 100 135 177 226 293 342 407
#     4  11  23  45  68  98 137 172 229 288 337 407
#     4  12  25  44  66 103 141 172 227 288 349 409
#
# _framework density 19.944512
#
# number of rings (size 3 to 8) (size 9 to 14) (size 15 to 20)
#    0.000    0.500    5.000    5.250    3.500    0.000 
#    0.000    1.250    0.000    0.000    0.000    0.000 
#    0.000    0.000    0.000    0.000    0.000    0.000 
#
# Total GULP energy -357913.423595 kJ/mol
# GULP energy per Si atom -5592.397244 kJ/mol
# Density = 1.989912 g / cm^3
# Si number density = 19.944512 Si / 1000 Ang^3
#
#
#
# Elastic Constant Matrix: (Units=GPa)
#
#
# Indices 1 2 3 4 5 6 
#
# 1 144.5957 46.1177 25.1865 0.0000 0.0000 0.0000
# 2 46.1177 85.3512 16.1237 0.0000 0.0000 0.0000
# 3 25.1865 16.1237 68.7112 0.0000 0.0000 0.0000
# 4 0.0000 0.0000 0.0000 17.9675 0.0000 0.0000
# 5 0.0000 0.0000 0.0000 0.0000 22.9554 0.0000
# 6 0.0000 0.0000 0.0000 0.0000 0.0000 57.8658
#
#
#
# Elastic Compliance Matrix: (Units=1/GPa)
#
#
# Indices 1 2 3 4 5 6 
#
# 1 0.008655 -0.004266 -0.002171 0.000000 0.000000 0.000000
# 2 -0.004266 0.014363 -0.001807 0.000000 0.000000 0.000000
# 3 -0.002171 -0.001807 0.015774 0.000000 0.000000 0.000000
# 4 0.000000 0.000000 0.000000 0.055656 0.000000 0.000000
# 5 0.000000 0.000000 0.000000 0.000000 0.043563 0.000000
# 6 0.000000 0.000000 0.000000 0.000000 0.000000 0.017281
#
#
# Mechanical properties :
#
#
# Convention : Reuss Voigt Hill
#
# Bulk Modulus (GPa) = 44.83747 52.61267 48.72507
# Shear Modulus (GPa) = 27.89969 33.83976 30.86972
#
# Velocity S-wave (km/s) = 3.74420 4.12356 3.93845
# Velocity P-wave (km/s) = 6.42043 7.00775 6.72051
#
# Compressibility (1/GPa) = 0.02230277
#
# Stress axis : x y z
#
# Youngs Moduli (GPa) = 115.54389 69.62474 63.39743
#
# Poissons Ratio (x) = 0.29703 0.13766
# Poissons Ratio (y) = 0.49293 0.11453
# Poissons Ratio (z) = 0.25089 0.12578
#
# Static dielectric constant tensor:
#      x y z
#    x 1.705150 0.000000 0.000000 
#    y 0.000000 1.707000 0.000000 
#    z 0.000000 0.000000 1.710400 
# 
# From -- ./inp_files/20656.got.cif
#   From: 2010.05.17/outbox.cif.g08.bks.cpg/sg60_11_cif.got.tgz:20656.got - 2010.06.03 14:59:27.
