data_PCOD9458874
_publ_section_title
;
Structure prediction by ZEFSAII (Michael W. Deem and Ramdas Pophale) SiO2 
 PCOD9458874
Probable space group: P B C N
;
_chemical_formula_sum "Si O2"
_cell_formula_units_Z 48
_cell_length_a 15.000000
_cell_length_b 9.000000
_cell_length_c 18.000000
_cell_angle_alpha 90.000000
_cell_angle_beta 90.000000
_cell_angle_gamma 90.000000
_cell_volume 2430.000000
_symmetry_space_group_name_H-M "P B C N"
_symmetry_group_IT_number 60
_symmetry_cell_setting 'orthorhombic'
loop_
_space_group_symop_operation_xyz
x,y,z
1/2-x,1/2-y,1/2+z
1/2+x,1/2-y,-z
-x,y,1/2-z
-x,-y,-z
1/2+x,1/2+y,1/2-z
1/2-x,1/2+y,z
x,-y,1/2+z
loop_
_atom_site_type_symbol
_atom_site_label
_atom_site_fract_x
_atom_site_fract_y
_atom_site_fract_z
Si Si1 0.150032 0.672829 0.900274
Si Si2 0.996102 0.915744 0.078116
Si Si3 0.459769 0.898927 0.173476
Si Si4 0.314146 0.497848 0.845412
Si Si5 0.092364 0.917747 0.703818
Si Si6 0.428668 0.902659 0.545234
O O1 0.218947 0.567652 0.859336
O O2 0.181316 0.837662 0.883582
O O3 0.049081 0.659089 0.869252
O O4 0.148855 0.632715 0.987142
O O5 0.023250 0.748350 0.065629
O O6 0.898747 0.920533 0.116431
O O7 0.069714 0.993661 0.130130
O O8 0.000000 0.000000 0.000000
O O9 0.500000 0.962245 0.250000
O O10 0.398414 0.757032 0.189397
O O11 0.408811 0.011834 0.120798
O O12 0.333633 0.481080 0.758112
O O13 0.000000 0.926632 0.750000
O O14 0.500000 0.000000 0.500000
#
# Coordination Sequence:
#
# PCOD9458874 Si02
#       6
#     8   8   8   8   8   8
#     4  11  22  41  60  92 128 164 211 272 326 379
#     4  11  19  39  67  87 119 167 215 256 310 400
#     4  10  18  39  67  87 125 167 215 268 319 385
#     4  11  23  39  66  91 126 168 216 266 332 377
#     4   9  18  39  65  88 115 171 216 251 309 397
#     4  10  22  36  61  96 121 166 217 254 319 387
#
# _framework density 19.753086
#
# number of rings (size 3 to 8) (size 9 to 14) (size 15 to 20)
#    0.000    1.667    6.667    1.000    4.667    2.000 
#    0.000    1.667    0.000    0.000    0.000    0.000 
#    0.000    0.000    0.000    0.000    0.000    0.000 
#
# Total GULP energy -267650.740258 kJ/mol
# GULP energy per Si atom -5576.057089 kJ/mol
# Density = 1.970813 g / cm^3
# Si number density = 19.753086 Si / 1000 Ang^3
#
#
#
# Elastic Constant Matrix: (Units=GPa)
#
#
# Indices 1 2 3 4 5 6 
#
# 1 16.8347 17.2327 -2.7035 0.0000 0.0000 0.0000
# 2 17.2327 73.0468 64.1597 0.0000 0.0000 0.0000
# 3 -2.7035 64.1597 124.4268 0.0000 0.0000 0.0000
# 4 0.0000 0.0000 0.0000 30.0210 0.0000 0.0000
# 5 0.0000 0.0000 0.0000 0.0000 6.9921 0.0000
# 6 0.0000 0.0000 0.0000 0.0000 0.0000 9.9134
#
#
#
# Elastic Compliance Matrix: (Units=1/GPa)
#
#
# Indices 1 2 3 4 5 6 
#
# 1 0.123547 -0.057585 0.032378 0.000000 0.000000 0.000000
# 2 -0.057585 0.051863 -0.027994 0.000000 0.000000 0.000000
# 3 0.032378 -0.027994 0.023175 0.000000 0.000000 0.000000
# 4 0.000000 0.000000 0.000000 0.033310 0.000000 0.000000
# 5 0.000000 0.000000 0.000000 0.000000 0.143018 0.000000
# 6 0.000000 0.000000 0.000000 0.000000 0.000000 0.100874
#
#
# Mechanical properties :
#
#
# Convention : Reuss Voigt Hill
#
# Bulk Modulus (GPa) = 10.84800 41.29843 26.07322
# Shear Modulus (GPa) = 8.15772 18.42660 13.29216
#
# Velocity S-wave (km/s) = 2.03441 3.05757 2.59688
# Velocity P-wave (km/s) = 3.31996 5.78080 4.71380
#
# Compressibility (1/GPa) = 0.09218287
#
# Stress axis : x y z
#
# Youngs Moduli (GPa) = 8.09409 19.28160 43.14963
#
# Poissons Ratio (x) = 1.11033 -1.39708
# Poissons Ratio (y) = 0.46610 1.20793
# Poissons Ratio (z) = -0.26207 0.53977
#
# Static dielectric constant tensor:
#      x y z
#    x 1.636880 0.000000 0.000000 
#    y 0.000000 1.680360 0.000000 
#    z 0.000000 0.000000 1.762260 
# 
# From -- ./inp_files/20476.got.cif
#   From: 2010.05.17/outbox.ucp.g08.bks.cvg/sg60_11_cif.got.tgz:20476.got - 2010.06.11 16:26:41.
