data_PCOD9458965
_publ_section_title
;
Structure prediction by ZEFSAII (Michael W. Deem and Ramdas Pophale) SiO2 
 PCOD9458965
Probable space group: P B C A
;
_chemical_formula_sum "Si O2"
_cell_formula_units_Z 48
_cell_length_a 11.424224
_cell_length_b 5.256551
_cell_length_c 32.406614
_cell_angle_alpha 90.000000
_cell_angle_beta 90.000000
_cell_angle_gamma 90.000000
_cell_volume 1946.082505
_symmetry_space_group_name_H-M "P B C A"
_symmetry_group_IT_number 61
_symmetry_cell_setting 'orthorhombic'
loop_
_space_group_symop_operation_xyz
x,y,z
1/2-x,-y,1/2+z
1/2+x,1/2-y,-z
-x,1/2+y,1/2-z
-x,-y,-z
1/2+x,y,1/2-z
1/2-x,1/2+y,z
x,1/2-y,1/2+z
loop_
_atom_site_type_symbol
_atom_site_label
_atom_site_fract_x
_atom_site_fract_y
_atom_site_fract_z
Si Si1 0.676922 0.836612 0.155832
Si Si2 0.624805 0.248293 0.352769
Si Si3 0.887819 0.247096 0.387755
Si Si4 0.822507 0.246734 0.062112
Si Si5 0.669719 0.875581 0.977184
Si Si6 0.988688 0.670224 0.276109
O O1 0.781391 0.627551 0.160465
O O2 0.638142 0.803720 0.108156
O O3 0.587177 0.748706 0.190797
O O4 0.750686 0.277488 0.374811
O O5 0.568581 0.524095 0.358541
O O6 0.627737 0.174701 0.304819
O O7 0.562569 0.018899 0.376572
O O8 0.899933 0.172206 0.435110
O O9 0.714818 0.451834 0.058566
O O10 0.893754 0.320722 0.020802
O O11 0.771167 0.654421 0.975715
O O12 0.012131 0.394381 0.257327
#
# Coordination Sequence:
#
# PCOD9458965 Si02
#       6
#     8   8   8   8   8   8
#     4  10  21  43  64  87 114 157 203 241 292 354
#     4  10  20  35  54  80 117 150 185 234 298 345
#     4  10  17  33  55  86 115 153 187 221 285 354
#     4   8  16  27  52  83 109 149 191 235 269 324
#     4  10  14  25  48  84 117 143 193 229 264 337
#     4  12  26  45  61  88 118 152 195 258 312 346
#
# _framework density 24.664935
#
# number of rings (size 3 to 8) (size 9 to 14) (size 15 to 20)
#    0.000    2.000    3.333    2.000    0.000    0.000 
#   18.000    0.000    0.000    2.000    0.000    0.000 
#    0.000    0.000    0.000    0.000    0.000    0.000 
#
# Total GULP energy -268001.173065 kJ/mol
# GULP energy per Si atom -5583.357772 kJ/mol
# Density = 2.460880 g / cm^3
# Si number density = 24.664935 Si / 1000 Ang^3
#
#
#
# Elastic Constant Matrix: (Units=GPa)
#
#
# Indices 1 2 3 4 5 6 
#
# 1 31.0132 7.9782 19.7095 0.0000 0.0000 0.0000
# 2 7.9782 111.5832 -21.2440 0.0000 0.0000 0.0000
# 3 19.7095 -21.2440 114.2684 0.0000 0.0000 0.0000
# 4 0.0000 0.0000 0.0000 57.2339 0.0000 0.0000
# 5 0.0000 0.0000 0.0000 0.0000 27.2861 0.0000
# 6 0.0000 0.0000 0.0000 0.0000 0.0000 33.8001
#
#
#
# Elastic Compliance Matrix: (Units=1/GPa)
#
#
# Indices 1 2 3 4 5 6 
#
# 1 0.037944 -0.004104 -0.007308 0.000000 0.000000 0.000000
# 2 -0.004104 0.009735 0.002518 0.000000 0.000000 0.000000
# 3 -0.007308 0.002518 0.010480 0.000000 0.000000 0.000000
# 4 0.000000 0.000000 0.000000 0.017472 0.000000 0.000000
# 5 0.000000 0.000000 0.000000 0.000000 0.036649 0.000000
# 6 0.000000 0.000000 0.000000 0.000000 0.000000 0.029586
#
#
# Mechanical properties :
#
#
# Convention : Reuss Voigt Hill
#
# Bulk Modulus (GPa) = 24.77077 29.97246 27.37161
# Shear Modulus (GPa) = 28.88314 40.35875 34.62095
#
# Velocity S-wave (km/s) = 3.42573 4.04948 3.75060
# Velocity P-wave (km/s) = 5.07072 5.83461 5.46603
#
# Compressibility (1/GPa) = 0.04037016
#
# Stress axis : x y z
#
# Youngs Moduli (GPa) = 26.35432 102.72501 95.42079
#
# Poissons Ratio (x) = 0.42162 0.69732
# Poissons Ratio (y) = 0.10817 -0.24025
# Poissons Ratio (z) = 0.19259 -0.25864
#
# Static dielectric constant tensor:
#      x y z
#    x 2.520640 0.000000 0.000000 
#    y 0.000000 1.965800 0.000000 
#    z 0.000000 0.000000 1.989550 
# 
# From -- ./inp_files/11491.got.cif
#   From: 2010.05.17/outbox.cif.g08.bks.cpg/sg61_6_cif.got.tgz:11491.got - 2010.06.03 15:17:17.
