data_PCOD9458810
_publ_section_title
;
Structure prediction by ZEFSAII (Michael W. Deem and Ramdas Pophale) SiO2 
 PCOD9458810
Probable space group: P B C N
;
_chemical_formula_sum "Si O2"
_cell_formula_units_Z 28
_cell_length_a 11.137576
_cell_length_b 11.102387
_cell_length_c 9.370224
_cell_angle_alpha 90.000000
_cell_angle_beta 90.000000
_cell_angle_gamma 90.000000
_cell_volume 1158.662671
_symmetry_space_group_name_H-M "P B C N"
_symmetry_group_IT_number 60
_symmetry_cell_setting 'orthorhombic'
loop_
_space_group_symop_operation_xyz
x,y,z
1/2-x,1/2-y,1/2+z
1/2+x,1/2-y,-z
-x,y,1/2-z
-x,-y,-z
1/2+x,1/2+y,1/2-z
1/2-x,1/2+y,z
x,-y,1/2+z
loop_
_atom_site_type_symbol
_atom_site_label
_atom_site_fract_x
_atom_site_fract_y
_atom_site_fract_z
Si Si1 0.000000 0.987421 0.250000
Si Si2 0.335464 0.289011 0.393734
Si Si3 0.757644 0.105167 0.345667
Si Si4 0.567857 0.090551 0.893347
O O1 0.925436 0.894642 0.151701
O O2 0.896329 0.069152 0.320123
O O3 0.235064 0.348673 0.493605
O O4 0.287645 0.206277 0.265060
O O5 0.397889 0.200208 0.506191
O O6 0.682960 0.982555 0.334031
O O7 0.500000 0.127045 0.750000
O O8 0.500000 0.000000 0.000000
#
# Coordination Sequence:
#
# PCOD9458810 Si02
#       4
#     4   8   8   8
#     4  12  28  54  76 122 162 204 274 330 394 490
#     4  12  27  49  81 109 157 205 262 317 407 462
#     4  12  28  51  78 116 156 207 263 334 397 480
#     4  12  26  49  76 108 154 202 261 327 395 474
#
# _framework density 24.165790999999999
#
# number of rings (size 3 to 8) (size 9 to 14) (size 15 to 20)
#    0.000    0.000    2.857    6.000    6.000    2.286 
#    0.000    0.000    0.000    0.000    0.000    0.000 
#    0.000    0.000    0.000    0.000    0.000    0.000 
#
# Total GULP energy -156868.896611 kJ/mol
# GULP energy per Si atom -5602.460593 kJ/mol
# Density = 2.411079 g / cm^3
# Si number density = 24.165791 Si / 1000 Ang^3
#
#
#
# Elastic Constant Matrix: (Units=GPa)
#
#
# Indices 1 2 3 4 5 6 
#
# 1 94.5368 28.7497 42.1914 0.0000 0.0000 0.0000
# 2 28.7497 102.9115 35.8184 0.0000 0.0000 0.0000
# 3 42.1914 35.8184 164.9831 0.0000 0.0000 0.0000
# 4 0.0000 0.0000 0.0000 57.1713 0.0000 0.0000
# 5 0.0000 0.0000 0.0000 0.0000 46.2321 0.0000
# 6 0.0000 0.0000 0.0000 0.0000 0.0000 32.4761
#
#
#
# Elastic Compliance Matrix: (Units=1/GPa)
#
#
# Indices 1 2 3 4 5 6 
#
# 1 0.012545 -0.002583 -0.002647 0.000000 0.000000 0.000000
# 2 -0.002583 0.011043 -0.001737 0.000000 0.000000 0.000000
# 3 -0.002647 -0.001737 0.007115 0.000000 0.000000 0.000000
# 4 0.000000 0.000000 0.000000 0.017491 0.000000 0.000000
# 5 0.000000 0.000000 0.000000 0.000000 0.021630 0.000000
# 6 0.000000 0.000000 0.000000 0.000000 0.000000 0.030792
#
#
# Mechanical properties :
#
#
# Convention : Reuss Voigt Hill
#
# Bulk Modulus (GPa) = 59.63505 63.99450 61.81477
# Shear Modulus (GPa) = 41.61771 44.22070 42.91920
#
# Velocity S-wave (km/s) = 4.15441 4.28236 4.21887
# Velocity P-wave (km/s) = 6.90965 7.14076 7.02615
#
# Compressibility (1/GPa) = 0.01676866
#
# Stress axis : x y z
#
# Youngs Moduli (GPa) = 79.71334 90.55285 140.54178
#
# Poissons Ratio (x) = 0.23392 0.37206
# Poissons Ratio (y) = 0.20592 0.24411
# Poissons Ratio (z) = 0.21103 0.15728
#
# Static dielectric constant tensor:
#      x y z
#    x 2.033590 0.000000 0.000000 
#    y 0.000000 2.665070 0.000000 
#    z 0.000000 0.000000 1.956180 
# 
# From -- ./inp_files/4426.got.cif
#   From: 2010.05.17/outbox.cif.g08.bks.cpg/sg60_3_cif.got.tgz:4426.got - 2010.06.03 14:59:27.
