data_PCOD9458505
_publ_section_title
;
Structure prediction by ZEFSAII (Michael W. Deem and Ramdas Pophale) SiO2 
 PCOD9458505
Probable space group: P B C N
;
_chemical_formula_sum "Si O2"
_cell_formula_units_Z 36
_cell_length_a 7.679363
_cell_length_b 9.109700
_cell_length_c 21.482459
_cell_angle_alpha 90.000000
_cell_angle_beta 90.000000
_cell_angle_gamma 90.000000
_cell_volume 1502.841792
_symmetry_space_group_name_H-M "P B C N"
_symmetry_group_IT_number 60
_symmetry_cell_setting 'orthorhombic'
loop_
_space_group_symop_operation_xyz
x,y,z
1/2-x,1/2-y,1/2+z
1/2+x,1/2-y,-z
-x,y,1/2-z
-x,-y,-z
1/2+x,1/2+y,1/2-z
1/2-x,1/2+y,z
x,-y,1/2+z
loop_
_atom_site_type_symbol
_atom_site_label
_atom_site_fract_x
_atom_site_fract_y
_atom_site_fract_z
Si Si1 0.912460 0.455489 0.853624
Si Si2 0.771157 0.799436 0.428339
Si Si3 0.406024 0.635654 0.439287
Si Si4 0.500000 0.760506 0.750000
Si Si5 0.220423 0.882662 0.358800
O O1 0.782453 0.583200 0.875363
O O2 0.902687 0.327026 0.905510
O O3 0.875181 0.366977 0.790599
O O4 0.102747 0.526110 0.845641
O O5 0.593639 0.710368 0.442082
O O6 0.829071 0.876186 0.491805
O O7 0.398934 0.483729 0.402462
O O8 0.288455 0.745980 0.398682
O O9 0.383787 0.667275 0.797807
#
# Coordination Sequence:
#
# PCOD9458505 Si02
#       5
#     8   8   8   4   8
#     4  11  27  48  73 114 146 200 243 311 367 446
#     4  11  26  45  79 112 153 188 252 305 390 443
#     4  11  24  45  74 115 148 193 241 316 377 449
#     4  12  28  48  78 102 152 200 254 304 360 450
#     4  11  25  48  74 108 151 195 248 307 374 441
#
# _framework density 23.954616999999999
#
# number of rings (size 3 to 8) (size 9 to 14) (size 15 to 20)
#    0.000    0.889    2.222    2.667    6.222    5.333 
#    0.000    0.000    0.000    0.000    0.000    0.000 
#    0.000    0.000    0.000    0.000    0.000    0.000 
#
# Total GULP energy -201789.464570 kJ/mol
# GULP energy per Si atom -5605.262905 kJ/mol
# Density = 2.390010 g / cm^3
# Si number density = 23.954617 Si / 1000 Ang^3
#
#
#
# Elastic Constant Matrix: (Units=GPa)
#
#
# Indices 1 2 3 4 5 6 
#
# 1 147.9718 52.6255 74.6449 0.0000 0.0000 0.0000
# 2 52.6255 153.1987 82.6199 0.0000 0.0000 0.0000
# 3 74.6449 82.6199 170.7674 0.0000 0.0000 0.0000
# 4 0.0000 0.0000 0.0000 62.6172 0.0000 0.0000
# 5 0.0000 0.0000 0.0000 0.0000 41.6238 0.0000
# 6 0.0000 0.0000 0.0000 0.0000 0.0000 41.6970
#
#
#
# Elastic Compliance Matrix: (Units=1/GPa)
#
#
# Indices 1 2 3 4 5 6 
#
# 1 0.008855 -0.001291 -0.003246 0.000000 0.000000 0.000000
# 2 -0.001291 0.009020 -0.003800 0.000000 0.000000 0.000000
# 3 -0.003246 -0.003800 0.009113 0.000000 0.000000 0.000000
# 4 0.000000 0.000000 0.000000 0.015970 0.000000 0.000000
# 5 0.000000 0.000000 0.000000 0.000000 0.024025 0.000000
# 6 0.000000 0.000000 0.000000 0.000000 0.000000 0.023983
#
#
# Mechanical properties :
#
#
# Convention : Reuss Voigt Hill
#
# Bulk Modulus (GPa) = 96.95116 99.07984 98.01550
# Shear Modulus (GPa) = 45.01396 46.65744 45.83570
#
# Velocity S-wave (km/s) = 4.33960 4.41811 4.37903
# Velocity P-wave (km/s) = 8.10372 8.21447 8.15928
#
# Compressibility (1/GPa) = 0.01031447
#
# Stress axis : x y z
#
# Youngs Moduli (GPa) = 112.93574 110.86245 109.73292
#
# Poissons Ratio (x) = 0.14315 0.35617
# Poissons Ratio (y) = 0.14583 0.41695
# Poissons Ratio (z) = 0.36656 0.42124
#
# Static dielectric constant tensor:
#      x y z
#    x 1.934510 0.000000 0.000000 
#    y 0.000000 1.937880 0.000000 
#    z 0.000000 0.000000 1.876450 
# 
# From -- ./inp_files/21902.got.cif
#   From: 2010.05.17/outbox.cif.g08.bks.cpg/sg60_11_cif.got.tgz:21902.got - 2010.06.03 14:59:27.
