data_PCOD9458424
_publ_section_title
;
Structure prediction by ZEFSAII (Michael W. Deem and Ramdas Pophale) SiO2 
 PCOD9458424
Probable space group: P B C N
;
_chemical_formula_sum "Si O2"
_cell_formula_units_Z 28
_cell_length_a 5.620724
_cell_length_b 19.517391
_cell_length_c 11.066162
_cell_angle_alpha 90.000000
_cell_angle_beta 90.000000
_cell_angle_gamma 90.000000
_cell_volume 1213.978643
_symmetry_space_group_name_H-M "P B C N"
_symmetry_group_IT_number 60
_symmetry_cell_setting 'orthorhombic'
loop_
_space_group_symop_operation_xyz
x,y,z
1/2-x,1/2-y,1/2+z
1/2+x,1/2-y,-z
-x,y,1/2-z
-x,-y,-z
1/2+x,1/2+y,1/2-z
1/2-x,1/2+y,z
x,-y,1/2+z
loop_
_atom_site_type_symbol
_atom_site_label
_atom_site_fract_x
_atom_site_fract_y
_atom_site_fract_z
Si Si1 0.720189 0.287491 0.971282
Si Si2 0.500000 0.653844 0.250000
Si Si3 0.916278 0.407123 0.123596
Si Si4 0.200124 0.957258 0.930329
O O1 0.685738 0.303468 0.829371
O O2 0.473324 0.249891 0.007334
O O3 0.741865 0.356241 0.052299
O O4 0.378181 0.604198 0.346239
O O5 0.810540 0.482099 0.150664
O O6 0.000000 0.375715 0.250000
O O7 0.124220 0.425139 0.029233
O O8 0.000000 0.000000 0.000000
#
# Coordination Sequence:
#
# PCOD9458424 Si02
#       4
#     8   4   8   8
#     4  12  30  55  78 116 159 223 270 320 397 482
#     4  12  26  54  82 110 162 202 270 340 398 476
#     4  11  26  47  76 116 157 199 263 327 399 483
#     4  11  23  47  78 119 151 201 256 335 417 466
#
# _framework density 23.064654999999998
#
# number of rings (size 3 to 8) (size 9 to 14) (size 15 to 20)
#    0.000    0.571    2.857    3.429    6.000    3.429 
#    5.143    0.000    0.000    0.000    0.000    0.000 
#    0.000    0.000    0.000    0.000    0.000    0.000 
#
# Total GULP energy -156634.362639 kJ/mol
# GULP energy per Si atom -5594.084380 kJ/mol
# Density = 2.301216 g / cm^3
# Si number density = 23.064655 Si / 1000 Ang^3
#
#
#
# Elastic Constant Matrix: (Units=GPa)
#
#
# Indices 1 2 3 4 5 6 
#
# 1 116.4684 66.4977 32.7405 0.0000 0.0000 0.0000
# 2 66.4977 102.5150 44.4449 0.0000 0.0000 0.0000
# 3 32.7405 44.4449 99.8012 0.0000 0.0000 0.0000
# 4 0.0000 0.0000 0.0000 48.3814 0.0000 0.0000
# 5 0.0000 0.0000 0.0000 0.0000 31.4878 0.0000
# 6 0.0000 0.0000 0.0000 0.0000 0.0000 54.8575
#
#
#
# Elastic Compliance Matrix: (Units=1/GPa)
#
#
# Indices 1 2 3 4 5 6 
#
# 1 0.013672 -0.008580 -0.000664 0.000000 0.000000 0.000000
# 2 -0.008580 0.017474 -0.004967 0.000000 0.000000 0.000000
# 3 -0.000664 -0.004967 0.012450 0.000000 0.000000 0.000000
# 4 0.000000 0.000000 0.000000 0.020669 0.000000 0.000000
# 5 0.000000 0.000000 0.000000 0.000000 0.031758 0.000000
# 6 0.000000 0.000000 0.000000 0.000000 0.000000 0.018229
#
#
# Mechanical properties :
#
#
# Convention : Reuss Voigt Hill
#
# Bulk Modulus (GPa) = 65.90773 67.35010 66.62892
# Shear Modulus (GPa) = 33.84514 38.61877 36.23195
#
# Velocity S-wave (km/s) = 3.83483 4.09635 3.96774
# Velocity P-wave (km/s) = 6.94587 7.18591 7.06691
#
# Compressibility (1/GPa) = 0.01517273
#
# Stress axis : x y z
#
# Youngs Moduli (GPa) = 73.14384 57.22833 80.32376
#
# Poissons Ratio (x) = 0.49105 0.05333
# Poissons Ratio (y) = 0.62761 0.39895
# Poissons Ratio (z) = 0.04856 0.28424
#
# Static dielectric constant tensor:
#      x y z
#    x 1.921310 0.000000 0.000000 
#    y 0.000000 1.944900 0.000000 
#    z 0.000000 0.000000 1.819610 
# 
# From -- ./inp_files/8751.got.cif
#   From: 2010.05.17/outbox.cif.g08.bks.cpg/sg60_5_cif.got.tgz:8751.got - 2010.06.03 14:59:27.
