data_PCOD9458398
_publ_section_title
;
Structure prediction by ZEFSAII (Michael W. Deem and Ramdas Pophale) SiO2 
 PCOD9458398
Probable space group: P B C N
;
_chemical_formula_sum "Si O2"
_cell_formula_units_Z 40
_cell_length_a 16.943136
_cell_length_b 10.769021
_cell_length_c 8.875367
_cell_angle_alpha 90.000000
_cell_angle_beta 90.000000
_cell_angle_gamma 90.000000
_cell_volume 1619.408226
_symmetry_space_group_name_H-M "P B C N"
_symmetry_group_IT_number 60
_symmetry_cell_setting 'orthorhombic'
loop_
_space_group_symop_operation_xyz
x,y,z
1/2-x,1/2-y,1/2+z
1/2+x,1/2-y,-z
-x,y,1/2-z
-x,-y,-z
1/2+x,1/2+y,1/2-z
1/2-x,1/2+y,z
x,-y,1/2+z
loop_
_atom_site_type_symbol
_atom_site_label
_atom_site_fract_x
_atom_site_fract_y
_atom_site_fract_z
Si Si1 0.921233 0.764969 0.153430
Si Si2 0.559555 0.541655 0.123277
Si Si3 0.814011 0.780671 0.638127
Si Si4 0.199283 0.378560 0.640318
Si Si5 0.418584 0.107075 0.652041
O O1 0.900467 0.910571 0.157742
O O2 0.852657 0.700455 0.244562
O O3 0.000000 0.751401 0.250000
O O4 0.934517 0.693524 0.994359
O O5 0.500000 0.593871 0.250000
O O6 0.618489 0.640629 0.057040
O O7 0.500000 0.500000 0.000000
O O8 0.774013 0.699232 0.507045
O O9 0.775413 0.884081 0.749813
O O10 0.860069 0.683576 0.741421
O O11 0.138692 0.491231 0.602130
O O12 0.500000 0.078004 0.750000
#
# Coordination Sequence:
#
# PCOD9458398 Si02
#       5
#     8   8   8   8   8
#     4  11  24  46  75 112 147 193 255 308 380 456
#     4  11  23  44  76 107 140 191 247 309 374 451
#     4  12  27  48  75 109 157 200 260 321 389 463
#     4  12  28  47  72 108 150 204 249 320 388 451
#     4  12  26  50  81 113 153 203 260 318 385 472
#
# _framework density 24.700381
#
# number of rings (size 3 to 8) (size 9 to 14) (size 15 to 20)
#    0.000    0.400    0.000    9.600    2.800    2.400 
#    7.200    3.000    0.000    0.000    0.000    0.000 
#    0.000    0.000    0.000    0.000    0.000    0.000 
#
# Total GULP energy -223253.013836 kJ/mol
# GULP energy per Si atom -5581.325346 kJ/mol
# Density = 2.464416 g / cm^3
# Si number density = 24.700381 Si / 1000 Ang^3
#
#
#
# Elastic Constant Matrix: (Units=GPa)
#
#
# Indices 1 2 3 4 5 6 
#
# 1 42.4450 13.2293 23.3844 0.0000 0.0000 0.0000
# 2 13.2293 83.4518 18.8296 0.0000 0.0000 0.0000
# 3 23.3844 18.8296 130.0760 0.0000 0.0000 0.0000
# 4 0.0000 0.0000 0.0000 36.4272 0.0000 0.0000
# 5 0.0000 0.0000 0.0000 0.0000 49.0535 0.0000
# 6 0.0000 0.0000 0.0000 0.0000 0.0000 26.4887
#
#
#
# Elastic Compliance Matrix: (Units=1/GPa)
#
#
# Indices 1 2 3 4 5 6 
#
# 1 0.026997 -0.003292 -0.004377 0.000000 0.000000 0.000000
# 2 -0.003292 0.012789 -0.001259 0.000000 0.000000 0.000000
# 3 -0.004377 -0.001259 0.008657 0.000000 0.000000 0.000000
# 4 0.000000 0.000000 0.000000 0.027452 0.000000 0.000000
# 5 0.000000 0.000000 0.000000 0.000000 0.020386 0.000000
# 6 0.000000 0.000000 0.000000 0.000000 0.000000 0.037752
#
#
# Mechanical properties :
#
#
# Convention : Reuss Voigt Hill
#
# Bulk Modulus (GPa) = 32.69438 40.76216 36.72827
# Shear Modulus (GPa) = 30.84787 35.76253 33.30520
#
# Velocity S-wave (km/s) = 3.53779 3.80919 3.67600
# Velocity P-wave (km/s) = 5.47294 5.99042 5.73751
#
# Compressibility (1/GPa) = 0.03058629
#
# Stress axis : x y z
#
# Youngs Moduli (GPa) = 37.04062 78.19189 115.51368
#
# Poissons Ratio (x) = 0.25743 0.50559
# Poissons Ratio (y) = 0.12195 0.14549
# Poissons Ratio (z) = 0.16212 0.09848
#
# Static dielectric constant tensor:
#      x y z
#    x -9.726150 0.000000 0.000000 
#    y 0.000000 1.930140 0.000000 
#    z 0.000000 0.000000 2.198400 
# 
# From -- ./inp_files/6512.got.cif
#   From: 2010.05.17/outbox.cif.g08.bks.cpg/sg60_4_cif.got.tgz:6512.got - 2010.06.03 14:59:27.
