data_PCOD9458793
_publ_section_title
;
Structure prediction by ZEFSAII (Michael W. Deem and Ramdas Pophale) SiO2 
 PCOD9458793
Probable space group: P B C N
;
_chemical_formula_sum "Si O2"
_cell_formula_units_Z 24
_cell_length_a 8.709789
_cell_length_b 5.862074
_cell_length_c 15.396718
_cell_angle_alpha 90.000000
_cell_angle_beta 90.000000
_cell_angle_gamma 90.000000
_cell_volume 786.116815
_symmetry_space_group_name_H-M "P B C N"
_symmetry_group_IT_number 60
_symmetry_cell_setting 'orthorhombic'
loop_
_space_group_symop_operation_xyz
x,y,z
1/2-x,1/2-y,1/2+z
1/2+x,1/2-y,-z
-x,y,1/2-z
-x,-y,-z
1/2+x,1/2+y,1/2-z
1/2-x,1/2+y,z
x,-y,1/2+z
loop_
_atom_site_type_symbol
_atom_site_label
_atom_site_fract_x
_atom_site_fract_y
_atom_site_fract_z
Si Si1 0.576619 0.395866 0.414518
Si Si2 0.864514 0.294188 0.306562
Si Si3 0.693459 0.140786 0.136651
O O1 0.500000 0.500000 0.500000
O O2 0.743875 0.860550 0.389597
O O3 0.739239 0.111893 0.602701
O O4 0.482557 0.170191 0.392252
O O5 0.756257 0.675242 0.238079
O O6 0.000000 0.411568 0.250000
O O7 0.965414 0.086039 0.344009
#
# Coordination Sequence:
#
# PCOD9458793 Si02
#       3
#     8   8   8
#     4  12  30  50  83 139 182 236 301 402 464 534
#     4  12  25  50  85 121 168 244 304 362 447 566
#     4  12  27  54  86 126 176 236 307 365 451 560
#
# _framework density 30.529813000000001
#
# number of rings (size 3 to 8) (size 9 to 14) (size 15 to 20)
#    0.000    0.000    6.667    1.000    9.333    0.000 
#    0.000    5.000    0.000    0.000    0.000    0.000 
#    0.000    0.000    0.000    0.000    0.000    0.000 
#
# Total GULP energy -133841.514235 kJ/mol
# GULP energy per Si atom -5576.729760 kJ/mol
# Density = 3.046033 g / cm^3
# Si number density = 30.529813 Si / 1000 Ang^3
#
#
#
# Elastic Constant Matrix: (Units=GPa)
#
#
# Indices 1 2 3 4 5 6 
#
# 1 248.1242 69.5800 52.6628 0.0000 0.0000 0.0000
# 2 69.5800 154.9754 2.0781 0.0000 0.0000 0.0000
# 3 52.6628 2.0781 64.1845 0.0000 0.0000 0.0000
# 4 0.0000 0.0000 0.0000 -204.8710 0.0000 0.0000
# 5 0.0000 0.0000 0.0000 0.0000 64.7229 0.0000
# 6 0.0000 0.0000 0.0000 0.0000 0.0000 79.5477
#
#
#
# Elastic Compliance Matrix: (Units=1/GPa)
#
#
# Indices 1 2 3 4 5 6 
#
# 1 0.005709 -0.002501 -0.004603 0.000000 0.000000 0.000000
# 2 -0.002501 0.007551 0.001808 0.000000 0.000000 0.000000
# 3 -0.004603 0.001808 0.019298 0.000000 0.000000 0.000000
# 4 0.000000 0.000000 0.000000 -0.004881 0.000000 0.000000
# 5 0.000000 0.000000 0.000000 0.000000 0.015450 0.000000
# 6 0.000000 0.000000 0.000000 0.000000 0.000000 0.012571
#
#
# Mechanical properties :
#
#
# Convention : Reuss Voigt Hill
#
# Bulk Modulus (GPa) = 45.52604 79.54729 62.53666
# Shear Modulus (GPa) = 67.92268 10.74415 39.33342
#
# Velocity S-wave (km/s) = 4.72189 1.87800 3.59327
# Velocity P-wave (km/s) = 6.68377 5.55110 6.14359
#
# Compressibility (1/GPa) = 0.02196545
#
# Stress axis : x y z
#
# Youngs Moduli (GPa) = 175.17463 132.42556 51.81842
#
# Poissons Ratio (x) = 0.33123 0.23851
# Poissons Ratio (y) = 0.43816 -0.09368
# Poissons Ratio (z) = 0.80630 -0.23940
#
# Static dielectric constant tensor:
#      x y z
#    x 2.712810 0.000000 0.000000 
#    y 0.000000 2.827200 0.000000 
#    z 0.000000 0.000000 2.138240 
# 
# From -- ./inp_files/9332.got.cif
#   From: 2010.05.17/outbox.cif.g08.bks.cpg/sg60_5_cif.got.tgz:9332.got - 2010.06.03 14:59:27.
