data_PCOD9458665
_publ_section_title
;
Structure prediction by ZEFSAII (Michael W. Deem and Ramdas Pophale) SiO2 
 PCOD9458665
Probable space group: P B C N
;
_chemical_formula_sum "Si O2"
_cell_formula_units_Z 40
_cell_length_a 6.337167
_cell_length_b 17.202989
_cell_length_c 16.471321
_cell_angle_alpha 90.000000
_cell_angle_beta 90.000000
_cell_angle_gamma 90.000000
_cell_volume 1795.674001
_symmetry_space_group_name_H-M "P B C N"
_symmetry_group_IT_number 60
_symmetry_cell_setting 'orthorhombic'
loop_
_space_group_symop_operation_xyz
x,y,z
1/2-x,1/2-y,1/2+z
1/2+x,1/2-y,-z
-x,y,1/2-z
-x,-y,-z
1/2+x,1/2+y,1/2-z
1/2-x,1/2+y,z
x,-y,1/2+z
loop_
_atom_site_type_symbol
_atom_site_label
_atom_site_fract_x
_atom_site_fract_y
_atom_site_fract_z
Si Si1 0.111405 0.180907 0.661884
Si Si2 0.000000 0.379005 0.250000
Si Si3 0.500000 0.397319 0.750000
Si Si4 0.621351 0.577360 0.526252
Si Si5 0.166211 0.351922 0.628559
Si Si6 0.823321 0.488060 0.649322
O O1 0.360295 0.166907 0.683742
O O2 0.068441 0.266584 0.625694
O O3 0.000000 0.176052 0.750000
O O4 0.015954 0.121803 0.595042
O O5 0.157629 0.442260 0.287125
O O6 0.316654 0.350083 0.707133
O O7 0.608514 0.446660 0.678128
O O8 0.500000 0.500000 0.500000
O O9 0.697474 0.629638 0.451648
O O10 0.823634 0.537679 0.567676
O O11 0.002122 0.422192 0.644517
#
# Coordination Sequence:
#
# PCOD9458665 Si02
#       6
#     8   4   4   8   8   8
#     4  12  27  49  71 106 151 192 241 305 374 441
#     4  12  23  44  78 103 138 192 242 288 361 440
#     4  12  21  44  72 103 144 180 244 294 353 432
#     4  12  26  47  73 104 147 189 243 311 360 429
#     4  12  27  45  73 107 145 192 242 301 373 432
#     4  12  23  44  75 103 139 193 243 290 359 439
#
# _framework density 22.275759000000001
#
# number of rings (size 3 to 8) (size 9 to 14) (size 15 to 20)
#    0.000    0.000    6.000    4.800    0.000    3.200 
#    3.600    0.000    0.000    0.000    0.000    0.000 
#    0.000    0.000    0.000    0.000    0.000    0.000 
#
# Total GULP energy -223178.158000 kJ/mol
# GULP energy per Si atom -5579.453950 kJ/mol
# Density = 2.222506 g / cm^3
# Si number density = 22.275759 Si / 1000 Ang^3
#
#
#
# Elastic Constant Matrix: (Units=GPa)
#
#
# Indices 1 2 3 4 5 6 
#
# 1 58.3026 29.5206 16.7609 0.0000 0.0000 0.0000
# 2 29.5206 147.6507 59.3850 0.0000 0.0000 0.0000
# 3 16.7609 59.3850 114.7922 0.0000 0.0000 0.0000
# 4 0.0000 0.0000 0.0000 40.8421 0.0000 0.0000
# 5 0.0000 0.0000 0.0000 0.0000 38.2769 0.0000
# 6 0.0000 0.0000 0.0000 0.0000 0.0000 21.3480
#
#
#
# Elastic Compliance Matrix: (Units=1/GPa)
#
#
# Indices 1 2 3 4 5 6 
#
# 1 0.019180 -0.003420 -0.001031 0.000000 0.000000 0.000000
# 2 -0.003420 0.009162 -0.004240 0.000000 0.000000 0.000000
# 3 -0.001031 -0.004240 0.011056 0.000000 0.000000 0.000000
# 4 0.000000 0.000000 0.000000 0.024485 0.000000 0.000000
# 5 0.000000 0.000000 0.000000 0.000000 0.026125 0.000000
# 6 0.000000 0.000000 0.000000 0.000000 0.000000 0.046843
#
#
# Mechanical properties :
#
#
# Convention : Reuss Voigt Hill
#
# Bulk Modulus (GPa) = 45.42479 59.11981 52.27230
# Shear Modulus (GPa) = 30.94600 34.43200 32.68900
#
# Velocity S-wave (km/s) = 3.73127 3.93583 3.83491
# Velocity P-wave (km/s) = 6.24496 6.87400 6.56701
#
# Compressibility (1/GPa) = 0.02201441
#
# Stress axis : x y z
#
# Youngs Moduli (GPa) = 52.13761 109.14644 90.45168
#
# Poissons Ratio (x) = 0.37328 0.09328
# Poissons Ratio (y) = 0.17831 0.38355
# Poissons Ratio (z) = 0.05377 0.46282
#
# Static dielectric constant tensor:
#      x y z
#    x 1.515770 0.000000 0.000000 
#    y 0.000000 1.810040 0.000000 
#    z 0.000000 0.000000 1.212770 
# 
# From -- ./inp_files/18568.got.cif
#   From: 2010.05.17/outbox.cif.g08.bks.cpg/sg60_10_cif.got.tgz:18568.got - 2010.06.03 14:59:27.
