data_PCOD9458384
_publ_section_title
;
Structure prediction by ZEFSAII (Michael W. Deem and Ramdas Pophale) SiO2 
 PCOD9458384
Probable space group: P B C N
;
_chemical_formula_sum "Si O2"
_cell_formula_units_Z 44
_cell_length_a 8.680633
_cell_length_b 15.133031
_cell_length_c 14.616798
_cell_angle_alpha 90.000000
_cell_angle_beta 90.000000
_cell_angle_gamma 90.000000
_cell_volume 1920.125266
_symmetry_space_group_name_H-M "P B C N"
_symmetry_group_IT_number 60
_symmetry_cell_setting 'orthorhombic'
loop_
_space_group_symop_operation_xyz
x,y,z
1/2-x,1/2-y,1/2+z
1/2+x,1/2-y,-z
-x,y,1/2-z
-x,-y,-z
1/2+x,1/2+y,1/2-z
1/2-x,1/2+y,z
x,-y,1/2+z
loop_
_atom_site_type_symbol
_atom_site_label
_atom_site_fract_x
_atom_site_fract_y
_atom_site_fract_z
Si Si1 0.000000 0.588414 0.250000
Si Si2 0.634468 0.224782 0.127481
Si Si3 0.321138 0.519570 0.980946
Si Si4 0.625396 0.186309 0.519740
Si Si5 0.842353 0.082413 0.711655
Si Si6 0.888205 0.567565 0.874140
O O1 0.128535 0.653649 0.291651
O O2 0.049280 0.524188 0.167608
O O3 0.487248 0.209332 0.062655
O O4 0.620081 0.322442 0.169292
O O5 0.788713 0.231325 0.066484
O O6 0.259754 0.617388 0.010022
O O7 0.213314 0.453760 0.037040
O O8 0.500000 0.500000 0.000000
O O9 0.292947 0.520556 0.872240
O O10 0.020644 0.365233 0.405066
O O11 0.720463 0.098358 0.791582
O O12 0.000000 0.043477 0.750000
#
# Coordination Sequence:
#
# PCOD9458384 Si02
#       6
#     4   8   8   8   8   8
#     4  12  24  46  78 108 142 194 252 308 370 456
#     4  11  26  45  73 107 149 195 253 302 384 454
#     4  11  23  43  74 112 141 191 250 305 378 450
#     4  11  27  48  73 107 150 203 243 317 385 458
#     4  11  24  45  74 108 149 196 243 310 380 458
#     4  12  26  49  79 106 155 194 254 318 384 443
#
# _framework density 22.91517
#
# number of rings (size 3 to 8) (size 9 to 14) (size 15 to 20)
#    0.000    0.727    4.545    2.727    5.091    0.000 
#    0.000    0.000    4.000    0.000    0.000    0.000 
#    0.000    0.000    0.000    0.000    0.000    0.000 
#
# Total GULP energy -246152.824829 kJ/mol
# GULP energy per Si atom -5594.382382 kJ/mol
# Density = 2.286301 g / cm^3
# Si number density = 22.915170 Si / 1000 Ang^3
#
#
#
# Elastic Constant Matrix: (Units=GPa)
#
#
# Indices 1 2 3 4 5 6 
#
# 1 141.3610 56.5291 54.6018 0.0000 0.0000 0.0000
# 2 56.5291 90.9332 59.6045 0.0000 0.0000 0.0000
# 3 54.6018 59.6045 128.3635 0.0000 0.0000 0.0000
# 4 0.0000 0.0000 0.0000 49.1951 0.0000 0.0000
# 5 0.0000 0.0000 0.0000 0.0000 40.3600 0.0000
# 6 0.0000 0.0000 0.0000 0.0000 0.0000 49.4232
#
#
#
# Elastic Compliance Matrix: (Units=1/GPa)
#
#
# Indices 1 2 3 4 5 6 
#
# 1 0.009730 -0.004796 -0.001912 0.000000 0.000000 0.000000
# 2 -0.004796 0.018172 -0.006398 0.000000 0.000000 0.000000
# 3 -0.001912 -0.006398 0.011575 0.000000 0.000000 0.000000
# 4 0.000000 0.000000 0.000000 0.020327 0.000000 0.000000
# 5 0.000000 0.000000 0.000000 0.000000 0.024777 0.000000
# 6 0.000000 0.000000 0.000000 0.000000 0.000000 0.020233
#
#
# Mechanical properties :
#
#
# Convention : Reuss Voigt Hill
#
# Bulk Modulus (GPa) = 75.38462 78.01428 76.69945
# Shear Modulus (GPa) = 36.91439 40.45716 38.68577
#
# Velocity S-wave (km/s) = 4.01797 4.20637 4.11325
# Velocity P-wave (km/s) = 7.38202 7.59671 7.49013
#
# Compressibility (1/GPa) = 0.01326530
#
# Stress axis : x y z
#
# Youngs Moduli (GPa) = 102.77082 55.02943 86.39508
#
# Poissons Ratio (x) = 0.26389 0.16521
# Poissons Ratio (y) = 0.49284 0.55277
# Poissons Ratio (z) = 0.19652 0.35209
#
# Static dielectric constant tensor:
#      x y z
#    x 1.900990 0.000000 0.000000 
#    y 0.000000 1.867610 0.000000 
#    z 0.000000 0.000000 1.898330 
# 
# From -- ./inp_files/16010.got.cif
#   From: 2010.05.17/outbox.cif.g08.bks.cpg/sg60_9_cif.got.tgz:16010.got - 2010.06.03 14:59:27.
