data_PCOD9458061
_publ_section_title
;
Structure prediction by ZEFSAII (Michael W. Deem and Ramdas Pophale) SiO2 
 PCOD9458061
Probable space group: P B C N
;
_chemical_formula_sum "Si O2"
_cell_formula_units_Z 40
_cell_length_a 18.371121
_cell_length_b 8.972353
_cell_length_c 11.006976
_cell_angle_alpha 90.000000
_cell_angle_beta 90.000000
_cell_angle_gamma 90.000000
_cell_volume 1814.303878
_symmetry_space_group_name_H-M "P B C N"
_symmetry_group_IT_number 60
_symmetry_cell_setting 'orthorhombic'
loop_
_space_group_symop_operation_xyz
x,y,z
1/2-x,1/2-y,1/2+z
1/2+x,1/2-y,-z
-x,y,1/2-z
-x,-y,-z
1/2+x,1/2+y,1/2-z
1/2-x,1/2+y,z
x,-y,1/2+z
loop_
_atom_site_type_symbol
_atom_site_label
_atom_site_fract_x
_atom_site_fract_y
_atom_site_fract_z
Si Si1 0.550854 0.097225 0.408745
Si Si2 0.416949 0.184016 0.715801
Si Si3 0.661983 0.258509 0.040033
Si Si4 0.816805 0.594395 0.574400
Si Si5 0.524892 0.410158 0.120452
O O1 0.627476 0.130712 0.468150
O O2 0.512698 0.250118 0.386177
O O3 0.500000 0.000000 0.500000
O O4 0.570010 0.992943 0.297642
O O5 0.500000 0.233372 0.750000
O O6 0.382725 0.242308 0.588639
O O7 0.353090 0.187923 0.814958
O O8 0.738105 0.345213 0.038345
O O9 0.609553 0.365350 0.119019
O O10 0.677325 0.087674 0.084923
O O11 0.500000 0.473864 0.250000
O O12 0.500000 0.500000 0.000000
#
# Coordination Sequence:
#
# PCOD9458061 Si02
#       5
#     8   8   8   8   8
#     4  11  20  43  76 103 133 188 253 295 351 446
#     4  11  20  42  78 100 136 192 248 297 359 447
#     4  11  26  46  66 111 140 188 240 299 377 438
#     4  11  24  42  70 103 147 180 235 295 371 437
#     4  12  27  48  73 105 147 191 252 308 366 438
#
# _framework density 22.047024
#
# number of rings (size 3 to 8) (size 9 to 14) (size 15 to 20)
#    0.000    0.800    6.000    1.800    2.800    7.200 
#    3.600    0.000    0.000    0.000    0.000    0.000 
#    0.000    0.000    0.000    0.000    0.000    0.000 
#
# Total GULP energy -223120.255666 kJ/mol
# GULP energy per Si atom -5578.006392 kJ/mol
# Density = 2.199684 g / cm^3
# Si number density = 22.047024 Si / 1000 Ang^3
#
#
#
# Elastic Constant Matrix: (Units=GPa)
#
#
# Indices 1 2 3 4 5 6 
#
# 1 221.5227 45.2448 60.4106 0.0000 0.0000 0.0000
# 2 45.2448 103.5429 42.6290 0.0000 0.0000 0.0000
# 3 60.4106 42.6290 107.2767 0.0000 0.0000 0.0000
# 4 0.0000 0.0000 0.0000 12.2484 0.0000 0.0000
# 5 0.0000 0.0000 0.0000 0.0000 34.8247 0.0000
# 6 0.0000 0.0000 0.0000 0.0000 0.0000 29.7305
#
#
#
# Elastic Compliance Matrix: (Units=1/GPa)
#
#
# Indices 1 2 3 4 5 6 
#
# 1 0.005486 -0.001345 -0.002555 0.000000 0.000000 0.000000
# 2 -0.001345 0.011877 -0.003962 0.000000 0.000000 0.000000
# 3 -0.002555 -0.003962 0.012335 0.000000 0.000000 0.000000
# 4 0.000000 0.000000 0.000000 0.081643 0.000000 0.000000
# 5 0.000000 0.000000 0.000000 0.000000 0.028715 0.000000
# 6 0.000000 0.000000 0.000000 0.000000 0.000000 0.033635
#
#
# Mechanical properties :
#
#
# Convention : Reuss Voigt Hill
#
# Bulk Modulus (GPa) = 71.56426 80.99012 76.27719
# Shear Modulus (GPa) = 25.76359 34.29794 30.03077
#
# Velocity S-wave (km/s) = 3.42215 3.94848 3.69470
# Velocity P-wave (km/s) = 6.93867 7.58961 7.27143
#
# Compressibility (1/GPa) = 0.01397346
#
# Stress axis : x y z
#
# Youngs Moduli (GPa) = 182.29497 84.19744 81.07289
#
# Poissons Ratio (x) = 0.11327 0.20710
# Poissons Ratio (y) = 0.24525 0.32121
# Poissons Ratio (z) = 0.46567 0.33359
#
# Static dielectric constant tensor:
#      x y z
#    x 1.783220 0.000000 0.000000 
#    y 0.000000 1.842140 0.000000 
#    z 0.000000 0.000000 1.941270 
# 
# From -- ./inp_files/12315.got.cif
#   From: 2010.05.17/outbox.cif.g08.bks.cpg/sg60_7_cif.got.tgz:12315.got - 2010.06.03 14:59:27.
