data_PCOD9458467
_publ_section_title
;
Structure prediction by ZEFSAII (Michael W. Deem and Ramdas Pophale) SiO2 
 PCOD9458467
Probable space group: P B C N
;
_chemical_formula_sum "Si O2"
_cell_formula_units_Z 40
_cell_length_a 8.741355
_cell_length_b 23.551074
_cell_length_c 7.631599
_cell_angle_alpha 90.000000
_cell_angle_beta 90.000000
_cell_angle_gamma 90.000000
_cell_volume 1571.104301
_symmetry_space_group_name_H-M "P B C N"
_symmetry_group_IT_number 60
_symmetry_cell_setting 'orthorhombic'
loop_
_space_group_symop_operation_xyz
x,y,z
1/2-x,1/2-y,1/2+z
1/2+x,1/2-y,-z
-x,y,1/2-z
-x,-y,-z
1/2+x,1/2+y,1/2-z
1/2-x,1/2+y,z
x,-y,1/2+z
loop_
_atom_site_type_symbol
_atom_site_label
_atom_site_fract_x
_atom_site_fract_y
_atom_site_fract_z
Si Si1 0.647980 0.728242 0.367998
Si Si2 0.842991 0.431860 0.150278
Si Si3 0.841003 0.176104 0.735048
Si Si4 0.174004 0.385272 0.733346
Si Si5 0.378499 0.468847 0.875500
O O1 0.500000 0.741969 0.250000
O O2 0.614404 0.714815 0.568794
O O3 0.768841 0.779526 0.368511
O O4 0.723852 0.669893 0.299711
O O5 0.789733 0.369231 0.201565
O O6 0.717896 0.478606 0.201232
O O7 0.000000 0.445375 0.250000
O O8 0.837028 0.427092 0.937464
O O9 0.000000 0.142130 0.750000
O O10 0.246875 0.420946 0.895649
O O11 0.000000 0.366031 0.750000
O O12 0.500000 0.437390 0.750000
O O13 0.500000 0.500000 0.000000
#
# Coordination Sequence:
#
# PCOD9458467 Si02
#       5
#     8   8   8   8   8
#     4  11  24  43  69  98 137 178 226 283 342 411
#     4  11  26  44  67  98 137 178 226 281 341 411
#     4  11  24  44  68 101 135 177 228 280 344 408
#     4  11  26  44  67  98 136 178 225 281 345 406
#     4  12  25  45  70  99 134 176 228 280 342 407
#
# _framework density 25.459797999999999
#
# number of rings (size 3 to 8) (size 9 to 14) (size 15 to 20)
#    0.000    0.800    2.000    4.200    5.600    8.000 
#    0.000    0.000    0.000    0.000    0.000    0.000 
#    0.000    0.000    0.000    0.000    0.000    0.000 
#
# Total GULP energy -223447.271788 kJ/mol
# GULP energy per Si atom -5586.181795 kJ/mol
# Density = 2.540185 g / cm^3
# Si number density = 25.459798 Si / 1000 Ang^3
#
#
#
# Elastic Constant Matrix: (Units=GPa)
#
#
# Indices 1 2 3 4 5 6 
#
# 1 171.1283 17.7910 12.1832 0.0000 0.0000 0.0000
# 2 17.7910 57.0138 -15.6153 0.0000 0.0000 0.0000
# 3 12.1832 -15.6153 31.1032 0.0000 0.0000 0.0000
# 4 0.0000 0.0000 0.0000 18.1994 0.0000 0.0000
# 5 0.0000 0.0000 0.0000 0.0000 36.0940 0.0000
# 6 0.0000 0.0000 0.0000 0.0000 0.0000 41.8317
#
#
#
# Elastic Compliance Matrix: (Units=1/GPa)
#
#
# Indices 1 2 3 4 5 6 
#
# 1 0.006463 -0.003142 -0.004109 0.000000 0.000000 0.000000
# 2 -0.003142 0.021863 0.012207 0.000000 0.000000 0.000000
# 3 -0.004109 0.012207 0.039889 0.000000 0.000000 0.000000
# 4 0.000000 0.000000 0.000000 0.054947 0.000000 0.000000
# 5 0.000000 0.000000 0.000000 0.000000 0.027705 0.000000
# 6 0.000000 0.000000 0.000000 0.000000 0.000000 0.023905
#
#
# Mechanical properties :
#
#
# Convention : Reuss Voigt Hill
#
# Bulk Modulus (GPa) = 12.79950 31.99590 22.39770
# Shear Modulus (GPa) = 26.19127 35.55078 30.87102
#
# Velocity S-wave (km/s) = 3.21086 3.74083 3.48593
# Velocity P-wave (km/s) = 4.33410 5.59043 5.00187
#
# Compressibility (1/GPa) = 0.07812806
#
# Stress axis : x y z
#
# Youngs Moduli (GPa) = 154.73263 45.73834 25.06941
#
# Poissons Ratio (x) = 0.14371 0.10301
# Poissons Ratio (y) = 0.48618 -0.30603
# Poissons Ratio (z) = 0.63579 -0.55834
#
# Static dielectric constant tensor:
#      x y z
#    x 2.866020 0.000000 0.000000 
#    y 0.000000 1.879480 0.000000 
#    z 0.000000 0.000000 4.192350 
# 
# From -- ./inp_files/3814.got.cif
#   From: 2010.05.17/outbox.cif.g08.bks.cpg/sg60_2_cif.got.tgz:3814.got - 2010.06.03 14:59:27.
