data_PCOD9458026
_publ_section_title
;
Structure prediction by ZEFSAII (Michael W. Deem and Ramdas Pophale) SiO2 
 PCOD9458026
Probable space group: P B C N
;
_chemical_formula_sum "Si O2"
_cell_formula_units_Z 56
_cell_length_a 7.112559
_cell_length_b 19.859747
_cell_length_c 20.812479
_cell_angle_alpha 90.000000
_cell_angle_beta 90.000000
_cell_angle_gamma 90.000000
_cell_volume 2939.838047
_symmetry_space_group_name_H-M "P B C N"
_symmetry_group_IT_number 60
_symmetry_cell_setting 'orthorhombic'
loop_
_space_group_symop_operation_xyz
x,y,z
1/2-x,1/2-y,1/2+z
1/2+x,1/2-y,-z
-x,y,1/2-z
-x,-y,-z
1/2+x,1/2+y,1/2-z
1/2-x,1/2+y,z
x,-y,1/2+z
loop_
_atom_site_type_symbol
_atom_site_label
_atom_site_fract_x
_atom_site_fract_y
_atom_site_fract_z
Si Si1 0.238347 0.439355 0.498719
Si Si2 0.636657 0.279556 0.488401
Si Si3 0.955407 0.880211 0.682430
Si Si4 0.640202 0.227871 0.191709
Si Si5 0.326164 0.838433 0.605655
Si Si6 0.754102 0.819011 0.084972
Si Si7 0.326891 0.419463 0.955683
O O1 0.138996 0.401470 0.558136
O O2 0.202539 0.394118 0.435287
O O3 0.458760 0.430552 0.518689
O O4 0.211642 0.517389 0.482911
O O5 0.722656 0.226234 0.438262
O O6 0.448897 0.302779 0.452358
O O7 0.612929 0.233833 0.551868
O O8 0.734004 0.347565 0.514140
O O9 0.821744 0.818244 0.703529
O O10 0.850421 0.916084 0.621884
O O11 0.000000 0.917743 0.750000
O O12 0.151693 0.856061 0.651204
O O13 0.500000 0.242253 0.250000
O O14 0.509524 0.183631 0.144126
O O15 0.709496 0.295914 0.157054
#
# Coordination Sequence:
#
# PCOD9458026 Si02
#       7
#     8   8   8   8   8   8   8
#     4   8  16  31  52  76 107 130 163 215 261 309
#     4   9  16  28  50  75 100 123 162 210 259 301
#     4  11  20  33  52  75 102 139 176 209 253 306
#     4  11  20  32  50  76 103 132 175 216 247 305
#     4   9  19  33  52  79 103 131 166 214 268 301
#     4   9  17  29  48  73  99 129 161 210 259 296
#     4   9  16  30  52  79 102 135 170 206 259 312
#
# _framework density 19.048669
#
# number of rings (size 3 to 8) (size 9 to 14) (size 15 to 20)
#    0.000    2.571    2.857    0.857    0.000    0.000 
#    0.000    1.429    0.000    0.000    0.000    2.000 
#    0.000    0.000    0.000    0.000    0.000    0.000 
#
# Total GULP energy -311776.925163 kJ/mol
# GULP energy per Si atom -5567.445092 kJ/mol
# Density = 1.900531 g / cm^3
# Si number density = 19.048669 Si / 1000 Ang^3
#
#
#
# Elastic Constant Matrix: (Units=GPa)
#
#
# Indices 1 2 3 4 5 6 
#
# 1 44.8408 2.3690 15.5406 0.0000 0.0000 0.0000
# 2 2.3690 106.4232 41.8981 0.0000 0.0000 0.0000
# 3 15.5406 41.8981 106.5895 0.0000 0.0000 0.0000
# 4 0.0000 0.0000 0.0000 16.6529 0.0000 0.0000
# 5 0.0000 0.0000 0.0000 0.0000 30.4215 0.0000
# 6 0.0000 0.0000 0.0000 0.0000 0.0000 16.2735
#
#
#
# Elastic Compliance Matrix: (Units=1/GPa)
#
#
# Indices 1 2 3 4 5 6 
#
# 1 0.023574 0.000980 -0.003822 0.000000 0.000000 0.000000
# 2 0.000980 0.011158 -0.004529 0.000000 0.000000 0.000000
# 3 -0.003822 -0.004529 0.011719 0.000000 0.000000 0.000000
# 4 0.000000 0.000000 0.000000 0.060050 0.000000 0.000000
# 5 0.000000 0.000000 0.000000 0.000000 0.032871 0.000000
# 6 0.000000 0.000000 0.000000 0.000000 0.000000 0.061450
#
#
# Mechanical properties :
#
#
# Convention : Reuss Voigt Hill
#
# Bulk Modulus (GPa) = 31.53685 41.94096 36.73890
# Shear Modulus (GPa) = 22.11090 25.87265 23.99178
#
# Velocity S-wave (km/s) = 3.41069 3.68943 3.55279
# Velocity P-wave (km/s) = 5.66588 6.34151 6.01319
#
# Compressibility (1/GPa) = 0.03170894
#
# Stress axis : x y z
#
# Youngs Moduli (GPa) = 42.41956 89.62546 85.33006
#
# Poissons Ratio (x) = -0.08784 0.32616
# Poissons Ratio (y) = -0.04157 0.38643
# Poissons Ratio (z) = 0.16214 0.40589
#
# Static dielectric constant tensor:
#      x y z
#    x 1.767540 0.000000 0.000000 
#    y 0.000000 1.667640 0.000000 
#    z 0.000000 0.000000 1.702080 
# 
# From -- ./inp_files/22406.got.cif
#   From: 2010.05.17/outbox.cif.g08.bks.cpg/sg60_12_cif.got.tgz:22406.got - 2010.06.03 14:59:27.
