data_PCOD9458394
_publ_section_title
;
Structure prediction by ZEFSAII (Michael W. Deem and Ramdas Pophale) SiO2 
 PCOD9458394
Probable space group: P B C N
;
_chemical_formula_sum "Si O2"
_cell_formula_units_Z 48
_cell_length_a 12.083728
_cell_length_b 16.287172
_cell_length_c 11.769021
_cell_angle_alpha 90.000000
_cell_angle_beta 90.000000
_cell_angle_gamma 90.000000
_cell_volume 2316.258155
_symmetry_space_group_name_H-M "P B C N"
_symmetry_group_IT_number 60
_symmetry_cell_setting 'orthorhombic'
loop_
_space_group_symop_operation_xyz
x,y,z
1/2-x,1/2-y,1/2+z
1/2+x,1/2-y,-z
-x,y,1/2-z
-x,-y,-z
1/2+x,1/2+y,1/2-z
1/2-x,1/2+y,z
x,-y,1/2+z
loop_
_atom_site_type_symbol
_atom_site_label
_atom_site_fract_x
_atom_site_fract_y
_atom_site_fract_z
Si Si1 0.625550 0.347824 0.088473
Si Si2 0.881039 0.969173 0.686493
Si Si3 0.000000 0.270644 0.750000
Si Si4 0.138317 0.656279 0.920706
Si Si5 0.985498 0.182354 0.113855
Si Si6 0.166473 0.589031 0.169339
Si Si7 0.000000 0.455213 0.250000
O O1 0.632119 0.442621 0.127962
O O2 0.534456 0.292842 0.151521
O O3 0.744077 0.312176 0.123827
O O4 0.595357 0.339936 0.955579
O O5 0.778766 0.940791 0.766743
O O6 0.000000 0.974744 0.750000
O O7 0.901855 0.894134 0.599564
O O8 0.103500 0.331805 0.724406
O O9 0.074890 0.598354 0.833526
O O10 0.061800 0.734480 0.936584
O O11 0.170548 0.610134 0.036301
O O12 0.000000 0.194648 0.250000
O O13 0.081854 0.513553 0.180865
#
# Coordination Sequence:
#
# PCOD9458394 Si02
#       7
#     8   8   4   8   8   8   4
#     4  12  24  44  71 104 143 191 245 301 369 435
#     4  11  23  44  70 103 145 186 243 304 362 439
#     4  11  24  46  71 104 142 188 241 304 358 445
#     4  12  23  44  71 102 143 192 242 303 369 440
#     4  11  24  43  66 101 143 186 242 303 364 441
#     4  11  24  46  69 102 146 190 243 303 371 433
#     4  11  24  44  69 102 144 188 249 294 368 441
#
# _framework density 20.723078999999998
#
# number of rings (size 3 to 8) (size 9 to 14) (size 15 to 20)
#    0.000    0.667    5.000    4.000    0.000    0.000 
#    0.000    1.667    0.000    0.000    0.000    0.000 
#    0.000    0.000    0.000    0.000    0.000    0.000 
#
# Total GULP energy -267791.031024 kJ/mol
# GULP energy per Si atom -5578.979813 kJ/mol
# Density = 2.067591 g / cm^3
# Si number density = 20.723079 Si / 1000 Ang^3
#
#
#
# Elastic Constant Matrix: (Units=GPa)
#
#
# Indices 1 2 3 4 5 6 
#
# 1 124.8314 45.0922 55.7677 0.0000 0.0000 0.0000
# 2 45.0922 125.1184 54.1316 0.0000 0.0000 0.0000
# 3 55.7677 54.1316 96.4185 0.0000 0.0000 0.0000
# 4 0.0000 0.0000 0.0000 14.6813 0.0000 0.0000
# 5 0.0000 0.0000 0.0000 0.0000 36.8764 0.0000
# 6 0.0000 0.0000 0.0000 0.0000 0.0000 24.6389
#
#
#
# Elastic Compliance Matrix: (Units=1/GPa)
#
#
# Indices 1 2 3 4 5 6 
#
# 1 0.011041 -0.001606 -0.005484 0.000000 0.000000 0.000000
# 2 -0.001606 0.010790 -0.005129 0.000000 0.000000 0.000000
# 3 -0.005484 -0.005129 0.016423 0.000000 0.000000 0.000000
# 4 0.000000 0.000000 0.000000 0.068114 0.000000 0.000000
# 5 0.000000 0.000000 0.000000 0.000000 0.027118 0.000000
# 6 0.000000 0.000000 0.000000 0.000000 0.000000 0.040586
#
#
# Mechanical properties :
#
#
# Convention : Reuss Voigt Hill
#
# Bulk Modulus (GPa) = 72.38267 72.92792 72.65529
# Shear Modulus (GPa) = 24.61647 27.99777 26.30712
#
# Velocity S-wave (km/s) = 3.45030 3.67964 3.56681
# Velocity P-wave (km/s) = 7.13282 7.30213 7.21797
#
# Compressibility (1/GPa) = 0.01381546
#
# Stress axis : x y z
#
# Youngs Moduli (GPa) = 90.57042 92.67560 60.89073
#
# Poissons Ratio (x) = 0.14888 0.33394
# Poissons Ratio (y) = 0.14550 0.31229
# Poissons Ratio (z) = 0.49670 0.47531
#
# Static dielectric constant tensor:
#      x y z
#    x 1.786460 0.000000 0.000000 
#    y 0.000000 1.740340 0.000000 
#    z 0.000000 0.000000 1.813940 
# 
# From -- ./inp_files/11049.got.cif
#   From: 2010.05.17/outbox.cif.g08.bks.cpg/sg60_6_cif.got.tgz:11049.got - 2010.06.03 14:59:27.
