data_PCOD9458977
_publ_section_title
;
Structure prediction by ZEFSAII (Michael W. Deem and Ramdas Pophale) SiO2 
 PCOD9458977
Probable space group: P B C A
;
_chemical_formula_sum "Si O2"
_cell_formula_units_Z 48
_cell_length_a 13.615861
_cell_length_b 26.500766
_cell_length_c 5.420415
_cell_angle_alpha 90.000000
_cell_angle_beta 90.000000
_cell_angle_gamma 90.000000
_cell_volume 1955.852389
_symmetry_space_group_name_H-M "P B C A"
_symmetry_group_IT_number 61
_symmetry_cell_setting 'orthorhombic'
loop_
_space_group_symop_operation_xyz
x,y,z
1/2-x,-y,1/2+z
1/2+x,1/2-y,-z
-x,1/2+y,1/2-z
-x,-y,-z
1/2+x,y,1/2-z
1/2-x,1/2+y,z
x,1/2-y,1/2+z
loop_
_atom_site_type_symbol
_atom_site_label
_atom_site_fract_x
_atom_site_fract_y
_atom_site_fract_z
Si Si1 0.056867 0.982142 0.751115
Si Si2 0.493616 0.231267 0.413811
Si Si3 0.229078 0.730027 0.348542
Si Si4 0.804070 0.931890 0.200345
Si Si5 0.528904 0.383348 0.910527
Si Si6 0.263556 0.886049 0.799293
O O1 0.161047 0.010752 0.762685
O O2 0.000000 0.000000 0.500000
O O3 0.049552 0.921970 0.795470
O O4 0.000000 0.000000 0.000000
O O5 0.538754 0.259565 0.645971
O O6 0.382115 0.250592 0.380540
O O7 0.491405 0.171927 0.466834
O O8 0.273317 0.740739 0.616478
O O9 0.225320 0.670825 0.288637
O O10 0.747227 0.912078 0.438102
O O11 0.909689 0.904396 0.146285
O O12 0.745353 0.917496 0.952136
O O13 0.617309 0.380660 0.713657
#
# Coordination Sequence:
#
# PCOD9458977 Si02
#       6
#     8   8   8   8   8   8
#     4  10  16  30  50  75 106 131 160 195 251 310
#     4  10  23  37  52  71 103 136 170 209 253 303
#     4  10  21  38  52  69  97 141 175 202 253 311
#     4   9  18  31  49  80 103 127 161 209 251 294
#     4   9  21  31  55  78 102 132 167 209 253 290
#     4  10  19  31  52  75 101 127 167 212 248 292
#
# _framework density 24.541727999999999
#
# number of rings (size 3 to 8) (size 9 to 14) (size 15 to 20)
#    1.000    1.333    1.667    1.000    2.333    1.333 
#    0.000    0.000    0.000    2.000    0.000    0.000 
#    0.000    0.000    0.000    0.000    0.000    0.000 
#
# Total GULP energy -267813.243130 kJ/mol
# GULP energy per Si atom -5579.442565 kJ/mol
# Density = 2.448587 g / cm^3
# Si number density = 24.541728 Si / 1000 Ang^3
#
#
#
# Elastic Constant Matrix: (Units=GPa)
#
#
# Indices 1 2 3 4 5 6 
#
# 1 54.6469 -16.4757 22.4853 0.0000 0.0000 0.0000
# 2 -16.4757 119.5290 33.2782 0.0000 0.0000 0.0000
# 3 22.4853 33.2782 186.5430 0.0000 0.0000 0.0000
# 4 0.0000 0.0000 0.0000 28.9539 0.0000 0.0000
# 5 0.0000 0.0000 0.0000 0.0000 33.6746 0.0000
# 6 0.0000 0.0000 0.0000 0.0000 0.0000 33.2347
#
#
#
# Elastic Compliance Matrix: (Units=1/GPa)
#
#
# Indices 1 2 3 4 5 6 
#
# 1 0.020729 0.003739 -0.003166 0.000000 0.000000 0.000000
# 2 0.003739 0.009478 -0.002141 0.000000 0.000000 0.000000
# 3 -0.003166 -0.002141 0.006124 0.000000 0.000000 0.000000
# 4 0.000000 0.000000 0.000000 0.034538 0.000000 0.000000
# 5 0.000000 0.000000 0.000000 0.000000 0.029696 0.000000
# 6 0.000000 0.000000 0.000000 0.000000 0.000000 0.030089
#
#
# Mechanical properties :
#
#
# Convention : Reuss Voigt Hill
#
# Bulk Modulus (GPa) = 30.12580 48.81052 39.46816
# Shear Modulus (GPa) = 34.51724 40.60135 37.55930
#
# Velocity S-wave (km/s) = 3.75436 4.07182 3.91631
# Velocity P-wave (km/s) = 5.57635 6.48369 6.04706
#
# Compressibility (1/GPa) = 0.03319414
#
# Stress axis : x y z
#
# Youngs Moduli (GPa) = 48.24172 105.51103 163.28468
#
# Poissons Ratio (x) = -0.39446 0.51688
# Poissons Ratio (y) = -0.18035 0.34966
# Poissons Ratio (z) = 0.15271 0.22594
#
# Static dielectric constant tensor:
#      x y z
#    x 1.973160 0.000000 0.000000 
#    y 0.000000 2.003500 0.000000 
#    z 0.000000 0.000000 1.964640 
# 
# From -- ./inp_files/743.got.cif
#   From: 2010.05.17/outbox.cif.g08.bks.cpg/sg61_1_cif.got.tgz:743.got - 2010.06.03 15:17:17.
