data_PCOD9458410
_publ_section_title
;
Structure prediction by ZEFSAII (Michael W. Deem and Ramdas Pophale) SiO2 
 PCOD9458410
Probable space group: P B C N
;
_chemical_formula_sum "Si O2"
_cell_formula_units_Z 48
_cell_length_a 5.966344
_cell_length_b 24.010519
_cell_length_c 15.857945
_cell_angle_alpha 90.000000
_cell_angle_beta 90.000000
_cell_angle_gamma 90.000000
_cell_volume 2271.730164
_symmetry_space_group_name_H-M "P B C N"
_symmetry_group_IT_number 60
_symmetry_cell_setting 'orthorhombic'
loop_
_space_group_symop_operation_xyz
x,y,z
1/2-x,1/2-y,1/2+z
1/2+x,1/2-y,-z
-x,y,1/2-z
-x,-y,-z
1/2+x,1/2+y,1/2-z
1/2-x,1/2+y,z
x,-y,1/2+z
loop_
_atom_site_type_symbol
_atom_site_label
_atom_site_fract_x
_atom_site_fract_y
_atom_site_fract_z
Si Si1 0.834356 0.822148 0.564271
Si Si2 0.000000 0.629782 0.750000
Si Si3 0.266482 0.613724 0.006970
Si Si4 0.000000 0.932094 0.250000
Si Si5 0.137138 0.011100 0.913661
Si Si6 0.560035 0.089738 0.153171
Si Si7 0.989945 0.295259 0.415691
O O1 0.682335 0.851474 0.634461
O O2 0.713659 0.799007 0.480957
O O3 0.979571 0.872841 0.527773
O O4 0.959415 0.769020 0.602076
O O5 0.749946 0.598661 0.744690
O O6 0.968256 0.669094 0.831402
O O7 0.155168 0.594915 0.093651
O O8 0.219185 0.565228 0.940614
O O9 0.177907 0.671569 0.969200
O O10 0.012242 0.968926 0.165054
O O11 0.290200 0.960966 0.881579
O O12 0.000000 0.000000 0.000000
O O13 0.500000 0.081752 0.250000
#
# Coordination Sequence:
#
# PCOD9458410 Si02
#       7
#     8   4   8   4   8   8   8
#     4  11  23  46  71 103 144 194 248 306 383 461
#     4  12  28  48  75 112 151 192 258 318 384 450
#     4  11  23  46  71 101 142 191 250 301 377 448
#     4  12  30  50  77 114 155 196 262 324 380 460
#     4  12  26  46  76 105 146 202 250 312 381 460
#     4  11  28  44  70 107 147 196 249 312 380 458
#     4  11  24  43  74 103 143 197 246 315 377 457
#
# _framework density 21.129268
#
# number of rings (size 3 to 8) (size 9 to 14) (size 15 to 20)
#    0.000    0.667    5.000    1.500    5.833    2.000 
#    1.500    0.000    0.000    0.000    0.000    0.000 
#    0.000    0.000    0.000    0.000    0.000    0.000 
#
# Total GULP energy -267629.928665 kJ/mol
# GULP energy per Si atom -5575.623514 kJ/mol
# Density = 2.108118 g / cm^3
# Si number density = 21.129268 Si / 1000 Ang^3
#
#
#
# Elastic Constant Matrix: (Units=GPa)
#
#
# Indices 1 2 3 4 5 6 
#
# 1 64.9788 42.8953 31.3719 0.0000 0.0000 0.0000
# 2 42.8953 134.4104 55.8733 0.0000 0.0000 0.0000
# 3 31.3719 55.8733 148.2407 0.0000 0.0000 0.0000
# 4 0.0000 0.0000 0.0000 83.5555 0.0000 0.0000
# 5 0.0000 0.0000 0.0000 0.0000 -19.4758 0.0000
# 6 0.0000 0.0000 0.0000 0.0000 0.0000 87.8196
#
#
#
# Elastic Compliance Matrix: (Units=1/GPa)
#
#
# Indices 1 2 3 4 5 6 
#
# 1 0.020071 -0.005502 -0.002174 0.000000 0.000000 0.000000
# 2 -0.005502 0.010330 -0.002729 0.000000 0.000000 0.000000
# 3 -0.002174 -0.002729 0.008235 0.000000 0.000000 0.000000
# 4 0.000000 0.000000 0.000000 0.011968 0.000000 0.000000
# 5 0.000000 0.000000 0.000000 0.000000 -0.051346 0.000000
# 6 0.000000 0.000000 0.000000 0.000000 0.000000 0.011387
#
#
# Mechanical properties :
#
#
# Convention : Reuss Voigt Hill
#
# Bulk Modulus (GPa) = 56.09774 67.54565 61.82169
# Shear Modulus (GPa) = 133.69983 44.87914 89.28948
#
# Velocity S-wave (km/s) = 7.96332 4.61372 6.50772
# Velocity P-wave (km/s) = 10.54324 7.77297 9.26226
#
# Compressibility (1/GPa) = 0.01782603
#
# Stress axis : x y z
#
# Youngs Moduli (GPa) = 49.82274 96.80322 121.43978
#
# Poissons Ratio (x) = 0.53259 0.26401
# Poissons Ratio (y) = 0.27411 0.33144
# Poissons Ratio (z) = 0.10831 0.26420
#
# Static dielectric constant tensor:
#      x y z
#    x 1.830240 0.000000 0.000000 
#    y 0.000000 1.780150 0.000000 
#    z 0.000000 0.000000 1.718010 
# 
# From -- ./inp_files/13963.got.cif
#   From: 2010.05.17/outbox.cif.g08.bks.cpg/sg60_7_cif.got.tgz:13963.got - 2010.06.03 14:59:27.
