data_PCOD9458852
_publ_section_title
;
Structure prediction by ZEFSAII (Michael W. Deem and Ramdas Pophale) SiO2 
 PCOD9458852
Probable space group: P B C N
;
_chemical_formula_sum "Si O2"
_cell_formula_units_Z 48
_cell_length_a 7.047091
_cell_length_b 19.265961
_cell_length_c 16.430304
_cell_angle_alpha 90.000000
_cell_angle_beta 90.000000
_cell_angle_gamma 90.000000
_cell_volume 2230.725621
_symmetry_space_group_name_H-M "P B C N"
_symmetry_group_IT_number 60
_symmetry_cell_setting 'orthorhombic'
loop_
_space_group_symop_operation_xyz
x,y,z
1/2-x,1/2-y,1/2+z
1/2+x,1/2-y,-z
-x,y,1/2-z
-x,-y,-z
1/2+x,1/2+y,1/2-z
1/2-x,1/2+y,z
x,-y,1/2+z
loop_
_atom_site_type_symbol
_atom_site_label
_atom_site_fract_x
_atom_site_fract_y
_atom_site_fract_z
Si Si1 0.815037 0.852704 0.357789
Si Si2 0.665837 0.780588 0.941790
Si Si3 0.770907 0.200938 0.105573
Si Si4 0.179685 0.414525 0.479213
Si Si5 0.764259 0.338813 0.182561
Si Si6 0.251372 0.066151 0.476012
O O1 0.742390 0.776089 0.383545
O O2 0.715548 0.869511 0.272537
O O3 0.797483 0.902699 0.435151
O O4 0.039782 0.845610 0.339713
O O5 0.457493 0.796409 0.907330
O O6 0.643923 0.738979 0.026189
O O7 0.766081 0.852186 0.966652
O O8 0.809710 0.256211 0.177133
O O9 0.817693 0.119484 0.094249
O O10 0.139058 0.381215 0.390661
O O11 0.296146 0.485055 0.469086
O O12 0.981558 0.431343 0.523296
#
# Coordination Sequence:
#
# PCOD9458852 Si02
#       6
#     8   8   8   8   8   8
#     4   9  17  29  45  64  85 112 147 183 217 254
#     4   8  14  26  43  61  82 109 141 174 206 246
#     4   8  14  26  43  61  82 109 141 174 206 246
#     4   9  17  29  45  66  90 115 144 177 216 262
#     4   9  17  29  45  64  85 112 147 183 217 254
#     4   9  17  29  45  66  90 115 144 177 216 262
#
# _framework density 21.517664
#
# number of rings (size 3 to 8) (size 9 to 14) (size 15 to 20)
#    0.000    3.333    0.000    0.000    0.000    1.333 
#    0.000    1.667    0.000    6.000    0.000    0.000 
#    0.000    0.000    0.000    0.000    0.000    0.000 
#
# Total GULP energy -267268.582573 kJ/mol
# GULP energy per Si atom -5568.095470 kJ/mol
# Density = 2.146869 g / cm^3
# Si number density = 21.517664 Si / 1000 Ang^3
#
#
#
# Elastic Constant Matrix: (Units=GPa)
#
#
# Indices 1 2 3 4 5 6 
#
# 1 57.6058 0.9021 -10.5382 0.0000 0.0000 0.0000
# 2 0.9021 171.7234 25.7876 0.0000 0.0000 0.0000
# 3 -10.5382 25.7876 49.6941 0.0000 0.0000 0.0000
# 4 0.0000 0.0000 0.0000 16.2414 0.0000 0.0000
# 5 0.0000 0.0000 0.0000 0.0000 19.6924 0.0000
# 6 0.0000 0.0000 0.0000 0.0000 0.0000 -2.0255
#
#
#
# Elastic Compliance Matrix: (Units=1/GPa)
#
#
# Indices 1 2 3 4 5 6 
#
# 1 0.018144 -0.000730 0.004226 0.000000 0.000000 0.000000
# 2 -0.000730 0.006345 -0.003447 0.000000 0.000000 0.000000
# 3 0.004226 -0.003447 0.022808 0.000000 0.000000 0.000000
# 4 0.000000 0.000000 0.000000 0.061571 0.000000 0.000000
# 5 0.000000 0.000000 0.000000 0.000000 0.050781 0.000000
# 6 0.000000 0.000000 0.000000 0.000000 0.000000 -0.493708
#
#
# Mechanical properties :
#
#
# Convention : Reuss Voigt Hill
#
# Bulk Modulus (GPa) = 21.09911 34.59180 27.84545
# Shear Modulus (GPa) = -15.70555 24.30645 4.30045
#
# Velocity S-wave (km/s) = -2.70458 3.36461 1.41524
# Velocity P-wave (km/s) = 0.27159 5.58614 3.95466
#
# Compressibility (1/GPa) = 0.04739537
#
# Stress axis : x y z
#
# Youngs Moduli (GPa) = 55.11473 157.60860 43.84373
#
# Poissons Ratio (x) = 0.11505 -0.18530
# Poissons Ratio (y) = 0.04023 0.15114
# Poissons Ratio (z) = -0.23294 0.54332
#
# Static dielectric constant tensor:
#      x y z
#    x 1.899940 0.000000 0.000000 
#    y 0.000000 1.823920 0.000000 
#    z 0.000000 0.000000 1.768060 
# 
# From -- ./inp_files/16241.got.cif
#   From: 2010.05.17/outbox.cif.g08.bks.cpg/sg60_9_cif.got.tgz:16241.got - 2010.06.03 14:59:27.
