data_PCOD9458490
_publ_section_title
;
Structure prediction by ZEFSAII (Michael W. Deem and Ramdas Pophale) SiO2 
 PCOD9458490
Probable space group: P B C N
;
_chemical_formula_sum "Si O2"
_cell_formula_units_Z 32
_cell_length_a 5.122905
_cell_length_b 22.968321
_cell_length_c 10.842115
_cell_angle_alpha 90.000000
_cell_angle_beta 90.000000
_cell_angle_gamma 90.000000
_cell_volume 1275.732328
_symmetry_space_group_name_H-M "P B C N"
_symmetry_group_IT_number 60
_symmetry_cell_setting 'orthorhombic'
loop_
_space_group_symop_operation_xyz
x,y,z
1/2-x,1/2-y,1/2+z
1/2+x,1/2-y,-z
-x,y,1/2-z
-x,-y,-z
1/2+x,1/2+y,1/2-z
1/2-x,1/2+y,z
x,-y,1/2+z
loop_
_atom_site_type_symbol
_atom_site_label
_atom_site_fract_x
_atom_site_fract_y
_atom_site_fract_z
Si Si1 0.185166 0.405576 0.134314
Si Si2 0.817343 0.390444 0.632983
Si Si3 0.847333 0.234602 0.079230
Si Si4 0.000000 0.189299 0.750000
Si Si5 0.500000 0.508230 0.250000
O O1 0.401189 0.355090 0.145209
O O2 0.321186 0.466796 0.165484
O O3 0.000000 0.394678 0.250000
O O4 0.052869 0.400951 0.001092
O O5 0.644692 0.332592 0.618768
O O6 0.661772 0.448929 0.663009
O O7 0.000000 0.380386 0.750000
O O8 0.726725 0.271338 0.192317
O O9 0.620552 0.243644 0.975263
#
# Coordination Sequence:
#
# PCOD9458490 Si02
#       5
#     8   8   8   4   4
#     4  11  25  51  77 107 157 207 268 323 402 471
#     4  12  27  46  77 114 156 202 261 332 398 473
#     4  12  27  47  76 115 162 205 263 324 404 485
#     4  11  24  44  76 110 150 213 254 328 396 489
#     4  11  28  46  78 112 152 205 274 330 394 465
#
# _framework density 25.083631
#
# number of rings (size 3 to 8) (size 9 to 14) (size 15 to 20)
#    0.000    0.500    3.750    3.000    3.500    8.000 
#    0.000    0.000    0.000    0.000    0.000    0.000 
#    0.000    0.000    0.000    0.000    0.000    0.000 
#
# Total GULP energy -179409.115082 kJ/mol
# GULP energy per Si atom -5606.534846 kJ/mol
# Density = 2.502654 g / cm^3
# Si number density = 25.083631 Si / 1000 Ang^3
#
#
#
# Elastic Constant Matrix: (Units=GPa)
#
#
# Indices 1 2 3 4 5 6 
#
# 1 57.5638 15.1958 33.2557 0.0000 0.0000 0.0000
# 2 15.1958 167.8177 37.3644 0.0000 0.0000 0.0000
# 3 33.2557 37.3644 201.8266 0.0000 0.0000 0.0000
# 4 0.0000 0.0000 0.0000 41.1948 0.0000 0.0000
# 5 0.0000 0.0000 0.0000 0.0000 46.6366 0.0000
# 6 0.0000 0.0000 0.0000 0.0000 0.0000 367.6888
#
#
#
# Elastic Compliance Matrix: (Units=1/GPa)
#
#
# Indices 1 2 3 4 5 6 
#
# 1 0.019389 -0.001089 -0.002993 0.000000 0.000000 0.000000
# 2 -0.001089 0.006276 -0.000982 0.000000 0.000000 0.000000
# 3 -0.002993 -0.000982 0.005630 0.000000 0.000000 0.000000
# 4 0.000000 0.000000 0.000000 0.024275 0.000000 0.000000
# 5 0.000000 0.000000 0.000000 0.000000 0.021442 0.000000
# 6 0.000000 0.000000 0.000000 0.000000 0.000000 0.002720
#
#
# Mechanical properties :
#
#
# Convention : Reuss Voigt Hill
#
# Bulk Modulus (GPa) = 47.24733 66.53775 56.89254
# Shear Modulus (GPa) = 51.59087 113.86352 82.72720
#
# Velocity S-wave (km/s) = 4.54007 6.74478 5.74910
# Velocity P-wave (km/s) = 6.80880 9.34024 8.17312
#
# Compressibility (1/GPa) = 0.02116522
#
# Stress axis : x y z
#
# Youngs Moduli (GPa) = 51.57635 159.33163 177.62575
#
# Poissons Ratio (x) = 0.17355 0.53165
# Poissons Ratio (y) = 0.05618 0.17451
# Poissons Ratio (z) = 0.15437 0.15654
#
# Static dielectric constant tensor:
#      x y z
#    x 2.007100 0.000000 0.000000 
#    y 0.000000 1.934060 0.000000 
#    z 0.000000 0.000000 2.066360 
# 
# From -- ./inp_files/8847.got.cif
#   From: 2010.05.17/outbox.cif.g08.bks.cpg/sg60_5_cif.got.tgz:8847.got - 2010.06.03 14:59:27.
