data_PCOD9458406
_publ_section_title
;
Structure prediction by ZEFSAII (Michael W. Deem and Ramdas Pophale) SiO2 
 PCOD9458406
Probable space group: P B C N
;
_chemical_formula_sum "Si O2"
_cell_formula_units_Z 44
_cell_length_a 17.688062
_cell_length_b 11.479830
_cell_length_c 9.253228
_cell_angle_alpha 90.000000
_cell_angle_beta 90.000000
_cell_angle_gamma 90.000000
_cell_volume 1878.922954
_symmetry_space_group_name_H-M "P B C N"
_symmetry_group_IT_number 60
_symmetry_cell_setting 'orthorhombic'
loop_
_space_group_symop_operation_xyz
x,y,z
1/2-x,1/2-y,1/2+z
1/2+x,1/2-y,-z
-x,y,1/2-z
-x,-y,-z
1/2+x,1/2+y,1/2-z
1/2-x,1/2+y,z
x,-y,1/2+z
loop_
_atom_site_type_symbol
_atom_site_label
_atom_site_fract_x
_atom_site_fract_y
_atom_site_fract_z
Si Si1 0.000000 0.871472 0.250000
Si Si2 0.070545 0.329024 0.345006
Si Si3 0.624113 0.202013 0.358841
Si Si4 0.295241 0.004547 0.802015
Si Si5 0.043197 0.060540 0.409061
Si Si6 0.700951 0.422427 0.445438
O O1 0.073992 0.793626 0.230858
O O2 0.008055 0.910646 0.442111
O O3 0.071544 0.354534 0.517001
O O4 0.148691 0.385734 0.292363
O O5 0.066747 0.189086 0.345273
O O6 0.000000 0.372156 0.250000
O O7 0.661359 0.104500 0.264020
O O8 0.688115 0.283470 0.433754
O O9 0.219030 0.030443 0.713139
O O10 0.270856 0.967466 0.961342
O O11 0.125009 0.029600 0.482056
O O12 0.000000 0.018708 0.250000
#
# Coordination Sequence:
#
# PCOD9458406 Si02
#       6
#     4   8   8   8   8   8
#     4  12  22  46  74 108 144 192 250 324 356 450
#     4  11  25  46  74 103 149 195 247 304 378 449
#     4  11  27  45  71 113 145 195 257 304 382 440
#     4  12  27  50  73 111 154 195 251 307 383 460
#     4  11  23  45  73 111 141 191 254 306 374 443
#     4  11  26  46  76 105 152 192 244 313 373 449
#
# _framework density 23.417672
#
# number of rings (size 3 to 8) (size 9 to 14) (size 15 to 20)
#    0.000    0.727    6.364    1.091    6.364    3.636 
#    0.000    0.000    0.000    0.000    0.000    0.000 
#    0.000    0.000    0.000    0.000    0.000    0.000 
#
# Total GULP energy -245223.385211 kJ/mol
# GULP energy per Si atom -5573.258755 kJ/mol
# Density = 2.336437 g / cm^3
# Si number density = 23.417672 Si / 1000 Ang^3
#
#
#
# Elastic Constant Matrix: (Units=GPa)
#
#
# Indices 1 2 3 4 5 6 
#
# 1 110.0128 56.6499 37.4446 0.0000 0.0000 0.0000
# 2 56.6499 110.4552 32.8072 0.0000 0.0000 0.0000
# 3 37.4446 32.8072 108.4154 0.0000 0.0000 0.0000
# 4 0.0000 0.0000 0.0000 17.7644 0.0000 0.0000
# 5 0.0000 0.0000 0.0000 0.0000 37.9628 0.0000
# 6 0.0000 0.0000 0.0000 0.0000 0.0000 55.5302
#
#
#
# Elastic Compliance Matrix: (Units=1/GPa)
#
#
# Indices 1 2 3 4 5 6 
#
# 1 0.013046 -0.005881 -0.002726 0.000000 0.000000 0.000000
# 2 -0.005881 0.012599 -0.001781 0.000000 0.000000 0.000000
# 3 -0.002726 -0.001781 0.010704 0.000000 0.000000 0.000000
# 4 0.000000 0.000000 0.000000 0.056292 0.000000 0.000000
# 5 0.000000 0.000000 0.000000 0.000000 0.026342 0.000000
# 6 0.000000 0.000000 0.000000 0.000000 0.000000 0.018008
#
#
# Mechanical properties :
#
#
# Convention : Reuss Voigt Hill
#
# Bulk Modulus (GPa) = 64.21781 64.74297 64.48039
# Shear Modulus (GPa) = 30.68235 35.71693 33.19964
#
# Velocity S-wave (km/s) = 3.62363 3.90963 3.76934
# Velocity P-wave (km/s) = 6.70745 6.93451 6.82192
#
# Compressibility (1/GPa) = 0.01557200
#
# Stress axis : x y z
#
# Youngs Moduli (GPa) = 76.64992 79.37179 93.41991
#
# Poissons Ratio (x) = 0.46682 0.25468
# Poissons Ratio (y) = 0.45081 0.16640
# Poissons Ratio (z) = 0.20896 0.14138
#
# Static dielectric constant tensor:
#      x y z
#    x 1.852790 0.000000 0.000000 
#    y 0.000000 1.893110 0.000000 
#    z 0.000000 0.000000 2.130970 
# 
# From -- ./inp_files/6669.got.cif
#   From: 2010.05.17/outbox.cif.g08.bks.cpg/sg60_4_cif.got.tgz:6669.got - 2010.06.03 14:59:27.
