data_PCOD9458552
_publ_section_title
;
Structure prediction by ZEFSAII (Michael W. Deem and Ramdas Pophale) SiO2 
 PCOD9458552
Probable space group: P B C N
;
_chemical_formula_sum "Si O2"
_cell_formula_units_Z 48
_cell_length_a 18.856429
_cell_length_b 13.915723
_cell_length_c 8.666146
_cell_angle_alpha 90.000000
_cell_angle_beta 90.000000
_cell_angle_gamma 90.000000
_cell_volume 2274.004014
_symmetry_space_group_name_H-M "P B C N"
_symmetry_group_IT_number 60
_symmetry_cell_setting 'orthorhombic'
loop_
_space_group_symop_operation_xyz
x,y,z
1/2-x,1/2-y,1/2+z
1/2+x,1/2-y,-z
-x,y,1/2-z
-x,-y,-z
1/2+x,1/2+y,1/2-z
1/2-x,1/2+y,z
x,-y,1/2+z
loop_
_atom_site_type_symbol
_atom_site_label
_atom_site_fract_x
_atom_site_fract_y
_atom_site_fract_z
Si Si1 0.298875 0.179307 0.592548
Si Si2 0.401308 0.314128 0.385067
Si Si3 0.762344 0.527220 0.349819
Si Si4 0.940238 0.192356 0.975510
Si Si5 0.318649 0.204494 0.947801
Si Si6 0.340186 0.473544 0.915347
O O1 0.350800 0.238106 0.476466
O O2 0.299112 0.213574 0.769518
O O3 0.220801 0.207176 0.531800
O O4 0.311395 0.065697 0.621752
O O5 0.475718 0.316608 0.476625
O O6 0.418647 0.295028 0.205411
O O7 0.368461 0.420238 0.377086
O O8 0.790937 0.613943 0.453868
O O9 0.686689 0.493687 0.413315
O O10 0.733766 0.549923 0.178204
O O11 0.903186 0.285956 0.047131
O O12 0.902438 0.104904 0.069773
#
# Coordination Sequence:
#
# PCOD9458552 Si02
#       6
#     8   8   8   8   8   8
#     4  12  24  41  65  93 130 167 217 268 320 388
#     4  11  25  43  63  96 134 176 211 260 328 383
#     4  12  24  39  68  99 125 169 215 269 322 377
#     4  11  25  42  65  95 135 173 214 262 320 390
#     4  12  24  40  65  95 127 169 216 268 321 383
#     4  12  21  43  66  98 132 166 212 268 326 382
#
# _framework density 21.108142000000001
#
# number of rings (size 3 to 8) (size 9 to 14) (size 15 to 20)
#    0.000    0.333    6.667    2.500    2.333    0.667 
#    0.000    0.833    0.000    0.000    0.000    0.000 
#    0.000    0.000    0.000    0.000    0.000    0.000 
#
# Total GULP energy -267229.441234 kJ/mol
# GULP energy per Si atom -5567.280026 kJ/mol
# Density = 2.106010 g / cm^3
# Si number density = 21.108142 Si / 1000 Ang^3
#
#
#
# Elastic Constant Matrix: (Units=GPa)
#
#
# Indices 1 2 3 4 5 6 
#
# 1 69.6049 25.6214 1.3615 0.0000 0.0000 0.0000
# 2 25.6214 100.2782 16.9146 0.0000 0.0000 0.0000
# 3 1.3615 16.9146 80.5419 0.0000 0.0000 0.0000
# 4 0.0000 0.0000 0.0000 16.6931 0.0000 0.0000
# 5 0.0000 0.0000 0.0000 0.0000 29.3281 0.0000
# 6 0.0000 0.0000 0.0000 0.0000 0.0000 19.5191
#
#
#
# Elastic Compliance Matrix: (Units=1/GPa)
#
#
# Indices 1 2 3 4 5 6 
#
# 1 0.015887 -0.004161 0.000605 0.000000 0.000000 0.000000
# 2 -0.004161 0.011428 -0.002330 0.000000 0.000000 0.000000
# 3 0.000605 -0.002330 0.012895 0.000000 0.000000 0.000000
# 4 0.000000 0.000000 0.000000 0.059905 0.000000 0.000000
# 5 0.000000 0.000000 0.000000 0.000000 0.034097 0.000000
# 6 0.000000 0.000000 0.000000 0.000000 0.000000 0.051232
#
#
# Mechanical properties :
#
#
# Convention : Reuss Voigt Hill
#
# Bulk Modulus (GPa) = 35.16316 37.57998 36.37157
# Shear Modulus (GPa) = 24.19025 26.87655 25.53340
#
# Velocity S-wave (km/s) = 3.38896 3.57217 3.48177
# Velocity P-wave (km/s) = 5.65757 5.90391 5.78205
#
# Compressibility (1/GPa) = 0.02843886
#
# Stress axis : x y z
#
# Youngs Moduli (GPa) = 62.94573 87.50104 77.54985
#
# Poissons Ratio (x) = 0.36411 -0.04694
# Poissons Ratio (y) = 0.26193 0.18067
# Poissons Ratio (z) = -0.03810 0.20385
#
# Static dielectric constant tensor:
#      x y z
#    x 1.759090 0.000000 0.000000 
#    y 0.000000 1.862300 0.000000 
#    z 0.000000 0.000000 1.798470 
# 
# From -- ./inp_files/6743.got.cif
#   From: 2010.05.17/outbox.cif.g08.bks.cpg/sg60_4_cif.got.tgz:6743.got - 2010.06.03 14:59:27.
