data_PCOD9458420
_publ_section_title
;
Structure prediction by ZEFSAII (Michael W. Deem and Ramdas Pophale) SiO2 
 PCOD9458420
Probable space group: P B C N
;
_chemical_formula_sum "Si O2"
_cell_formula_units_Z 40
_cell_length_a 10.020803
_cell_length_b 13.262890
_cell_length_c 13.403259
_cell_angle_alpha 90.000000
_cell_angle_beta 90.000000
_cell_angle_gamma 90.000000
_cell_volume 1781.357563
_symmetry_space_group_name_H-M "P B C N"
_symmetry_group_IT_number 60
_symmetry_cell_setting 'orthorhombic'
loop_
_space_group_symop_operation_xyz
x,y,z
1/2-x,1/2-y,1/2+z
1/2+x,1/2-y,-z
-x,y,1/2-z
-x,-y,-z
1/2+x,1/2+y,1/2-z
1/2-x,1/2+y,z
x,-y,1/2+z
loop_
_atom_site_type_symbol
_atom_site_label
_atom_site_fract_x
_atom_site_fract_y
_atom_site_fract_z
Si Si1 0.073378 0.559936 0.354429
Si Si2 0.500000 0.366099 0.250000
Si Si3 0.500000 0.301855 0.750000
Si Si4 0.848766 0.615261 0.498116
Si Si5 0.257218 0.243900 0.344474
Si Si6 0.414990 0.469443 0.596379
O O1 0.106553 0.457394 0.411451
O O2 0.206073 0.626073 0.341703
O O3 0.000000 0.543989 0.250000
O O4 0.974649 0.624900 0.425638
O O5 0.388568 0.301014 0.306389
O O6 0.576173 0.438025 0.327494
O O7 0.367186 0.239438 0.771094
O O8 0.475159 0.373281 0.654486
O O9 0.787939 0.715036 0.547848
O O10 0.733288 0.558646 0.437373
O O11 0.500000 0.500000 0.500000
#
# Coordination Sequence:
#
# PCOD9458420 Si02
#       6
#     8   4   4   8   8   8
#     4  11  26  49  69 105 150 187 238 301 364 431
#     4  11  26  44  75 104 144 188 243 302 357 428
#     4  11  28  44  73 104 148 182 241 302 361 434
#     4  11  27  43  76 103 142 197 240 298 364 436
#     4  12  26  46  72 109 140 192 238 304 361 433
#     4  11  23  47  70 101 139 193 243 294 357 430
#
# _framework density 22.454784
#
# number of rings (size 3 to 8) (size 9 to 14) (size 15 to 20)
#    0.000    0.800    3.000    2.400    9.800    3.200 
#    0.000    0.000    0.000    0.000    0.000    0.000 
#    0.000    0.000    0.000    0.000    0.000    0.000 
#
# Total GULP energy -224047.697552 kJ/mol
# GULP energy per Si atom -5601.192439 kJ/mol
# Density = 2.240368 g / cm^3
# Si number density = 22.454784 Si / 1000 Ang^3
#
#
#
# Elastic Constant Matrix: (Units=GPa)
#
#
# Indices 1 2 3 4 5 6 
#
# 1 115.6357 13.3958 23.5941 0.0000 0.0000 0.0000
# 2 13.3958 42.5197 28.7994 0.0000 0.0000 0.0000
# 3 23.5941 28.7994 107.9073 0.0000 0.0000 0.0000
# 4 0.0000 0.0000 0.0000 14.1161 0.0000 0.0000
# 5 0.0000 0.0000 0.0000 0.0000 41.4113 0.0000
# 6 0.0000 0.0000 0.0000 0.0000 0.0000 22.4864
#
#
#
# Elastic Compliance Matrix: (Units=1/GPa)
#
#
# Indices 1 2 3 4 5 6 
#
# 1 0.009172 -0.001869 -0.001507 0.000000 0.000000 0.000000
# 2 -0.001869 0.029089 -0.007355 0.000000 0.000000 0.000000
# 3 -0.001507 -0.007355 0.011560 0.000000 0.000000 0.000000
# 4 0.000000 0.000000 0.000000 0.070841 0.000000 0.000000
# 5 0.000000 0.000000 0.000000 0.000000 0.024148 0.000000
# 6 0.000000 0.000000 0.000000 0.000000 0.000000 0.044471
#
#
# Mechanical properties :
#
#
# Convention : Reuss Voigt Hill
#
# Bulk Modulus (GPa) = 35.26195 44.18236 39.72215
# Shear Modulus (GPa) = 22.70717 28.95432 25.83075
#
# Velocity S-wave (km/s) = 3.18345 3.59479 3.39535
# Velocity P-wave (km/s) = 5.40834 6.07856 5.75321
#
# Compressibility (1/GPa) = 0.02835918
#
# Stress axis : x y z
#
# Youngs Moduli (GPa) = 109.03018 34.37726 86.50836
#
# Poissons Ratio (x) = 0.06426 0.13033
# Poissons Ratio (y) = 0.20379 0.63626
# Poissons Ratio (z) = 0.16426 0.25284
#
# Static dielectric constant tensor:
#      x y z
#    x 2.025870 0.000000 0.000000 
#    y 0.000000 1.807560 0.000000 
#    z 0.000000 0.000000 1.825030 
# 
# From -- ./inp_files/10897.got.cif
#   From: 2010.05.17/outbox.cif.g08.bks.cpg/sg60_6_cif.got.tgz:10897.got - 2010.06.03 14:59:27.
