data_PCOD9458811
_publ_section_title
;
Structure prediction by ZEFSAII (Michael W. Deem and Ramdas Pophale) SiO2 
 PCOD9458811
Probable space group: P B C N
;
_chemical_formula_sum "Si O2"
_cell_formula_units_Z 32
_cell_length_a 4.728320
_cell_length_b 13.265612
_cell_length_c 18.211315
_cell_angle_alpha 90.000000
_cell_angle_beta 90.000000
_cell_angle_gamma 90.000000
_cell_volume 1142.287588
_symmetry_space_group_name_H-M "P B C N"
_symmetry_group_IT_number 60
_symmetry_cell_setting 'orthorhombic'
loop_
_space_group_symop_operation_xyz
x,y,z
1/2-x,1/2-y,1/2+z
1/2+x,1/2-y,-z
-x,y,1/2-z
-x,-y,-z
1/2+x,1/2+y,1/2-z
1/2-x,1/2+y,z
x,-y,1/2+z
loop_
_atom_site_type_symbol
_atom_site_label
_atom_site_fract_x
_atom_site_fract_y
_atom_site_fract_z
Si Si1 0.807768 0.275406 0.821685
Si Si2 0.537700 0.538999 0.390296
Si Si3 0.026211 0.568483 0.832754
Si Si4 0.707626 0.798041 0.537218
O O1 0.598395 0.369692 0.833373
O O2 0.612340 0.177194 0.824815
O O3 0.000000 0.276026 0.750000
O O4 0.028911 0.280443 0.889188
O O5 0.845782 0.491214 0.393979
O O6 0.380704 0.597195 0.456189
O O7 0.957907 0.717342 0.522102
O O8 0.000000 0.523508 0.750000
O O9 0.655069 0.451419 0.143424
#
# Coordination Sequence:
#
# PCOD9458811 Si02
#       4
#     8   8   8   8
#     4  12  29  50  87 118 161 214 271 334 410 475
#     4  12  26  49  77 113 158 207 258 326 405 461
#     4  12  28  44  75 124 163 193 269 330 398 482
#     4  12  26  51  80 110 159 219 270 326 398 485
#
# _framework density 28.013959
#
# number of rings (size 3 to 8) (size 9 to 14) (size 15 to 20)
#    0.000    0.000    5.000    3.000   10.500    0.000 
#    0.000    7.500    0.000    0.000    0.000    0.000 
#    0.000    0.000    0.000    0.000    0.000    0.000 
#
# Total GULP energy -179473.323903 kJ/mol
# GULP energy per Si atom -5608.541372 kJ/mol
# Density = 2.795020 g / cm^3
# Si number density = 28.013959 Si / 1000 Ang^3
#
#
#
# Elastic Constant Matrix: (Units=GPa)
#
#
# Indices 1 2 3 4 5 6 
#
# 1 173.9177 47.6966 32.2583 0.0000 0.0000 0.0000
# 2 47.6966 157.5633 1.4342 0.0000 0.0000 0.0000
# 3 32.2583 1.4342 135.2683 0.0000 0.0000 0.0000
# 4 0.0000 0.0000 0.0000 28.0812 0.0000 0.0000
# 5 0.0000 0.0000 0.0000 0.0000 68.4995 0.0000
# 6 0.0000 0.0000 0.0000 0.0000 0.0000 72.1312
#
#
#
# Elastic Compliance Matrix: (Units=1/GPa)
#
#
# Indices 1 2 3 4 5 6 
#
# 1 0.006579 -0.001978 -0.001548 0.000000 0.000000 0.000000
# 2 -0.001978 0.006942 0.000398 0.000000 0.000000 0.000000
# 3 -0.001548 0.000398 0.007758 0.000000 0.000000 0.000000
# 4 0.000000 0.000000 0.000000 0.035611 0.000000 0.000000
# 5 0.000000 0.000000 0.000000 0.000000 0.014599 0.000000
# 6 0.000000 0.000000 0.000000 0.000000 0.000000 0.013864
#
#
# Mechanical properties :
#
#
# Convention : Reuss Voigt Hill
#
# Bulk Modulus (GPa) = 66.56264 69.94752 68.25508
# Shear Modulus (GPa) = 51.75184 59.43307 55.59245
#
# Velocity S-wave (km/s) = 4.30275 4.61103 4.45956
# Velocity P-wave (km/s) = 6.96398 7.30560 7.13683
#
# Compressibility (1/GPa) = 0.01502344
#
# Stress axis : x y z
#
# Youngs Moduli (GPa) = 151.99142 144.05762 128.90474
#
# Poissons Ratio (x) = 0.28488 0.19955
# Poissons Ratio (y) = 0.30057 -0.05130
# Poissons Ratio (z) = 0.23529 -0.05733
#
# Static dielectric constant tensor:
#      x y z
#    x 2.035760 0.000000 0.000000 
#    y 0.000000 2.231560 0.000000 
#    z 0.000000 0.000000 2.242330 
# 
# From -- ./inp_files/18411.got.cif
#   From: 2010.05.17/outbox.cif.g08.bks.cpg/sg60_10_cif.got.tgz:18411.got - 2010.06.03 14:59:27.
