data_PCOD9458764
_publ_section_title
;
Structure prediction by ZEFSAII (Michael W. Deem and Ramdas Pophale) SiO2 
 PCOD9458764
Probable space group: P B C N
;
_chemical_formula_sum "Si O2"
_cell_formula_units_Z 40
_cell_length_a 11.777938
_cell_length_b 8.088705
_cell_length_c 17.660589
_cell_angle_alpha 90.000000
_cell_angle_beta 90.000000
_cell_angle_gamma 90.000000
_cell_volume 1682.493690
_symmetry_space_group_name_H-M "P B C N"
_symmetry_group_IT_number 60
_symmetry_cell_setting 'orthorhombic'
loop_
_space_group_symop_operation_xyz
x,y,z
1/2-x,1/2-y,1/2+z
1/2+x,1/2-y,-z
-x,y,1/2-z
-x,-y,-z
1/2+x,1/2+y,1/2-z
1/2-x,1/2+y,z
x,-y,1/2+z
loop_
_atom_site_type_symbol
_atom_site_label
_atom_site_fract_x
_atom_site_fract_y
_atom_site_fract_z
Si Si1 0.409254 0.343958 0.318893
Si Si2 0.025097 0.347990 0.443861
Si Si3 0.104789 0.798098 0.084039
Si Si4 0.832283 0.835296 0.866213
Si Si5 0.154869 0.224020 0.306999
O O1 0.500000 0.327836 0.250000
O O2 0.477151 0.268663 0.388807
O O3 0.289599 0.254775 0.309420
O O4 0.381618 0.538240 0.330119
O O5 0.101961 0.223402 0.494398
O O6 0.091552 0.352072 0.363233
O O7 0.000000 0.500000 0.500000
O O8 0.902423 0.273936 0.424661
O O9 0.198383 0.680653 0.120925
O O10 0.135179 0.977298 0.116486
O O11 0.869076 0.774695 0.783038
#
# Coordination Sequence:
#
# PCOD9458764 Si02
#       5
#     8   8   8   8   8
#     4  12  25  49  77 116 152 208 263 332 398 474
#     4  12  29  48  76 118 161 210 266 332 411 482
#     4  12  27  48  77 114 160 200 265 330 404 470
#     4  12  24  51  78 109 155 211 260 333 395 484
#     4  12  26  49  82 109 156 208 268 324 404 477
#
# _framework density 23.774232999999999
#
# number of rings (size 3 to 8) (size 9 to 14) (size 15 to 20)
#    0.000    0.000    6.000    2.400    5.600    0.000 
#    0.000    1.000    0.000    0.000    0.000    0.000 
#    0.000    0.000    0.000    0.000    0.000    0.000 
#
# Total GULP energy -223769.330524 kJ/mol
# GULP energy per Si atom -5594.233263 kJ/mol
# Density = 2.372012 g / cm^3
# Si number density = 23.774233 Si / 1000 Ang^3
#
#
#
# Elastic Constant Matrix: (Units=GPa)
#
#
# Indices 1 2 3 4 5 6 
#
# 1 129.8928 50.9838 32.1860 0.0000 0.0000 0.0000
# 2 50.9838 67.4379 57.1809 0.0000 0.0000 0.0000
# 3 32.1860 57.1809 143.8842 0.0000 0.0000 0.0000
# 4 0.0000 0.0000 0.0000 32.3272 0.0000 0.0000
# 5 0.0000 0.0000 0.0000 0.0000 31.4916 0.0000
# 6 0.0000 0.0000 0.0000 0.0000 0.0000 44.8181
#
#
#
# Elastic Compliance Matrix: (Units=1/GPa)
#
#
# Indices 1 2 3 4 5 6 
#
# 1 0.011102 -0.009483 0.001285 0.000000 0.000000 0.000000
# 2 -0.009483 0.030465 -0.009986 0.000000 0.000000 0.000000
# 3 0.001285 -0.009986 0.010631 0.000000 0.000000 0.000000
# 4 0.000000 0.000000 0.000000 0.030934 0.000000 0.000000
# 5 0.000000 0.000000 0.000000 0.000000 0.031754 0.000000
# 6 0.000000 0.000000 0.000000 0.000000 0.000000 0.022312
#
#
# Mechanical properties :
#
#
# Convention : Reuss Voigt Hill
#
# Bulk Modulus (GPa) = 63.16840 69.10183 66.13511
# Shear Modulus (GPa) = 27.95744 35.11833 31.53788
#
# Velocity S-wave (km/s) = 3.43294 3.84755 3.64614
# Velocity P-wave (km/s) = 6.50701 6.99051 6.75309
#
# Compressibility (1/GPa) = 0.01583070
#
# Stress axis : x y z
#
# Youngs Moduli (GPa) = 90.07010 32.82473 94.06513
#
# Poissons Ratio (x) = 0.31129 -0.12089
# Poissons Ratio (y) = 0.85416 0.93930
# Poissons Ratio (z) = -0.11576 0.32778
#
# Static dielectric constant tensor:
#      x y z
#    x 1.893110 0.000000 0.000000 
#    y 0.000000 1.917360 0.000000 
#    z 0.000000 0.000000 1.888520 
# 
# From -- ./inp_files/19836.got.cif
#   From: 2010.05.17/outbox.cif.g08.bks.cpg/sg60_10_cif.got.tgz:19836.got - 2010.06.03 14:59:27.
