data_PCOD9458845
_publ_section_title
;
Structure prediction by ZEFSAII (Michael W. Deem and Ramdas Pophale) SiO2 
 PCOD9458845
Probable space group: P B C N
;
_chemical_formula_sum "Si O2"
_cell_formula_units_Z 56
_cell_length_a 5.799055
_cell_length_b 14.787048
_cell_length_c 30.463345
_cell_angle_alpha 90.000000
_cell_angle_beta 90.000000
_cell_angle_gamma 90.000000
_cell_volume 2612.259392
_symmetry_space_group_name_H-M "P B C N"
_symmetry_group_IT_number 60
_symmetry_cell_setting 'orthorhombic'
loop_
_space_group_symop_operation_xyz
x,y,z
1/2-x,1/2-y,1/2+z
1/2+x,1/2-y,-z
-x,y,1/2-z
-x,-y,-z
1/2+x,1/2+y,1/2-z
1/2-x,1/2+y,z
x,-y,1/2+z
loop_
_atom_site_type_symbol
_atom_site_label
_atom_site_fract_x
_atom_site_fract_y
_atom_site_fract_z
Si Si1 0.241914 0.006750 0.361357
Si Si2 0.870430 0.623388 0.408786
Si Si3 0.250624 0.260199 0.227869
Si Si4 0.355653 0.450006 0.069695
Si Si5 0.434607 0.273788 0.021920
Si Si6 0.630100 0.897375 0.343632
Si Si7 0.647631 0.587712 0.320555
O O1 0.415574 0.074981 0.385142
O O2 0.119600 0.061929 0.322530
O O3 0.358938 0.916718 0.342022
O O4 0.070670 0.974604 0.399444
O O5 0.764816 0.545755 0.440880
O O6 0.931084 0.713594 0.433874
O O7 0.694571 0.634049 0.368224
O O8 0.500000 0.278968 0.250000
O O9 0.235248 0.315948 0.182667
O O10 0.233609 0.154205 0.216260
O O11 0.000000 0.283120 0.250000
O O12 0.417424 0.380637 0.031938
O O13 0.189810 0.399002 0.104766
O O14 0.686564 0.252321 0.000605
O O15 0.730420 0.990389 0.322818
#
# Coordination Sequence:
#
# PCOD9458845 Si02
#       7
#     8   8   8   8   8   8   8
#     4   8  18  38  74  90 114 170 224 270 308 364
#     4   9  21  42  68  91 121 167 222 267 310 373
#     4  12  29  41  62 100 138 172 206 260 333 392
#     4   9  21  42  68  91 121 167 222 267 310 373
#     4  12  29  41  60  98 136 171 204 257 331 390
#     4   9  21  42  69  92 122 168 224 265 315 372
#     4   9  21  42  69  92 122 168 224 265 315 372
#
# _framework density 21.437380999999998
#
# number of rings (size 3 to 8) (size 9 to 14) (size 15 to 20)
#    0.000    2.857    0.000    0.857   16.000    3.429 
#    0.000    0.000    0.000    0.000    0.000    0.000 
#    0.000    0.000    0.000    0.000    0.000    0.000 
#
# Total GULP energy -311755.764734 kJ/mol
# GULP energy per Si atom -5567.067227 kJ/mol
# Density = 2.138859 g / cm^3
# Si number density = 21.437381 Si / 1000 Ang^3
#
#
#
# Elastic Constant Matrix: (Units=GPa)
#
#
# Indices 1 2 3 4 5 6 
#
# 1 101.4815 0.8449 9.6167 0.0000 0.0000 0.0000
# 2 0.8449 50.6187 -3.7764 0.0000 0.0000 0.0000
# 3 9.6167 -3.7764 15.4392 0.0000 0.0000 0.0000
# 4 0.0000 0.0000 0.0000 34.7196 0.0000 0.0000
# 5 0.0000 0.0000 0.0000 0.0000 16.2463 0.0000
# 6 0.0000 0.0000 0.0000 0.0000 0.0000 15.6891
#
#
#
# Elastic Compliance Matrix: (Units=1/GPa)
#
#
# Indices 1 2 3 4 5 6 
#
# 1 0.010495 -0.000675 -0.006702 0.000000 0.000000 0.000000
# 2 -0.000675 0.020166 0.005353 0.000000 0.000000 0.000000
# 3 -0.006702 0.005353 0.070254 0.000000 0.000000 0.000000
# 4 0.000000 0.000000 0.000000 0.028802 0.000000 0.000000
# 5 0.000000 0.000000 0.000000 0.000000 0.061553 0.000000
# 6 0.000000 0.000000 0.000000 0.000000 0.000000 0.063738
#
#
# Mechanical properties :
#
#
# Convention : Reuss Voigt Hill
#
# Bulk Modulus (GPa) = 10.32348 20.10111 15.21230
# Shear Modulus (GPa) = 17.16177 24.05460 20.60819
#
# Velocity S-wave (km/s) = 2.83248 3.35339 3.10388
# Velocity P-wave (km/s) = 3.93996 4.93869 4.46732
#
# Compressibility (1/GPa) = 0.09686657
#
# Stress axis : x y z
#
# Youngs Moduli (GPa) = 95.28582 49.58800 14.23408
#
# Poissons Ratio (x) = 0.03348 0.09540
# Poissons Ratio (y) = 0.06434 -0.07620
# Poissons Ratio (z) = 0.63861 -0.26545
#
# Static dielectric constant tensor:
#      x y z
#    x 1.931720 0.000000 0.000000 
#    y 0.000000 1.773540 0.000000 
#    z 0.000000 0.000000 1.791730 
# 
# From -- ./inp_files/25707.got.cif
#   From: 2010.05.17/outbox.cif.g08.bks.cpg/sg60_13_cif.got.tgz:25707.got - 2010.06.03 14:59:27.
