data_PCOD9458385
_publ_section_title
;
Structure prediction by ZEFSAII (Michael W. Deem and Ramdas Pophale) SiO2 
 PCOD9458385
Probable space group: P B C N
;
_chemical_formula_sum "Si O2"
_cell_formula_units_Z 24
_cell_length_a 5.199641
_cell_length_b 19.640831
_cell_length_c 8.801104
_cell_angle_alpha 90.000000
_cell_angle_beta 90.000000
_cell_angle_gamma 90.000000
_cell_volume 898.815124
_symmetry_space_group_name_H-M "P B C N"
_symmetry_group_IT_number 60
_symmetry_cell_setting 'orthorhombic'
loop_
_space_group_symop_operation_xyz
x,y,z
1/2-x,1/2-y,1/2+z
1/2+x,1/2-y,-z
-x,y,1/2-z
-x,-y,-z
1/2+x,1/2+y,1/2-z
1/2-x,1/2+y,z
x,-y,1/2+z
loop_
_atom_site_type_symbol
_atom_site_label
_atom_site_fract_x
_atom_site_fract_y
_atom_site_fract_z
Si Si1 0.950854 0.280992 0.072322
Si Si2 0.673142 0.041747 0.117003
Si Si3 0.891070 0.902472 0.104051
O O1 0.848002 0.357765 0.046371
O O2 0.000000 0.269785 0.250000
O O3 0.713097 0.235341 0.014969
O O4 0.500000 0.074450 0.250000
O O5 0.901554 0.081740 0.028726
O O6 0.794752 0.971916 0.181475
O O7 0.500000 0.000000 0.000000
O O8 0.000000 0.861654 0.250000
#
# Coordination Sequence:
#
# PCOD9458385 Si02
#       3
#     8   8   8
#     4  12  28  54  85 117 160 217 279 341 409 482
#     4  11  23  43  75 116 160 212 268 327 405 489
#     4  11  24  45  77 110 160 218 266 332 411 483
#
# _framework density 26.701820999999999
#
# number of rings (size 3 to 8) (size 9 to 14) (size 15 to 20)
#    0.000    0.667    3.333    4.000    4.667    0.000 
#    6.000    1.667    0.000    0.000    0.000    0.000 
#    0.000    0.000    0.000    0.000    0.000    0.000 
#
# Total GULP energy -134209.415835 kJ/mol
# GULP energy per Si atom -5592.058993 kJ/mol
# Density = 2.664105 g / cm^3
# Si number density = 26.701821 Si / 1000 Ang^3
#
#
#
# Elastic Constant Matrix: (Units=GPa)
#
#
# Indices 1 2 3 4 5 6 
#
# 1 179.4421 37.3971 98.0514 0.0000 0.0000 0.0000
# 2 37.3971 100.7450 34.3668 0.0000 0.0000 0.0000
# 3 98.0514 34.3668 189.9225 0.0000 0.0000 0.0000
# 4 0.0000 0.0000 0.0000 26.4565 0.0000 0.0000
# 5 0.0000 0.0000 0.0000 0.0000 91.4658 0.0000
# 6 0.0000 0.0000 0.0000 0.0000 0.0000 59.1868
#
#
#
# Elastic Compliance Matrix: (Units=1/GPa)
#
#
# Indices 1 2 3 4 5 6 
#
# 1 0.008017 -0.001667 -0.003837 0.000000 0.000000 0.000000
# 2 -0.001667 0.010926 -0.001116 0.000000 0.000000 0.000000
# 3 -0.003837 -0.001116 0.007448 0.000000 0.000000 0.000000
# 4 0.000000 0.000000 0.000000 0.037798 0.000000 0.000000
# 5 0.000000 0.000000 0.000000 0.000000 0.010933 0.000000
# 6 0.000000 0.000000 0.000000 0.000000 0.000000 0.016896
#
#
# Mechanical properties :
#
#
# Convention : Reuss Voigt Hill
#
# Bulk Modulus (GPa) = 76.04717 89.97116 83.00916
# Shear Modulus (GPa) = 45.60280 55.44144 50.52212
#
# Velocity S-wave (km/s) = 4.13710 4.56161 4.35453
# Velocity P-wave (km/s) = 7.16678 7.84297 7.51249
#
# Compressibility (1/GPa) = 0.01314973
#
# Stress axis : x y z
#
# Youngs Moduli (GPa) = 124.73431 91.52757 134.25664
#
# Poissons Ratio (x) = 0.15257 0.51519
# Poissons Ratio (y) = 0.20793 0.14989
# Poissons Ratio (z) = 0.47865 0.10218
#
# Static dielectric constant tensor:
#      x y z
#    x 2.601700 0.000000 0.000000 
#    y 0.000000 2.302460 0.000000 
#    z 0.000000 0.000000 2.047160 
# 
# From -- ./inp_files/2882.got.cif
#   From: 2010.05.17/outbox.cif.g08.bks.cpg/sg60_2_cif.got.tgz:2882.got - 2010.06.03 14:59:27.
