data_PCOD9458964
_publ_section_title
;
Structure prediction by ZEFSAII (Michael W. Deem and Ramdas Pophale) SiO2 
 PCOD9458964
Probable space group: P B C A
;
_chemical_formula_sum "Si O2"
_cell_formula_units_Z 48
_cell_length_a 5.257824
_cell_length_b 31.070106
_cell_length_c 11.683240
_cell_angle_alpha 90.000000
_cell_angle_beta 90.000000
_cell_angle_gamma 90.000000
_cell_volume 1908.587511
_symmetry_space_group_name_H-M "P B C A"
_symmetry_group_IT_number 61
_symmetry_cell_setting 'orthorhombic'
loop_
_space_group_symop_operation_xyz
x,y,z
1/2-x,-y,1/2+z
1/2+x,1/2-y,-z
-x,1/2+y,1/2-z
-x,-y,-z
1/2+x,y,1/2-z
1/2-x,1/2+y,z
x,1/2-y,1/2+z
loop_
_atom_site_type_symbol
_atom_site_label
_atom_site_fract_x
_atom_site_fract_y
_atom_site_fract_z
Si Si1 0.432887 0.937132 0.325799
Si Si2 0.459416 0.875798 0.604290
Si Si3 0.054401 0.746403 0.569315
Si Si4 0.960302 0.661889 0.137071
Si Si5 0.031546 0.029431 0.173121
Si Si6 0.407928 0.656394 0.822085
O O1 0.649308 0.938244 0.226545
O O2 0.461269 0.890147 0.382215
O O3 0.482955 0.983012 0.384298
O O4 0.438017 0.862557 0.741795
O O5 0.188748 0.858297 0.564516
O O6 0.498845 0.926754 0.602909
O O7 0.701285 0.847693 0.570969
O O8 0.349008 0.745207 0.532163
O O9 0.013399 0.787717 0.651247
O O10 0.965053 0.701585 0.620379
O O11 0.813837 0.031083 0.272081
O O12 0.617533 0.655659 0.720206
#
# Coordination Sequence:
#
# PCOD9458964 Si02
#       6
#     8   8   8   8   8   8
#     4   8  16  27  47  76 111 135 169 219 280 316
#     4  10  17  30  50  83 104 135 168 229 275 317
#     4  12  26  41  56  81 114 155 190 232 286 338
#     4  10  20  31  50  73 108 138 180 215 277 321
#     4  10  14  25  43  76 117 130 158 218 290 319
#     4  10  21  38  60  85 109 145 194 238 276 324
#
# _framework density 25.149487000000001
#
# number of rings (size 3 to 8) (size 9 to 14) (size 15 to 20)
#    0.000    2.000    3.333    2.000    4.667    0.000 
#    0.000    0.000    0.000    0.000    0.000    7.000 
#    0.000    0.000    0.000    0.000    0.000    0.000 
#
# Total GULP energy -268201.461969 kJ/mol
# GULP energy per Si atom -5587.530458 kJ/mol
# Density = 2.509225 g / cm^3
# Si number density = 25.149487 Si / 1000 Ang^3
#
#
#
# Elastic Constant Matrix: (Units=GPa)
#
#
# Indices 1 2 3 4 5 6 
#
# 1 122.1069 -39.6161 0.6173 0.0000 0.0000 0.0000
# 2 -39.6161 178.7811 31.7507 0.0000 0.0000 0.0000
# 3 0.6173 31.7507 31.6289 0.0000 0.0000 0.0000
# 4 0.0000 0.0000 0.0000 23.1840 0.0000 0.0000
# 5 0.0000 0.0000 0.0000 0.0000 20.9347 0.0000
# 6 0.0000 0.0000 0.0000 0.0000 0.0000 38.9121
#
#
#
# Elastic Compliance Matrix: (Units=1/GPa)
#
#
# Indices 1 2 3 4 5 6 
#
# 1 0.009003 0.002466 -0.002651 0.000000 0.000000 0.000000
# 2 0.002466 0.007482 -0.007559 0.000000 0.000000 0.000000
# 3 -0.002651 -0.007559 0.039257 0.000000 0.000000 0.000000
# 4 0.000000 0.000000 0.000000 0.043133 0.000000 0.000000
# 5 0.000000 0.000000 0.000000 0.000000 0.047768 0.000000
# 6 0.000000 0.000000 0.000000 0.000000 0.000000 0.025699
#
#
# Mechanical properties :
#
#
# Convention : Reuss Voigt Hill
#
# Bulk Modulus (GPa) = 24.84281 35.33562 30.08922
# Shear Modulus (GPa) = 24.84493 39.25717 32.05105
#
# Velocity S-wave (km/s) = 3.14648 3.95518 3.57378
# Velocity P-wave (km/s) = 4.80624 5.91089 5.38696
#
# Compressibility (1/GPa) = 0.04025310
#
# Stress axis : x y z
#
# Youngs Moduli (GPa) = 111.07491 133.64858 25.47331
#
# Poissons Ratio (x) = -0.32955 0.06753
# Poissons Ratio (y) = -0.27388 0.19256
# Poissons Ratio (z) = 0.29446 1.01028
#
# Static dielectric constant tensor:
#      x y z
#    x 2.059480 0.000000 0.000000 
#    y 0.000000 1.972650 0.000000 
#    z 0.000000 0.000000 2.126720 
# 
# From -- ./inp_files/1333.got.cif
#   From: 2010.05.17/outbox.cif.g08.bks.cpg/sg61_1_cif.got.tgz:1333.got - 2010.06.03 15:17:17.
