data_PCOD9458856
_publ_section_title
;
Structure prediction by ZEFSAII (Michael W. Deem and Ramdas Pophale) SiO2 
 PCOD9458856
Probable space group: P B C N
;
_chemical_formula_sum "Si O2"
_cell_formula_units_Z 24
_cell_length_a 6.857578
_cell_length_b 15.042209
_cell_length_c 9.276847
_cell_angle_alpha 90.000000
_cell_angle_beta 90.000000
_cell_angle_gamma 90.000000
_cell_volume 956.935726
_symmetry_space_group_name_H-M "P B C N"
_symmetry_group_IT_number 60
_symmetry_cell_setting 'orthorhombic'
loop_
_space_group_symop_operation_xyz
x,y,z
1/2-x,1/2-y,1/2+z
1/2+x,1/2-y,-z
-x,y,1/2-z
-x,-y,-z
1/2+x,1/2+y,1/2-z
1/2-x,1/2+y,z
x,-y,1/2+z
loop_
_atom_site_type_symbol
_atom_site_label
_atom_site_fract_x
_atom_site_fract_y
_atom_site_fract_z
Si Si1 0.174050 0.369657 0.567788
Si Si2 0.267704 0.223066 0.778376
Si Si3 0.836125 0.558906 0.876096
O O1 0.187376 0.312580 0.711320
O O2 0.261108 0.305914 0.443069
O O3 0.268779 0.466844 0.588200
O O4 0.962269 0.400760 0.507725
O O5 0.500000 0.229508 0.750000
O O6 0.204566 0.137951 0.683569
O O7 0.000000 0.540533 0.750000
#
# Coordination Sequence:
#
# PCOD9458856 Si02
#       3
#     8   8   8
#     4   9  17  31  53  76 108 142 180 224 268 323
#     4   9  19  32  51  80 107 138 180 229 276 317
#     4   8  17  33  53  76 101 143 190 221 262 324
#
# _framework density 25.080054000000001
#
# number of rings (size 3 to 8) (size 9 to 14) (size 15 to 20)
#    0.000    4.000    0.000    0.000    0.000   10.667 
#    0.000    0.000    0.000   34.000    0.000    0.000 
#    0.000    0.000    0.000    0.000    0.000    0.000 
#
# Total GULP energy -133972.708968 kJ/mol
# GULP energy per Si atom -5582.196207 kJ/mol
# Density = 2.502297 g / cm^3
# Si number density = 25.080054 Si / 1000 Ang^3
#
#
#
# Elastic Constant Matrix: (Units=GPa)
#
#
# Indices 1 2 3 4 5 6 
#
# 1 64.8684 27.7771 23.7856 0.0000 0.0000 0.0000
# 2 27.7771 217.6730 83.5740 0.0000 0.0000 0.0000
# 3 23.7856 83.5740 109.7884 0.0000 0.0000 0.0000
# 4 0.0000 0.0000 0.0000 64.2730 0.0000 0.0000
# 5 0.0000 0.0000 0.0000 0.0000 24.3810 0.0000
# 6 0.0000 0.0000 0.0000 0.0000 0.0000 4.0072
#
#
#
# Elastic Compliance Matrix: (Units=1/GPa)
#
#
# Indices 1 2 3 4 5 6 
#
# 1 0.016918 -0.001062 -0.002857 0.000000 0.000000 0.000000
# 2 -0.001062 0.006558 -0.004762 0.000000 0.000000 0.000000
# 3 -0.002857 -0.004762 0.013352 0.000000 0.000000 0.000000
# 4 0.000000 0.000000 0.000000 0.015559 0.000000 0.000000
# 5 0.000000 0.000000 0.000000 0.000000 0.041015 0.000000
# 6 0.000000 0.000000 0.000000 0.000000 0.000000 0.249549
#
#
# Mechanical properties :
#
#
# Convention : Reuss Voigt Hill
#
# Bulk Modulus (GPa) = 51.36993 73.62255 62.49624
# Shear Modulus (GPa) = 13.63132 35.67846 24.65489
#
# Velocity S-wave (km/s) = 2.33386 3.77581 3.13876
# Velocity P-wave (km/s) = 5.27157 6.95900 6.17321
#
# Compressibility (1/GPa) = 0.01946664
#
# Stress axis : x y z
#
# Youngs Moduli (GPa) = 59.10815 152.48800 74.89348
#
# Poissons Ratio (x) = 0.16195 0.21396
# Poissons Ratio (y) = 0.06278 0.35664
# Poissons Ratio (z) = 0.16886 0.72614
#
# Static dielectric constant tensor:
#      x y z
#    x 2.127640 0.000000 0.000000 
#    y 0.000000 2.023740 0.000000 
#    z 0.000000 0.000000 2.021750 
# 
# From -- ./inp_files/9309.got.cif
#   From: 2010.05.17/outbox.cif.g08.bks.cpg/sg60_5_cif.got.tgz:9309.got - 2010.06.03 14:59:27.
