data_PCOD9458018
_publ_section_title
;
Structure prediction by ZEFSAII (Michael W. Deem and Ramdas Pophale) SiO2 
 PCOD9458018
Probable space group: P B C N
;
_chemical_formula_sum "Si O2"
_cell_formula_units_Z 64
_cell_length_a 8.856643
_cell_length_b 22.922805
_cell_length_c 15.693689
_cell_angle_alpha 90.000000
_cell_angle_beta 90.000000
_cell_angle_gamma 90.000000
_cell_volume 3186.118623
_symmetry_space_group_name_H-M "P B C N"
_symmetry_group_IT_number 60
_symmetry_cell_setting 'orthorhombic'
loop_
_space_group_symop_operation_xyz
x,y,z
1/2-x,1/2-y,1/2+z
1/2+x,1/2-y,-z
-x,y,1/2-z
-x,-y,-z
1/2+x,1/2+y,1/2-z
1/2-x,1/2+y,z
x,-y,1/2+z
loop_
_atom_site_type_symbol
_atom_site_label
_atom_site_fract_x
_atom_site_fract_y
_atom_site_fract_z
Si Si1 0.876360 0.918786 0.043112
Si Si2 0.820302 0.312485 0.272091
Si Si3 0.277430 0.195600 0.914042
Si Si4 0.322498 0.611924 0.457676
Si Si5 0.888261 0.979759 0.670430
Si Si6 0.169962 0.555734 0.727674
Si Si7 0.662631 0.003077 0.956134
Si Si8 0.630660 0.215610 0.962491
O O1 0.770579 0.872234 0.090664
O O2 0.941350 0.973529 0.098162
O O3 0.016027 0.884602 0.003097
O O4 0.765496 0.947174 0.973879
O O5 0.756670 0.284156 0.184690
O O6 0.759807 0.379446 0.282502
O O7 0.802983 0.283997 0.365578
O O8 0.000000 0.312646 0.250000
O O9 0.451310 0.203662 0.946712
O O10 0.170908 0.227540 0.982483
O O11 0.357132 0.585265 0.363998
O O12 0.239308 0.557160 0.498116
O O13 0.216648 0.666056 0.481358
O O14 0.740575 0.013761 0.702127
O O15 0.000000 0.979179 0.750000
O O16 0.164569 0.519290 0.641661
O O17 0.000000 0.568779 0.750000
O O18 0.500000 0.000000 0.000000
#
# Coordination Sequence:
#
# PCOD9458018 Si02
#       8
#     8   8   8   8   8   8   8   8
#     4  11  22  37  58  88 125 161 211 258 310 377
#     4   9  20  38  64  91 120 159 210 262 309 372
#     4  11  23  43  66  97 122 165 220 268 319 380
#     4  11  22  38  58  87 126 169 202 253 322 379
#     4  11  22  36  57  92 128 165 204 260 314 376
#     4  11  19  34  58  90 120 155 205 253 304 372
#     4  11  21  35  58  89 124 161 201 252 318 380
#     4  11  23  43  67  91 127 167 213 266 325 379
#
# _framework density 20.087136999999998
#
# number of rings (size 3 to 8) (size 9 to 14) (size 15 to 20)
#    0.000    1.250    2.500    6.000    1.750    0.000 
#    0.000    6.250    0.000    1.500    0.000    0.000 
#    0.000    0.000    0.000    0.000    0.000    0.000 
#
# Total GULP energy -356636.547662 kJ/mol
# GULP energy per Si atom -5572.446057 kJ/mol
# Density = 2.004142 g / cm^3
# Si number density = 20.087137 Si / 1000 Ang^3
#
#
#
# Elastic Constant Matrix: (Units=GPa)
#
#
# Indices 1 2 3 4 5 6 
#
# 1 79.3469 21.7488 17.8216 0.0000 0.0000 0.0000
# 2 21.7488 62.7224 42.8163 0.0000 0.0000 0.0000
# 3 17.8216 42.8163 120.2916 0.0000 0.0000 0.0000
# 4 0.0000 0.0000 0.0000 35.4559 0.0000 0.0000
# 5 0.0000 0.0000 0.0000 0.0000 27.2121 0.0000
# 6 0.0000 0.0000 0.0000 0.0000 0.0000 31.4640
#
#
#
# Elastic Compliance Matrix: (Units=1/GPa)
#
#
# Indices 1 2 3 4 5 6 
#
# 1 0.013945 -0.004525 -0.000456 0.000000 0.000000 0.000000
# 2 -0.004525 0.022528 -0.007348 0.000000 0.000000 0.000000
# 3 -0.000456 -0.007348 0.010996 0.000000 0.000000 0.000000
# 4 0.000000 0.000000 0.000000 0.028204 0.000000 0.000000
# 5 0.000000 0.000000 0.000000 0.000000 0.036748 0.000000
# 6 0.000000 0.000000 0.000000 0.000000 0.000000 0.031782
#
#
# Mechanical properties :
#
#
# Convention : Reuss Voigt Hill
#
# Bulk Modulus (GPa) = 43.83474 47.45937 45.64706
# Shear Modulus (GPa) = 28.33408 30.82469 29.57938
#
# Velocity S-wave (km/s) = 3.75981 3.92158 3.84155
# Velocity P-wave (km/s) = 6.38106 6.64704 6.51541
#
# Compressibility (1/GPa) = 0.02281296
#
# Stress axis : x y z
#
# Youngs Moduli (GPa) = 71.70836 44.38853 90.94062
#
# Poissons Ratio (x) = 0.20084 0.04143
# Poissons Ratio (y) = 0.32444 0.66826
# Poissons Ratio (z) = 0.03267 0.32618
#
# Static dielectric constant tensor:
#      x y z
#    x 1.746640 0.000000 0.000000 
#    y 0.000000 1.710090 0.000000 
#    z 0.000000 0.000000 1.677940 
# 
# From -- ./inp_files/15430.got.cif
#   From: 2010.05.17/outbox.cif.g08.bks.cpg/sg60_8_cif.got.tgz:15430.got - 2010.06.03 14:59:27.
