data_PCOD9458668
_publ_section_title
;
Structure prediction by ZEFSAII (Michael W. Deem and Ramdas Pophale) SiO2 
 PCOD9458668
Probable space group: P B C N
;
_chemical_formula_sum "Si O2"
_cell_formula_units_Z 48
_cell_length_a 13.717897
_cell_length_b 34.077924
_cell_length_c 4.979514
_cell_angle_alpha 90.000000
_cell_angle_beta 90.000000
_cell_angle_gamma 90.000000
_cell_volume 2327.810514
_symmetry_space_group_name_H-M "P B C N"
_symmetry_group_IT_number 60
_symmetry_cell_setting 'orthorhombic'
loop_
_space_group_symop_operation_xyz
x,y,z
1/2-x,1/2-y,1/2+z
1/2+x,1/2-y,-z
-x,y,1/2-z
-x,-y,-z
1/2+x,1/2+y,1/2-z
1/2-x,1/2+y,z
x,-y,1/2+z
loop_
_atom_site_type_symbol
_atom_site_label
_atom_site_fract_x
_atom_site_fract_y
_atom_site_fract_z
Si Si1 0.500000 0.357156 0.750000
Si Si2 0.208384 0.354294 0.365901
Si Si3 0.500000 0.941077 0.750000
Si Si4 0.794989 0.894292 0.633253
Si Si5 0.288841 0.975489 0.660445
Si Si6 0.500000 0.115133 0.750000
Si Si7 0.000000 0.800644 0.250000
Si Si8 0.288392 0.728664 0.663566
O O1 0.407642 0.383164 0.831649
O O2 0.474936 0.328847 0.500373
O O3 0.236860 0.364656 0.669260
O O4 0.245310 0.312254 0.270285
O O5 0.093548 0.359511 0.326048
O O6 0.260653 0.385762 0.168958
O O7 0.404069 0.965835 0.682970
O O8 0.524105 0.913217 0.498940
O O9 0.767849 0.937366 0.736267
O O10 0.267025 0.988464 0.359045
O O11 0.094922 0.775505 0.175212
O O12 0.250833 0.738394 0.367211
#
# Coordination Sequence:
#
# PCOD9458668 Si02
#       8
#     4   8   4   8   8   4   4   8
#     4  12  22  44  75 101 114 175 238 277 308 377
#     4  12  23  43  66  97 132 176 218 269 325 388
#     4  12  22  39  63  94 126 185 224 257 320 398
#     4  12  23  43  69  96 126 170 229 273 323 379
#     4  12  24  40  61  96 136 169 214 275 334 391
#     4  12  22  39  67  96 134 169 224 269 318 402
#     4  12  24  44  75  97 130 175 230 265 316 397
#     4  12  26  44  68 102 139 173 213 275 336 390
#
# _framework density 20.620232999999999
#
# number of rings (size 3 to 8) (size 9 to 14) (size 15 to 20)
#    0.000    0.000    6.667    4.500    0.000    1.333 
#    0.000    0.833    0.000    0.000    0.000    0.000 
#    0.000    0.000    0.000    0.000    0.000    0.000 
#
# Total GULP energy -268848.924948 kJ/mol
# GULP energy per Si atom -5601.019270 kJ/mol
# Density = 2.057330 g / cm^3
# Si number density = 20.620233 Si / 1000 Ang^3
#
#
#
# Elastic Constant Matrix: (Units=GPa)
#
#
# Indices 1 2 3 4 5 6 
#
# 1 114.0032 12.3823 -18.7435 0.0000 0.0000 0.0000
# 2 12.3823 58.9562 -14.2128 0.0000 0.0000 0.0000
# 3 -18.7435 -14.2128 63.9456 0.0000 0.0000 0.0000
# 4 0.0000 0.0000 0.0000 20.3615 0.0000 0.0000
# 5 0.0000 0.0000 0.0000 0.0000 24.3262 0.0000
# 6 0.0000 0.0000 0.0000 0.0000 0.0000 332.9113
#
#
#
# Elastic Compliance Matrix: (Units=1/GPa)
#
#
# Indices 1 2 3 4 5 6 
#
# 1 0.009320 -0.001372 0.002427 0.000000 0.000000 0.000000
# 2 -0.001372 0.018124 0.003626 0.000000 0.000000 0.000000
# 3 0.002427 0.003626 0.017156 0.000000 0.000000 0.000000
# 4 0.000000 0.000000 0.000000 0.049112 0.000000 0.000000
# 5 0.000000 0.000000 0.000000 0.000000 0.041108 0.000000
# 6 0.000000 0.000000 0.000000 0.000000 0.000000 0.003004
#
#
# Mechanical properties :
#
#
# Convention : Reuss Voigt Hill
#
# Bulk Modulus (GPa) = 18.53215 21.75079 20.14147
# Shear Modulus (GPa) = 34.14149 92.68506 63.41327
#
# Velocity S-wave (km/s) = 4.07348 6.71164 5.55155
# Velocity P-wave (km/s) = 5.57953 8.40433 7.13316
#
# Compressibility (1/GPa) = 0.05396029
#
# Stress axis : x y z
#
# Youngs Moduli (GPa) = 107.29928 55.17507 58.29018
#
# Poissons Ratio (x) = 0.07572 -0.14145
# Poissons Ratio (y) = 0.14725 -0.21136
# Poissons Ratio (z) = -0.26039 -0.20007
#
# Static dielectric constant tensor:
#      x y z
#    x 1.706040 0.000000 0.000000 
#    y 0.000000 1.724020 0.000000 
#    z 0.000000 0.000000 1.708590 
# 
# From -- ./inp_files/1462.got.cif
#   From: 2010.05.17/outbox.cif.g08.bks.cpg/sg60_1_cif.got.tgz:1462.got - 2010.06.03 14:59:27.
