data_PCOD9458267
_publ_section_title
;
Structure prediction by ZEFSAII (Michael W. Deem and Ramdas Pophale) SiO2 
 PCOD9458267
Probable space group: P B C N
;
_chemical_formula_sum "Si O2"
_cell_formula_units_Z 56
_cell_length_a 13.755333
_cell_length_b 13.892765
_cell_length_c 13.037675
_cell_angle_alpha 90.000000
_cell_angle_beta 90.000000
_cell_angle_gamma 90.000000
_cell_volume 2491.494593
_symmetry_space_group_name_H-M "P B C N"
_symmetry_group_IT_number 60
_symmetry_cell_setting 'orthorhombic'
loop_
_space_group_symop_operation_xyz
x,y,z
1/2-x,1/2-y,1/2+z
1/2+x,1/2-y,-z
-x,y,1/2-z
-x,-y,-z
1/2+x,1/2+y,1/2-z
1/2-x,1/2+y,z
x,-y,1/2+z
loop_
_atom_site_type_symbol
_atom_site_label
_atom_site_fract_x
_atom_site_fract_y
_atom_site_fract_z
Si Si1 0.326741 0.006131 0.492440
Si Si2 0.166378 0.853462 0.482192
Si Si3 0.984400 0.547222 0.360591
Si Si4 0.617031 0.758680 0.856512
Si Si5 0.687758 0.630534 0.286992
Si Si6 0.295958 0.314386 0.937868
Si Si7 0.396609 0.436925 0.275307
O O1 0.416826 0.023370 0.418262
O O2 0.242835 0.083053 0.476580
O O3 0.270845 0.907004 0.478277
O O4 0.386083 0.000522 0.597347
O O5 0.134294 0.855872 0.601836
O O6 0.196625 0.748522 0.442835
O O7 0.105428 0.907542 0.395065
O O8 0.968184 0.662555 0.358713
O O9 0.000000 0.507611 0.250000
O O10 0.708858 0.819131 0.812058
O O11 0.608384 0.662287 0.788956
O O12 0.634456 0.724803 0.973271
O O13 0.660507 0.678357 0.176743
O O14 0.682716 0.516327 0.259697
O O15 0.500000 0.484324 0.250000
#
# Coordination Sequence:
#
# PCOD9458267 Si02
#       7
#     8   8   8   8   8   8   8
#     4  11  23  41  68 101 136 180 232 296 344 429
#     4  11  24  44  69 106 136 188 241 281 367 432
#     4  11  24  41  66 103 141 174 234 296 355 414
#     4  11  24  43  70 102 139 186 237 287 361 434
#     4  11  23  45  69  99 141 186 235 294 352 436
#     4  11  22  42  71  99 140 188 233 289 354 434
#     4  12  27  44  74 104 138 187 238 301 361 426
#
# _framework density 22.476468000000001
#
# number of rings (size 3 to 8) (size 9 to 14) (size 15 to 20)
#    0.000    0.857    5.714    2.143    2.000    0.571 
#    0.000    0.000    0.000    0.000    0.000    0.000 
#    0.000    0.000    0.000    0.000    0.000    0.000 
#
# Total GULP energy -312330.740619 kJ/mol
# GULP energy per Si atom -5577.334654 kJ/mol
# Density = 2.242531 g / cm^3
# Si number density = 22.476468 Si / 1000 Ang^3
#
#
#
# Elastic Constant Matrix: (Units=GPa)
#
#
# Indices 1 2 3 4 5 6 
#
# 1 47.2731 0.5471 27.4049 0.0000 0.0000 0.0000
# 2 0.5471 60.6822 28.9597 0.0000 0.0000 0.0000
# 3 27.4049 28.9597 201.9829 0.0000 0.0000 0.0000
# 4 0.0000 0.0000 0.0000 36.2552 0.0000 0.0000
# 5 0.0000 0.0000 0.0000 0.0000 20.9224 0.0000
# 6 0.0000 0.0000 0.0000 0.0000 0.0000 54.6229
#
#
#
# Elastic Compliance Matrix: (Units=1/GPa)
#
#
# Indices 1 2 3 4 5 6 
#
# 1 0.023067 0.001380 -0.003328 0.000000 0.000000 0.000000
# 2 0.001380 0.017772 -0.002735 0.000000 0.000000 0.000000
# 3 -0.003328 -0.002735 0.005795 0.000000 0.000000 0.000000
# 4 0.000000 0.000000 0.000000 0.027582 0.000000 0.000000
# 5 0.000000 0.000000 0.000000 0.000000 0.047796 0.000000
# 6 0.000000 0.000000 0.000000 0.000000 0.000000 0.018307
#
#
# Mechanical properties :
#
#
# Convention : Reuss Voigt Hill
#
# Bulk Modulus (GPa) = 26.83275 47.08461 36.95868
# Shear Modulus (GPa) = 30.84377 39.22854 35.03616
#
# Velocity S-wave (km/s) = 3.70843 4.18223 3.95244
# Velocity P-wave (km/s) = 5.50461 6.65697 6.10803
#
# Compressibility (1/GPa) = 0.03726789
#
# Stress axis : x y z
#
# Youngs Moduli (GPa) = 43.35243 56.26739 172.57486
#
# Poissons Ratio (x) = -0.07765 0.57425
# Poissons Ratio (y) = -0.05983 0.47206
# Poissons Ratio (z) = 0.14426 0.15391
#
# Static dielectric constant tensor:
#      x y z
#    x 1.846590 0.000000 0.000000 
#    y 0.000000 1.867650 0.000000 
#    z 0.000000 0.000000 1.846050 
# 
# From -- ./inp_files/11982.got.cif
#   From: 2010.05.17/outbox.cif.g08.bks.cpg/sg60_6_cif.got.tgz:11982.got - 2010.06.03 14:59:27.
