data_PCOD9458319
_publ_section_title
;
Structure prediction by ZEFSAII (Michael W. Deem and Ramdas Pophale) SiO2 
 PCOD9458319
Probable space group: P B C N
;
_chemical_formula_sum "Si O2"
_cell_formula_units_Z 40
_cell_length_a 7.181204
_cell_length_b 10.881088
_cell_length_c 23.228215
_cell_angle_alpha 90.000000
_cell_angle_beta 90.000000
_cell_angle_gamma 90.000000
_cell_volume 1815.036755
_symmetry_space_group_name_H-M "P B C N"
_symmetry_group_IT_number 60
_symmetry_cell_setting 'orthorhombic'
loop_
_space_group_symop_operation_xyz
x,y,z
1/2-x,1/2-y,1/2+z
1/2+x,1/2-y,-z
-x,y,1/2-z
-x,-y,-z
1/2+x,1/2+y,1/2-z
1/2-x,1/2+y,z
x,-y,1/2+z
loop_
_atom_site_type_symbol
_atom_site_label
_atom_site_fract_x
_atom_site_fract_y
_atom_site_fract_z
Si Si1 0.844748 0.008619 0.583083
Si Si2 0.393774 0.484971 0.690366
Si Si3 0.000654 0.634441 0.567902
Si Si4 0.093892 0.173139 0.519523
Si Si5 0.108948 0.711195 0.688912
O O1 0.622051 0.013592 0.579364
O O2 0.943925 0.987619 0.642906
O O3 0.924493 0.140137 0.561239
O O4 0.918696 0.911050 0.537263
O O5 0.500000 0.497557 0.750000
O O6 0.250631 0.597088 0.684551
O O7 0.303672 0.348417 0.687667
O O8 0.918541 0.693896 0.509036
O O9 0.219031 0.635935 0.552908
O O10 0.986136 0.701404 0.630279
O O11 0.000000 0.701073 0.750000
#
# Coordination Sequence:
#
# PCOD9458319 Si02
#       5
#     8   8   8   8   8
#     4  11  23  41  64  95 137 178 231 284 339 411
#     4  11  24  46  71  99 140 183 231 293 347 411
#     4  12  22  42  66  97 139 181 230 284 349 412
#     4  11  23  39  64  95 134 184 226 280 347 409
#     4  11  25  46  71 101 138 181 232 287 346 416
#
# _framework density 22.038122000000001
#
# number of rings (size 3 to 8) (size 9 to 14) (size 15 to 20)
#    0.000    0.800    6.000    1.800    0.000    0.800 
#    7.200    0.000    0.000    0.000    0.000    0.000 
#    0.000    0.000    0.000    0.000    0.000    0.000 
#
# Total GULP energy -223041.807073 kJ/mol
# GULP energy per Si atom -5576.045177 kJ/mol
# Density = 2.198796 g / cm^3
# Si number density = 22.038122 Si / 1000 Ang^3
#
#
#
# Elastic Constant Matrix: (Units=GPa)
#
#
# Indices 1 2 3 4 5 6 
#
# 1 67.7612 15.7921 15.5826 0.0000 0.0000 0.0000
# 2 15.7921 95.7289 20.7970 0.0000 0.0000 0.0000
# 3 15.5826 20.7970 161.6637 0.0000 0.0000 0.0000
# 4 0.0000 0.0000 0.0000 17.4514 0.0000 0.0000
# 5 0.0000 0.0000 0.0000 0.0000 27.2780 0.0000
# 6 0.0000 0.0000 0.0000 0.0000 0.0000 0.2010
#
#
#
# Elastic Compliance Matrix: (Units=1/GPa)
#
#
# Indices 1 2 3 4 5 6 
#
# 1 0.015572 -0.002307 -0.001204 0.000000 0.000000 0.000000
# 2 -0.002307 0.011088 -0.001204 0.000000 0.000000 0.000000
# 3 -0.001204 -0.001204 0.006457 0.000000 0.000000 0.000000
# 4 0.000000 0.000000 0.000000 0.057302 0.000000 0.000000
# 5 0.000000 0.000000 0.000000 0.000000 0.036660 0.000000
# 6 0.000000 0.000000 0.000000 0.000000 0.000000 4.973935
#
#
# Mechanical properties :
#
#
# Convention : Reuss Voigt Hill
#
# Bulk Modulus (GPa) = 42.21853 47.72192 44.97022
# Shear Modulus (GPa) = 0.97688 27.18490 14.08089
#
# Velocity S-wave (km/s) = 0.66651 3.51599 2.53046
# Velocity P-wave (km/s) = 4.44870 6.17933 5.38401
#
# Compressibility (1/GPa) = 0.02368628
#
# Stress axis : x y z
#
# Youngs Moduli (GPa) = 64.21637 90.18458 154.87928
#
# Poissons Ratio (x) = 0.20808 0.18650
# Poissons Ratio (y) = 0.14817 0.18648
# Poissons Ratio (z) = 0.07733 0.10859
#
# Static dielectric constant tensor:
#      x y z
#    x 1.832030 0.000000 0.000000 
#    y 0.000000 1.926550 0.000000 
#    z 0.000000 0.000000 1.797270 
# 
# From -- ./inp_files/21998.got.cif
#   From: 2010.05.17/outbox.cif.g08.bks.cpg/sg60_11_cif.got.tgz:21998.got - 2010.06.03 14:59:27.
