data_PCOD9458208
_publ_section_title
;
Structure prediction by ZEFSAII (Michael W. Deem and Ramdas Pophale) SiO2 
 PCOD9458208
Probable space group: P B C N
;
_chemical_formula_sum "Si O2"
_cell_formula_units_Z 40
_cell_length_a 33.192683
_cell_length_b 6.590289
_cell_length_c 7.919989
_cell_angle_alpha 90.000000
_cell_angle_beta 90.000000
_cell_angle_gamma 90.000000
_cell_volume 1732.492633
_symmetry_space_group_name_H-M "P B C N"
_symmetry_group_IT_number 60
_symmetry_cell_setting 'orthorhombic'
loop_
_space_group_symop_operation_xyz
x,y,z
1/2-x,1/2-y,1/2+z
1/2+x,1/2-y,-z
-x,y,1/2-z
-x,-y,-z
1/2+x,1/2+y,1/2-z
1/2-x,1/2+y,z
x,-y,1/2+z
loop_
_atom_site_type_symbol
_atom_site_label
_atom_site_fract_x
_atom_site_fract_y
_atom_site_fract_z
Si Si1 0.471445 0.640988 0.384420
Si Si2 0.711223 0.325378 0.547899
Si Si3 0.586797 0.374607 0.348708
Si Si4 0.356236 0.668280 0.936834
Si Si5 0.295497 0.941858 0.115093
O O1 0.500000 0.757456 0.250000
O O2 0.500000 0.500000 0.500000
O O3 0.444498 0.490196 0.272070
O O4 0.439599 0.745573 0.511914
O O5 0.679882 0.504158 0.585392
O O6 0.710311 0.183905 0.713742
O O7 0.755087 0.404752 0.495861
O O8 0.699830 0.183799 0.387948
O O9 0.612591 0.548053 0.443375
O O10 0.618431 0.266309 0.226671
O O11 0.334834 0.854229 0.026162
#
# Coordination Sequence:
#
# PCOD9458208 Si02
#       5
#     8   8   8   8   8
#     4   8  14  28  52  86 122 148 184 231 283 360
#     4  12  26  40  60  82 112 158 212 257 299 352
#     4   9  18  31  54  82 120 160 178 243 303 335
#     4  11  22  39  56  82 124 154 202 251 297 343
#     4  12  26  40  60  82 112 158 212 256 301 349
#
# _framework density 23.08812
#
# number of rings (size 3 to 8) (size 9 to 14) (size 15 to 20)
#    0.000    1.600    4.000    1.200    5.600    0.000 
#    0.000    0.000    0.000    0.000    0.000    0.000 
#    0.000  403.200    0.000    0.000    0.000    0.000 
#
# Total GULP energy -223324.836809 kJ/mol
# GULP energy per Si atom -5583.120920 kJ/mol
# Density = 2.303557 g / cm^3
# Si number density = 23.088120 Si / 1000 Ang^3
#
#
#
# Elastic Constant Matrix: (Units=GPa)
#
#
# Indices 1 2 3 4 5 6 
#
# 1 130.7909 6.2019 52.4126 0.0000 0.0000 0.0000
# 2 6.2019 40.9385 0.5629 0.0000 0.0000 0.0000
# 3 52.4126 0.5629 91.3766 0.0000 0.0000 0.0000
# 4 0.0000 0.0000 0.0000 24.0486 0.0000 0.0000
# 5 0.0000 0.0000 0.0000 0.0000 60.3539 0.0000
# 6 0.0000 0.0000 0.0000 0.0000 0.0000 2.5654
#
#
#
# Elastic Compliance Matrix: (Units=1/GPa)
#
#
# Indices 1 2 3 4 5 6 
#
# 1 0.010012 -0.001438 -0.005734 0.000000 0.000000 0.000000
# 2 -0.001438 0.024635 0.000673 0.000000 0.000000 0.000000
# 3 -0.005734 0.000673 0.014228 0.000000 0.000000 0.000000
# 4 0.000000 0.000000 0.000000 0.041583 0.000000 0.000000
# 5 0.000000 0.000000 0.000000 0.000000 0.016569 0.000000
# 6 0.000000 0.000000 0.000000 0.000000 0.000000 0.389804
#
#
# Mechanical properties :
#
#
# Convention : Reuss Voigt Hill
#
# Bulk Modulus (GPa) = 27.87201 42.38453 35.12827
# Shear Modulus (GPa) = 9.58244 30.98881 20.28563
#
# Velocity S-wave (km/s) = 2.03946 3.66758 2.96736
# Velocity P-wave (km/s) = 4.20048 6.02764 5.19502
#
# Compressibility (1/GPa) = 0.03587829
#
# Stress axis : x y z
#
# Youngs Moduli (GPa) = 99.88320 40.59193 70.28205
#
# Poissons Ratio (x) = 0.05837 0.40298
# Poissons Ratio (y) = 0.14362 -0.04730
# Poissons Ratio (z) = 0.57270 -0.02732
#
# Static dielectric constant tensor:
#      x y z
#    x 1.882070 0.000000 0.000000 
#    y 0.000000 1.794690 0.000000 
#    z 0.000000 0.000000 1.985450 
# 
# From -- ./inp_files/8328.got.cif
#   From: 2010.05.17/outbox.cif.g08.bks.cpg/sg60_5_cif.got.tgz:8328.got - 2010.06.03 14:59:27.
