data_PCOD9458959
_publ_section_title
;
Structure prediction by ZEFSAII (Michael W. Deem and Ramdas Pophale) SiO2 
 PCOD9458959
Probable space group: P B C N
;
_chemical_formula_sum "Si O2"
_cell_formula_units_Z 40
_cell_length_a 9.000000
_cell_length_b 18.000000
_cell_length_c 12.000000
_cell_angle_alpha 90.000000
_cell_angle_beta 90.000000
_cell_angle_gamma 90.000000
_cell_volume 1944.000000
_symmetry_space_group_name_H-M "P B C N"
_symmetry_group_IT_number 60
_symmetry_cell_setting 'orthorhombic'
loop_
_space_group_symop_operation_xyz
x,y,z
1/2-x,1/2-y,1/2+z
1/2+x,1/2-y,-z
-x,y,1/2-z
-x,-y,-z
1/2+x,1/2+y,1/2-z
1/2-x,1/2+y,z
x,-y,1/2+z
loop_
_atom_site_type_symbol
_atom_site_label
_atom_site_fract_x
_atom_site_fract_y
_atom_site_fract_z
Si Si1 0.711144 0.823115 0.149373
Si Si2 0.196960 0.147897 0.405219
Si Si3 0.872832 0.381152 0.369892
Si Si4 0.333322 0.051236 0.208947
Si Si5 0.902992 0.921186 0.986064
O O1 0.725381 0.735974 0.116613
O O2 0.544714 0.854830 0.120941
O O3 0.712710 0.827638 0.283602
O O4 0.831721 0.879515 0.094266
O O5 0.296291 0.122491 0.510438
O O6 0.235396 0.090264 0.305551
O O7 0.024771 0.134652 0.435054
O O8 0.854235 0.462637 0.313252
O O9 0.500000 0.075906 0.250000
O O10 0.239476 0.071446 0.096701
O O11 0.000000 0.000000 0.000000
#
# Coordination Sequence:
#
# PCOD9458959 Si02
#       5
#     8   8   8   8   8
#     4  11  26  46  74 106 153 195 245 309 387 444
#     4  12  27  46  74 110 150 190 252 318 376 443
#     4  11  25  48  73 102 150 201 247 299 380 461
#     4  12  26  47  75 106 145 202 254 303 377 457
#     4  12  26  46  78 111 148 194 255 316 371 452
#
# _framework density 20.576132000000001
#
# number of rings (size 3 to 8) (size 9 to 14) (size 15 to 20)
#    0.000    0.400    4.000    4.200    8.400    2.400 
#    0.000    0.000    0.000    0.000    0.000    0.000 
#    0.000    0.000    0.000    0.000    0.000    0.000 
#
# Total GULP energy -223126.278114 kJ/mol
# GULP energy per Si atom -5578.156953 kJ/mol
# Density = 2.052930 g / cm^3
# Si number density = 20.576132 Si / 1000 Ang^3
#
#
#
# Elastic Constant Matrix: (Units=GPa)
#
#
# Indices 1 2 3 4 5 6 
#
# 1 77.7581 19.2935 15.6653 0.0000 0.0000 0.0000
# 2 19.2935 129.6039 39.5886 0.0000 0.0000 0.0000
# 3 15.6653 39.5886 109.0127 0.0000 0.0000 0.0000
# 4 0.0000 0.0000 0.0000 35.3629 0.0000 0.0000
# 5 0.0000 0.0000 0.0000 0.0000 49.1448 0.0000
# 6 0.0000 0.0000 0.0000 0.0000 0.0000 42.8876
#
#
#
# Elastic Compliance Matrix: (Units=1/GPa)
#
#
# Indices 1 2 3 4 5 6 
#
# 1 0.013532 -0.001598 -0.001364 0.000000 0.000000 0.000000
# 2 -0.001598 0.008867 -0.002991 0.000000 0.000000 0.000000
# 3 -0.001364 -0.002991 0.010455 0.000000 0.000000 0.000000
# 4 0.000000 0.000000 0.000000 0.028278 0.000000 0.000000
# 5 0.000000 0.000000 0.000000 0.000000 0.020348 0.000000
# 6 0.000000 0.000000 0.000000 0.000000 0.000000 0.023317
#
#
# Mechanical properties :
#
#
# Convention : Reuss Voigt Hill
#
# Bulk Modulus (GPa) = 47.73481 51.71882 49.72682
# Shear Modulus (GPa) = 40.42518 41.60088 41.01303
#
# Velocity S-wave (km/s) = 4.43726 4.50132 4.46941
# Velocity P-wave (km/s) = 7.03576 7.22536 7.13119
#
# Compressibility (1/GPa) = 0.02094907
#
# Stress axis : x y z
#
# Youngs Moduli (GPa) = 73.90070 112.77587 95.64491
#
# Poissons Ratio (x) = 0.18018 0.13049
# Poissons Ratio (y) = 0.11807 0.28603
# Poissons Ratio (z) = 0.10082 0.33726
#
# Static dielectric constant tensor:
#      x y z
#    x 1.743700 0.000000 0.000000 
#    y 0.000000 1.756500 0.000000 
#    z 0.000000 0.000000 1.775240 
# 
# From -- ./inp_files/9787.got.cif
#   From: 2010.05.17/outbox.ucp.g08.bks.cvg/sg60_5_cif.got.tgz:9787.got - 2010.06.11 16:26:41.
