data_PCOD9458359
_publ_section_title
;
Structure prediction by ZEFSAII (Michael W. Deem and Ramdas Pophale) SiO2 
 PCOD9458359
Probable space group: P B C N
;
_chemical_formula_sum "Si O2"
_cell_formula_units_Z 40
_cell_length_a 8.846301
_cell_length_b 18.296590
_cell_length_c 11.577408
_cell_angle_alpha 90.000000
_cell_angle_beta 90.000000
_cell_angle_gamma 90.000000
_cell_volume 1873.886175
_symmetry_space_group_name_H-M "P B C N"
_symmetry_group_IT_number 60
_symmetry_cell_setting 'orthorhombic'
loop_
_space_group_symop_operation_xyz
x,y,z
1/2-x,1/2-y,1/2+z
1/2+x,1/2-y,-z
-x,y,1/2-z
-x,-y,-z
1/2+x,1/2+y,1/2-z
1/2-x,1/2+y,z
x,-y,1/2+z
loop_
_atom_site_type_symbol
_atom_site_label
_atom_site_fract_x
_atom_site_fract_y
_atom_site_fract_z
Si Si1 0.824938 0.325464 0.540149
Si Si2 0.285496 0.420443 0.309263
Si Si3 0.926211 0.931953 0.430981
Si Si4 0.084260 0.283393 0.356576
Si Si5 0.434371 0.030246 0.377354
O O1 0.690662 0.376737 0.489501
O O2 0.727909 0.261617 0.598101
O O3 0.917483 0.382804 0.618354
O O4 0.951687 0.297910 0.449740
O O5 0.335746 0.452125 0.185786
O O6 0.428689 0.389486 0.378632
O O7 0.155782 0.359365 0.309281
O O8 0.225067 0.489962 0.377008
O O9 0.000000 0.000000 0.500000
O O10 0.000000 0.244741 0.250000
O O11 0.500000 0.010181 0.250000
O O12 0.500000 0.000000 0.500000
#
# Coordination Sequence:
#
# PCOD9458359 Si02
#       5
#     8   8   8   8   8
#     4  12  26  46  72 106 144 195 252 311 364 461
#     4  11  23  43  73 101 145 193 237 309 380 455
#     4  11  23  42  71 107 140 185 249 307 381 440
#     4  12  26  47  71 101 151 201 248 304 390 451
#     4  12  25  45  76 108 145 188 248 313 381 440
#
# _framework density 21.346015000000001
#
# number of rings (size 3 to 8) (size 9 to 14) (size 15 to 20)
#    0.000    0.400    6.000    3.000    0.000    3.200 
#    3.600    0.000    0.000    0.000    0.000    0.000 
#    0.000    0.000    0.000    0.000    0.000    0.000 
#
# Total GULP energy -222758.132876 kJ/mol
# GULP energy per Si atom -5568.953322 kJ/mol
# Density = 2.129743 g / cm^3
# Si number density = 21.346015 Si / 1000 Ang^3
#
#
#
# Elastic Constant Matrix: (Units=GPa)
#
#
# Indices 1 2 3 4 5 6 
#
# 1 121.2055 44.5642 71.2528 0.0000 0.0000 0.0000
# 2 44.5642 96.8368 55.4792 0.0000 0.0000 0.0000
# 3 71.2528 55.4792 126.4967 0.0000 0.0000 0.0000
# 4 0.0000 0.0000 0.0000 22.4529 0.0000 0.0000
# 5 0.0000 0.0000 0.0000 0.0000 49.2515 0.0000
# 6 0.0000 0.0000 0.0000 0.0000 0.0000 48.7573
#
#
#
# Elastic Compliance Matrix: (Units=1/GPa)
#
#
# Indices 1 2 3 4 5 6 
#
# 1 0.012719 -0.002335 -0.006140 0.000000 0.000000 0.000000
# 2 -0.002335 0.014221 -0.004922 0.000000 0.000000 0.000000
# 3 -0.006140 -0.004922 0.013522 0.000000 0.000000 0.000000
# 4 0.000000 0.000000 0.000000 0.044538 0.000000 0.000000
# 5 0.000000 0.000000 0.000000 0.000000 0.020304 0.000000
# 6 0.000000 0.000000 0.000000 0.000000 0.000000 0.020510
#
#
# Mechanical properties :
#
#
# Convention : Reuss Voigt Hill
#
# Bulk Modulus (GPa) = 73.16255 76.34793 74.75524
# Shear Modulus (GPa) = 31.81410 35.64186 33.72798
#
# Velocity S-wave (km/s) = 3.86476 4.09065 3.97931
# Velocity P-wave (km/s) = 7.36642 7.62599 7.49733
#
# Compressibility (1/GPa) = 0.01366820
#
# Stress axis : x y z
#
# Youngs Moduli (GPa) = 78.62552 70.31803 73.95213
#
# Poissons Ratio (x) = 0.16423 0.45405
# Poissons Ratio (y) = 0.18363 0.36396
# Poissons Ratio (z) = 0.48274 0.34608
#
# Static dielectric constant tensor:
#      x y z
#    x 1.882630 0.000000 0.000000 
#    y 0.000000 1.943480 0.000000 
#    z 0.000000 0.000000 1.867030 
# 
# From -- ./inp_files/9766.got.cif
#   From: 2010.05.17/outbox.cif.g08.bks.cpg/sg60_5_cif.got.tgz:9766.got - 2010.06.03 14:59:27.
