data_PCOD9458807
_publ_section_title
;
Structure prediction by ZEFSAII (Michael W. Deem and Ramdas Pophale) SiO2 
 PCOD9458807
Probable space group: P B C N
;
_chemical_formula_sum "Si O2"
_cell_formula_units_Z 24
_cell_length_a 7.170659
_cell_length_b 14.693439
_cell_length_c 6.803380
_cell_angle_alpha 90.000000
_cell_angle_beta 90.000000
_cell_angle_gamma 90.000000
_cell_volume 716.815278
_symmetry_space_group_name_H-M "P B C N"
_symmetry_group_IT_number 60
_symmetry_cell_setting 'orthorhombic'
loop_
_space_group_symop_operation_xyz
x,y,z
1/2-x,1/2-y,1/2+z
1/2+x,1/2-y,-z
-x,y,1/2-z
-x,-y,-z
1/2+x,1/2+y,1/2-z
1/2-x,1/2+y,z
x,-y,1/2+z
loop_
_atom_site_type_symbol
_atom_site_label
_atom_site_fract_x
_atom_site_fract_y
_atom_site_fract_z
Si Si1 0.316121 0.428873 0.280922
Si Si2 0.025130 0.327524 0.544658
Si Si3 0.168369 0.134127 0.412722
O O1 0.175220 0.393821 0.447082
O O2 0.311620 0.538596 0.292485
O O3 0.169546 0.376990 0.088912
O O4 0.474740 0.409821 0.095125
O O5 0.058118 0.230427 0.441798
O O6 0.853512 0.318463 0.719777
#
# Coordination Sequence:
#
# PCOD9458807 Si02
#       3
#     8   8   8
#     4  12  27  48  77 113 154 208 271 338 407 484
#     4  12  27  50  78 114 160 214 274 339 410 489
#     4  12  26  48  77 113 157 212 270 339 411 489
#
# _framework density 33.481431000000001
#
# number of rings (size 3 to 8) (size 9 to 14) (size 15 to 20)
#    0.000    0.000    0.000   10.000    0.000    5.333 
#    0.000    0.000    0.000    0.000    0.000    0.000 
#    0.000    0.000    0.000    0.000    0.000    0.000 
#
# Total GULP energy -133740.513862 kJ/mol
# GULP energy per Si atom -5572.521411 kJ/mol
# Density = 3.340523 g / cm^3
# Si number density = 33.481431 Si / 1000 Ang^3
#
#
#
# Elastic Constant Matrix: (Units=GPa)
#
#
# Indices 1 2 3 4 5 6 
#
# 1 415.4391 142.3928 90.5333 0.0000 0.0000 0.0000
# 2 142.3928 356.1942 80.6422 0.0000 0.0000 0.0000
# 3 90.5333 80.6422 377.2373 0.0000 0.0000 0.0000
# 4 0.0000 0.0000 0.0000 -51.7523 0.0000 0.0000
# 5 0.0000 0.0000 0.0000 0.0000 99.4743 0.0000
# 6 0.0000 0.0000 0.0000 0.0000 0.0000 27.3724
#
#
#
# Elastic Compliance Matrix: (Units=1/GPa)
#
#
# Indices 1 2 3 4 5 6 
#
# 1 0.002865 -0.001040 -0.000465 0.000000 0.000000 0.000000
# 2 -0.001040 0.003328 -0.000462 0.000000 0.000000 0.000000
# 3 -0.000465 -0.000462 0.002861 0.000000 0.000000 0.000000
# 4 0.000000 0.000000 0.000000 -0.019323 0.000000 0.000000
# 5 0.000000 0.000000 0.000000 0.000000 0.010053 0.000000
# 6 0.000000 0.000000 0.000000 0.000000 0.000000 0.036533
#
#
# Mechanical properties :
#
#
# Convention : Reuss Voigt Hill
#
# Bulk Modulus (GPa) = 195.31611 197.33412 196.32512
# Shear Modulus (GPa) = 119.16762 70.70569 94.93666
#
# Velocity S-wave (km/s) = 5.97239 4.60041 5.33072
# Velocity P-wave (km/s) = 10.29668 9.34262 9.83123
#
# Compressibility (1/GPa) = 0.00511991
#
# Stress axis : x y z
#
# Youngs Moduli (GPa) = 349.04912 300.50410 349.50094
#
# Poissons Ratio (x) = 0.31251 0.16260
# Poissons Ratio (y) = 0.36300 0.16140
# Poissons Ratio (z) = 0.16239 0.13877
#
# Static dielectric constant tensor:
#      x y z
#    x 3.444370 0.000000 0.000000 
#    y 0.000000 2.355630 0.000000 
#    z 0.000000 0.000000 3.407580 
# 
# From -- ./inp_files/9308.got.cif
#   From: 2010.05.17/outbox.cif.g08.bks.cpg/sg60_5_cif.got.tgz:9308.got - 2010.06.03 14:59:27.
