data_PCOD9458953
_publ_section_title
;
Structure prediction by ZEFSAII (Michael W. Deem and Ramdas Pophale) SiO2 
 PCOD9458953
Probable space group: P B C N
;
_chemical_formula_sum "Si O2"
_cell_formula_units_Z 56
_cell_length_a 15.000000
_cell_length_b 21.000000
_cell_length_c 9.000000
_cell_angle_alpha 90.000000
_cell_angle_beta 90.000000
_cell_angle_gamma 90.000000
_cell_volume 2835.000000
_symmetry_space_group_name_H-M "P B C N"
_symmetry_group_IT_number 60
_symmetry_cell_setting 'orthorhombic'
loop_
_space_group_symop_operation_xyz
x,y,z
1/2-x,1/2-y,1/2+z
1/2+x,1/2-y,-z
-x,y,1/2-z
-x,-y,-z
1/2+x,1/2+y,1/2-z
1/2-x,1/2+y,z
x,-y,1/2+z
loop_
_atom_site_type_symbol
_atom_site_label
_atom_site_fract_x
_atom_site_fract_y
_atom_site_fract_z
Si Si1 0.779918 0.178547 0.935897
Si Si2 0.799707 0.398552 0.149121
Si Si3 0.892150 0.940691 0.108584
Si Si4 0.903967 0.304000 0.933193
Si Si5 0.395083 0.163137 0.407301
Si Si6 0.070536 0.521181 0.378062
Si Si7 0.919114 0.923556 0.462398
O O1 0.735891 0.142116 0.792338
O O2 0.847706 0.238191 0.919297
O O3 0.845405 0.126850 0.010927
O O4 0.692971 0.196792 0.030057
O O5 0.706859 0.417973 0.069197
O O6 0.859529 0.464202 0.165577
O O7 0.858202 0.350325 0.051984
O O8 0.900922 0.937158 0.287296
O O9 0.976493 0.903447 0.036948
O O10 0.906316 0.012722 0.055819
O O11 0.895601 0.332576 0.769464
O O12 0.011450 0.305733 0.963054
O O13 0.386936 0.087081 0.437495
O O14 0.000000 0.538113 0.250000
O O15 0.000000 0.500000 0.500000
#
# Coordination Sequence:
#
# PCOD9458953 Si02
#       7
#     8   8   8   8   8   8   8
#     4  11  24  39  63  89 122 166 213 254 311 385
#     4  11  23  38  62  93 121 165 207 259 317 381
#     4   9  19  35  59  84 121 149 201 250 311 368
#     4  11  24  42  60  87 123 166 207 251 313 380
#     4  11  23  43  63  90 125 164 208 266 318 381
#     4  12  21  38  63  93 127 159 205 269 328 374
#     4   9  19  37  57  88 116 158 196 258 310 362
#
# _framework density 19.753086
#
# number of rings (size 3 to 8) (size 9 to 14) (size 15 to 20)
#    0.000    1.429    2.857    2.571    0.000   10.286 
#    0.000    0.000    0.000    5.143    0.000    0.000 
#    0.000    0.000    0.000    0.000    0.000    0.000 
#
# Total GULP energy -311969.234199 kJ/mol
# GULP energy per Si atom -5570.879182 kJ/mol
# Density = 1.970813 g / cm^3
# Si number density = 19.753086 Si / 1000 Ang^3
#
#
#
# Elastic Constant Matrix: (Units=GPa)
#
#
# Indices 1 2 3 4 5 6 
#
# 1 161.8380 47.9795 21.5493 0.0000 0.0000 0.0000
# 2 47.9795 85.2262 2.2632 0.0000 0.0000 0.0000
# 3 21.5493 2.2632 15.8428 0.0000 0.0000 0.0000
# 4 0.0000 0.0000 0.0000 20.4060 0.0000 0.0000
# 5 0.0000 0.0000 0.0000 0.0000 29.9192 0.0000
# 6 0.0000 0.0000 0.0000 0.0000 0.0000 46.6723
#
#
#
# Elastic Compliance Matrix: (Units=1/GPa)
#
#
# Indices 1 2 3 4 5 6 
#
# 1 0.009193 -0.004862 -0.011810 0.000000 0.000000 0.000000
# 2 -0.004862 0.014349 0.004563 0.000000 0.000000 0.000000
# 3 -0.011810 0.004563 0.078532 0.000000 0.000000 0.000000
# 4 0.000000 0.000000 0.000000 0.049005 0.000000 0.000000
# 5 0.000000 0.000000 0.000000 0.000000 0.033423 0.000000
# 6 0.000000 0.000000 0.000000 0.000000 0.000000 0.021426
#
#
# Mechanical properties :
#
#
# Convention : Reuss Voigt Hill
#
# Bulk Modulus (GPa) = 12.84402 45.16566 29.00484
# Shear Modulus (GPa) = 19.52385 32.14050 25.83217
#
# Velocity S-wave (km/s) = 3.14729 4.03812 3.62021
# Velocity P-wave (km/s) = 4.44113 6.68257 5.67364
#
# Compressibility (1/GPa) = 0.07785723
#
# Stress axis : x y z
#
# Youngs Moduli (GPa) = 108.78067 69.69004 12.73373
#
# Poissons Ratio (x) = 0.33881 0.15038
# Poissons Ratio (y) = 0.52885 -0.05810
# Poissons Ratio (z) = 1.28465 -0.31799
#
# Static dielectric constant tensor:
#      x y z
#    x 1.730710 0.000000 0.000000 
#    y 0.000000 1.735650 0.000000 
#    z 0.000000 0.000000 1.659200 
# 
# From -- ./inp_files/6178.got.cif
#   From: 2010.05.17/outbox.ucp.g08.bks.cvg/sg60_4_cif.got.tgz:6178.got - 2010.06.11 16:26:41.
