data_PCOD9458893
_publ_section_title
;
Structure prediction by ZEFSAII (Michael W. Deem and Ramdas Pophale) SiO2 
 PCOD9458893
Probable space group: P B C N
;
_chemical_formula_sum "Si O2"
_cell_formula_units_Z 60
_cell_length_a 12.000000
_cell_length_b 12.000000
_cell_length_c 21.000000
_cell_angle_alpha 90.000000
_cell_angle_beta 90.000000
_cell_angle_gamma 90.000000
_cell_volume 3024.000000
_symmetry_space_group_name_H-M "P B C N"
_symmetry_group_IT_number 60
_symmetry_cell_setting 'orthorhombic'
loop_
_space_group_symop_operation_xyz
x,y,z
1/2-x,1/2-y,1/2+z
1/2+x,1/2-y,-z
-x,y,1/2-z
-x,-y,-z
1/2+x,1/2+y,1/2-z
1/2-x,1/2+y,z
x,-y,1/2+z
loop_
_atom_site_type_symbol
_atom_site_label
_atom_site_fract_x
_atom_site_fract_y
_atom_site_fract_z
Si Si1 0.695466 0.702057 0.954789
Si Si2 0.455949 0.429978 0.138512
Si Si3 0.722059 0.556587 0.648970
Si Si4 0.888858 0.376131 0.043525
Si Si5 0.885095 0.465214 0.425834
Si Si6 0.500000 0.725639 0.750000
Si Si7 0.229725 0.885654 0.648296
Si Si8 0.721692 0.190400 0.210277
O O1 0.591999 0.643027 0.919439
O O2 0.791254 0.609995 0.959360
O O3 0.748951 0.795592 0.907542
O O4 0.654808 0.755681 0.020861
O O5 0.588960 0.443557 0.137119
O O6 0.434724 0.356190 0.201987
O O7 0.384861 0.544033 0.141827
O O8 0.792804 0.566030 0.584415
O O9 0.747233 0.431668 0.678802
O O10 0.749897 0.681094 0.683382
O O11 0.003847 0.391834 0.082220
O O12 0.910858 0.436105 0.975647
O O13 0.827877 0.522039 0.364182
O O14 0.412618 0.800389 0.787782
O O15 0.237487 0.826417 0.716695
#
# Coordination Sequence:
#
# PCOD9458893 Si02
#       8
#     8   8   8   8   8   4   8   8
#     4  10  21  38  65  91 120 174 214 269 322 391
#     4  10  21  41  63  95 130 175 211 268 338 389
#     4  11  27  41  66  98 134 174 212 274 338 388
#     4  10  23  41  61  91 126 169 218 271 319 384
#     4   9  22  39  64  86 123 167 216 272 316 388
#     4  10  20  38  68  88 132 172 210 256 336 406
#     4  10  20  40  65  92 122 166 229 260 321 397
#     4  11  24  41  65  96 130 175 214 270 328 396
#
# _framework density 19.841270000000002
#
# number of rings (size 3 to 8) (size 9 to 14) (size 15 to 20)
#    0.000    1.867    1.333    1.600    7.467    3.200 
#    0.000    3.333    0.000    0.000    0.000    0.000 
#    0.000    0.000    0.000    0.000    0.000    0.000 
#
# Total GULP energy -334173.125621 kJ/mol
# GULP energy per Si atom -5569.552094 kJ/mol
# Density = 1.979611 g / cm^3
# Si number density = 19.841270 Si / 1000 Ang^3
#
#
#
# Elastic Constant Matrix: (Units=GPa)
#
#
# Indices 1 2 3 4 5 6 
#
# 1 100.8390 28.5792 5.9160 0.0000 0.0000 0.0000
# 2 28.5792 88.0111 -5.2368 0.0000 0.0000 0.0000
# 3 5.9160 -5.2368 31.9515 0.0000 0.0000 0.0000
# 4 0.0000 0.0000 0.0000 26.4591 0.0000 0.0000
# 5 0.0000 0.0000 0.0000 0.0000 19.9464 0.0000
# 6 0.0000 0.0000 0.0000 0.0000 0.0000 29.4693
#
#
#
# Elastic Compliance Matrix: (Units=1/GPa)
#
#
# Indices 1 2 3 4 5 6 
#
# 1 0.011145 -0.003779 -0.002683 0.000000 0.000000 0.000000
# 2 -0.003779 0.012755 0.002790 0.000000 0.000000 0.000000
# 3 -0.002683 0.002790 0.032252 0.000000 0.000000 0.000000
# 4 0.000000 0.000000 0.000000 0.037794 0.000000 0.000000
# 5 0.000000 0.000000 0.000000 0.000000 0.050134 0.000000
# 6 0.000000 0.000000 0.000000 0.000000 0.000000 0.033934
#
#
# Mechanical properties :
#
#
# Convention : Reuss Voigt Hill
#
# Bulk Modulus (GPa) = 20.48797 31.03538 25.76167
# Shear Modulus (GPa) = 24.79832 27.94451 26.37142
#
# Velocity S-wave (km/s) = 3.53914 3.75694 3.64966
# Velocity P-wave (km/s) = 5.20087 5.87327 5.54726
#
# Compressibility (1/GPa) = 0.04880914
#
# Stress axis : x y z
#
# Youngs Moduli (GPa) = 89.72519 78.39902 31.00625
#
# Poissons Ratio (x) = 0.29625 0.08319
# Poissons Ratio (y) = 0.33905 -0.08651
# Poissons Ratio (z) = 0.24073 -0.21875
#
# Static dielectric constant tensor:
#      x y z
#    x 1.717370 0.000000 0.000000 
#    y 0.000000 1.750610 0.000000 
#    z 0.000000 0.000000 1.729350 
# 
# From -- ./inp_files/22667.got.cif
#   From: 2010.05.17/outbox.ucp.g08.bks.cvg/sg60_12_cif.got.tgz:22667.got - 2010.06.11 16:26:41.
