data_PCOD9458245
_publ_section_title
;
Structure prediction by ZEFSAII (Michael W. Deem and Ramdas Pophale) SiO2 
 PCOD9458245
Probable space group: P B C N
;
_chemical_formula_sum "Si O2"
_cell_formula_units_Z 48
_cell_length_a 12.266649
_cell_length_b 9.707829
_cell_length_c 18.989144
_cell_angle_alpha 90.000000
_cell_angle_beta 90.000000
_cell_angle_gamma 90.000000
_cell_volume 2261.275327
_symmetry_space_group_name_H-M "P B C N"
_symmetry_group_IT_number 60
_symmetry_cell_setting 'orthorhombic'
loop_
_space_group_symop_operation_xyz
x,y,z
1/2-x,1/2-y,1/2+z
1/2+x,1/2-y,-z
-x,y,1/2-z
-x,-y,-z
1/2+x,1/2+y,1/2-z
1/2-x,1/2+y,z
x,-y,1/2+z
loop_
_atom_site_type_symbol
_atom_site_label
_atom_site_fract_x
_atom_site_fract_y
_atom_site_fract_z
Si Si1 0.686399 0.738511 0.282108
Si Si2 0.418931 0.291279 0.573462
Si Si3 0.343657 0.325707 0.874370
Si Si4 0.890254 0.444642 0.795860
Si Si5 0.198928 0.110191 0.947169
Si Si6 0.608739 0.990542 0.955241
O O1 0.633636 0.666561 0.351536
O O2 0.635258 0.692885 0.208173
O O3 0.667413 0.904171 0.286698
O O4 0.808883 0.679561 0.277330
O O5 0.546625 0.273242 0.587629
O O6 0.400704 0.372985 0.501400
O O7 0.357556 0.148230 0.557563
O O8 0.239594 0.237487 0.900159
O O9 0.321844 0.481628 0.896780
O O10 0.915202 0.429458 0.878732
O O11 0.000000 0.445066 0.750000
O O12 0.297668 0.082583 0.001431
O O13 0.500000 0.000000 0.000000
#
# Coordination Sequence:
#
# PCOD9458245 Si02
#       6
#     8   8   8   8   8   8
#     4  11  24  45  69  98 136 178 227 280 336 413
#     4  11  23  44  67  96 132 176 218 276 339 396
#     4  12  25  41  67  95 133 173 222 268 337 395
#     4  11  25  45  73  99 136 184 229 280 349 406
#     4  12  24  41  65  98 129 170 218 277 324 403
#     4  11  22  41  69  96 133 172 220 272 340 399
#
# _framework density 21.226958
#
# number of rings (size 3 to 8) (size 9 to 14) (size 15 to 20)
#    0.000    0.667    5.000    4.000    2.333    0.000 
#    0.000    4.167    0.000    0.000    0.000    0.000 
#    0.000    0.000    0.000    0.000    0.000    0.000 
#
# Total GULP energy -268052.908202 kJ/mol
# GULP energy per Si atom -5584.435588 kJ/mol
# Density = 2.117864 g / cm^3
# Si number density = 21.226958 Si / 1000 Ang^3
#
#
#
# Elastic Constant Matrix: (Units=GPa)
#
#
# Indices 1 2 3 4 5 6 
#
# 1 64.1656 21.3496 13.4121 0.0000 0.0000 0.0000
# 2 21.3496 46.4930 30.0509 0.0000 0.0000 0.0000
# 3 13.4121 30.0509 114.9044 0.0000 0.0000 0.0000
# 4 0.0000 0.0000 0.0000 19.0473 0.0000 0.0000
# 5 0.0000 0.0000 0.0000 0.0000 41.9715 0.0000
# 6 0.0000 0.0000 0.0000 0.0000 0.0000 22.4989
#
#
#
# Elastic Compliance Matrix: (Units=1/GPa)
#
#
# Indices 1 2 3 4 5 6 
#
# 1 0.018396 -0.008496 0.000075 0.000000 0.000000 0.000000
# 2 -0.008496 0.029807 -0.006804 0.000000 0.000000 0.000000
# 3 0.000075 -0.006804 0.010474 0.000000 0.000000 0.000000
# 4 0.000000 0.000000 0.000000 0.052501 0.000000 0.000000
# 5 0.000000 0.000000 0.000000 0.000000 0.023826 0.000000
# 6 0.000000 0.000000 0.000000 0.000000 0.000000 0.044447
#
#
# Mechanical properties :
#
#
# Convention : Reuss Voigt Hill
#
# Bulk Modulus (GPa) = 35.42690 39.46537 37.44614
# Shear Modulus (GPa) = 22.79890 27.42024 25.10957
#
# Velocity S-wave (km/s) = 3.28083 3.59801 3.44308
# Velocity P-wave (km/s) = 5.57473 5.99111 5.78667
#
# Compressibility (1/GPa) = 0.02822713
#
# Stress axis : x y z
#
# Youngs Moduli (GPa) = 54.36027 33.54861 95.47819
#
# Poissons Ratio (x) = 0.28502 -0.00712
# Poissons Ratio (y) = 0.46182 0.64962
# Poissons Ratio (z) = -0.00406 0.22826
#
# Static dielectric constant tensor:
#      x y z
#    x 1.770900 0.000000 0.000000 
#    y 0.000000 1.827500 0.000000 
#    z 0.000000 0.000000 1.837960 
# 
# From -- ./inp_files/20016.got.cif
#   From: 2010.05.17/outbox.cif.g08.bks.cpg/sg60_11_cif.got.tgz:20016.got - 2010.06.03 14:59:27.
