data_PCOD9458727
_publ_section_title
;
Structure prediction by ZEFSAII (Michael W. Deem and Ramdas Pophale) SiO2 
 PCOD9458727
Probable space group: P B C N
;
_chemical_formula_sum "Si O2"
_cell_formula_units_Z 28
_cell_length_a 5.125464
_cell_length_b 9.113313
_cell_length_c 24.100011
_cell_angle_alpha 90.000000
_cell_angle_beta 90.000000
_cell_angle_gamma 90.000000
_cell_volume 1125.710494
_symmetry_space_group_name_H-M "P B C N"
_symmetry_group_IT_number 60
_symmetry_cell_setting 'orthorhombic'
loop_
_space_group_symop_operation_xyz
x,y,z
1/2-x,1/2-y,1/2+z
1/2+x,1/2-y,-z
-x,y,1/2-z
-x,-y,-z
1/2+x,1/2+y,1/2-z
1/2-x,1/2+y,z
x,-y,1/2+z
loop_
_atom_site_type_symbol
_atom_site_label
_atom_site_fract_x
_atom_site_fract_y
_atom_site_fract_z
Si Si1 0.500000 0.065850 0.750000
Si Si2 0.691294 0.216426 0.185990
Si Si3 0.747543 0.042903 0.464376
Si Si4 0.700095 0.793816 0.386486
O O1 0.399153 0.946301 0.795536
O O2 0.729515 0.186272 0.739866
O O3 0.458831 0.277529 0.149222
O O4 0.951757 0.233152 0.147524
O O5 0.773959 0.209678 0.444959
O O6 0.500000 0.000000 0.500000
O O7 0.698269 0.961705 0.405654
O O8 0.000000 0.000000 0.500000
#
# Coordination Sequence:
#
# PCOD9458727 Si02
#       4
#     4   8   8   8
#     4  12  28  50  76 110 148 200 256 318 386 456
#     4  12  27  47  74 106 148 194 250 313 377 450
#     4  12  24  43  70 102 142 188 242 300 367 448
#     4  12  25  45  70 104 144 190 242 305 373 444
#
# _framework density 24.873177999999999
#
# number of rings (size 3 to 8) (size 9 to 14) (size 15 to 20)
#    0.000    0.000    0.000   10.286    0.000    8.000 
#    0.000    0.000    0.000    0.000    0.000    0.000 
#    0.000    0.000    0.000    0.000    0.000    0.000 
#
# Total GULP energy -156346.025674 kJ/mol
# GULP energy per Si atom -5583.786631 kJ/mol
# Density = 2.481657 g / cm^3
# Si number density = 24.873178 Si / 1000 Ang^3
#
#
#
# Elastic Constant Matrix: (Units=GPa)
#
#
# Indices 1 2 3 4 5 6 
#
# 1 235.2148 10.7618 97.2069 0.0000 0.0000 0.0000
# 2 10.7618 85.6599 37.2561 0.0000 0.0000 0.0000
# 3 97.2069 37.2561 87.3200 0.0000 0.0000 0.0000
# 4 0.0000 0.0000 0.0000 43.6139 0.0000 0.0000
# 5 0.0000 0.0000 0.0000 0.0000 70.2016 0.0000
# 6 0.0000 0.0000 0.0000 0.0000 0.0000 24.6831
#
#
#
# Elastic Compliance Matrix: (Units=1/GPa)
#
#
# Indices 1 2 3 4 5 6 
#
# 1 0.008812 0.003879 -0.011465 0.000000 0.000000 0.000000
# 2 0.003879 0.016042 -0.011163 0.000000 0.000000 0.000000
# 3 -0.011465 -0.011163 0.028978 0.000000 0.000000 0.000000
# 4 0.000000 0.000000 0.000000 0.022928 0.000000 0.000000
# 5 0.000000 0.000000 0.000000 0.000000 0.014245 0.000000
# 6 0.000000 0.000000 0.000000 0.000000 0.000000 0.040514
#
#
# Mechanical properties :
#
#
# Convention : Reuss Voigt Hill
#
# Bulk Modulus (GPa) = 61.21954 77.62715 69.42334
# Shear Modulus (GPa) = 28.65971 45.23105 36.94538
#
# Velocity S-wave (km/s) = 3.39814 4.26897 3.85821
# Velocity P-wave (km/s) = 6.32950 7.45492 6.91514
#
# Compressibility (1/GPa) = 0.01633465
#
# Stress axis : x y z
#
# Youngs Moduli (GPa) = 113.48079 62.33705 34.50882
#
# Poissons Ratio (x) = -0.24183 0.39564
# Poissons Ratio (y) = -0.44023 0.38522
# Poissons Ratio (z) = 1.30106 0.69587
#
# Static dielectric constant tensor:
#      x y z
#    x 1.898960 0.000000 0.000000 
#    y 0.000000 1.919780 0.000000 
#    z 0.000000 0.000000 2.001180 
# 
# From -- ./inp_files/24696.got.cif
#   From: 2010.05.17/outbox.cif.g08.bks.cpg/sg60_13_cif.got.tgz:24696.got - 2010.06.03 14:59:27.
