data_PCOD9458563
_publ_section_title
;
Structure prediction by ZEFSAII (Michael W. Deem and Ramdas Pophale) SiO2 
 PCOD9458563
Probable space group: P B C N
;
_chemical_formula_sum "Si O2"
_cell_formula_units_Z 40
_cell_length_a 6.850275
_cell_length_b 24.289067
_cell_length_c 12.637176
_cell_angle_alpha 90.000000
_cell_angle_beta 90.000000
_cell_angle_gamma 90.000000
_cell_volume 2102.659130
_symmetry_space_group_name_H-M "P B C N"
_symmetry_group_IT_number 60
_symmetry_cell_setting 'orthorhombic'
loop_
_space_group_symop_operation_xyz
x,y,z
1/2-x,1/2-y,1/2+z
1/2+x,1/2-y,-z
-x,y,1/2-z
-x,-y,-z
1/2+x,1/2+y,1/2-z
1/2-x,1/2+y,z
x,-y,1/2+z
loop_
_atom_site_type_symbol
_atom_site_label
_atom_site_fract_x
_atom_site_fract_y
_atom_site_fract_z
Si Si1 0.298075 0.027298 0.964915
Si Si2 0.920620 0.773880 0.131033
Si Si3 0.732475 0.327054 0.524079
Si Si4 0.979648 0.067939 0.124084
Si Si5 0.923037 0.361731 0.131672
O O1 0.338078 0.077631 0.886219
O O2 0.166231 0.980996 0.909913
O O3 0.181379 0.052775 0.064836
O O4 0.500000 0.000000 0.000000
O O5 0.836937 0.713534 0.106606
O O6 0.745984 0.817176 0.114176
O O7 0.000000 0.778118 0.250000
O O8 0.091092 0.790328 0.049573
O O9 0.608125 0.375205 0.578769
O O10 0.899828 0.352816 0.449813
O O11 0.000000 0.070638 0.250000
O O12 0.000000 0.355060 0.250000
#
# Coordination Sequence:
#
# PCOD9458563 Si02
#       5
#     8   8   8   8   8
#     4  11  25  45  69 101 139 176 224 280 332 404
#     4  12  26  44  70 101 134 176 231 279 342 399
#     4  12  25  45  67 101 139 174 224 288 332 406
#     4  11  27  44  69 103 140 175 225 277 338 401
#     4  12  25  42  72 100 134 178 227 278 339 398
#
# _framework density 19.023530999999998
#
# number of rings (size 3 to 8) (size 9 to 14) (size 15 to 20)
#    0.000    0.400    8.000    0.000    2.800    4.800 
#    0.000    0.000    0.000    0.000    0.000    0.000 
#    0.000    0.000    0.000    0.000    0.000    0.000 
#
# Total GULP energy -223769.010655 kJ/mol
# GULP energy per Si atom -5594.225266 kJ/mol
# Density = 1.898023 g / cm^3
# Si number density = 19.023531 Si / 1000 Ang^3
#
#
#
# Elastic Constant Matrix: (Units=GPa)
#
#
# Indices 1 2 3 4 5 6 
#
# 1 108.1786 35.1673 39.0424 0.0000 0.0000 0.0000
# 2 35.1673 114.4089 24.4348 0.0000 0.0000 0.0000
# 3 39.0424 24.4348 94.3746 0.0000 0.0000 0.0000
# 4 0.0000 0.0000 0.0000 25.4517 0.0000 0.0000
# 5 0.0000 0.0000 0.0000 0.0000 28.4177 0.0000
# 6 0.0000 0.0000 0.0000 0.0000 0.0000 41.3657
#
#
#
# Elastic Compliance Matrix: (Units=1/GPa)
#
#
# Indices 1 2 3 4 5 6 
#
# 1 0.011599 -0.002689 -0.004102 0.000000 0.000000 0.000000
# 2 -0.002689 0.009876 -0.001444 0.000000 0.000000 0.000000
# 3 -0.004102 -0.001444 0.012667 0.000000 0.000000 0.000000
# 4 0.000000 0.000000 0.000000 0.039290 0.000000 0.000000
# 5 0.000000 0.000000 0.000000 0.000000 0.035189 0.000000
# 6 0.000000 0.000000 0.000000 0.000000 0.000000 0.024175
#
#
# Mechanical properties :
#
#
# Convention : Reuss Voigt Hill
#
# Bulk Modulus (GPa) = 56.59282 57.13900 56.86591
# Shear Modulus (GPa) = 32.22551 33.60155 32.91353
#
# Velocity S-wave (km/s) = 4.12027 4.20731 4.16402
# Velocity P-wave (km/s) = 7.24216 7.32824 7.28533
#
# Compressibility (1/GPa) = 0.01767009
#
# Stress axis : x y z
#
# Youngs Moduli (GPa) = 86.21714 101.25895 78.94491
#
# Poissons Ratio (x) = 0.27230 0.32384
# Poissons Ratio (y) = 0.23185 0.11403
# Poissons Ratio (z) = 0.35367 0.14626
#
# Static dielectric constant tensor:
#      x y z
#    x 1.656160 0.000000 0.000000 
#    y 0.000000 1.640090 0.000000 
#    z 0.000000 0.000000 1.615870 
# 
# From -- ./inp_files/9048.got.cif
#   From: 2010.05.17/outbox.cif.g08.bks.cpg/sg60_5_cif.got.tgz:9048.got - 2010.06.03 14:59:27.
