data_PCOD9458024
_publ_section_title
;
Structure prediction by ZEFSAII (Michael W. Deem and Ramdas Pophale) SiO2 
 PCOD9458024
Probable space group: P B C N
;
_chemical_formula_sum "Si O2"
_cell_formula_units_Z 64
_cell_length_a 17.276447
_cell_length_b 11.095768
_cell_length_c 14.913020
_cell_angle_alpha 90.000000
_cell_angle_beta 90.000000
_cell_angle_gamma 90.000000
_cell_volume 2858.758047
_symmetry_space_group_name_H-M "P B C N"
_symmetry_group_IT_number 60
_symmetry_cell_setting 'orthorhombic'
loop_
_space_group_symop_operation_xyz
x,y,z
1/2-x,1/2-y,1/2+z
1/2+x,1/2-y,-z
-x,y,1/2-z
-x,-y,-z
1/2+x,1/2+y,1/2-z
1/2-x,1/2+y,z
x,-y,1/2+z
loop_
_atom_site_type_symbol
_atom_site_label
_atom_site_fract_x
_atom_site_fract_y
_atom_site_fract_z
Si Si1 0.320714 0.598636 0.388201
Si Si2 0.169088 0.912234 0.224727
Si Si3 0.659664 0.823453 0.670410
Si Si4 0.979745 0.532620 0.100530
Si Si5 0.327883 0.195620 0.649521
Si Si6 0.142655 0.563221 0.142195
Si Si7 0.188155 0.933474 0.562521
Si Si8 0.932244 0.272639 0.184694
O O1 0.319919 0.513576 0.300483
O O2 0.241690 0.677717 0.381305
O O3 0.317485 0.507825 0.471955
O O4 0.397373 0.683052 0.389929
O O5 0.135151 0.801734 0.282441
O O6 0.241045 0.845552 0.173683
O O7 0.142293 0.989979 0.139000
O O8 0.594128 0.881898 0.610035
O O9 0.667584 0.912723 0.756150
O O10 0.956766 0.406225 0.151232
O O11 0.054978 0.608543 0.134489
O O12 0.000000 0.500000 0.000000
O O13 0.340915 0.298056 0.576866
O O14 0.360681 0.225540 0.746830
O O15 0.371790 0.076368 0.621510
O O16 0.219654 0.588279 0.084912
O O17 0.000000 0.225646 0.250000
#
# Coordination Sequence:
#
# PCOD9458024 Si02
#       8
#     8   8   8   8   8   8   8   8
#     4  12  25  43  70 104 135 183 244 292 350 425
#     4  11  21  41  68  97 137 176 225 289 353 409
#     4  12  22  42  68  97 138 182 227 287 353 423
#     4  12  26  41  67 106 138 177 238 294 361 424
#     4  11  19  43  71  92 130 182 229 271 347 423
#     4  11  21  42  68  96 132 182 224 286 353 424
#     4  11  24  41  71 105 134 175 238 298 344 419
#     4  12  22  45  73  91 134 196 233 280 356 431
#
# _framework density 22.387343000000001
#
# number of rings (size 3 to 8) (size 9 to 14) (size 15 to 20)
#    0.000    0.500    8.750    1.125    0.000    4.000 
#    0.000    1.875    0.000    0.000    0.000    0.000 
#    0.000    0.000    0.000    0.000    0.000    0.000 
#
# Total GULP energy -356494.391428 kJ/mol
# GULP energy per Si atom -5570.224866 kJ/mol
# Density = 2.233639 g / cm^3
# Si number density = 22.387343 Si / 1000 Ang^3
#
#
#
# Elastic Constant Matrix: (Units=GPa)
#
#
# Indices 1 2 3 4 5 6 
#
# 1 55.9200 23.3169 6.2558 0.0000 0.0000 0.0000
# 2 23.3169 85.3008 3.9198 0.0000 0.0000 0.0000
# 3 6.2558 3.9198 80.8308 0.0000 0.0000 0.0000
# 4 0.0000 0.0000 0.0000 30.6957 0.0000 0.0000
# 5 0.0000 0.0000 0.0000 0.0000 26.7583 0.0000
# 6 0.0000 0.0000 0.0000 0.0000 0.0000 19.1288
#
#
#
# Elastic Compliance Matrix: (Units=1/GPa)
#
#
# Indices 1 2 3 4 5 6 
#
# 1 0.020320 -0.005494 -0.001306 0.000000 0.000000 0.000000
# 2 -0.005494 0.013235 -0.000217 0.000000 0.000000 0.000000
# 3 -0.001306 -0.000217 0.012483 0.000000 0.000000 0.000000
# 4 0.000000 0.000000 0.000000 0.032578 0.000000 0.000000
# 5 0.000000 0.000000 0.000000 0.000000 0.037372 0.000000
# 6 0.000000 0.000000 0.000000 0.000000 0.000000 0.052277
#
#
# Mechanical properties :
#
#
# Convention : Reuss Voigt Hill
#
# Bulk Modulus (GPa) = 31.24642 32.11519 31.68080
# Shear Modulus (GPa) = 25.91119 27.88716 26.89918
#
# Velocity S-wave (km/s) = 3.40575 3.53323 3.47008
# Velocity P-wave (km/s) = 5.42706 5.56968 5.49883
#
# Compressibility (1/GPa) = 0.03200367
#
# Stress axis : x y z
#
# Youngs Moduli (GPa) = 49.21310 75.55690 80.10818
#
# Poissons Ratio (x) = 0.41514 0.10464
# Poissons Ratio (y) = 0.27040 0.01735
# Poissons Ratio (z) = 0.06428 0.01637
#
# Static dielectric constant tensor:
#      x y z
#    x 2.004710 0.000000 0.000000 
#    y 0.000000 1.933900 0.000000 
#    z 0.000000 0.000000 1.901020 
# 
# From -- ./inp_files/17496.got.cif
#   From: 2010.05.17/outbox.cif.g08.bks.cpg/sg60_9_cif.got.tgz:17496.got - 2010.06.03 14:59:27.
