data_PCOD9458146
_publ_section_title
;
Structure prediction by ZEFSAII (Michael W. Deem and Ramdas Pophale) SiO2 
 PCOD9458146
Probable space group: P B C N
;
_chemical_formula_sum "Si O2"
_cell_formula_units_Z 36
_cell_length_a 16.165548
_cell_length_b 6.832983
_cell_length_c 12.170158
_cell_angle_alpha 90.000000
_cell_angle_beta 90.000000
_cell_angle_gamma 90.000000
_cell_volume 1344.302444
_symmetry_space_group_name_H-M "P B C N"
_symmetry_group_IT_number 60
_symmetry_cell_setting 'orthorhombic'
loop_
_space_group_symop_operation_xyz
x,y,z
1/2-x,1/2-y,1/2+z
1/2+x,1/2-y,-z
-x,y,1/2-z
-x,-y,-z
1/2+x,1/2+y,1/2-z
1/2-x,1/2+y,z
x,-y,1/2+z
loop_
_atom_site_type_symbol
_atom_site_label
_atom_site_fract_x
_atom_site_fract_y
_atom_site_fract_z
Si Si1 0.903698 0.928290 0.363384
Si Si2 0.769177 0.183984 0.690753
Si Si3 0.500000 0.147549 0.250000
Si Si4 0.120540 0.647395 0.652743
Si Si5 0.254480 0.063779 0.479126
O O1 0.856391 0.868982 0.248881
O O2 0.833146 0.908621 0.455409
O O3 0.982769 0.786636 0.355674
O O4 0.930030 0.154577 0.366888
O O5 0.703869 0.214270 0.788320
O O6 0.764748 0.183536 0.551006
O O7 0.736411 0.937750 0.659321
O O8 0.425825 0.994758 0.234921
O O9 0.158618 0.544349 0.545760
#
# Coordination Sequence:
#
# PCOD9458146 Si02
#       5
#     8   8   4   8   8
#     4  11  24  43  67  97 134 177 218 272 335 394
#     4  11  21  41  72  99 126 167 231 280 322 390
#     4  12  26  44  64  96 146 176 212 270 342 402
#     4  11  24  43  69  99 134 179 218 276 337 392
#     4  11  21  41  72  99 126 167 231 280 322 390
#
# _framework density 26.779689999999999
#
# number of rings (size 3 to 8) (size 9 to 14) (size 15 to 20)
#    0.000    0.889    4.444    3.333    6.222    0.000 
#    0.000   11.111    0.000    0.000    0.000    0.000 
#    0.000    0.000    0.000    0.000    0.000    0.000 
#
# Total GULP energy -200719.420035 kJ/mol
# GULP energy per Si atom -5575.539445 kJ/mol
# Density = 2.671874 g / cm^3
# Si number density = 26.779690 Si / 1000 Ang^3
#
#
#
# Elastic Constant Matrix: (Units=GPa)
#
#
# Indices 1 2 3 4 5 6 
#
# 1 19.6326 -10.5069 -3.5581 0.0000 0.0000 0.0000
# 2 -10.5069 181.4267 8.5131 0.0000 0.0000 0.0000
# 3 -3.5581 8.5131 73.1374 0.0000 0.0000 0.0000
# 4 0.0000 0.0000 0.0000 45.6379 0.0000 0.0000
# 5 0.0000 0.0000 0.0000 0.0000 3.6604 0.0000
# 6 0.0000 0.0000 0.0000 0.0000 0.0000 47.4100
#
#
#
# Elastic Compliance Matrix: (Units=1/GPa)
#
#
# Indices 1 2 3 4 5 6 
#
# 1 0.052924 0.002960 0.002230 0.000000 0.000000 0.000000
# 2 0.002960 0.005708 -0.000520 0.000000 0.000000 0.000000
# 3 0.002230 -0.000520 0.013842 0.000000 0.000000 0.000000
# 4 0.000000 0.000000 0.000000 0.021912 0.000000 0.000000
# 5 0.000000 0.000000 0.000000 0.000000 0.273197 0.000000
# 6 0.000000 0.000000 0.000000 0.000000 0.000000 0.021093
#
#
# Mechanical properties :
#
#
# Convention : Reuss Voigt Hill
#
# Bulk Modulus (GPa) = 12.22286 29.23257 20.72771
# Shear Modulus (GPa) = 12.29693 37.99157 25.14425
#
# Velocity S-wave (km/s) = 2.14519 3.77061 3.06752
# Velocity P-wave (km/s) = 3.27260 5.46775 4.50590
#
# Compressibility (1/GPa) = 0.08181390
#
# Stress axis : x y z
#
# Youngs Moduli (GPa) = 18.89501 175.20121 72.24415
#
# Poissons Ratio (x) = -0.51865 -0.16111
# Poissons Ratio (y) = -0.05594 0.03759
# Poissons Ratio (z) = -0.04214 0.09117
#
# Static dielectric constant tensor:
#      x y z
#    x 1.957660 0.000000 0.000000 
#    y 0.000000 2.534700 0.000000 
#    z 0.000000 0.000000 2.007000 
# 
# From -- ./inp_files/17187.got.cif
#   From: 2010.05.17/outbox.cif.g08.bks.cpg/sg60_9_cif.got.tgz:17187.got - 2010.06.03 14:59:27.
