data_PCOD9458690
_publ_section_title
;
Structure prediction by ZEFSAII (Michael W. Deem and Ramdas Pophale) SiO2 
 PCOD9458690
Probable space group: P B C N
;
_chemical_formula_sum "Si O2"
_cell_formula_units_Z 32
_cell_length_a 12.947514
_cell_length_b 10.871085
_cell_length_c 8.655162
_cell_angle_alpha 90.000000
_cell_angle_beta 90.000000
_cell_angle_gamma 90.000000
_cell_volume 1218.244563
_symmetry_space_group_name_H-M "P B C N"
_symmetry_group_IT_number 60
_symmetry_cell_setting 'orthorhombic'
loop_
_space_group_symop_operation_xyz
x,y,z
1/2-x,1/2-y,1/2+z
1/2+x,1/2-y,-z
-x,y,1/2-z
-x,-y,-z
1/2+x,1/2+y,1/2-z
1/2-x,1/2+y,z
x,-y,1/2+z
loop_
_atom_site_type_symbol
_atom_site_label
_atom_site_fract_x
_atom_site_fract_y
_atom_site_fract_z
Si Si1 0.899703 0.013222 0.338246
Si Si2 0.589588 0.749682 0.951392
Si Si3 0.248314 0.097372 0.919199
Si Si4 0.085522 0.401755 0.853395
O O1 0.933370 0.893258 0.436782
O O2 0.817781 0.947792 0.224385
O O3 0.000000 0.061304 0.250000
O O4 0.832787 0.103018 0.441863
O O5 0.623243 0.806814 0.781400
O O6 0.483274 0.823826 0.972288
O O7 0.678928 0.783279 0.071458
O O8 0.331315 0.985839 0.934371
O O9 0.000000 0.475685 0.750000
#
# Coordination Sequence:
#
# PCOD9458690 Si02
#       4
#     8   8   8   8
#     4  12  25  42  59  89 130 168 204 254 300 369
#     4   9  21  38  65  88 123 150 201 258 314 348
#     4  12  23  40  67  92 119 168 209 250 310 375
#     4   8  18  40  60  89 121 146 200 251 312 343
#
# _framework density 26.267303999999999
#
# number of rings (size 3 to 8) (size 9 to 14) (size 15 to 20)
#    1.500    0.000    5.000    1.500    3.500    0.000 
#    0.000    0.000    0.000    1.500    0.000    0.000 
#    0.000    0.000    0.000    0.000    0.000    0.000 
#
# Total GULP energy -178773.747895 kJ/mol
# GULP energy per Si atom -5586.679622 kJ/mol
# Density = 2.620752 g / cm^3
# Si number density = 26.267304 Si / 1000 Ang^3
#
#
#
# Elastic Constant Matrix: (Units=GPa)
#
#
# Indices 1 2 3 4 5 6 
#
# 1 147.2255 33.9787 24.4459 0.0000 0.0000 0.0000
# 2 33.9787 44.5400 -7.4551 0.0000 0.0000 0.0000
# 3 24.4459 -7.4551 63.6510 0.0000 0.0000 0.0000
# 4 0.0000 0.0000 0.0000 20.7313 0.0000 0.0000
# 5 0.0000 0.0000 0.0000 0.0000 49.0110 0.0000
# 6 0.0000 0.0000 0.0000 0.0000 0.0000 35.0428
#
#
#
# Elastic Compliance Matrix: (Units=1/GPa)
#
#
# Indices 1 2 3 4 5 6 
#
# 1 0.009367 -0.007903 -0.004523 0.000000 0.000000 0.000000
# 2 -0.007903 0.029569 0.006499 0.000000 0.000000 0.000000
# 3 -0.004523 0.006499 0.018209 0.000000 0.000000 0.000000
# 4 0.000000 0.000000 0.000000 0.048236 0.000000 0.000000
# 5 0.000000 0.000000 0.000000 0.000000 0.020404 0.000000
# 6 0.000000 0.000000 0.000000 0.000000 0.000000 0.028537
#
#
# Mechanical properties :
#
#
# Convention : Reuss Voigt Hill
#
# Bulk Modulus (GPa) = 22.08040 39.70618 30.89329
# Shear Modulus (GPa) = 27.58256 34.58683 31.08470
#
# Velocity S-wave (km/s) = 3.24400 3.63261 3.44379
# Velocity P-wave (km/s) = 4.73874 5.72219 5.25353
#
# Compressibility (1/GPa) = 0.04528904
#
# Stress axis : x y z
#
# Youngs Moduli (GPa) = 106.75309 33.81953 54.91773
#
# Poissons Ratio (x) = 0.26729 0.24841
# Poissons Ratio (y) = 0.84370 -0.35689
# Poissons Ratio (z) = 0.48288 -0.21978
#
# Static dielectric constant tensor:
#      x y z
#    x 2.108570 0.000000 0.000000 
#    y 0.000000 2.021940 0.000000 
#    z 0.000000 0.000000 2.134300 
# 
# From -- ./inp_files/4513.got.cif
#   From: 2010.05.17/outbox.cif.g08.bks.cpg/sg60_3_cif.got.tgz:4513.got - 2010.06.03 14:59:27.
