data_PCOD9458017
_publ_section_title
;
Structure prediction by ZEFSAII (Michael W. Deem and Ramdas Pophale) SiO2 
 PCOD9458017
Probable space group: P B C N
;
_chemical_formula_sum "Si O2"
_cell_formula_units_Z 36
_cell_length_a 13.808279
_cell_length_b 10.790726
_cell_length_c 9.052411
_cell_angle_alpha 90.000000
_cell_angle_beta 90.000000
_cell_angle_gamma 90.000000
_cell_volume 1348.821507
_symmetry_space_group_name_H-M "P B C N"
_symmetry_group_IT_number 60
_symmetry_cell_setting 'orthorhombic'
loop_
_space_group_symop_operation_xyz
x,y,z
1/2-x,1/2-y,1/2+z
1/2+x,1/2-y,-z
-x,y,1/2-z
-x,-y,-z
1/2+x,1/2+y,1/2-z
1/2-x,1/2+y,z
x,-y,1/2+z
loop_
_atom_site_type_symbol
_atom_site_label
_atom_site_fract_x
_atom_site_fract_y
_atom_site_fract_z
Si Si1 0.688799 0.597508 0.282577
Si Si2 0.500000 0.834435 0.750000
Si Si3 0.859599 0.438776 0.258265
Si Si4 0.429537 0.732247 0.019703
Si Si5 0.219946 0.740821 0.969433
O O1 0.751754 0.476779 0.310137
O O2 0.587176 0.618186 0.367232
O O3 0.684334 0.633874 0.110549
O O4 0.754984 0.705454 0.362358
O O5 0.585805 0.933839 0.729230
O O6 0.511252 0.752420 0.897981
O O7 0.916645 0.354232 0.376396
O O8 0.845403 0.363310 0.107783
O O9 0.332631 0.723452 0.920420
#
# Coordination Sequence:
#
# PCOD9458017 Si02
#       5
#     8   4   8   8   8
#     4   9  18  34  53  80 114 158 191 228 283 361
#     4  12  20  34  58  94 118 144 186 268 300 318
#     4  11  19  34  57  87 119 149 199 237 293 347
#     4   9  21  33  52  85 117 152 188 238 298 336
#     4   9  19  34  52  80 115 159 190 227 282 363
#
# _framework density 26.689964
#
# number of rings (size 3 to 8) (size 9 to 14) (size 15 to 20)
#    1.333    0.889    2.222    2.000    0.000    0.000 
#    0.000    0.000    0.000    1.333    0.000    3.111 
#    0.000    0.000    0.000    0.000    0.000    0.000 
#
# Total GULP energy -200455.469811 kJ/mol
# GULP energy per Si atom -5568.207495 kJ/mol
# Density = 2.662922 g / cm^3
# Si number density = 26.689964 Si / 1000 Ang^3
#
#
#
# Elastic Constant Matrix: (Units=GPa)
#
#
# Indices 1 2 3 4 5 6 
#
# 1 49.4192 16.5622 24.0116 0.0000 0.0000 0.0000
# 2 16.5622 43.3114 8.4462 0.0000 0.0000 0.0000
# 3 24.0116 8.4462 138.0248 0.0000 0.0000 0.0000
# 4 0.0000 0.0000 0.0000 26.7525 0.0000 0.0000
# 5 0.0000 0.0000 0.0000 0.0000 56.5566 0.0000
# 6 0.0000 0.0000 0.0000 0.0000 0.0000 10.9450
#
#
#
# Elastic Compliance Matrix: (Units=1/GPa)
#
#
# Indices 1 2 3 4 5 6 
#
# 1 0.025051 -0.008835 -0.003817 0.000000 0.000000 0.000000
# 2 -0.008835 0.026483 -0.000084 0.000000 0.000000 0.000000
# 3 -0.003817 -0.000084 0.007914 0.000000 0.000000 0.000000
# 4 0.000000 0.000000 0.000000 0.037380 0.000000 0.000000
# 5 0.000000 0.000000 0.000000 0.000000 0.017681 0.000000
# 6 0.000000 0.000000 0.000000 0.000000 0.000000 0.091366
#
#
# Mechanical properties :
#
#
# Convention : Reuss Voigt Hill
#
# Bulk Modulus (GPa) = 29.43204 36.53283 32.98244
# Shear Modulus (GPa) = 20.60385 30.96650 25.78517
#
# Velocity S-wave (km/s) = 2.78145 3.40991 3.11159
# Velocity P-wave (km/s) = 4.62240 5.40563 5.02929
#
# Compressibility (1/GPa) = 0.03397657
#
# Stress axis : x y z
#
# Youngs Moduli (GPa) = 39.91905 37.75954 126.35397
#
# Poissons Ratio (x) = 0.33360 0.48233
# Poissons Ratio (y) = 0.35268 0.01057
# Poissons Ratio (z) = 0.15238 0.00316
#
# Static dielectric constant tensor:
#      x y z
#    x 2.306850 0.000000 0.000000 
#    y 0.000000 2.089240 0.000000 
#    z 0.000000 0.000000 2.153670 
# 
# From -- ./inp_files/6587.got.cif
#   From: 2010.05.17/outbox.cif.g08.bks.cpg/sg60_4_cif.got.tgz:6587.got - 2010.06.03 14:59:27.
