data_PCOD9458042
_publ_section_title
;
Structure prediction by ZEFSAII (Michael W. Deem and Ramdas Pophale) SiO2 
 PCOD9458042
Probable space group: P B C N
;
_chemical_formula_sum "Si O2"
_cell_formula_units_Z 64
_cell_length_a 19.541898
_cell_length_b 9.154119
_cell_length_c 16.475286
_cell_angle_alpha 90.000000
_cell_angle_beta 90.000000
_cell_angle_gamma 90.000000
_cell_volume 2947.245127
_symmetry_space_group_name_H-M "P B C N"
_symmetry_group_IT_number 60
_symmetry_cell_setting 'orthorhombic'
loop_
_space_group_symop_operation_xyz
x,y,z
1/2-x,1/2-y,1/2+z
1/2+x,1/2-y,-z
-x,y,1/2-z
-x,-y,-z
1/2+x,1/2+y,1/2-z
1/2-x,1/2+y,z
x,-y,1/2+z
loop_
_atom_site_type_symbol
_atom_site_label
_atom_site_fract_x
_atom_site_fract_y
_atom_site_fract_z
Si Si1 0.999070 0.525867 0.158955
Si Si2 0.865795 0.368953 0.132888
Si Si3 0.931038 0.777983 0.787184
Si Si4 0.174913 0.011263 0.242143
Si Si5 0.285727 0.543446 0.914016
Si Si6 0.109462 0.395039 0.539956
Si Si7 0.803571 0.672107 0.983962
Si Si8 0.722171 0.778244 0.835884
O O1 0.039169 0.366118 0.166539
O O2 0.038748 0.607413 0.088050
O O3 0.000000 0.589025 0.250000
O O4 0.919675 0.501698 0.140864
O O5 0.883458 0.283416 0.214438
O O6 0.786154 0.404012 0.126839
O O7 0.887471 0.307145 0.044474
O O8 0.884124 0.913263 0.812995
O O9 0.000000 0.843578 0.750000
O O10 0.243706 0.100029 0.220031
O O11 0.167287 0.008463 0.339891
O O12 0.185921 0.845794 0.215513
O O13 0.313889 0.679026 0.966048
O O14 0.259098 0.416033 0.973551
O O15 0.133589 0.559995 0.517882
O O16 0.168169 0.343738 0.601161
O O17 0.781074 0.708315 0.892578
#
# Coordination Sequence:
#
# PCOD9458042 Si02
#       8
#     8   8   8   8   8   8   8   8
#     4   9  20  36  61  88 115 165 206 251 296 371
#     4   9  18  35  60  86 114 155 201 249 299 359
#     4   9  20  39  63  83 119 166 207 242 304 374
#     4  12  24  38  62  91 126 159 208 250 316 367
#     4  11  22  36  61  90 123 157 200 256 307 364
#     4  11  21  35  61  86 126 151 212 249 313 356
#     4  11  20  39  56  87 123 159 194 252 306 372
#     4  12  23  36  59  92 123 162 198 257 313 367
#
# _framework density 21.715195000000001
#
# number of rings (size 3 to 8) (size 9 to 14) (size 15 to 20)
#    0.000    1.750    3.750    3.375    3.500    0.000 
#    0.000    0.625    2.750    1.500    0.000    0.000 
#    0.000    0.000    0.000    0.000    0.000    0.000 
#
# Total GULP energy -356955.618014 kJ/mol
# GULP energy per Si atom -5577.431531 kJ/mol
# Density = 2.166577 g / cm^3
# Si number density = 21.715195 Si / 1000 Ang^3
#
#
#
# Elastic Constant Matrix: (Units=GPa)
#
#
# Indices 1 2 3 4 5 6 
#
# 1 35.3379 -19.4175 -16.2660 0.0000 0.0000 0.0000
# 2 -19.4175 47.1992 8.0630 0.0000 0.0000 0.0000
# 3 -16.2660 8.0630 72.5475 0.0000 0.0000 0.0000
# 4 0.0000 0.0000 0.0000 14.6574 0.0000 0.0000
# 5 0.0000 0.0000 0.0000 0.0000 36.2017 0.0000
# 6 0.0000 0.0000 0.0000 0.0000 0.0000 9.9969
#
#
#
# Elastic Compliance Matrix: (Units=1/GPa)
#
#
# Indices 1 2 3 4 5 6 
#
# 1 0.040010 0.015216 0.007280 0.000000 0.000000 0.000000
# 2 0.015216 0.027384 0.000368 0.000000 0.000000 0.000000
# 3 0.007280 0.000368 0.015375 0.000000 0.000000 0.000000
# 4 0.000000 0.000000 0.000000 0.068225 0.000000 0.000000
# 5 0.000000 0.000000 0.000000 0.000000 0.027623 0.000000
# 6 0.000000 0.000000 0.000000 0.000000 0.000000 0.100031
#
#
# Mechanical properties :
#
#
# Convention : Reuss Voigt Hill
#
# Bulk Modulus (GPa) = 7.78224 11.09372 9.43798
# Shear Modulus (GPa) = 18.13220 24.35154 21.24187
#
# Velocity S-wave (km/s) = 2.89277 3.35237 3.13102
# Velocity P-wave (km/s) = 3.84045 4.48379 4.17453
#
# Compressibility (1/GPa) = 0.12849773
#
# Stress axis : x y z
#
# Youngs Moduli (GPa) = 24.99369 36.51789 65.03927
#
# Poissons Ratio (x) = -0.55567 -0.47346
# Poissons Ratio (y) = -0.38031 -0.02395
# Poissons Ratio (z) = -0.18194 -0.01345
#
# Static dielectric constant tensor:
#      x y z
#    x 1.818930 0.000000 0.000000 
#    y 0.000000 1.845470 0.000000 
#    z 0.000000 0.000000 1.882530 
# 
# From -- ./inp_files/21048.got.cif
#   From: 2010.05.17/outbox.cif.g08.bks.cpg/sg60_11_cif.got.tgz:21048.got - 2010.06.03 14:59:27.
