data_PCOD9458970
_publ_section_title
;
Structure prediction by ZEFSAII (Michael W. Deem and Ramdas Pophale) SiO2 
 PCOD9458970
Probable space group: P B C A
;
_chemical_formula_sum "Si O2"
_cell_formula_units_Z 56
_cell_length_a 5.302730
_cell_length_b 22.093385
_cell_length_c 29.516568
_cell_angle_alpha 90.000000
_cell_angle_beta 90.000000
_cell_angle_gamma 90.000000
_cell_volume 3458.021064
_symmetry_space_group_name_H-M "P B C A"
_symmetry_group_IT_number 61
_symmetry_cell_setting 'orthorhombic'
loop_
_space_group_symop_operation_xyz
x,y,z
1/2-x,-y,1/2+z
1/2+x,1/2-y,-z
-x,1/2+y,1/2-z
-x,-y,-z
1/2+x,y,1/2-z
1/2-x,1/2+y,z
x,1/2-y,1/2+z
loop_
_atom_site_type_symbol
_atom_site_label
_atom_site_fract_x
_atom_site_fract_y
_atom_site_fract_z
Si Si1 0.212896 0.078132 0.492024
Si Si2 0.782388 0.279614 0.520589
Si Si3 0.811405 0.185670 0.121335
Si Si4 0.201495 0.792624 0.775855
Si Si5 0.187440 0.606948 0.132862
Si Si6 0.712802 0.026378 0.446325
Si Si7 0.804177 0.072447 0.262641
O O1 0.250814 0.149506 0.491476
O O2 0.434423 0.049103 0.460664
O O3 0.932335 0.061461 0.474659
O O4 0.254802 0.043267 0.539493
O O5 0.541110 0.244911 0.500683
O O6 0.792252 0.275905 0.575409
O O7 0.793651 0.218090 0.170410
O O8 0.576828 0.138630 0.120451
O O9 0.079528 0.151111 0.121084
O O10 0.449634 0.771004 0.749430
O O11 0.198476 0.866224 0.768392
O O12 0.231513 0.546049 0.104610
O O13 0.191964 0.593823 0.185954
O O14 0.553271 0.037732 0.250577
#
# Coordination Sequence:
#
# PCOD9458970 Si02
#       7
#     8   8   8   8   8   8   8
#     4  10  20  35  51  69  98 124 172 214 241 291
#     4  12  24  37  50  70 100 141 180 216 256 296
#     4  12  20  30  47  69  99 133 165 197 247 309
#     4  10  16  27  42  66  95 130 146 190 251 309
#     4  12  17  28  48  70 100 128 157 190 247 315
#     4  10  19  32  52  75  93 129 163 204 251 286
#     4  10  16  25  38  67  99 129 141 181 241 312
#
# _framework density 16.194233000000001
#
# number of rings (size 3 to 8) (size 9 to 14) (size 15 to 20)
#    0.000    1.143    8.571    1.714    0.000    0.000 
#    0.000    0.000    0.000    0.000    0.000    0.000 
#    0.000    6.857    0.000    0.000    0.000    0.000 
#
# Total GULP energy -312066.407736 kJ/mol
# GULP energy per Si atom -5572.614424 kJ/mol
# Density = 1.615737 g / cm^3
# Si number density = 16.194233 Si / 1000 Ang^3
#
#
#
# Elastic Constant Matrix: (Units=GPa)
#
#
# Indices 1 2 3 4 5 6 
#
# 1 118.5993 3.1227 24.9050 0.0000 0.0000 0.0000
# 2 3.1227 33.1542 19.6774 0.0000 0.0000 0.0000
# 3 24.9050 19.6774 130.2829 0.0000 0.0000 0.0000
# 4 0.0000 0.0000 0.0000 10.4557 0.0000 0.0000
# 5 0.0000 0.0000 0.0000 0.0000 22.8082 0.0000
# 6 0.0000 0.0000 0.0000 0.0000 0.0000 14.9288
#
#
#
# Elastic Compliance Matrix: (Units=1/GPa)
#
#
# Indices 1 2 3 4 5 6 
#
# 1 0.008785 0.000186 -0.001708 0.000000 0.000000 0.000000
# 2 0.000186 0.033136 -0.005040 0.000000 0.000000 0.000000
# 3 -0.001708 -0.005040 0.008763 0.000000 0.000000 0.000000
# 4 0.000000 0.000000 0.000000 0.095642 0.000000 0.000000
# 5 0.000000 0.000000 0.000000 0.000000 0.043844 0.000000
# 6 0.000000 0.000000 0.000000 0.000000 0.000000 0.066985
#
#
# Mechanical properties :
#
#
# Convention : Reuss Voigt Hill
#
# Bulk Modulus (GPa) = 26.62329 41.93851 34.28090
# Shear Modulus (GPa) = 17.68040 25.26063 21.47052
#
# Velocity S-wave (km/s) = 3.30778 3.95378 3.64512
# Velocity P-wave (km/s) = 5.57353 6.84080 6.23942
#
# Compressibility (1/GPa) = 0.03756109
#
# Stress axis : x y z
#
# Youngs Moduli (GPa) = 113.82487 30.17859 114.11250
#
# Poissons Ratio (x) = -0.00561 0.19485
# Poissons Ratio (y) = -0.02117 0.57516
# Poissons Ratio (z) = 0.19436 0.15211
#
# Static dielectric constant tensor:
#      x y z
#    x 1.619420 0.000000 0.000000 
#    y 0.000000 1.502550 0.000000 
#    z 0.000000 0.000000 1.564550 
# 
# From -- ./inp_files/10659.got.cif
#   From: 2010.05.17/outbox.cif.g08.bks.cpg/sg61_6_cif.got.tgz:10659.got - 2010.06.03 15:17:17.
