data_PCOD9458344
_publ_section_title
;
Structure prediction by ZEFSAII (Michael W. Deem and Ramdas Pophale) SiO2 
 PCOD9458344
Probable space group: P B C N
;
_chemical_formula_sum "Si O2"
_cell_formula_units_Z 40
_cell_length_a 20.893124
_cell_length_b 9.261624
_cell_length_c 8.777608
_cell_angle_alpha 90.000000
_cell_angle_beta 90.000000
_cell_angle_gamma 90.000000
_cell_volume 1698.504529
_symmetry_space_group_name_H-M "P B C N"
_symmetry_group_IT_number 60
_symmetry_cell_setting 'orthorhombic'
loop_
_space_group_symop_operation_xyz
x,y,z
1/2-x,1/2-y,1/2+z
1/2+x,1/2-y,-z
-x,y,1/2-z
-x,-y,-z
1/2+x,1/2+y,1/2-z
1/2-x,1/2+y,z
x,-y,1/2+z
loop_
_atom_site_type_symbol
_atom_site_label
_atom_site_fract_x
_atom_site_fract_y
_atom_site_fract_z
Si Si1 0.249190 0.584065 0.204700
Si Si2 0.573557 0.153046 0.124390
Si Si3 0.701595 0.320150 0.105350
Si Si4 0.609252 0.866930 0.948581
Si Si5 0.518151 0.654434 0.073247
O O1 0.271100 0.432441 0.271770
O O2 0.244682 0.680881 0.356625
O O3 0.180111 0.604660 0.121047
O O4 0.295124 0.633171 0.069338
O O5 0.629416 0.273941 0.135804
O O6 0.562524 0.123833 0.302355
O O7 0.525816 0.224091 0.005056
O O8 0.597483 0.001283 0.058679
O O9 0.589529 0.717452 0.034166
O O10 0.500000 0.647625 0.250000
O O11 0.500000 0.500000 0.000000
#
# Coordination Sequence:
#
# PCOD9458344 Si02
#       5
#     8   8   8   8   8
#     4  11  23  42  65  99 136 183 235 298 366 446
#     4  11  24  43  69  99 135 187 239 301 365 438
#     4  11  24  41  67 100 138 181 240 301 370 446
#     4  11  23  44  69  97 138 189 243 297 367 447
#     4  12  27  46  69 103 143 190 248 315 377 441
#
# _framework density 23.550129999999999
#
# number of rings (size 3 to 8) (size 9 to 14) (size 15 to 20)
#    0.000    0.800    0.000    8.400    0.000    8.000 
#    0.000    0.000    0.000    0.000    0.000    0.000 
#    0.000    0.000    0.000    0.000    0.000    0.000 
#
# Total GULP energy -223390.064273 kJ/mol
# GULP energy per Si atom -5584.751607 kJ/mol
# Density = 2.349653 g / cm^3
# Si number density = 23.550130 Si / 1000 Ang^3
#
#
#
# Elastic Constant Matrix: (Units=GPa)
#
#
# Indices 1 2 3 4 5 6 
#
# 1 46.1944 28.0120 19.4626 0.0000 0.0000 0.0000
# 2 28.0120 88.1359 7.9857 0.0000 0.0000 0.0000
# 3 19.4626 7.9857 124.4298 0.0000 0.0000 0.0000
# 4 0.0000 0.0000 0.0000 39.3375 0.0000 0.0000
# 5 0.0000 0.0000 0.0000 0.0000 26.8787 0.0000
# 6 0.0000 0.0000 0.0000 0.0000 0.0000 22.5503
#
#
#
# Elastic Compliance Matrix: (Units=1/GPa)
#
#
# Indices 1 2 3 4 5 6 
#
# 1 0.028591 -0.008733 -0.003912 0.000000 0.000000 0.000000
# 2 -0.008733 0.014080 0.000462 0.000000 0.000000 0.000000
# 3 -0.003912 0.000462 0.008619 0.000000 0.000000 0.000000
# 4 0.000000 0.000000 0.000000 0.025421 0.000000 0.000000
# 5 0.000000 0.000000 0.000000 0.000000 0.037204 0.000000
# 6 0.000000 0.000000 0.000000 0.000000 0.000000 0.044345
#
#
# Mechanical properties :
#
#
# Convention : Reuss Voigt Hill
#
# Bulk Modulus (GPa) = 37.13914 41.07561 39.10738
# Shear Modulus (GPa) = 26.09615 31.30663 28.70139
#
# Velocity S-wave (km/s) = 3.33244 3.65000 3.49483
# Velocity P-wave (km/s) = 5.53275 5.93658 5.73822
#
# Compressibility (1/GPa) = 0.02692577
#
# Stress axis : x y z
#
# Youngs Moduli (GPa) = 34.97593 71.02434 116.02510
#
# Poissons Ratio (x) = 0.62023 0.45384
# Poissons Ratio (y) = 0.30543 -0.05364
# Poissons Ratio (z) = 0.13681 -0.03283
#
# Static dielectric constant tensor:
#      x y z
#    x 2.023150 0.000000 0.000000 
#    y 0.000000 1.941190 0.000000 
#    z 0.000000 0.000000 1.829400 
# 
# From -- ./inp_files/7756.got.cif
#   From: 2010.05.17/outbox.cif.g08.bks.cpg/sg60_4_cif.got.tgz:7756.got - 2010.06.03 14:59:27.
