data_PCOD9458640
_publ_section_title
;
Structure prediction by ZEFSAII (Michael W. Deem and Ramdas Pophale) SiO2 
 PCOD9458640
Probable space group: P B C N
;
_chemical_formula_sum "Si O2"
_cell_formula_units_Z 24
_cell_length_a 12.200498
_cell_length_b 8.233846
_cell_length_c 8.414985
_cell_angle_alpha 90.000000
_cell_angle_beta 90.000000
_cell_angle_gamma 90.000000
_cell_volume 845.344330
_symmetry_space_group_name_H-M "P B C N"
_symmetry_group_IT_number 60
_symmetry_cell_setting 'orthorhombic'
loop_
_space_group_symop_operation_xyz
x,y,z
1/2-x,1/2-y,1/2+z
1/2+x,1/2-y,-z
-x,y,1/2-z
-x,-y,-z
1/2+x,1/2+y,1/2-z
1/2-x,1/2+y,z
x,-y,1/2+z
loop_
_atom_site_type_symbol
_atom_site_label
_atom_site_fract_x
_atom_site_fract_y
_atom_site_fract_z
Si Si1 0.415579 0.839132 0.602171
Si Si2 0.835588 0.357536 0.220207
Si Si3 0.629742 0.490642 0.280237
O O1 0.500000 0.823262 0.750000
O O2 0.429411 0.871843 0.414617
O O3 0.366051 0.655893 0.590499
O O4 0.348618 0.996968 0.656165
O O5 0.713253 0.402236 0.154600
O O6 0.838702 0.179061 0.292041
O O7 0.500000 0.503065 0.250000
#
# Coordination Sequence:
#
# PCOD9458640 Si02
#       3
#     8   8   8
#     4  11  27  49  79 118 157 211 273 337 411 488
#     4  12  26  49  80 112 167 212 271 341 410 481
#     4  11  27  47  76 118 161 214 272 331 408 485
#
# _framework density 28.390799000000001
#
# number of rings (size 3 to 8) (size 9 to 14) (size 15 to 20)
#    0.000    0.667    3.333    2.000    4.667    8.000 
#    0.000    0.000    0.000    0.000    0.000    0.000 
#    0.000    0.000    0.000    0.000    0.000    0.000 
#
# Total GULP energy -133701.291280 kJ/mol
# GULP energy per Si atom -5570.887137 kJ/mol
# Density = 2.832618 g / cm^3
# Si number density = 28.390799 Si / 1000 Ang^3
#
#
#
# Elastic Constant Matrix: (Units=GPa)
#
#
# Indices 1 2 3 4 5 6 
#
# 1 140.9761 85.8241 -5.0402 0.0000 0.0000 0.0000
# 2 85.8241 319.4708 61.3292 0.0000 0.0000 0.0000
# 3 -5.0402 61.3292 118.8210 0.0000 0.0000 0.0000
# 4 0.0000 0.0000 0.0000 42.4622 0.0000 0.0000
# 5 0.0000 0.0000 0.0000 0.0000 29.4377 0.0000
# 6 0.0000 0.0000 0.0000 0.0000 0.0000 -116.2501
#
#
#
# Elastic Compliance Matrix: (Units=1/GPa)
#
#
# Indices 1 2 3 4 5 6 
#
# 1 0.008803 -0.002705 0.001769 0.000000 0.000000 0.000000
# 2 -0.002705 0.004305 -0.002337 0.000000 0.000000 0.000000
# 3 0.001769 -0.002337 0.009697 0.000000 0.000000 0.000000
# 4 0.000000 0.000000 0.000000 0.023550 0.000000 0.000000
# 5 0.000000 0.000000 0.000000 0.000000 0.033970 0.000000
# 6 0.000000 0.000000 0.000000 0.000000 0.000000 -0.008602
#
#
# Mechanical properties :
#
#
# Convention : Reuss Voigt Hill
#
# Bulk Modulus (GPa) = 61.49476 95.94378 78.71927
# Shear Modulus (GPa) = 59.74510 20.27362 40.00936
#
# Velocity S-wave (km/s) = 4.59233 2.67515 3.75805
# Velocity P-wave (km/s) = 7.05879 6.58857 6.82773
#
# Compressibility (1/GPa) = 0.01626155
#
# Stress axis : x y z
#
# Youngs Moduli (GPa) = 113.59533 232.26773 103.12168
#
# Poissons Ratio (x) = 0.62819 -0.18246
# Poissons Ratio (y) = 0.30723 0.24099
# Poissons Ratio (z) = -0.20099 0.54279
#
# Static dielectric constant tensor:
#      x y z
#    x 2.778100 0.000000 0.000000 
#    y 0.000000 2.081250 0.000000 
#    z 0.000000 0.000000 2.178070 
# 
# From -- ./inp_files/5384.got.cif
#   From: 2010.05.17/outbox.cif.g08.bks.cpg/sg60_3_cif.got.tgz:5384.got - 2010.06.03 14:59:27.
