data_PCOD9458864
_publ_section_title
;
Structure prediction by ZEFSAII (Michael W. Deem and Ramdas Pophale) SiO2 
 PCOD9458864
Probable space group: P B C N
;
_chemical_formula_sum "Si O2"
_cell_formula_units_Z 64
_cell_length_a 15.514609
_cell_length_b 8.499403
_cell_length_c 27.336236
_cell_angle_alpha 90.000000
_cell_angle_beta 90.000000
_cell_angle_gamma 90.000000
_cell_volume 3604.690417
_symmetry_space_group_name_H-M "P B C N"
_symmetry_group_IT_number 60
_symmetry_cell_setting 'orthorhombic'
loop_
_space_group_symop_operation_xyz
x,y,z
1/2-x,1/2-y,1/2+z
1/2+x,1/2-y,-z
-x,y,1/2-z
-x,-y,-z
1/2+x,1/2+y,1/2-z
1/2-x,1/2+y,z
x,-y,1/2+z
loop_
_atom_site_type_symbol
_atom_site_label
_atom_site_fract_x
_atom_site_fract_y
_atom_site_fract_z
Si Si1 0.157374 0.803670 0.812069
Si Si2 0.132675 0.396059 0.723982
Si Si3 0.209288 0.908011 0.250634
Si Si4 0.543604 0.010669 0.681342
Si Si5 0.037353 0.532324 0.928643
Si Si6 0.788990 0.897033 0.011267
Si Si7 0.131111 0.598966 0.522244
Si Si8 0.160730 0.816648 0.926768
O O1 0.234159 0.698040 0.788568
O O2 0.072850 0.691798 0.809825
O O3 0.174330 0.840427 0.869003
O O4 0.155273 0.962733 0.780607
O O5 0.219658 0.496636 0.719539
O O6 0.154045 0.212723 0.718416
O O7 0.100513 0.413767 0.780282
O O8 0.055010 0.469657 0.693155
O O9 0.562393 0.974454 0.625054
O O10 0.080100 0.429418 0.971121
O O11 0.077389 0.706854 0.933792
O O12 0.935423 0.544175 0.936644
O O13 0.842623 0.780789 0.977032
O O14 0.738493 0.785240 0.049829
O O15 0.716298 0.992498 0.981415
O O16 0.842150 0.023324 0.042586
#
# Coordination Sequence:
#
# PCOD9458864 Si02
#       8
#     8   8   8   8   8   8   8   8
#     4   9  16  27  47  72  96 121 153 194 239 282
#     4   9  18  33  49  69  95 124 157 194 236 281
#     4   9  17  29  48  70  94 123 154 192 235 281
#     4   9  18  33  50  68  95 126 156 195 240 280
#     4   9  18  32  49  68  93 126 158 193 237 280
#     4   9  17  28  45  67  95 125 154 193 233 275
#     4   9  18  32  48  68  94 124 158 193 234 279
#     4   9  16  26  44  71  96 122 154 192 236 277
#
# _framework density 17.754646000000001
#
# number of rings (size 3 to 8) (size 9 to 14) (size 15 to 20)
#    0.000    3.000    0.000    0.750    0.000    7.500 
#    0.000    8.750    0.000    0.000    0.000    0.000 
#    0.000    0.000    0.000    0.000    0.000    0.000 
#
# Total GULP energy -356444.053203 kJ/mol
# GULP energy per Si atom -5569.438331 kJ/mol
# Density = 1.771424 g / cm^3
# Si number density = 17.754646 Si / 1000 Ang^3
#
#
#
# Elastic Constant Matrix: (Units=GPa)
#
#
# Indices 1 2 3 4 5 6 
#
# 1 51.5296 17.2233 -1.1335 0.0000 0.0000 0.0000
# 2 17.2233 72.1930 -1.7944 0.0000 0.0000 0.0000
# 3 -1.1335 -1.7944 14.2341 0.0000 0.0000 0.0000
# 4 0.0000 0.0000 0.0000 12.9601 0.0000 0.0000
# 5 0.0000 0.0000 0.0000 0.0000 9.5401 0.0000
# 6 0.0000 0.0000 0.0000 0.0000 0.0000 16.6619
#
#
#
# Elastic Compliance Matrix: (Units=1/GPa)
#
#
# Indices 1 2 3 4 5 6 
#
# 1 0.021103 -0.005009 0.001049 0.000000 0.000000 0.000000
# 2 -0.005009 0.015084 0.001503 0.000000 0.000000 0.000000
# 3 0.001049 0.001503 0.070527 0.000000 0.000000 0.000000
# 4 0.000000 0.000000 0.000000 0.077160 0.000000 0.000000
# 5 0.000000 0.000000 0.000000 0.000000 0.104821 0.000000
# 6 0.000000 0.000000 0.000000 0.000000 0.000000 0.060017
#
#
# Mechanical properties :
#
#
# Convention : Reuss Voigt Hill
#
# Bulk Modulus (GPa) = 9.82312 18.50530 14.16421
# Shear Modulus (GPa) = 12.90123 16.07649 14.48886
#
# Velocity S-wave (km/s) = 2.69855 3.01239 2.85978
# Velocity P-wave (km/s) = 3.90567 4.74813 4.34735
#
# Compressibility (1/GPa) = 0.10180064
#
# Stress axis : x y z
#
# Youngs Moduli (GPa) = 47.38554 66.29525 14.17899
#
# Poissons Ratio (x) = 0.33205 -0.01487
# Poissons Ratio (y) = 0.23734 -0.02131
# Poissons Ratio (z) = -0.04971 -0.09962
#
# Static dielectric constant tensor:
#      x y z
#    x 1.633480 0.000000 0.000000 
#    y 0.000000 1.614390 0.000000 
#    z 0.000000 0.000000 1.590400 
# 
# From -- ./inp_files/25482.got.cif
#   From: 2010.05.17/outbox.cif.g08.bks.cpg/sg60_13_cif.got.tgz:25482.got - 2010.06.03 14:59:27.
