data_PCOD9458486
_publ_section_title
;
Structure prediction by ZEFSAII (Michael W. Deem and Ramdas Pophale) SiO2 
 PCOD9458486
Probable space group: P B C N
;
_chemical_formula_sum "Si O2"
_cell_formula_units_Z 40
_cell_length_a 23.854236
_cell_length_b 4.957394
_cell_length_c 13.611645
_cell_angle_alpha 90.000000
_cell_angle_beta 90.000000
_cell_angle_gamma 90.000000
_cell_volume 1609.642989
_symmetry_space_group_name_H-M "P B C N"
_symmetry_group_IT_number 60
_symmetry_cell_setting 'orthorhombic'
loop_
_space_group_symop_operation_xyz
x,y,z
1/2-x,1/2-y,1/2+z
1/2+x,1/2-y,-z
-x,y,1/2-z
-x,-y,-z
1/2+x,1/2+y,1/2-z
1/2-x,1/2+y,z
x,-y,1/2+z
loop_
_atom_site_type_symbol
_atom_site_label
_atom_site_fract_x
_atom_site_fract_y
_atom_site_fract_z
Si Si1 0.852855 0.643131 0.854005
Si Si2 0.025743 0.019765 0.344710
Si Si3 0.714511 0.234461 0.041410
Si Si4 0.866283 0.837742 0.218361
Si Si5 0.946736 0.323117 0.974867
O O1 0.838094 0.389258 0.786180
O O2 0.900853 0.509898 0.923975
O O3 0.866873 0.884386 0.779516
O O4 0.807626 0.755605 0.930420
O O5 0.067891 0.787925 0.305749
O O6 0.000000 0.167746 0.250000
O O7 0.972232 0.904107 0.402959
O O8 0.064827 0.182464 0.420779
O O9 0.768006 0.425487 0.056426
O O10 0.668160 0.330583 0.118090
O O11 0.000000 0.500000 0.000000
#
# Coordination Sequence:
#
# PCOD9458486 Si02
#       5
#     8   8   8   8   8
#     4  12  28  49  79 114 155 206 259 331 391 477
#     4  11  24  44  72 113 155 214 260 319 385 481
#     4  12  29  52  81 111 151 201 261 335 400 469
#     4  12  28  48  80 115 156 204 264 319 404 472
#     4  11  25  42  71 107 160 208 259 317 391 459
#
# _framework density 24.850231000000001
#
# number of rings (size 3 to 8) (size 9 to 14) (size 15 to 20)
#    0.000    0.400    2.000    4.800   14.000    5.600 
#    0.000    0.000    0.000    0.000    0.000    0.000 
#    0.000    0.000    0.000    0.000    0.000    0.000 
#
# Total GULP energy -223894.011381 kJ/mol
# GULP energy per Si atom -5597.350285 kJ/mol
# Density = 2.479367 g / cm^3
# Si number density = 24.850231 Si / 1000 Ang^3
#
#
#
# Elastic Constant Matrix: (Units=GPa)
#
#
# Indices 1 2 3 4 5 6 
#
# 1 57.8726 9.6519 31.6675 0.0000 0.0000 0.0000
# 2 9.6519 113.0819 47.2531 0.0000 0.0000 0.0000
# 3 31.6675 47.2531 151.7272 0.0000 0.0000 0.0000
# 4 0.0000 0.0000 0.0000 36.1154 0.0000 0.0000
# 5 0.0000 0.0000 0.0000 0.0000 34.1711 0.0000
# 6 0.0000 0.0000 0.0000 0.0000 0.0000 35.0873
#
#
#
# Elastic Compliance Matrix: (Units=1/GPa)
#
#
# Indices 1 2 3 4 5 6 
#
# 1 0.019507 0.000042 -0.004084 0.000000 0.000000 0.000000
# 2 0.000042 0.010166 -0.003175 0.000000 0.000000 0.000000
# 3 -0.004084 -0.003175 0.008432 0.000000 0.000000 0.000000
# 4 0.000000 0.000000 0.000000 0.027689 0.000000 0.000000
# 5 0.000000 0.000000 0.000000 0.000000 0.029265 0.000000
# 6 0.000000 0.000000 0.000000 0.000000 0.000000 0.028500
#
#
# Mechanical properties :
#
#
# Convention : Reuss Voigt Hill
#
# Bulk Modulus (GPa) = 42.24664 55.53630 48.89147
# Shear Modulus (GPa) = 34.27364 36.68203 35.47783
#
# Velocity S-wave (km/s) = 3.71780 3.84620 3.78255
# Velocity P-wave (km/s) = 5.95540 6.49009 6.22849
#
# Compressibility (1/GPa) = 0.02367052
#
# Stress axis : x y z
#
# Youngs Moduli (GPa) = 51.26277 98.36476 118.59572
#
# Poissons Ratio (x) = -0.00411 0.48440
# Poissons Ratio (y) = -0.00214 0.37652
# Poissons Ratio (z) = 0.20938 0.31229
#
# Static dielectric constant tensor:
#      x y z
#    x 2.010630 0.000000 0.000000 
#    y 0.000000 2.117360 0.000000 
#    z 0.000000 0.000000 2.073270 
# 
# From -- ./inp_files/13209.got.cif
#   From: 2010.05.17/outbox.cif.g08.bks.cpg/sg60_7_cif.got.tgz:13209.got - 2010.06.03 14:59:27.
