data_PCOD9458405
_publ_section_title
;
Structure prediction by ZEFSAII (Michael W. Deem and Ramdas Pophale) SiO2 
 PCOD9458405
Probable space group: P B C N
;
_chemical_formula_sum "Si O2"
_cell_formula_units_Z 52
_cell_length_a 7.470865
_cell_length_b 12.543960
_cell_length_c 25.358914
_cell_angle_alpha 90.000000
_cell_angle_beta 90.000000
_cell_angle_gamma 90.000000
_cell_volume 2376.491143
_symmetry_space_group_name_H-M "P B C N"
_symmetry_group_IT_number 60
_symmetry_cell_setting 'orthorhombic'
loop_
_space_group_symop_operation_xyz
x,y,z
1/2-x,1/2-y,1/2+z
1/2+x,1/2-y,-z
-x,y,1/2-z
-x,-y,-z
1/2+x,1/2+y,1/2-z
1/2-x,1/2+y,z
x,-y,1/2+z
loop_
_atom_site_type_symbol
_atom_site_label
_atom_site_fract_x
_atom_site_fract_y
_atom_site_fract_z
Si Si1 0.660780 0.728569 0.283615
Si Si2 0.513337 0.567868 0.132097
Si Si3 0.000000 0.385702 0.750000
Si Si4 0.925858 0.522520 0.137339
Si Si5 0.889333 0.212744 0.456459
Si Si6 0.949236 0.608982 0.470926
Si Si7 0.736710 0.874670 0.376711
O O1 0.500000 0.778036 0.250000
O O2 0.568446 0.634903 0.318752
O O3 0.754317 0.812237 0.322166
O O4 0.817573 0.681444 0.247984
O O5 0.711745 0.522054 0.140707
O O6 0.520122 0.653636 0.084362
O O7 0.373531 0.472525 0.119932
O O8 0.003576 0.447668 0.694682
O O9 0.988367 0.600495 0.089920
O O10 0.030672 0.415377 0.121752
O O11 0.763309 0.120028 0.477674
O O12 0.755559 0.288529 0.422764
O O13 0.970469 0.288889 0.499839
O O14 0.000000 0.500000 0.500000
#
# Coordination Sequence:
#
# PCOD9458405 Si02
#       7
#     8   8   4   8   8   8   8
#     4  11  24  43  67  98 141 183 241 297 358 426
#     4  11  23  45  71 103 140 189 238 296 365 428
#     4  12  24  46  70 100 140 192 238 298 360 430
#     4  12  24  44  73  98 144 186 235 296 355 426
#     4  11  23  45  72 105 150 184 238 301 363 433
#     4  12  24  46  75 109 148 191 241 302 366 433
#     4  11  24  45  67 104 142 185 235 298 357 432
#
# _framework density 21.880998000000002
#
# number of rings (size 3 to 8) (size 9 to 14) (size 15 to 20)
#    0.000    0.615    6.154    1.846    1.077    2.462 
#    6.923    3.077    0.000    0.000    0.000    0.000 
#    0.000    0.000    0.000    0.000    0.000    0.000 
#
# Total GULP energy -290567.375295 kJ/mol
# GULP energy per Si atom -5587.834140 kJ/mol
# Density = 2.183120 g / cm^3
# Si number density = 21.880998 Si / 1000 Ang^3
#
#
#
# Elastic Constant Matrix: (Units=GPa)
#
#
# Indices 1 2 3 4 5 6 
#
# 1 95.2431 18.1993 6.1050 0.0000 0.0000 0.0000
# 2 18.1993 66.7551 15.2158 0.0000 0.0000 0.0000
# 3 6.1050 15.2158 89.5607 0.0000 0.0000 0.0000
# 4 0.0000 0.0000 0.0000 22.0880 0.0000 0.0000
# 5 0.0000 0.0000 0.0000 0.0000 23.0674 0.0000
# 6 0.0000 0.0000 0.0000 0.0000 0.0000 40.4916
#
#
#
# Elastic Compliance Matrix: (Units=1/GPa)
#
#
# Indices 1 2 3 4 5 6 
#
# 1 0.011082 -0.002964 -0.000252 0.000000 0.000000 0.000000
# 2 -0.002964 0.016376 -0.002580 0.000000 0.000000 0.000000
# 3 -0.000252 -0.002580 0.011621 0.000000 0.000000 0.000000
# 4 0.000000 0.000000 0.000000 0.045273 0.000000 0.000000
# 5 0.000000 0.000000 0.000000 0.000000 0.043351 0.000000
# 6 0.000000 0.000000 0.000000 0.000000 0.000000 0.024696
#
#
# Mechanical properties :
#
#
# Convention : Reuss Voigt Hill
#
# Bulk Modulus (GPa) = 36.38014 36.73325 36.55669
# Shear Modulus (GPa) = 28.87590 31.26533 30.07061
#
# Velocity S-wave (km/s) = 3.63668 3.78415 3.71115
# Velocity P-wave (km/s) = 5.85631 5.99310 5.92510
#
# Compressibility (1/GPa) = 0.02748753
#
# Stress axis : x y z
#
# Youngs Moduli (GPa) = 90.23698 61.06398 86.05010
#
# Poissons Ratio (x) = 0.18098 0.02167
# Poissons Ratio (y) = 0.26745 0.22203
# Poissons Ratio (z) = 0.02273 0.15756
#
# Static dielectric constant tensor:
#      x y z
#    x 1.792750 0.000000 0.000000 
#    y 0.000000 1.800030 0.000000 
#    z 0.000000 0.000000 1.863690 
# 
# From -- ./inp_files/25181.got.cif
#   From: 2010.05.17/outbox.cif.g08.bks.cpg/sg60_13_cif.got.tgz:25181.got - 2010.06.03 14:59:27.
