data_PCOD9458843
_publ_section_title
;
Structure prediction by ZEFSAII (Michael W. Deem and Ramdas Pophale) SiO2 
 PCOD9458843
Probable space group: P B C N
;
_chemical_formula_sum "Si O2"
_cell_formula_units_Z 32
_cell_length_a 18.331210
_cell_length_b 7.305841
_cell_length_c 9.136582
_cell_angle_alpha 90.000000
_cell_angle_beta 90.000000
_cell_angle_gamma 90.000000
_cell_volume 1223.615882
_symmetry_space_group_name_H-M "P B C N"
_symmetry_group_IT_number 60
_symmetry_cell_setting 'orthorhombic'
loop_
_space_group_symop_operation_xyz
x,y,z
1/2-x,1/2-y,1/2+z
1/2+x,1/2-y,-z
-x,y,1/2-z
-x,-y,-z
1/2+x,1/2+y,1/2-z
1/2-x,1/2+y,z
x,-y,1/2+z
loop_
_atom_site_type_symbol
_atom_site_label
_atom_site_fract_x
_atom_site_fract_y
_atom_site_fract_z
Si Si1 0.804158 0.400132 0.216049
Si Si2 0.826249 0.124686 0.951574
Si Si3 0.865737 0.273879 0.510037
Si Si4 0.482736 0.186113 0.086777
O O1 0.806099 0.242023 0.094711
O O2 0.729400 0.379229 0.313050
O O3 0.860850 0.366086 0.349525
O O4 0.665779 0.078033 0.126171
O O5 0.677510 0.414775 0.999872
O O6 0.906158 0.208311 0.917990
O O7 0.946929 0.198567 0.538501
O O8 0.500000 0.134882 0.250000
O O9 0.500000 0.000000 0.000000
#
# Coordination Sequence:
#
# PCOD9458843 Si02
#       4
#     8   8   8   8
#     4  12  33  53  91 131 183 240 313 388 461 566
#     4  12  33  56  92 135 184 244 309 383 477 558
#     4  12  31  56  90 128 181 241 305 382 470 559
#     4  12  28  55  90 133 183 243 306 388 465 557
#
# _framework density 26.151996
#
# number of rings (size 3 to 8) (size 9 to 14) (size 15 to 20)
#    0.000    0.000    2.500    2.250   14.000    2.000 
#    0.000    0.000    0.000    0.000    0.000    0.000 
#    0.000    0.000    0.000    0.000    0.000    0.000 
#
# Total GULP energy -178966.482993 kJ/mol
# GULP energy per Si atom -5592.702594 kJ/mol
# Density = 2.609247 g / cm^3
# Si number density = 26.151996 Si / 1000 Ang^3
#
#
#
# Elastic Constant Matrix: (Units=GPa)
#
#
# Indices 1 2 3 4 5 6 
#
# 1 199.4634 49.8209 117.9848 0.0000 0.0000 0.0000
# 2 49.8209 182.3009 119.1114 0.0000 0.0000 0.0000
# 3 117.9848 119.1114 260.0039 0.0000 0.0000 0.0000
# 4 0.0000 0.0000 0.0000 46.2101 0.0000 0.0000
# 5 0.0000 0.0000 0.0000 0.0000 51.3592 0.0000
# 6 0.0000 0.0000 0.0000 0.0000 0.0000 46.0273
#
#
#
# Elastic Compliance Matrix: (Units=1/GPa)
#
#
# Indices 1 2 3 4 5 6 
#
# 1 0.006859 0.000227 -0.003217 0.000000 0.000000 0.000000
# 2 0.000227 0.007836 -0.003693 0.000000 0.000000 0.000000
# 3 -0.003217 -0.003693 0.006998 0.000000 0.000000 0.000000
# 4 0.000000 0.000000 0.000000 0.021640 0.000000 0.000000
# 5 0.000000 0.000000 0.000000 0.000000 0.019471 0.000000
# 6 0.000000 0.000000 0.000000 0.000000 0.000000 0.021726
#
#
# Mechanical properties :
#
#
# Convention : Reuss Voigt Hill
#
# Bulk Modulus (GPa) = 120.07460 135.06692 127.57076
# Shear Modulus (GPa) = 49.66636 52.37606 51.02121
#
# Velocity S-wave (km/s) = 4.36264 4.48007 4.42175
# Velocity P-wave (km/s) = 8.44930 8.86117 8.65769
#
# Compressibility (1/GPa) = 0.00832816
#
# Stress axis : x y z
#
# Youngs Moduli (GPa) = 145.78414 127.61168 142.90624
#
# Poissons Ratio (x) = -0.02898 0.45969
# Poissons Ratio (y) = -0.03311 0.52775
# Poissons Ratio (z) = 0.46895 0.47127
#
# Static dielectric constant tensor:
#      x y z
#    x 2.345520 0.000000 0.000000 
#    y 0.000000 2.331820 0.000000 
#    z 0.000000 0.000000 2.024690 
# 
# From -- ./inp_files/4857.got.cif
#   From: 2010.05.17/outbox.cif.g08.bks.cpg/sg60_3_cif.got.tgz:4857.got - 2010.06.03 14:59:27.
