data_PCOD9458883
_publ_section_title
;
Structure prediction by ZEFSAII (Michael W. Deem and Ramdas Pophale) SiO2 
 PCOD9458883
Probable space group: P B C N
;
_chemical_formula_sum "Si O2"
_cell_formula_units_Z 44
_cell_length_a 24.000000
_cell_length_b 12.000000
_cell_length_c 9.000000
_cell_angle_alpha 90.000000
_cell_angle_beta 90.000000
_cell_angle_gamma 90.000000
_cell_volume 2592.000000
_symmetry_space_group_name_H-M "P B C N"
_symmetry_group_IT_number 60
_symmetry_cell_setting 'orthorhombic'
loop_
_space_group_symop_operation_xyz
x,y,z
1/2-x,1/2-y,1/2+z
1/2+x,1/2-y,-z
-x,y,1/2-z
-x,-y,-z
1/2+x,1/2+y,1/2-z
1/2-x,1/2+y,z
x,-y,1/2+z
loop_
_atom_site_type_symbol
_atom_site_label
_atom_site_fract_x
_atom_site_fract_y
_atom_site_fract_z
Si Si1 0.199187 0.848935 0.624474
Si Si2 0.672642 0.775741 0.866985
Si Si3 0.000000 0.482871 0.250000
Si Si4 0.581153 0.932306 0.999320
Si Si5 0.665508 0.137523 0.035658
Si Si6 0.294453 0.566476 0.456629
O O1 0.265269 0.824408 0.608887
O O2 0.167800 0.733896 0.588706
O O3 0.189925 0.894651 0.790633
O O4 0.187499 0.943085 0.501959
O O5 0.659750 0.801449 0.694925
O O6 0.678928 0.649734 0.922336
O O7 0.626282 0.838087 0.964348
O O8 0.043417 0.416710 0.354353
O O9 0.961759 0.553799 0.362624
O O10 0.617326 0.046427 0.015002
O O11 0.726789 0.079176 0.033231
#
# Coordination Sequence:
#
# PCOD9458883 Si02
#       6
#     8   8   4   8   8   8
#     4  10  20  32  50  80 110 146 179 208 255 338
#     4  10  20  33  53  75 111 146 175 216 269 314
#     4  10  24  34  56  78 106 134 196 222 278 308
#     4  11  20  38  54  82 106 144 174 235 268 318
#     4  10  20  33  53  75 111 146 175 216 269 314
#     4  10  20  32  50  80 110 146 179 208 255 338
#
# _framework density 16.975308999999999
#
# number of rings (size 3 to 8) (size 9 to 14) (size 15 to 20)
#    0.000    1.818    3.636    1.091    2.545    1.455 
#    0.000    0.000    0.000    0.000    0.000    7.636 
#    0.000    0.000    0.000    0.000    0.000    0.000 
#
# Total GULP energy -245450.658052 kJ/mol
# GULP energy per Si atom -5578.424047 kJ/mol
# Density = 1.693667 g / cm^3
# Si number density = 16.975309 Si / 1000 Ang^3
#
#
#
# Elastic Constant Matrix: (Units=GPa)
#
#
# Indices 1 2 3 4 5 6 
#
# 1 65.7868 17.1221 18.4336 0.0000 0.0000 0.0000
# 2 17.1221 55.1846 11.1967 0.0000 0.0000 0.0000
# 3 18.4336 11.1967 56.5766 0.0000 0.0000 0.0000
# 4 0.0000 0.0000 0.0000 23.3781 0.0000 0.0000
# 5 0.0000 0.0000 0.0000 0.0000 33.2112 0.0000
# 6 0.0000 0.0000 0.0000 0.0000 0.0000 14.9765
#
#
#
# Elastic Compliance Matrix: (Units=1/GPa)
#
#
# Indices 1 2 3 4 5 6 
#
# 1 0.017745 -0.004514 -0.004888 0.000000 0.000000 0.000000
# 2 -0.004514 0.020027 -0.002493 0.000000 0.000000 0.000000
# 3 -0.004888 -0.002493 0.019761 0.000000 0.000000 0.000000
# 4 0.000000 0.000000 0.000000 0.042775 0.000000 0.000000
# 5 0.000000 0.000000 0.000000 0.000000 0.030110 0.000000
# 6 0.000000 0.000000 0.000000 0.000000 0.000000 0.066771
#
#
# Mechanical properties :
#
#
# Convention : Reuss Voigt Hill
#
# Bulk Modulus (GPa) = 29.63528 30.11696 29.87612
# Shear Modulus (GPa) = 21.53054 23.03287 22.28171
#
# Velocity S-wave (km/s) = 3.56525 3.68753 3.62691
# Velocity P-wave (km/s) = 5.86888 5.99255 5.93104
#
# Compressibility (1/GPa) = 0.03374357
#
# Stress axis : x y z
#
# Youngs Moduli (GPa) = 56.35339 49.93188 50.60430
#
# Poissons Ratio (x) = 0.22539 0.24737
# Poissons Ratio (y) = 0.25438 0.12614
# Poissons Ratio (z) = 0.27547 0.12447
#
# Static dielectric constant tensor:
#      x y z
#    x 1.543030 0.000000 0.000000 
#    y 0.000000 1.566340 0.000000 
#    z 0.000000 0.000000 1.605050 
# 
# From -- ./inp_files/7805.got.cif
#   From: 2010.05.17/outbox.ucp.g08.bks.cvg/sg60_4_cif.got.tgz:7805.got - 2010.06.11 16:26:41.
