data_PCOD9458130
_publ_section_title
;
Structure prediction by ZEFSAII (Michael W. Deem and Ramdas Pophale) SiO2 
 PCOD9458130
Probable space group: P B C N
;
_chemical_formula_sum "Si O2"
_cell_formula_units_Z 48
_cell_length_a 18.649356
_cell_length_b 13.385677
_cell_length_c 8.167592
_cell_angle_alpha 90.000000
_cell_angle_beta 90.000000
_cell_angle_gamma 90.000000
_cell_volume 2038.910750
_symmetry_space_group_name_H-M "P B C N"
_symmetry_group_IT_number 60
_symmetry_cell_setting 'orthorhombic'
loop_
_space_group_symop_operation_xyz
x,y,z
1/2-x,1/2-y,1/2+z
1/2+x,1/2-y,-z
-x,y,1/2-z
-x,-y,-z
1/2+x,1/2+y,1/2-z
1/2-x,1/2+y,z
x,-y,1/2+z
loop_
_atom_site_type_symbol
_atom_site_label
_atom_site_fract_x
_atom_site_fract_y
_atom_site_fract_z
Si Si1 0.420346 0.240632 0.710151
Si Si2 0.384680 0.964421 0.061842
Si Si3 0.723884 0.527630 0.798340
Si Si4 0.581487 0.151121 0.269695
Si Si5 0.822862 0.791940 0.091761
Si Si6 0.810313 0.846588 0.578433
O O1 0.500000 0.274482 0.750000
O O2 0.419287 0.122683 0.672274
O O3 0.383600 0.290248 0.548554
O O4 0.371171 0.272437 0.861443
O O5 0.302239 0.969680 0.119996
O O6 0.415719 0.075164 0.079576
O O7 0.396083 0.922700 0.880090
O O8 0.713358 0.605464 0.648476
O O9 0.709198 0.417762 0.732586
O O10 0.672330 0.574729 0.935985
O O11 0.500000 0.187025 0.250000
O O12 0.638352 0.239527 0.248292
O O13 0.759279 0.718863 0.033676
#
# Coordination Sequence:
#
# PCOD9458130 Si02
#       6
#     8   8   8   8   8   8
#     4  11  25  45  67 100 139 178 224 283 348 405
#     4  11  21  40  63  95 135 175 218 276 336 395
#     4  12  23  41  71 101 128 173 234 286 325 401
#     4  11  23  38  61  98 139 173 215 269 340 409
#     4  11  23  44  67  98 132 178 231 272 339 401
#     4  12  23  44  68  99 132 176 228 281 337 401
#
# _framework density 23.541981
#
# number of rings (size 3 to 8) (size 9 to 14) (size 15 to 20)
#    0.000    0.667    6.667    2.000    0.000    5.333 
#    0.000    4.167    0.000    0.000    0.000    0.000 
#    0.000    0.000    0.000    0.000    0.000    0.000 
#
# Total GULP energy -268659.802840 kJ/mol
# GULP energy per Si atom -5597.079226 kJ/mol
# Density = 2.348840 g / cm^3
# Si number density = 23.541981 Si / 1000 Ang^3
#
#
#
# Elastic Constant Matrix: (Units=GPa)
#
#
# Indices 1 2 3 4 5 6 
#
# 1 107.9773 18.1125 12.5188 0.0000 0.0000 0.0000
# 2 18.1125 72.4776 4.5071 0.0000 0.0000 0.0000
# 3 12.5188 4.5071 81.6168 0.0000 0.0000 0.0000
# 4 0.0000 0.0000 0.0000 43.3229 0.0000 0.0000
# 5 0.0000 0.0000 0.0000 0.0000 28.0799 0.0000
# 6 0.0000 0.0000 0.0000 0.0000 0.0000 8.5208
#
#
#
# Elastic Compliance Matrix: (Units=1/GPa)
#
#
# Indices 1 2 3 4 5 6 
#
# 1 0.009818 -0.002368 -0.001375 0.000000 0.000000 0.000000
# 2 -0.002368 0.014416 -0.000433 0.000000 0.000000 0.000000
# 3 -0.001375 -0.000433 0.012487 0.000000 0.000000 0.000000
# 4 0.000000 0.000000 0.000000 0.023082 0.000000 0.000000
# 5 0.000000 0.000000 0.000000 0.000000 0.035613 0.000000
# 6 0.000000 0.000000 0.000000 0.000000 0.000000 0.117360
#
#
# Mechanical properties :
#
#
# Convention : Reuss Voigt Hill
#
# Bulk Modulus (GPa) = 35.24967 36.92761 36.08864
# Shear Modulus (GPa) = 21.68399 31.11361 26.39880
#
# Velocity S-wave (km/s) = 3.03822 3.63936 3.35229
# Velocity P-wave (km/s) = 5.22621 5.77753 5.50877
#
# Compressibility (1/GPa) = 0.02836906
#
# Stress axis : x y z
#
# Youngs Moduli (GPa) = 101.85519 69.36709 80.08193
#
# Poissons Ratio (x) = 0.16426 0.11012
# Poissons Ratio (y) = 0.24119 0.03466
# Poissons Ratio (z) = 0.14007 0.03003
#
# Static dielectric constant tensor:
#      x y z
#    x 1.856480 0.000000 0.000000 
#    y 0.000000 1.878130 0.000000 
#    z 0.000000 0.000000 2.026260 
# 
# From -- ./inp_files/6726.got.cif
#   From: 2010.05.17/outbox.cif.g08.bks.cpg/sg60_4_cif.got.tgz:6726.got - 2010.06.03 14:59:27.
