data_PCOD9458327
_publ_section_title
;
Structure prediction by ZEFSAII (Michael W. Deem and Ramdas Pophale) SiO2 
 PCOD9458327
Probable space group: P B C N
;
_chemical_formula_sum "Si O2"
_cell_formula_units_Z 40
_cell_length_a 10.823844
_cell_length_b 13.978414
_cell_length_c 11.845530
_cell_angle_alpha 90.000000
_cell_angle_beta 90.000000
_cell_angle_gamma 90.000000
_cell_volume 1792.230732
_symmetry_space_group_name_H-M "P B C N"
_symmetry_group_IT_number 60
_symmetry_cell_setting 'orthorhombic'
loop_
_space_group_symop_operation_xyz
x,y,z
1/2-x,1/2-y,1/2+z
1/2+x,1/2-y,-z
-x,y,1/2-z
-x,-y,-z
1/2+x,1/2+y,1/2-z
1/2-x,1/2+y,z
x,-y,1/2+z
loop_
_atom_site_type_symbol
_atom_site_label
_atom_site_fract_x
_atom_site_fract_y
_atom_site_fract_z
Si Si1 0.129014 0.716583 0.312000
Si Si2 0.734155 0.586164 0.757851
Si Si3 0.089205 0.706632 0.574440
Si Si4 0.610789 0.066291 0.548502
Si Si5 0.807532 0.896076 0.851002
O O1 0.155299 0.829416 0.297010
O O2 0.234919 0.658955 0.247879
O O3 0.000000 0.693029 0.250000
O O4 0.874428 0.695099 0.056052
O O5 0.820950 0.640405 0.849537
O O6 0.820711 0.536267 0.662957
O O7 0.654422 0.501409 0.812262
O O8 0.095611 0.817576 0.607400
O O9 0.952365 0.665876 0.584253
O O10 0.709236 0.084971 0.451089
O O11 0.500000 0.000000 0.500000
#
# Coordination Sequence:
#
# PCOD9458327 Si02
#       5
#     8   8   8   8   8
#     4  11  23  42  65  91 131 176 212 262 338 392
#     4  11  25  42  64 101 131 168 221 276 322 401
#     4  11  23  40  65  99 128 170 221 271 333 390
#     4  12  22  40  71  96 129 167 224 273 330 388
#     4  11  24  40  65  94 131 169 214 275 327 390
#
# _framework density 22.318553999999999
#
# number of rings (size 3 to 8) (size 9 to 14) (size 15 to 20)
#    0.000    0.800    6.000    1.800    0.000    0.000 
#    0.000    5.000    0.000    0.000    0.000    0.000 
#    0.000    0.000    0.000    0.000    0.000    0.000 
#
# Total GULP energy -223740.117518 kJ/mol
# GULP energy per Si atom -5593.502938 kJ/mol
# Density = 2.226776 g / cm^3
# Si number density = 22.318554 Si / 1000 Ang^3
#
#
#
# Elastic Constant Matrix: (Units=GPa)
#
#
# Indices 1 2 3 4 5 6 
#
# 1 20.9531 6.1417 5.0251 0.0000 0.0000 0.0000
# 2 6.1417 132.2434 25.2141 0.0000 0.0000 0.0000
# 3 5.0251 25.2141 118.0645 0.0000 0.0000 0.0000
# 4 0.0000 0.0000 0.0000 51.3901 0.0000 0.0000
# 5 0.0000 0.0000 0.0000 0.0000 23.3574 0.0000
# 6 0.0000 0.0000 0.0000 0.0000 0.0000 32.9795
#
#
#
# Elastic Compliance Matrix: (Units=1/GPa)
#
#
# Indices 1 2 3 4 5 6 
#
# 1 0.048693 -0.001946 -0.001657 0.000000 0.000000 0.000000
# 2 -0.001946 0.007961 -0.001617 0.000000 0.000000 0.000000
# 3 -0.001657 -0.001617 0.008886 0.000000 0.000000 0.000000
# 4 0.000000 0.000000 0.000000 0.019459 0.000000 0.000000
# 5 0.000000 0.000000 0.000000 0.000000 0.042813 0.000000
# 6 0.000000 0.000000 0.000000 0.000000 0.000000 0.030322
#
#
# Mechanical properties :
#
#
# Convention : Reuss Voigt Hill
#
# Bulk Modulus (GPa) = 18.14879 38.22477 28.18678
# Shear Modulus (GPa) = 26.74657 37.20406 31.97531
#
# Velocity S-wave (km/s) = 3.46555 4.08727 3.78918
# Velocity P-wave (km/s) = 4.91556 6.28000 5.63920
#
# Compressibility (1/GPa) = 0.05510009
#
# Stress axis : x y z
#
# Youngs Moduli (GPa) = 20.53671 125.61986 112.53832
#
# Poissons Ratio (x) = 0.24439 0.18648
# Poissons Ratio (y) = 0.03995 0.18200
# Poissons Ratio (z) = 0.03403 0.20316
#
# Static dielectric constant tensor:
#      x y z
#    x 1.785780 0.000000 0.000000 
#    y 0.000000 1.853020 0.000000 
#    z 0.000000 0.000000 1.872100 
# 
# From -- ./inp_files/10832.got.cif
#   From: 2010.05.17/outbox.cif.g08.bks.cpg/sg60_6_cif.got.tgz:10832.got - 2010.06.03 14:59:27.
