data_PCOD9458795
_publ_section_title
;
Structure prediction by ZEFSAII (Michael W. Deem and Ramdas Pophale) SiO2 
 PCOD9458795
Probable space group: P B C N
;
_chemical_formula_sum "Si O2"
_cell_formula_units_Z 32
_cell_length_a 4.835473
_cell_length_b 24.589788
_cell_length_c 11.622185
_cell_angle_alpha 90.000000
_cell_angle_beta 90.000000
_cell_angle_gamma 90.000000
_cell_volume 1381.915638
_symmetry_space_group_name_H-M "P B C N"
_symmetry_group_IT_number 60
_symmetry_cell_setting 'orthorhombic'
loop_
_space_group_symop_operation_xyz
x,y,z
1/2-x,1/2-y,1/2+z
1/2+x,1/2-y,-z
-x,y,1/2-z
-x,-y,-z
1/2+x,1/2+y,1/2-z
1/2-x,1/2+y,z
x,-y,1/2+z
loop_
_atom_site_type_symbol
_atom_site_label
_atom_site_fract_x
_atom_site_fract_y
_atom_site_fract_z
Si Si1 0.899495 0.109014 0.121113
Si Si2 0.500000 0.883978 0.250000
Si Si3 0.102306 0.561582 0.993681
Si Si4 0.662658 0.734172 0.069226
Si Si5 0.000000 0.806097 0.250000
O O1 0.928367 0.173791 0.102701
O O2 0.000000 0.096098 0.250000
O O3 0.587998 0.094928 0.084361
O O4 0.088896 0.074162 0.035120
O O5 0.423944 0.918123 0.362906
O O6 0.240428 0.847307 0.211381
O O7 0.000000 0.500000 0.000000
O O8 0.832462 0.766735 0.164865
O O9 0.387728 0.766081 0.032997
#
# Coordination Sequence:
#
# PCOD9458795 Si02
#       5
#     8   4   8   8   4
#     4  12  28  48  75 114 150 192 248 304 374 450
#     4  12  26  48  75 108 149 190 258 300 364 452
#     4  12  28  51  78 107 144 199 247 319 375 428
#     4  12  26  44  72 107 156 197 241 293 364 446
#     4  12  26  44  71 110 145 198 234 290 366 434
#
# _framework density 23.156261000000001
#
# number of rings (size 3 to 8) (size 9 to 14) (size 15 to 20)
#    0.000    0.000    0.000   10.500   12.250    0.000 
#    0.000    0.000    0.000    0.000    0.000    0.000 
#    0.000    0.000    0.000    0.000    0.000    0.000 
#
# Total GULP energy -179252.216555 kJ/mol
# GULP energy per Si atom -5601.631767 kJ/mol
# Density = 2.310356 g / cm^3
# Si number density = 23.156261 Si / 1000 Ang^3
#
#
#
# Elastic Constant Matrix: (Units=GPa)
#
#
# Indices 1 2 3 4 5 6 
#
# 1 90.2457 5.6869 -5.8224 0.0000 0.0000 0.0000
# 2 5.6869 125.1152 41.5204 0.0000 0.0000 0.0000
# 3 -5.8224 41.5204 108.3542 0.0000 0.0000 0.0000
# 4 0.0000 0.0000 0.0000 27.9206 0.0000 0.0000
# 5 0.0000 0.0000 0.0000 0.0000 40.3278 0.0000
# 6 0.0000 0.0000 0.0000 0.0000 0.0000 -14.9289
#
#
#
# Elastic Compliance Matrix: (Units=1/GPa)
#
#
# Indices 1 2 3 4 5 6 
#
# 1 0.011191 -0.000811 0.000912 0.000000 0.000000 0.000000
# 2 -0.000811 0.009216 -0.003575 0.000000 0.000000 0.000000
# 3 0.000912 -0.003575 0.010648 0.000000 0.000000 0.000000
# 4 0.000000 0.000000 0.000000 0.035816 0.000000 0.000000
# 5 0.000000 0.000000 0.000000 0.000000 0.024797 0.000000
# 6 0.000000 0.000000 0.000000 0.000000 0.000000 -0.066984
#
#
# Mechanical properties :
#
#
# Convention : Reuss Voigt Hill
#
# Bulk Modulus (GPa) = 41.48292 45.16500 43.32396
# Shear Modulus (GPa) = 126.04925 29.48589 77.76757
#
# Velocity S-wave (km/s) = 7.38596 3.57227 5.80144
# Velocity P-wave (km/s) = 9.52312 6.04662 7.97657
#
# Compressibility (1/GPa) = 0.02410631
#
# Stress axis : x y z
#
# Youngs Moduli (GPa) = 89.35871 108.50778 93.91476
#
# Poissons Ratio (x) = 0.08804 -0.08567
# Poissons Ratio (y) = 0.07251 0.33575
# Poissons Ratio (z) = -0.08152 0.38792
#
# Static dielectric constant tensor:
#      x y z
#    x 1.808090 0.000000 0.000000 
#    y 0.000000 1.810640 0.000000 
#    z 0.000000 0.000000 1.860950 
# 
# From -- ./inp_files/8931.got.cif
#   From: 2010.05.17/outbox.cif.g08.bks.cpg/sg60_5_cif.got.tgz:8931.got - 2010.06.03 14:59:27.
