data_PCOD9458529
_publ_section_title
;
Structure prediction by ZEFSAII (Michael W. Deem and Ramdas Pophale) SiO2 
 PCOD9458529
Probable space group: P B C N
;
_chemical_formula_sum "Si O2"
_cell_formula_units_Z 24
_cell_length_a 5.202840
_cell_length_b 20.159050
_cell_length_c 8.445737
_cell_angle_alpha 90.000000
_cell_angle_beta 90.000000
_cell_angle_gamma 90.000000
_cell_volume 885.825312
_symmetry_space_group_name_H-M "P B C N"
_symmetry_group_IT_number 60
_symmetry_cell_setting 'orthorhombic'
loop_
_space_group_symop_operation_xyz
x,y,z
1/2-x,1/2-y,1/2+z
1/2+x,1/2-y,-z
-x,y,1/2-z
-x,-y,-z
1/2+x,1/2+y,1/2-z
1/2-x,1/2+y,z
x,-y,1/2+z
loop_
_atom_site_type_symbol
_atom_site_label
_atom_site_fract_x
_atom_site_fract_y
_atom_site_fract_z
Si Si1 0.560051 0.713160 0.437205
Si Si2 0.110782 0.602253 0.902223
Si Si3 0.815372 0.036064 0.120232
O O1 0.301166 0.738137 0.524129
O O2 0.500000 0.708822 0.250000
O O3 0.664992 0.645138 0.517409
O O4 0.204408 0.534137 0.820841
O O5 0.000000 0.641012 0.750000
O O6 0.904200 0.580727 0.038581
O O7 0.000000 0.067597 0.250000
O O8 0.000000 0.000000 0.000000
#
# Coordination Sequence:
#
# PCOD9458529 Si02
#       3
#     8   8   8
#     4  12  30  59  89 123 167 226 290 360 431 511
#     4  11  26  50  83 123 170 227 287 351 427 511
#     4  11  24  47  80 123 174 225 279 344 426 509
#
# _framework density 27.093378999999999
#
# number of rings (size 3 to 8) (size 9 to 14) (size 15 to 20)
#    0.000    0.667    3.333    2.000    4.667    4.000 
#    6.000    1.667    0.000    0.000    0.000    0.000 
#    0.000    0.000    0.000    0.000    0.000    0.000 
#
# Total GULP energy -134213.842195 kJ/mol
# GULP energy per Si atom -5592.243425 kJ/mol
# Density = 2.703171 g / cm^3
# Si number density = 27.093379 Si / 1000 Ang^3
#
#
#
# Elastic Constant Matrix: (Units=GPa)
#
#
# Indices 1 2 3 4 5 6 
#
# 1 184.8130 63.0021 93.9654 0.0000 0.0000 0.0000
# 2 63.0021 170.4103 60.6213 0.0000 0.0000 0.0000
# 3 93.9654 60.6213 188.4968 0.0000 0.0000 0.0000
# 4 0.0000 0.0000 0.0000 -18.1441 0.0000 0.0000
# 5 0.0000 0.0000 0.0000 0.0000 99.8464 0.0000
# 6 0.0000 0.0000 0.0000 0.0000 0.0000 90.0868
#
#
#
# Elastic Compliance Matrix: (Units=1/GPa)
#
#
# Indices 1 2 3 4 5 6 
#
# 1 0.007642 -0.001660 -0.003276 0.000000 0.000000 0.000000
# 2 -0.001660 0.006987 -0.001419 0.000000 0.000000 0.000000
# 3 -0.003276 -0.001419 0.007395 0.000000 0.000000 0.000000
# 4 0.000000 0.000000 0.000000 -0.055114 0.000000 0.000000
# 5 0.000000 0.000000 0.000000 0.000000 0.010015 0.000000
# 6 0.000000 0.000000 0.000000 0.000000 0.000000 0.011100
#
#
# Mechanical properties :
#
#
# Convention : Reuss Voigt Hill
#
# Bulk Modulus (GPa) = 107.37529 108.76639 108.07084
# Shear Modulus (GPa) = 1301.93865 56.09989 679.01927
#
# Velocity S-wave (km/s) = 21.94495 4.55534 15.84822
# Velocity P-wave (km/s) = 26.11178 8.24016 19.36137
#
# Compressibility (1/GPa) = 0.00931313
#
# Stress axis : x y z
#
# Youngs Moduli (GPa) = 130.85021 143.12504 135.23366
#
# Poissons Ratio (x) = 0.23760 0.44300
# Poissons Ratio (y) = 0.21723 0.19196
# Poissons Ratio (z) = 0.42864 0.20316
#
# Static dielectric constant tensor:
#      x y z
#    x 1.847320 0.000000 0.000000 
#    y 0.000000 2.864770 0.000000 
#    z 0.000000 0.000000 2.354600 
# 
# From -- ./inp_files/2889.got.cif
#   From: 2010.05.17/outbox.cif.g08.bks.cpg/sg60_2_cif.got.tgz:2889.got - 2010.06.03 14:59:27.
