data_PCOD9458372
_publ_section_title
;
Structure prediction by ZEFSAII (Michael W. Deem and Ramdas Pophale) SiO2 
 PCOD9458372
Probable space group: P B C N
;
_chemical_formula_sum "Si O2"
_cell_formula_units_Z 48
_cell_length_a 18.731357
_cell_length_b 13.593898
_cell_length_c 9.143921
_cell_angle_alpha 90.000000
_cell_angle_beta 90.000000
_cell_angle_gamma 90.000000
_cell_volume 2328.336323
_symmetry_space_group_name_H-M "P B C N"
_symmetry_group_IT_number 60
_symmetry_cell_setting 'orthorhombic'
loop_
_space_group_symop_operation_xyz
x,y,z
1/2-x,1/2-y,1/2+z
1/2+x,1/2-y,-z
-x,y,1/2-z
-x,-y,-z
1/2+x,1/2+y,1/2-z
1/2-x,1/2+y,z
x,-y,1/2+z
loop_
_atom_site_type_symbol
_atom_site_label
_atom_site_fract_x
_atom_site_fract_y
_atom_site_fract_z
Si Si1 0.688332 0.701822 0.861234
Si Si2 0.070494 0.901013 0.344874
Si Si3 0.315173 0.082312 0.272490
Si Si4 0.934910 0.795978 0.858114
Si Si5 0.156120 0.909881 0.853019
Si Si6 0.153676 0.610555 0.603286
O O1 0.633682 0.648207 0.750823
O O2 0.688911 0.816502 0.819069
O O3 0.768988 0.659017 0.857336
O O4 0.661677 0.674384 0.024101
O O5 0.050181 0.829761 0.477834
O O6 0.000000 0.919771 0.250000
O O7 0.103421 0.003512 0.401857
O O8 0.235154 0.051366 0.320692
O O9 0.352013 0.101572 0.428027
O O10 0.348885 0.995003 0.179447
O O11 0.872403 0.865333 0.797067
O O12 0.907082 0.685364 0.847781
O O13 0.000000 0.812049 0.750000
#
# Coordination Sequence:
#
# PCOD9458372 Si02
#       6
#     8   8   8   8   8   8
#     4  11  23  43  69 104 142 177 224 288 347 418
#     4  12  25  46  69 104 143 183 231 281 357 417
#     4  11  24  42  71 106 137 179 230 292 344 409
#     4  12  26  45  66 101 138 185 232 283 344 413
#     4  11  24  40  73 104 139 180 224 289 350 413
#     4  11  25  43  71 102 137 179 233 286 346 413
#
# _framework density 20.615579
#
# number of rings (size 3 to 8) (size 9 to 14) (size 15 to 20)
#    0.000    0.667    5.000    2.500    4.667    2.000 
#    0.000    1.667    0.000    0.000    0.000    0.000 
#    0.000    0.000    0.000    0.000    0.000    0.000 
#
# Total GULP energy -268509.820014 kJ/mol
# GULP energy per Si atom -5593.954584 kJ/mol
# Density = 2.056866 g / cm^3
# Si number density = 20.615579 Si / 1000 Ang^3
#
#
#
# Elastic Constant Matrix: (Units=GPa)
#
#
# Indices 1 2 3 4 5 6 
#
# 1 38.4806 1.4365 12.4725 0.0000 0.0000 0.0000
# 2 1.4365 115.1808 26.3558 0.0000 0.0000 0.0000
# 3 12.4725 26.3558 88.9632 0.0000 0.0000 0.0000
# 4 0.0000 0.0000 0.0000 33.4242 0.0000 0.0000
# 5 0.0000 0.0000 0.0000 0.0000 22.6491 0.0000
# 6 0.0000 0.0000 0.0000 0.0000 0.0000 21.9903
#
#
#
# Elastic Compliance Matrix: (Units=1/GPa)
#
#
# Indices 1 2 3 4 5 6 
#
# 1 0.027259 0.000573 -0.003992 0.000000 0.000000 0.000000
# 2 0.000573 0.009325 -0.002843 0.000000 0.000000 0.000000
# 3 -0.003992 -0.002843 0.012643 0.000000 0.000000 0.000000
# 4 0.000000 0.000000 0.000000 0.029918 0.000000 0.000000
# 5 0.000000 0.000000 0.000000 0.000000 0.044152 0.000000
# 6 0.000000 0.000000 0.000000 0.000000 0.000000 0.045475
#
#
# Mechanical properties :
#
#
# Convention : Reuss Voigt Hill
#
# Bulk Modulus (GPa) = 27.24441 35.90602 31.57522
# Shear Modulus (GPa) = 25.83581 29.10337 27.46959
#
# Velocity S-wave (km/s) = 3.54392 3.76136 3.65426
# Velocity P-wave (km/s) = 5.47631 6.02648 5.75797
#
# Compressibility (1/GPa) = 0.03670478
#
# Stress axis : x y z
#
# Youngs Moduli (GPa) = 36.68450 107.23391 79.09824
#
# Poissons Ratio (x) = -0.06149 0.31573
# Poissons Ratio (y) = -0.02103 0.22488
# Poissons Ratio (z) = 0.14643 0.30488
#
# Static dielectric constant tensor:
#      x y z
#    x 1.721130 0.000000 0.000000 
#    y 0.000000 1.724210 0.000000 
#    z 0.000000 0.000000 1.716750 
# 
# From -- ./inp_files/6712.got.cif
#   From: 2010.05.17/outbox.cif.g08.bks.cpg/sg60_4_cif.got.tgz:6712.got - 2010.06.03 14:59:27.
