data_PCOD9458091
_publ_section_title
;
Structure prediction by ZEFSAII (Michael W. Deem and Ramdas Pophale) SiO2 
 PCOD9458091
Probable space group: P B C N
;
_chemical_formula_sum "Si O2"
_cell_formula_units_Z 60
_cell_length_a 12.183596
_cell_length_b 21.950403
_cell_length_c 12.476032
_cell_angle_alpha 90.000000
_cell_angle_beta 90.000000
_cell_angle_gamma 90.000000
_cell_volume 3336.525649
_symmetry_space_group_name_H-M "P B C N"
_symmetry_group_IT_number 60
_symmetry_cell_setting 'orthorhombic'
loop_
_space_group_symop_operation_xyz
x,y,z
1/2-x,1/2-y,1/2+z
1/2+x,1/2-y,-z
-x,y,1/2-z
-x,-y,-z
1/2+x,1/2+y,1/2-z
1/2-x,1/2+y,z
x,-y,1/2+z
loop_
_atom_site_type_symbol
_atom_site_label
_atom_site_fract_x
_atom_site_fract_y
_atom_site_fract_z
Si Si1 0.013361 0.309069 0.126238
Si Si2 0.203909 0.347186 0.783672
Si Si3 0.740587 0.202362 0.979258
Si Si4 0.016453 0.802747 0.034455
Si Si5 0.191839 0.156661 0.069334
Si Si6 0.500000 0.234132 0.250000
Si Si7 0.930646 0.462548 0.648644
Si Si8 0.890830 0.418222 0.020778
O O1 0.000000 0.292786 0.250000
O O2 0.939529 0.367031 0.099043
O O3 0.138990 0.322367 0.090876
O O4 0.978429 0.253056 0.050335
O O5 0.227026 0.315464 0.896804
O O6 0.302172 0.346074 0.698450
O O7 0.104069 0.309268 0.729626
O O8 0.157945 0.414078 0.809824
O O9 0.859043 0.177207 0.945841
O O10 0.732765 0.275422 0.964086
O O11 0.975888 0.774813 0.146522
O O12 0.928099 0.848363 0.983531
O O13 0.278307 0.107334 0.027269
O O14 0.880200 0.518059 0.582336
O O15 0.000000 0.486102 0.750000
O O16 0.017903 0.428155 0.571802
#
# Coordination Sequence:
#
# PCOD9458091 Si02
#       8
#     8   8   8   8   8   4   8   8
#     4  11  22  36  55  89 132 156 199 262 310 363
#     4  12  20  37  61  84 127 166 203 248 310 385
#     4  11  23  36  57  93 124 171 197 244 318 384
#     4  11  24  35  57  91 122 176 198 240 312 388
#     4  11  22  36  58  87 127 163 203 258 297 378
#     4  12  18  36  58  82 124 158 206 242 308 382
#     4  11  21  36  62  90 115 158 208 262 322 364
#     4  11  21  38  58  89 122 151 209 262 315 361
#
# _framework density 17.982778
#
# number of rings (size 3 to 8) (size 9 to 14) (size 15 to 20)
#    0.000    0.800    8.667    0.400    3.733    1.067 
#    0.000    0.000    0.000    0.800    0.000    1.867 
#    0.000    0.000    0.000    0.000    0.000    0.000 
#
# Total GULP energy -335012.404267 kJ/mol
# GULP energy per Si atom -5583.540071 kJ/mol
# Density = 1.794185 g / cm^3
# Si number density = 17.982778 Si / 1000 Ang^3
#
#
#
# Elastic Constant Matrix: (Units=GPa)
#
#
# Indices 1 2 3 4 5 6 
#
# 1 72.9721 8.1704 10.1404 0.0000 0.0000 0.0000
# 2 8.1704 50.3484 24.3242 0.0000 0.0000 0.0000
# 3 10.1404 24.3242 118.3723 0.0000 0.0000 0.0000
# 4 0.0000 0.0000 0.0000 25.8423 0.0000 0.0000
# 5 0.0000 0.0000 0.0000 0.0000 26.4308 0.0000
# 6 0.0000 0.0000 0.0000 0.0000 0.0000 20.5233
#
#
#
# Elastic Compliance Matrix: (Units=1/GPa)
#
#
# Indices 1 2 3 4 5 6 
#
# 1 0.014028 -0.001883 -0.000815 0.000000 0.000000 0.000000
# 2 -0.001883 0.022303 -0.004422 0.000000 0.000000 0.000000
# 3 -0.000815 -0.004422 0.009426 0.000000 0.000000 0.000000
# 4 0.000000 0.000000 0.000000 0.038696 0.000000 0.000000
# 5 0.000000 0.000000 0.000000 0.000000 0.037835 0.000000
# 6 0.000000 0.000000 0.000000 0.000000 0.000000 0.048725
#
#
# Mechanical properties :
#
#
# Convention : Reuss Voigt Hill
#
# Bulk Modulus (GPa) = 31.72702 36.32921 34.02811
# Shear Modulus (GPa) = 25.54167 27.82982 26.68575
#
# Velocity S-wave (km/s) = 3.77283 3.93820 3.85640
# Velocity P-wave (km/s) = 6.05477 6.39729 6.22839
#
# Compressibility (1/GPa) = 0.03151888
#
# Stress axis : x y z
#
# Youngs Moduli (GPa) = 71.28647 44.83625 106.08552
#
# Poissons Ratio (x) = 0.08442 0.08644
# Poissons Ratio (y) = 0.13421 0.46909
# Poissons Ratio (z) = 0.05809 0.19826
#
# Static dielectric constant tensor:
#      x y z
#    x 1.659990 0.000000 0.000000 
#    y 0.000000 1.591380 0.000000 
#    z 0.000000 0.000000 1.635650 
# 
# From -- ./inp_files/11241.got.cif
#   From: 2010.05.17/outbox.cif.g08.bks.cpg/sg60_6_cif.got.tgz:11241.got - 2010.06.03 14:59:27.
