data_PCOD9458058
_publ_section_title
;
Structure prediction by ZEFSAII (Michael W. Deem and Ramdas Pophale) SiO2 
 PCOD9458058
Probable space group: P B C N
;
_chemical_formula_sum "Si O2"
_cell_formula_units_Z 40
_cell_length_a 16.793104
_cell_length_b 10.522835
_cell_length_c 9.166241
_cell_angle_alpha 90.000000
_cell_angle_beta 90.000000
_cell_angle_gamma 90.000000
_cell_volume 1619.776187
_symmetry_space_group_name_H-M "P B C N"
_symmetry_group_IT_number 60
_symmetry_cell_setting 'orthorhombic'
loop_
_space_group_symop_operation_xyz
x,y,z
1/2-x,1/2-y,1/2+z
1/2+x,1/2-y,-z
-x,y,1/2-z
-x,-y,-z
1/2+x,1/2+y,1/2-z
1/2-x,1/2+y,z
x,-y,1/2+z
loop_
_atom_site_type_symbol
_atom_site_label
_atom_site_fract_x
_atom_site_fract_y
_atom_site_fract_z
Si Si1 0.031804 0.882844 0.589914
Si Si2 0.358940 0.924344 0.095613
Si Si3 0.718129 0.589398 0.394531
Si Si4 0.411901 0.170823 0.915942
Si Si5 0.744948 0.238843 0.119554
O O1 0.124899 0.903960 0.612174
O O2 0.000000 0.894245 0.750000
O O3 0.992184 0.747831 0.541392
O O4 0.000000 0.000000 0.500000
O O5 0.402451 0.874353 0.244176
O O6 0.271775 0.972096 0.146595
O O7 0.327827 0.830967 0.965542
O O8 0.400904 0.047238 0.020064
O O9 0.752844 0.696860 0.285664
O O10 0.733418 0.617609 0.564927
O O11 0.338239 0.272416 0.931487
#
# Coordination Sequence:
#
# PCOD9458058 Si02
#       5
#     8   8   8   8   8
#     4  12  26  50  70 108 149 197 244 313 379 457
#     4  11  22  42  72 110 140 198 248 317 371 451
#     4  11  24  40  73  98 140 185 246 299 371 440
#     4  11  24  44  73 109 151 190 254 313 385 453
#     4  11  20  41  67 102 138 188 243 301 359 444
#
# _framework density 24.694772
#
# number of rings (size 3 to 8) (size 9 to 14) (size 15 to 20)
#    0.000    0.800    6.000    1.200    0.000    0.000 
#    7.200    4.000    0.000    0.000    0.000    0.000 
#    0.000    0.000    0.000    0.000    0.000    0.000 
#
# Total GULP energy -222826.689122 kJ/mol
# GULP energy per Si atom -5570.667228 kJ/mol
# Density = 2.463857 g / cm^3
# Si number density = 24.694772 Si / 1000 Ang^3
#
#
#
# Elastic Constant Matrix: (Units=GPa)
#
#
# Indices 1 2 3 4 5 6 
#
# 1 131.3552 26.7640 26.5241 0.0000 0.0000 0.0000
# 2 26.7640 103.6912 38.0885 0.0000 0.0000 0.0000
# 3 26.5241 38.0885 102.3108 0.0000 0.0000 0.0000
# 4 0.0000 0.0000 0.0000 47.8665 0.0000 0.0000
# 5 0.0000 0.0000 0.0000 0.0000 37.3194 0.0000
# 6 0.0000 0.0000 0.0000 0.0000 0.0000 31.2430
#
#
#
# Elastic Compliance Matrix: (Units=1/GPa)
#
#
# Indices 1 2 3 4 5 6 
#
# 1 0.008245 -0.001556 -0.001558 0.000000 0.000000 0.000000
# 2 -0.001556 0.011465 -0.003865 0.000000 0.000000 0.000000
# 3 -0.001558 -0.003865 0.011617 0.000000 0.000000 0.000000
# 4 0.000000 0.000000 0.000000 0.020891 0.000000 0.000000
# 5 0.000000 0.000000 0.000000 0.000000 0.026796 0.000000
# 6 0.000000 0.000000 0.000000 0.000000 0.000000 0.032007
#
#
# Mechanical properties :
#
#
# Convention : Reuss Voigt Hill
#
# Bulk Modulus (GPa) = 57.57387 57.79005 57.68196
# Shear Modulus (GPa) = 38.23545 39.68448 38.95996
#
# Velocity S-wave (km/s) = 3.93914 4.01309 3.97629
# Velocity P-wave (km/s) = 6.63731 6.70266 6.67007
#
# Compressibility (1/GPa) = 0.01736899
#
# Stress axis : x y z
#
# Youngs Moduli (GPa) = 121.29202 87.21993 86.08072
#
# Poissons Ratio (x) = 0.13568 0.13414
# Poissons Ratio (y) = 0.18869 0.33270
# Poissons Ratio (z) = 0.18901 0.33711
#
# Static dielectric constant tensor:
#      x y z
#    x 2.157230 0.000000 0.000000 
#    y 0.000000 1.997970 0.000000 
#    z 0.000000 0.000000 1.941970 
# 
# From -- ./inp_files/6534.got.cif
#   From: 2010.05.17/outbox.cif.g08.bks.cpg/sg60_4_cif.got.tgz:6534.got - 2010.06.03 14:59:27.
