data_PCOD9458638
_publ_section_title
;
Structure prediction by ZEFSAII (Michael W. Deem and Ramdas Pophale) SiO2 
 PCOD9458638
Probable space group: P B C N
;
_chemical_formula_sum "Si O2"
_cell_formula_units_Z 32
_cell_length_a 7.152029
_cell_length_b 11.208198
_cell_length_c 15.416325
_cell_angle_alpha 90.000000
_cell_angle_beta 90.000000
_cell_angle_gamma 90.000000
_cell_volume 1235.793534
_symmetry_space_group_name_H-M "P B C N"
_symmetry_group_IT_number 60
_symmetry_cell_setting 'orthorhombic'
loop_
_space_group_symop_operation_xyz
x,y,z
1/2-x,1/2-y,1/2+z
1/2+x,1/2-y,-z
-x,y,1/2-z
-x,-y,-z
1/2+x,1/2+y,1/2-z
1/2-x,1/2+y,z
x,-y,1/2+z
loop_
_atom_site_type_symbol
_atom_site_label
_atom_site_fract_x
_atom_site_fract_y
_atom_site_fract_z
Si Si1 0.275106 0.000000 0.498005
Si Si2 0.000000 0.688684 0.750000
Si Si3 0.190189 1.000000 0.695768
Si Si4 0.250000 0.750000 0.899709
Si Si5 0.000000 0.311316 0.750000
O O1 0.235503 0.126370 0.451642
O O2 0.500000 0.000000 0.500000
O O3 0.180173 1.000000 0.592201
O O4 0.235503 0.873630 0.451641
O O5 0.679342 0.889850 0.775744
O O6 0.932588 0.749783 0.662128
O O7 0.000000 1.000000 0.750000
O O8 0.320658 0.110150 0.724256
O O9 0.432588 0.750217 0.837872
#
# Coordination Sequence:
#
# PCOD9458638 Si02
#       5
#     8   4   8   8   4
#     4  12  26  56  91 138 185 243 333 391 470 582
#     4  11  26  51  82 130 178 242 314 378 490 560
#     4  11  26  54  89 123 184 251 307 389 474 571
#     4  12  28  52  94 124 190 250 300 406 464 580
#     4  11  26  51  82 130 178 242 314 378 490 560
#
# _framework density 25.894293999999999
#
# number of rings (size 3 to 8) (size 9 to 14) (size 15 to 20)
#    0.000    0.500    5.000    1.500    3.500    7.000 
#    0.000    3.750   11.000    0.000    0.000    0.000 
#    0.000    0.000    0.000    0.000    0.000    0.000 
#
# Total GULP energy -179596.180495 kJ/mol
# GULP energy per Si atom -5612.380640 kJ/mol
# Density = 2.583536 g / cm^3
# Si number density = 25.894294 Si / 1000 Ang^3
#
#
#
# Elastic Constant Matrix: (Units=GPa)
#
#
# Indices 1 2 3 4 5 6 
#
# 1 222.8235 88.2283 114.4539 0.0000 0.0000 0.0000
# 2 88.2283 245.3055 158.7994 0.0000 0.0000 0.0000
# 3 114.4539 158.7994 252.3512 0.0000 0.0000 0.0000
# 4 0.0000 0.0000 0.0000 73.3366 0.0000 0.0000
# 5 0.0000 0.0000 0.0000 0.0000 64.6935 0.0000
# 6 0.0000 0.0000 0.0000 0.0000 0.0000 16.5544
#
#
#
# Elastic Compliance Matrix: (Units=1/GPa)
#
#
# Indices 1 2 3 4 5 6 
#
# 1 0.005913 -0.000659 -0.002267 0.000000 0.000000 0.000000
# 2 -0.000659 0.006952 -0.004076 0.000000 0.000000 0.000000
# 3 -0.002267 -0.004076 0.007556 0.000000 0.000000 0.000000
# 4 0.000000 0.000000 0.000000 0.013636 0.000000 0.000000
# 5 0.000000 0.000000 0.000000 0.000000 0.015457 0.000000
# 6 0.000000 0.000000 0.000000 0.000000 0.000000 0.060407
#
#
# Mechanical properties :
#
#
# Convention : Reuss Voigt Hill
#
# Bulk Modulus (GPa) = 155.83790 160.38261 158.11025
# Shear Modulus (GPa) = 39.66195 54.85013 47.25604
#
# Velocity S-wave (km/s) = 3.91792 4.60742 4.27659
# Velocity P-wave (km/s) = 8.98776 9.50665 9.25084
#
# Compressibility (1/GPa) = 0.00641692
#
# Stress axis : x y z
#
# Youngs Moduli (GPa) = 169.10662 143.83983 132.34655
#
# Poissons Ratio (x) = 0.09481 0.30006
# Poissons Ratio (y) = 0.11147 0.53943
# Poissons Ratio (z) = 0.38341 0.58628
#
# Static dielectric constant tensor:
#      x y z
#    x 2.012290 0.000000 0.000000 
#    y 0.000000 2.138910 0.000000 
#    z 0.000000 0.000000 2.018500 
# 
# From -- ./inp_files/14385.got.cif
#   From: 2010.05.17/outbox.cif.g08.bks.cpg/sg60_8_cif.got.tgz:14385.got - 2010.06.03 14:59:27.
