data_PCOD9458701
_publ_section_title
;
Structure prediction by ZEFSAII (Michael W. Deem and Ramdas Pophale) SiO2 
 PCOD9458701
Probable space group: P B C N
;
_chemical_formula_sum "Si O2"
_cell_formula_units_Z 40
_cell_length_a 16.285983
_cell_length_b 8.154170
_cell_length_c 13.512856
_cell_angle_alpha 90.000000
_cell_angle_beta 90.000000
_cell_angle_gamma 90.000000
_cell_volume 1794.489359
_symmetry_space_group_name_H-M "P B C N"
_symmetry_group_IT_number 60
_symmetry_cell_setting 'orthorhombic'
loop_
_space_group_symop_operation_xyz
x,y,z
1/2-x,1/2-y,1/2+z
1/2+x,1/2-y,-z
-x,y,1/2-z
-x,-y,-z
1/2+x,1/2+y,1/2-z
1/2-x,1/2+y,z
x,-y,1/2+z
loop_
_atom_site_type_symbol
_atom_site_label
_atom_site_fract_x
_atom_site_fract_y
_atom_site_fract_z
Si Si1 0.077682 0.456453 0.933997
Si Si2 0.412341 0.724538 0.298970
Si Si3 0.139693 0.116041 0.892863
Si Si4 0.739036 0.746461 0.795279
Si Si5 0.740672 0.005394 0.439114
O O1 0.083630 0.599445 0.852586
O O2 0.075152 0.265471 0.901359
O O3 0.161867 0.470766 0.995521
O O4 0.000000 0.500000 0.000000
O O5 0.500000 0.694704 0.250000
O O6 0.393331 0.565641 0.367718
O O7 0.336150 0.733553 0.223161
O O8 0.197240 0.175971 0.801888
O O9 0.194391 0.098876 0.991791
O O10 0.715325 0.655258 0.896895
O O11 0.712392 0.926296 0.831210
#
# Coordination Sequence:
#
# PCOD9458701 Si02
#       5
#     8   8   8   8   8
#     4  12  27  47  71 108 151 187 242 308 366 431
#     4  12  27  46  70 106 149 189 241 304 369 432
#     4  12  26  49  75 107 144 193 250 298 356 454
#     4  12  23  44  76 105 141 189 244 297 360 435
#     4  12  23  44  77 105 141 192 243 296 363 434
#
# _framework density 22.290462000000002
#
# number of rings (size 3 to 8) (size 9 to 14) (size 15 to 20)
#    0.000    0.000    6.000    4.800    0.000    3.200 
#    0.000    0.000    0.000    0.000    0.000    0.000 
#    0.000    0.000    0.000    0.000    0.000    0.000 
#
# Total GULP energy -223286.829641 kJ/mol
# GULP energy per Si atom -5582.170741 kJ/mol
# Density = 2.223973 g / cm^3
# Si number density = 22.290462 Si / 1000 Ang^3
#
#
#
# Elastic Constant Matrix: (Units=GPa)
#
#
# Indices 1 2 3 4 5 6 
#
# 1 41.2627 35.2039 18.0552 0.0000 0.0000 0.0000
# 2 35.2039 127.7369 45.0061 0.0000 0.0000 0.0000
# 3 18.0552 45.0061 93.9426 0.0000 0.0000 0.0000
# 4 0.0000 0.0000 0.0000 45.5104 0.0000 0.0000
# 5 0.0000 0.0000 0.0000 0.0000 37.9707 0.0000
# 6 0.0000 0.0000 0.0000 0.0000 0.0000 29.7564
#
#
#
# Elastic Compliance Matrix: (Units=1/GPa)
#
#
# Indices 1 2 3 4 5 6 
#
# 1 0.032101 -0.008028 -0.002323 0.000000 0.000000 0.000000
# 2 -0.008028 0.011426 -0.003931 0.000000 0.000000 0.000000
# 3 -0.002323 -0.003931 0.012975 0.000000 0.000000 0.000000
# 4 0.000000 0.000000 0.000000 0.021973 0.000000 0.000000
# 5 0.000000 0.000000 0.000000 0.000000 0.026336 0.000000
# 6 0.000000 0.000000 0.000000 0.000000 0.000000 0.033606
#
#
# Mechanical properties :
#
#
# Convention : Reuss Voigt Hill
#
# Bulk Modulus (GPa) = 35.79570 51.05250 43.42410
# Shear Modulus (GPa) = 28.36153 33.62598 30.99375
#
# Velocity S-wave (km/s) = 3.57089 3.88820 3.73292
# Velocity P-wave (km/s) = 5.75285 6.56586 6.17275
#
# Compressibility (1/GPa) = 0.02793632
#
# Stress axis : x y z
#
# Youngs Moduli (GPa) = 31.15152 87.51789 77.07335
#
# Poissons Ratio (x) = 0.70262 0.17907
# Poissons Ratio (y) = 0.25010 0.30298
# Poissons Ratio (z) = 0.07238 0.34404
#
# Static dielectric constant tensor:
#      x y z
#    x 1.820590 0.000000 0.000000 
#    y 0.000000 2.086800 0.000000 
#    z 0.000000 0.000000 1.808930 
# 
# From -- ./inp_files/12298.got.cif
#   From: 2010.05.17/outbox.cif.g08.bks.cpg/sg60_7_cif.got.tgz:12298.got - 2010.06.03 14:59:27.
