data_PCOD9458786
_publ_section_title
;
Structure prediction by ZEFSAII (Michael W. Deem and Ramdas Pophale) SiO2 
 PCOD9458786
Probable space group: P B C N
;
_chemical_formula_sum "Si O2"
_cell_formula_units_Z 40
_cell_length_a 13.754535
_cell_length_b 13.382370
_cell_length_c 8.080915
_cell_angle_alpha 90.000000
_cell_angle_beta 90.000000
_cell_angle_gamma 90.000000
_cell_volume 1487.440097
_symmetry_space_group_name_H-M "P B C N"
_symmetry_group_IT_number 60
_symmetry_cell_setting 'orthorhombic'
loop_
_space_group_symop_operation_xyz
x,y,z
1/2-x,1/2-y,1/2+z
1/2+x,1/2-y,-z
-x,y,1/2-z
-x,-y,-z
1/2+x,1/2+y,1/2-z
1/2-x,1/2+y,z
x,-y,1/2+z
loop_
_atom_site_type_symbol
_atom_site_label
_atom_site_fract_x
_atom_site_fract_y
_atom_site_fract_z
Si Si1 0.298497 0.029254 0.649090
Si Si2 0.970052 0.799813 0.440031
Si Si3 0.349994 0.627692 0.103656
Si Si4 0.238867 0.797302 0.937165
Si Si5 0.927928 0.410209 0.040246
O O1 0.300782 0.106564 0.495569
O O2 0.189674 0.982981 0.649254
O O3 0.353203 0.924821 0.609824
O O4 0.361087 0.075793 0.797767
O O5 0.853878 0.805933 0.442516
O O6 0.984480 0.692167 0.528101
O O7 0.000000 0.800127 0.250000
O O8 0.037552 0.873018 0.548834
O O9 0.315900 0.690787 0.263197
O O10 0.298761 0.695113 0.958997
O O11 0.000000 0.500000 0.000000
#
# Coordination Sequence:
#
# PCOD9458786 Si02
#       5
#     8   8   8   8   8
#     4  12  26  48  77 110 155 206 261 325 400 469
#     4  12  27  46  78 115 156 205 264 324 398 478
#     4  12  27  48  74 114 155 204 265 326 401 470
#     4  12  26  47  76 105 158 210 257 328 395 477
#     4  12  25  47  77 114 150 197 264 330 389 461
#
# _framework density 26.891839000000001
#
# number of rings (size 3 to 8) (size 9 to 14) (size 15 to 20)
#    0.000    0.000    4.000    6.000    2.800    2.400 
#    0.000    0.000    0.000    0.000    0.000    0.000 
#    0.000    0.000    0.000    0.000    0.000    0.000 
#
# Total GULP energy -223554.864679 kJ/mol
# GULP energy per Si atom -5588.871617 kJ/mol
# Density = 2.683063 g / cm^3
# Si number density = 26.891839 Si / 1000 Ang^3
#
#
#
# Elastic Constant Matrix: (Units=GPa)
#
#
# Indices 1 2 3 4 5 6 
#
# 1 100.8870 13.3023 10.7009 0.0000 0.0000 0.0000
# 2 13.3023 88.1699 3.0826 0.0000 0.0000 0.0000
# 3 10.7009 3.0826 140.3965 0.0000 0.0000 0.0000
# 4 0.0000 0.0000 0.0000 27.8354 0.0000 0.0000
# 5 0.0000 0.0000 0.0000 0.0000 47.5806 0.0000
# 6 0.0000 0.0000 0.0000 0.0000 0.0000 48.7449
#
#
#
# Elastic Compliance Matrix: (Units=1/GPa)
#
#
# Indices 1 2 3 4 5 6 
#
# 1 0.010190 -0.001511 -0.000744 0.000000 0.000000 0.000000
# 2 -0.001511 0.011575 -0.000139 0.000000 0.000000 0.000000
# 3 -0.000744 -0.000139 0.007182 0.000000 0.000000 0.000000
# 4 0.000000 0.000000 0.000000 0.035925 0.000000 0.000000
# 5 0.000000 0.000000 0.000000 0.000000 0.021017 0.000000
# 6 0.000000 0.000000 0.000000 0.000000 0.000000 0.020515
#
#
# Mechanical properties :
#
#
# Convention : Reuss Voigt Hill
#
# Bulk Modulus (GPa) = 41.39154 42.62501 42.00828
# Shear Modulus (GPa) = 41.93028 44.99002 43.46015
#
# Velocity S-wave (km/s) = 3.95298 4.09467 4.02445
# Velocity P-wave (km/s) = 6.02163 6.18385 6.10328
#
# Compressibility (1/GPa) = 0.02415953
#
# Stress axis : x y z
#
# Youngs Moduli (GPa) = 98.13323 86.39589 139.22914
#
# Poissons Ratio (x) = 0.13058 0.10352
# Poissons Ratio (y) = 0.14832 0.01934
# Poissons Ratio (z) = 0.07296 0.01200
#
# Static dielectric constant tensor:
#      x y z
#    x 2.365570 0.000000 0.000000 
#    y 0.000000 2.171410 0.000000 
#    z 0.000000 0.000000 2.154600 
# 
# From -- ./inp_files/5693.got.cif
#   From: 2010.05.17/outbox.cif.g08.bks.cpg/sg60_3_cif.got.tgz:5693.got - 2010.06.03 14:59:27.
