data_PCOD9458729
_publ_section_title
;
Structure prediction by ZEFSAII (Michael W. Deem and Ramdas Pophale) SiO2 
 PCOD9458729
Probable space group: P B C N
;
_chemical_formula_sum "Si O2"
_cell_formula_units_Z 48
_cell_length_a 8.240400
_cell_length_b 14.632131
_cell_length_c 18.298956
_cell_angle_alpha 90.000000
_cell_angle_beta 90.000000
_cell_angle_gamma 90.000000
_cell_volume 2206.389525
_symmetry_space_group_name_H-M "P B C N"
_symmetry_group_IT_number 60
_symmetry_cell_setting 'orthorhombic'
loop_
_space_group_symop_operation_xyz
x,y,z
1/2-x,1/2-y,1/2+z
1/2+x,1/2-y,-z
-x,y,1/2-z
-x,-y,-z
1/2+x,1/2+y,1/2-z
1/2-x,1/2+y,z
x,-y,1/2+z
loop_
_atom_site_type_symbol
_atom_site_label
_atom_site_fract_x
_atom_site_fract_y
_atom_site_fract_z
Si Si1 0.835709 0.016844 0.455735
Si Si2 0.278549 0.278680 0.566223
Si Si3 0.853209 0.394301 0.351334
Si Si4 0.165958 0.114497 0.794063
Si Si5 0.162407 0.511917 0.397399
Si Si6 0.106521 0.725284 0.405562
O O1 0.832306 0.117316 0.421587
O O2 0.696601 0.012043 0.518182
O O3 0.795631 0.940102 0.396505
O O4 0.000000 0.000000 0.500000
O O5 0.376360 0.205561 0.614191
O O6 0.310996 0.255078 0.481582
O O7 0.088215 0.269124 0.584550
O O8 0.805484 0.386429 0.267257
O O9 0.002824 0.460199 0.368971
O O10 0.194283 0.030571 0.848819
O O11 0.162486 0.206075 0.842408
O O12 0.000000 0.108125 0.750000
O O13 0.148494 0.620186 0.389931
#
# Coordination Sequence:
#
# PCOD9458729 Si02
#       6
#     8   8   8   8   8   8
#     4  12  24  43  73 112 144 193 248 308 366 450
#     4  12  24  44  78 108 147 195 249 308 369 444
#     4  12  25  46  73 108 150 191 246 312 376 446
#     4  12  27  49  71 107 151 194 245 320 384 446
#     4  12  26  47  75 106 147 196 249 306 380 450
#     4  12  26  47  77 109 149 198 251 309 378 451
#
# _framework density 21.754999000000002
#
# number of rings (size 3 to 8) (size 9 to 14) (size 15 to 20)
#    0.000    0.000    6.667    4.000    0.000    2.667 
#    0.000    1.667    0.000    0.000    0.000    0.000 
#    0.000    0.000    0.000    0.000    0.000    0.000 
#
# Total GULP energy -269020.777171 kJ/mol
# GULP energy per Si atom -5604.599524 kJ/mol
# Density = 2.170548 g / cm^3
# Si number density = 21.754999 Si / 1000 Ang^3
#
#
#
# Elastic Constant Matrix: (Units=GPa)
#
#
# Indices 1 2 3 4 5 6 
#
# 1 48.2733 2.9424 -6.6209 0.0000 0.0000 0.0000
# 2 2.9424 134.4068 1.4009 0.0000 0.0000 0.0000
# 3 -6.6209 1.4009 77.9234 0.0000 0.0000 0.0000
# 4 0.0000 0.0000 0.0000 37.3244 0.0000 0.0000
# 5 0.0000 0.0000 0.0000 0.0000 42.7704 0.0000
# 6 0.0000 0.0000 0.0000 0.0000 0.0000 34.6012
#
#
#
# Elastic Compliance Matrix: (Units=1/GPa)
#
#
# Indices 1 2 3 4 5 6 
#
# 1 0.020990 -0.000478 0.001792 0.000000 0.000000 0.000000
# 2 -0.000478 0.007452 -0.000175 0.000000 0.000000 0.000000
# 3 0.001792 -0.000175 0.012989 0.000000 0.000000 0.000000
# 4 0.000000 0.000000 0.000000 0.026792 0.000000 0.000000
# 5 0.000000 0.000000 0.000000 0.000000 0.023381 0.000000
# 6 0.000000 0.000000 0.000000 0.000000 0.000000 0.028901
#
#
# Mechanical properties :
#
#
# Convention : Reuss Voigt Hill
#
# Bulk Modulus (GPa) = 22.87816 28.44979 25.66398
# Shear Modulus (GPa) = 37.65169 40.46460 39.05815
#
# Velocity S-wave (km/s) = 4.16470 4.31747 4.24177
# Velocity P-wave (km/s) = 5.80219 6.16115 5.98436
#
# Compressibility (1/GPa) = 0.04370981
#
# Stress axis : x y z
#
# Youngs Moduli (GPa) = 47.64100 134.18516 76.99108
#
# Poissons Ratio (x) = 0.06417 -0.13797
# Poissons Ratio (y) = 0.02278 0.01344
# Poissons Ratio (z) = -0.08538 0.02343
#
# Static dielectric constant tensor:
#      x y z
#    x 1.890470 0.000000 0.000000 
#    y 0.000000 1.741450 0.000000 
#    z 0.000000 0.000000 1.818610 
# 
# From -- ./inp_files/19325.got.cif
#   From: 2010.05.17/outbox.cif.g08.bks.cpg/sg60_10_cif.got.tgz:19325.got - 2010.06.03 14:59:27.
