data_PCOD9458804
_publ_section_title
;
Structure prediction by ZEFSAII (Michael W. Deem and Ramdas Pophale) SiO2 
 PCOD9458804
Probable space group: P B C N
;
_chemical_formula_sum "Si O2"
_cell_formula_units_Z 44
_cell_length_a 30.185854
_cell_length_b 4.852130
_cell_length_c 12.469711
_cell_angle_alpha 90.000000
_cell_angle_beta 90.000000
_cell_angle_gamma 90.000000
_cell_volume 1826.384798
_symmetry_space_group_name_H-M "P B C N"
_symmetry_group_IT_number 60
_symmetry_cell_setting 'orthorhombic'
loop_
_space_group_symop_operation_xyz
x,y,z
1/2-x,1/2-y,1/2+z
1/2+x,1/2-y,-z
-x,y,1/2-z
-x,-y,-z
1/2+x,1/2+y,1/2-z
1/2-x,1/2+y,z
x,-y,1/2+z
loop_
_atom_site_type_symbol
_atom_site_label
_atom_site_fract_x
_atom_site_fract_y
_atom_site_fract_z
Si Si1 0.500000 0.682996 0.250000
Si Si2 0.279689 0.337272 0.476063
Si Si3 0.153728 0.888928 0.663086
Si Si4 0.560598 0.513598 0.432827
Si Si5 0.058202 0.487194 0.920263
Si Si6 0.349984 0.110416 0.307532
O O1 0.532598 0.503186 0.323819
O O2 0.471618 0.875455 0.328995
O O3 0.264080 0.651186 0.467793
O O4 0.305252 0.313007 0.588392
O O5 0.312853 0.227461 0.386020
O O6 0.107769 0.852529 0.599672
O O7 0.155194 0.702288 0.768958
O O8 0.152798 0.204138 0.701143
O O9 0.568037 0.227850 0.493552
O O10 0.537978 0.730020 0.514969
O O11 0.102509 0.373568 0.864169
#
# Coordination Sequence:
#
# PCOD9458804 Si02
#       6
#     4   8   8   8   8   8
#     4  12  28  48  76 114 150 200 262 314 380 452
#     4  12  28  47  76 111 149 190 248 310 364 449
#     4  12  26  47  78 107 148 198 245 302 381 446
#     4  12  27  47  76 109 151 198 252 314 377 452
#     4  12  27  48  75 110 150 200 253 311 379 448
#     4  12  26  48  77 109 149 199 244 305 381 449
#
# _framework density 24.09131
#
# number of rings (size 3 to 8) (size 9 to 14) (size 15 to 20)
#    0.000    0.000    3.636    5.455    2.545    5.818 
#    0.000    0.000    0.000    0.000    0.000    0.000 
#    0.000    0.000    0.000    0.000    0.000    0.000 
#
# Total GULP energy -246874.282443 kJ/mol
# GULP energy per Si atom -5610.779146 kJ/mol
# Density = 2.403648 g / cm^3
# Si number density = 24.091310 Si / 1000 Ang^3
#
#
#
# Elastic Constant Matrix: (Units=GPa)
#
#
# Indices 1 2 3 4 5 6 
#
# 1 95.2293 5.8763 48.6678 0.0000 0.0000 0.0000
# 2 5.8763 101.9927 22.7222 0.0000 0.0000 0.0000
# 3 48.6678 22.7222 89.6701 0.0000 0.0000 0.0000
# 4 0.0000 0.0000 0.0000 46.8666 0.0000 0.0000
# 5 0.0000 0.0000 0.0000 0.0000 41.8167 0.0000
# 6 0.0000 0.0000 0.0000 0.0000 0.0000 28.3985
#
#
#
# Elastic Compliance Matrix: (Units=1/GPa)
#
#
# Indices 1 2 3 4 5 6 
#
# 1 0.014624 0.000981 -0.008186 0.000000 0.000000 0.000000
# 2 0.000981 0.010457 -0.003182 0.000000 0.000000 0.000000
# 3 -0.008186 -0.003182 0.016401 0.000000 0.000000 0.000000
# 4 0.000000 0.000000 0.000000 0.021337 0.000000 0.000000
# 5 0.000000 0.000000 0.000000 0.000000 0.023914 0.000000
# 6 0.000000 0.000000 0.000000 0.000000 0.000000 0.035213
#
#
# Mechanical properties :
#
#
# Convention : Reuss Voigt Hill
#
# Bulk Modulus (GPa) = 48.28975 49.04720 48.66847
# Shear Modulus (GPa) = 33.41753 37.39142 35.40447
#
# Velocity S-wave (km/s) = 3.72845 3.94391 3.83769
# Velocity P-wave (km/s) = 6.21475 6.41422 6.31527
#
# Compressibility (1/GPa) = 0.02070833
#
# Stress axis : x y z
#
# Youngs Moduli (GPa) = 68.38207 95.62920 60.97194
#
# Poissons Ratio (x) = -0.09382 0.49909
# Poissons Ratio (y) = -0.06709 0.19403
# Poissons Ratio (z) = 0.55974 0.30432
#
# Static dielectric constant tensor:
#      x y z
#    x 1.928010 0.000000 0.000000 
#    y 0.000000 1.879420 0.000000 
#    z 0.000000 0.000000 1.899320 
# 
# From -- ./inp_files/18022.got.cif
#   From: 2010.05.17/outbox.cif.g08.bks.cpg/sg60_10_cif.got.tgz:18022.got - 2010.06.03 14:59:27.
