data_PCOD9458060
_publ_section_title
;
Structure prediction by ZEFSAII (Michael W. Deem and Ramdas Pophale) SiO2 
 PCOD9458060
Probable space group: P B C N
;
_chemical_formula_sum "Si O2"
_cell_formula_units_Z 64
_cell_length_a 17.270445
_cell_length_b 11.661843
_cell_length_c 14.336582
_cell_angle_alpha 90.000000
_cell_angle_beta 90.000000
_cell_angle_gamma 90.000000
_cell_volume 2887.462425
_symmetry_space_group_name_H-M "P B C N"
_symmetry_group_IT_number 60
_symmetry_cell_setting 'orthorhombic'
loop_
_space_group_symop_operation_xyz
x,y,z
1/2-x,1/2-y,1/2+z
1/2+x,1/2-y,-z
-x,y,1/2-z
-x,-y,-z
1/2+x,1/2+y,1/2-z
1/2-x,1/2+y,z
x,-y,1/2+z
loop_
_atom_site_type_symbol
_atom_site_label
_atom_site_fract_x
_atom_site_fract_y
_atom_site_fract_z
Si Si1 0.300162 0.539580 0.351156
Si Si2 0.164847 0.842505 0.202533
Si Si3 0.629097 0.892167 0.721532
Si Si4 0.941412 0.443633 0.073568
Si Si5 0.332031 0.226976 0.628489
Si Si6 0.158679 0.513779 0.082813
Si Si7 0.166652 0.974917 0.564250
Si Si8 0.926572 0.229822 0.197387
O O1 0.311295 0.431864 0.282722
O O2 0.215927 0.590955 0.323252
O O3 0.314779 0.500120 0.457122
O O4 0.366896 0.634195 0.336286
O O5 0.118566 0.741463 0.253736
O O6 0.240463 0.782153 0.154196
O O7 0.126600 0.920934 0.120620
O O8 0.617435 0.950306 0.822763
O O9 0.575464 0.959640 0.649950
O O10 0.957627 0.323282 0.123932
O O11 0.866269 0.419112 0.008618
O O12 0.000000 0.500000 0.000000
O O13 0.361280 0.346928 0.586614
O O14 0.376002 0.204228 0.725038
O O15 0.350655 0.120917 0.561887
O O16 0.247711 0.528853 0.108078
O O17 0.000000 0.176699 0.250000
#
# Coordination Sequence:
#
# PCOD9458060 Si02
#       8
#     8   8   8   8   8   8   8   8
#     4  12  24  42  70 108 137 189 241 296 364 428
#     4  11  21  39  66 103 140 176 228 302 354 409
#     4  12  23  41  71 105 143 180 235 305 360 415
#     4  12  28  45  70 106 139 192 245 286 369 439
#     4  11  20  42  67  96 141 179 230 289 355 411
#     4  11  22  38  66 101 139 179 230 294 348 418
#     4  11  23  37  67 106 139 177 233 301 355 419
#     4  12  25  47  73  92 143 196 236 289 363 439
#
# _framework density 22.164791000000001
#
# number of rings (size 3 to 8) (size 9 to 14) (size 15 to 20)
#    0.000    0.500    8.750    0.750    3.500    0.000 
#    0.000    0.625    2.750    0.000    0.000    0.000 
#    0.000    0.000    0.000    0.000    0.000    0.000 
#
# Total GULP energy -357207.095605 kJ/mol
# GULP energy per Si atom -5581.360869 kJ/mol
# Density = 2.211434 g / cm^3
# Si number density = 22.164791 Si / 1000 Ang^3
#
#
#
# Elastic Constant Matrix: (Units=GPa)
#
#
# Indices 1 2 3 4 5 6 
#
# 1 46.2075 19.4856 2.0118 0.0000 0.0000 0.0000
# 2 19.4856 145.8078 46.8034 0.0000 0.0000 0.0000
# 3 2.0118 46.8034 129.9628 0.0000 0.0000 0.0000
# 4 0.0000 0.0000 0.0000 36.4500 0.0000 0.0000
# 5 0.0000 0.0000 0.0000 0.0000 21.8435 0.0000
# 6 0.0000 0.0000 0.0000 0.0000 0.0000 16.0656
#
#
#
# Elastic Compliance Matrix: (Units=1/GPa)
#
#
# Indices 1 2 3 4 5 6 
#
# 1 0.023017 -0.003349 0.000850 0.000000 0.000000 0.000000
# 2 -0.003349 0.008242 -0.002916 0.000000 0.000000 0.000000
# 3 0.000850 -0.002916 0.008732 0.000000 0.000000 0.000000
# 4 0.000000 0.000000 0.000000 0.027435 0.000000 0.000000
# 5 0.000000 0.000000 0.000000 0.000000 0.045780 0.000000
# 6 0.000000 0.000000 0.000000 0.000000 0.000000 0.062245
#
#
# Mechanical properties :
#
#
# Convention : Reuss Voigt Hill
#
# Bulk Modulus (GPa) = 34.29410 50.95330 42.62370
# Shear Modulus (GPa) = 25.51015 31.78366 28.64690
#
# Velocity S-wave (km/s) = 3.39622 3.79089 3.59897
# Velocity P-wave (km/s) = 5.55743 6.49611 6.04501
#
# Compressibility (1/GPa) = 0.02915953
#
# Stress axis : x y z
#
# Youngs Moduli (GPa) = 43.44686 121.33004 114.52636
#
# Poissons Ratio (x) = 0.40629 -0.09731
# Poissons Ratio (y) = 0.14549 0.33400
# Poissons Ratio (z) = -0.03691 0.35384
#
# Static dielectric constant tensor:
#      x y z
#    x 1.911030 0.000000 0.000000 
#    y 0.000000 1.861940 0.000000 
#    z 0.000000 0.000000 1.848870 
# 
# From -- ./inp_files/17497.got.cif
#   From: 2010.05.17/outbox.cif.g08.bks.cpg/sg60_9_cif.got.tgz:17497.got - 2010.06.03 14:59:27.
