data_PCOD9458742
_publ_section_title
;
Structure prediction by ZEFSAII (Michael W. Deem and Ramdas Pophale) SiO2 
 PCOD9458742
Probable space group: P B C N
;
_chemical_formula_sum "Si O2"
_cell_formula_units_Z 40
_cell_length_a 7.941930
_cell_length_b 18.082463
_cell_length_c 11.731828
_cell_angle_alpha 90.000000
_cell_angle_beta 90.000000
_cell_angle_gamma 90.000000
_cell_volume 1684.803776
_symmetry_space_group_name_H-M "P B C N"
_symmetry_group_IT_number 60
_symmetry_cell_setting 'orthorhombic'
loop_
_space_group_symop_operation_xyz
x,y,z
1/2-x,1/2-y,1/2+z
1/2+x,1/2-y,-z
-x,y,1/2-z
-x,-y,-z
1/2+x,1/2+y,1/2-z
1/2-x,1/2+y,z
x,-y,1/2+z
loop_
_atom_site_type_symbol
_atom_site_label
_atom_site_fract_x
_atom_site_fract_y
_atom_site_fract_z
Si Si1 0.354984 0.814854 0.341833
Si Si2 0.838100 0.820778 0.370243
Si Si3 0.871883 0.703228 0.075834
Si Si4 0.909911 0.990367 0.376527
Si Si5 0.412492 0.073090 0.050058
O O1 0.500000 0.827775 0.250000
O O2 0.192685 0.828365 0.263199
O O3 0.307017 0.730150 0.373873
O O4 0.355526 0.871757 0.446826
O O5 0.672240 0.795524 0.441431
O O6 0.860172 0.905567 0.398586
O O7 0.978515 0.760810 0.401040
O O8 0.945558 0.623870 0.110652
O O9 0.000000 0.997122 0.250000
O O10 0.747841 0.045126 0.379018
O O11 0.000000 0.000000 0.500000
O O12 0.500000 0.000000 0.000000
#
# Coordination Sequence:
#
# PCOD9458742 Si02
#       5
#     8   8   8   8   8
#     4  12  24  49  79 108 159 215 267 344 425 489
#     4  12  24  48  75 109 154 210 266 339 410 488
#     4  12  24  46  77 111 151 205 275 330 405 497
#     4  12  27  51  78 115 165 220 273 340 429 496
#     4  12  25  48  80 115 159 211 280 348 420 511
#
# _framework density 23.741636
#
# number of rings (size 3 to 8) (size 9 to 14) (size 15 to 20)
#    0.000    0.000    6.000    4.200    0.000    0.000 
#    7.200    2.000    0.000    0.000    0.000    0.000 
#    0.000    0.000    0.000    0.000    0.000    0.000 
#
# Total GULP energy -222787.616729 kJ/mol
# GULP energy per Si atom -5569.690418 kJ/mol
# Density = 2.368760 g / cm^3
# Si number density = 23.741636 Si / 1000 Ang^3
#
#
#
# Elastic Constant Matrix: (Units=GPa)
#
#
# Indices 1 2 3 4 5 6 
#
# 1 88.6234 63.9130 20.5526 0.0000 0.0000 0.0000
# 2 63.9130 158.2533 35.1997 0.0000 0.0000 0.0000
# 3 20.5526 35.1997 69.1137 0.0000 0.0000 0.0000
# 4 0.0000 0.0000 0.0000 29.0357 0.0000 0.0000
# 5 0.0000 0.0000 0.0000 0.0000 21.6151 0.0000
# 6 0.0000 0.0000 0.0000 0.0000 0.0000 51.9346
#
#
#
# Elastic Compliance Matrix: (Units=1/GPa)
#
#
# Indices 1 2 3 4 5 6 
#
# 1 0.016089 -0.006128 -0.001664 0.000000 0.000000 0.000000
# 2 -0.006128 0.009460 -0.002996 0.000000 0.000000 0.000000
# 3 -0.001664 -0.002996 0.016489 0.000000 0.000000 0.000000
# 4 0.000000 0.000000 0.000000 0.034440 0.000000 0.000000
# 5 0.000000 0.000000 0.000000 0.000000 0.046264 0.000000
# 6 0.000000 0.000000 0.000000 0.000000 0.000000 0.019255
#
#
# Mechanical properties :
#
#
# Convention : Reuss Voigt Hill
#
# Bulk Modulus (GPa) = 48.86608 61.70232 55.28420
# Shear Modulus (GPa) = 29.34399 33.60541 31.47470
#
# Velocity S-wave (km/s) = 3.51945 3.76635 3.64499
# Velocity P-wave (km/s) = 6.09447 6.70517 6.40710
#
# Compressibility (1/GPa) = 0.02046409
#
# Stress axis : x y z
#
# Youngs Moduli (GPa) = 62.15594 105.70758 60.64512
#
# Poissons Ratio (x) = 0.64773 0.10088
# Poissons Ratio (y) = 0.38087 0.18168
# Poissons Ratio (z) = 0.10340 0.31668
#
# Static dielectric constant tensor:
#      x y z
#    x 2.052410 0.000000 0.000000 
#    y 0.000000 1.746800 0.000000 
#    z 0.000000 0.000000 2.199250 
# 
# From -- ./inp_files/9743.got.cif
#   From: 2010.05.17/outbox.cif.g08.bks.cpg/sg60_5_cif.got.tgz:9743.got - 2010.06.03 14:59:27.
