data_PCOD9458861
_publ_section_title
;
Structure prediction by ZEFSAII (Michael W. Deem and Ramdas Pophale) SiO2 
 PCOD9458861
Probable space group: P B C N
;
_chemical_formula_sum "Si O2"
_cell_formula_units_Z 48
_cell_length_a 25.866450
_cell_length_b 14.263593
_cell_length_c 5.526168
_cell_angle_alpha 90.000000
_cell_angle_beta 90.000000
_cell_angle_gamma 90.000000
_cell_volume 2038.871478
_symmetry_space_group_name_H-M "P B C N"
_symmetry_group_IT_number 60
_symmetry_cell_setting 'orthorhombic'
loop_
_space_group_symop_operation_xyz
x,y,z
1/2-x,1/2-y,1/2+z
1/2+x,1/2-y,-z
-x,y,1/2-z
-x,-y,-z
1/2+x,1/2+y,1/2-z
1/2-x,1/2+y,z
x,-y,1/2+z
loop_
_atom_site_type_symbol
_atom_site_label
_atom_site_fract_x
_atom_site_fract_y
_atom_site_fract_z
Si Si1 0.688510 0.861939 0.987280
Si Si2 0.650602 0.651947 0.990857
Si Si3 0.807030 0.866754 0.989738
Si Si4 0.442101 0.754967 0.294696
Si Si5 0.852688 0.664598 0.987322
Si Si6 0.941750 0.468405 0.189043
O O1 0.683870 0.748506 0.988596
O O2 0.747228 0.894215 0.992584
O O3 0.660711 0.888790 0.237636
O O4 0.658781 0.885689 0.739644
O O5 0.667979 0.601783 0.236623
O O6 0.592284 0.688574 0.036345
O O7 0.662944 0.606018 0.734797
O O8 0.811827 0.752584 0.988078
O O9 0.500000 0.721061 0.250000
O O10 0.446553 0.860751 0.397677
O O11 0.406375 0.777426 0.057722
O O12 0.919506 0.474235 0.463166
O O13 0.000000 0.503302 0.250000
#
# Coordination Sequence:
#
# PCOD9458861 Si02
#       6
#     8   8   8   8   8   8
#     4   9  14  23  35  49  67  83 101 127 153 197
#     4   9  16  23  34  51  64  84 108 125 166 211
#     4   9  14  23  35  49  67  83 101 127 153 197
#     4   9  18  30  40  52  73  92 114 154 188 223
#     4   9  16  23  34  51  64  84 108 125 166 211
#     4   9  18  30  42  52  61  82 116 150 189 229
#
# _framework density 23.542437
#
# number of rings (size 3 to 8) (size 9 to 14) (size 15 to 20)
#    0.000    3.333    0.000    5.000    0.000    5.333 
#    0.000   20.000    0.000    0.000    0.000    0.000 
#    0.000    0.000    0.000    0.000    0.000    0.000 
#
# Total GULP energy -267552.752362 kJ/mol
# GULP energy per Si atom -5574.015674 kJ/mol
# Density = 2.348885 g / cm^3
# Si number density = 23.542437 Si / 1000 Ang^3
#
#
#
# Elastic Constant Matrix: (Units=GPa)
#
#
# Indices 1 2 3 4 5 6 
#
# 1 183.8568 6.0344 89.6164 0.0000 0.0000 0.0000
# 2 6.0344 50.3614 21.3643 0.0000 0.0000 0.0000
# 3 89.6164 21.3643 271.9139 0.0000 0.0000 0.0000
# 4 0.0000 0.0000 0.0000 75.8948 0.0000 0.0000
# 5 0.0000 0.0000 0.0000 0.0000 29.0281 0.0000
# 6 0.0000 0.0000 0.0000 0.0000 0.0000 3.3803
#
#
#
# Elastic Compliance Matrix: (Units=1/GPa)
#
#
# Indices 1 2 3 4 5 6 
#
# 1 0.006481 0.000134 -0.002146 0.000000 0.000000 0.000000
# 2 0.000134 0.020544 -0.001658 0.000000 0.000000 0.000000
# 3 -0.002146 -0.001658 0.004515 0.000000 0.000000 0.000000
# 4 0.000000 0.000000 0.000000 0.013176 0.000000 0.000000
# 5 0.000000 0.000000 0.000000 0.000000 0.034449 0.000000
# 6 0.000000 0.000000 0.000000 0.000000 0.000000 0.295832
#
#
# Mechanical properties :
#
#
# Convention : Reuss Voigt Hill
#
# Bulk Modulus (GPa) = 41.32472 82.24026 61.78249
# Shear Modulus (GPa) = 12.80722 47.60178 30.20450
#
# Velocity S-wave (km/s) = 2.33492 4.50149 3.58576
# Velocity P-wave (km/s) = 4.98604 7.87569 6.59117
#
# Compressibility (1/GPa) = 0.02419859
#
# Stress axis : x y z
#
# Youngs Moduli (GPa) = 154.30053 48.67628 221.46660
#
# Poissons Ratio (x) = -0.00652 0.47537
# Poissons Ratio (y) = -0.02068 0.36726
# Poissons Ratio (z) = 0.33120 0.08072
#
# Static dielectric constant tensor:
#      x y z
#    x 1.973450 0.000000 0.000000 
#    y 0.000000 1.963420 0.000000 
#    z 0.000000 0.000000 2.019510 
# 
# From -- ./inp_files/2623.got.cif
#   From: 2010.05.17/outbox.cif.g08.bks.cpg/sg60_2_cif.got.tgz:2623.got - 2010.06.03 14:59:27.
