data_PCOD9458714
_publ_section_title
;
Structure prediction by ZEFSAII (Michael W. Deem and Ramdas Pophale) SiO2 
 PCOD9458714
Probable space group: P B C N
;
_chemical_formula_sum "Si O2"
_cell_formula_units_Z 48
_cell_length_a 7.575942
_cell_length_b 15.904335
_cell_length_c 15.343963
_cell_angle_alpha 90.000000
_cell_angle_beta 90.000000
_cell_angle_gamma 90.000000
_cell_volume 1848.799004
_symmetry_space_group_name_H-M "P B C N"
_symmetry_group_IT_number 60
_symmetry_cell_setting 'orthorhombic'
loop_
_space_group_symop_operation_xyz
x,y,z
1/2-x,1/2-y,1/2+z
1/2+x,1/2-y,-z
-x,y,1/2-z
-x,-y,-z
1/2+x,1/2+y,1/2-z
1/2-x,1/2+y,z
x,-y,1/2+z
loop_
_atom_site_type_symbol
_atom_site_label
_atom_site_fract_x
_atom_site_fract_y
_atom_site_fract_z
Si Si1 0.666919 0.478337 0.078743
Si Si2 0.348402 0.808781 0.932499
Si Si3 0.117093 0.842020 0.089856
Si Si4 0.692044 0.084409 0.761825
Si Si5 0.840855 0.570674 0.400153
Si Si6 0.490196 0.653487 0.352948
O O1 0.488267 0.425615 0.062061
O O2 0.745753 0.438782 0.166357
O O3 0.603221 0.568673 0.111808
O O4 0.796460 0.465418 0.996555
O O5 0.178023 0.853409 0.188350
O O6 0.289118 0.830247 0.030473
O O7 0.479814 0.731314 0.926824
O O8 0.467515 0.885890 0.895955
O O9 0.162346 0.784090 0.886466
O O10 0.500000 0.122368 0.750000
O O11 0.678410 0.001436 0.825685
O O12 0.691090 0.642980 0.385346
O O13 0.500000 0.655342 0.250000
#
# Coordination Sequence:
#
# PCOD9458714 Si02
#       6
#     8   8   8   8   8   8
#     4  12  23  49  80 115 154 206 258 329 393 461
#     4  12  29  49  80 111 154 211 257 324 402 471
#     4  12  26  52  76 112 160 204 264 326 394 476
#     4  12  26  47  80 119 159 207 268 325 397 478
#     4  12  25  48  81 117 155 201 266 328 392 472
#     4  12  24  48  78 114 154 198 257 324 394 468
#
# _framework density 25.962800000000001
#
# number of rings (size 3 to 8) (size 9 to 14) (size 15 to 20)
#    0.000    0.000    5.000    5.000    0.000    2.000 
#    6.000    0.000    0.000    0.000    0.000    0.000 
#    0.000    0.000    0.000    0.000    0.000    0.000 
#
# Total GULP energy -269147.974593 kJ/mol
# GULP energy per Si atom -5607.249471 kJ/mol
# Density = 2.590371 g / cm^3
# Si number density = 25.962800 Si / 1000 Ang^3
#
#
#
# Elastic Constant Matrix: (Units=GPa)
#
#
# Indices 1 2 3 4 5 6 
#
# 1 181.8669 33.6702 40.0458 0.0000 0.0000 0.0000
# 2 33.6702 61.4564 5.1671 0.0000 0.0000 0.0000
# 3 40.0458 5.1671 170.6436 0.0000 0.0000 0.0000
# 4 0.0000 0.0000 0.0000 17.8680 0.0000 0.0000
# 5 0.0000 0.0000 0.0000 0.0000 52.0570 0.0000
# 6 0.0000 0.0000 0.0000 0.0000 0.0000 51.6835
#
#
#
# Elastic Compliance Matrix: (Units=1/GPa)
#
#
# Indices 1 2 3 4 5 6 
#
# 1 0.006440 -0.003410 -0.001408 0.000000 0.000000 0.000000
# 2 -0.003410 0.018119 0.000252 0.000000 0.000000 0.000000
# 3 -0.001408 0.000252 0.006183 0.000000 0.000000 0.000000
# 4 0.000000 0.000000 0.000000 0.055966 0.000000 0.000000
# 5 0.000000 0.000000 0.000000 0.000000 0.019210 0.000000
# 6 0.000000 0.000000 0.000000 0.000000 0.000000 0.019349
#
#
# Mechanical properties :
#
#
# Convention : Reuss Voigt Hill
#
# Bulk Modulus (GPa) = 46.27713 63.52590 54.90151
# Shear Modulus (GPa) = 35.31041 46.66062 40.98552
#
# Velocity S-wave (km/s) = 3.69187 4.24395 3.97750
# Velocity P-wave (km/s) = 6.00302 6.96678 6.50278
#
# Compressibility (1/GPa) = 0.02160895
#
# Stress axis : x y z
#
# Youngs Moduli (GPa) = 155.28326 55.19166 161.73439
#
# Poissons Ratio (x) = 0.18819 0.22773
# Poissons Ratio (y) = 0.52949 -0.04069
# Poissons Ratio (z) = 0.21864 -0.01388
#
# Static dielectric constant tensor:
#      x y z
#    x 2.041650 0.000000 0.000000 
#    y 0.000000 2.166920 0.000000 
#    z 0.000000 0.000000 2.081830 
# 
# From -- ./inp_files/15009.got.cif
#   From: 2010.05.17/outbox.cif.g08.bks.cpg/sg60_8_cif.got.tgz:15009.got - 2010.06.03 14:59:27.
