data_PCOD9458289
_publ_section_title
;
Structure prediction by ZEFSAII (Michael W. Deem and Ramdas Pophale) SiO2 
 PCOD9458289
Probable space group: P B C N
;
_chemical_formula_sum "Si O2"
_cell_formula_units_Z 48
_cell_length_a 8.952715
_cell_length_b 14.214304
_cell_length_c 16.033091
_cell_angle_alpha 90.000000
_cell_angle_beta 90.000000
_cell_angle_gamma 90.000000
_cell_volume 2040.316851
_symmetry_space_group_name_H-M "P B C N"
_symmetry_group_IT_number 60
_symmetry_cell_setting 'orthorhombic'
loop_
_space_group_symop_operation_xyz
x,y,z
1/2-x,1/2-y,1/2+z
1/2+x,1/2-y,-z
-x,y,1/2-z
-x,-y,-z
1/2+x,1/2+y,1/2-z
1/2-x,1/2+y,z
x,-y,1/2+z
loop_
_atom_site_type_symbol
_atom_site_label
_atom_site_fract_x
_atom_site_fract_y
_atom_site_fract_z
Si Si1 0.412203 0.893099 0.660677
Si Si2 0.855553 0.083764 0.070680
Si Si3 0.855050 0.203350 0.428945
Si Si4 0.983352 0.088643 0.661955
Si Si5 0.683959 0.092806 0.902983
Si Si6 0.164076 0.267739 0.890849
O O1 0.500000 0.884656 0.750000
O O2 0.249113 0.848993 0.638806
O O3 0.514300 0.829561 0.599881
O O4 0.396840 0.003022 0.636744
O O5 0.782970 0.154945 0.137774
O O6 0.006319 0.137883 0.046798
O O7 0.902495 0.983437 0.102413
O O8 0.734031 0.070906 0.997968
O O9 0.899320 0.307496 0.397056
O O10 0.782455 0.226586 0.519847
O O11 0.883587 0.182146 0.667368
O O12 0.000000 0.039193 0.750000
O O13 0.151613 0.110976 0.635564
#
# Coordination Sequence:
#
# PCOD9458289 Si02
#       6
#     8   8   8   8   8   8
#     4  12  26  45  72 106 155 194 247 311 380 441
#     4  11  24  43  75 105 139 187 255 303 362 445
#     4  11  22  45  73 104 139 196 247 300 365 443
#     4  12  24  43  69 101 145 194 237 299 377 441
#     4  11  24  45  75 102 147 199 247 308 369 449
#     4  11  24  43  71 106 141 191 246 307 363 440
#
# _framework density 23.525759000000001
#
# number of rings (size 3 to 8) (size 9 to 14) (size 15 to 20)
#    0.000    0.667    5.000    3.000    2.333    4.000 
#    0.000    0.000    0.000    0.000    0.000    0.000 
#    0.000    0.000    0.000    0.000    0.000    0.000 
#
# Total GULP energy -267908.499119 kJ/mol
# GULP energy per Si atom -5581.427065 kJ/mol
# Density = 2.347221 g / cm^3
# Si number density = 23.525759 Si / 1000 Ang^3
#
#
#
# Elastic Constant Matrix: (Units=GPa)
#
#
# Indices 1 2 3 4 5 6 
#
# 1 55.1227 30.5969 24.4245 0.0000 0.0000 0.0000
# 2 30.5969 163.0586 28.9465 0.0000 0.0000 0.0000
# 3 24.4245 28.9465 79.2597 0.0000 0.0000 0.0000
# 4 0.0000 0.0000 0.0000 2.6054 0.0000 0.0000
# 5 0.0000 0.0000 0.0000 0.0000 23.5585 0.0000
# 6 0.0000 0.0000 0.0000 0.0000 0.0000 -2.5144
#
#
#
# Elastic Compliance Matrix: (Units=1/GPa)
#
#
# Indices 1 2 3 4 5 6 
#
# 1 0.022465 -0.003193 -0.005756 0.000000 0.000000 0.000000
# 2 -0.003193 0.007012 -0.001577 0.000000 0.000000 0.000000
# 3 -0.005756 -0.001577 0.014966 0.000000 0.000000 0.000000
# 4 0.000000 0.000000 0.000000 0.383811 0.000000 0.000000
# 5 0.000000 0.000000 0.000000 0.000000 0.042448 0.000000
# 6 0.000000 0.000000 0.000000 0.000000 0.000000 -0.397705
#
#
# Mechanical properties :
#
#
# Convention : Reuss Voigt Hill
#
# Bulk Modulus (GPa) = 42.75361 51.70852 47.23107
# Shear Modulus (GPa) = 49.09331 18.96144 34.02738
#
# Velocity S-wave (km/s) = 4.57310 2.84207 3.80727
# Velocity P-wave (km/s) = 6.78946 5.72687 6.28068
#
# Compressibility (1/GPa) = 0.02338984
#
# Stress axis : x y z
#
# Youngs Moduli (GPa) = 44.51464 142.61470 66.81605
#
# Poissons Ratio (x) = 0.45543 0.38462
# Poissons Ratio (y) = 0.14215 0.10535
# Poissons Ratio (z) = 0.25624 0.22487
#
# Static dielectric constant tensor:
#      x y z
#    x 1.937680 0.000000 0.000000 
#    y 0.000000 1.875650 0.000000 
#    z 0.000000 0.000000 2.040950 
# 
# From -- ./inp_files/19300.got.cif
#   From: 2010.05.17/outbox.cif.g08.bks.cpg/sg60_10_cif.got.tgz:19300.got - 2010.06.03 14:59:27.
