data_PCOD9458092
_publ_section_title
;
Structure prediction by ZEFSAII (Michael W. Deem and Ramdas Pophale) SiO2 
 PCOD9458092
Probable space group: P B C N
;
_chemical_formula_sum "Si O2"
_cell_formula_units_Z 48
_cell_length_a 14.150176
_cell_length_b 13.636002
_cell_length_c 12.175460
_cell_angle_alpha 90.000000
_cell_angle_beta 90.000000
_cell_angle_gamma 90.000000
_cell_volume 2349.277267
_symmetry_space_group_name_H-M "P B C N"
_symmetry_group_IT_number 60
_symmetry_cell_setting 'orthorhombic'
loop_
_space_group_symop_operation_xyz
x,y,z
1/2-x,1/2-y,1/2+z
1/2+x,1/2-y,-z
-x,y,1/2-z
-x,-y,-z
1/2+x,1/2+y,1/2-z
1/2-x,1/2+y,z
x,-y,1/2+z
loop_
_atom_site_type_symbol
_atom_site_label
_atom_site_fract_x
_atom_site_fract_y
_atom_site_fract_z
Si Si1 0.111609 0.350896 0.870330
Si Si2 0.927945 0.934655 0.423875
Si Si3 0.787859 0.180459 0.496738
Si Si4 0.101025 0.889794 0.718574
Si Si5 0.087813 0.289417 0.617160
Si Si6 0.223570 0.972700 0.909576
O O1 0.113014 0.312026 0.744456
O O2 0.167596 0.451636 0.886861
O O3 0.003183 0.355807 0.907097
O O4 0.169379 0.274251 0.944249
O O5 0.950222 0.821898 0.401640
O O6 0.823745 0.936572 0.477472
O O7 0.920019 0.998558 0.316244
O O8 0.000000 0.000000 0.500000
O O9 0.849012 0.158194 0.386580
O O10 0.679939 0.192618 0.456521
O O11 0.795104 0.088671 0.580925
O O12 0.169067 0.905412 0.821085
O O13 0.000000 0.843399 0.750000
#
# Coordination Sequence:
#
# PCOD9458092 Si02
#       6
#     8   8   8   8   8   8
#     4  11  24  41  64  93 128 168 216 261 326 394
#     4  11  21  36  62  93 122 162 210 267 327 371
#     4  11  24  41  65  92 129 170 214 268 325 383
#     4  11  22  36  61  94 126 161 210 267 328 378
#     4  11  23  41  64  91 129 170 211 262 326 391
#     4  11  22  39  60  90 125 164 212 264 311 389
#
# _framework density 20.431816000000001
#
# number of rings (size 3 to 8) (size 9 to 14) (size 15 to 20)
#    0.000    1.000    5.000    3.000    2.333    0.667 
#    0.000    0.000    0.000    0.000    0.000    0.000 
#    0.000    0.000    0.000    0.000    0.000    0.000 
#
# Total GULP energy -267766.769642 kJ/mol
# GULP energy per Si atom -5578.474368 kJ/mol
# Density = 2.038531 g / cm^3
# Si number density = 20.431816 Si / 1000 Ang^3
#
#
#
# Elastic Constant Matrix: (Units=GPa)
#
#
# Indices 1 2 3 4 5 6 
#
# 1 142.5638 2.2479 34.3072 0.0000 0.0000 0.0000
# 2 2.2479 33.4677 3.5915 0.0000 0.0000 0.0000
# 3 34.3072 3.5915 63.4326 0.0000 0.0000 0.0000
# 4 0.0000 0.0000 0.0000 21.0464 0.0000 0.0000
# 5 0.0000 0.0000 0.0000 0.0000 37.6618 0.0000
# 6 0.0000 0.0000 0.0000 0.0000 0.0000 28.9621
#
#
#
# Elastic Compliance Matrix: (Units=1/GPa)
#
#
# Indices 1 2 3 4 5 6 
#
# 1 0.008064 -0.000074 -0.004357 0.000000 0.000000 0.000000
# 2 -0.000074 0.030063 -0.001662 0.000000 0.000000 0.000000
# 3 -0.004357 -0.001662 0.018215 0.000000 0.000000 0.000000
# 4 0.000000 0.000000 0.000000 0.047514 0.000000 0.000000
# 5 0.000000 0.000000 0.000000 0.000000 0.026552 0.000000
# 6 0.000000 0.000000 0.000000 0.000000 0.000000 0.034528
#
#
# Mechanical properties :
#
#
# Convention : Reuss Voigt Hill
#
# Bulk Modulus (GPa) = 22.64712 35.52858 29.08785
# Shear Modulus (GPa) = 26.06314 30.82189 28.44252
#
# Velocity S-wave (km/s) = 3.57545 3.88819 3.73509
# Velocity P-wave (km/s) = 5.30598 6.13057 5.73312
#
# Compressibility (1/GPa) = 0.04415572
#
# Stress axis : x y z
#
# Youngs Moduli (GPa) = 124.00611 33.26362 54.89843
#
# Poissons Ratio (x) = 0.00246 0.23921
# Poissons Ratio (y) = 0.00918 0.09124
# Poissons Ratio (z) = 0.54032 0.05529
#
# Static dielectric constant tensor:
#      x y z
#    x 1.825020 0.000000 0.000000 
#    y 0.000000 1.770270 0.000000 
#    z 0.000000 0.000000 1.747820 
# 
# From -- ./inp_files/11897.got.cif
#   From: 2010.05.17/outbox.cif.g08.bks.cpg/sg60_6_cif.got.tgz:11897.got - 2010.06.03 14:59:27.
