data_PCOD9458775
_publ_section_title
;
Structure prediction by ZEFSAII (Michael W. Deem and Ramdas Pophale) SiO2 
 PCOD9458775
Probable space group: P B C N
;
_chemical_formula_sum "Si O2"
_cell_formula_units_Z 36
_cell_length_a 21.885826
_cell_length_b 7.324324
_cell_length_c 8.548061
_cell_angle_alpha 90.000000
_cell_angle_beta 90.000000
_cell_angle_gamma 90.000000
_cell_volume 1370.244610
_symmetry_space_group_name_H-M "P B C N"
_symmetry_group_IT_number 60
_symmetry_cell_setting 'orthorhombic'
loop_
_space_group_symop_operation_xyz
x,y,z
1/2-x,1/2-y,1/2+z
1/2+x,1/2-y,-z
-x,y,1/2-z
-x,-y,-z
1/2+x,1/2+y,1/2-z
1/2-x,1/2+y,z
x,-y,1/2+z
loop_
_atom_site_type_symbol
_atom_site_label
_atom_site_fract_x
_atom_site_fract_y
_atom_site_fract_z
Si Si1 0.415882 0.284222 0.220161
Si Si2 0.500000 0.938681 0.250000
Si Si3 0.196336 0.366604 0.541238
Si Si4 0.442623 0.369128 0.566963
Si Si5 0.180472 0.743731 0.684759
O O1 0.351293 0.260843 0.134308
O O2 0.414142 0.356821 0.396059
O O3 0.458151 0.422874 0.116610
O O4 0.444187 0.080921 0.240843
O O5 0.511102 0.795530 0.390937
O O6 0.174349 0.571414 0.569618
O O7 0.263437 0.357294 0.615787
O O8 0.196544 0.317089 0.359850
O O9 0.385143 0.336300 0.683620
#
# Coordination Sequence:
#
# PCOD9458775 Si02
#       5
#     8   4   8   8   8
#     4  12  27  48  75 110 151 198 252 310 374 445
#     4  12  28  48  80 108 154 200 260 306 378 438
#     4  12  25  45  73 107 148 194 246 308 375 445
#     4  12  27  48  75 110 151 198 252 310 374 445
#     4  12  25  45  73 107 148 194 246 308 375 445
#
# _framework density 26.272680999999999
#
# number of rings (size 3 to 8) (size 9 to 14) (size 15 to 20)
#    0.000    0.000    2.222    8.000    0.000    7.111 
#    0.000    0.000    0.000    0.000    0.000    0.000 
#    0.000    0.000    0.000    0.000    0.000    0.000 
#
# Total GULP energy -201942.849070 kJ/mol
# GULP energy per Si atom -5609.523585 kJ/mol
# Density = 2.621288 g / cm^3
# Si number density = 26.272681 Si / 1000 Ang^3
#
#
#
# Elastic Constant Matrix: (Units=GPa)
#
#
# Indices 1 2 3 4 5 6 
#
# 1 48.5133 14.9581 -6.3286 0.0000 0.0000 0.0000
# 2 14.9581 156.9402 47.9660 0.0000 0.0000 0.0000
# 3 -6.3286 47.9660 156.0932 0.0000 0.0000 0.0000
# 4 0.0000 0.0000 0.0000 45.2603 0.0000 0.0000
# 5 0.0000 0.0000 0.0000 0.0000 18.2847 0.0000
# 6 0.0000 0.0000 0.0000 0.0000 0.0000 50.8699
#
#
#
# Elastic Compliance Matrix: (Units=1/GPa)
#
#
# Indices 1 2 3 4 5 6 
#
# 1 0.021623 -0.002570 0.001666 0.000000 0.000000 0.000000
# 2 -0.002570 0.007338 -0.002359 0.000000 0.000000 0.000000
# 3 0.001666 -0.002359 0.007199 0.000000 0.000000 0.000000
# 4 0.000000 0.000000 0.000000 0.022094 0.000000 0.000000
# 5 0.000000 0.000000 0.000000 0.000000 0.054690 0.000000
# 6 0.000000 0.000000 0.000000 0.000000 0.000000 0.019658
#
#
# Mechanical properties :
#
#
# Convention : Reuss Voigt Hill
#
# Bulk Modulus (GPa) = 33.74512 52.74865 43.24688
# Shear Modulus (GPa) = 33.55572 43.21307 38.38440
#
# Velocity S-wave (km/s) = 3.57768 4.06000 3.82645
# Velocity P-wave (km/s) = 5.47161 6.48838 6.00157
#
# Compressibility (1/GPa) = 0.02963392
#
# Stress axis : x y z
#
# Youngs Moduli (GPa) = 46.24754 136.28014 138.90991
#
# Poissons Ratio (x) = 0.35027 -0.23149
# Poissons Ratio (y) = 0.11887 0.32770
# Poissons Ratio (z) = -0.07707 0.32149
#
# Static dielectric constant tensor:
#      x y z
#    x 2.158630 0.000000 0.000000 
#    y 0.000000 2.111360 0.000000 
#    z 0.000000 0.000000 1.999420 
# 
# From -- ./inp_files/7184.got.cif
#   From: 2010.05.17/outbox.cif.g08.bks.cpg/sg60_4_cif.got.tgz:7184.got - 2010.06.03 14:59:27.
