data_PCOD9458366
_publ_section_title
;
Structure prediction by ZEFSAII (Michael W. Deem and Ramdas Pophale) SiO2 
 PCOD9458366
Probable space group: P B C N
;
_chemical_formula_sum "Si O2"
_cell_formula_units_Z 40
_cell_length_a 5.089958
_cell_length_b 13.323322
_cell_length_c 26.119477
_cell_angle_alpha 90.000000
_cell_angle_beta 90.000000
_cell_angle_gamma 90.000000
_cell_volume 1771.296235
_symmetry_space_group_name_H-M "P B C N"
_symmetry_group_IT_number 60
_symmetry_cell_setting 'orthorhombic'
loop_
_space_group_symop_operation_xyz
x,y,z
1/2-x,1/2-y,1/2+z
1/2+x,1/2-y,-z
-x,y,1/2-z
-x,-y,-z
1/2+x,1/2+y,1/2-z
1/2-x,1/2+y,z
x,-y,1/2+z
loop_
_atom_site_type_symbol
_atom_site_label
_atom_site_fract_x
_atom_site_fract_y
_atom_site_fract_z
Si Si1 0.246826 0.006394 0.784921
Si Si2 0.143805 0.182457 0.989103
Si Si3 0.149996 0.367767 0.386622
Si Si4 0.145617 0.859405 0.865587
Si Si5 0.655099 0.948088 0.919813
O O1 0.500000 0.016546 0.750000
O O2 0.266113 0.076095 0.835111
O O3 0.000000 0.030232 0.750000
O O4 0.224278 0.894868 0.808996
O O5 0.133392 0.144991 0.930948
O O6 0.374043 0.266357 0.993468
O O7 0.239231 0.092370 0.026068
O O8 0.069359 0.255901 0.371674
O O9 0.932147 0.437200 0.413906
O O10 0.394107 0.887079 0.901837
O O11 0.891076 0.922863 0.881475
#
# Coordination Sequence:
#
# PCOD9458366 Si02
#       5
#     8   8   8   8   8
#     4  11  26  47  68 100 134 175 238 298 346 406
#     4  12  23  42  68 105 148 184 221 273 342 415
#     4  11  25  44  75 101 138 188 230 276 351 415
#     4  11  24  44  70  97 137 178 227 283 342 405
#     4  11  23  43  66 105 144 180 222 275 327 420
#
# _framework density 22.582331
#
# number of rings (size 3 to 8) (size 9 to 14) (size 15 to 20)
#    0.000    0.800    4.000    3.000    0.000   11.200 
#    0.000    7.000    0.000    0.000    0.000    0.000 
#    0.000    0.000    0.000    0.000    0.000    0.000 
#
# Total GULP energy -223933.291052 kJ/mol
# GULP energy per Si atom -5598.332276 kJ/mol
# Density = 2.253093 g / cm^3
# Si number density = 22.582331 Si / 1000 Ang^3
#
#
#
# Elastic Constant Matrix: (Units=GPa)
#
#
# Indices 1 2 3 4 5 6 
#
# 1 138.5367 31.3958 35.5224 0.0000 0.0000 0.0000
# 2 31.3958 118.9365 34.8447 0.0000 0.0000 0.0000
# 3 35.5224 34.8447 142.8925 0.0000 0.0000 0.0000
# 4 0.0000 0.0000 0.0000 52.7733 0.0000 0.0000
# 5 0.0000 0.0000 0.0000 0.0000 25.2664 0.0000
# 6 0.0000 0.0000 0.0000 0.0000 0.0000 20.4170
#
#
#
# Elastic Compliance Matrix: (Units=1/GPa)
#
#
# Indices 1 2 3 4 5 6 
#
# 1 0.007998 -0.001646 -0.001587 0.000000 0.000000 0.000000
# 2 -0.001646 0.009394 -0.001881 0.000000 0.000000 0.000000
# 3 -0.001587 -0.001881 0.007852 0.000000 0.000000 0.000000
# 4 0.000000 0.000000 0.000000 0.018949 0.000000 0.000000
# 5 0.000000 0.000000 0.000000 0.000000 0.039578 0.000000
# 6 0.000000 0.000000 0.000000 0.000000 0.000000 0.048979
#
#
# Mechanical properties :
#
#
# Convention : Reuss Voigt Hill
#
# Bulk Modulus (GPa) = 66.60370 67.09905 66.85138
# Shear Modulus (GPa) = 33.78753 39.59820 36.69286
#
# Velocity S-wave (km/s) = 3.87226 4.19203 4.03531
# Velocity P-wave (km/s) = 7.03920 7.29441 7.16794
#
# Compressibility (1/GPa) = 0.01501418
#
# Stress axis : x y z
#
# Youngs Moduli (GPa) = 125.02645 106.45497 127.36370
#
# Poissons Ratio (x) = 0.17527 0.20211
# Poissons Ratio (y) = 0.20585 0.23962
# Poissons Ratio (z) = 0.19840 0.20028
#
# Static dielectric constant tensor:
#      x y z
#    x 1.800860 0.000000 0.000000 
#    y 0.000000 1.888960 0.000000 
#    z 0.000000 0.000000 1.832320 
# 
# From -- ./inp_files/24754.got.cif
#   From: 2010.05.17/outbox.cif.g08.bks.cpg/sg60_13_cif.got.tgz:24754.got - 2010.06.03 14:59:27.
