data_PCOD9458618
_publ_section_title
;
Structure prediction by ZEFSAII (Michael W. Deem and Ramdas Pophale) SiO2 
 PCOD9458618
Probable space group: P B C N
;
_chemical_formula_sum "Si O2"
_cell_formula_units_Z 24
_cell_length_a 9.192742
_cell_length_b 19.953858
_cell_length_c 4.810508
_cell_angle_alpha 90.000000
_cell_angle_beta 90.000000
_cell_angle_gamma 90.000000
_cell_volume 882.394698
_symmetry_space_group_name_H-M "P B C N"
_symmetry_group_IT_number 60
_symmetry_cell_setting 'orthorhombic'
loop_
_space_group_symop_operation_xyz
x,y,z
1/2-x,1/2-y,1/2+z
1/2+x,1/2-y,-z
-x,y,1/2-z
-x,-y,-z
1/2+x,1/2+y,1/2-z
1/2-x,1/2+y,z
x,-y,1/2+z
loop_
_atom_site_type_symbol
_atom_site_label
_atom_site_fract_x
_atom_site_fract_y
_atom_site_fract_z
Si Si1 0.500000 0.362965 0.250000
Si Si2 0.500000 0.126914 0.250000
Si Si3 0.788698 0.452591 0.168028
Si Si4 0.346865 0.247305 0.545092
O O1 0.363683 0.412589 0.306607
O O2 0.458723 0.307095 0.483582
O O3 0.593621 0.089264 0.489288
O O4 0.397249 0.176437 0.425323
O O5 0.798981 0.521146 0.984856
O O6 0.292465 0.236024 0.854364
#
# Coordination Sequence:
#
# PCOD9458618 Si02
#       4
#     4   4   8   8
#     4  11  26  50  76 112 152 201 268 322 402 467
#     4  11  26  50  76 112 152 201 268 322 402 467
#     4  12  28  48  76 108 156 208 256 318 386 480
#     4  11  26  47  78 110 151 197 254 342 389 462
#
# _framework density 27.198709999999998
#
# number of rings (size 3 to 8) (size 9 to 14) (size 15 to 20)
#    0.000    0.667    3.333    2.000    4.667   10.667 
#    0.000    0.000    0.000    0.000    0.000    0.000 
#    0.000    0.000    0.000    0.000    0.000    0.000 
#
# Total GULP energy -133994.115415 kJ/mol
# GULP energy per Si atom -5583.088142 kJ/mol
# Density = 2.713680 g / cm^3
# Si number density = 27.198710 Si / 1000 Ang^3
#
#
#
# Elastic Constant Matrix: (Units=GPa)
#
#
# Indices 1 2 3 4 5 6 
#
# 1 169.4450 73.9059 67.4722 0.0000 0.0000 0.0000
# 2 73.9059 126.7299 20.6554 0.0000 0.0000 0.0000
# 3 67.4722 20.6554 142.8724 0.0000 0.0000 0.0000
# 4 0.0000 0.0000 0.0000 -3.7594 0.0000 0.0000
# 5 0.0000 0.0000 0.0000 0.0000 63.7427 0.0000
# 6 0.0000 0.0000 0.0000 0.0000 0.0000 37.3122
#
#
#
# Elastic Compliance Matrix: (Units=1/GPa)
#
#
# Indices 1 2 3 4 5 6 
#
# 1 0.009586 -0.004969 -0.003808 0.000000 0.000000 0.000000
# 2 -0.004969 0.010657 0.000806 0.000000 0.000000 0.000000
# 3 -0.003808 0.000806 0.008681 0.000000 0.000000 0.000000
# 4 0.000000 0.000000 0.000000 -0.265998 0.000000 0.000000
# 5 0.000000 0.000000 0.000000 0.000000 0.015688 0.000000
# 6 0.000000 0.000000 0.000000 0.000000 0.000000 0.026801
#
#
# Mechanical properties :
#
#
# Convention : Reuss Voigt Hill
#
# Bulk Modulus (GPa) = 77.03676 84.79047 80.91362
# Shear Modulus (GPa) = -28.68387 37.92667 4.62140
#
# Velocity S-wave (km/s) = -3.25099 3.73826 1.30492
# Velocity P-wave (km/s) = 3.78064 7.06221 5.66428
#
# Compressibility (1/GPa) = 0.01298082
#
# Stress axis : x y z
#
# Youngs Moduli (GPa) = 104.32361 93.83123 115.19069
#
# Poissons Ratio (x) = 0.46628 0.43869
# Poissons Ratio (y) = 0.51842 -0.09285
# Poissons Ratio (z) = 0.39731 -0.07563
#
# Static dielectric constant tensor:
#      x y z
#    x 2.493990 0.000000 0.000000 
#    y 0.000000 2.114330 0.000000 
#    z 0.000000 0.000000 2.093540 
# 
# From -- ./inp_files/242.got.cif
#   From: 2010.05.17/outbox.cif.g08.bks.cpg/sg60_1_cif.got.tgz:242.got - 2010.06.03 14:59:27.
