data_PCOD9458312
_publ_section_title
;
Structure prediction by ZEFSAII (Michael W. Deem and Ramdas Pophale) SiO2 
 PCOD9458312
Probable space group: P B C N
;
_chemical_formula_sum "Si O2"
_cell_formula_units_Z 64
_cell_length_a 30.533532
_cell_length_b 8.454645
_cell_length_c 10.668938
_cell_angle_alpha 90.000000
_cell_angle_beta 90.000000
_cell_angle_gamma 90.000000
_cell_volume 2754.188197
_symmetry_space_group_name_H-M "P B C N"
_symmetry_group_IT_number 60
_symmetry_cell_setting 'orthorhombic'
loop_
_space_group_symop_operation_xyz
x,y,z
1/2-x,1/2-y,1/2+z
1/2+x,1/2-y,-z
-x,y,1/2-z
-x,-y,-z
1/2+x,1/2+y,1/2-z
1/2-x,1/2+y,z
x,-y,1/2+z
loop_
_atom_site_type_symbol
_atom_site_label
_atom_site_fract_x
_atom_site_fract_y
_atom_site_fract_z
Si Si1 0.447211 0.851628 0.247554
Si Si2 0.270176 0.222178 0.294356
Si Si3 0.729697 0.520335 0.532114
Si Si4 0.605044 0.326962 0.422337
Si Si5 0.677912 0.057799 0.406529
Si Si6 0.449231 0.953073 0.511913
Si Si7 0.315455 0.716061 0.157195
Si Si8 0.889851 0.938554 0.693546
O O1 0.500000 0.852976 0.250000
O O2 0.431286 0.951098 0.369604
O O3 0.429848 0.675407 0.265586
O O4 0.431676 0.929686 0.118458
O O5 0.290447 0.374486 0.356510
O O6 0.304798 0.105757 0.232566
O O7 0.233106 0.273565 0.196601
O O8 0.241868 0.141241 0.403034
O O9 0.778267 0.572414 0.488753
O O10 0.696452 0.557055 0.420597
O O11 0.641849 0.189032 0.438109
O O12 0.560412 0.224359 0.438032
O O13 0.608631 0.412051 0.287657
O O14 0.608369 0.446232 0.541960
O O15 0.665825 0.871849 0.411207
O O16 0.500000 0.000000 0.500000
O O17 0.347467 0.664725 0.266735
#
# Coordination Sequence:
#
# PCOD9458312 Si02
#       8
#     8   8   8   8   8   8   8   8
#     4   9  19  41  70 100 135 171 221 273 340 410
#     4  11  23  39  60  87 124 172 224 284 340 398
#     4  11  23  39  59  87 125 170 227 281 344 399
#     4  11  26  44  66  98 144 178 232 283 341 416
#     4  11  24  41  59  92 124 178 232 281 337 409
#     4   9  19  41  71 101 132 174 220 278 335 414
#     4  11  24  38  63  88 125 176 224 284 340 403
#     4  11  26  43  64  99 136 181 221 286 347 399
#
# _framework density 23.237338000000001
#
# number of rings (size 3 to 8) (size 9 to 14) (size 15 to 20)
#    0.000    1.500    2.500    1.500    5.250    1.000 
#    0.000    7.500    0.000    0.000    0.000    0.000 
#    0.000    0.000    0.000    0.000    0.000    0.000 
#
# Total GULP energy -357047.438380 kJ/mol
# GULP energy per Si atom -5578.866225 kJ/mol
# Density = 2.318445 g / cm^3
# Si number density = 23.237338 Si / 1000 Ang^3
#
#
#
# Elastic Constant Matrix: (Units=GPa)
#
#
# Indices 1 2 3 4 5 6 
#
# 1 70.8838 23.1514 33.3323 0.0000 0.0000 0.0000
# 2 23.1514 83.0323 33.1361 0.0000 0.0000 0.0000
# 3 33.3323 33.1361 69.8215 0.0000 0.0000 0.0000
# 4 0.0000 0.0000 0.0000 42.9217 0.0000 0.0000
# 5 0.0000 0.0000 0.0000 0.0000 22.5050 0.0000
# 6 0.0000 0.0000 0.0000 0.0000 0.0000 31.6769
#
#
#
# Elastic Compliance Matrix: (Units=1/GPa)
#
#
# Indices 1 2 3 4 5 6 
#
# 1 0.018460 -0.002011 -0.007858 0.000000 0.000000 0.000000
# 2 -0.002011 0.015076 -0.006195 0.000000 0.000000 0.000000
# 3 -0.007858 -0.006195 0.021014 0.000000 0.000000 0.000000
# 4 0.000000 0.000000 0.000000 0.023298 0.000000 0.000000
# 5 0.000000 0.000000 0.000000 0.000000 0.044435 0.000000
# 6 0.000000 0.000000 0.000000 0.000000 0.000000 0.031569
#
#
# Mechanical properties :
#
#
# Convention : Reuss Voigt Hill
#
# Bulk Modulus (GPa) = 44.59994 44.77524 44.68759
# Shear Modulus (GPa) = 25.84603 28.36191 27.10397
#
# Velocity S-wave (km/s) = 3.33868 3.49740 3.41896
# Velocity P-wave (km/s) = 5.83929 5.96821 5.90410
#
# Compressibility (1/GPa) = 0.02242155
#
# Stress axis : x y z
#
# Youngs Moduli (GPa) = 54.17244 66.32840 47.58805
#
# Poissons Ratio (x) = 0.13339 0.37395
# Poissons Ratio (y) = 0.10894 0.29481
# Poissons Ratio (z) = 0.42569 0.41091
#
# Static dielectric constant tensor:
#      x y z
#    x 1.893550 0.000000 0.000000 
#    y 0.000000 1.902530 0.000000 
#    z 0.000000 0.000000 1.956340 
# 
# From -- ./inp_files/13387.got.cif
#   From: 2010.05.17/outbox.cif.g08.bks.cpg/sg60_7_cif.got.tgz:13387.got - 2010.06.03 14:59:27.
