data_PCOD9458523
_publ_section_title
;
Structure prediction by ZEFSAII (Michael W. Deem and Ramdas Pophale) SiO2 
 PCOD9458523
Probable space group: P B C N
;
_chemical_formula_sum "Si O2"
_cell_formula_units_Z 32
_cell_length_a 7.576216
_cell_length_b 19.358075
_cell_length_c 9.431037
_cell_angle_alpha 90.000000
_cell_angle_beta 90.000000
_cell_angle_gamma 90.000000
_cell_volume 1383.164917
_symmetry_space_group_name_H-M "P B C N"
_symmetry_group_IT_number 60
_symmetry_cell_setting 'orthorhombic'
loop_
_space_group_symop_operation_xyz
x,y,z
1/2-x,1/2-y,1/2+z
1/2+x,1/2-y,-z
-x,y,1/2-z
-x,-y,-z
1/2+x,1/2+y,1/2-z
1/2-x,1/2+y,z
x,-y,1/2+z
loop_
_atom_site_type_symbol
_atom_site_label
_atom_site_fract_x
_atom_site_fract_y
_atom_site_fract_z
Si Si1 0.151625 0.720605 0.363616
Si Si2 0.195560 0.578830 0.312560
Si Si3 0.906258 0.349624 0.100089
Si Si4 0.798404 0.018414 0.465097
O O1 0.270629 0.656053 0.309927
O O2 0.264515 0.788120 0.384842
O O3 0.000000 0.736348 0.250000
O O4 0.052985 0.685744 0.497674
O O5 0.193592 0.545437 0.466943
O O6 0.000000 0.584965 0.250000
O O7 0.288390 0.528062 0.202895
O O8 0.794830 0.413729 0.033788
O O9 0.000000 0.367217 0.250000
O O10 0.000000 0.000000 0.500000
#
# Coordination Sequence:
#
# PCOD9458523 Si02
#       4
#     8   8   8   8
#     4  11  25  48  75 105 152 196 245 309 380 437
#     4  11  24  47  72 101 147 192 242 312 372 439
#     4  12  27  46  77 111 149 198 252 308 374 455
#     4  12  27  45  73 109 148 191 249 305 374 449
#
# _framework density 23.135345999999998
#
# number of rings (size 3 to 8) (size 9 to 14) (size 15 to 20)
#    0.000    0.500    5.000    3.750    7.000    2.000 
#    0.000    0.000    0.000    0.000    0.000    0.000 
#    0.000    0.000    0.000    0.000    0.000    0.000 
#
# Total GULP energy -178906.143464 kJ/mol
# GULP energy per Si atom -5590.816983 kJ/mol
# Density = 2.308269 g / cm^3
# Si number density = 23.135346 Si / 1000 Ang^3
#
#
#
# Elastic Constant Matrix: (Units=GPa)
#
#
# Indices 1 2 3 4 5 6 
#
# 1 87.8325 41.5414 31.5398 0.0000 0.0000 0.0000
# 2 41.5414 133.4444 9.1732 0.0000 0.0000 0.0000
# 3 31.5398 9.1732 100.4648 0.0000 0.0000 0.0000
# 4 0.0000 0.0000 0.0000 41.1320 0.0000 0.0000
# 5 0.0000 0.0000 0.0000 0.0000 37.5014 0.0000
# 6 0.0000 0.0000 0.0000 0.0000 0.0000 39.0877
#
#
#
# Elastic Compliance Matrix: (Units=1/GPa)
#
#
# Indices 1 2 3 4 5 6 
#
# 1 0.015002 -0.004374 -0.004310 0.000000 0.000000 0.000000
# 2 -0.004374 0.008816 0.000568 0.000000 0.000000 0.000000
# 3 -0.004310 0.000568 0.011255 0.000000 0.000000 0.000000
# 4 0.000000 0.000000 0.000000 0.024312 0.000000 0.000000
# 5 0.000000 0.000000 0.000000 0.000000 0.026666 0.000000
# 6 0.000000 0.000000 0.000000 0.000000 0.000000 0.025583
#
#
# Mechanical properties :
#
#
# Convention : Reuss Voigt Hill
#
# Bulk Modulus (GPa) = 53.07533 54.02786 53.55159
# Shear Modulus (GPa) = 37.27273 39.51004 38.39138
#
# Velocity S-wave (km/s) = 4.01817 4.13701 4.07802
# Velocity P-wave (km/s) = 6.67223 6.79878 6.73580
#
# Compressibility (1/GPa) = 0.01884115
#
# Stress axis : x y z
#
# Youngs Moduli (GPa) = 66.65914 113.42679 88.84920
#
# Poissons Ratio (x) = 0.49610 0.38296
# Poissons Ratio (y) = 0.29155 -0.05048
# Poissons Ratio (z) = 0.28732 -0.06444
#
# Static dielectric constant tensor:
#      x y z
#    x 2.029440 0.000000 0.000000 
#    y 0.000000 1.880280 0.000000 
#    z 0.000000 0.000000 1.958650 
# 
# From -- ./inp_files/3615.got.cif
#   From: 2010.05.17/outbox.cif.g08.bks.cpg/sg60_2_cif.got.tgz:3615.got - 2010.06.03 14:59:27.
