data_PCOD9458239
_publ_section_title
;
Structure prediction by ZEFSAII (Michael W. Deem and Ramdas Pophale) SiO2 
 PCOD9458239
Probable space group: P B C N
;
_chemical_formula_sum "Si O2"
_cell_formula_units_Z 48
_cell_length_a 16.578503
_cell_length_b 15.104115
_cell_length_c 8.712296
_cell_angle_alpha 90.000000
_cell_angle_beta 90.000000
_cell_angle_gamma 90.000000
_cell_volume 2181.590421
_symmetry_space_group_name_H-M "P B C N"
_symmetry_group_IT_number 60
_symmetry_cell_setting 'orthorhombic'
loop_
_space_group_symop_operation_xyz
x,y,z
1/2-x,1/2-y,1/2+z
1/2+x,1/2-y,-z
-x,y,1/2-z
-x,-y,-z
1/2+x,1/2+y,1/2-z
1/2-x,1/2+y,z
x,-y,1/2+z
loop_
_atom_site_type_symbol
_atom_site_label
_atom_site_fract_x
_atom_site_fract_y
_atom_site_fract_z
Si Si1 0.556984 0.952864 0.624003
Si Si2 0.500000 0.746922 0.250000
Si Si3 0.426014 0.615282 0.029883
Si Si4 0.329603 0.052804 0.646918
Si Si5 0.000000 0.972809 0.250000
Si Si6 0.248772 0.641603 0.123060
Si Si7 0.182930 0.713905 0.828204
O O1 0.500000 0.902117 0.750000
O O2 0.627818 0.915942 0.512544
O O3 0.500000 0.000000 0.500000
O O4 0.601755 0.023691 0.731066
O O5 0.484707 0.689269 0.097581
O O6 0.411650 0.786707 0.279538
O O7 0.442332 0.533925 0.146336
O O8 0.334690 0.643599 0.039635
O O9 0.448418 0.585701 0.862706
O O10 0.282084 0.132429 0.727052
O O11 0.280733 0.960224 0.631727
O O12 0.270405 0.696615 0.277258
O O13 0.189492 0.692712 0.007726
#
# Coordination Sequence:
#
# PCOD9458239 Si02
#       7
#     8   4   8   8   4   8   8
#     4   9  20  36  62  95 127 170 220 263 320 398
#     4   9  22  44  62  88 133 172 214 275 328 392
#     4   9  20  39  62  94 126 166 219 270 330 390
#     4  11  22  41  65  95 130 176 219 269 338 394
#     4   9  18  36  68  94 119 170 220 269 326 394
#     4  11  26  43  63 100 131 179 220 278 335 401
#     4  11  26  44  68  95 139 173 227 276 339 399
#
# _framework density 22.002296000000001
#
# number of rings (size 3 to 8) (size 9 to 14) (size 15 to 20)
#    0.000    2.000    1.667    0.000    8.167    1.333 
#    6.000    0.000    7.333    0.000    0.000    0.000 
#    0.000    0.000    0.000    0.000    0.000    0.000 
#
# Total GULP energy -267465.473502 kJ/mol
# GULP energy per Si atom -5572.197365 kJ/mol
# Density = 2.195222 g / cm^3
# Si number density = 22.002296 Si / 1000 Ang^3
#
#
#
# Elastic Constant Matrix: (Units=GPa)
#
#
# Indices 1 2 3 4 5 6 
#
# 1 51.0121 24.7566 23.0435 0.0000 0.0000 0.0000
# 2 24.7566 57.4766 0.3132 0.0000 0.0000 0.0000
# 3 23.0435 0.3132 73.3469 0.0000 0.0000 0.0000
# 4 0.0000 0.0000 0.0000 2.1621 0.0000 0.0000
# 5 0.0000 0.0000 0.0000 0.0000 9.9663 0.0000
# 6 0.0000 0.0000 0.0000 0.0000 0.0000 -16.4932
#
#
#
# Elastic Compliance Matrix: (Units=1/GPa)
#
#
# Indices 1 2 3 4 5 6 
#
# 1 0.030126 -0.012925 -0.009410 0.000000 0.000000 0.000000
# 2 -0.012925 0.022944 0.003963 0.000000 0.000000 0.000000
# 3 -0.009410 0.003963 0.016573 0.000000 0.000000 0.000000
# 4 0.000000 0.000000 0.000000 0.462510 0.000000 0.000000
# 5 0.000000 0.000000 0.000000 0.000000 0.100338 0.000000
# 6 0.000000 0.000000 0.000000 0.000000 0.000000 -0.060631
#
#
# Mechanical properties :
#
#
# Convention : Reuss Voigt Hill
#
# Bulk Modulus (GPa) = 30.39550 30.89580 30.64565
# Shear Modulus (GPa) = 8.07011 8.04188 8.05599
#
# Velocity S-wave (km/s) = 1.91724 1.91388 1.91556
# Velocity P-wave (km/s) = 4.32964 4.35391 4.34179
#
# Compressibility (1/GPa) = 0.03289961
#
# Stress axis : x y z
#
# Youngs Moduli (GPa) = 33.19363 43.58476 60.33860
#
# Poissons Ratio (x) = 0.56333 0.56776
# Poissons Ratio (y) = 0.42902 -0.23910
# Poissons Ratio (z) = 0.31234 -0.17271
#
# Static dielectric constant tensor:
#      x y z
#    x 1.853920 0.000000 0.000000 
#    y 0.000000 1.799120 0.000000 
#    z 0.000000 0.000000 1.813230 
# 
# From -- ./inp_files/6763.got.cif
#   From: 2010.05.17/outbox.cif.g08.bks.cpg/sg60_4_cif.got.tgz:6763.got - 2010.06.03 14:59:27.
