data_PCOD9458200
_publ_section_title
;
Structure prediction by ZEFSAII (Michael W. Deem and Ramdas Pophale) SiO2 
 PCOD9458200
Probable space group: P B C N
;
_chemical_formula_sum "Si O2"
_cell_formula_units_Z 56
_cell_length_a 19.775979
_cell_length_b 15.658075
_cell_length_c 8.430931
_cell_angle_alpha 90.000000
_cell_angle_beta 90.000000
_cell_angle_gamma 90.000000
_cell_volume 2610.669505
_symmetry_space_group_name_H-M "P B C N"
_symmetry_group_IT_number 60
_symmetry_cell_setting 'orthorhombic'
loop_
_space_group_symop_operation_xyz
x,y,z
1/2-x,1/2-y,1/2+z
1/2+x,1/2-y,-z
-x,y,1/2-z
-x,-y,-z
1/2+x,1/2+y,1/2-z
1/2-x,1/2+y,z
x,-y,1/2+z
loop_
_atom_site_type_symbol
_atom_site_label
_atom_site_fract_x
_atom_site_fract_y
_atom_site_fract_z
Si Si1 0.644470 0.475043 0.443398
Si Si2 0.288300 0.153011 0.851462
Si Si3 0.757681 0.040415 0.204712
Si Si4 0.421120 0.769736 0.265068
Si Si5 0.074679 0.188311 0.616179
Si Si6 0.814377 0.704182 0.282459
Si Si7 0.959427 0.119715 0.421176
O O1 0.676657 0.437189 0.600541
O O2 0.705837 0.528505 0.372468
O O3 0.619710 0.394342 0.344187
O O4 0.581011 0.535792 0.465049
O O5 0.360603 0.164190 0.763608
O O6 0.234738 0.219675 0.775922
O O7 0.269190 0.054115 0.831720
O O8 0.297191 0.180910 0.034594
O O9 0.704257 0.116516 0.192534
O O10 0.500000 0.799221 0.250000
O O11 0.414331 0.723805 0.435877
O O12 0.412066 0.698432 0.129821
O O13 0.107585 0.263264 0.721511
O O14 0.000359 0.151135 0.576970
O O15 0.000000 0.105303 0.250000
#
# Coordination Sequence:
#
# PCOD9458200 Si02
#       7
#     8   8   8   8   8   8   8
#     4  12  21  37  55  91 128 163 214 255 324 396
#     4  11  22  38  63  91 117 164 206 269 323 378
#     4  12  24  36  57  93 128 170 207 262 324 386
#     4   8  17  35  58  82 108 151 206 253 313 378
#     4   9  18  33  56  82 117 159 203 257 313 376
#     4  11  22  40  60  89 129 162 219 267 320 392
#     4   9  18  35  60  89 120 167 210 263 329 392
#
# _framework density 21.450437000000001
#
# number of rings (size 3 to 8) (size 9 to 14) (size 15 to 20)
#    0.000    2.000    2.857    4.714    0.000    0.000 
#    0.000    0.000    0.000    7.714    0.000    0.000 
#    0.000    0.000    0.000    0.000    0.000    0.000 
#
# Total GULP energy -311934.111363 kJ/mol
# GULP energy per Si atom -5570.251989 kJ/mol
# Density = 2.140161 g / cm^3
# Si number density = 21.450437 Si / 1000 Ang^3
#
#
#
# Elastic Constant Matrix: (Units=GPa)
#
#
# Indices 1 2 3 4 5 6 
#
# 1 34.9919 18.0701 11.3020 0.0000 0.0000 0.0000
# 2 18.0701 94.3511 5.6660 0.0000 0.0000 0.0000
# 3 11.3020 5.6660 39.3363 0.0000 0.0000 0.0000
# 4 0.0000 0.0000 0.0000 11.3425 0.0000 0.0000
# 5 0.0000 0.0000 0.0000 0.0000 -112.3659 0.0000
# 6 0.0000 0.0000 0.0000 0.0000 0.0000 51.5374
#
#
#
# Elastic Compliance Matrix: (Units=1/GPa)
#
#
# Indices 1 2 3 4 5 6 
#
# 1 0.034657 -0.006092 -0.009080 0.000000 0.000000 0.000000
# 2 -0.006092 0.011762 0.000056 0.000000 0.000000 0.000000
# 3 -0.009080 0.000056 0.028023 0.000000 0.000000 0.000000
# 4 0.000000 0.000000 0.000000 0.088164 0.000000 0.000000
# 5 0.000000 0.000000 0.000000 0.000000 -0.008899 0.000000
# 6 0.000000 0.000000 0.000000 0.000000 0.000000 0.019403
#
#
# Mechanical properties :
#
#
# Convention : Reuss Voigt Hill
#
# Bulk Modulus (GPa) = 22.61959 26.52838 24.57398
# Shear Modulus (GPa) = 22.92758 -0.98779 10.96990
#
# Velocity S-wave (km/s) = 3.27289 -0.67934 2.26388
# Velocity P-wave (km/s) = 4.98502 3.43203 4.27956
#
# Compressibility (1/GPa) = 0.04420948
#
# Stress axis : x y z
#
# Youngs Moduli (GPa) = 28.85438 85.01875 35.68556
#
# Poissons Ratio (x) = 0.51795 0.32402
# Poissons Ratio (y) = 0.17579 -0.00200
# Poissons Ratio (z) = 0.26200 -0.00478
#
# Static dielectric constant tensor:
#      x y z
#    x 1.875860 0.000000 0.000000 
#    y 0.000000 1.770300 0.000000 
#    z 0.000000 0.000000 2.205690 
# 
# From -- ./inp_files/7386.got.cif
#   From: 2010.05.17/outbox.cif.g08.bks.cpg/sg60_4_cif.got.tgz:7386.got - 2010.06.03 14:59:27.
