data_PCOD9458518
_publ_section_title
;
Structure prediction by ZEFSAII (Michael W. Deem and Ramdas Pophale) SiO2 
 PCOD9458518
Probable space group: P B C N
;
_chemical_formula_sum "Si O2"
_cell_formula_units_Z 40
_cell_length_a 23.565965
_cell_length_b 7.615868
_cell_length_c 8.726956
_cell_angle_alpha 90.000000
_cell_angle_beta 90.000000
_cell_angle_gamma 90.000000
_cell_volume 1566.272861
_symmetry_space_group_name_H-M "P B C N"
_symmetry_group_IT_number 60
_symmetry_cell_setting 'orthorhombic'
loop_
_space_group_symop_operation_xyz
x,y,z
1/2-x,1/2-y,1/2+z
1/2+x,1/2-y,-z
-x,y,1/2-z
-x,-y,-z
1/2+x,1/2+y,1/2-z
1/2-x,1/2+y,z
x,-y,1/2+z
loop_
_atom_site_type_symbol
_atom_site_label
_atom_site_fract_x
_atom_site_fract_y
_atom_site_fract_z
Si Si1 0.558475 0.250059 0.692464
Si Si2 0.215157 0.610234 0.557065
Si Si3 0.168866 0.711028 0.247085
Si Si4 0.552677 0.104386 0.358833
Si Si5 0.816752 0.106735 0.184790
O O1 0.500000 0.342073 0.750000
O O2 0.543341 0.146571 0.536062
O O3 0.615952 0.358757 0.661867
O O4 0.570159 0.096057 0.816888
O O5 0.171100 0.630287 0.416657
O O6 0.299306 0.927398 0.638611
O O7 0.200825 0.756843 0.683471
O O8 0.274491 0.625356 0.460772
O O9 0.105316 0.723124 0.189986
O O10 0.192511 0.906789 0.263552
O O11 0.500000 0.145909 0.250000
#
# Coordination Sequence:
#
# PCOD9458518 Si02
#       5
#     8   8   8   8   8
#     4  11  25  50  84 126 172 231 289 360 440 520
#     4  12  33  53  82 121 176 223 290 361 444 522
#     4  12  31  53  85 122 171 229 288 358 437 524
#     4  11  24  46  83 124 172 231 287 355 435 514
#     4  12  33  54  88 127 174 231 295 365 437 534
#
# _framework density 25.538336000000001
#
# number of rings (size 3 to 8) (size 9 to 14) (size 15 to 20)
#    0.000    0.400    2.000    3.600   14.000    2.400 
#    0.000    2.000    0.000    0.000    0.000    0.000 
#    0.000    0.000    0.000    0.000    0.000    0.000 
#
# Total GULP energy -224189.433125 kJ/mol
# GULP energy per Si atom -5604.735828 kJ/mol
# Density = 2.548021 g / cm^3
# Si number density = 25.538336 Si / 1000 Ang^3
#
#
#
# Elastic Constant Matrix: (Units=GPa)
#
#
# Indices 1 2 3 4 5 6 
#
# 1 180.9322 39.9588 66.9046 0.0000 0.0000 0.0000
# 2 39.9588 153.6262 84.2187 0.0000 0.0000 0.0000
# 3 66.9046 84.2187 211.6868 0.0000 0.0000 0.0000
# 4 0.0000 0.0000 0.0000 46.9273 0.0000 0.0000
# 5 0.0000 0.0000 0.0000 0.0000 52.5641 0.0000
# 6 0.0000 0.0000 0.0000 0.0000 0.0000 42.1777
#
#
#
# Elastic Compliance Matrix: (Units=1/GPa)
#
#
# Indices 1 2 3 4 5 6 
#
# 1 0.006317 -0.000702 -0.001717 0.000000 0.000000 0.000000
# 2 -0.000702 0.008403 -0.003121 0.000000 0.000000 0.000000
# 3 -0.001717 -0.003121 0.006509 0.000000 0.000000 0.000000
# 4 0.000000 0.000000 0.000000 0.021310 0.000000 0.000000
# 5 0.000000 0.000000 0.000000 0.000000 0.019024 0.000000
# 6 0.000000 0.000000 0.000000 0.000000 0.000000 0.023709
#
#
# Mechanical properties :
#
#
# Convention : Reuss Voigt Hill
#
# Bulk Modulus (GPa) = 98.54326 103.15659 100.84993
# Shear Modulus (GPa) = 50.13298 52.01136 51.07217
#
# Velocity S-wave (km/s) = 4.43544 4.51777 4.47679
# Velocity P-wave (km/s) = 8.05611 8.22764 8.14233
#
# Compressibility (1/GPa) = 0.01014783
#
# Stress axis : x y z
#
# Youngs Moduli (GPa) = 158.30503 119.00626 153.64411
#
# Poissons Ratio (x) = 0.08349 0.26386
# Poissons Ratio (y) = 0.11106 0.47957
# Poissons Ratio (z) = 0.27187 0.37146
#
# Static dielectric constant tensor:
#      x y z
#    x 2.115610 0.000000 0.000000 
#    y 0.000000 1.980790 0.000000 
#    z 0.000000 0.000000 2.014290 
# 
# From -- ./inp_files/3879.got.cif
#   From: 2010.05.17/outbox.cif.g08.bks.cpg/sg60_2_cif.got.tgz:3879.got - 2010.06.03 14:59:27.
