data_PCOD9458703
_publ_section_title
;
Structure prediction by ZEFSAII (Michael W. Deem and Ramdas Pophale) SiO2 
 PCOD9458703
Probable space group: P B C N
;
_chemical_formula_sum "Si O2"
_cell_formula_units_Z 40
_cell_length_a 23.546425
_cell_length_b 9.047210
_cell_length_c 8.408508
_cell_angle_alpha 90.000000
_cell_angle_beta 90.000000
_cell_angle_gamma 90.000000
_cell_volume 1791.259849
_symmetry_space_group_name_H-M "P B C N"
_symmetry_group_IT_number 60
_symmetry_cell_setting 'orthorhombic'
loop_
_space_group_symop_operation_xyz
x,y,z
1/2-x,1/2-y,1/2+z
1/2+x,1/2-y,-z
-x,y,1/2-z
-x,-y,-z
1/2+x,1/2+y,1/2-z
1/2-x,1/2+y,z
x,-y,1/2+z
loop_
_atom_site_type_symbol
_atom_site_label
_atom_site_fract_x
_atom_site_fract_y
_atom_site_fract_z
Si Si1 0.215045 0.847350 0.420831
Si Si2 0.958124 0.090311 0.888001
Si Si3 0.651421 0.434602 0.768883
Si Si4 0.683533 0.955154 0.698974
Si Si5 0.129692 0.680592 0.983449
O O1 0.198767 0.898724 0.598195
O O2 0.209411 0.673032 0.411314
O O3 0.164480 0.911134 0.314428
O O4 0.269208 0.917241 0.331166
O O5 0.925913 0.235563 0.953129
O O6 0.000000 0.139605 0.750000
O O7 0.910143 0.967654 0.841417
O O8 0.000000 0.000000 0.000000
O O9 0.653101 0.311843 0.631289
O O10 0.668295 0.880219 0.868409
O O11 0.627481 0.035506 0.628878
#
# Coordination Sequence:
#
# PCOD9458703 Si02
#       5
#     8   8   8   8   8
#     4  12  24  43  72 112 160 207 250 311 394 487
#     4  12  24  47  82 114 146 207 281 334 401 468
#     4  12  23  45  78 112 154 207 266 327 387 480
#     4  12  27  46  72 115 162 207 254 311 405 482
#     4  12  26  49  75 115 161 205 264 336 387 484
#
# _framework density 22.330653000000002
#
# number of rings (size 3 to 8) (size 9 to 14) (size 15 to 20)
#    0.000    0.000    6.000    3.600    0.000    3.200 
#    0.000    1.000    0.000    0.000    0.000    0.000 
#    0.000    0.000    0.000    0.000    0.000    0.000 
#
# Total GULP energy -223078.168952 kJ/mol
# GULP energy per Si atom -5576.954224 kJ/mol
# Density = 2.227983 g / cm^3
# Si number density = 22.330653 Si / 1000 Ang^3
#
#
#
# Elastic Constant Matrix: (Units=GPa)
#
#
# Indices 1 2 3 4 5 6 
#
# 1 137.1472 54.6240 62.0443 0.0000 0.0000 0.0000
# 2 54.6240 147.3704 38.4080 0.0000 0.0000 0.0000
# 3 62.0443 38.4080 110.5964 0.0000 0.0000 0.0000
# 4 0.0000 0.0000 0.0000 48.6815 0.0000 0.0000
# 5 0.0000 0.0000 0.0000 0.0000 55.0015 0.0000
# 6 0.0000 0.0000 0.0000 0.0000 0.0000 46.0553
#
#
#
# Elastic Compliance Matrix: (Units=1/GPa)
#
#
# Indices 1 2 3 4 5 6 
#
# 1 0.010618 -0.002620 -0.005047 0.000000 0.000000 0.000000
# 2 -0.002620 0.008108 -0.001346 0.000000 0.000000 0.000000
# 3 -0.005047 -0.001346 0.012340 0.000000 0.000000 0.000000
# 4 0.000000 0.000000 0.000000 0.020542 0.000000 0.000000
# 5 0.000000 0.000000 0.000000 0.000000 0.018181 0.000000
# 6 0.000000 0.000000 0.000000 0.000000 0.000000 0.021713
#
#
# Mechanical properties :
#
#
# Convention : Reuss Voigt Hill
#
# Bulk Modulus (GPa) = 76.68300 78.36295 77.52298
# Shear Modulus (GPa) = 43.90790 45.95018 44.92904
#
# Velocity S-wave (km/s) = 4.43907 4.54113 4.49039
# Velocity P-wave (km/s) = 7.79026 7.91606 7.85341
#
# Compressibility (1/GPa) = 0.01304070
#
# Stress axis : x y z
#
# Youngs Moduli (GPa) = 94.17747 123.34133 81.03457
#
# Poissons Ratio (x) = 0.32321 0.40896
# Poissons Ratio (y) = 0.24679 0.10904
# Poissons Ratio (z) = 0.47529 0.16596
#
# Static dielectric constant tensor:
#      x y z
#    x 1.898030 0.000000 0.000000 
#    y 0.000000 1.849630 0.000000 
#    z 0.000000 0.000000 1.931460 
# 
# From -- ./inp_files/7748.got.cif
#   From: 2010.05.17/outbox.cif.g08.bks.cpg/sg60_4_cif.got.tgz:7748.got - 2010.06.03 14:59:27.
