data_PCOD9458806
_publ_section_title
;
Structure prediction by ZEFSAII (Michael W. Deem and Ramdas Pophale) SiO2 
 PCOD9458806
Probable space group: P B C N
;
_chemical_formula_sum "Si O2"
_cell_formula_units_Z 24
_cell_length_a 7.884851
_cell_length_b 15.027219
_cell_length_c 7.785876
_cell_angle_alpha 90.000000
_cell_angle_beta 90.000000
_cell_angle_gamma 90.000000
_cell_volume 922.528070
_symmetry_space_group_name_H-M "P B C N"
_symmetry_group_IT_number 60
_symmetry_cell_setting 'orthorhombic'
loop_
_space_group_symop_operation_xyz
x,y,z
1/2-x,1/2-y,1/2+z
1/2+x,1/2-y,-z
-x,y,1/2-z
-x,-y,-z
1/2+x,1/2+y,1/2-z
1/2-x,1/2+y,z
x,-y,1/2+z
loop_
_atom_site_type_symbol
_atom_site_label
_atom_site_fract_x
_atom_site_fract_y
_atom_site_fract_z
Si Si1 0.203857 0.875492 0.592535
Si Si2 0.679583 0.953790 0.545345
Si Si3 0.890659 0.195894 0.923989
O O1 0.321301 0.793455 0.536001
O O2 0.015936 0.836675 0.573090
O O3 0.197977 0.962004 0.472803
O O4 0.289128 0.910743 0.768516
O O5 0.736963 0.874962 0.417534
O O6 0.500000 0.000000 0.500000
O O7 0.000000 0.198112 0.750000
#
# Coordination Sequence:
#
# PCOD9458806 Si02
#       3
#     8   8   8
#     4  12  26  48  77 112 155 207 261 324 392 466
#     4  12  26  48  78 112 152 204 262 324 391 465
#     4  12  26  48  77 114 157 207 263 322 390 471
#
# _framework density 26.015471000000002
#
# number of rings (size 3 to 8) (size 9 to 14) (size 15 to 20)
#    0.000    0.000    0.000   11.000    0.000    0.000 
#    0.000   16.667    0.000    0.000    0.000    0.000 
#    0.000    0.000    0.000    0.000    0.000    0.000 
#
# Total GULP energy -134425.027394 kJ/mol
# GULP energy per Si atom -5601.042808 kJ/mol
# Density = 2.595626 g / cm^3
# Si number density = 26.015471 Si / 1000 Ang^3
#
#
#
# Elastic Constant Matrix: (Units=GPa)
#
#
# Indices 1 2 3 4 5 6 
#
# 1 150.0905 68.9315 39.0339 0.0000 0.0000 0.0000
# 2 68.9315 236.7998 37.9495 0.0000 0.0000 0.0000
# 3 39.0339 37.9495 97.8474 0.0000 0.0000 0.0000
# 4 0.0000 0.0000 0.0000 37.9767 0.0000 0.0000
# 5 0.0000 0.0000 0.0000 0.0000 33.1798 0.0000
# 6 0.0000 0.0000 0.0000 0.0000 0.0000 44.1039
#
#
#
# Elastic Compliance Matrix: (Units=1/GPa)
#
#
# Indices 1 2 3 4 5 6 
#
# 1 0.008231 -0.001994 -0.002510 0.000000 0.000000 0.000000
# 2 -0.001994 0.004986 -0.001138 0.000000 0.000000 0.000000
# 3 -0.002510 -0.001138 0.011663 0.000000 0.000000 0.000000
# 4 0.000000 0.000000 0.000000 0.026332 0.000000 0.000000
# 5 0.000000 0.000000 0.000000 0.000000 0.030139 0.000000
# 6 0.000000 0.000000 0.000000 0.000000 0.000000 0.022674
#
#
# Mechanical properties :
#
#
# Convention : Reuss Voigt Hill
#
# Bulk Modulus (GPa) = 73.55657 86.28527 79.92092
# Shear Modulus (GPa) = 41.72195 45.64027 43.68111
#
# Velocity S-wave (km/s) = 4.00901 4.19304 4.10206
# Velocity P-wave (km/s) = 7.05444 7.52868 7.29541
#
# Compressibility (1/GPa) = 0.01359498
#
# Stress axis : x y z
#
# Youngs Moduli (GPa) = 121.48931 200.57040 85.74163
#
# Poissons Ratio (x) = 0.39989 0.21524
# Poissons Ratio (y) = 0.24222 0.09760
# Poissons Ratio (z) = 0.30498 0.22832
#
# Static dielectric constant tensor:
#      x y z
#    x 2.125770 0.000000 0.000000 
#    y 0.000000 1.973800 0.000000 
#    z 0.000000 0.000000 2.173100 
# 
# From -- ./inp_files/3347.got.cif
#   From: 2010.05.17/outbox.cif.g08.bks.cpg/sg60_2_cif.got.tgz:3347.got - 2010.06.03 14:59:27.
