data_PCOD9458698
_publ_section_title
;
Structure prediction by ZEFSAII (Michael W. Deem and Ramdas Pophale) SiO2 
 PCOD9458698
Probable space group: P B C N
;
_chemical_formula_sum "Si O2"
_cell_formula_units_Z 48
_cell_length_a 13.658691
_cell_length_b 8.941911
_cell_length_c 16.436757
_cell_angle_alpha 90.000000
_cell_angle_beta 90.000000
_cell_angle_gamma 90.000000
_cell_volume 2007.500017
_symmetry_space_group_name_H-M "P B C N"
_symmetry_group_IT_number 60
_symmetry_cell_setting 'orthorhombic'
loop_
_space_group_symop_operation_xyz
x,y,z
1/2-x,1/2-y,1/2+z
1/2+x,1/2-y,-z
-x,y,1/2-z
-x,-y,-z
1/2+x,1/2+y,1/2-z
1/2-x,1/2+y,z
x,-y,1/2+z
loop_
_atom_site_type_symbol
_atom_site_label
_atom_site_fract_x
_atom_site_fract_y
_atom_site_fract_z
Si Si1 0.837108 0.616777 0.909775
Si Si2 0.558201 0.644582 0.325015
Si Si3 0.269800 0.058702 0.245699
Si Si4 0.341397 0.198503 0.017796
Si Si5 0.776336 0.195862 0.633837
Si Si6 0.980747 0.114965 0.572074
O O1 0.925511 0.733454 0.896241
O O2 0.827356 0.528379 0.824072
O O3 0.839325 0.481533 0.974389
O O4 0.742089 0.717958 0.928822
O O5 0.500000 0.713941 0.250000
O O6 0.665735 0.601316 0.293410
O O7 0.505797 0.491334 0.351343
O O8 0.309869 0.206609 0.288623
O O9 0.256281 0.955277 0.323849
O O10 0.442259 0.254194 0.056306
O O11 0.312613 0.245885 0.925415
O O12 0.870332 0.170780 0.577523
O O13 0.000000 0.000000 0.500000
#
# Coordination Sequence:
#
# PCOD9458698 Si02
#       6
#     8   8   8   8   8   8
#     4  12  23  44  71 101 140 191 233 292 369 430
#     4  12  25  43  72 103 142 182 239 297 360 434
#     4  12  23  45  70 102 143 186 234 297 363 430
#     4  12  25  46  71 103 146 189 242 300 362 433
#     4  12  26  45  72 104 145 189 241 303 362 430
#     4  12  26  46  74 104 142 194 244 294 368 437
#
# _framework density 23.910336000000001
#
# number of rings (size 3 to 8) (size 9 to 14) (size 15 to 20)
#    0.000    0.000    6.667    4.000    0.000    1.333 
#    0.000    4.167    0.000    0.000    0.000    0.000 
#    0.000    0.000    0.000    0.000    0.000    0.000 
#
# Total GULP energy -268569.550375 kJ/mol
# GULP energy per Si atom -5595.198966 kJ/mol
# Density = 2.385591 g / cm^3
# Si number density = 23.910336 Si / 1000 Ang^3
#
#
#
# Elastic Constant Matrix: (Units=GPa)
#
#
# Indices 1 2 3 4 5 6 
#
# 1 25.4472 -1.0691 -6.2098 0.0000 0.0000 0.0000
# 2 -1.0691 71.6908 -10.8408 0.0000 0.0000 0.0000
# 3 -6.2098 -10.8408 75.7782 0.0000 0.0000 0.0000
# 4 0.0000 0.0000 0.0000 54.3557 0.0000 0.0000
# 5 0.0000 0.0000 0.0000 0.0000 41.1639 0.0000
# 6 0.0000 0.0000 0.0000 0.0000 0.0000 24.1804
#
#
#
# Elastic Compliance Matrix: (Units=1/GPa)
#
#
# Indices 1 2 3 4 5 6 
#
# 1 0.040187 0.001122 0.003454 0.000000 0.000000 0.000000
# 2 0.001122 0.014289 0.002136 0.000000 0.000000 0.000000
# 3 0.003454 0.002136 0.013785 0.000000 0.000000 0.000000
# 4 0.000000 0.000000 0.000000 0.018397 0.000000 0.000000
# 5 0.000000 0.000000 0.000000 0.000000 0.024293 0.000000
# 6 0.000000 0.000000 0.000000 0.000000 0.000000 0.041356
#
#
# Mechanical properties :
#
#
# Convention : Reuss Voigt Hill
#
# Bulk Modulus (GPa) = 12.24246 15.18630 13.71438
# Shear Modulus (GPa) = 30.10018 36.67572 33.38795
#
# Velocity S-wave (km/s) = 3.55192 3.92073 3.74087
# Velocity P-wave (km/s) = 4.68538 5.18279 4.94035
#
# Compressibility (1/GPa) = 0.08168290
#
# Stress axis : x y z
#
# Youngs Moduli (GPa) = 24.88372 69.98629 72.54256
#
# Poissons Ratio (x) = -0.07849 -0.25054
# Poissons Ratio (y) = -0.02791 -0.15495
# Poissons Ratio (z) = -0.08594 -0.14949
#
# Static dielectric constant tensor:
#      x y z
#    x 1.905600 0.000000 0.000000 
#    y 0.000000 1.052020 0.000000 
#    z 0.000000 0.000000 1.980520 
# 
# From -- ./inp_files/20509.got.cif
#   From: 2010.05.17/outbox.cif.g08.bks.cpg/sg60_11_cif.got.tgz:20509.got - 2010.06.03 14:59:27.
