data_PCOD9458655
_publ_section_title
;
Structure prediction by ZEFSAII (Michael W. Deem and Ramdas Pophale) SiO2 
 PCOD9458655
Probable space group: P B C N
;
_chemical_formula_sum "Si O2"
_cell_formula_units_Z 28
_cell_length_a 16.213899
_cell_length_b 10.339780
_cell_length_c 7.964237
_cell_angle_alpha 90.000000
_cell_angle_beta 90.000000
_cell_angle_gamma 90.000000
_cell_volume 1335.189588
_symmetry_space_group_name_H-M "P B C N"
_symmetry_group_IT_number 60
_symmetry_cell_setting 'orthorhombic'
loop_
_space_group_symop_operation_xyz
x,y,z
1/2-x,1/2-y,1/2+z
1/2+x,1/2-y,-z
-x,y,1/2-z
-x,-y,-z
1/2+x,1/2+y,1/2-z
1/2-x,1/2+y,z
x,-y,1/2+z
loop_
_atom_site_type_symbol
_atom_site_label
_atom_site_fract_x
_atom_site_fract_y
_atom_site_fract_z
Si Si1 0.000000 0.803793 0.250000
Si Si2 0.818313 0.149692 0.858331
Si Si3 0.212600 0.113783 0.247764
Si Si4 0.040779 0.135297 0.072879
O O1 0.909444 0.868289 0.278690
O O2 0.016530 0.754675 0.437640
O O3 0.783303 0.286712 0.801161
O O4 0.763560 0.035536 0.778401
O O5 0.816357 0.137807 0.060510
O O6 0.137389 0.130704 0.114580
O O7 0.000000 0.159586 0.250000
O O8 0.000000 0.000000 0.000000
#
# Coordination Sequence:
#
# PCOD9458655 Si02
#       4
#     4   8   8   8
#     4  12  22  38  64  98 126 178 222 286 328 410
#     4  12  25  41  70  96 144 175 237 282 353 407
#     4  12  24  43  65 105 134 186 226 295 340 415
#     4  12  19  34  61  92 126 162 227 274 323 383
#
# _framework density 20.970804000000001
#
# number of rings (size 3 to 8) (size 9 to 14) (size 15 to 20)
#    0.000    0.000    7.143    5.143    0.000    0.000 
#    0.000    0.000    3.143    5.143    0.000    0.000 
#    0.000    0.000    0.000    0.000    0.000    0.000 
#
# Total GULP energy -155886.787606 kJ/mol
# GULP energy per Si atom -5567.385272 kJ/mol
# Density = 2.092307 g / cm^3
# Si number density = 20.970804 Si / 1000 Ang^3
#
#
#
# Elastic Constant Matrix: (Units=GPa)
#
#
# Indices 1 2 3 4 5 6 
#
# 1 78.4651 42.1762 26.7602 0.0000 0.0000 0.0000
# 2 42.1762 82.8325 13.9586 0.0000 0.0000 0.0000
# 3 26.7602 13.9586 181.2769 0.0000 0.0000 0.0000
# 4 0.0000 0.0000 0.0000 14.7338 0.0000 0.0000
# 5 0.0000 0.0000 0.0000 0.0000 44.3778 0.0000
# 6 0.0000 0.0000 0.0000 0.0000 0.0000 16.6782
#
#
#
# Elastic Compliance Matrix: (Units=1/GPa)
#
#
# Indices 1 2 3 4 5 6 
#
# 1 0.018238 -0.008949 -0.002003 0.000000 0.000000 0.000000
# 2 -0.008949 0.016622 0.000041 0.000000 0.000000 0.000000
# 3 -0.002003 0.000041 0.005809 0.000000 0.000000 0.000000
# 4 0.000000 0.000000 0.000000 0.067871 0.000000 0.000000
# 5 0.000000 0.000000 0.000000 0.000000 0.022534 0.000000
# 6 0.000000 0.000000 0.000000 0.000000 0.000000 0.059959
#
#
# Mechanical properties :
#
#
# Convention : Reuss Voigt Hill
#
# Bulk Modulus (GPa) = 53.05810 56.48491 54.77151
# Shear Modulus (GPa) = 22.81685 32.46992 27.64338
#
# Velocity S-wave (km/s) = 3.30211 3.93916 3.63462
# Velocity P-wave (km/s) = 6.31620 6.90528 6.61730
#
# Compressibility (1/GPa) = 0.01884726
#
# Stress axis : x y z
#
# Youngs Moduli (GPa) = 54.83141 60.16112 172.14739
#
# Poissons Ratio (x) = 0.53836 0.34485
# Poissons Ratio (y) = 0.49066 -0.00707
# Poissons Ratio (z) = 0.10984 -0.00247
#
# Static dielectric constant tensor:
#      x y z
#    x 1.767930 0.000000 0.000000 
#    y 0.000000 1.817230 0.000000 
#    z 0.000000 0.000000 1.845570 
# 
# From -- ./inp_files/5431.got.cif
#   From: 2010.05.17/outbox.cif.g08.bks.cpg/sg60_3_cif.got.tgz:5431.got - 2010.06.03 14:59:27.
