data_PCOD9458527
_publ_section_title
;
Structure prediction by ZEFSAII (Michael W. Deem and Ramdas Pophale) SiO2 
 PCOD9458527
Probable space group: P B C N
;
_chemical_formula_sum "Si O2"
_cell_formula_units_Z 40
_cell_length_a 5.049373
_cell_length_b 13.731032
_cell_length_c 27.753997
_cell_angle_alpha 90.000000
_cell_angle_beta 90.000000
_cell_angle_gamma 90.000000
_cell_volume 1924.270712
_symmetry_space_group_name_H-M "P B C N"
_symmetry_group_IT_number 60
_symmetry_cell_setting 'orthorhombic'
loop_
_space_group_symop_operation_xyz
x,y,z
1/2-x,1/2-y,1/2+z
1/2+x,1/2-y,-z
-x,y,1/2-z
-x,-y,-z
1/2+x,1/2+y,1/2-z
1/2-x,1/2+y,z
x,-y,1/2+z
loop_
_atom_site_type_symbol
_atom_site_label
_atom_site_fract_x
_atom_site_fract_y
_atom_site_fract_z
Si Si1 0.500000 0.720363 0.250000
Si Si2 0.054192 0.742398 0.032605
Si Si3 0.964653 0.474307 0.943289
Si Si4 0.461456 0.577751 0.899583
Si Si5 0.289580 0.398561 0.293844
Si Si6 0.500000 0.922638 0.750000
O O1 0.250097 0.648817 0.237334
O O2 0.613199 0.799585 0.211001
O O3 0.038048 0.640652 0.058937
O O4 0.971806 0.824882 0.069323
O O5 0.346481 0.757962 0.011436
O O6 0.701961 0.515402 0.919765
O O7 0.200834 0.520512 0.914057
O O8 0.000000 0.500000 0.000000
O O9 0.450645 0.598735 0.843246
O O10 0.500000 0.397970 0.250000
O O11 0.114286 0.497895 0.288655
#
# Coordination Sequence:
#
# PCOD9458527 Si02
#       6
#     4   8   8   8   8   4
#     4  11  24  47  80 100 146 197 246 309 376 428
#     4  12  23  44  71 100 141 183 231 296 353 423
#     4  12  24  44  73 101 144 186 237 296 359 427
#     4  12  27  45  72 105 140 192 238 287 374 432
#     4  11  27  49  75 107 154 191 249 314 362 449
#     4  11  24  47  76 102 144 197 242 307 382 424
#
# _framework density 20.787096999999999
#
# number of rings (size 3 to 8) (size 9 to 14) (size 15 to 20)
#    0.000    0.400    6.000    1.800    5.600    1.600 
#    3.600    0.000    0.000    0.000    0.000    0.000 
#    0.000    0.000    0.000    0.000    0.000    0.000 
#
# Total GULP energy -223585.782173 kJ/mol
# GULP energy per Si atom -5589.644554 kJ/mol
# Density = 2.073978 g / cm^3
# Si number density = 20.787097 Si / 1000 Ang^3
#
#
#
# Elastic Constant Matrix: (Units=GPa)
#
#
# Indices 1 2 3 4 5 6 
#
# 1 142.8148 52.1759 14.9989 0.0000 0.0000 0.0000
# 2 52.1759 196.3538 17.1294 0.0000 0.0000 0.0000
# 3 14.9989 17.1294 92.4805 0.0000 0.0000 0.0000
# 4 0.0000 0.0000 0.0000 10.7820 0.0000 0.0000
# 5 0.0000 0.0000 0.0000 0.0000 32.6562 0.0000
# 6 0.0000 0.0000 0.0000 0.0000 0.0000 197.3673
#
#
#
# Elastic Compliance Matrix: (Units=1/GPa)
#
#
# Indices 1 2 3 4 5 6 
#
# 1 0.007828 -0.002002 -0.000899 0.000000 0.000000 0.000000
# 2 -0.002002 0.005688 -0.000729 0.000000 0.000000 0.000000
# 3 -0.000899 -0.000729 0.011094 0.000000 0.000000 0.000000
# 4 0.000000 0.000000 0.000000 0.092747 0.000000 0.000000
# 5 0.000000 0.000000 0.000000 0.000000 0.030622 0.000000
# 6 0.000000 0.000000 0.000000 0.000000 0.000000 0.005067
#
#
# Mechanical properties :
#
#
# Convention : Reuss Voigt Hill
#
# Bulk Modulus (GPa) = 57.63292 66.69526 62.16409
# Shear Modulus (GPa) = 30.10448 71.31741 50.71094
#
# Velocity S-wave (km/s) = 3.80969 5.86370 4.94453
# Velocity P-wave (km/s) = 6.86565 8.83168 7.90998
#
# Compressibility (1/GPa) = 0.01735119
#
# Stress axis : x y z
#
# Youngs Moduli (GPa) = 127.75078 175.79889 90.13974
#
# Poissons Ratio (x) = 0.35188 0.08102
# Poissons Ratio (y) = 0.25571 0.06571
# Poissons Ratio (z) = 0.11482 0.12815
#
# Static dielectric constant tensor:
#      x y z
#    x 1.747500 0.000000 0.000000 
#    y 0.000000 1.735360 0.000000 
#    z 0.000000 0.000000 1.784930 
# 
# From -- ./inp_files/24784.got.cif
#   From: 2010.05.17/outbox.cif.g08.bks.cpg/sg60_13_cif.got.tgz:24784.got - 2010.06.03 14:59:27.
