data_PCOD9458880
_publ_section_title
;
Structure prediction by ZEFSAII (Michael W. Deem and Ramdas Pophale) SiO2 
 PCOD9458880
Probable space group: P B C N
;
_chemical_formula_sum "Si O2"
_cell_formula_units_Z 52
_cell_length_a 15.000000
_cell_length_b 9.000000
_cell_length_c 21.000000
_cell_angle_alpha 90.000000
_cell_angle_beta 90.000000
_cell_angle_gamma 90.000000
_cell_volume 2835.000000
_symmetry_space_group_name_H-M "P B C N"
_symmetry_group_IT_number 60
_symmetry_cell_setting 'orthorhombic'
loop_
_space_group_symop_operation_xyz
x,y,z
1/2-x,1/2-y,1/2+z
1/2+x,1/2-y,-z
-x,y,1/2-z
-x,-y,-z
1/2+x,1/2+y,1/2-z
1/2-x,1/2+y,z
x,-y,1/2+z
loop_
_atom_site_type_symbol
_atom_site_label
_atom_site_fract_x
_atom_site_fract_y
_atom_site_fract_z
Si Si1 0.337503 0.758549 0.860720
Si Si2 0.644102 0.110648 0.667480
Si Si3 0.837906 0.888085 0.444259
Si Si4 0.996028 0.965652 0.359386
Si Si5 0.041033 0.231421 0.447229
Si Si6 0.660447 0.733437 0.485554
Si Si7 0.000000 0.787289 0.750000
O O1 0.244351 0.683126 0.835691
O O2 0.425505 0.655423 0.844814
O O3 0.347879 0.929577 0.835221
O O4 0.330176 0.761777 0.938365
O O5 0.590348 0.165176 0.604287
O O6 0.582357 0.183287 0.724408
O O7 0.900731 0.897332 0.381120
O O8 0.896802 0.786751 0.491647
O O9 0.738583 0.819024 0.446902
O O10 0.830953 0.057354 0.470384
O O11 0.032497 0.064401 0.418387
O O12 0.979818 0.094583 0.306773
O O13 0.940055 0.278703 0.464363
#
# Coordination Sequence:
#
# PCOD9458880 Si02
#       7
#     8   8   8   8   8   8   4
#     4  12  21  38  66  99 116 159 214 250 308 383
#     4  11  24  38  63  91 125 159 208 258 307 368
#     4  11  20  36  57  90 132 161 198 254 311 372
#     4  10  21  41  64  85 122 169 210 253 316 365
#     4  10  19  37  57  88 129 161 194 254 308 367
#     4  11  21  33  57  94 131 160 201 248 314 378
#     4  10  24  46  60  82 120 168 218 268 306 354
#
# _framework density 18.342151999999999
#
# number of rings (size 3 to 8) (size 9 to 14) (size 15 to 20)
#    0.000    1.231    4.615    3.692    0.000    2.462 
#    0.000    9.231    0.000    1.846    0.000    0.000 
#    0.000    0.000    0.000    0.000    0.000    0.000 
#
# Total GULP energy -290109.437597 kJ/mol
# GULP energy per Si atom -5579.027646 kJ/mol
# Density = 1.830040 g / cm^3
# Si number density = 18.342152 Si / 1000 Ang^3
#
#
#
# Elastic Constant Matrix: (Units=GPa)
#
#
# Indices 1 2 3 4 5 6 
#
# 1 163.1771 70.3097 40.7366 0.0000 0.0000 0.0000
# 2 70.3097 128.2134 31.8338 0.0000 0.0000 0.0000
# 3 40.7366 31.8338 58.2820 0.0000 0.0000 0.0000
# 4 0.0000 0.0000 0.0000 27.1593 0.0000 0.0000
# 5 0.0000 0.0000 0.0000 0.0000 34.8002 0.0000
# 6 0.0000 0.0000 0.0000 0.0000 0.0000 42.4012
#
#
#
# Elastic Compliance Matrix: (Units=1/GPa)
#
#
# Indices 1 2 3 4 5 6 
#
# 1 0.008782 -0.003808 -0.004058 0.000000 0.000000 0.000000
# 2 -0.003808 0.010675 -0.003169 0.000000 0.000000 0.000000
# 3 -0.004058 -0.003169 0.021725 0.000000 0.000000 0.000000
# 4 0.000000 0.000000 0.000000 0.036820 0.000000 0.000000
# 5 0.000000 0.000000 0.000000 0.000000 0.028735 0.000000
# 6 0.000000 0.000000 0.000000 0.000000 0.000000 0.023584
#
#
# Mechanical properties :
#
#
# Convention : Reuss Voigt Hill
#
# Bulk Modulus (GPa) = 52.32432 70.60362 61.46397
# Shear Modulus (GPa) = 31.49341 34.65829 33.07585
#
# Velocity S-wave (km/s) = 4.14816 4.35160 4.25110
# Velocity P-wave (km/s) = 7.17856 7.98904 7.59462
#
# Compressibility (1/GPa) = 0.01911157
#
# Stress axis : x y z
#
# Youngs Moduli (GPa) = 113.86323 93.67927 46.02941
#
# Poissons Ratio (x) = 0.35678 0.18680
# Poissons Ratio (y) = 0.43365 0.14585
# Poissons Ratio (z) = 0.46210 0.29683
#
# Static dielectric constant tensor:
#      x y z
#    x 1.639390 0.000000 0.000000 
#    y 0.000000 1.630280 0.000000 
#    z 0.000000 0.000000 1.677360 
# 
# From -- ./inp_files/22834.got.cif
#   From: 2010.05.17/outbox.ucp.g08.bks.cvg/sg60_12_cif.got.tgz:22834.got - 2010.06.11 16:26:41.
