data_PCOD9458844
_publ_section_title
;
Structure prediction by ZEFSAII (Michael W. Deem and Ramdas Pophale) SiO2 
 PCOD9458844
Probable space group: P B C N
;
_chemical_formula_sum "Si O2"
_cell_formula_units_Z 20
_cell_length_a 5.016766
_cell_length_b 8.827129
_cell_length_c 15.798149
_cell_angle_alpha 90.000000
_cell_angle_beta 90.000000
_cell_angle_gamma 90.000000
_cell_volume 699.599553
_symmetry_space_group_name_H-M "P B C N"
_symmetry_group_IT_number 60
_symmetry_cell_setting 'orthorhombic'
loop_
_space_group_symop_operation_xyz
x,y,z
1/2-x,1/2-y,1/2+z
1/2+x,1/2-y,-z
-x,y,1/2-z
-x,-y,-z
1/2+x,1/2+y,1/2-z
1/2-x,1/2+y,z
x,-y,1/2+z
loop_
_atom_site_type_symbol
_atom_site_label
_atom_site_fract_x
_atom_site_fract_y
_atom_site_fract_z
Si Si1 0.500000 0.558360 0.750000
Si Si2 0.425843 0.257851 0.853653
Si Si3 0.249704 0.395825 0.017273
O O1 0.508066 0.425549 0.822832
O O2 0.741937 0.665916 0.713984
O O3 0.688262 0.175818 0.891145
O O4 0.254161 0.277519 0.939545
O O5 0.500000 0.500000 0.000000
O O6 0.000000 0.500000 0.000000
#
# Coordination Sequence:
#
# PCOD9458844 Si02
#       3
#     4   8   8
#     4  12  32  56  94 148 198 248 322 424 492 580
#     4  12  30  59  97 142 198 254 333 398 500 578
#     4  12  28  57  99 137 186 263 331 394 468 608
#
# _framework density 28.587781
#
# number of rings (size 3 to 8) (size 9 to 14) (size 15 to 20)
#    0.000    0.000    4.000    2.400    5.600    4.800 
#    0.000    0.000    0.000    0.000    0.000    0.000 
#    0.000    0.000    0.000    0.000    0.000    0.000 
#
# Total GULP energy -111928.061858 kJ/mol
# GULP energy per Si atom -5596.403093 kJ/mol
# Density = 2.852271 g / cm^3
# Si number density = 28.587781 Si / 1000 Ang^3
#
#
#
# Elastic Constant Matrix: (Units=GPa)
#
#
# Indices 1 2 3 4 5 6 
#
# 1 254.5223 126.2331 83.8630 0.0000 0.0000 0.0000
# 2 126.2331 237.7745 96.0885 0.0000 0.0000 0.0000
# 3 83.8630 96.0885 286.7285 0.0000 0.0000 0.0000
# 4 0.0000 0.0000 0.0000 78.6907 0.0000 0.0000
# 5 0.0000 0.0000 0.0000 0.0000 53.8988 0.0000
# 6 0.0000 0.0000 0.0000 0.0000 0.0000 77.2272
#
#
#
# Elastic Compliance Matrix: (Units=1/GPa)
#
#
# Indices 1 2 3 4 5 6 
#
# 1 0.005460 -0.002606 -0.000724 0.000000 0.000000 0.000000
# 2 -0.002606 0.006109 -0.001285 0.000000 0.000000 0.000000
# 3 -0.000724 -0.001285 0.004130 0.000000 0.000000 0.000000
# 4 0.000000 0.000000 0.000000 0.012708 0.000000 0.000000
# 5 0.000000 0.000000 0.000000 0.000000 0.018553 0.000000
# 6 0.000000 0.000000 0.000000 0.000000 0.000000 0.012949
#
#
# Mechanical properties :
#
#
# Convention : Reuss Voigt Hill
#
# Bulk Modulus (GPa) = 154.58146 154.59940 154.59043
# Shear Modulus (GPa) = 70.13226 73.48604 71.80915
#
# Velocity S-wave (km/s) = 4.95838 5.07555 5.01731
# Velocity P-wave (km/s) = 9.32580 9.40981 9.36790
#
# Compressibility (1/GPa) = 0.00646908
#
# Stress axis : x y z
#
# Youngs Moduli (GPa) = 183.15274 163.70576 242.14237
#
# Poissons Ratio (x) = 0.42666 0.17520
# Poissons Ratio (y) = 0.47734 0.31111
# Poissons Ratio (z) = 0.13252 0.21033
#
# Static dielectric constant tensor:
#      x y z
#    x 2.638220 0.000000 0.000000 
#    y 0.000000 2.146110 0.000000 
#    z 0.000000 0.000000 2.521030 
# 
# From -- ./inp_files/18241.got.cif
#   From: 2010.05.17/outbox.cif.g08.bks.cpg/sg60_10_cif.got.tgz:18241.got - 2010.06.03 14:59:27.
