data_PCOD9458767
_publ_section_title
;
Structure prediction by ZEFSAII (Michael W. Deem and Ramdas Pophale) SiO2 
 PCOD9458767
Probable space group: P B C N
;
_chemical_formula_sum "Si O2"
_cell_formula_units_Z 28
_cell_length_a 8.825885
_cell_length_b 13.888248
_cell_length_c 8.322706
_cell_angle_alpha 90.000000
_cell_angle_beta 90.000000
_cell_angle_gamma 90.000000
_cell_volume 1020.164674
_symmetry_space_group_name_H-M "P B C N"
_symmetry_group_IT_number 60
_symmetry_cell_setting 'orthorhombic'
loop_
_space_group_symop_operation_xyz
x,y,z
1/2-x,1/2-y,1/2+z
1/2+x,1/2-y,-z
-x,y,1/2-z
-x,-y,-z
1/2+x,1/2+y,1/2-z
1/2-x,1/2+y,z
x,-y,1/2+z
loop_
_atom_site_type_symbol
_atom_site_label
_atom_site_fract_x
_atom_site_fract_y
_atom_site_fract_z
Si Si1 0.697621 0.060273 0.501181
Si Si2 0.000000 0.681733 0.250000
Si Si3 0.289935 0.859079 0.136075
Si Si4 0.042340 0.186410 0.006993
O O1 0.599080 0.122570 0.376046
O O2 0.693212 0.092771 0.686795
O O3 0.871351 0.087968 0.456064
O O4 0.659882 0.949534 0.475427
O O5 0.105267 0.755741 0.349389
O O6 0.128995 0.833109 0.047908
O O7 0.396846 0.765829 0.130330
#
# Coordination Sequence:
#
# PCOD9458767 Si02
#       4
#     8   4   8   8
#     4  12  26  52  81 123 169 227 285 355 418 513
#     4  12  26  52  84 118 168 220 286 342 428 492
#     4  12  28  50  87 118 174 220 289 351 427 507
#     4  12  24  53  80 125 164 227 285 354 425 501
#
# _framework density 27.446549999999998
#
# number of rings (size 3 to 8) (size 9 to 14) (size 15 to 20)
#    0.000    0.000    5.714    2.571    0.000    5.714 
#   10.286    0.000    0.000    0.000    0.000    0.000 
#    0.000    0.000    0.000    0.000    0.000    0.000 
#
# Total GULP energy -156443.558796 kJ/mol
# GULP energy per Si atom -5587.269957 kJ/mol
# Density = 2.738408 g / cm^3
# Si number density = 27.446550 Si / 1000 Ang^3
#
#
#
# Elastic Constant Matrix: (Units=GPa)
#
#
# Indices 1 2 3 4 5 6 
#
# 1 133.9645 36.1705 81.1288 0.0000 0.0000 0.0000
# 2 36.1705 121.1850 21.8782 0.0000 0.0000 0.0000
# 3 81.1288 21.8782 117.5078 0.0000 0.0000 0.0000
# 4 0.0000 0.0000 0.0000 33.3338 0.0000 0.0000
# 5 0.0000 0.0000 0.0000 0.0000 31.0434 0.0000
# 6 0.0000 0.0000 0.0000 0.0000 0.0000 49.5236
#
#
#
# Elastic Compliance Matrix: (Units=1/GPa)
#
#
# Indices 1 2 3 4 5 6 
#
# 1 0.013484 -0.002425 -0.008858 0.000000 0.000000 0.000000
# 2 -0.002425 0.008975 0.000003 0.000000 0.000000 0.000000
# 3 -0.008858 0.000003 0.014625 0.000000 0.000000 0.000000
# 4 0.000000 0.000000 0.000000 0.030000 0.000000 0.000000
# 5 0.000000 0.000000 0.000000 0.000000 0.032213 0.000000
# 6 0.000000 0.000000 0.000000 0.000000 0.000000 0.020192
#
#
# Mechanical properties :
#
#
# Convention : Reuss Voigt Hill
#
# Bulk Modulus (GPa) = 68.84935 72.33467 70.59201
# Shear Modulus (GPa) = 34.03914 38.34549 36.19232
#
# Velocity S-wave (km/s) = 3.52546 3.74183 3.63526
# Velocity P-wave (km/s) = 6.45842 6.71419 6.58755
#
# Compressibility (1/GPa) = 0.01452447
#
# Stress axis : x y z
#
# Youngs Moduli (GPa) = 74.16305 111.41891 68.37629
#
# Poissons Ratio (x) = 0.27024 0.60566
# Poissons Ratio (y) = 0.17988 -0.00024
# Poissons Ratio (z) = 0.65692 -0.00039
#
# Static dielectric constant tensor:
#      x y z
#    x 2.210920 0.000000 0.000000 
#    y 0.000000 2.105160 0.000000 
#    z 0.000000 0.000000 2.456370 
# 
# From -- ./inp_files/9406.got.cif
#   From: 2010.05.17/outbox.cif.g08.bks.cpg/sg60_5_cif.got.tgz:9406.got - 2010.06.03 14:59:27.
