data_PCOD9458049
_publ_section_title
;
Structure prediction by ZEFSAII (Michael W. Deem and Ramdas Pophale) SiO2 
 PCOD9458049
Probable space group: P B C N
;
_chemical_formula_sum "Si O2"
_cell_formula_units_Z 36
_cell_length_a 10.855929
_cell_length_b 7.294469
_cell_length_c 16.312386
_cell_angle_alpha 90.000000
_cell_angle_beta 90.000000
_cell_angle_gamma 90.000000
_cell_volume 1291.749098
_symmetry_space_group_name_H-M "P B C N"
_symmetry_group_IT_number 60
_symmetry_cell_setting 'orthorhombic'
loop_
_space_group_symop_operation_xyz
x,y,z
1/2-x,1/2-y,1/2+z
1/2+x,1/2-y,-z
-x,y,1/2-z
-x,-y,-z
1/2+x,1/2+y,1/2-z
1/2-x,1/2+y,z
x,-y,1/2+z
loop_
_atom_site_type_symbol
_atom_site_label
_atom_site_fract_x
_atom_site_fract_y
_atom_site_fract_z
Si Si1 0.000000 0.081476 0.750000
Si Si2 0.350124 0.924104 0.620290
Si Si3 0.172743 0.269031 0.236298
Si Si4 0.672897 0.635113 0.997144
Si Si5 0.342066 0.662901 0.883587
O O1 0.892775 0.926682 0.755204
O O2 0.954182 0.208741 0.675855
O O3 0.296171 0.785864 0.687667
O O4 0.399773 0.804282 0.543284
O O5 0.400233 0.093553 0.674952
O O6 0.228170 0.008344 0.574067
O O7 0.220593 0.349216 0.323382
O O8 0.794295 0.704800 0.045919
O O9 0.610224 0.515521 0.067285
#
# Coordination Sequence:
#
# PCOD9458049 Si02
#       5
#     4   8   8   8   8
#     4  12  24  36  70  96 124 164 220 250 322 372
#     4   9  19  37  66  87 127 170 198 262 322 361
#     4  11  20  40  65  92 126 166 212 259 309 376
#     4   9  19  37  66  88 126 170 200 258 327 358
#     4  11  20  40  65  91 128 165 209 262 306 375
#
# _framework density 27.869188000000001
#
# number of rings (size 3 to 8) (size 9 to 14) (size 15 to 20)
#    0.000    1.778    4.444    0.000    0.000    0.000 
#    0.000   15.556    0.000    0.000    0.000    0.000 
#    0.000    0.000    0.000    0.000    0.000    0.000 
#
# Total GULP energy -200743.780377 kJ/mol
# GULP energy per Si atom -5576.216122 kJ/mol
# Density = 2.780576 g / cm^3
# Si number density = 27.869188 Si / 1000 Ang^3
#
#
#
# Elastic Constant Matrix: (Units=GPa)
#
#
# Indices 1 2 3 4 5 6 
#
# 1 70.6017 -12.4547 19.3343 0.0000 0.0000 0.0000
# 2 -12.4547 81.6786 40.4501 0.0000 0.0000 0.0000
# 3 19.3343 40.4501 159.3483 0.0000 0.0000 0.0000
# 4 0.0000 0.0000 0.0000 47.7240 0.0000 0.0000
# 5 0.0000 0.0000 0.0000 0.0000 42.9729 0.0000
# 6 0.0000 0.0000 0.0000 0.0000 0.0000 16.3630
#
#
#
# Elastic Compliance Matrix: (Units=1/GPa)
#
#
# Indices 1 2 3 4 5 6 
#
# 1 0.015617 0.003797 -0.002859 0.000000 0.000000 0.000000
# 2 0.003797 0.014927 -0.004250 0.000000 0.000000 0.000000
# 3 -0.002859 -0.004250 0.007701 0.000000 0.000000 0.000000
# 4 0.000000 0.000000 0.000000 0.020954 0.000000 0.000000
# 5 0.000000 0.000000 0.000000 0.000000 0.023270 0.000000
# 6 0.000000 0.000000 0.000000 0.000000 0.000000 0.061114
#
#
# Mechanical properties :
#
#
# Convention : Reuss Voigt Hill
#
# Bulk Modulus (GPa) = 31.62395 45.14312 38.38353
# Shear Modulus (GPa) = 31.10498 39.03190 35.06844
#
# Velocity S-wave (km/s) = 3.34444 3.74644 3.55113
# Velocity P-wave (km/s) = 5.12695 5.91166 5.53324
#
# Compressibility (1/GPa) = 0.03162161
#
# Stress axis : x y z
#
# Youngs Moduli (GPa) = 64.03428 66.99386 129.84957
#
# Poissons Ratio (x) = -0.25438 0.37120
# Poissons Ratio (y) = -0.24314 0.55184
# Poissons Ratio (z) = 0.18305 0.28471
#
# Static dielectric constant tensor:
#      x y z
#    x 2.321640 0.000000 0.000000 
#    y 0.000000 2.236060 0.000000 
#    z 0.000000 0.000000 2.182560 
# 
# From -- ./inp_files/16547.got.cif
#   From: 2010.05.17/outbox.cif.g08.bks.cpg/sg60_9_cif.got.tgz:16547.got - 2010.06.03 14:59:27.
