data_PCOD9458063
_publ_section_title
;
Structure prediction by ZEFSAII (Michael W. Deem and Ramdas Pophale) SiO2 
 PCOD9458063
Probable space group: P B C N
;
_chemical_formula_sum "Si O2"
_cell_formula_units_Z 40
_cell_length_a 11.257300
_cell_length_b 13.685068
_cell_length_c 9.876416
_cell_angle_alpha 90.000000
_cell_angle_beta 90.000000
_cell_angle_gamma 90.000000
_cell_volume 1521.530190
_symmetry_space_group_name_H-M "P B C N"
_symmetry_group_IT_number 60
_symmetry_cell_setting 'orthorhombic'
loop_
_space_group_symop_operation_xyz
x,y,z
1/2-x,1/2-y,1/2+z
1/2+x,1/2-y,-z
-x,y,1/2-z
-x,-y,-z
1/2+x,1/2+y,1/2-z
1/2-x,1/2+y,z
x,-y,1/2+z
loop_
_atom_site_type_symbol
_atom_site_label
_atom_site_fract_x
_atom_site_fract_y
_atom_site_fract_z
Si Si1 0.778048 0.162231 0.667893
Si Si2 0.307462 0.908613 0.612831
Si Si3 0.377341 0.357874 0.833705
Si Si4 0.593875 0.889373 0.370779
Si Si5 0.519207 0.269526 0.425003
O O1 0.757014 0.099143 0.532209
O O2 0.694978 0.256968 0.652588
O O3 0.724584 0.123573 0.807361
O O4 0.915073 0.185828 0.665184
O O5 0.216979 0.917667 0.740592
O O6 0.399489 0.996777 0.593950
O O7 0.382790 0.808242 0.627359
O O8 0.500000 0.354711 0.750000
O O9 0.425326 0.359444 0.987914
O O10 0.500000 0.879818 0.250000
O O11 0.558865 0.805611 0.476599
#
# Coordination Sequence:
#
# PCOD9458063 Si02
#       5
#     8   8   8   8   8
#     4  11  22  40  71  97 131 187 224 276 345 404
#     4  11  25  38  71 101 134 180 224 292 348 389
#     4  11  20  43  66  95 136 175 229 279 326 413
#     4  12  23  43  66 106 141 172 234 294 336 404
#     4  11  23  45  73 100 135 185 232 280 339 412
#
# _framework density 26.289321999999999
#
# number of rings (size 3 to 8) (size 9 to 14) (size 15 to 20)
#    0.000    0.800    8.000    0.600    2.800    0.000 
#    0.000    1.000   13.200    0.000    0.000    0.000 
#    0.000    0.000    0.000    0.000    0.000    0.000 
#
# Total GULP energy -223333.636390 kJ/mol
# GULP energy per Si atom -5583.340910 kJ/mol
# Density = 2.622949 g / cm^3
# Si number density = 26.289322 Si / 1000 Ang^3
#
#
#
# Elastic Constant Matrix: (Units=GPa)
#
#
# Indices 1 2 3 4 5 6 
#
# 1 196.2096 21.0058 79.2091 0.0000 0.0000 0.0000
# 2 21.0058 27.2515 15.3307 0.0000 0.0000 0.0000
# 3 79.2091 15.3307 55.6933 0.0000 0.0000 0.0000
# 4 0.0000 0.0000 0.0000 5.8147 0.0000 0.0000
# 5 0.0000 0.0000 0.0000 0.0000 73.3889 0.0000
# 6 0.0000 0.0000 0.0000 0.0000 0.0000 30.7764
#
#
#
# Elastic Compliance Matrix: (Units=1/GPa)
#
#
# Indices 1 2 3 4 5 6 
#
# 1 0.011972 0.000415 -0.017141 0.000000 0.000000 0.000000
# 2 0.000415 0.043433 -0.012546 0.000000 0.000000 0.000000
# 3 -0.017141 -0.012546 0.045788 0.000000 0.000000 0.000000
# 4 0.000000 0.000000 0.000000 0.171979 0.000000 0.000000
# 5 0.000000 0.000000 0.000000 0.000000 0.013626 0.000000
# 6 0.000000 0.000000 0.000000 0.000000 0.000000 0.032492
#
#
# Mechanical properties :
#
#
# Convention : Reuss Voigt Hill
#
# Bulk Modulus (GPa) = 23.44741 56.69396 40.07068
# Shear Modulus (GPa) = 12.75343 32.90323 22.82833
#
# Velocity S-wave (km/s) = 2.20493 3.54161 2.94997
# Velocity P-wave (km/s) = 3.92691 6.19162 5.18444
#
# Compressibility (1/GPa) = 0.04264863
#
# Stress axis : x y z
#
# Youngs Moduli (GPa) = 83.52787 23.02380 21.83980
#
# Poissons Ratio (x) = -0.00955 0.37436
# Poissons Ratio (y) = -0.03465 0.27400
# Poissons Ratio (z) = 1.43178 0.28885
#
# Static dielectric constant tensor:
#      x y z
#    x 2.049780 0.000000 0.000000 
#    y 0.000000 2.063030 0.000000 
#    z 0.000000 0.000000 2.409380 
# 
# From -- ./inp_files/4752.got.cif
#   From: 2010.05.17/outbox.cif.g08.bks.cpg/sg60_3_cif.got.tgz:4752.got - 2010.06.03 14:59:27.
