data_PCOD9458686
_publ_section_title
;
Structure prediction by ZEFSAII (Michael W. Deem and Ramdas Pophale) SiO2 
 PCOD9458686
Probable space group: P B C N
;
_chemical_formula_sum "Si O2"
_cell_formula_units_Z 44
_cell_length_a 8.541358
_cell_length_b 30.572495
_cell_length_c 8.191697
_cell_angle_alpha 90.000000
_cell_angle_beta 90.000000
_cell_angle_gamma 90.000000
_cell_volume 2139.102955
_symmetry_space_group_name_H-M "P B C N"
_symmetry_group_IT_number 60
_symmetry_cell_setting 'orthorhombic'
loop_
_space_group_symop_operation_xyz
x,y,z
1/2-x,1/2-y,1/2+z
1/2+x,1/2-y,-z
-x,y,1/2-z
-x,-y,-z
1/2+x,1/2+y,1/2-z
1/2-x,1/2+y,z
x,-y,1/2+z
loop_
_atom_site_type_symbol
_atom_site_label
_atom_site_fract_x
_atom_site_fract_y
_atom_site_fract_z
Si Si1 0.834052 0.476455 0.029875
Si Si2 0.500000 0.748734 0.250000
Si Si3 0.695911 0.278455 0.440849
Si Si4 0.692808 0.139346 0.016131
Si Si5 0.000000 0.411040 0.250000
Si Si6 0.179776 0.055344 0.298012
Si Si7 0.500000 0.795096 0.750000
O O1 0.715594 0.514159 0.085023
O O2 0.865885 0.441952 0.173791
O O3 0.780600 0.452886 0.865381
O O4 0.000000 0.500000 0.000000
O O5 0.380793 0.725910 0.377806
O O6 0.374727 0.771607 0.126866
O O7 0.683014 0.330755 0.416011
O O8 0.606702 0.239354 0.349043
O O9 0.769677 0.099984 0.115254
O O10 0.603935 0.172511 0.138972
O O11 0.569692 0.118246 0.892823
O O12 0.000000 0.056818 0.250000
#
# Coordination Sequence:
#
# PCOD9458686 Si02
#       7
#     8   4   8   8   4   8   4
#     4  12  22  47  76 101 147 194 243 283 384 456
#     4  12  23  48  72 102 139 197 250 302 390 451
#     4  12  25  46  73 101 144 199 251 314 381 453
#     4  12  26  43  71 109 141 189 259 304 374 446
#     4  12  25  43  74 108 134 190 248 311 350 467
#     4  12  26  45  72 112 148 191 237 315 369 445
#     4  12  26  47  74  98 151 205 250 315 384 452
#
# _framework density 20.569369999999999
#
# number of rings (size 3 to 8) (size 9 to 14) (size 15 to 20)
#    0.000    0.000    7.273    2.182    1.273    0.000 
#    3.273    0.000    0.000    0.000    0.000    0.000 
#    0.000    0.000    0.000    0.000    0.000    0.000 
#
# Total GULP energy -245191.194729 kJ/mol
# GULP energy per Si atom -5572.527153 kJ/mol
# Density = 2.052255 g / cm^3
# Si number density = 20.569370 Si / 1000 Ang^3
#
#
#
# Elastic Constant Matrix: (Units=GPa)
#
#
# Indices 1 2 3 4 5 6 
#
# 1 113.7503 63.6694 64.6079 0.0000 0.0000 0.0000
# 2 63.6694 173.9305 62.8703 0.0000 0.0000 0.0000
# 3 64.6079 62.8703 76.9905 0.0000 0.0000 0.0000
# 4 0.0000 0.0000 0.0000 40.1479 0.0000 0.0000
# 5 0.0000 0.0000 0.0000 0.0000 41.2689 0.0000
# 6 0.0000 0.0000 0.0000 0.0000 0.0000 13.9758
#
#
#
# Elastic Compliance Matrix: (Units=1/GPa)
#
#
# Indices 1 2 3 4 5 6 
#
# 1 0.017076 -0.001520 -0.013088 0.000000 0.000000 0.000000
# 2 -0.001520 0.008292 -0.005496 0.000000 0.000000 0.000000
# 3 -0.013088 -0.005496 0.028460 0.000000 0.000000 0.000000
# 4 0.000000 0.000000 0.000000 0.024908 0.000000 0.000000
# 5 0.000000 0.000000 0.000000 0.000000 0.024231 0.000000
# 6 0.000000 0.000000 0.000000 0.000000 0.000000 0.071552
#
#
# Mechanical properties :
#
#
# Convention : Reuss Voigt Hill
#
# Bulk Modulus (GPa) = 73.42365 82.99627 78.20996
# Shear Modulus (GPa) = 22.80308 30.64676 26.72492
#
# Velocity S-wave (km/s) = 3.33317 3.86414 3.60843
# Velocity P-wave (km/s) = 7.11242 7.76826 7.44756
#
# Compressibility (1/GPa) = 0.01361959
#
# Stress axis : x y z
#
# Youngs Moduli (GPa) = 58.56243 120.59106 35.13672
#
# Poissons Ratio (x) = 0.18327 0.45988
# Poissons Ratio (y) = 0.08900 0.19312
# Poissons Ratio (z) = 0.76649 0.66281
#
# Static dielectric constant tensor:
#      x y z
#    x 1.714090 0.000000 0.000000 
#    y 0.000000 1.734740 0.000000 
#    z 0.000000 0.000000 1.832220 
# 
# From -- ./inp_files/4144.got.cif
#   From: 2010.05.17/outbox.cif.g08.bks.cpg/sg60_3_cif.got.tgz:4144.got - 2010.06.03 14:59:27.
