data_PCOD9458419
_publ_section_title
;
Structure prediction by ZEFSAII (Michael W. Deem and Ramdas Pophale) SiO2 
 PCOD9458419
Probable space group: P B C N
;
_chemical_formula_sum "Si O2"
_cell_formula_units_Z 48
_cell_length_a 12.272749
_cell_length_b 10.262544
_cell_length_c 18.010666
_cell_angle_alpha 90.000000
_cell_angle_beta 90.000000
_cell_angle_gamma 90.000000
_cell_volume 2268.436658
_symmetry_space_group_name_H-M "P B C N"
_symmetry_group_IT_number 60
_symmetry_cell_setting 'orthorhombic'
loop_
_space_group_symop_operation_xyz
x,y,z
1/2-x,1/2-y,1/2+z
1/2+x,1/2-y,-z
-x,y,1/2-z
-x,-y,-z
1/2+x,1/2+y,1/2-z
1/2-x,1/2+y,z
x,-y,1/2+z
loop_
_atom_site_type_symbol
_atom_site_label
_atom_site_fract_x
_atom_site_fract_y
_atom_site_fract_z
Si Si1 0.456432 0.648885 0.099812
Si Si2 0.500000 0.500501 0.250000
Si Si3 0.320565 0.289621 0.284512
Si Si4 0.000000 0.569512 0.250000
Si Si5 0.702287 0.278566 0.562303
Si Si6 0.845039 0.394394 0.340943
Si Si7 0.733656 0.468999 0.972522
O O1 0.457697 0.584693 0.181411
O O2 0.578093 0.686812 0.079530
O O3 0.385955 0.778941 0.107142
O O4 0.394053 0.559944 0.040412
O O5 0.404653 0.409853 0.282907
O O6 0.397309 0.163635 0.268612
O O7 0.263104 0.265343 0.362884
O O8 0.229306 0.329015 0.223460
O O9 0.050188 0.472085 0.189233
O O10 0.751624 0.409899 0.527202
O O11 0.710731 0.159309 0.505108
O O12 0.776725 0.493179 0.391310
#
# Coordination Sequence:
#
# PCOD9458419 Si02
#       7
#     8   4   8   4   8   8   8
#     4  12  25  46  74 105 143 198 249 298 378 445
#     4  11  23  46  80 106 141 195 254 306 366 444
#     4  11  26  46  73 110 145 191 253 310 372 445
#     4  11  27  42  76 106 143 191 256 314 368 446
#     4  12  28  45  76 109 151 194 248 305 373 449
#     4  12  25  48  74 104 148 194 249 307 375 437
#     4  12  27  49  72 106 152 195 237 314 375 448
#
# _framework density 21.159949000000001
#
# number of rings (size 3 to 8) (size 9 to 14) (size 15 to 20)
#    0.000    0.333    3.333    5.000    7.000    2.000 
#    0.000    0.000    0.000    0.000    0.000    0.000 
#    0.000    0.000    0.000    0.000    0.000    0.000 
#
# Total GULP energy -268485.130471 kJ/mol
# GULP energy per Si atom -5593.440218 kJ/mol
# Density = 2.111179 g / cm^3
# Si number density = 21.159949 Si / 1000 Ang^3
#
#
#
# Elastic Constant Matrix: (Units=GPa)
#
#
# Indices 1 2 3 4 5 6 
#
# 1 72.0178 26.9232 43.5811 0.0000 0.0000 0.0000
# 2 26.9232 113.7735 45.6467 0.0000 0.0000 0.0000
# 3 43.5811 45.6467 99.1582 0.0000 0.0000 0.0000
# 4 0.0000 0.0000 0.0000 24.6991 0.0000 0.0000
# 5 0.0000 0.0000 0.0000 0.0000 41.8016 0.0000
# 6 0.0000 0.0000 0.0000 0.0000 0.0000 57.8969
#
#
#
# Elastic Compliance Matrix: (Units=1/GPa)
#
#
# Indices 1 2 3 4 5 6 
#
# 1 0.019100 -0.001413 -0.007744 0.000000 0.000000 0.000000
# 2 -0.001413 0.010885 -0.004390 0.000000 0.000000 0.000000
# 3 -0.007744 -0.004390 0.015509 0.000000 0.000000 0.000000
# 4 0.000000 0.000000 0.000000 0.040487 0.000000 0.000000
# 5 0.000000 0.000000 0.000000 0.000000 0.023923 0.000000
# 6 0.000000 0.000000 0.000000 0.000000 0.000000 0.017272
#
#
# Mechanical properties :
#
#
# Convention : Reuss Voigt Hill
#
# Bulk Modulus (GPa) = 54.34622 57.47238 55.90930
# Shear Modulus (GPa) = 31.17134 36.13275 33.65205
#
# Velocity S-wave (km/s) = 3.84230 4.13680 3.99226
# Velocity P-wave (km/s) = 6.73971 7.07371 6.90873
#
# Compressibility (1/GPa) = 0.01840054
#
# Stress axis : x y z
#
# Youngs Moduli (GPa) = 52.35599 91.86996 64.47687
#
# Poissons Ratio (x) = 0.12979 0.49933
# Poissons Ratio (y) = 0.07397 0.28305
# Poissons Ratio (z) = 0.40546 0.40330
#
# Static dielectric constant tensor:
#      x y z
#    x 1.752190 0.000000 0.000000 
#    y 0.000000 1.760780 0.000000 
#    z 0.000000 0.000000 1.738190 
# 
# From -- ./inp_files/20040.got.cif
#   From: 2010.05.17/outbox.cif.g08.bks.cpg/sg60_11_cif.got.tgz:20040.got - 2010.06.03 14:59:27.
