data_PCOD9458555
_publ_section_title
;
Structure prediction by ZEFSAII (Michael W. Deem and Ramdas Pophale) SiO2 
 PCOD9458555
Probable space group: P B C N
;
_chemical_formula_sum "Si O2"
_cell_formula_units_Z 60
_cell_length_a 11.841649
_cell_length_b 8.247547
_cell_length_c 26.968001
_cell_angle_alpha 90.000000
_cell_angle_beta 90.000000
_cell_angle_gamma 90.000000
_cell_volume 2633.817862
_symmetry_space_group_name_H-M "P B C N"
_symmetry_group_IT_number 60
_symmetry_cell_setting 'orthorhombic'
loop_
_space_group_symop_operation_xyz
x,y,z
1/2-x,1/2-y,1/2+z
1/2+x,1/2-y,-z
-x,y,1/2-z
-x,-y,-z
1/2+x,1/2+y,1/2-z
1/2-x,1/2+y,z
x,-y,1/2+z
loop_
_atom_site_type_symbol
_atom_site_label
_atom_site_fract_x
_atom_site_fract_y
_atom_site_fract_z
Si Si1 0.667432 0.097706 0.680244
Si Si2 0.000000 0.798889 0.750000
Si Si3 0.649429 0.585605 0.341783
Si Si4 0.970408 0.177540 0.438877
Si Si5 0.132539 0.872628 0.455492
Si Si6 0.633945 0.766797 0.705392
Si Si7 0.615746 0.010877 0.570673
Si Si8 0.124176 0.251130 0.684078
O O1 0.588827 0.200477 0.716257
O O2 0.788576 0.172757 0.667281
O O3 0.610728 0.046553 0.629432
O O4 0.692654 0.938159 0.710950
O O5 0.072613 0.884291 0.706936
O O6 0.600002 0.685031 0.387859
O O7 0.636351 0.396582 0.353284
O O8 0.780004 0.622309 0.330207
O O9 0.027761 0.353472 0.449701
O O10 0.893949 0.133172 0.485862
O O11 0.058356 0.024800 0.433983
O O12 0.106641 0.684824 0.437924
O O13 0.261544 0.926250 0.446959
O O14 0.645848 0.691156 0.759489
O O15 0.506523 0.797252 0.689138
#
# Coordination Sequence:
#
# PCOD9458555 Si02
#       8
#     8   4   8   8   8   8   8   8
#     4  12  26  41  73 106 146 194 250 304 369 447
#     4  12  24  44  74 104 158 192 250 306 364 450
#     4  12  27  47  71 106 149 201 245 308 381 453
#     4  11  27  51  75 109 151 196 258 312 392 457
#     4  11  26  49  78 111 144 195 249 336 379 458
#     4  11  25  43  68 100 146 199 245 301 356 441
#     4  12  24  47  79 110 150 190 258 311 395 448
#     4  11  26  44  66  98 148 195 247 295 369 439
#
# _framework density 22.780618
#
# number of rings (size 3 to 8) (size 9 to 14) (size 15 to 20)
#    0.000    0.533    4.000    3.600    7.467    1.067 
#    0.000    0.000    0.000    0.000    0.000    0.000 
#    0.000    0.000    0.000    0.000    0.000    0.000 
#
# Total GULP energy -334836.900809 kJ/mol
# GULP energy per Si atom -5580.615013 kJ/mol
# Density = 2.272877 g / cm^3
# Si number density = 22.780618 Si / 1000 Ang^3
#
#
#
# Elastic Constant Matrix: (Units=GPa)
#
#
# Indices 1 2 3 4 5 6 
#
# 1 93.4562 33.8962 25.6883 0.0000 0.0000 0.0000
# 2 33.8962 108.0347 6.1957 0.0000 0.0000 0.0000
# 3 25.6883 6.1957 73.2446 0.0000 0.0000 0.0000
# 4 0.0000 0.0000 0.0000 33.3857 0.0000 0.0000
# 5 0.0000 0.0000 0.0000 0.0000 33.5973 0.0000
# 6 0.0000 0.0000 0.0000 0.0000 0.0000 16.2397
#
#
#
# Elastic Compliance Matrix: (Units=1/GPa)
#
#
# Indices 1 2 3 4 5 6 
#
# 1 0.013318 -0.003930 -0.004338 0.000000 0.000000 0.000000
# 2 -0.003930 0.010461 0.000493 0.000000 0.000000 0.000000
# 3 -0.004338 0.000493 0.015133 0.000000 0.000000 0.000000
# 4 0.000000 0.000000 0.000000 0.029953 0.000000 0.000000
# 5 0.000000 0.000000 0.000000 0.000000 0.029764 0.000000
# 6 0.000000 0.000000 0.000000 0.000000 0.000000 0.061578
#
#
# Mechanical properties :
#
#
# Convention : Reuss Voigt Hill
#
# Bulk Modulus (GPa) = 42.80461 45.14399 43.97430
# Shear Modulus (GPa) = 27.24147 30.57489 28.90818
#
# Velocity S-wave (km/s) = 3.46181 3.66750 3.56614
# Velocity P-wave (km/s) = 5.89996 6.14768 6.02510
#
# Compressibility (1/GPa) = 0.02336197
#
# Stress axis : x y z
#
# Youngs Moduli (GPa) = 75.08620 95.59347 66.08193
#
# Poissons Ratio (x) = 0.37566 0.28669
# Poissons Ratio (y) = 0.29507 -0.03260
# Poissons Ratio (z) = 0.32576 -0.04716
#
# Static dielectric constant tensor:
#      x y z
#    x 1.743320 0.000000 0.000000 
#    y 0.000000 1.917070 0.000000 
#    z 0.000000 0.000000 1.871880 
# 
# From -- ./inp_files/25342.got.cif
#   From: 2010.05.17/outbox.cif.g08.bks.cpg/sg60_13_cif.got.tgz:25342.got - 2010.06.03 14:59:27.
