data_PCOD9458850
_publ_section_title
;
Structure prediction by ZEFSAII (Michael W. Deem and Ramdas Pophale) SiO2 
 PCOD9458850
Probable space group: P B C N
;
_chemical_formula_sum "Si O2"
_cell_formula_units_Z 64
_cell_length_a 11.538353
_cell_length_b 13.014350
_cell_length_c 13.777233
_cell_angle_alpha 90.000000
_cell_angle_beta 90.000000
_cell_angle_gamma 90.000000
_cell_volume 2068.846681
_symmetry_space_group_name_H-M "P B C N"
_symmetry_group_IT_number 60
_symmetry_cell_setting 'orthorhombic'
loop_
_space_group_symop_operation_xyz
x,y,z
1/2-x,1/2-y,1/2+z
1/2+x,1/2-y,-z
-x,y,1/2-z
-x,-y,-z
1/2+x,1/2+y,1/2-z
1/2-x,1/2+y,z
x,-y,1/2+z
loop_
_atom_site_type_symbol
_atom_site_label
_atom_site_fract_x
_atom_site_fract_y
_atom_site_fract_z
Si Si1 0.560055 0.278174 0.377707
Si Si2 0.078320 0.503249 0.883353
Si Si3 0.690801 0.763425 0.381737
Si Si4 0.665025 0.994982 0.834459
Si Si5 0.689079 0.733665 0.615536
Si Si6 0.331940 0.499226 0.411280
Si Si7 0.421238 0.482791 0.630363
Si Si8 0.061963 0.751922 0.891256
O O1 0.681561 0.229703 0.346848
O O2 0.436884 0.229510 0.350137
O O3 0.563799 0.396377 0.345647
O O4 0.562025 0.284055 0.495380
O O5 0.113116 0.488120 0.771862
O O6 0.199808 0.462081 0.929898
O O7 0.065481 0.626496 0.895453
O O8 0.946456 0.462159 0.902226
O O9 0.684881 0.884763 0.359888
O O10 0.691744 0.744329 0.498166
O O11 0.565022 0.722558 0.348935
O O12 0.795633 0.951083 0.828532
O O13 0.687879 0.611726 0.636848
O O14 0.811117 0.776050 0.651943
O O15 0.385066 0.476923 0.516904
O O16 0.443358 0.552921 0.359632
#
# Coordination Sequence:
#
# PCOD9458850 Si02
#       8
#     8   8   8   8   8   8   8   8
#     4   8  13  22  37  56  77 100 126 159 198 236
#     4   9  17  28  42  61  83 106 135 173 215 256
#     4   8  13  22  37  56  77  99 124 157 198 240
#     4   9  17  28  42  61  83 106 135 173 215 256
#     4   8  13  22  37  56  77 100 126 159 198 236
#     4   9  17  28  42  61  85 112 143 176 206 242
#     4   9  17  28  42  61  85 112 143 176 206 242
#     4   8  13  22  37  56  77  99 124 157 198 240
#
# _framework density 30.935110000000002
#
# number of rings (size 3 to 8) (size 9 to 14) (size 15 to 20)
#    0.000    3.500    0.000    0.000    0.000    1.000 
#    0.000    0.000    0.000    1.500    0.000    7.000 
#    0.000    0.000    0.000    0.000    0.000    0.000 
#
# Total GULP energy -358259.186639 kJ/mol
# GULP energy per Si atom -5597.799791 kJ/mol
# Density = 3.086470 g / cm^3
# Si number density = 30.935110 Si / 1000 Ang^3
#
#
#
# Elastic Constant Matrix: (Units=GPa)
#
#
# Indices 1 2 3 4 5 6 
#
# 1 504.7418 92.3746 75.8658 0.0000 0.0000 0.0000
# 2 92.3746 95.7765 16.5732 0.0000 0.0000 0.0000
# 3 75.8658 16.5732 85.1347 0.0000 0.0000 0.0000
# 4 0.0000 0.0000 0.0000 12.4507 0.0000 0.0000
# 5 0.0000 0.0000 0.0000 0.0000 65.3248 0.0000
# 6 0.0000 0.0000 0.0000 0.0000 0.0000 80.5683
#
#
#
# Elastic Compliance Matrix: (Units=1/GPa)
#
#
# Indices 1 2 3 4 5 6 
#
# 1 0.002688 -0.002254 -0.001956 0.000000 0.000000 0.000000
# 2 -0.002254 0.012695 -0.000463 0.000000 0.000000 0.000000
# 3 -0.001956 -0.000463 0.013580 0.000000 0.000000 0.000000
# 4 0.000000 0.000000 0.000000 0.080317 0.000000 0.000000
# 5 0.000000 0.000000 0.000000 0.000000 0.015308 0.000000
# 6 0.000000 0.000000 0.000000 0.000000 0.000000 0.012412
#
#
# Mechanical properties :
#
#
# Convention : Reuss Voigt Hill
#
# Bulk Modulus (GPa) = 50.97879 117.25335 84.11607
# Shear Modulus (GPa) = 32.70469 65.05808 48.88139
#
# Velocity S-wave (km/s) = 3.25499 4.59088 3.97939
# Velocity P-wave (km/s) = 5.53549 8.12938 6.95444
#
# Compressibility (1/GPa) = 0.01961600
#
# Stress axis : x y z
#
# Youngs Moduli (GPa) = 372.06131 78.77266 73.63993
#
# Poissons Ratio (x) = 0.17753 0.14407
# Poissons Ratio (y) = 0.83853 0.03409
# Poissons Ratio (z) = 0.72789 0.03647
#
# Static dielectric constant tensor:
#      x y z
#    x 2.479870 0.000000 0.000000 
#    y 0.000000 2.526560 0.000000 
#    z 0.000000 0.000000 2.540220 
# 
# From -- ./inp_files/20303.got.cif
#   From: 2010.05.17/outbox.cif.g08.bks.cpg/sg60_11_cif.got.tgz:20303.got - 2010.06.03 14:59:27.
