data_PCOD9458222
_publ_section_title
;
Structure prediction by ZEFSAII (Michael W. Deem and Ramdas Pophale) SiO2 
 PCOD9458222
Probable space group: P B C N
;
_chemical_formula_sum "Si O2"
_cell_formula_units_Z 48
_cell_length_a 9.282540
_cell_length_b 13.620818
_cell_length_c 15.152152
_cell_angle_alpha 90.000000
_cell_angle_beta 90.000000
_cell_angle_gamma 90.000000
_cell_volume 1915.774277
_symmetry_space_group_name_H-M "P B C N"
_symmetry_group_IT_number 60
_symmetry_cell_setting 'orthorhombic'
loop_
_space_group_symop_operation_xyz
x,y,z
1/2-x,1/2-y,1/2+z
1/2+x,1/2-y,-z
-x,y,1/2-z
-x,-y,-z
1/2+x,1/2+y,1/2-z
1/2-x,1/2+y,z
x,-y,1/2+z
loop_
_atom_site_type_symbol
_atom_site_label
_atom_site_fract_x
_atom_site_fract_y
_atom_site_fract_z
Si Si1 0.912492 0.095441 0.658968
Si Si2 0.152158 0.348311 0.066922
Si Si3 0.332479 0.201867 0.758661
Si Si4 0.578137 0.732373 0.978352
Si Si5 0.738576 0.079702 0.198583
Si Si6 0.080415 0.560742 0.118372
O O1 0.751902 0.137626 0.671136
O O2 0.871595 0.980911 0.656765
O O3 0.000000 0.114020 0.750000
O O4 0.989152 0.153443 0.580306
O O5 0.223410 0.325334 0.161125
O O6 0.273598 0.319908 0.996403
O O7 0.105374 0.460835 0.064066
O O8 0.022379 0.272256 0.055643
O O9 0.500000 0.179036 0.750000
O O10 0.294051 0.311620 0.783208
O O11 0.613414 0.835205 0.927767
O O12 0.684675 0.046128 0.296743
O O13 0.586924 0.071694 0.146711
#
# Coordination Sequence:
#
# PCOD9458222 Si02
#       6
#     8   8   8   8   8   8
#     4  12  22  45  70 100 137 188 238 304 360 422
#     4  12  27  45  70 104 148 197 245 298 369 451
#     4  12  24  42  70 106 138 179 247 306 358 428
#     4  12  27  47  71 103 153 196 241 298 382 437
#     4  11  22  39  76 105 133 180 246 305 363 422
#     4  11  22  45  72 105 139 195 243 298 368 439
#
# _framework density 25.055146000000001
#
# number of rings (size 3 to 8) (size 9 to 14) (size 15 to 20)
#    0.000    0.333    6.667    2.000    4.667    0.000 
#    0.000    0.833    0.000    0.000    0.000    0.000 
#    0.000    0.000    0.000    0.000    0.000    0.000 
#
# Total GULP energy -268747.838233 kJ/mol
# GULP energy per Si atom -5598.913297 kJ/mol
# Density = 2.499812 g / cm^3
# Si number density = 25.055146 Si / 1000 Ang^3
#
#
#
# Elastic Constant Matrix: (Units=GPa)
#
#
# Indices 1 2 3 4 5 6 
#
# 1 101.0791 13.4159 -1.3880 0.0000 0.0000 0.0000
# 2 13.4159 147.4669 18.2920 0.0000 0.0000 0.0000
# 3 -1.3880 18.2920 52.0247 0.0000 0.0000 0.0000
# 4 0.0000 0.0000 0.0000 35.5683 0.0000 0.0000
# 5 0.0000 0.0000 0.0000 0.0000 37.9847 0.0000
# 6 0.0000 0.0000 0.0000 0.0000 0.0000 55.3177
#
#
#
# Elastic Compliance Matrix: (Units=1/GPa)
#
#
# Indices 1 2 3 4 5 6 
#
# 1 0.010033 -0.000989 0.000615 0.000000 0.000000 0.000000
# 2 -0.000989 0.007188 -0.002554 0.000000 0.000000 0.000000
# 3 0.000615 -0.002554 0.020136 0.000000 0.000000 0.000000
# 4 0.000000 0.000000 0.000000 0.028115 0.000000 0.000000
# 5 0.000000 0.000000 0.000000 0.000000 0.026326 0.000000
# 6 0.000000 0.000000 0.000000 0.000000 0.000000 0.018077
#
#
# Mechanical properties :
#
#
# Convention : Reuss Voigt Hill
#
# Bulk Modulus (GPa) = 31.74385 40.13452 35.93919
# Shear Modulus (GPa) = 39.60992 43.79084 41.70038
#
# Velocity S-wave (km/s) = 3.98038 4.18518 4.08406
# Velocity P-wave (km/s) = 5.81564 6.27754 6.05100
#
# Compressibility (1/GPa) = 0.03150216
#
# Stress axis : x y z
#
# Youngs Moduli (GPa) = 99.67131 139.12214 49.66243
#
# Poissons Ratio (x) = 0.13761 -0.03056
# Poissons Ratio (y) = 0.09858 0.12682
# Poissons Ratio (z) = -0.06134 0.35527
#
# Static dielectric constant tensor:
#      x y z
#    x 1.981820 0.000000 0.000000 
#    y 0.000000 1.968080 0.000000 
#    z 0.000000 0.000000 2.096680 
# 
# From -- ./inp_files/19319.got.cif
#   From: 2010.05.17/outbox.cif.g08.bks.cpg/sg60_10_cif.got.tgz:19319.got - 2010.06.03 14:59:27.
