data_PCOD9458525
_publ_section_title
;
Structure prediction by ZEFSAII (Michael W. Deem and Ramdas Pophale) SiO2 
 PCOD9458525
Probable space group: P B C N
;
_chemical_formula_sum "Si O2"
_cell_formula_units_Z 56
_cell_length_a 13.582374
_cell_length_b 18.893693
_cell_length_c 8.735548
_cell_angle_alpha 90.000000
_cell_angle_beta 90.000000
_cell_angle_gamma 90.000000
_cell_volume 2241.726850
_symmetry_space_group_name_H-M "P B C N"
_symmetry_group_IT_number 60
_symmetry_cell_setting 'orthorhombic'
loop_
_space_group_symop_operation_xyz
x,y,z
1/2-x,1/2-y,1/2+z
1/2+x,1/2-y,-z
-x,y,1/2-z
-x,-y,-z
1/2+x,1/2+y,1/2-z
1/2-x,1/2+y,z
x,-y,1/2+z
loop_
_atom_site_type_symbol
_atom_site_label
_atom_site_fract_x
_atom_site_fract_y
_atom_site_fract_z
Si Si1 0.363231 0.390872 0.385210
Si Si2 0.239306 0.525450 0.420244
Si Si3 0.348547 0.737793 0.411444
Si Si4 0.527575 0.846298 0.926403
Si Si5 0.073954 0.104552 0.528747
Si Si6 0.651521 0.761443 0.448473
Si Si7 0.907482 0.505164 0.338847
O O1 0.271098 0.442395 0.414061
O O2 0.386542 0.387504 0.203467
O O3 0.462715 0.423127 0.460851
O O4 0.353125 0.312977 0.457927
O O5 0.344206 0.562733 0.433497
O O6 0.169851 0.541812 0.277661
O O7 0.166956 0.540146 0.561385
O O8 0.376464 0.806661 0.509780
O O9 0.432417 0.680934 0.448920
O O10 0.249729 0.704844 0.481008
O O11 0.338669 0.750185 0.232397
O O12 0.500000 0.829338 0.750000
O O13 0.544200 0.930157 0.932592
O O14 0.439510 0.812806 0.022529
O O15 0.000000 0.471477 0.250000
#
# Coordination Sequence:
#
# PCOD9458525 Si02
#       7
#     8   8   8   8   8   8   8
#     4  11  24  47  72 109 153 195 250 319 380 461
#     4  12  25  49  73 107 149 202 262 305 390 445
#     4  12  26  44  72 111 150 197 255 312 395 462
#     4  11  24  47  73 107 151 194 251 320 388 450
#     4  11  25  43  74 107 152 198 246 314 381 456
#     4  12  26  45  73 109 149 199 251 317 388 467
#     4  11  27  49  75 105 147 201 258 323 368 460
#
# _framework density 24.980740999999998
#
# number of rings (size 3 to 8) (size 9 to 14) (size 15 to 20)
#    0.000    0.571    2.857    4.714    8.000    0.000 
#    0.000    2.857    0.000    0.000    0.000    0.000 
#    0.000    0.000    0.000    0.000    0.000    0.000 
#
# Total GULP energy -313621.509994 kJ/mol
# GULP energy per Si atom -5600.384107 kJ/mol
# Density = 2.492388 g / cm^3
# Si number density = 24.980741 Si / 1000 Ang^3
#
#
#
# Elastic Constant Matrix: (Units=GPa)
#
#
# Indices 1 2 3 4 5 6 
#
# 1 134.3017 20.3508 17.7711 0.0000 0.0000 0.0000
# 2 20.3508 77.0346 -3.2985 0.0000 0.0000 0.0000
# 3 17.7711 -3.2985 87.7206 0.0000 0.0000 0.0000
# 4 0.0000 0.0000 0.0000 16.0352 0.0000 0.0000
# 5 0.0000 0.0000 0.0000 0.0000 46.9465 0.0000
# 6 0.0000 0.0000 0.0000 0.0000 0.0000 46.8188
#
#
#
# Elastic Compliance Matrix: (Units=1/GPa)
#
#
# Indices 1 2 3 4 5 6 
#
# 1 0.008003 -0.002187 -0.001703 0.000000 0.000000 0.000000
# 2 -0.002187 0.013600 0.000954 0.000000 0.000000 0.000000
# 3 -0.001703 0.000954 0.011781 0.000000 0.000000 0.000000
# 4 0.000000 0.000000 0.000000 0.062363 0.000000 0.000000
# 5 0.000000 0.000000 0.000000 0.000000 0.021301 0.000000
# 6 0.000000 0.000000 0.000000 0.000000 0.000000 0.021359
#
#
# Mechanical properties :
#
#
# Convention : Reuss Voigt Hill
#
# Bulk Modulus (GPa) = 36.34890 40.96709 38.65800
# Shear Modulus (GPa) = 32.58416 39.57566 36.07991
#
# Velocity S-wave (km/s) = 3.61553 3.98458 3.80453
# Velocity P-wave (km/s) = 5.65789 6.13223 5.89983
#
# Compressibility (1/GPa) = 0.02751115
#
# Stress axis : x y z
#
# Youngs Moduli (GPa) = 124.95719 73.53031 84.88370
#
# Poissons Ratio (x) = 0.16082 0.14460
# Poissons Ratio (y) = 0.27329 -0.08102
# Poissons Ratio (z) = 0.21286 -0.07018
#
# Static dielectric constant tensor:
#      x y z
#    x 1.975450 0.000000 0.000000 
#    y 0.000000 2.009070 0.000000 
#    z 0.000000 0.000000 1.944370 
# 
# From -- ./inp_files/6136.got.cif
#   From: 2010.05.17/outbox.cif.g08.bks.cpg/sg60_4_cif.got.tgz:6136.got - 2010.06.03 14:59:27.
