data_PCOD9458848
_publ_section_title
;
Structure prediction by ZEFSAII (Michael W. Deem and Ramdas Pophale) SiO2 
 PCOD9458848
Probable space group: P B C N
;
_chemical_formula_sum "Si O2"
_cell_formula_units_Z 20
_cell_length_a 5.040478
_cell_length_b 12.537897
_cell_length_c 10.942475
_cell_angle_alpha 90.000000
_cell_angle_beta 90.000000
_cell_angle_gamma 90.000000
_cell_volume 691.531527
_symmetry_space_group_name_H-M "P B C N"
_symmetry_group_IT_number 60
_symmetry_cell_setting 'orthorhombic'
loop_
_space_group_symop_operation_xyz
x,y,z
1/2-x,1/2-y,1/2+z
1/2+x,1/2-y,-z
-x,y,1/2-z
-x,-y,-z
1/2+x,1/2+y,1/2-z
1/2-x,1/2+y,z
x,-y,1/2+z
loop_
_atom_site_type_symbol
_atom_site_label
_atom_site_fract_x
_atom_site_fract_y
_atom_site_fract_z
Si Si1 0.200005 0.883056 0.863833
Si Si2 0.000000 0.421820 0.250000
Si Si3 0.922616 0.178016 0.880543
O O1 0.359109 0.991326 0.839479
O O2 0.418060 0.787970 0.875047
O O3 0.000000 0.872411 0.750000
O O4 0.036223 0.876794 0.989983
O O5 0.887841 0.338746 0.352652
O O6 0.000000 0.123636 0.750000
#
# Coordination Sequence:
#
# PCOD9458848 Si02
#       3
#     8   4   8
#     4  12  29  57  85 122 172 223 280 347 419 503
#     4  12  30  54  86 130 162 222 280 356 408 512
#     4  12  29  52  89 119 169 222 278 344 422 494
#
# _framework density 28.921315
#
# number of rings (size 3 to 8) (size 9 to 14) (size 15 to 20)
#    0.000    0.000    2.000    4.800    8.400    6.400 
#    3.600    0.000    0.000    0.000    0.000    0.000 
#    0.000    0.000    0.000    0.000    0.000    0.000 
#
# Total GULP energy -111669.894788 kJ/mol
# GULP energy per Si atom -5583.494739 kJ/mol
# Density = 2.885549 g / cm^3
# Si number density = 28.921315 Si / 1000 Ang^3
#
#
#
# Elastic Constant Matrix: (Units=GPa)
#
#
# Indices 1 2 3 4 5 6 
#
# 1 81.9336 90.7701 49.3753 0.0000 0.0000 0.0000
# 2 90.7701 177.9700 26.3709 0.0000 0.0000 0.0000
# 3 49.3753 26.3709 271.9616 0.0000 0.0000 0.0000
# 4 0.0000 0.0000 0.0000 45.1503 0.0000 0.0000
# 5 0.0000 0.0000 0.0000 0.0000 77.8990 0.0000
# 6 0.0000 0.0000 0.0000 0.0000 0.0000 74.2995
#
#
#
# Elastic Compliance Matrix: (Units=1/GPa)
#
#
# Indices 1 2 3 4 5 6 
#
# 1 0.032443 -0.015903 -0.004348 0.000000 0.000000 0.000000
# 2 -0.015903 0.013496 0.001579 0.000000 0.000000 0.000000
# 3 -0.004348 0.001579 0.004313 0.000000 0.000000 0.000000
# 4 0.000000 0.000000 0.000000 0.022148 0.000000 0.000000
# 5 0.000000 0.000000 0.000000 0.000000 0.012837 0.000000
# 6 0.000000 0.000000 0.000000 0.000000 0.000000 0.013459
#
#
# Mechanical properties :
#
#
# Convention : Reuss Voigt Hill
#
# Bulk Modulus (GPa) = 77.47263 96.09976 86.78619
# Shear Modulus (GPa) = 35.62681 63.82635 49.72658
#
# Velocity S-wave (km/s) = 3.51358 4.70286 4.15103
# Velocity P-wave (km/s) = 6.58072 7.92397 7.28338
#
# Compressibility (1/GPa) = 0.01290778
#
# Stress axis : x y z
#
# Youngs Moduli (GPa) = 30.82324 74.09676 231.83916
#
# Poissons Ratio (x) = 1.17834 1.00806
# Poissons Ratio (y) = 0.49017 -0.36597
# Poissons Ratio (z) = 0.13402 -0.11696
#
# Static dielectric constant tensor:
#      x y z
#    x -0.875860 0.000000 0.000000 
#    y 0.000000 2.143300 0.000000 
#    z 0.000000 0.000000 2.229460 
# 
# From -- ./inp_files/8622.got.cif
#   From: 2010.05.17/outbox.cif.g08.bks.cpg/sg60_5_cif.got.tgz:8622.got - 2010.06.03 14:59:27.
