data_PCOD9458765
_publ_section_title
;
Structure prediction by ZEFSAII (Michael W. Deem and Ramdas Pophale) SiO2 
 PCOD9458765
Probable space group: P B C N
;
_chemical_formula_sum "Si O2"
_cell_formula_units_Z 32
_cell_length_a 10.632072
_cell_length_b 14.504615
_cell_length_c 8.283684
_cell_angle_alpha 90.000000
_cell_angle_beta 90.000000
_cell_angle_gamma 90.000000
_cell_volume 1277.460964
_symmetry_space_group_name_H-M "P B C N"
_symmetry_group_IT_number 60
_symmetry_cell_setting 'orthorhombic'
loop_
_space_group_symop_operation_xyz
x,y,z
1/2-x,1/2-y,1/2+z
1/2+x,1/2-y,-z
-x,y,1/2-z
-x,-y,-z
1/2+x,1/2+y,1/2-z
1/2-x,1/2+y,z
x,-y,1/2+z
loop_
_atom_site_type_symbol
_atom_site_label
_atom_site_fract_x
_atom_site_fract_y
_atom_site_fract_z
Si Si1 0.000000 0.559737 0.250000
Si Si2 0.328571 0.134237 0.494429
Si Si3 0.680826 0.786990 0.147211
Si Si4 0.000000 0.145124 0.250000
Si Si5 0.239183 0.951973 0.588943
O O1 0.039109 0.601157 0.424063
O O2 0.139402 0.523790 0.202835
O O3 0.330800 0.176406 0.671922
O O4 0.292595 0.213553 0.368331
O O5 0.227966 0.050377 0.500871
O O6 0.562996 0.717441 0.121845
O O7 0.715453 0.869772 0.028401
O O8 0.889023 0.084109 0.329252
#
# Coordination Sequence:
#
# PCOD9458765 Si02
#       5
#     4   8   8   4   8
#     4  12  24  51  79 118 154 216 270 331 415 494
#     4  12  26  51  81 118 162 217 267 339 409 498
#     4  12  26  50  78 118 162 212 274 340 415 480
#     4  12  26  51  79 120 164 216 282 345 411 494
#     4  12  28  50  82 117 164 217 279 343 417 489
#
# _framework density 25.049689999999998
#
# number of rings (size 3 to 8) (size 9 to 14) (size 15 to 20)
#    0.000    0.000    5.000    3.750    0.000    3.000 
#    0.000    0.000    0.000    0.000    0.000    0.000 
#    0.000    0.000    0.000    0.000    0.000    0.000 
#
# Total GULP energy -178459.143683 kJ/mol
# GULP energy per Si atom -5576.848240 kJ/mol
# Density = 2.499268 g / cm^3
# Si number density = 25.049690 Si / 1000 Ang^3
#
#
#
# Elastic Constant Matrix: (Units=GPa)
#
#
# Indices 1 2 3 4 5 6 
#
# 1 142.1243 69.1619 74.1811 0.0000 0.0000 0.0000
# 2 69.1619 181.4058 57.8734 0.0000 0.0000 0.0000
# 3 74.1811 57.8734 138.0044 0.0000 0.0000 0.0000
# 4 0.0000 0.0000 0.0000 42.4495 0.0000 0.0000
# 5 0.0000 0.0000 0.0000 0.0000 42.2037 0.0000
# 6 0.0000 0.0000 0.0000 0.0000 0.0000 31.2562
#
#
#
# Elastic Compliance Matrix: (Units=1/GPa)
#
#
# Indices 1 2 3 4 5 6 
#
# 1 0.010749 -0.002603 -0.004686 0.000000 0.000000 0.000000
# 2 -0.002603 0.006994 -0.001534 0.000000 0.000000 0.000000
# 3 -0.004686 -0.001534 0.010408 0.000000 0.000000 0.000000
# 4 0.000000 0.000000 0.000000 0.023557 0.000000 0.000000
# 5 0.000000 0.000000 0.000000 0.000000 0.023695 0.000000
# 6 0.000000 0.000000 0.000000 0.000000 0.000000 0.031994
#
#
# Mechanical properties :
#
#
# Convention : Reuss Voigt Hill
#
# Bulk Modulus (GPa) = 95.19099 95.99638 95.59368
# Shear Modulus (GPa) = 38.89695 40.53642 39.71669
#
# Velocity S-wave (km/s) = 3.94482 4.02710 3.98617
# Velocity P-wave (km/s) = 7.67022 7.74784 7.70912
#
# Compressibility (1/GPa) = 0.01050520
#
# Stress axis : x y z
#
# Youngs Moduli (GPa) = 93.03460 142.97413 96.07689
#
# Poissons Ratio (x) = 0.37216 0.45023
# Poissons Ratio (y) = 0.24217 0.14738
# Poissons Ratio (z) = 0.43597 0.21931
#
# Static dielectric constant tensor:
#      x y z
#    x 2.000550 0.000000 0.000000 
#    y 0.000000 2.092300 0.000000 
#    z 0.000000 0.000000 2.125210 
# 
# From -- ./inp_files/4633.got.cif
#   From: 2010.05.17/outbox.cif.g08.bks.cpg/sg60_3_cif.got.tgz:4633.got - 2010.06.03 14:59:27.
