data_PCOD9458346
_publ_section_title
;
Structure prediction by ZEFSAII (Michael W. Deem and Ramdas Pophale) SiO2 
 PCOD9458346
Probable space group: P B C N
;
_chemical_formula_sum "Si O2"
_cell_formula_units_Z 60
_cell_length_a 25.892965
_cell_length_b 11.459372
_cell_length_c 7.745713
_cell_angle_alpha 90.000000
_cell_angle_beta 90.000000
_cell_angle_gamma 90.000000
_cell_volume 2298.285639
_symmetry_space_group_name_H-M "P B C N"
_symmetry_group_IT_number 60
_symmetry_cell_setting 'orthorhombic'
loop_
_space_group_symop_operation_xyz
x,y,z
1/2-x,1/2-y,1/2+z
1/2+x,1/2-y,-z
-x,y,1/2-z
-x,-y,-z
1/2+x,1/2+y,1/2-z
1/2-x,1/2+y,z
x,-y,1/2+z
loop_
_atom_site_type_symbol
_atom_site_label
_atom_site_fract_x
_atom_site_fract_y
_atom_site_fract_z
Si Si1 0.150899 0.131670 0.415417
Si Si2 0.262616 0.152700 0.582643
Si Si3 0.620808 0.870824 0.053823
Si Si4 0.783349 0.606528 0.290241
Si Si5 0.035744 0.233731 0.919456
Si Si6 0.598076 0.444040 0.251798
Si Si7 0.057709 0.543255 0.254277
Si Si8 0.500000 0.613128 0.250000
O O1 0.205620 0.135802 0.504118
O O2 0.132122 0.253273 0.340275
O O3 0.108756 0.112356 0.566080
O O4 0.146938 0.022698 0.291571
O O5 0.257975 0.286635 0.658881
O O6 0.297295 0.139603 0.408462
O O7 0.270489 0.034156 0.698522
O O8 0.670718 0.880501 0.930020
O O9 0.573395 0.884627 0.917242
O O10 0.604836 0.961249 0.199487
O O11 0.085514 0.152648 0.889682
O O12 0.053239 0.365870 0.912535
O O13 0.000000 0.216378 0.750000
O O14 0.005056 0.192406 0.083554
O O15 0.549375 0.529573 0.250981
O O16 0.000000 0.490643 0.250000
#
# Coordination Sequence:
#
# PCOD9458346 Si02
#       8
#     8   8   8   8   8   8   8   4
#     4  11  25  42  69 100 145 174 237 299 365 443
#     4  11  24  46  72 112 142 196 237 312 383 457
#     4  11  25  48  68 101 141 191 240 298 365 434
#     4  11  24  46  77 105 150 188 247 309 380 465
#     4  11  23  42  66  96 138 185 243 303 357 427
#     4  12  21  41  64  97 137 184 228 298 354 439
#     4  11  25  46  68  97 143 192 245 298 354 430
#     4  12  24  38  68 104 132 194 248 286 378 434
#
# _framework density 26.106417
#
# number of rings (size 3 to 8) (size 9 to 14) (size 15 to 20)
#    0.000    0.800    3.333    4.000    1.867    3.200 
#    4.800    0.000    0.000    0.000    0.000    0.000 
#    0.000    0.000    0.000    0.000    0.000    0.000 
#
# Total GULP energy -335629.141195 kJ/mol
# GULP energy per Si atom -5593.819020 kJ/mol
# Density = 2.604700 g / cm^3
# Si number density = 26.106417 Si / 1000 Ang^3
#
#
#
# Elastic Constant Matrix: (Units=GPa)
#
#
# Indices 1 2 3 4 5 6 
#
# 1 73.0286 21.4186 3.5613 0.0000 0.0000 0.0000
# 2 21.4186 122.9923 19.3438 0.0000 0.0000 0.0000
# 3 3.5613 19.3438 83.3011 0.0000 0.0000 0.0000
# 4 0.0000 0.0000 0.0000 36.6737 0.0000 0.0000
# 5 0.0000 0.0000 0.0000 0.0000 37.0485 0.0000
# 6 0.0000 0.0000 0.0000 0.0000 0.0000 31.5141
#
#
#
# Elastic Compliance Matrix: (Units=1/GPa)
#
#
# Indices 1 2 3 4 5 6 
#
# 1 0.014430 -0.002508 -0.000035 0.000000 0.000000 0.000000
# 2 -0.002508 0.008875 -0.001954 0.000000 0.000000 0.000000
# 3 -0.000035 -0.001954 0.012460 0.000000 0.000000 0.000000
# 4 0.000000 0.000000 0.000000 0.027267 0.000000 0.000000
# 5 0.000000 0.000000 0.000000 0.000000 0.026992 0.000000
# 6 0.000000 0.000000 0.000000 0.000000 0.000000 0.031732
#
#
# Mechanical properties :
#
#
# Convention : Reuss Voigt Hill
#
# Bulk Modulus (GPa) = 37.35088 40.88550 39.11819
# Shear Modulus (GPa) = 35.79826 36.71382 36.25604
#
# Velocity S-wave (km/s) = 3.70705 3.75415 3.73068
# Velocity P-wave (km/s) = 5.71500 5.87253 5.79430
#
# Compressibility (1/GPa) = 0.02677313
#
# Stress axis : x y z
#
# Youngs Moduli (GPa) = 69.29817 112.68208 80.25820
#
# Poissons Ratio (x) = 0.28256 0.00278
# Poissons Ratio (y) = 0.17377 0.15679
# Poissons Ratio (z) = 0.00240 0.22014
#
# Static dielectric constant tensor:
#      x y z
#    x 2.075490 0.000000 0.000000 
#    y 0.000000 2.155730 0.000000 
#    z 0.000000 0.000000 2.029380 
# 
# From -- ./inp_files/8469.got.cif
#   From: 2010.05.17/outbox.cif.g08.bks.cpg/sg60_5_cif.got.tgz:8469.got - 2010.06.03 14:59:27.
