data_PCOD9458598
_publ_section_title
;
Structure prediction by ZEFSAII (Michael W. Deem and Ramdas Pophale) SiO2 
 PCOD9458598
Probable space group: P B C N
;
_chemical_formula_sum "Si O2"
_cell_formula_units_Z 32
_cell_length_a 11.086007
_cell_length_b 14.708948
_cell_length_c 8.207248
_cell_angle_alpha 90.000000
_cell_angle_beta 90.000000
_cell_angle_gamma 90.000000
_cell_volume 1338.302588
_symmetry_space_group_name_H-M "P B C N"
_symmetry_group_IT_number 60
_symmetry_cell_setting 'orthorhombic'
loop_
_space_group_symop_operation_xyz
x,y,z
1/2-x,1/2-y,1/2+z
1/2+x,1/2-y,-z
-x,y,1/2-z
-x,-y,-z
1/2+x,1/2+y,1/2-z
1/2-x,1/2+y,z
x,-y,1/2+z
loop_
_atom_site_type_symbol
_atom_site_label
_atom_site_fract_x
_atom_site_fract_y
_atom_site_fract_z
Si Si1 0.247016 0.128873 0.295676
Si Si2 0.859029 0.525324 0.513282
Si Si3 0.191420 0.838934 0.310844
Si Si4 0.970757 0.105901 0.999847
O O1 0.305801 0.073556 0.146979
O O2 0.279524 0.233919 0.285932
O O3 0.106451 0.125349 0.339519
O O4 0.301673 0.071842 0.446228
O O5 0.806904 0.597358 0.648648
O O6 0.000000 0.500000 0.500000
O O7 0.097481 0.845180 0.462978
O O8 0.114123 0.871877 0.156038
O O9 0.000000 0.000000 0.000000
#
# Coordination Sequence:
#
# PCOD9458598 Si02
#       4
#     8   8   8   8
#     4  12  27  49  80 116 161 213 265 324 403 476
#     4  12  28  48  79 119 163 207 261 335 406 475
#     4  11  27  49  83 118 159 212 271 329 402 477
#     4  11  25  49  82 112 160 206 271 337 388 469
#
# _framework density 23.910886999999999
#
# number of rings (size 3 to 8) (size 9 to 14) (size 15 to 20)
#    0.000    0.500    2.500    3.750   14.000    1.000 
#    0.000    0.000    0.000    0.000    0.000    0.000 
#    0.000    0.000    0.000    0.000    0.000    0.000 
#
# Total GULP energy -178951.623702 kJ/mol
# GULP energy per Si atom -5592.238241 kJ/mol
# Density = 2.385646 g / cm^3
# Si number density = 23.910887 Si / 1000 Ang^3
#
#
#
# Elastic Constant Matrix: (Units=GPa)
#
#
# Indices 1 2 3 4 5 6 
#
# 1 209.0705 87.6765 89.0519 0.0000 0.0000 0.0000
# 2 87.6765 217.0082 66.1855 0.0000 0.0000 0.0000
# 3 89.0519 66.1855 107.1416 0.0000 0.0000 0.0000
# 4 0.0000 0.0000 0.0000 38.4352 0.0000 0.0000
# 5 0.0000 0.0000 0.0000 0.0000 37.2280 0.0000
# 6 0.0000 0.0000 0.0000 0.0000 0.0000 43.3158
#
#
#
# Elastic Compliance Matrix: (Units=1/GPa)
#
#
# Indices 1 2 3 4 5 6 
#
# 1 0.007752 -0.001438 -0.005555 0.000000 0.000000 0.000000
# 2 -0.001438 0.005945 -0.002477 0.000000 0.000000 0.000000
# 3 -0.005555 -0.002477 0.015481 0.000000 0.000000 0.000000
# 4 0.000000 0.000000 0.000000 0.026018 0.000000 0.000000
# 5 0.000000 0.000000 0.000000 0.000000 0.026862 0.000000
# 6 0.000000 0.000000 0.000000 0.000000 0.000000 0.023086
#
#
# Mechanical properties :
#
#
# Convention : Reuss Voigt Hill
#
# Bulk Modulus (GPa) = 97.68036 113.22758 105.45397
# Shear Modulus (GPa) = 39.21697 43.14955 41.18326
#
# Velocity S-wave (km/s) = 4.05425 4.25267 4.15464
# Velocity P-wave (km/s) = 7.92820 8.45993 8.19838
#
# Compressibility (1/GPa) = 0.01023747
#
# Stress axis : x y z
#
# Youngs Moduli (GPa) = 128.99555 168.22193 64.59591
#
# Poissons Ratio (x) = 0.24187 0.35884
# Poissons Ratio (y) = 0.18547 0.16001
# Poissons Ratio (z) = 0.71659 0.41670
#
# Static dielectric constant tensor:
#      x y z
#    x 2.004000 0.000000 0.000000 
#    y 0.000000 0.817740 0.000000 
#    z 0.000000 0.000000 2.191500 
# 
# From -- ./inp_files/4547.got.cif
#   From: 2010.05.17/outbox.cif.g08.bks.cpg/sg60_3_cif.got.tgz:4547.got - 2010.06.03 14:59:27.
