data_PCOD9458374
_publ_section_title
;
Structure prediction by ZEFSAII (Michael W. Deem and Ramdas Pophale) SiO2 
 PCOD9458374
Probable space group: P B C N
;
_chemical_formula_sum "Si O2"
_cell_formula_units_Z 32
_cell_length_a 14.040860
_cell_length_b 12.261641
_cell_length_c 7.827711
_cell_angle_alpha 90.000000
_cell_angle_beta 90.000000
_cell_angle_gamma 90.000000
_cell_volume 1347.649916
_symmetry_space_group_name_H-M "P B C N"
_symmetry_group_IT_number 60
_symmetry_cell_setting 'orthorhombic'
loop_
_space_group_symop_operation_xyz
x,y,z
1/2-x,1/2-y,1/2+z
1/2+x,1/2-y,-z
-x,y,1/2-z
-x,-y,-z
1/2+x,1/2+y,1/2-z
1/2-x,1/2+y,z
x,-y,1/2+z
loop_
_atom_site_type_symbol
_atom_site_label
_atom_site_fract_x
_atom_site_fract_y
_atom_site_fract_z
Si Si1 0.573010 0.429823 0.114226
Si Si2 0.096916 0.550974 0.144890
Si Si3 0.193217 0.879445 0.704841
Si Si4 0.899781 0.328282 0.211777
O O1 0.500000 0.372045 0.250000
O O2 0.640246 0.516707 0.211777
O O3 0.500000 0.500000 0.000000
O O4 0.643247 0.367395 0.983146
O O5 0.195108 0.600122 0.211219
O O6 0.115670 0.420559 0.145733
O O7 0.000000 0.572163 0.250000
O O8 0.088662 0.601384 0.958190
O O9 0.174588 0.766985 0.801922
O O10 0.000000 0.270698 0.250000
#
# Coordination Sequence:
#
# PCOD9458374 Si02
#       4
#     8   8   8   8
#     4   9  19  39  65 101 140 168 214 284 342 400
#     4  11  25  45  69  99 139 180 229 287 339 405
#     4  11  23  43  70 101 136 182 229 279 344 413
#     4  11  24  45  69  97 135 180 228 282 344 408
#
# _framework density 23.745038999999998
#
# number of rings (size 3 to 8) (size 9 to 14) (size 15 to 20)
#    0.000    1.500    0.000    6.750    0.000    6.000 
#    0.000   23.750    0.000    1.500    0.000    0.000 
#    0.000    0.000    0.000    0.000    0.000    0.000 
#
# Total GULP energy -178823.122622 kJ/mol
# GULP energy per Si atom -5588.222582 kJ/mol
# Density = 2.369099 g / cm^3
# Si number density = 23.745039 Si / 1000 Ang^3
#
#
#
# Elastic Constant Matrix: (Units=GPa)
#
#
# Indices 1 2 3 4 5 6 
#
# 1 173.4505 32.4621 24.6683 0.0000 0.0000 0.0000
# 2 32.4621 70.8312 12.6946 0.0000 0.0000 0.0000
# 3 24.6683 12.6946 77.3217 0.0000 0.0000 0.0000
# 4 0.0000 0.0000 0.0000 11.3009 0.0000 0.0000
# 5 0.0000 0.0000 0.0000 0.0000 34.6167 0.0000
# 6 0.0000 0.0000 0.0000 0.0000 0.0000 37.0416
#
#
#
# Elastic Compliance Matrix: (Units=1/GPa)
#
#
# Indices 1 2 3 4 5 6 
#
# 1 0.006500 -0.002686 -0.001633 0.000000 0.000000 0.000000
# 2 -0.002686 0.015656 -0.001713 0.000000 0.000000 0.000000
# 3 -0.001633 -0.001713 0.013735 0.000000 0.000000 0.000000
# 4 0.000000 0.000000 0.000000 0.088488 0.000000 0.000000
# 5 0.000000 0.000000 0.000000 0.000000 0.028888 0.000000
# 6 0.000000 0.000000 0.000000 0.000000 0.000000 0.026997
#
#
# Mechanical properties :
#
#
# Convention : Reuss Voigt Hill
#
# Bulk Modulus (GPa) = 41.96980 51.25038 46.61009
# Shear Modulus (GPa) = 24.96603 33.37708 29.17156
#
# Velocity S-wave (km/s) = 3.24608 3.75326 3.50885
# Velocity P-wave (km/s) = 5.63586 6.35713 6.00733
#
# Compressibility (1/GPa) = 0.02382666
#
# Stress axis : x y z
#
# Youngs Moduli (GPa) = 153.83818 63.87175 72.80575
#
# Poissons Ratio (x) = 0.17159 0.11887
# Poissons Ratio (y) = 0.41329 0.12474
# Poissons Ratio (z) = 0.25118 0.10944
#
# Static dielectric constant tensor:
#      x y z
#    x 2.507730 0.000000 0.000000 
#    y 0.000000 1.878190 0.000000 
#    z 0.000000 0.000000 2.000660 
# 
# From -- ./inp_files/5534.got.cif
#   From: 2010.05.17/outbox.cif.g08.bks.cpg/sg60_3_cif.got.tgz:5534.got - 2010.06.03 14:59:27.
