data_PCOD9458559
_publ_section_title
;
Structure prediction by ZEFSAII (Michael W. Deem and Ramdas Pophale) SiO2 
 PCOD9458559
Probable space group: P B C N
;
_chemical_formula_sum "Si O2"
_cell_formula_units_Z 64
_cell_length_a 27.323532
_cell_length_b 11.807488
_cell_length_c 8.682799
_cell_angle_alpha 90.000000
_cell_angle_beta 90.000000
_cell_angle_gamma 90.000000
_cell_volume 2801.264377
_symmetry_space_group_name_H-M "P B C N"
_symmetry_group_IT_number 60
_symmetry_cell_setting 'orthorhombic'
loop_
_space_group_symop_operation_xyz
x,y,z
1/2-x,1/2-y,1/2+z
1/2+x,1/2-y,-z
-x,y,1/2-z
-x,-y,-z
1/2+x,1/2+y,1/2-z
1/2-x,1/2+y,z
x,-y,1/2+z
loop_
_atom_site_type_symbol
_atom_site_label
_atom_site_fract_x
_atom_site_fract_y
_atom_site_fract_z
Si Si1 0.301464 0.526149 0.006987
Si Si2 0.447516 0.265123 0.327524
Si Si3 0.206610 0.790252 0.872118
Si Si4 0.947506 0.148601 0.324140
Si Si5 0.377054 0.841031 0.228944
Si Si6 0.875678 0.058566 0.745609
Si Si7 0.214519 0.334586 0.675060
Si Si8 0.371880 0.071365 0.388413
O O1 0.333405 0.464417 0.134910
O O2 0.256265 0.590200 0.086243
O O3 0.283437 0.422393 0.900916
O O4 0.344601 0.587247 0.909172
O O5 0.500000 0.253334 0.250000
O O6 0.450289 0.337127 0.488893
O O7 0.411369 0.338100 0.220598
O O8 0.419979 0.145938 0.350832
O O9 0.163414 0.754982 0.759926
O O10 0.255915 0.750161 0.788590
O O11 0.193514 0.733197 0.031916
O O12 0.927174 0.271801 0.276348
O O13 0.000000 0.126064 0.250000
O O14 0.910632 0.052421 0.258006
O O15 0.378548 0.938928 0.355878
O O16 0.363112 0.899744 0.067066
O O17 0.173203 0.392202 0.778497
#
# Coordination Sequence:
#
# PCOD9458559 Si02
#       8
#     8   8   8   8   8   8   8   8
#     4  12  26  45  68 104 146 189 243 294 368 438
#     4  11  27  47  74 108 145 192 249 309 371 443
#     4  12  27  44  70  98 145 190 242 298 360 437
#     4  11  25  44  71 105 142 187 243 305 372 440
#     4  11  25  49  70 103 141 194 240 304 366 436
#     4  12  24  45  72 104 149 194 239 303 371 443
#     4  12  28  42  69 106 140 196 240 300 359 442
#     4  11  27  48  75 103 148 188 249 302 367 435
#
# _framework density 22.846824999999999
#
# number of rings (size 3 to 8) (size 9 to 14) (size 15 to 20)
#    0.000    0.500    3.750    2.625   12.250    3.500 
#    0.000    2.500    0.000    0.000    0.000    0.000 
#    0.000    0.000    0.000    0.000    0.000    0.000 
#
# Total GULP energy -357606.061228 kJ/mol
# GULP energy per Si atom -5587.594707 kJ/mol
# Density = 2.279482 g / cm^3
# Si number density = 22.846825 Si / 1000 Ang^3
#
#
#
# Elastic Constant Matrix: (Units=GPa)
#
#
# Indices 1 2 3 4 5 6 
#
# 1 113.8015 35.2493 33.3455 0.0000 0.0000 0.0000
# 2 35.2493 73.3302 11.4126 0.0000 0.0000 0.0000
# 3 33.3455 11.4126 61.9759 0.0000 0.0000 0.0000
# 4 0.0000 0.0000 0.0000 31.4133 0.0000 0.0000
# 5 0.0000 0.0000 0.0000 0.0000 25.9208 0.0000
# 6 0.0000 0.0000 0.0000 0.0000 0.0000 27.3444
#
#
#
# Elastic Compliance Matrix: (Units=1/GPa)
#
#
# Indices 1 2 3 4 5 6 
#
# 1 0.011910 -0.004867 -0.005512 0.000000 0.000000 0.000000
# 2 -0.004867 0.016028 -0.000333 0.000000 0.000000 0.000000
# 3 -0.005512 -0.000333 0.019162 0.000000 0.000000 0.000000
# 4 0.000000 0.000000 0.000000 0.031834 0.000000 0.000000
# 5 0.000000 0.000000 0.000000 0.000000 0.038579 0.000000
# 6 0.000000 0.000000 0.000000 0.000000 0.000000 0.036571
#
#
# Mechanical properties :
#
#
# Convention : Reuss Voigt Hill
#
# Bulk Modulus (GPa) = 38.94546 45.45802 42.20174
# Shear Modulus (GPa) = 27.16418 28.20904 27.68661
#
# Velocity S-wave (km/s) = 3.45188 3.51765 3.48492
# Velocity P-wave (km/s) = 5.74201 6.03643 5.89106
#
# Compressibility (1/GPa) = 0.02567694
#
# Stress axis : x y z
#
# Youngs Moduli (GPa) = 83.96445 62.38942 52.18634
#
# Poissons Ratio (x) = 0.30366 0.28763
# Poissons Ratio (y) = 0.40867 0.01737
# Poissons Ratio (z) = 0.46279 0.02077
#
# Static dielectric constant tensor:
#      x y z
#    x 1.815820 0.000000 0.000000 
#    y 0.000000 1.886350 0.000000 
#    z 0.000000 0.000000 1.946700 
# 
# From -- ./inp_files/8514.got.cif
#   From: 2010.05.17/outbox.cif.g08.bks.cpg/sg60_5_cif.got.tgz:8514.got - 2010.06.03 14:59:27.
