data_PCOD9458414
_publ_section_title
;
Structure prediction by ZEFSAII (Michael W. Deem and Ramdas Pophale) SiO2 
 PCOD9458414
Probable space group: P B C N
;
_chemical_formula_sum "Si O2"
_cell_formula_units_Z 32
_cell_length_a 5.228428
_cell_length_b 30.048798
_cell_length_c 8.828308
_cell_angle_alpha 90.000000
_cell_angle_beta 90.000000
_cell_angle_gamma 90.000000
_cell_volume 1386.997609
_symmetry_space_group_name_H-M "P B C N"
_symmetry_group_IT_number 60
_symmetry_cell_setting 'orthorhombic'
loop_
_space_group_symop_operation_xyz
x,y,z
1/2-x,1/2-y,1/2+z
1/2+x,1/2-y,-z
-x,y,1/2-z
-x,-y,-z
1/2+x,1/2+y,1/2-z
1/2-x,1/2+y,z
x,-y,1/2+z
loop_
_atom_site_type_symbol
_atom_site_label
_atom_site_fract_x
_atom_site_fract_y
_atom_site_fract_z
Si Si1 0.752908 0.366560 0.647034
Si Si2 0.082846 0.266830 0.920643
Si Si3 0.178982 0.022607 0.119074
Si Si4 0.912934 0.430697 0.401530
O O1 0.500000 0.362656 0.750000
O O2 0.824949 0.317956 0.583909
O O3 0.729463 0.400486 0.505659
O O4 0.000000 0.379459 0.750000
O O5 0.000000 0.254403 0.750000
O O6 0.327915 0.239444 0.979184
O O7 0.000000 0.042719 0.250000
O O8 0.299869 0.975875 0.171627
O O9 0.377014 0.052596 0.025592
O O10 0.000000 0.000000 0.000000
O O11 0.000000 0.404914 0.250000
#
# Coordination Sequence:
#
# PCOD9458414 Si02
#       4
#     8   8   8   8
#     4  11  27  47  72 106 147 191 237 294 364 437
#     4  11  23  46  75 108 146 188 235 288 357 435
#     4  11  24  43  67  95 143 190 242 305 364 422
#     4  11  26  43  67 105 137 186 250 300 359 428
#
# _framework density 23.071414999999998
#
# number of rings (size 3 to 8) (size 9 to 14) (size 15 to 20)
#    0.000    1.000    2.500    3.750    7.000    2.000 
#    0.000    1.250    0.000    0.000    0.000    0.000 
#    0.000    0.000    0.000    0.000    0.000    0.000 
#
# Total GULP energy -178580.945039 kJ/mol
# GULP energy per Si atom -5580.654532 kJ/mol
# Density = 2.301890 g / cm^3
# Si number density = 23.071415 Si / 1000 Ang^3
#
#
#
# Elastic Constant Matrix: (Units=GPa)
#
#
# Indices 1 2 3 4 5 6 
#
# 1 135.0165 42.2520 50.5498 0.0000 0.0000 0.0000
# 2 42.2520 86.5135 68.0426 0.0000 0.0000 0.0000
# 3 50.5498 68.0426 124.3986 0.0000 0.0000 0.0000
# 4 0.0000 0.0000 0.0000 87.0316 0.0000 0.0000
# 5 0.0000 0.0000 0.0000 0.0000 76.8674 0.0000
# 6 0.0000 0.0000 0.0000 0.0000 0.0000 35.3569
#
#
#
# Elastic Compliance Matrix: (Units=1/GPa)
#
#
# Indices 1 2 3 4 5 6 
#
# 1 0.009079 -0.002689 -0.002218 0.000000 0.000000 0.000000
# 2 -0.002689 0.021082 -0.010439 0.000000 0.000000 0.000000
# 3 -0.002218 -0.010439 0.014650 0.000000 0.000000 0.000000
# 4 0.000000 0.000000 0.000000 0.011490 0.000000 0.000000
# 5 0.000000 0.000000 0.000000 0.000000 0.013009 0.000000
# 6 0.000000 0.000000 0.000000 0.000000 0.000000 0.028283
#
#
# Mechanical properties :
#
#
# Convention : Reuss Voigt Hill
#
# Bulk Modulus (GPa) = 70.82958 74.17970 72.50464
# Shear Modulus (GPa) = 37.59652 52.19013 44.89332
#
# Velocity S-wave (km/s) = 4.04117 4.76133 4.41596
# Velocity P-wave (km/s) = 7.24856 7.90247 7.58256
#
# Compressibility (1/GPa) = 0.01411839
#
# Stress axis : x y z
#
# Youngs Moduli (GPa) = 110.14974 47.43335 68.26111
#
# Poissons Ratio (x) = 0.12756 0.15141
# Poissons Ratio (y) = 0.29622 0.71255
# Poissons Ratio (z) = 0.24433 0.49514
#
# Static dielectric constant tensor:
#      x y z
#    x 1.812950 0.000000 0.000000 
#    y 0.000000 1.890590 0.000000 
#    z 0.000000 0.000000 1.775070 
# 
# From -- ./inp_files/3107.got.cif
#   From: 2010.05.17/outbox.cif.g08.bks.cpg/sg60_2_cif.got.tgz:3107.got - 2010.06.03 14:59:27.
