data_PCOD9458157
_publ_section_title
;
Structure prediction by ZEFSAII (Michael W. Deem and Ramdas Pophale) SiO2 
 PCOD9458157
Probable space group: P B C N
;
_chemical_formula_sum "Si O2"
_cell_formula_units_Z 44
_cell_length_a 8.637473
_cell_length_b 13.762960
_cell_length_c 15.035538
_cell_angle_alpha 90.000000
_cell_angle_beta 90.000000
_cell_angle_gamma 90.000000
_cell_volume 1787.382589
_symmetry_space_group_name_H-M "P B C N"
_symmetry_group_IT_number 60
_symmetry_cell_setting 'orthorhombic'
loop_
_space_group_symop_operation_xyz
x,y,z
1/2-x,1/2-y,1/2+z
1/2+x,1/2-y,-z
-x,y,1/2-z
-x,-y,-z
1/2+x,1/2+y,1/2-z
1/2-x,1/2+y,z
x,-y,1/2+z
loop_
_atom_site_type_symbol
_atom_site_label
_atom_site_fract_x
_atom_site_fract_y
_atom_site_fract_z
Si Si1 0.756500 0.922577 0.893935
Si Si2 0.173993 0.406983 0.416416
Si Si3 0.694806 0.904899 0.693470
Si Si4 0.500000 0.266265 0.250000
Si Si5 0.460112 0.297517 0.899344
Si Si6 0.547770 0.383510 0.410148
O O1 0.690191 0.935615 0.796229
O O2 0.860971 0.825363 0.890851
O O3 0.871416 0.012188 0.914909
O O4 0.644933 0.915396 0.978064
O O5 0.140752 0.506332 0.366120
O O6 0.083566 0.313302 0.380946
O O7 0.360556 0.392204 0.406628
O O8 0.597182 0.806070 0.687896
O O9 0.865096 0.870791 0.663581
O O10 0.594984 0.332726 0.317817
O O11 0.412641 0.324005 0.000936
#
# Coordination Sequence:
#
# PCOD9458157 Si02
#       6
#     8   8   8   4   8   8
#     4  11  23  42  73  98 125 180 237 272 328 411
#     4  11  22  44  67  98 136 173 219 281 341 399
#     4  12  24  44  64  99 140 175 228 277 334 414
#     4  12  26  42  66 102 140 176 220 290 352 388
#     4  11  22  41  69  97 130 168 229 282 330 395
#     4  11  21  42  70  96 125 179 227 276 331 405
#
# _framework density 24.617001999999999
#
# number of rings (size 3 to 8) (size 9 to 14) (size 15 to 20)
#    0.000    0.727    5.455    3.818    0.000    0.000 
#    3.273    5.455    0.000    0.000    0.000    0.000 
#    0.000    0.000    0.000    0.000    0.000    0.000 
#
# Total GULP energy -246582.360694 kJ/mol
# GULP energy per Si atom -5604.144561 kJ/mol
# Density = 2.456097 g / cm^3
# Si number density = 24.617002 Si / 1000 Ang^3
#
#
#
# Elastic Constant Matrix: (Units=GPa)
#
#
# Indices 1 2 3 4 5 6 
#
# 1 39.3008 25.6734 8.3494 0.0000 0.0000 0.0000
# 2 25.6734 135.2934 49.4132 0.0000 0.0000 0.0000
# 3 8.3494 49.4132 135.1319 0.0000 0.0000 0.0000
# 4 0.0000 0.0000 0.0000 47.6604 0.0000 0.0000
# 5 0.0000 0.0000 0.0000 0.0000 24.8031 0.0000
# 6 0.0000 0.0000 0.0000 0.0000 0.0000 17.8344
#
#
#
# Elastic Compliance Matrix: (Units=1/GPa)
#
#
# Indices 1 2 3 4 5 6 
#
# 1 0.029053 -0.005606 0.000255 0.000000 0.000000 0.000000
# 2 -0.005606 0.009612 -0.003169 0.000000 0.000000 0.000000
# 3 0.000255 -0.003169 0.008543 0.000000 0.000000 0.000000
# 4 0.000000 0.000000 0.000000 0.020982 0.000000 0.000000
# 5 0.000000 0.000000 0.000000 0.000000 0.040318 0.000000
# 6 0.000000 0.000000 0.000000 0.000000 0.000000 0.056071
#
#
# Mechanical properties :
#
#
# Convention : Reuss Voigt Hill
#
# Bulk Modulus (GPa) = 33.14695 52.95533 43.05114
# Shear Modulus (GPa) = 26.08582 33.14559 29.61570
#
# Velocity S-wave (km/s) = 3.25878 3.67338 3.47228
# Velocity P-wave (km/s) = 5.25869 6.28888 5.79672
#
# Compressibility (1/GPa) = 0.03016869
#
# Stress axis : x y z
#
# Youngs Moduli (GPa) = 34.41999 104.03202 117.05407
#
# Poissons Ratio (x) = 0.58322 -0.02984
# Poissons Ratio (y) = 0.19297 0.37089
# Poissons Ratio (z) = -0.00877 0.32963
#
# Static dielectric constant tensor:
#      x y z
#    x 1.999340 0.000000 0.000000 
#    y 0.000000 1.899720 0.000000 
#    z 0.000000 0.000000 1.945820 
# 
# From -- ./inp_files/15997.got.cif
#   From: 2010.05.17/outbox.cif.g08.bks.cpg/sg60_8_cif.got.tgz:15997.got - 2010.06.03 14:59:27.
