data_PCOD9458502
_publ_section_title
;
Structure prediction by ZEFSAII (Michael W. Deem and Ramdas Pophale) SiO2 
 PCOD9458502
Probable space group: P B C N
;
_chemical_formula_sum "Si O2"
_cell_formula_units_Z 64
_cell_length_a 14.171381
_cell_length_b 19.994012
_cell_length_c 9.573008
_cell_angle_alpha 90.000000
_cell_angle_beta 90.000000
_cell_angle_gamma 90.000000
_cell_volume 2712.442525
_symmetry_space_group_name_H-M "P B C N"
_symmetry_group_IT_number 60
_symmetry_cell_setting 'orthorhombic'
loop_
_space_group_symop_operation_xyz
x,y,z
1/2-x,1/2-y,1/2+z
1/2+x,1/2-y,-z
-x,y,1/2-z
-x,-y,-z
1/2+x,1/2+y,1/2-z
1/2-x,1/2+y,z
x,-y,1/2+z
loop_
_atom_site_type_symbol
_atom_site_label
_atom_site_fract_x
_atom_site_fract_y
_atom_site_fract_z
Si Si1 0.082647 0.664430 0.103259
Si Si2 0.890598 0.874203 0.221374
Si Si3 0.403407 0.679408 0.226161
Si Si4 0.055588 0.451246 0.392949
Si Si5 0.233613 0.012487 0.925771
Si Si6 0.254359 0.918555 0.707605
Si Si7 0.687662 0.702811 0.978093
Si Si8 0.398243 0.239124 0.462665
O O1 0.140308 0.611862 0.201020
O O2 0.023018 0.694225 0.387158
O O3 0.072435 0.620608 0.962789
O O4 0.151807 0.727733 0.090773
O O5 0.836057 0.933020 0.141235
O O6 0.841130 0.853833 0.367269
O O7 0.889205 0.806817 0.127639
O O8 0.000000 0.891374 0.250000
O O9 0.500000 0.639131 0.250000
O O10 0.318922 0.637928 0.158536
O O11 0.366404 0.701374 0.375717
O O12 0.428175 0.738318 0.118282
O O13 0.160544 0.477640 0.367890
O O14 0.000000 0.447314 0.250000
O O15 0.000000 0.500000 0.500000
O O16 0.214037 0.940881 0.857500
O O17 0.242221 0.023513 0.091118
O O18 0.797723 0.704471 0.015743
#
# Coordination Sequence:
#
# PCOD9458502 Si02
#       8
#     8   8   8   8   8   8   8   8
#     4  11  24  45  72 109 149 195 248 305 386 449
#     4  12  25  49  73 111 153 201 257 315 382 455
#     4  12  24  44  71 108 149 188 250 311 380 451
#     4  11  25  46  72 106 148 195 248 309 368 453
#     4  11  26  50  77 101 151 198 255 309 375 447
#     4  11  26  50  75 108 148 199 256 315 368 462
#     4  12  26  42  74 113 150 198 246 313 388 454
#     4  12  24  45  72 108 157 193 244 317 383 464
#
# _framework density 23.594971000000001
#
# number of rings (size 3 to 8) (size 9 to 14) (size 15 to 20)
#    0.000    0.500    5.000    3.000    5.250    1.500 
#    4.500    1.250    0.000    0.000    0.000    0.000 
#    0.000    0.000    0.000    0.000    0.000    0.000 
#
# Total GULP energy -357961.623176 kJ/mol
# GULP energy per Si atom -5593.150362 kJ/mol
# Density = 2.354127 g / cm^3
# Si number density = 23.594971 Si / 1000 Ang^3
#
#
#
# Elastic Constant Matrix: (Units=GPa)
#
#
# Indices 1 2 3 4 5 6 
#
# 1 159.9653 23.8616 9.6992 0.0000 0.0000 0.0000
# 2 23.8616 68.2696 20.5354 0.0000 0.0000 0.0000
# 3 9.6992 20.5354 88.3495 0.0000 0.0000 0.0000
# 4 0.0000 0.0000 0.0000 8.4001 0.0000 0.0000
# 5 0.0000 0.0000 0.0000 0.0000 37.2620 0.0000
# 6 0.0000 0.0000 0.0000 0.0000 0.0000 30.9612
#
#
#
# Elastic Compliance Matrix: (Units=1/GPa)
#
#
# Indices 1 2 3 4 5 6 
#
# 1 0.006599 -0.002245 -0.000202 0.000000 0.000000 0.000000
# 2 -0.002245 0.016513 -0.003592 0.000000 0.000000 0.000000
# 3 -0.000202 -0.003592 0.012176 0.000000 0.000000 0.000000
# 4 0.000000 0.000000 0.000000 0.119046 0.000000 0.000000
# 5 0.000000 0.000000 0.000000 0.000000 0.026837 0.000000
# 6 0.000000 0.000000 0.000000 0.000000 0.000000 0.032299
#
#
# Mechanical properties :
#
#
# Convention : Reuss Voigt Hill
#
# Bulk Modulus (GPa) = 43.08834 47.19742 45.14288
# Shear Modulus (GPa) = 21.43312 32.82387 27.12850
#
# Velocity S-wave (km/s) = 3.01720 3.73384 3.39449
# Velocity P-wave (km/s) = 5.51718 6.21574 5.87685
#
# Compressibility (1/GPa) = 0.02320814
#
# Stress axis : x y z
#
# Youngs Moduli (GPa) = 151.54781 60.55839 82.13051
#
# Poissons Ratio (x) = 0.13598 0.01663
# Poissons Ratio (y) = 0.34029 0.29499
# Poissons Ratio (z) = 0.03069 0.21751
#
# Static dielectric constant tensor:
#      x y z
#    x 1.887510 0.000000 0.000000 
#    y 0.000000 1.935280 0.000000 
#    z 0.000000 0.000000 1.959190 
# 
# From -- ./inp_files/6315.got.cif
#   From: 2010.05.17/outbox.cif.g08.bks.cpg/sg60_4_cif.got.tgz:6315.got - 2010.06.03 14:59:27.
