data_PCOD9458995
_publ_section_title
;
Structure prediction by ZEFSAII (Michael W. Deem and Ramdas Pophale) SiO2 
 PCOD9458995
Probable space group: P B C A
;
_chemical_formula_sum "Si O2"
_cell_formula_units_Z 48
_cell_length_a 28.690327
_cell_length_b 13.307882
_cell_length_c 5.045422
_cell_angle_alpha 90.000000
_cell_angle_beta 90.000000
_cell_angle_gamma 90.000000
_cell_volume 1926.379891
_symmetry_space_group_name_H-M "P B C A"
_symmetry_group_IT_number 61
_symmetry_cell_setting 'orthorhombic'
loop_
_space_group_symop_operation_xyz
x,y,z
1/2-x,-y,1/2+z
1/2+x,1/2-y,-z
-x,1/2+y,1/2-z
-x,-y,-z
1/2+x,y,1/2-z
1/2-x,1/2+y,z
x,1/2-y,1/2+z
loop_
_atom_site_type_symbol
_atom_site_label
_atom_site_fract_x
_atom_site_fract_y
_atom_site_fract_z
Si Si1 0.702957 0.599762 0.722522
Si Si2 0.143332 0.205623 0.479390
Si Si3 0.263984 0.630003 0.281409
Si Si4 0.500091 0.925831 0.250296
Si Si5 0.598229 0.448259 0.170775
Si Si6 0.901129 0.412940 0.164611
O O1 0.708978 0.477970 0.714059
O O2 0.723115 0.628979 0.004612
O O3 0.649793 0.635325 0.687333
O O4 0.737630 0.637956 0.495868
O O5 0.122259 0.210265 0.181004
O O6 0.196445 0.206304 0.378122
O O7 0.139162 0.112724 0.683013
O O8 0.448358 0.881524 0.272555
O O9 0.500000 0.000000 0.500000
O O10 0.548425 0.864225 0.235020
O O11 0.500000 0.000000 0.000000
O O12 0.594704 0.544900 0.367219
O O13 0.601788 0.495383 0.879802
#
# Coordination Sequence:
#
# PCOD9458995 Si02
#       6
#     8   8   8   8   8   8
#     4  10  19  31  53  74 102 133 163 219 280 321
#     4  12  24  36  52  72 103 149 185 215 255 311
#     4  10  21  33  47  74 102 132 176 217 264 313
#     4   8  16  28  46  74 103 131 154 196 259 312
#     4  10  19  32  49  73 108 133 172 211 250 325
#     4  10  17  30  53  78 104 133 160 207 279 330
#
# _framework density 24.917203000000001
#
# number of rings (size 3 to 8) (size 9 to 14) (size 15 to 20)
#    0.000    2.000    1.667    3.000    4.667    0.000 
#    0.000    0.000    0.000    0.000    0.000    7.000 
#    0.000    0.000    0.000    0.000    0.000    0.000 
#
# Total GULP energy -267403.554088 kJ/mol
# GULP energy per Si atom -5570.907377 kJ/mol
# Density = 2.486049 g / cm^3
# Si number density = 24.917203 Si / 1000 Ang^3
#
#
#
# Elastic Constant Matrix: (Units=GPa)
#
#
# Indices 1 2 3 4 5 6 
#
# 1 145.9094 5.2156 -5.9288 0.0000 0.0000 0.0000
# 2 5.2156 27.4879 13.7342 0.0000 0.0000 0.0000
# 3 -5.9288 13.7342 103.3992 0.0000 0.0000 0.0000
# 4 0.0000 0.0000 0.0000 10.2853 0.0000 0.0000
# 5 0.0000 0.0000 0.0000 0.0000 34.3129 0.0000
# 6 0.0000 0.0000 0.0000 0.0000 0.0000 20.1221
#
#
#
# Elastic Compliance Matrix: (Units=1/GPa)
#
#
# Indices 1 2 3 4 5 6 
#
# 1 0.006936 -0.001623 0.000613 0.000000 0.000000 0.000000
# 2 -0.001623 0.039345 -0.005319 0.000000 0.000000 0.000000
# 3 0.000613 -0.005319 0.010413 0.000000 0.000000 0.000000
# 4 0.000000 0.000000 0.000000 0.097226 0.000000 0.000000
# 5 0.000000 0.000000 0.000000 0.000000 0.029144 0.000000
# 6 0.000000 0.000000 0.000000 0.000000 0.000000 0.049697
#
#
# Mechanical properties :
#
#
# Convention : Reuss Voigt Hill
#
# Bulk Modulus (GPa) = 22.70781 33.64873 28.17827
# Shear Modulus (GPa) = 19.22358 30.52910 24.87634
#
# Velocity S-wave (km/s) = 2.78060 3.50411 3.16311
# Velocity P-wave (km/s) = 4.40932 5.46857 4.96726
#
# Compressibility (1/GPa) = 0.04403772
#
# Stress axis : x y z
#
# Youngs Moduli (GPa) = 144.16519 25.41607 96.03433
#
# Poissons Ratio (x) = 0.04124 -0.05889
# Poissons Ratio (y) = 0.23392 0.51082
# Poissons Ratio (z) = -0.08841 0.13519
#
# Static dielectric constant tensor:
#      x y z
#    x 2.122540 0.000000 0.000000 
#    y 0.000000 2.153110 0.000000 
#    z 0.000000 0.000000 1.953530 
# 
# From -- ./inp_files/1344.got.cif
#   From: 2010.05.17/outbox.cif.g08.bks.cpg/sg61_1_cif.got.tgz:1344.got - 2010.06.03 15:17:17.
