data_PCOD9458629
_publ_section_title
;
Structure prediction by ZEFSAII (Michael W. Deem and Ramdas Pophale) SiO2 
 PCOD9458629
Probable space group: P B C N
;
_chemical_formula_sum "Si O2"
_cell_formula_units_Z 60
_cell_length_a 6.770277
_cell_length_b 22.518288
_cell_length_c 19.645527
_cell_angle_alpha 90.000000
_cell_angle_beta 90.000000
_cell_angle_gamma 90.000000
_cell_volume 2995.059749
_symmetry_space_group_name_H-M "P B C N"
_symmetry_group_IT_number 60
_symmetry_cell_setting 'orthorhombic'
loop_
_space_group_symop_operation_xyz
x,y,z
1/2-x,1/2-y,1/2+z
1/2+x,1/2-y,-z
-x,y,1/2-z
-x,-y,-z
1/2+x,1/2+y,1/2-z
1/2-x,1/2+y,z
x,-y,1/2+z
loop_
_atom_site_type_symbol
_atom_site_label
_atom_site_fract_x
_atom_site_fract_y
_atom_site_fract_z
Si Si1 0.500000 0.639370 0.750000
Si Si2 0.147931 0.012050 0.560407
Si Si3 0.177636 0.614299 0.079371
Si Si4 0.379453 0.183182 0.681444
Si Si5 0.503837 0.683136 0.331485
Si Si6 0.321001 0.538211 0.837760
Si Si7 0.991828 0.404309 0.062742
Si Si8 0.847657 0.408551 0.685079
O O1 0.646111 0.679526 0.797076
O O2 0.349476 0.593251 0.786738
O O3 0.330199 0.053114 0.539311
O O4 0.032680 0.036317 0.625514
O O5 0.207591 0.946550 0.578617
O O6 0.000000 0.000000 0.500000
O O7 0.314993 0.658132 0.123352
O O8 0.987617 0.595298 0.120917
O O9 0.113485 0.627578 0.001453
O O10 0.500000 0.167445 0.750000
O O11 0.473195 0.246258 0.658428
O O12 0.418611 0.139562 0.618931
O O13 0.500000 0.678465 0.250000
O O14 0.312276 0.641138 0.339061
O O15 0.256455 0.473775 0.807543
O O16 0.164474 0.555738 0.895853
O O17 0.000000 0.398053 0.750000
#
# Coordination Sequence:
#
# PCOD9458629 Si02
#       8
#     4   8   8   8   8   8   8   8
#     4  12  26  44  76 102 134 188 228 298 360 418
#     4  12  23  41  67 102 146 186 227 284 363 437
#     4  12  25  43  69 100 144 186 229 288 361 421
#     4  11  26  49  73  99 138 186 250 298 354 427
#     4  11  26  49  69  97 138 188 245 296 348 425
#     4  12  25  39  69 108 143 176 233 289 359 427
#     4  12  25  45  67 107 144 187 236 295 358 433
#     4  12  26  42  69 105 145 183 234 297 356 429
#
# _framework density 20.032988
#
# number of rings (size 3 to 8) (size 9 to 14) (size 15 to 20)
#    0.000    0.267    8.000    1.200    4.667    2.133 
#    2.400    0.000    0.000    0.000    0.000    0.000 
#    0.000    0.000    0.000    0.000    0.000    0.000 
#
# Total GULP energy -334055.004994 kJ/mol
# GULP energy per Si atom -5567.583417 kJ/mol
# Density = 1.998739 g / cm^3
# Si number density = 20.032988 Si / 1000 Ang^3
#
#
#
# Elastic Constant Matrix: (Units=GPa)
#
#
# Indices 1 2 3 4 5 6 
#
# 1 74.6412 11.0513 18.3260 0.0000 0.0000 0.0000
# 2 11.0513 38.7390 28.5393 0.0000 0.0000 0.0000
# 3 18.3260 28.5393 69.2323 0.0000 0.0000 0.0000
# 4 0.0000 0.0000 0.0000 19.7702 0.0000 0.0000
# 5 0.0000 0.0000 0.0000 0.0000 65.1160 0.0000
# 6 0.0000 0.0000 0.0000 0.0000 0.0000 -2.8543
#
#
#
# Elastic Compliance Matrix: (Units=1/GPa)
#
#
# Indices 1 2 3 4 5 6 
#
# 1 0.014422 -0.001870 -0.003047 0.000000 0.000000 0.000000
# 2 -0.001870 0.037315 -0.014887 0.000000 0.000000 0.000000
# 3 -0.003047 -0.014887 0.021387 0.000000 0.000000 0.000000
# 4 0.000000 0.000000 0.000000 0.050581 0.000000 0.000000
# 5 0.000000 0.000000 0.000000 0.000000 0.015357 0.000000
# 6 0.000000 0.000000 0.000000 0.000000 0.000000 -0.350346
#
#
# Mechanical properties :
#
#
# Convention : Reuss Voigt Hill
#
# Bulk Modulus (GPa) = 29.83556 33.16063 31.49810
# Shear Modulus (GPa) = -31.15189 24.71943 -3.21623
#
# Velocity S-wave (km/s) = -3.94766 3.51655 -1.26844
# Velocity P-wave (km/s) = 2.41934 5.75127 3.68944
#
# Compressibility (1/GPa) = 0.03351705
#
# Stress axis : x y z
#
# Youngs Moduli (GPa) = 69.33695 26.79918 46.75635
#
# Poissons Ratio (x) = 0.05011 0.14246
# Poissons Ratio (y) = 0.12964 0.69607
# Poissons Ratio (z) = 0.21126 0.39896
#
# Static dielectric constant tensor:
#      x y z
#    x 1.698980 0.000000 0.000000 
#    y 0.000000 1.586230 0.000000 
#    z 0.000000 0.000000 1.742870 
# 
# From -- ./inp_files/21759.got.cif
#   From: 2010.05.17/outbox.cif.g08.bks.cpg/sg60_11_cif.got.tgz:21759.got - 2010.06.03 14:59:27.
