data_PCOD9458364
_publ_section_title
;
Structure prediction by ZEFSAII (Michael W. Deem and Ramdas Pophale) SiO2 
 PCOD9458364
Probable space group: P B C N
;
_chemical_formula_sum "Si O2"
_cell_formula_units_Z 48
_cell_length_a 7.106962
_cell_length_b 14.270999
_cell_length_c 25.210657
_cell_angle_alpha 90.000000
_cell_angle_beta 90.000000
_cell_angle_gamma 90.000000
_cell_volume 2556.951749
_symmetry_space_group_name_H-M "P B C N"
_symmetry_group_IT_number 60
_symmetry_cell_setting 'orthorhombic'
loop_
_space_group_symop_operation_xyz
x,y,z
1/2-x,1/2-y,1/2+z
1/2+x,1/2-y,-z
-x,y,1/2-z
-x,-y,-z
1/2+x,1/2+y,1/2-z
1/2-x,1/2+y,z
x,-y,1/2+z
loop_
_atom_site_type_symbol
_atom_site_label
_atom_site_fract_x
_atom_site_fract_y
_atom_site_fract_z
Si Si1 0.350623 0.163466 0.050819
Si Si2 0.531655 0.185507 0.941288
Si Si3 0.190600 0.488124 0.123335
Si Si4 0.624931 0.076010 0.197727
Si Si5 0.824896 0.248674 0.625477
Si Si6 0.545485 0.428393 0.192473
O O1 0.180483 0.235329 0.042665
O O2 0.507961 0.215029 0.087094
O O3 0.277927 0.071373 0.081149
O O4 0.442756 0.141103 0.994217
O O5 0.636355 0.106924 0.906814
O O6 0.365057 0.232813 0.907430
O O7 0.365373 0.471390 0.162440
O O8 0.012658 0.521746 0.157466
O O9 0.500000 0.093151 0.250000
O O10 0.691504 0.171844 0.170434
O O11 0.803325 0.009018 0.205329
O O12 0.875318 0.151065 0.653598
O O13 0.500000 0.385076 0.250000
#
# Coordination Sequence:
#
# PCOD9458364 Si02
#       6
#     8   8   8   8   8   8
#     4  11  24  41  65  93 129 168 213 263 316 377
#     4  12  22  44  65  95 128 170 213 260 322 378
#     4  11  24  41  65  94 131 165 209 264 316 380
#     4  11  23  43  63  93 127 165 209 259 315 371
#     4  11  24  41  64  93 127 168 209 261 316 380
#     4  12  23  42  66  95 125 166 213 260 319 380
#
# _framework density 18.772352999999999
#
# number of rings (size 3 to 8) (size 9 to 14) (size 15 to 20)
#    0.000    0.667    6.667    2.000    0.000    0.000 
#    0.000    2.500    0.000    0.000    0.000    0.000 
#    0.000    0.000    0.000    0.000    0.000    0.000 
#
# Total GULP energy -268247.480036 kJ/mol
# GULP energy per Si atom -5588.489167 kJ/mol
# Density = 1.872963 g / cm^3
# Si number density = 18.772353 Si / 1000 Ang^3
#
#
#
# Elastic Constant Matrix: (Units=GPa)
#
#
# Indices 1 2 3 4 5 6 
#
# 1 64.7623 21.7719 30.2185 0.0000 0.0000 0.0000
# 2 21.7719 57.0517 17.5241 0.0000 0.0000 0.0000
# 3 30.2185 17.5241 103.9459 0.0000 0.0000 0.0000
# 4 0.0000 0.0000 0.0000 20.6159 0.0000 0.0000
# 5 0.0000 0.0000 0.0000 0.0000 41.9294 0.0000
# 6 0.0000 0.0000 0.0000 0.0000 0.0000 13.7313
#
#
#
# Elastic Compliance Matrix: (Units=1/GPa)
#
#
# Indices 1 2 3 4 5 6 
#
# 1 0.019671 -0.006064 -0.004696 0.000000 0.000000 0.000000
# 2 -0.006064 0.020355 -0.001669 0.000000 0.000000 0.000000
# 3 -0.004696 -0.001669 0.011267 0.000000 0.000000 0.000000
# 4 0.000000 0.000000 0.000000 0.048506 0.000000 0.000000
# 5 0.000000 0.000000 0.000000 0.000000 0.023850 0.000000
# 6 0.000000 0.000000 0.000000 0.000000 0.000000 0.072826
#
#
# Mechanical properties :
#
#
# Convention : Reuss Voigt Hill
#
# Bulk Modulus (GPa) = 37.82945 40.53209 39.18077
# Shear Modulus (GPa) = 21.72542 25.67166 23.69854
#
# Velocity S-wave (km/s) = 3.40562 3.70202 3.55691
# Velocity P-wave (km/s) = 5.97158 6.31755 6.14700
#
# Compressibility (1/GPa) = 0.02643443
#
# Stress axis : x y z
#
# Youngs Moduli (GPa) = 50.83593 49.12865 88.75497
#
# Poissons Ratio (x) = 0.29793 0.41682
# Poissons Ratio (y) = 0.30828 0.14810
# Poissons Ratio (z) = 0.23874 0.08198
#
# Static dielectric constant tensor:
#      x y z
#    x 1.624270 0.000000 0.000000 
#    y 0.000000 1.616590 0.000000 
#    z 0.000000 0.000000 1.641740 
# 
# From -- ./inp_files/24864.got.cif
#   From: 2010.05.17/outbox.cif.g08.bks.cpg/sg60_13_cif.got.tgz:24864.got - 2010.06.03 14:59:27.
