data_PCOD9458610
_publ_section_title
;
Structure prediction by ZEFSAII (Michael W. Deem and Ramdas Pophale) SiO2 
 PCOD9458610
Probable space group: P B C N
;
_chemical_formula_sum "Si O2"
_cell_formula_units_Z 32
_cell_length_a 13.711555
_cell_length_b 11.022268
_cell_length_c 7.426236
_cell_angle_alpha 90.000000
_cell_angle_beta 90.000000
_cell_angle_gamma 90.000000
_cell_volume 1122.345121
_symmetry_space_group_name_H-M "P B C N"
_symmetry_group_IT_number 60
_symmetry_cell_setting 'orthorhombic'
loop_
_space_group_symop_operation_xyz
x,y,z
1/2-x,1/2-y,1/2+z
1/2+x,1/2-y,-z
-x,y,1/2-z
-x,-y,-z
1/2+x,1/2+y,1/2-z
1/2-x,1/2+y,z
x,-y,1/2+z
loop_
_atom_site_type_symbol
_atom_site_label
_atom_site_fract_x
_atom_site_fract_y
_atom_site_fract_z
Si Si1 0.070652 0.584824 0.608942
Si Si2 0.584700 0.329852 0.026218
Si Si3 0.643726 0.662819 0.934221
Si Si4 0.259027 0.930503 0.598653
O O1 0.102281 0.687302 0.475572
O O2 0.155031 0.504778 0.696215
O O3 0.000000 0.648387 0.750000
O O4 0.000000 0.500000 0.500000
O O5 0.469965 0.353904 0.010961
O O6 0.632971 0.362625 0.218001
O O7 0.652154 0.375723 0.863306
O O8 0.685264 0.801778 0.961420
O O9 0.714270 0.554558 0.002454
#
# Coordination Sequence:
#
# PCOD9458610 Si02
#       4
#     8   8   8   8
#     4  12  26  47  77 111 150 202 257 317 384 467
#     4  11  26  49  72 108 154 200 258 322 391 461
#     4  11  26  46  73 109 151 199 261 323 381 466
#     4  12  25  45  73 109 146 201 251 317 388 454
#
# _framework density 28.511728000000002
#
# number of rings (size 3 to 8) (size 9 to 14) (size 15 to 20)
#    0.000    0.500    5.000    2.250    7.000    0.000 
#    9.000    0.000    0.000    0.000    0.000    0.000 
#    0.000    0.000    0.000    0.000    0.000    0.000 
#
# Total GULP energy -178182.855742 kJ/mol
# GULP energy per Si atom -5568.214242 kJ/mol
# Density = 2.844683 g / cm^3
# Si number density = 28.511728 Si / 1000 Ang^3
#
#
#
# Elastic Constant Matrix: (Units=GPa)
#
#
# Indices 1 2 3 4 5 6 
#
# 1 250.9177 81.4896 48.0934 0.0000 0.0000 0.0000
# 2 81.4896 201.5849 23.9890 0.0000 0.0000 0.0000
# 3 48.0934 23.9890 73.6746 0.0000 0.0000 0.0000
# 4 0.0000 0.0000 0.0000 42.9637 0.0000 0.0000
# 5 0.0000 0.0000 0.0000 0.0000 43.9834 0.0000
# 6 0.0000 0.0000 0.0000 0.0000 0.0000 72.0894
#
#
#
# Elastic Compliance Matrix: (Units=1/GPa)
#
#
# Indices 1 2 3 4 5 6 
#
# 1 0.005072 -0.001723 -0.002750 0.000000 0.000000 0.000000
# 2 -0.001723 0.005746 -0.000746 0.000000 0.000000 0.000000
# 3 -0.002750 -0.000746 0.015611 0.000000 0.000000 0.000000
# 4 0.000000 0.000000 0.000000 0.023275 0.000000 0.000000
# 5 0.000000 0.000000 0.000000 0.000000 0.022736 0.000000
# 6 0.000000 0.000000 0.000000 0.000000 0.000000 0.013872
#
#
# Mechanical properties :
#
#
# Convention : Reuss Voigt Hill
#
# Bulk Modulus (GPa) = 62.53497 92.59123 77.56310
# Shear Modulus (GPa) = 48.98077 56.64765 52.81421
#
# Velocity S-wave (km/s) = 4.14927 4.46221 4.30858
# Velocity P-wave (km/s) = 6.70343 7.68724 7.21213
#
# Compressibility (1/GPa) = 0.01599105
#
# Stress axis : x y z
#
# Youngs Moduli (GPa) = 197.15911 174.03301 64.05648
#
# Poissons Ratio (x) = 0.29988 0.17615
# Poissons Ratio (y) = 0.33973 0.04780
# Poissons Ratio (z) = 0.54216 0.12985
#
# Static dielectric constant tensor:
#      x y z
#    x 8.543190 0.000000 0.000000 
#    y 0.000000 2.251520 0.000000 
#    z 0.000000 0.000000 2.447370 
# 
# From -- ./inp_files/5485.got.cif
#   From: 2010.05.17/outbox.cif.g08.bks.cpg/sg60_3_cif.got.tgz:5485.got - 2010.06.03 14:59:27.
