data_PCOD9458925
_publ_section_title
;
Structure prediction by ZEFSAII (Michael W. Deem and Ramdas Pophale) SiO2 
 PCOD9458925
Probable space group: P B C N
;
_chemical_formula_sum "Si O2"
_cell_formula_units_Z 56
_cell_length_a 9.000000
_cell_length_b 21.000000
_cell_length_c 15.000000
_cell_angle_alpha 90.000000
_cell_angle_beta 90.000000
_cell_angle_gamma 90.000000
_cell_volume 2835.000000
_symmetry_space_group_name_H-M "P B C N"
_symmetry_group_IT_number 60
_symmetry_cell_setting 'orthorhombic'
loop_
_space_group_symop_operation_xyz
x,y,z
1/2-x,1/2-y,1/2+z
1/2+x,1/2-y,-z
-x,y,1/2-z
-x,-y,-z
1/2+x,1/2+y,1/2-z
1/2-x,1/2+y,z
x,-y,1/2+z
loop_
_atom_site_type_symbol
_atom_site_label
_atom_site_fract_x
_atom_site_fract_y
_atom_site_fract_z
Si Si1 0.658428 0.097068 0.991700
Si Si2 0.200856 0.174749 0.952264
Si Si3 0.472304 0.786388 0.571659
Si Si4 0.483295 0.566408 0.553468
Si Si5 0.000000 0.353670 0.750000
Si Si6 0.297149 0.036413 0.323071
Si Si7 0.000000 0.989648 0.250000
Si Si8 0.427636 0.900015 0.335125
O O1 0.828706 0.102245 0.963580
O O2 0.550436 0.081527 0.909384
O O3 0.583700 0.160603 0.030239
O O4 0.672271 0.045628 0.071439
O O5 0.066686 0.221963 0.929121
O O6 0.305071 0.147380 0.874130
O O7 0.117818 0.110094 0.981799
O O8 0.317537 0.208818 0.018356
O O9 0.443542 0.809746 0.671079
O O10 0.500000 0.500000 0.500000
O O11 0.481464 0.552171 0.659870
O O12 0.124922 0.402798 0.781219
O O13 0.357458 0.966220 0.302025
O O14 0.134158 0.034152 0.282055
O O15 0.500000 0.867695 0.250000
#
# Coordination Sequence:
#
# PCOD9458925 Si02
#       8
#     8   8   8   8   4   8   4   8
#     4  10  22  39  65  90 131 172 222 264 337 392
#     4  11  24  45  65  93 133 169 228 268 340 401
#     4  10  24  46  68  91 124 181 219 279 322 396
#     4  12  24  39  64 101 133 175 215 278 339 399
#     4  10  24  41  70  94 127 170 228 262 326 408
#     4  11  21  39  61  98 134 171 213 272 331 407
#     4  12  24  37  60  98 137 170 212 264 340 396
#     4  11  21  40  64  97 130 169 213 279 342 393
#
# _framework density 19.753086
#
# number of rings (size 3 to 8) (size 9 to 14) (size 15 to 20)
#    0.000    1.143    3.571    2.143    2.000    1.714 
#    5.143    0.000    1.571    0.000    0.000    0.000 
#    0.000    0.000    0.000    0.000    0.000    0.000 
#
# Total GULP energy -312036.928092 kJ/mol
# GULP energy per Si atom -5572.088002 kJ/mol
# Density = 1.970813 g / cm^3
# Si number density = 19.753086 Si / 1000 Ang^3
#
#
#
# Elastic Constant Matrix: (Units=GPa)
#
#
# Indices 1 2 3 4 5 6 
#
# 1 108.7998 28.1059 40.9746 0.0000 0.0000 0.0000
# 2 28.1059 59.0538 31.8979 0.0000 0.0000 0.0000
# 3 40.9746 31.8979 94.8839 0.0000 0.0000 0.0000
# 4 0.0000 0.0000 0.0000 0.9338 0.0000 0.0000
# 5 0.0000 0.0000 0.0000 0.0000 24.7494 0.0000
# 6 0.0000 0.0000 0.0000 0.0000 0.0000 26.9695
#
#
#
# Elastic Compliance Matrix: (Units=1/GPa)
#
#
# Indices 1 2 3 4 5 6 
#
# 1 0.011513 -0.003414 -0.003824 0.000000 0.000000 0.000000
# 2 -0.003414 0.021703 -0.005822 0.000000 0.000000 0.000000
# 3 -0.003824 -0.005822 0.014148 0.000000 0.000000 0.000000
# 4 0.000000 0.000000 0.000000 1.070918 0.000000 0.000000
# 5 0.000000 0.000000 0.000000 0.000000 0.040405 0.000000
# 6 0.000000 0.000000 0.000000 0.000000 0.000000 0.037079
#
#
# Mechanical properties :
#
#
# Convention : Reuss Voigt Hill
#
# Bulk Modulus (GPa) = 47.07145 51.63269 49.35207
# Shear Modulus (GPa) = 4.06846 21.31447 12.69146
#
# Velocity S-wave (km/s) = 1.43671 3.28845 2.53752
# Velocity P-wave (km/s) = 5.16080 6.37293 5.79863
#
# Compressibility (1/GPa) = 0.02124430
#
# Stress axis : x y z
#
# Youngs Moduli (GPa) = 86.85581 46.07607 70.68225
#
# Poissons Ratio (x) = 0.15730 0.27030
# Poissons Ratio (y) = 0.29652 0.41150
# Poissons Ratio (z) = 0.33215 0.26825
#
# Static dielectric constant tensor:
#      x y z
#    x 17.215570 0.000000 0.000000 
#    y 0.000000 1.677410 0.000000 
#    z 0.000000 0.000000 1.455840 
# 
# From -- ./inp_files/15302.got.cif
#   From: 2010.05.17/outbox.ucp.g08.bks.cvg/sg60_8_cif.got.tgz:15302.got - 2010.06.11 16:26:41.
