data_PCOD9458035
_publ_section_title
;
Structure prediction by ZEFSAII (Michael W. Deem and Ramdas Pophale) SiO2 
 PCOD9458035
Probable space group: P B C N
;
_chemical_formula_sum "Si O2"
_cell_formula_units_Z 64
_cell_length_a 7.208971
_cell_length_b 21.171908
_cell_length_c 17.392633
_cell_angle_alpha 90.000000
_cell_angle_beta 90.000000
_cell_angle_gamma 90.000000
_cell_volume 2654.597064
_symmetry_space_group_name_H-M "P B C N"
_symmetry_group_IT_number 60
_symmetry_cell_setting 'orthorhombic'
loop_
_space_group_symop_operation_xyz
x,y,z
1/2-x,1/2-y,1/2+z
1/2+x,1/2-y,-z
-x,y,1/2-z
-x,-y,-z
1/2+x,1/2+y,1/2-z
1/2-x,1/2+y,z
x,-y,1/2+z
loop_
_atom_site_type_symbol
_atom_site_label
_atom_site_fract_x
_atom_site_fract_y
_atom_site_fract_z
Si Si1 0.857116 0.743467 0.680957
Si Si2 0.137710 0.796903 0.070409
Si Si3 0.820082 0.879024 0.695959
Si Si4 0.218107 0.990637 0.270095
Si Si5 0.238220 0.950301 0.447215
Si Si6 0.708847 0.634544 0.774081
Si Si7 0.839052 0.916713 0.520575
Si Si8 0.201535 0.311414 0.467894
O O1 0.738951 0.808254 0.686073
O O2 0.782374 0.674898 0.703700
O O3 0.914739 0.731048 0.593119
O O4 0.000000 0.751282 0.750000
O O5 0.201947 0.819817 0.153518
O O6 0.914969 0.803497 0.060563
O O7 0.225833 0.850282 0.014557
O O8 0.184014 0.725534 0.047690
O O9 0.877698 0.902201 0.610360
O O10 0.000000 0.872960 0.750000
O O11 0.705786 0.938152 0.729697
O O12 0.238202 0.962098 0.355740
O O13 0.294723 0.935034 0.214896
O O14 0.000000 0.000118 0.250000
O O15 0.343303 0.885664 0.468701
O O16 0.027795 0.934762 0.475366
O O17 0.282787 0.019280 0.483093
O O18 0.500000 0.621206 0.750000
#
# Coordination Sequence:
#
# PCOD9458035 Si02
#       8
#     8   8   8   8   8   8   8   8
#     4  11  22  36  56  84 117 148 189 238 282 342
#     4  11  23  35  58  84 115 151 189 238 296 348
#     4   9  18  29  49  79 110 140 178 234 283 319
#     4   9  15  29  51  77 105 140 182 231 277 323
#     4   9  17  29  52  78 109 142 179 234 283 328
#     4  11  20  37  57  81 110 149 191 234 284 339
#     4   9  16  30  50  80 109 140 181 235 283 325
#     4  11  21  38  54  87 118 148 190 236 289 350
#
# _framework density 24.109120000000001
#
# number of rings (size 3 to 8) (size 9 to 14) (size 15 to 20)
#    0.000    2.000    3.750    2.250    1.750    2.000 
#    0.000    0.000    0.000    1.500    6.500    0.000 
#    0.000    0.000    0.000    0.000    0.000    0.000 
#
# Total GULP energy -356599.631960 kJ/mol
# GULP energy per Si atom -5571.869249 kJ/mol
# Density = 2.405425 g / cm^3
# Si number density = 24.109120 Si / 1000 Ang^3
#
#
#
# Elastic Constant Matrix: (Units=GPa)
#
#
# Indices 1 2 3 4 5 6 
#
# 1 41.5259 2.1630 0.3803 0.0000 0.0000 0.0000
# 2 2.1630 219.4142 14.9863 0.0000 0.0000 0.0000
# 3 0.3803 14.9863 65.0561 0.0000 0.0000 0.0000
# 4 0.0000 0.0000 0.0000 -200.2758 0.0000 0.0000
# 5 0.0000 0.0000 0.0000 0.0000 15.2231 0.0000
# 6 0.0000 0.0000 0.0000 0.0000 0.0000 15.2888
#
#
#
# Elastic Compliance Matrix: (Units=1/GPa)
#
#
# Indices 1 2 3 4 5 6 
#
# 1 0.024094 -0.000232 -0.000088 0.000000 0.000000 0.000000
# 2 -0.000232 0.004633 -0.001066 0.000000 0.000000 0.000000
# 3 -0.000088 -0.001066 0.015617 0.000000 0.000000 0.000000
# 4 0.000000 0.000000 0.000000 -0.004993 0.000000 0.000000
# 5 0.000000 0.000000 0.000000 0.000000 0.065690 0.000000
# 6 0.000000 0.000000 0.000000 0.000000 0.000000 0.065407
#
#
# Mechanical properties :
#
#
# Convention : Reuss Voigt Hill
#
# Bulk Modulus (GPa) = 24.05321 40.11727 32.08524
# Shear Modulus (GPa) = 26.72709 -13.38835 6.66937
#
# Velocity S-wave (km/s) = 3.33316 -2.35909 1.66503
# Velocity P-wave (km/s) = 4.98114 3.04230 4.12719
#
# Compressibility (1/GPa) = 0.04157449
#
# Stress axis : x y z
#
# Youngs Moduli (GPa) = 41.50374 215.85823 64.03125
#
# Poissons Ratio (x) = 0.04998 0.00560
# Poissons Ratio (y) = 0.00961 0.06825
# Poissons Ratio (z) = 0.00363 0.23007
#
# Static dielectric constant tensor:
#      x y z
#    x 1.769020 0.000000 0.000000 
#    y 0.000000 2.102450 0.000000 
#    z 0.000000 0.000000 1.864940 
# 
# From -- ./inp_files/19684.got.cif
#   From: 2010.05.17/outbox.cif.g08.bks.cpg/sg60_10_cif.got.tgz:19684.got - 2010.06.03 14:59:27.
