data_PCOD9458358
_publ_section_title
;
Structure prediction by ZEFSAII (Michael W. Deem and Ramdas Pophale) SiO2 
 PCOD9458358
Probable space group: P B C N
;
_chemical_formula_sum "Si O2"
_cell_formula_units_Z 32
_cell_length_a 8.752720
_cell_length_b 9.925167
_cell_length_c 16.294476
_cell_angle_alpha 90.000000
_cell_angle_beta 90.000000
_cell_angle_gamma 90.000000
_cell_volume 1415.537104
_symmetry_space_group_name_H-M "P B C N"
_symmetry_group_IT_number 60
_symmetry_cell_setting 'orthorhombic'
loop_
_space_group_symop_operation_xyz
x,y,z
1/2-x,1/2-y,1/2+z
1/2+x,1/2-y,-z
-x,y,1/2-z
-x,-y,-z
1/2+x,1/2+y,1/2-z
1/2-x,1/2+y,z
x,-y,1/2+z
loop_
_atom_site_type_symbol
_atom_site_label
_atom_site_fract_x
_atom_site_fract_y
_atom_site_fract_z
Si Si1 0.894048 0.411151 0.918825
Si Si2 0.401061 0.139192 0.892928
Si Si3 0.453380 0.573434 0.086199
Si Si4 0.931058 0.183350 0.666541
O O1 0.720082 0.381565 0.896501
O O2 0.958882 0.540987 0.869929
O O3 0.013081 0.290292 0.902145
O O4 0.869785 0.426587 0.017286
O O5 0.449380 0.292250 0.905802
O O6 0.247984 0.149333 0.839802
O O7 0.488589 0.458397 0.151305
O O8 0.500000 0.500000 0.000000
O O9 0.000000 0.241666 0.750000
#
# Coordination Sequence:
#
# PCOD9458358 Si02
#       4
#     8   8   8   8
#     4  11  23  42  71 103 136 186 240 291 349 426
#     4  11  23  42  73 102 138 187 240 288 349 430
#     4  12  23  41  71 104 137 182 241 292 347 422
#     4  12  27  45  67 104 149 188 233 299 362 413
#
# _framework density 22.606259000000001
#
# number of rings (size 3 to 8) (size 9 to 14) (size 15 to 20)
#    0.000    0.500    5.000    3.000    3.500    4.000 
#    0.000    3.750    0.000    0.000    0.000    0.000 
#    0.000    0.000    0.000    0.000    0.000    0.000 
#
# Total GULP energy -178511.642430 kJ/mol
# GULP energy per Si atom -5578.488826 kJ/mol
# Density = 2.255481 g / cm^3
# Si number density = 22.606259 Si / 1000 Ang^3
#
#
#
# Elastic Constant Matrix: (Units=GPa)
#
#
# Indices 1 2 3 4 5 6 
#
# 1 105.0053 -9.2117 7.2480 0.0000 0.0000 0.0000
# 2 -9.2117 78.2461 -19.9876 0.0000 0.0000 0.0000
# 3 7.2480 -19.9876 49.7726 0.0000 0.0000 0.0000
# 4 0.0000 0.0000 0.0000 18.0225 0.0000 0.0000
# 5 0.0000 0.0000 0.0000 0.0000 21.1265 0.0000
# 6 0.0000 0.0000 0.0000 0.0000 0.0000 31.7362
#
#
#
# Elastic Compliance Matrix: (Units=1/GPa)
#
#
# Indices 1 2 3 4 5 6 
#
# 1 0.009673 0.000868 -0.001060 0.000000 0.000000 0.000000
# 2 0.000868 0.014319 0.005624 0.000000 0.000000 0.000000
# 3 -0.001060 0.005624 0.022504 0.000000 0.000000 0.000000
# 4 0.000000 0.000000 0.000000 0.055486 0.000000 0.000000
# 5 0.000000 0.000000 0.000000 0.000000 0.047334 0.000000
# 6 0.000000 0.000000 0.000000 0.000000 0.000000 0.031510
#
#
# Mechanical properties :
#
#
# Convention : Reuss Voigt Hill
#
# Bulk Modulus (GPa) = 17.43400 21.01350 19.22375
# Shear Modulus (GPa) = 26.44359 31.17541 28.80950
#
# Velocity S-wave (km/s) = 3.42387 3.71760 3.57375
# Velocity P-wave (km/s) = 4.83314 5.26716 5.05481
#
# Compressibility (1/GPa) = 0.05735917
#
# Stress axis : x y z
#
# Youngs Moduli (GPa) = 103.38444 69.83761 44.43629
#
# Poissons Ratio (x) = -0.06062 0.04710
# Poissons Ratio (y) = -0.08973 -0.24990
# Poissons Ratio (z) = 0.10959 -0.39275
#
# Static dielectric constant tensor:
#      x y z
#    x 1.847440 0.000000 0.000000 
#    y 0.000000 1.824780 0.000000 
#    z 0.000000 0.000000 2.055850 
# 
# From -- ./inp_files/18945.got.cif
#   From: 2010.05.17/outbox.cif.g08.bks.cpg/sg60_10_cif.got.tgz:18945.got - 2010.06.03 14:59:27.
