data_PCOD9458513
_publ_section_title
;
Structure prediction by ZEFSAII (Michael W. Deem and Ramdas Pophale) SiO2 
 PCOD9458513
Probable space group: P B C N
;
_chemical_formula_sum "Si O2"
_cell_formula_units_Z 32
_cell_length_a 5.603144
_cell_length_b 13.738446
_cell_length_c 17.897993
_cell_angle_alpha 90.000000
_cell_angle_beta 90.000000
_cell_angle_gamma 90.000000
_cell_volume 1377.760498
_symmetry_space_group_name_H-M "P B C N"
_symmetry_group_IT_number 60
_symmetry_cell_setting 'orthorhombic'
loop_
_space_group_symop_operation_xyz
x,y,z
1/2-x,1/2-y,1/2+z
1/2+x,1/2-y,-z
-x,y,1/2-z
-x,-y,-z
1/2+x,1/2+y,1/2-z
1/2-x,1/2+y,z
x,-y,1/2+z
loop_
_atom_site_type_symbol
_atom_site_label
_atom_site_fract_x
_atom_site_fract_y
_atom_site_fract_z
Si Si1 0.697774 0.464044 0.059389
Si Si2 0.755241 0.494707 0.792195
Si Si3 0.074290 0.376260 0.578406
Si Si4 0.938133 0.179929 0.833721
O O1 0.616027 0.397740 0.127971
O O2 0.834736 0.559976 0.086993
O O3 0.500000 0.500000 0.000000
O O4 0.861548 0.394196 0.007550
O O5 0.500000 0.484457 0.750000
O O6 0.742422 0.429549 0.865991
O O7 0.783086 0.607400 0.818453
O O8 0.000000 0.466985 0.750000
O O9 0.073359 0.266940 0.607754
O O10 0.000000 0.216134 0.750000
#
# Coordination Sequence:
#
# PCOD9458513 Si02
#       4
#     8   8   8   8
#     4  11  25  48  71 105 151 198 255 314 373 455
#     4  11  24  46  72 110 160 198 251 314 376 454
#     4  11  25  45  76 102 148 204 253 313 384 452
#     4  11  25  46  72 111 147 197 252 316 381 454
#
# _framework density 23.226099000000001
#
# number of rings (size 3 to 8) (size 9 to 14) (size 15 to 20)
#    0.000    1.000    2.500    3.750    3.500    1.000 
#    9.000    0.000    0.000    0.000    0.000    0.000 
#    0.000    0.000    0.000    0.000    0.000    0.000 
#
# Total GULP energy -178560.291999 kJ/mol
# GULP energy per Si atom -5580.009125 kJ/mol
# Density = 2.317324 g / cm^3
# Si number density = 23.226099 Si / 1000 Ang^3
#
#
#
# Elastic Constant Matrix: (Units=GPa)
#
#
# Indices 1 2 3 4 5 6 
#
# 1 94.3943 21.0050 48.2233 0.0000 0.0000 0.0000
# 2 21.0050 66.7940 3.3393 0.0000 0.0000 0.0000
# 3 48.2233 3.3393 109.4798 0.0000 0.0000 0.0000
# 4 0.0000 0.0000 0.0000 40.0060 0.0000 0.0000
# 5 0.0000 0.0000 0.0000 0.0000 46.5695 0.0000
# 6 0.0000 0.0000 0.0000 0.0000 0.0000 16.4592
#
#
#
# Elastic Compliance Matrix: (Units=1/GPa)
#
#
# Indices 1 2 3 4 5 6 
#
# 1 0.014830 -0.004344 -0.006400 0.000000 0.000000 0.000000
# 2 -0.004344 0.016267 0.001417 0.000000 0.000000 0.000000
# 3 -0.006400 0.001417 0.011910 0.000000 0.000000 0.000000
# 4 0.000000 0.000000 0.000000 0.024996 0.000000 0.000000
# 5 0.000000 0.000000 0.000000 0.000000 0.021473 0.000000
# 6 0.000000 0.000000 0.000000 0.000000 0.000000 0.060756
#
#
# Mechanical properties :
#
#
# Convention : Reuss Voigt Hill
#
# Bulk Modulus (GPa) = 41.06155 46.20037 43.63096
# Shear Modulus (GPa) = 28.24820 33.81364 31.03092
#
# Velocity S-wave (km/s) = 3.49123 3.81970 3.65915
# Velocity P-wave (km/s) = 5.82829 6.27600 6.05629
#
# Compressibility (1/GPa) = 0.02435368
#
# Stress axis : x y z
#
# Youngs Moduli (GPa) = 67.43156 61.47593 83.96442
#
# Poissons Ratio (x) = 0.26703 0.53735
# Poissons Ratio (y) = 0.29290 -0.11899
# Poissons Ratio (z) = 0.43154 -0.08712
#
# Static dielectric constant tensor:
#      x y z
#    x 1.875730 0.000000 0.000000 
#    y 0.000000 1.880550 0.000000 
#    z 0.000000 0.000000 1.712650 
# 
# From -- ./inp_files/18407.got.cif
#   From: 2010.05.17/outbox.cif.g08.bks.cpg/sg60_10_cif.got.tgz:18407.got - 2010.06.03 14:59:27.
