data_PCOD9458675
_publ_section_title
;
Structure prediction by ZEFSAII (Michael W. Deem and Ramdas Pophale) SiO2 
 PCOD9458675
Probable space group: P B C N
;
_chemical_formula_sum "Si O2"
_cell_formula_units_Z 40
_cell_length_a 12.234261
_cell_length_b 17.034004
_cell_length_c 8.857527
_cell_angle_alpha 90.000000
_cell_angle_beta 90.000000
_cell_angle_gamma 90.000000
_cell_volume 1845.894905
_symmetry_space_group_name_H-M "P B C N"
_symmetry_group_IT_number 60
_symmetry_cell_setting 'orthorhombic'
loop_
_space_group_symop_operation_xyz
x,y,z
1/2-x,1/2-y,1/2+z
1/2+x,1/2-y,-z
-x,y,1/2-z
-x,-y,-z
1/2+x,1/2+y,1/2-z
1/2-x,1/2+y,z
x,-y,1/2+z
loop_
_atom_site_type_symbol
_atom_site_label
_atom_site_fract_x
_atom_site_fract_y
_atom_site_fract_z
Si Si1 0.256771 0.168651 0.982701
Si Si2 0.419848 0.032615 0.871292
Si Si3 0.392029 0.720492 0.698225
Si Si4 0.094131 0.060504 0.548521
Si Si5 0.276718 0.441719 0.745910
O O1 0.335708 0.098243 0.927289
O O2 0.184182 0.199791 0.843163
O O3 0.324332 0.235885 0.068278
O O4 0.198104 0.125240 0.123359
O O5 0.500000 0.070372 0.750000
O O6 0.347798 0.964085 0.790356
O O7 0.500000 0.000000 0.000000
O O8 0.500000 0.767670 0.750000
O O9 0.440119 0.642335 0.619344
O O10 0.164720 0.076871 0.401170
O O11 0.169998 0.018895 0.672695
O O12 0.000000 0.000000 0.500000
#
# Coordination Sequence:
#
# PCOD9458675 Si02
#       5
#     8   8   8   8   8
#     4  12  27  48  74 106 148 189 243 303 368 441
#     4  12  24  42  73 108 140 183 240 302 360 424
#     4  12  28  49  70 107 150 195 240 303 372 436
#     4  12  23  43  74 104 144 188 239 292 355 436
#     4  12  22  43  71 105 138 181 241 296 353 426
#
# _framework density 21.669705
#
# number of rings (size 3 to 8) (size 9 to 14) (size 15 to 20)
#    0.000    0.000    6.000    4.200    2.800    1.600 
#    0.000    4.000    0.000    0.000    0.000    0.000 
#    0.000    0.000    0.000    0.000    0.000    0.000 
#
# Total GULP energy -223552.889271 kJ/mol
# GULP energy per Si atom -5588.822232 kJ/mol
# Density = 2.162038 g / cm^3
# Si number density = 21.669705 Si / 1000 Ang^3
#
#
#
# Elastic Constant Matrix: (Units=GPa)
#
#
# Indices 1 2 3 4 5 6 
#
# 1 97.5630 13.7393 46.4607 0.0000 0.0000 0.0000
# 2 13.7393 62.5076 21.8917 0.0000 0.0000 0.0000
# 3 46.4607 21.8917 128.2689 0.0000 0.0000 0.0000
# 4 0.0000 0.0000 0.0000 41.0881 0.0000 0.0000
# 5 0.0000 0.0000 0.0000 0.0000 51.6750 0.0000
# 6 0.0000 0.0000 0.0000 0.0000 0.0000 11.3725
#
#
#
# Elastic Compliance Matrix: (Units=1/GPa)
#
#
# Indices 1 2 3 4 5 6 
#
# 1 0.012475 -0.001233 -0.004308 0.000000 0.000000 0.000000
# 2 -0.001233 0.017137 -0.002478 0.000000 0.000000 0.000000
# 3 -0.004308 -0.002478 0.009780 0.000000 0.000000 0.000000
# 4 0.000000 0.000000 0.000000 0.024338 0.000000 0.000000
# 5 0.000000 0.000000 0.000000 0.000000 0.019352 0.000000
# 6 0.000000 0.000000 0.000000 0.000000 0.000000 0.087931
#
#
# Mechanical properties :
#
#
# Convention : Reuss Voigt Hill
#
# Bulk Modulus (GPa) = 42.82171 50.28034 46.55102
# Shear Modulus (GPa) = 25.66264 34.57698 30.11981
#
# Velocity S-wave (km/s) = 3.44505 3.99888 3.73225
# Velocity P-wave (km/s) = 5.96896 6.67643 6.33258
#
# Compressibility (1/GPa) = 0.02335264
#
# Stress axis : x y z
#
# Youngs Moduli (GPa) = 80.16002 58.35325 102.25439
#
# Poissons Ratio (x) = 0.07196 0.44053
# Poissons Ratio (y) = 0.09886 0.25340
# Poissons Ratio (z) = 0.34534 0.14460
#
# Static dielectric constant tensor:
#      x y z
#    x 1.745650 0.000000 0.000000 
#    y 0.000000 1.759380 0.000000 
#    z 0.000000 0.000000 1.773170 
# 
# From -- ./inp_files/4720.got.cif
#   From: 2010.05.17/outbox.cif.g08.bks.cpg/sg60_3_cif.got.tgz:4720.got - 2010.06.03 14:59:27.
