data_PCOD9458614
_publ_section_title
;
Structure prediction by ZEFSAII (Michael W. Deem and Ramdas Pophale) SiO2 
 PCOD9458614
Probable space group: P B C N
;
_chemical_formula_sum "Si O2"
_cell_formula_units_Z 32
_cell_length_a 7.861369
_cell_length_b 18.669068
_cell_length_c 8.198558
_cell_angle_alpha 90.000000
_cell_angle_beta 90.000000
_cell_angle_gamma 90.000000
_cell_volume 1203.256712
_symmetry_space_group_name_H-M "P B C N"
_symmetry_group_IT_number 60
_symmetry_cell_setting 'orthorhombic'
loop_
_space_group_symop_operation_xyz
x,y,z
1/2-x,1/2-y,1/2+z
1/2+x,1/2-y,-z
-x,y,1/2-z
-x,-y,-z
1/2+x,1/2+y,1/2-z
1/2-x,1/2+y,z
x,-y,1/2+z
loop_
_atom_site_type_symbol
_atom_site_label
_atom_site_fract_x
_atom_site_fract_y
_atom_site_fract_z
Si Si1 0.814553 0.107008 0.197534
Si Si2 0.301351 0.021414 0.985575
Si Si3 0.597504 0.216239 0.004732
Si Si4 0.758205 0.333984 0.163925
O O1 0.745290 0.062734 0.350692
O O2 0.000000 0.133719 0.250000
O O3 0.686667 0.168634 0.143255
O O4 0.810567 0.048366 0.052683
O O5 0.267189 0.080527 0.844128
O O6 0.500000 0.000000 0.000000
O O7 0.702727 0.198492 0.840147
O O8 0.411925 0.191426 0.953814
O O9 0.600094 0.296509 0.075235
#
# Coordination Sequence:
#
# PCOD9458614 Si02
#       4
#     8   8   8   8
#     4  12  27  47  73 109 151 192 246 311 375 440
#     4  12  25  46  76 106 147 197 247 304 375 451
#     4  11  26  47  76 107 148 194 248 307 376 445
#     4  11  26  47  74 110 145 196 248 307 372 449
#
# _framework density 26.594491999999999
#
# number of rings (size 3 to 8) (size 9 to 14) (size 15 to 20)
#    0.000    0.500    2.500    4.500   10.500    3.000 
#    0.000    0.000    0.000    0.000    0.000    0.000 
#    0.000    0.000    0.000    0.000    0.000    0.000 
#
# Total GULP energy -179646.212842 kJ/mol
# GULP energy per Si atom -5613.944151 kJ/mol
# Density = 2.653396 g / cm^3
# Si number density = 26.594492 Si / 1000 Ang^3
#
#
#
# Elastic Constant Matrix: (Units=GPa)
#
#
# Indices 1 2 3 4 5 6 
#
# 1 98.4748 -11.2372 10.2830 0.0000 0.0000 0.0000
# 2 -11.2372 93.7835 7.3599 0.0000 0.0000 0.0000
# 3 10.2830 7.3599 131.7073 0.0000 0.0000 0.0000
# 4 0.0000 0.0000 0.0000 57.3830 0.0000 0.0000
# 5 0.0000 0.0000 0.0000 0.0000 45.2028 0.0000
# 6 0.0000 0.0000 0.0000 0.0000 0.0000 42.5019
#
#
#
# Elastic Compliance Matrix: (Units=1/GPa)
#
#
# Indices 1 2 3 4 5 6 
#
# 1 0.010397 0.001315 -0.000885 0.000000 0.000000 0.000000
# 2 0.001315 0.010876 -0.000710 0.000000 0.000000 0.000000
# 3 -0.000885 -0.000710 0.007701 0.000000 0.000000 0.000000
# 4 0.000000 0.000000 0.000000 0.017427 0.000000 0.000000
# 5 0.000000 0.000000 0.000000 0.000000 0.022123 0.000000
# 6 0.000000 0.000000 0.000000 0.000000 0.000000 0.023528
#
#
# Mechanical properties :
#
#
# Convention : Reuss Voigt Hill
#
# Bulk Modulus (GPa) = 35.19371 37.41966 36.30669
# Shear Modulus (GPa) = 48.97885 50.18824 49.58354
#
# Velocity S-wave (km/s) = 4.29615 4.34887 4.32259
# Velocity P-wave (km/s) = 6.15397 6.27039 6.21246
#
# Compressibility (1/GPa) = 0.02841417
#
# Stress axis : x y z
#
# Youngs Moduli (GPa) = 96.17775 91.94379 129.84634
#
# Poissons Ratio (x) = -0.12093 0.11495
# Poissons Ratio (y) = -0.12650 0.09225
# Poissons Ratio (z) = 0.08514 0.06532
#
# Static dielectric constant tensor:
#      x y z
#    x 2.060130 0.000000 0.000000 
#    y 0.000000 2.078650 0.000000 
#    z 0.000000 0.000000 2.086090 
# 
# From -- ./inp_files/3597.got.cif
#   From: 2010.05.17/outbox.cif.g08.bks.cpg/sg60_2_cif.got.tgz:3597.got - 2010.06.03 14:59:27.
