data_PCOD9458919
_publ_section_title
;
Structure prediction by ZEFSAII (Michael W. Deem and Ramdas Pophale) SiO2 
 PCOD9458919
Probable space group: P B C N
;
_chemical_formula_sum "Si O2"
_cell_formula_units_Z 64
_cell_length_a 9.000000
_cell_length_b 15.000000
_cell_length_c 24.000000
_cell_angle_alpha 90.000000
_cell_angle_beta 90.000000
_cell_angle_gamma 90.000000
_cell_volume 3240.000000
_symmetry_space_group_name_H-M "P B C N"
_symmetry_group_IT_number 60
_symmetry_cell_setting 'orthorhombic'
loop_
_space_group_symop_operation_xyz
x,y,z
1/2-x,1/2-y,1/2+z
1/2+x,1/2-y,-z
-x,y,1/2-z
-x,-y,-z
1/2+x,1/2+y,1/2-z
1/2-x,1/2+y,z
x,-y,1/2+z
loop_
_atom_site_type_symbol
_atom_site_label
_atom_site_fract_x
_atom_site_fract_y
_atom_site_fract_z
Si Si1 0.485138 0.240586 0.425437
Si Si2 0.829563 0.936163 0.876804
Si Si3 0.632572 0.510081 0.168260
Si Si4 0.174262 0.518064 0.725606
Si Si5 0.126942 0.540374 0.425150
Si Si6 0.568026 0.339218 0.308189
Si Si7 0.665950 0.927839 0.446573
Si Si8 0.300187 0.721512 0.031142
O O1 0.420447 0.142466 0.411891
O O2 0.549271 0.281860 0.366445
O O3 0.622098 0.227317 0.468089
O O4 0.367600 0.289781 0.468199
O O5 0.825455 0.856459 0.922585
O O6 0.990167 0.929187 0.847048
O O7 0.705310 0.950967 0.827293
O O8 0.801749 0.027429 0.912540
O O9 0.731300 0.524100 0.223400
O O10 0.745504 0.509908 0.116750
O O11 0.548744 0.417820 0.179735
O O12 0.270901 0.609545 0.706296
O O13 0.000000 0.529481 0.750000
O O14 0.181532 0.543329 0.489028
O O15 0.983979 0.475327 0.424166
O O16 0.500000 0.297059 0.250000
O O17 0.653855 0.820637 0.446571
#
# Coordination Sequence:
#
# PCOD9458919 Si02
#       8
#     8   8   8   8   8   8   8   8
#     4  11  24  43  63 100 143 182 232 287 345 423
#     4  11  22  41  68  98 135 178 227 286 346 413
#     4  10  22  39  67  95 128 175 227 275 353 408
#     4  10  21  42  72  97 132 181 226 289 350 413
#     4  10  22  41  63  96 133 183 228 270 345 407
#     4   9  21  43  69 101 134 174 234 290 348 414
#     4  10  22  41  63  94 138 175 226 282 332 412
#     4  11  25  40  65  97 138 181 226 281 346 412
#
# _framework density 19.753086
#
# number of rings (size 3 to 8) (size 9 to 14) (size 15 to 20)
#    0.000    1.750    1.250    3.375    5.250    0.500 
#    2.250    1.250    0.000    1.500    0.000    0.000 
#    0.000    0.000    0.000    0.000    0.000    0.000 
#
# Total GULP energy -356278.424000 kJ/mol
# GULP energy per Si atom -5566.850375 kJ/mol
# Density = 1.970813 g / cm^3
# Si number density = 19.753086 Si / 1000 Ang^3
#
#
#
# Elastic Constant Matrix: (Units=GPa)
#
#
# Indices 1 2 3 4 5 6 
#
# 1 108.4458 13.7973 59.0807 0.0000 0.0000 0.0000
# 2 13.7973 69.2944 29.2769 0.0000 0.0000 0.0000
# 3 59.0807 29.2769 139.1921 0.0000 0.0000 0.0000
# 4 0.0000 0.0000 0.0000 29.3794 0.0000 0.0000
# 5 0.0000 0.0000 0.0000 0.0000 51.9060 0.0000
# 6 0.0000 0.0000 0.0000 0.0000 0.0000 20.9864
#
#
#
# Elastic Compliance Matrix: (Units=1/GPa)
#
#
# Indices 1 2 3 4 5 6 
#
# 1 0.011999 -0.000260 -0.005038 0.000000 0.000000 0.000000
# 2 -0.000260 0.015844 -0.003222 0.000000 0.000000 0.000000
# 3 -0.005038 -0.003222 0.010001 0.000000 0.000000 0.000000
# 4 0.000000 0.000000 0.000000 0.034037 0.000000 0.000000
# 5 0.000000 0.000000 0.000000 0.000000 0.019266 0.000000
# 6 0.000000 0.000000 0.000000 0.000000 0.000000 0.047650
#
#
# Mechanical properties :
#
#
# Convention : Reuss Voigt Hill
#
# Bulk Modulus (GPa) = 48.07137 57.91579 52.99358
# Shear Modulus (GPa) = 30.71765 34.77285 32.74525
#
# Velocity S-wave (km/s) = 3.94773 4.20023 4.07594
# Velocity P-wave (km/s) = 6.72074 7.27366 7.00266
#
# Compressibility (1/GPa) = 0.02080240
#
# Stress axis : x y z
#
# Youngs Moduli (GPa) = 83.33904 63.11392 99.99437
#
# Poissons Ratio (x) = 0.01644 0.50380
# Poissons Ratio (y) = 0.02171 0.32219
# Poissons Ratio (z) = 0.41989 0.20336
#
# Static dielectric constant tensor:
#      x y z
#    x 1.741830 0.000000 0.000000 
#    y 0.000000 1.734200 0.000000 
#    z 0.000000 0.000000 1.747660 
# 
# From -- ./inp_files/24072.got.cif
#   From: 2010.05.17/outbox.ucp.g08.bks.cvg/sg60_13_cif.got.tgz:24072.got - 2010.06.11 16:26:41.
