data_PCOD9458596
_publ_section_title
;
Structure prediction by ZEFSAII (Michael W. Deem and Ramdas Pophale) SiO2 
 PCOD9458596
Probable space group: P B C N
;
_chemical_formula_sum "Si O2"
_cell_formula_units_Z 40
_cell_length_a 7.606589
_cell_length_b 13.912141
_cell_length_c 13.499465
_cell_angle_alpha 90.000000
_cell_angle_beta 90.000000
_cell_angle_gamma 90.000000
_cell_volume 1428.566557
_symmetry_space_group_name_H-M "P B C N"
_symmetry_group_IT_number 60
_symmetry_cell_setting 'orthorhombic'
loop_
_space_group_symop_operation_xyz
x,y,z
1/2-x,1/2-y,1/2+z
1/2+x,1/2-y,-z
-x,y,1/2-z
-x,-y,-z
1/2+x,1/2+y,1/2-z
1/2-x,1/2+y,z
x,-y,1/2+z
loop_
_atom_site_type_symbol
_atom_site_label
_atom_site_fract_x
_atom_site_fract_y
_atom_site_fract_z
Si Si1 0.255334 0.543861 0.460227
Si Si2 0.190813 0.780757 0.701817
Si Si3 0.402543 0.970300 0.657781
Si Si4 0.384778 0.739877 0.514164
Si Si5 0.692648 0.651539 0.630861
O O1 0.225998 0.518316 0.576660
O O2 0.363191 0.641079 0.455008
O O3 0.344378 0.458096 0.397220
O O4 0.065925 0.560424 0.410924
O O5 0.301285 0.880134 0.706766
O O6 0.215557 0.755462 0.586506
O O7 0.273321 0.690017 0.760363
O O8 0.000000 0.794422 0.750000
O O9 0.500000 0.023876 0.750000
O O10 0.542227 0.721216 0.588907
O O11 0.365061 0.825331 0.435892
#
# Coordination Sequence:
#
# PCOD9458596 Si02
#       5
#     8   8   8   8   8
#     4  11  27  45  81 111 153 198 260 317 385 460
#     4  12  27  46  76 108 150 203 250 309 384 459
#     4  11  25  49  75 109 150 195 252 314 385 451
#     4  12  25  48  74 108 154 194 261 309 388 449
#     4  12  27  48  76 109 150 203 249 322 380 458
#
# _framework density 28.000095000000002
#
# number of rings (size 3 to 8) (size 9 to 14) (size 15 to 20)
#    0.000    0.400    2.000    6.000   11.200    0.000 
#    3.600    0.000    0.000    0.000    0.000    0.000 
#    0.000    0.000    0.000    0.000    0.000    0.000 
#
# Total GULP energy -224243.929353 kJ/mol
# GULP energy per Si atom -5606.098234 kJ/mol
# Density = 2.793637 g / cm^3
# Si number density = 28.000095 Si / 1000 Ang^3
#
#
#
# Elastic Constant Matrix: (Units=GPa)
#
#
# Indices 1 2 3 4 5 6 
#
# 1 81.6853 5.7755 0.0131 0.0000 0.0000 0.0000
# 2 5.7755 126.4257 33.8742 0.0000 0.0000 0.0000
# 3 0.0131 33.8742 178.5541 0.0000 0.0000 0.0000
# 4 0.0000 0.0000 0.0000 50.3114 0.0000 0.0000
# 5 0.0000 0.0000 0.0000 0.0000 39.2557 0.0000
# 6 0.0000 0.0000 0.0000 0.0000 0.0000 41.5969
#
#
#
# Elastic Compliance Matrix: (Units=1/GPa)
#
#
# Indices 1 2 3 4 5 6 
#
# 1 0.012284 -0.000591 0.000111 0.000000 0.000000 0.000000
# 2 -0.000591 0.008362 -0.001586 0.000000 0.000000 0.000000
# 3 0.000111 -0.001586 0.005901 0.000000 0.000000 0.000000
# 4 0.000000 0.000000 0.000000 0.019876 0.000000 0.000000
# 5 0.000000 0.000000 0.000000 0.000000 0.025474 0.000000
# 6 0.000000 0.000000 0.000000 0.000000 0.000000 0.024040
#
#
# Mechanical properties :
#
#
# Convention : Reuss Voigt Hill
#
# Bulk Modulus (GPa) = 44.61287 51.77674 48.19481
# Shear Modulus (GPa) = 46.49370 49.36628 47.92999
#
# Velocity S-wave (km/s) = 4.07932 4.20345 4.14185
# Velocity P-wave (km/s) = 6.17702 6.48772 6.33427
#
# Compressibility (1/GPa) = 0.02241506
#
# Stress axis : x y z
#
# Youngs Moduli (GPa) = 81.40753 119.59133 169.44902
#
# Poissons Ratio (x) = 0.07067 -0.01884
# Poissons Ratio (y) = 0.04811 0.26880
# Poissons Ratio (z) = -0.00905 0.18971
#
# Static dielectric constant tensor:
#      x y z
#    x 2.279560 0.000000 0.000000 
#    y 0.000000 2.131850 0.000000 
#    z 0.000000 0.000000 2.159210 
# 
# From -- ./inp_files/14628.got.cif
#   From: 2010.05.17/outbox.cif.g08.bks.cpg/sg60_8_cif.got.tgz:14628.got - 2010.06.03 14:59:27.
