data_PCOD9458110
_publ_section_title
;
Structure prediction by ZEFSAII (Michael W. Deem and Ramdas Pophale) SiO2 
 PCOD9458110
Probable space group: P B C N
;
_chemical_formula_sum "Si O2"
_cell_formula_units_Z 40
_cell_length_a 21.939386
_cell_length_b 9.490096
_cell_length_c 8.842053
_cell_angle_alpha 90.000000
_cell_angle_beta 90.000000
_cell_angle_gamma 90.000000
_cell_volume 1840.976262
_symmetry_space_group_name_H-M "P B C N"
_symmetry_group_IT_number 60
_symmetry_cell_setting 'orthorhombic'
loop_
_space_group_symop_operation_xyz
x,y,z
1/2-x,1/2-y,1/2+z
1/2+x,1/2-y,-z
-x,y,1/2-z
-x,-y,-z
1/2+x,1/2+y,1/2-z
1/2-x,1/2+y,z
x,-y,1/2+z
loop_
_atom_site_type_symbol
_atom_site_label
_atom_site_fract_x
_atom_site_fract_y
_atom_site_fract_z
Si Si1 0.461321 0.103158 0.395170
Si Si2 0.350312 0.907463 0.403695
Si Si3 0.285288 0.143726 0.594246
Si Si4 0.639226 0.357342 0.409416
Si Si5 0.879995 0.845058 0.053467
O O1 0.500000 0.146340 0.250000
O O2 0.434565 0.237131 0.484545
O O3 0.500000 0.000000 0.500000
O O4 0.402378 0.012549 0.343261
O O5 0.309416 0.853690 0.265644
O O6 0.380124 0.778401 0.494032
O O7 0.309831 0.000893 0.517063
O O8 0.212955 0.146779 0.584593
O O9 0.318247 0.271450 0.507108
O O10 0.615676 0.501198 0.482974
O O11 0.621461 0.351237 0.234631
#
# Coordination Sequence:
#
# PCOD9458110 Si02
#       5
#     8   8   8   8   8
#     4  11  23  45  67  85 115 161 214 268 311 361
#     4  11  23  39  64  94 123 166 217 252 302 377
#     4  11  21  38  61  93 132 173 203 243 307 380
#     4  12  22  39  61  95 136 164 197 257 312 374
#     4  11  25  39  61  95 127 166 212 252 310 376
#
# _framework density 21.727602000000001
#
# number of rings (size 3 to 8) (size 9 to 14) (size 15 to 20)
#    0.000    0.800    0.000   10.800    0.000    0.000 
#    0.000    5.000    0.000    0.000    0.000    0.000 
#    0.000    0.000    0.000    0.000    0.000    0.000 
#
# Total GULP energy -224051.912985 kJ/mol
# GULP energy per Si atom -5601.297825 kJ/mol
# Density = 2.167815 g / cm^3
# Si number density = 21.727602 Si / 1000 Ang^3
#
#
#
# Elastic Constant Matrix: (Units=GPa)
#
#
# Indices 1 2 3 4 5 6 
#
# 1 53.6398 -2.3672 -4.1002 0.0000 0.0000 0.0000
# 2 -2.3672 129.4348 32.0667 0.0000 0.0000 0.0000
# 3 -4.1002 32.0667 105.9940 0.0000 0.0000 0.0000
# 4 0.0000 0.0000 0.0000 41.5190 0.0000 0.0000
# 5 0.0000 0.0000 0.0000 0.0000 34.4369 0.0000
# 6 0.0000 0.0000 0.0000 0.0000 0.0000 28.1275
#
#
#
# Elastic Compliance Matrix: (Units=1/GPa)
#
#
# Indices 1 2 3 4 5 6 
#
# 1 0.018702 0.000176 0.000670 0.000000 0.000000 0.000000
# 2 0.000176 0.008354 -0.002520 0.000000 0.000000 0.000000
# 3 0.000670 -0.002520 0.010223 0.000000 0.000000 0.000000
# 4 0.000000 0.000000 0.000000 0.024085 0.000000 0.000000
# 5 0.000000 0.000000 0.000000 0.000000 0.029039 0.000000
# 6 0.000000 0.000000 0.000000 0.000000 0.000000 0.035552
#
#
# Mechanical properties :
#
#
# Convention : Reuss Voigt Hill
#
# Bulk Modulus (GPa) = 29.47254 37.80749 33.64001
# Shear Modulus (GPa) = 35.55855 38.38129 36.96992
#
# Velocity S-wave (km/s) = 4.04983 4.20751 4.12942
# Velocity P-wave (km/s) = 5.95501 6.40645 6.18485
#
# Compressibility (1/GPa) = 0.03392989
#
# Stress axis : x y z
#
# Youngs Moduli (GPa) = 53.47060 119.70980 97.81929
#
# Poissons Ratio (x) = -0.02107 -0.06556
# Poissons Ratio (y) = -0.00941 0.24655
# Poissons Ratio (z) = -0.03584 0.30172
#
# Static dielectric constant tensor:
#      x y z
#    x 1.802570 0.000000 0.000000 
#    y 0.000000 1.780980 0.000000 
#    z 0.000000 0.000000 1.755380 
# 
# From -- ./inp_files/7719.got.cif
#   From: 2010.05.17/outbox.cif.g08.bks.cpg/sg60_4_cif.got.tgz:7719.got - 2010.06.03 14:59:27.
