data_PCOD9458546
_publ_section_title
;
Structure prediction by ZEFSAII (Michael W. Deem and Ramdas Pophale) SiO2 
 PCOD9458546
Probable space group: P B C N
;
_chemical_formula_sum "Si O2"
_cell_formula_units_Z 36
_cell_length_a 7.857315
_cell_length_b 13.745488
_cell_length_c 12.576196
_cell_angle_alpha 90.000000
_cell_angle_beta 90.000000
_cell_angle_gamma 90.000000
_cell_volume 1358.262231
_symmetry_space_group_name_H-M "P B C N"
_symmetry_group_IT_number 60
_symmetry_cell_setting 'orthorhombic'
loop_
_space_group_symop_operation_xyz
x,y,z
1/2-x,1/2-y,1/2+z
1/2+x,1/2-y,-z
-x,y,1/2-z
-x,-y,-z
1/2+x,1/2+y,1/2-z
1/2-x,1/2+y,z
x,-y,1/2+z
loop_
_atom_site_type_symbol
_atom_site_label
_atom_site_fract_x
_atom_site_fract_y
_atom_site_fract_z
Si Si1 0.239323 0.743375 0.209390
Si Si2 0.916704 0.256990 0.077348
Si Si3 0.500000 0.080169 0.250000
Si Si4 0.771316 0.470878 0.075670
Si Si5 0.108357 0.091357 0.597204
O O1 0.290387 0.721062 0.330294
O O2 0.400927 0.749492 0.133268
O O3 0.115009 0.655683 0.182833
O O4 0.168836 0.853164 0.202314
O O5 0.853480 0.365602 0.056120
O O6 0.247208 0.470687 0.036291
O O7 0.382816 0.019092 0.330822
O O8 0.079483 0.815713 0.020330
O O9 0.569408 0.465087 0.106446
#
# Coordination Sequence:
#
# PCOD9458546 Si02
#       5
#     8   8   4   8   8
#     4  11  25  44  79 102 161 208 253 334 409 468
#     4  11  24  51  69 116 154 203 261 338 403 469
#     4  12  24  50  74 118 154 218 266 328 408 484
#     4  11  26  48  79 111 157 206 278 328 399 492
#     4  11  25  51  74 116 153 210 267 332 400 486
#
# _framework density 26.504456000000001
#
# number of rings (size 3 to 8) (size 9 to 14) (size 15 to 20)
#    0.000    0.889    2.222    4.000    3.111    0.889 
#   24.000    0.000    0.000    0.000    0.000    0.000 
#    0.000    0.000    0.000    0.000    0.000    0.000 
#
# Total GULP energy -201889.497702 kJ/mol
# GULP energy per Si atom -5608.041603 kJ/mol
# Density = 2.644413 g / cm^3
# Si number density = 26.504456 Si / 1000 Ang^3
#
#
#
# Elastic Constant Matrix: (Units=GPa)
#
#
# Indices 1 2 3 4 5 6 
#
# 1 145.4465 70.0590 52.6153 0.0000 0.0000 0.0000
# 2 70.0590 147.1666 29.9711 0.0000 0.0000 0.0000
# 3 52.6153 29.9711 76.5819 0.0000 0.0000 0.0000
# 4 0.0000 0.0000 0.0000 49.9559 0.0000 0.0000
# 5 0.0000 0.0000 0.0000 0.0000 28.9452 0.0000
# 6 0.0000 0.0000 0.0000 0.0000 0.0000 23.6437
#
#
#
# Elastic Compliance Matrix: (Units=1/GPa)
#
#
# Indices 1 2 3 4 5 6 
#
# 1 0.010961 -0.004004 -0.005964 0.000000 0.000000 0.000000
# 2 -0.004004 0.008846 -0.000711 0.000000 0.000000 0.000000
# 3 -0.005964 -0.000711 0.017434 0.000000 0.000000 0.000000
# 4 0.000000 0.000000 0.000000 0.020018 0.000000 0.000000
# 5 0.000000 0.000000 0.000000 0.000000 0.034548 0.000000
# 6 0.000000 0.000000 0.000000 0.000000 0.000000 0.042295
#
#
# Mechanical properties :
#
#
# Convention : Reuss Voigt Hill
#
# Bulk Modulus (GPa) = 62.95980 74.94288 68.95134
# Shear Modulus (GPa) = 31.10350 34.94558 33.02454
#
# Velocity S-wave (km/s) = 3.42938 3.63503 3.53370
# Velocity P-wave (km/s) = 6.28386 6.77900 6.53612
#
# Compressibility (1/GPa) = 0.01588315
#
# Stress axis : x y z
#
# Youngs Moduli (GPa) = 91.22968 113.04836 57.35955
#
# Poissons Ratio (x) = 0.45260 0.34210
# Poissons Ratio (y) = 0.36524 0.04080
# Poissons Ratio (z) = 0.54410 0.08041
#
# Static dielectric constant tensor:
#      x y z
#    x 2.137910 0.000000 0.000000 
#    y 0.000000 2.034090 0.000000 
#    z 0.000000 0.000000 2.180660 
# 
# From -- ./inp_files/19111.got.cif
#   From: 2010.05.17/outbox.cif.g08.bks.cpg/sg60_10_cif.got.tgz:19111.got - 2010.06.03 14:59:27.
