data_PCOD9458632
_publ_section_title
;
Structure prediction by ZEFSAII (Michael W. Deem and Ramdas Pophale) SiO2 
 PCOD9458632
Probable space group: P B C N
;
_chemical_formula_sum "Si O2"
_cell_formula_units_Z 40
_cell_length_a 8.911651
_cell_length_b 22.600243
_cell_length_c 8.285335
_cell_angle_alpha 90.000000
_cell_angle_beta 90.000000
_cell_angle_gamma 90.000000
_cell_volume 1668.711857
_symmetry_space_group_name_H-M "P B C N"
_symmetry_group_IT_number 60
_symmetry_cell_setting 'orthorhombic'
loop_
_space_group_symop_operation_xyz
x,y,z
1/2-x,1/2-y,1/2+z
1/2+x,1/2-y,-z
-x,y,1/2-z
-x,-y,-z
1/2+x,1/2+y,1/2-z
1/2-x,1/2+y,z
x,-y,1/2+z
loop_
_atom_site_type_symbol
_atom_site_label
_atom_site_fract_x
_atom_site_fract_y
_atom_site_fract_z
Si Si1 0.677479 0.580416 0.423540
Si Si2 0.126246 0.233879 0.617341
Si Si3 0.880746 0.532262 0.889123
Si Si4 0.150406 0.669414 0.849497
Si Si5 0.348613 0.385353 0.930998
O O1 0.754443 0.518813 0.369726
O O2 0.755604 0.612674 0.578557
O O3 0.689948 0.618434 0.258224
O O4 0.499090 0.575240 0.452822
O O5 0.264386 0.212701 0.725593
O O6 0.129155 0.291879 0.510047
O O7 0.103960 0.178033 0.499296
O O8 0.000000 0.240175 0.750000
O O9 0.000000 0.545550 0.750000
O O10 0.790877 0.586404 0.971207
O O11 0.000000 0.500000 0.000000
O O12 0.000000 0.657825 0.750000
#
# Coordination Sequence:
#
# PCOD9458632 Si02
#       5
#     8   8   8   8   8
#     4  11  26  50  77 109 152 205 252 311 381 457
#     4  12  26  48  74 113 151 203 253 310 384 457
#     4  12  27  47  75 113 154 194 256 317 383 451
#     4  12  28  46  78 113 156 199 253 316 377 454
#     4  11  26  49  78 106 154 202 258 309 378 459
#
# _framework density 23.970585
#
# number of rings (size 3 to 8) (size 9 to 14) (size 15 to 20)
#    0.000    0.400    4.000    3.000    8.400    0.800 
#    3.600    0.000    0.000    0.000    0.000    0.000 
#    0.000    0.000    0.000    0.000    0.000    0.000 
#
# Total GULP energy -223436.168632 kJ/mol
# GULP energy per Si atom -5585.904216 kJ/mol
# Density = 2.391603 g / cm^3
# Si number density = 23.970585 Si / 1000 Ang^3
#
#
#
# Elastic Constant Matrix: (Units=GPa)
#
#
# Indices 1 2 3 4 5 6 
#
# 1 159.4193 31.5711 61.8970 0.0000 0.0000 0.0000
# 2 31.5711 85.7826 24.2462 0.0000 0.0000 0.0000
# 3 61.8970 24.2462 128.9332 0.0000 0.0000 0.0000
# 4 0.0000 0.0000 0.0000 35.1446 0.0000 0.0000
# 5 0.0000 0.0000 0.0000 0.0000 28.4577 0.0000
# 6 0.0000 0.0000 0.0000 0.0000 0.0000 30.3562
#
#
#
# Elastic Compliance Matrix: (Units=1/GPa)
#
#
# Indices 1 2 3 4 5 6 
#
# 1 0.008012 -0.001966 -0.003477 0.000000 0.000000 0.000000
# 2 -0.001966 0.012794 -0.001462 0.000000 0.000000 0.000000
# 3 -0.003477 -0.001462 0.009700 0.000000 0.000000 0.000000
# 4 0.000000 0.000000 0.000000 0.028454 0.000000 0.000000
# 5 0.000000 0.000000 0.000000 0.000000 0.035140 0.000000
# 6 0.000000 0.000000 0.000000 0.000000 0.000000 0.032942
#
#
# Mechanical properties :
#
#
# Convention : Reuss Voigt Hill
#
# Bulk Modulus (GPa) = 59.89260 67.72930 63.81095
# Shear Modulus (GPa) = 34.14901 35.88641 35.01771
#
# Velocity S-wave (km/s) = 3.77851 3.87344 3.82627
# Velocity P-wave (km/s) = 6.63900 6.95135 6.79697
#
# Compressibility (1/GPa) = 0.01669655
#
# Stress axis : x y z
#
# Youngs Moduli (GPa) = 124.81344 78.16027 103.09366
#
# Poissons Ratio (x) = 0.15367 0.35841
# Poissons Ratio (y) = 0.24539 0.15074
# Poissons Ratio (z) = 0.43392 0.11428
#
# Static dielectric constant tensor:
#      x y z
#    x 1.763710 0.000000 0.000000 
#    y 0.000000 2.392810 0.000000 
#    z 0.000000 0.000000 1.748540 
# 
# From -- ./inp_files/3854.got.cif
#   From: 2010.05.17/outbox.cif.g08.bks.cpg/sg60_2_cif.got.tgz:3854.got - 2010.06.03 14:59:27.
