data_PCOD9458001
_publ_section_title
;
Structure prediction by ZEFSAII (Michael W. Deem and Ramdas Pophale) SiO2 
 PCOD9458001
Probable space group: P B C N
;
_chemical_formula_sum "Si O2"
_cell_formula_units_Z 36
_cell_length_a 5.010374
_cell_length_b 13.095163
_cell_length_c 21.514951
_cell_angle_alpha 90.000000
_cell_angle_beta 90.000000
_cell_angle_gamma 90.000000
_cell_volume 1411.631741
_symmetry_space_group_name_H-M "P B C N"
_symmetry_group_IT_number 60
_symmetry_cell_setting 'orthorhombic'
loop_
_space_group_symop_operation_xyz
x,y,z
1/2-x,1/2-y,1/2+z
1/2+x,1/2-y,-z
-x,y,1/2-z
-x,-y,-z
1/2+x,1/2+y,1/2-z
1/2-x,1/2+y,z
x,-y,1/2+z
loop_
_atom_site_type_symbol
_atom_site_label
_atom_site_fract_x
_atom_site_fract_y
_atom_site_fract_z
Si Si1 0.304351 0.678786 0.487954
Si Si2 0.305702 0.889399 0.852595
Si Si3 0.808661 0.165370 0.673833
Si Si4 0.325257 0.074339 0.609254
Si Si5 0.000000 0.011647 0.750000
O O1 0.573155 0.734771 0.510152
O O2 0.325564 0.632480 0.419490
O O3 0.215675 0.590763 0.536117
O O4 0.397176 0.781768 0.824283
O O5 0.099511 0.934327 0.803001
O O6 0.546413 0.968278 0.867284
O O7 0.542486 0.156160 0.633250
O O8 0.042200 0.103244 0.638584
O O9 0.776270 0.100864 0.737203
#
# Coordination Sequence:
#
# PCOD9458001 Si02
#       5
#     8   8   8   8   4
#     4  12  23  45  76 114 157 203 257 324 396 465
#     4  11  25  47  80 109 160 208 250 331 391 460
#     4  11  25  47  72 105 156 193 260 322 373 467
#     4  11  24  45  72 114 148 202 258 308 393 467
#     4  10  28  48  74 114 142 206 266 306 394 468
#
# _framework density 25.502399
#
# number of rings (size 3 to 8) (size 9 to 14) (size 15 to 20)
#    0.000    0.889    4.444    0.667    0.000   14.222 
#    0.000    7.778    0.000    0.000    0.000    0.000 
#    0.000    0.000    0.000    0.000    0.000    0.000 
#
# Total GULP energy -201126.661196 kJ/mol
# GULP energy per Si atom -5586.851700 kJ/mol
# Density = 2.544435 g / cm^3
# Si number density = 25.502399 Si / 1000 Ang^3
#
#
#
# Elastic Constant Matrix: (Units=GPa)
#
#
# Indices 1 2 3 4 5 6 
#
# 1 130.1002 22.5837 50.6490 0.0000 0.0000 0.0000
# 2 22.5837 168.5187 62.4391 0.0000 0.0000 0.0000
# 3 50.6490 62.4391 181.2585 0.0000 0.0000 0.0000
# 4 0.0000 0.0000 0.0000 35.4289 0.0000 0.0000
# 5 0.0000 0.0000 0.0000 0.0000 42.6796 0.0000
# 6 0.0000 0.0000 0.0000 0.0000 0.0000 18.8731
#
#
#
# Elastic Compliance Matrix: (Units=1/GPa)
#
#
# Indices 1 2 3 4 5 6 
#
# 1 0.008638 -0.000302 -0.002310 0.000000 0.000000 0.000000
# 2 -0.000302 0.006813 -0.002263 0.000000 0.000000 0.000000
# 3 -0.002310 -0.002263 0.006942 0.000000 0.000000 0.000000
# 4 0.000000 0.000000 0.000000 0.028226 0.000000 0.000000
# 5 0.000000 0.000000 0.000000 0.000000 0.023430 0.000000
# 6 0.000000 0.000000 0.000000 0.000000 0.000000 0.052986
#
#
# Mechanical properties :
#
#
# Convention : Reuss Voigt Hill
#
# Bulk Modulus (GPa) = 79.08613 83.46899 81.27756
# Shear Modulus (GPa) = 35.46173 42.34334 38.90254
#
# Velocity S-wave (km/s) = 3.73302 4.07918 3.90993
# Velocity P-wave (km/s) = 7.04693 7.41534 7.23348
#
# Compressibility (1/GPa) = 0.01264444
#
# Stress axis : x y z
#
# Youngs Moduli (GPa) = 115.76788 146.78243 144.05542
#
# Poissons Ratio (x) = 0.04430 0.33273
# Poissons Ratio (y) = 0.03494 0.32593
# Poissons Ratio (z) = 0.26739 0.33210
#
# Static dielectric constant tensor:
#      x y z
#    x 1.989670 0.000000 0.000000 
#    y 0.000000 2.063950 0.000000 
#    z 0.000000 0.000000 2.343630 
# 
# From -- ./inp_files/21451.got.cif
#   From: 2010.05.17/outbox.cif.g08.bks.cpg/sg60_11_cif.got.tgz:21451.got - 2010.06.03 14:59:27.
