data_PCOD9458155
_publ_section_title
;
Structure prediction by ZEFSAII (Michael W. Deem and Ramdas Pophale) SiO2 
 PCOD9458155
Probable space group: P B C N
;
_chemical_formula_sum "Si O2"
_cell_formula_units_Z 40
_cell_length_a 9.980359
_cell_length_b 18.393047
_cell_length_c 8.971005
_cell_angle_alpha 90.000000
_cell_angle_beta 90.000000
_cell_angle_gamma 90.000000
_cell_volume 1646.800320
_symmetry_space_group_name_H-M "P B C N"
_symmetry_group_IT_number 60
_symmetry_cell_setting 'orthorhombic'
loop_
_space_group_symop_operation_xyz
x,y,z
1/2-x,1/2-y,1/2+z
1/2+x,1/2-y,-z
-x,y,1/2-z
-x,-y,-z
1/2+x,1/2+y,1/2-z
1/2-x,1/2+y,z
x,-y,1/2+z
loop_
_atom_site_type_symbol
_atom_site_label
_atom_site_fract_x
_atom_site_fract_y
_atom_site_fract_z
Si Si1 0.323182 0.745003 0.355313
Si Si2 0.541254 0.591007 0.091497
Si Si3 0.633825 0.037532 0.844394
Si Si4 0.586288 0.806685 0.464719
Si Si5 0.791015 0.952318 0.048114
O O1 0.384015 0.664656 0.373424
O O2 0.426353 0.792410 0.456861
O O3 0.170520 0.733696 0.406763
O O4 0.349729 0.774383 0.189465
O O5 0.500000 0.558050 0.250000
O O6 0.636405 0.530531 0.023094
O O7 0.406235 0.603159 0.998378
O O8 0.500000 0.026550 0.750000
O O9 0.612770 0.107062 0.951486
O O10 0.741613 0.056080 0.715168
O O11 0.671453 0.964041 0.931851
#
# Coordination Sequence:
#
# PCOD9458155 Si02
#       5
#     8   8   8   8   8
#     4  11  24  45  68  94 136 173 222 277 331 393
#     4  11  21  42  69  95 125 170 223 280 317 392
#     4  12  24  45  64  98 139 174 218 273 332 403
#     4  11  25  43  67  99 134 175 224 276 328 401
#     4  11  25  41  69  98 131 169 223 270 337 383
#
# _framework density 24.289525999999999
#
# number of rings (size 3 to 8) (size 9 to 14) (size 15 to 20)
#    0.000    0.800    8.000    0.600    2.800    0.800 
#    0.000    0.000    0.000    0.000    0.000    0.000 
#    0.000    0.000    0.000    0.000    0.000    0.000 
#
# Total GULP energy -223688.060210 kJ/mol
# GULP energy per Si atom -5592.201505 kJ/mol
# Density = 2.423424 g / cm^3
# Si number density = 24.289526 Si / 1000 Ang^3
#
#
#
# Elastic Constant Matrix: (Units=GPa)
#
#
# Indices 1 2 3 4 5 6 
#
# 1 47.5983 2.8312 -0.0215 0.0000 0.0000 0.0000
# 2 2.8312 59.3061 -15.5235 0.0000 0.0000 0.0000
# 3 -0.0215 -15.5235 47.9674 0.0000 0.0000 0.0000
# 4 0.0000 0.0000 0.0000 23.8637 0.0000 0.0000
# 5 0.0000 0.0000 0.0000 0.0000 49.3812 0.0000
# 6 0.0000 0.0000 0.0000 0.0000 0.0000 30.8886
#
#
#
# Elastic Compliance Matrix: (Units=1/GPa)
#
#
# Indices 1 2 3 4 5 6 
#
# 1 0.021074 -0.001096 -0.000345 0.000000 0.000000 0.000000
# 2 -0.001096 0.018479 0.005980 0.000000 0.000000 0.000000
# 3 -0.000345 0.005980 0.022783 0.000000 0.000000 0.000000
# 4 0.000000 0.000000 0.000000 0.041905 0.000000 0.000000
# 5 0.000000 0.000000 0.000000 0.000000 0.020251 0.000000
# 6 0.000000 0.000000 0.000000 0.000000 0.000000 0.032374
#
#
# Mechanical properties :
#
#
# Convention : Reuss Voigt Hill
#
# Bulk Modulus (GPa) = 14.00325 14.38271 14.19298
# Shear Modulus (GPa) = 29.13858 31.99906 30.56882
#
# Velocity S-wave (km/s) = 3.46733 3.63354 3.55141
# Velocity P-wave (km/s) = 4.66985 4.85157 4.76158
#
# Compressibility (1/GPa) = 0.07141197
#
# Stress axis : x y z
#
# Youngs Moduli (GPa) = 47.45137 54.11474 43.89321
#
# Poissons Ratio (x) = 0.05934 0.01516
# Poissons Ratio (y) = 0.05203 -0.26248
# Poissons Ratio (z) = 0.01639 -0.32360
#
# Static dielectric constant tensor:
#      x y z
#    x 2.091930 0.000000 0.000000 
#    y 0.000000 1.934880 0.000000 
#    z 0.000000 0.000000 1.924990 
# 
# From -- ./inp_files/4932.got.cif
#   From: 2010.05.17/outbox.cif.g08.bks.cpg/sg60_3_cif.got.tgz:4932.got - 2010.06.03 14:59:27.
