data_PCOD9458241
_publ_section_title
;
Structure prediction by ZEFSAII (Michael W. Deem and Ramdas Pophale) SiO2 
 PCOD9458241
Probable space group: P B C N
;
_chemical_formula_sum "Si O2"
_cell_formula_units_Z 40
_cell_length_a 9.493769
_cell_length_b 20.696733
_cell_length_c 9.394515
_cell_angle_alpha 90.000000
_cell_angle_beta 90.000000
_cell_angle_gamma 90.000000
_cell_volume 1845.928273
_symmetry_space_group_name_H-M "P B C N"
_symmetry_group_IT_number 60
_symmetry_cell_setting 'orthorhombic'
loop_
_space_group_symop_operation_xyz
x,y,z
1/2-x,1/2-y,1/2+z
1/2+x,1/2-y,-z
-x,y,1/2-z
-x,-y,-z
1/2+x,1/2+y,1/2-z
1/2-x,1/2+y,z
x,-y,1/2+z
loop_
_atom_site_type_symbol
_atom_site_label
_atom_site_fract_x
_atom_site_fract_y
_atom_site_fract_z
Si Si1 0.707950 0.025647 0.424545
Si Si2 0.515381 0.898149 0.412005
Si Si3 0.588290 0.220291 0.106255
Si Si4 0.089769 0.197957 0.392027
Si Si5 0.870531 0.047772 0.149833
O O1 0.629450 0.080816 0.513098
O O2 0.744130 0.048203 0.265844
O O3 0.609687 0.962651 0.410792
O O4 0.835526 0.000909 0.523173
O O5 0.500000 0.876371 0.250000
O O6 0.580998 0.842775 0.507197
O O7 0.500000 0.208639 0.250000
O O8 0.756084 0.230985 0.124002
O O9 0.502080 0.275173 0.022064
O O10 0.106950 0.120480 0.404049
O O11 0.000000 0.209660 0.250000
O O12 0.000000 0.027951 0.250000
#
# Coordination Sequence:
#
# PCOD9458241 Si02
#       5
#     8   8   8   8   8
#     4  11  22  41  67 103 141 185 238 286 360 424
#     4  11  23  39  69 101 141 186 233 300 345 427
#     4  12  25  45  73 104 140 193 248 306 366 436
#     4  11  25  47  71 103 145 186 243 302 365 437
#     4  11  23  43  68 100 146 187 230 296 366 438
#
# _framework density 21.669315000000001
#
# number of rings (size 3 to 8) (size 9 to 14) (size 15 to 20)
#    0.000    0.800    4.000    3.600    0.000    1.600 
#    0.000    5.000    0.000    0.000    0.000    0.000 
#    0.000    0.000    0.000    0.000    0.000    0.000 
#
# Total GULP energy -223776.329692 kJ/mol
# GULP energy per Si atom -5594.408242 kJ/mol
# Density = 2.161999 g / cm^3
# Si number density = 21.669315 Si / 1000 Ang^3
#
#
#
# Elastic Constant Matrix: (Units=GPa)
#
#
# Indices 1 2 3 4 5 6 
#
# 1 119.7851 28.3708 29.5748 0.0000 0.0000 0.0000
# 2 28.3708 68.4524 34.0963 0.0000 0.0000 0.0000
# 3 29.5748 34.0963 121.3163 0.0000 0.0000 0.0000
# 4 0.0000 0.0000 0.0000 30.0449 0.0000 0.0000
# 5 0.0000 0.0000 0.0000 0.0000 45.2895 0.0000
# 6 0.0000 0.0000 0.0000 0.0000 0.0000 23.9401
#
#
#
# Elastic Compliance Matrix: (Units=1/GPa)
#
#
# Indices 1 2 3 4 5 6 
#
# 1 0.009457 -0.003222 -0.001400 0.000000 0.000000 0.000000
# 2 -0.003222 0.018085 -0.004297 0.000000 0.000000 0.000000
# 3 -0.001400 -0.004297 0.009792 0.000000 0.000000 0.000000
# 4 0.000000 0.000000 0.000000 0.033284 0.000000 0.000000
# 5 0.000000 0.000000 0.000000 0.000000 0.022080 0.000000
# 6 0.000000 0.000000 0.000000 0.000000 0.000000 0.041771
#
#
# Mechanical properties :
#
#
# Convention : Reuss Voigt Hill
#
# Bulk Modulus (GPa) = 51.29531 54.84861 53.07196
# Shear Modulus (GPa) = 31.48509 34.35569 32.92039
#
# Velocity S-wave (km/s) = 3.81593 3.98610 3.90194
# Velocity P-wave (km/s) = 6.56798 6.82289 6.69665
#
# Compressibility (1/GPa) = 0.01949496
#
# Stress axis : x y z
#
# Youngs Moduli (GPa) = 105.74063 55.29544 102.12519
#
# Poissons Ratio (x) = 0.17818 0.14296
# Poissons Ratio (y) = 0.34073 0.43885
# Poissons Ratio (z) = 0.14802 0.23762
#
# Static dielectric constant tensor:
#      x y z
#    x 1.866650 0.000000 0.000000 
#    y 0.000000 1.757340 0.000000 
#    z 0.000000 0.000000 1.754380 
# 
# From -- ./inp_files/3860.got.cif
#   From: 2010.05.17/outbox.cif.g08.bks.cpg/sg60_2_cif.got.tgz:3860.got - 2010.06.03 14:59:27.
