data_PCOD9458979
_publ_section_title
;
Structure prediction by ZEFSAII (Michael W. Deem and Ramdas Pophale) SiO2 
 PCOD9458979
Probable space group: P B C A
;
_chemical_formula_sum "Si O2"
_cell_formula_units_Z 48
_cell_length_a 12.003500
_cell_length_b 5.159615
_cell_length_c 29.978183
_cell_angle_alpha 90.000000
_cell_angle_beta 90.000000
_cell_angle_gamma 90.000000
_cell_volume 1856.651958
_symmetry_space_group_name_H-M "P B C A"
_symmetry_group_IT_number 61
_symmetry_cell_setting 'orthorhombic'
loop_
_space_group_symop_operation_xyz
x,y,z
1/2-x,-y,1/2+z
1/2+x,1/2-y,-z
-x,1/2+y,1/2-z
-x,-y,-z
1/2+x,y,1/2-z
1/2-x,1/2+y,z
x,1/2-y,1/2+z
loop_
_atom_site_type_symbol
_atom_site_label
_atom_site_fract_x
_atom_site_fract_y
_atom_site_fract_z
Si Si1 0.406450 0.316790 0.042006
Si Si2 0.140185 0.869090 0.139511
Si Si3 0.682171 0.970119 0.626187
Si Si4 0.180833 0.552476 0.269662
Si Si5 0.549894 0.692470 0.548924
Si Si6 0.889385 0.880532 0.320054
O O1 0.335146 0.337122 0.087270
O O2 0.448724 0.611847 0.036324
O O3 0.501430 0.097051 0.052715
O O4 0.366511 0.218038 0.993593
O O5 0.076069 0.117434 0.157458
O O6 0.066423 0.626536 0.153955
O O7 0.257288 0.879913 0.166043
O O8 0.786804 0.771004 0.619073
O O9 0.598985 0.838972 0.591431
O O10 0.653231 0.957690 0.678570
O O11 0.215982 0.850906 0.262087
O O12 0.097596 0.442402 0.232053
#
# Coordination Sequence:
#
# PCOD9458979 Si02
#       6
#     8   8   8   8   8   8
#     4  10  21  37  59  75 109 159 187 221 285 339
#     4  10  18  30  50  81 105 143 182 223 270 333
#     4  10  21  35  58  86 106 139 186 240 284 320
#     4  10  16  30  51  78 105 143 170 214 283 332
#     4  10  21  40  56  78 110 149 194 228 275 353
#     4  10  17  30  50  80 115 133 175 234 273 327
#
# _framework density 25.852989000000001
#
# number of rings (size 3 to 8) (size 9 to 14) (size 15 to 20)
#    0.000    2.000    3.333    2.000    0.000    0.000 
#    6.000    0.000    0.000    4.000    0.000    0.000 
#    0.000    0.000    0.000    0.000    0.000    0.000 
#
# Total GULP energy -267621.558106 kJ/mol
# GULP energy per Si atom -5575.449127 kJ/mol
# Density = 2.579415 g / cm^3
# Si number density = 25.852989 Si / 1000 Ang^3
#
#
#
# Elastic Constant Matrix: (Units=GPa)
#
#
# Indices 1 2 3 4 5 6 
#
# 1 41.2908 9.6671 23.8009 0.0000 0.0000 0.0000
# 2 9.6671 194.4728 36.5530 0.0000 0.0000 0.0000
# 3 23.8009 36.5530 184.1471 0.0000 0.0000 0.0000
# 4 0.0000 0.0000 0.0000 40.6618 0.0000 0.0000
# 5 0.0000 0.0000 0.0000 0.0000 25.8656 0.0000
# 6 0.0000 0.0000 0.0000 0.0000 0.0000 17.3043
#
#
#
# Elastic Compliance Matrix: (Units=1/GPa)
#
#
# Indices 1 2 3 4 5 6 
#
# 1 0.026258 -0.000693 -0.003256 0.000000 0.000000 0.000000
# 2 -0.000693 0.005360 -0.000974 0.000000 0.000000 0.000000
# 3 -0.003256 -0.000974 0.006045 0.000000 0.000000 0.000000
# 4 0.000000 0.000000 0.000000 0.024593 0.000000 0.000000
# 5 0.000000 0.000000 0.000000 0.000000 0.038661 0.000000
# 6 0.000000 0.000000 0.000000 0.000000 0.000000 0.057789
#
#
# Mechanical properties :
#
#
# Convention : Reuss Voigt Hill
#
# Bulk Modulus (GPa) = 35.95225 62.21697 49.08461
# Shear Modulus (GPa) = 28.11759 40.09232 34.10495
#
# Velocity S-wave (km/s) = 3.30145 3.94227 3.63600
# Velocity P-wave (km/s) = 5.33567 6.69626 6.05431
#
# Compressibility (1/GPa) = 0.02781467
#
# Stress axis : x y z
#
# Youngs Moduli (GPa) = 38.08408 186.57776 165.43419
#
# Poissons Ratio (x) = 0.12934 0.53869
# Poissons Ratio (y) = 0.02640 0.16118
# Poissons Ratio (z) = 0.12401 0.18178
#
# Static dielectric constant tensor:
#      x y z
#    x 2.226520 0.000000 0.000000 
#    y 0.000000 2.022980 0.000000 
#    z 0.000000 0.000000 2.099060 
# 
# From -- ./inp_files/11495.got.cif
#   From: 2010.05.17/outbox.cif.g08.bks.cpg/sg61_6_cif.got.tgz:11495.got - 2010.06.03 15:17:17.
