data_PCOD9458362
_publ_section_title
;
Structure prediction by ZEFSAII (Michael W. Deem and Ramdas Pophale) SiO2 
 PCOD9458362
Probable space group: P B C N
;
_chemical_formula_sum "Si O2"
_cell_formula_units_Z 48
_cell_length_a 5.219541
_cell_length_b 28.744811
_cell_length_c 13.611130
_cell_angle_alpha 90.000000
_cell_angle_beta 90.000000
_cell_angle_gamma 90.000000
_cell_volume 2042.142072
_symmetry_space_group_name_H-M "P B C N"
_symmetry_group_IT_number 60
_symmetry_cell_setting 'orthorhombic'
loop_
_space_group_symop_operation_xyz
x,y,z
1/2-x,1/2-y,1/2+z
1/2+x,1/2-y,-z
-x,y,1/2-z
-x,-y,-z
1/2+x,1/2+y,1/2-z
1/2-x,1/2+y,z
x,-y,1/2+z
loop_
_atom_site_type_symbol
_atom_site_label
_atom_site_fract_x
_atom_site_fract_y
_atom_site_fract_z
Si Si1 0.000000 0.344805 0.750000
Si Si2 0.675316 0.111780 0.913508
Si Si3 0.693848 0.301164 0.909309
Si Si4 0.323337 0.674250 0.885057
Si Si5 0.500000 0.961275 0.250000
Si Si6 0.000000 0.977388 0.750000
Si Si7 0.894691 0.102926 0.120719
Si Si8 0.000000 0.269577 0.250000
O O1 0.051968 0.312297 0.654820
O O2 0.220407 0.378563 0.789636
O O3 0.429977 0.145222 0.915458
O O4 0.597589 0.071794 0.837820
O O5 0.929396 0.140856 0.881468
O O6 0.731936 0.093551 0.022804
O O7 0.564958 0.352255 0.904029
O O8 0.564405 0.262776 0.841758
O O9 0.659484 0.289611 0.023707
O O10 0.235078 0.698976 0.785576
O O11 0.252049 0.992636 0.272256
O O12 0.035788 0.943316 0.656430
#
# Coordination Sequence:
#
# PCOD9458362 Si02
#       8
#     4   8   8   8   4   4   8   4
#     4  12  17  40  74 100 134 198 230 298 338 429
#     4  11  26  51  72  99 143 198 243 286 363 436
#     4  11  24  42  70 107 144 193 241 297 359 420
#     4  11  27  47  74 102 141 199 249 289 356 439
#     4  12  28  46  72 105 148 181 234 308 359 439
#     4  12  25  42  74 116 140 179 237 296 373 424
#     4  11  23  42  74 104 145 190 240 289 357 444
#     4  12  26  46  68 111 154 184 243 318 356 408
#
# _framework density 23.504731
#
# number of rings (size 3 to 8) (size 9 to 14) (size 15 to 20)
#    0.000    0.667    5.000    2.000    0.000    8.667 
#    0.000    0.000    0.000    0.000    0.000    0.000 
#    0.000    0.000    0.000    0.000    0.000    0.000 
#
# Total GULP energy -268365.519269 kJ/mol
# GULP energy per Si atom -5590.948318 kJ/mol
# Density = 2.345123 g / cm^3
# Si number density = 23.504731 Si / 1000 Ang^3
#
#
#
# Elastic Constant Matrix: (Units=GPa)
#
#
# Indices 1 2 3 4 5 6 
#
# 1 142.6546 50.5125 35.5315 0.0000 0.0000 0.0000
# 2 50.5125 80.8499 62.1510 0.0000 0.0000 0.0000
# 3 35.5315 62.1510 128.6816 0.0000 0.0000 0.0000
# 4 0.0000 0.0000 0.0000 -0.9687 0.0000 0.0000
# 5 0.0000 0.0000 0.0000 0.0000 44.6143 0.0000
# 6 0.0000 0.0000 0.0000 0.0000 0.0000 -14.6676
#
#
#
# Elastic Compliance Matrix: (Units=1/GPa)
#
#
# Indices 1 2 3 4 5 6 
#
# 1 0.009012 -0.005913 0.000367 0.000000 0.000000 0.000000
# 2 -0.005913 0.023552 -0.009743 0.000000 0.000000 0.000000
# 3 0.000367 -0.009743 0.012375 0.000000 0.000000 0.000000
# 4 0.000000 0.000000 0.000000 -1.032280 0.000000 0.000000
# 5 0.000000 0.000000 0.000000 0.000000 0.022414 0.000000
# 6 0.000000 0.000000 0.000000 0.000000 0.000000 -0.068178
#
#
# Mechanical properties :
#
#
# Convention : Reuss Voigt Hill
#
# Bulk Modulus (GPa) = 69.62230 72.06401 70.84316
# Shear Modulus (GPa) = -5.01133 19.39501 7.19184
#
# Velocity S-wave (km/s) = -1.46174 2.87566 1.75111
# Velocity P-wave (km/s) = 5.18034 6.46157 5.85610
#
# Compressibility (1/GPa) = 0.01436321
#
# Stress axis : x y z
#
# Youngs Moduli (GPa) = 110.96140 42.45889 80.80685
#
# Poissons Ratio (x) = 0.25106 -0.02969
# Poissons Ratio (y) = 0.65611 0.78727
# Poissons Ratio (z) = -0.04077 0.41366
#
# Static dielectric constant tensor:
#      x y z
#    x 1.982160 0.000000 0.000000 
#    y 0.000000 1.911220 0.000000 
#    z 0.000000 0.000000 1.977140 
# 
# From -- ./inp_files/13994.got.cif
#   From: 2010.05.17/outbox.cif.g08.bks.cpg/sg60_7_cif.got.tgz:13994.got - 2010.06.03 14:59:27.
