data_PCOD9458217
_publ_section_title
;
Structure prediction by ZEFSAII (Michael W. Deem and Ramdas Pophale) SiO2 
 PCOD9458217
Probable space group: P B C N
;
_chemical_formula_sum "Si O2"
_cell_formula_units_Z 36
_cell_length_a 13.585255
_cell_length_b 9.591767
_cell_length_c 10.457065
_cell_angle_alpha 90.000000
_cell_angle_beta 90.000000
_cell_angle_gamma 90.000000
_cell_volume 1362.624592
_symmetry_space_group_name_H-M "P B C N"
_symmetry_group_IT_number 60
_symmetry_cell_setting 'orthorhombic'
loop_
_space_group_symop_operation_xyz
x,y,z
1/2-x,1/2-y,1/2+z
1/2+x,1/2-y,-z
-x,y,1/2-z
-x,-y,-z
1/2+x,1/2+y,1/2-z
1/2-x,1/2+y,z
x,-y,1/2+z
loop_
_atom_site_type_symbol
_atom_site_label
_atom_site_fract_x
_atom_site_fract_y
_atom_site_fract_z
Si Si1 0.339408 0.743883 0.055206
Si Si2 0.557430 0.192111 0.513697
Si Si3 0.166438 0.144367 0.691126
Si Si4 0.500000 0.829848 0.750000
Si Si5 0.235126 0.512256 0.902969
O O1 0.455327 0.762483 0.076082
O O2 0.267919 0.773429 0.173646
O O3 0.305730 0.595789 0.000376
O O4 0.301379 0.868552 0.961690
O O5 0.608081 0.326297 0.442651
O O6 0.533329 0.100679 0.382607
O O7 0.636270 0.108887 0.596445
O O8 0.204276 0.012048 0.770688
O O9 0.089808 0.226254 0.782128
#
# Coordination Sequence:
#
# PCOD9458217 Si02
#       5
#     8   8   8   4   8
#     4  11  22  39  64  95 129 171 221 262 323 387
#     4   9  19  38  64  87 125 169 209 264 311 379
#     4   9  20  38  63  90 129 169 206 264 327 371
#     4   8  16  36  64  80 126 166 198 242 346 344
#     4  11  22  39  63  98 128 173 219 266 317 394
#
# _framework density 26.419602000000001
#
# number of rings (size 3 to 8) (size 9 to 14) (size 15 to 20)
#    1.333    0.889    2.222    0.667    0.000    6.222 
#    0.000   10.000    0.000    0.000    0.000    0.000 
#    0.000    0.000    0.000    0.000    0.000    0.000 
#
# Total GULP energy -200560.389922 kJ/mol
# GULP energy per Si atom -5571.121942 kJ/mol
# Density = 2.635947 g / cm^3
# Si number density = 26.419602 Si / 1000 Ang^3
#
#
#
# Elastic Constant Matrix: (Units=GPa)
#
#
# Indices 1 2 3 4 5 6 
#
# 1 194.1815 26.4053 45.1730 0.0000 0.0000 0.0000
# 2 26.4053 111.3852 26.1519 0.0000 0.0000 0.0000
# 3 45.1730 26.1519 57.3662 0.0000 0.0000 0.0000
# 4 0.0000 0.0000 0.0000 22.9860 0.0000 0.0000
# 5 0.0000 0.0000 0.0000 0.0000 59.5340 0.0000
# 6 0.0000 0.0000 0.0000 0.0000 0.0000 37.0856
#
#
#
# Elastic Compliance Matrix: (Units=1/GPa)
#
#
# Indices 1 2 3 4 5 6 
#
# 1 0.006318 -0.000369 -0.004807 0.000000 0.000000 0.000000
# 2 -0.000369 0.010076 -0.004302 0.000000 0.000000 0.000000
# 3 -0.004807 -0.004302 0.023179 0.000000 0.000000 0.000000
# 4 0.000000 0.000000 0.000000 0.043505 0.000000 0.000000
# 5 0.000000 0.000000 0.000000 0.000000 0.016797 0.000000
# 6 0.000000 0.000000 0.000000 0.000000 0.000000 0.026965
#
#
# Mechanical properties :
#
#
# Convention : Reuss Voigt Hill
#
# Bulk Modulus (GPa) = 48.50839 62.04368 55.27604
# Shear Modulus (GPa) = 32.75079 41.60130 37.17605
#
# Velocity S-wave (km/s) = 3.52467 3.97248 3.75525
# Velocity P-wave (km/s) = 5.91312 6.67650 6.30637
#
# Compressibility (1/GPa) = 0.02061499
#
# Stress axis : x y z
#
# Youngs Moduli (GPa) = 158.27034 99.25023 43.14331
#
# Poissons Ratio (x) = 0.03664 0.20739
# Poissons Ratio (y) = 0.05843 0.18562
# Poissons Ratio (z) = 0.76081 0.42702
#
# Static dielectric constant tensor:
#      x y z
#    x 2.063750 0.000000 0.000000 
#    y 0.000000 2.075150 0.000000 
#    z 0.000000 0.000000 2.241710 
# 
# From -- ./inp_files/11646.got.cif
#   From: 2010.05.17/outbox.cif.g08.bks.cpg/sg60_6_cif.got.tgz:11646.got - 2010.06.03 14:59:27.
