data_PCOD9458530
_publ_section_title
;
Structure prediction by ZEFSAII (Michael W. Deem and Ramdas Pophale) SiO2 
 PCOD9458530
Probable space group: P B C N
;
_chemical_formula_sum "Si O2"
_cell_formula_units_Z 40
_cell_length_a 12.007002
_cell_length_b 28.003117
_cell_length_c 5.009979
_cell_angle_alpha 90.000000
_cell_angle_beta 90.000000
_cell_angle_gamma 90.000000
_cell_volume 1684.522683
_symmetry_space_group_name_H-M "P B C N"
_symmetry_group_IT_number 60
_symmetry_cell_setting 'orthorhombic'
loop_
_space_group_symop_operation_xyz
x,y,z
1/2-x,1/2-y,1/2+z
1/2+x,1/2-y,-z
-x,y,1/2-z
-x,-y,-z
1/2+x,1/2+y,1/2-z
1/2-x,1/2+y,z
x,-y,1/2+z
loop_
_atom_site_type_symbol
_atom_site_label
_atom_site_fract_x
_atom_site_fract_y
_atom_site_fract_z
Si Si1 0.151612 0.657677 0.653330
Si Si2 0.000000 0.096137 0.250000
Si Si3 0.393587 0.678439 0.561980
Si Si4 0.672956 0.469369 0.036596
Si Si5 0.118485 0.407970 0.651989
Si Si6 0.000000 0.261160 0.250000
O O1 0.276707 0.675512 0.709396
O O2 0.158135 0.621108 0.409854
O O3 0.075442 0.702872 0.577696
O O4 0.105285 0.630190 0.912441
O O5 0.930316 0.063780 0.453866
O O6 0.089495 0.131761 0.380593
O O7 0.500000 0.676842 0.750000
O O8 0.412934 0.726637 0.396488
O O9 0.667457 0.515701 0.844226
O O10 0.788804 0.444210 0.955914
O O11 0.000000 0.429358 0.750000
#
# Coordination Sequence:
#
# PCOD9458530 Si02
#       6
#     8   4   8   8   8   4
#     4  12  26  48  74 102 150 190 244 292 358 434
#     4  11  24  48  70 106 148 190 236 294 380 427
#     4  11  27  44  74 106 149 192 241 303 354 435
#     4  12  27  45  75 109 141 185 243 303 363 441
#     4  12  25  49  76 104 141 195 240 296 366 431
#     4  11  28  44  70 112 138 196 248 292 356 423
#
# _framework density 23.745601000000001
#
# number of rings (size 3 to 8) (size 9 to 14) (size 15 to 20)
#    0.000    0.400    4.000    3.000   11.200    0.800 
#    0.000    0.000    0.000    0.000    0.000    0.000 
#    0.000    0.000    0.000    0.000    0.000    0.000 
#
# Total GULP energy -224030.502103 kJ/mol
# GULP energy per Si atom -5600.762553 kJ/mol
# Density = 2.369155 g / cm^3
# Si number density = 23.745601 Si / 1000 Ang^3
#
#
#
# Elastic Constant Matrix: (Units=GPa)
#
#
# Indices 1 2 3 4 5 6 
#
# 1 137.4033 30.4136 -5.6447 0.0000 0.0000 0.0000
# 2 30.4136 80.6040 -1.7916 0.0000 0.0000 0.0000
# 3 -5.6447 -1.7916 64.3234 0.0000 0.0000 0.0000
# 4 0.0000 0.0000 0.0000 43.0573 0.0000 0.0000
# 5 0.0000 0.0000 0.0000 0.0000 36.0838 0.0000
# 6 0.0000 0.0000 0.0000 0.0000 0.0000 18.5167
#
#
#
# Elastic Compliance Matrix: (Units=1/GPa)
#
#
# Indices 1 2 3 4 5 6 
#
# 1 0.007965 -0.002992 0.000616 0.000000 0.000000 0.000000
# 2 -0.002992 0.013538 0.000115 0.000000 0.000000 0.000000
# 3 0.000616 0.000115 0.015604 0.000000 0.000000 0.000000
# 4 0.000000 0.000000 0.000000 0.023225 0.000000 0.000000
# 5 0.000000 0.000000 0.000000 0.000000 0.027713 0.000000
# 6 0.000000 0.000000 0.000000 0.000000 0.000000 0.054005
#
#
# Mechanical properties :
#
#
# Convention : Reuss Voigt Hill
#
# Bulk Modulus (GPa) = 30.69036 36.47615 33.58326
# Shear Modulus (GPa) = 31.75923 36.82180 34.29052
#
# Velocity S-wave (km/s) = 3.66112 3.94214 3.80423
# Velocity P-wave (km/s) = 5.55198 6.00959 5.78531
#
# Compressibility (1/GPa) = 0.03258352
#
# Stress axis : x y z
#
# Youngs Moduli (GPa) = 125.54352 73.86752 64.08752
#
# Poissons Ratio (x) = 0.22100 -0.03946
# Poissons Ratio (y) = 0.37560 -0.00734
# Poissons Ratio (z) = -0.07729 -0.00846
#
# Static dielectric constant tensor:
#      x y z
#    x 1.915480 0.000000 0.000000 
#    y 0.000000 1.948820 0.000000 
#    z 0.000000 0.000000 1.897390 
# 
# From -- ./inp_files/843.got.cif
#   From: 2010.05.17/outbox.cif.g08.bks.cpg/sg60_1_cif.got.tgz:843.got - 2010.06.03 14:59:27.
