data_PCOD9458421
_publ_section_title
;
Structure prediction by ZEFSAII (Michael W. Deem and Ramdas Pophale) SiO2 
 PCOD9458421
Probable space group: P B C N
;
_chemical_formula_sum "Si O2"
_cell_formula_units_Z 32
_cell_length_a 10.695812
_cell_length_b 10.397828
_cell_length_c 12.626385
_cell_angle_alpha 90.000000
_cell_angle_beta 90.000000
_cell_angle_gamma 90.000000
_cell_volume 1404.220851
_symmetry_space_group_name_H-M "P B C N"
_symmetry_group_IT_number 60
_symmetry_cell_setting 'orthorhombic'
loop_
_space_group_symop_operation_xyz
x,y,z
1/2-x,1/2-y,1/2+z
1/2+x,1/2-y,-z
-x,y,1/2-z
-x,-y,-z
1/2+x,1/2+y,1/2-z
1/2-x,1/2+y,z
x,-y,1/2+z
loop_
_atom_site_type_symbol
_atom_site_label
_atom_site_fract_x
_atom_site_fract_y
_atom_site_fract_z
Si Si1 0.534441 0.600556 0.856869
Si Si2 0.266016 0.207315 0.204002
Si Si3 0.200929 0.923290 0.496769
Si Si4 0.364140 0.950871 0.305321
O O1 0.500000 0.520559 0.750000
O O2 0.600897 0.727260 0.815337
O O3 0.404186 0.621312 0.914693
O O4 0.633306 0.538535 0.938638
O O5 0.184048 0.311940 0.265323
O O6 0.283504 0.070570 0.260519
O O7 0.216195 0.182229 0.086634
O O8 0.328229 0.951896 0.431202
O O9 0.500000 0.966306 0.250000
#
# Coordination Sequence:
#
# PCOD9458421 Si02
#       4
#     8   8   8   8
#     4  11  23  47  74 105 146 199 256 317 374 469
#     4  12  26  49  71 114 150 198 256 319 382 465
#     4  11  26  45  78 107 150 205 250 312 402 453
#     4  12  30  48  77 112 159 196 261 323 386 471
#
# _framework density 22.788439
#
# number of rings (size 3 to 8) (size 9 to 14) (size 15 to 20)
#    0.000    0.500    5.000    0.750    7.000    4.000 
#    0.000    0.000    0.000    0.000    0.000    0.000 
#    0.000    0.000    0.000    0.000    0.000    0.000 
#
# Total GULP energy -178590.816347 kJ/mol
# GULP energy per Si atom -5580.963011 kJ/mol
# Density = 2.273657 g / cm^3
# Si number density = 22.788439 Si / 1000 Ang^3
#
#
#
# Elastic Constant Matrix: (Units=GPa)
#
#
# Indices 1 2 3 4 5 6 
#
# 1 82.1148 30.2124 22.4115 0.0000 0.0000 0.0000
# 2 30.2124 84.4906 25.5921 0.0000 0.0000 0.0000
# 3 22.4115 25.5921 132.8158 0.0000 0.0000 0.0000
# 4 0.0000 0.0000 0.0000 18.4521 0.0000 0.0000
# 5 0.0000 0.0000 0.0000 0.0000 54.0347 0.0000
# 6 0.0000 0.0000 0.0000 0.0000 0.0000 172.1268
#
#
#
# Elastic Compliance Matrix: (Units=1/GPa)
#
#
# Indices 1 2 3 4 5 6 
#
# 1 0.014305 -0.004656 -0.001517 0.000000 0.000000 0.000000
# 2 -0.004656 0.014085 -0.001928 0.000000 0.000000 0.000000
# 3 -0.001517 -0.001928 0.008157 0.000000 0.000000 0.000000
# 4 0.000000 0.000000 0.000000 0.054194 0.000000 0.000000
# 5 0.000000 0.000000 0.000000 0.000000 0.018507 0.000000
# 6 0.000000 0.000000 0.000000 0.000000 0.000000 0.005810
#
#
# Mechanical properties :
#
#
# Convention : Reuss Voigt Hill
#
# Bulk Modulus (GPa) = 49.15307 50.65035 49.90171
# Shear Modulus (GPa) = 36.22133 63.66973 49.94553
#
# Velocity S-wave (km/s) = 3.99113 5.29152 4.68664
# Velocity P-wave (km/s) = 6.54637 7.72063 7.15762
#
# Compressibility (1/GPa) = 0.02034461
#
# Stress axis : x y z
#
# Youngs Moduli (GPa) = 69.90541 70.99974 122.59827
#
# Poissons Ratio (x) = 0.33056 0.18595
# Poissons Ratio (y) = 0.32547 0.23641
# Poissons Ratio (z) = 0.10603 0.13691
#
# Static dielectric constant tensor:
#      x y z
#    x 1.891400 0.000000 0.000000 
#    y 0.000000 1.884080 0.000000 
#    z 0.000000 0.000000 1.936940 
# 
# From -- ./inp_files/15613.got.cif
#   From: 2010.05.17/outbox.cif.g08.bks.cpg/sg60_8_cif.got.tgz:15613.got - 2010.06.03 14:59:27.
