data_PCOD9458704
_publ_section_title
;
Structure prediction by ZEFSAII (Michael W. Deem and Ramdas Pophale) SiO2 
 PCOD9458704
Probable space group: P B C N
;
_chemical_formula_sum "Si O2"
_cell_formula_units_Z 48
_cell_length_a 7.019877
_cell_length_b 12.911987
_cell_length_c 22.749672
_cell_angle_alpha 90.000000
_cell_angle_beta 90.000000
_cell_angle_gamma 90.000000
_cell_volume 2062.043023
_symmetry_space_group_name_H-M "P B C N"
_symmetry_group_IT_number 60
_symmetry_cell_setting 'orthorhombic'
loop_
_space_group_symop_operation_xyz
x,y,z
1/2-x,1/2-y,1/2+z
1/2+x,1/2-y,-z
-x,y,1/2-z
-x,-y,-z
1/2+x,1/2+y,1/2-z
1/2-x,1/2+y,z
x,-y,1/2+z
loop_
_atom_site_type_symbol
_atom_site_label
_atom_site_fract_x
_atom_site_fract_y
_atom_site_fract_z
Si Si1 0.111616 0.890610 0.506236
Si Si2 0.550025 0.449235 0.186688
Si Si3 0.920988 0.297910 0.075505
Si Si4 0.191537 0.508504 0.605133
Si Si5 0.594603 0.057949 0.195648
Si Si6 0.182969 0.743634 0.791956
O O1 0.989468 0.795830 0.533335
O O2 0.225834 0.847053 0.450132
O O3 0.000000 0.000000 0.500000
O O4 0.264238 0.928978 0.553610
O O5 0.500000 0.499988 0.250000
O O6 0.375158 0.450319 0.142068
O O7 0.729194 0.509658 0.160328
O O8 0.658526 0.345889 0.206704
O O9 0.574366 0.108587 0.917573
O O10 0.072511 0.438357 0.649953
O O11 0.891007 0.747117 0.640876
O O12 0.500000 0.995586 0.250000
O O13 0.691263 0.157280 0.223472
O O14 0.000000 0.732814 0.750000
#
# Coordination Sequence:
#
# PCOD9458704 Si02
#       6
#     8   8   8   8   8   8
#     4  12  29  51  79 112 154 208 266 328 395 464
#     4  12  23  46  72 108 158 196 253 315 393 462
#     4  12  28  50  80 112 157 202 269 320 396 471
#     4  12  27  47  80 110 152 212 259 327 391 471
#     4  12  26  45  72 112 155 202 253 318 389 467
#     4  12  27  45  77 116 155 199 256 320 396 469
#
# _framework density 23.277884
#
# number of rings (size 3 to 8) (size 9 to 14) (size 15 to 20)
#    0.000    0.000    3.333    6.000    9.333    0.000 
#    0.000    0.000    0.000    0.000    0.000    0.000 
#    0.000    0.000    0.000    0.000    0.000    0.000 
#
# Total GULP energy -268060.567132 kJ/mol
# GULP energy per Si atom -5584.595149 kJ/mol
# Density = 2.322490 g / cm^3
# Si number density = 23.277884 Si / 1000 Ang^3
#
#
#
# Elastic Constant Matrix: (Units=GPa)
#
#
# Indices 1 2 3 4 5 6 
#
# 1 124.6029 45.5202 42.3470 0.0000 0.0000 0.0000
# 2 45.5202 111.8801 13.5303 0.0000 0.0000 0.0000
# 3 42.3470 13.5303 116.8345 0.0000 0.0000 0.0000
# 4 0.0000 0.0000 0.0000 23.8476 0.0000 0.0000
# 5 0.0000 0.0000 0.0000 0.0000 66.5990 0.0000
# 6 0.0000 0.0000 0.0000 0.0000 0.0000 37.6683
#
#
#
# Elastic Compliance Matrix: (Units=1/GPa)
#
#
# Indices 1 2 3 4 5 6 
#
# 1 0.010604 -0.003904 -0.003391 0.000000 0.000000 0.000000
# 2 -0.003904 0.010503 0.000199 0.000000 0.000000 0.000000
# 3 -0.003391 0.000199 0.009765 0.000000 0.000000 0.000000
# 4 0.000000 0.000000 0.000000 0.041933 0.000000 0.000000
# 5 0.000000 0.000000 0.000000 0.000000 0.015015 0.000000
# 6 0.000000 0.000000 0.000000 0.000000 0.000000 0.026548
#
#
# Mechanical properties :
#
#
# Convention : Reuss Voigt Hill
#
# Bulk Modulus (GPa) = 59.95764 61.79028 60.87396
# Shear Modulus (GPa) = 37.27956 42.41764 39.84860
#
# Velocity S-wave (km/s) = 4.00622 4.27339 4.14196
# Velocity P-wave (km/s) = 6.87117 7.13802 7.00587
#
# Compressibility (1/GPa) = 0.01667844
#
# Stress axis : x y z
#
# Youngs Moduli (GPa) = 94.29967 95.21385 102.40312
#
# Poissons Ratio (x) = 0.37176 0.34730
# Poissons Ratio (y) = 0.36819 -0.02037
# Poissons Ratio (z) = 0.31981 -0.01894
#
# Static dielectric constant tensor:
#      x y z
#    x 2.003410 0.000000 0.000000 
#    y 0.000000 1.989410 0.000000 
#    z 0.000000 0.000000 1.998750 
# 
# From -- ./inp_files/24885.got.cif
#   From: 2010.05.17/outbox.cif.g08.bks.cpg/sg60_13_cif.got.tgz:24885.got - 2010.06.03 14:59:27.
