data_PCOD9458477
_publ_section_title
;
Structure prediction by ZEFSAII (Michael W. Deem and Ramdas Pophale) SiO2 
 PCOD9458477
Probable space group: P B C N
;
_chemical_formula_sum "Si O2"
_cell_formula_units_Z 32
_cell_length_a 13.572574
_cell_length_b 7.923230
_cell_length_c 11.258346
_cell_angle_alpha 90.000000
_cell_angle_beta 90.000000
_cell_angle_gamma 90.000000
_cell_volume 1210.707054
_symmetry_space_group_name_H-M "P B C N"
_symmetry_group_IT_number 60
_symmetry_cell_setting 'orthorhombic'
loop_
_space_group_symop_operation_xyz
x,y,z
1/2-x,1/2-y,1/2+z
1/2+x,1/2-y,-z
-x,y,1/2-z
-x,-y,-z
1/2+x,1/2+y,1/2-z
1/2-x,1/2+y,z
x,-y,1/2+z
loop_
_atom_site_type_symbol
_atom_site_label
_atom_site_fract_x
_atom_site_fract_y
_atom_site_fract_z
Si Si1 0.858108 0.611574 0.945463
Si Si2 0.449361 0.323917 0.975129
Si Si3 0.115683 0.678994 0.217543
Si Si4 0.231576 0.317313 0.404697
O O1 0.968944 0.681289 0.951063
O O2 0.845665 0.505268 0.825133
O O3 0.825454 0.488533 0.055770
O O4 0.792366 0.772941 0.974347
O O5 0.360002 0.311575 0.881762
O O6 0.500000 0.500000 0.000000
O O7 0.395318 0.283380 0.097296
O O8 0.184904 0.783961 0.306256
O O9 0.000000 0.657950 0.250000
#
# Coordination Sequence:
#
# PCOD9458477 Si02
#       4
#     8   8   8   8
#     4  11  25  50  75 115 163 209 270 342 404 486
#     4  11  25  52  78 111 162 209 271 352 404 486
#     4  11  24  46  79 114 160 216 267 329 416 492
#     4  11  24  43  79 111 156 210 267 331 409 482
#
# _framework density 26.430838999999999
#
# number of rings (size 3 to 8) (size 9 to 14) (size 15 to 20)
#    0.000    1.000    2.500    4.500    0.000    4.000 
#    0.000    6.250    0.000    0.000    0.000    0.000 
#    0.000    0.000    0.000    0.000    0.000    0.000 
#
# Total GULP energy -178804.854556 kJ/mol
# GULP energy per Si atom -5587.651705 kJ/mol
# Density = 2.637068 g / cm^3
# Si number density = 26.430839 Si / 1000 Ang^3
#
#
#
# Elastic Constant Matrix: (Units=GPa)
#
#
# Indices 1 2 3 4 5 6 
#
# 1 225.4286 51.5677 42.3116 0.0000 0.0000 0.0000
# 2 51.5677 87.9453 13.8311 0.0000 0.0000 0.0000
# 3 42.3116 13.8311 76.7833 0.0000 0.0000 0.0000
# 4 0.0000 0.0000 0.0000 17.7742 0.0000 0.0000
# 5 0.0000 0.0000 0.0000 0.0000 57.4609 0.0000
# 6 0.0000 0.0000 0.0000 0.0000 0.0000 49.2392
#
#
#
# Elastic Compliance Matrix: (Units=1/GPa)
#
#
# Indices 1 2 3 4 5 6 
#
# 1 0.005571 -0.002865 -0.002554 0.000000 0.000000 0.000000
# 2 -0.002865 0.013175 -0.000795 0.000000 0.000000 0.000000
# 3 -0.002554 -0.000795 0.014574 0.000000 0.000000 0.000000
# 4 0.000000 0.000000 0.000000 0.056261 0.000000 0.000000
# 5 0.000000 0.000000 0.000000 0.000000 0.017403 0.000000
# 6 0.000000 0.000000 0.000000 0.000000 0.000000 0.020309
#
#
# Mechanical properties :
#
#
# Convention : Reuss Voigt Hill
#
# Bulk Modulus (GPa) = 47.86096 67.28644 57.57370
# Shear Modulus (GPa) = 34.08675 43.72465 38.90570
#
# Velocity S-wave (km/s) = 3.59508 4.07173 3.84080
# Velocity P-wave (km/s) = 5.94812 6.90059 6.44198
#
# Compressibility (1/GPa) = 0.02089385
#
# Stress axis : x y z
#
# Youngs Moduli (GPa) = 179.51284 75.89855 68.61532
#
# Poissons Ratio (x) = 0.21743 0.17522
# Poissons Ratio (y) = 0.51427 0.05453
# Poissons Ratio (z) = 0.45842 0.06032
#
# Static dielectric constant tensor:
#      x y z
#    x 2.183950 0.000000 0.000000 
#    y 0.000000 2.341180 0.000000 
#    z 0.000000 0.000000 2.171730 
# 
# From -- ./inp_files/10724.got.cif
#   From: 2010.05.17/outbox.cif.g08.bks.cpg/sg60_6_cif.got.tgz:10724.got - 2010.06.03 14:59:27.
