data_PCOD9458710
_publ_section_title
;
Structure prediction by ZEFSAII (Michael W. Deem and Ramdas Pophale) SiO2 
 PCOD9458710
Probable space group: P B C N
;
_chemical_formula_sum "Si O2"
_cell_formula_units_Z 40
_cell_length_a 13.293189
_cell_length_b 7.997182
_cell_length_c 16.009856
_cell_angle_alpha 90.000000
_cell_angle_beta 90.000000
_cell_angle_gamma 90.000000
_cell_volume 1701.976601
_symmetry_space_group_name_H-M "P B C N"
_symmetry_group_IT_number 60
_symmetry_cell_setting 'orthorhombic'
loop_
_space_group_symop_operation_xyz
x,y,z
1/2-x,1/2-y,1/2+z
1/2+x,1/2-y,-z
-x,y,1/2-z
-x,-y,-z
1/2+x,1/2+y,1/2-z
1/2-x,1/2+y,z
x,-y,1/2+z
loop_
_atom_site_type_symbol
_atom_site_label
_atom_site_fract_x
_atom_site_fract_y
_atom_site_fract_z
Si Si1 0.773087 0.843821 0.002174
Si Si2 0.370314 0.365631 0.914747
Si Si3 0.877988 0.903328 0.244942
Si Si4 0.053140 0.631606 0.561631
Si Si5 0.312169 0.073514 0.171593
O O1 0.854734 0.700795 0.991645
O O2 0.705345 0.844411 0.919366
O O3 0.703539 0.793865 0.080325
O O4 0.833948 0.015837 0.010026
O O5 0.359876 0.492611 0.839110
O O6 0.479490 0.285557 0.920122
O O7 0.848226 0.709070 0.260512
O O8 0.000000 0.911669 0.250000
O O9 0.796003 0.995047 0.305099
O O10 0.099811 0.558141 0.647649
O O11 0.000000 0.500000 0.500000
#
# Coordination Sequence:
#
# PCOD9458710 Si02
#       5
#     8   8   8   8   8
#     4  12  23  47  78 112 158 200 269 330 388 477
#     4  12  25  46  76 119 157 208 268 326 401 483
#     4  12  29  50  76 113 162 218 265 329 412 481
#     4  12  25  44  82 117 156 205 268 332 401 476
#     4  12  25  52  76 113 163 209 267 335 398 482
#
# _framework density 23.502085000000001
#
# number of rings (size 3 to 8) (size 9 to 14) (size 15 to 20)
#    0.000    0.000    6.000    3.000    2.800    0.000 
#    7.200    0.000    0.000    0.000    0.000    0.000 
#    0.000    0.000    0.000    0.000    0.000    0.000 
#
# Total GULP energy -223322.169227 kJ/mol
# GULP energy per Si atom -5583.054231 kJ/mol
# Density = 2.344859 g / cm^3
# Si number density = 23.502085 Si / 1000 Ang^3
#
#
#
# Elastic Constant Matrix: (Units=GPa)
#
#
# Indices 1 2 3 4 5 6 
#
# 1 157.1479 59.3471 43.2661 0.0000 0.0000 0.0000
# 2 59.3471 90.4062 24.5654 0.0000 0.0000 0.0000
# 3 43.2661 24.5654 54.3511 0.0000 0.0000 0.0000
# 4 0.0000 0.0000 0.0000 18.7270 0.0000 0.0000
# 5 0.0000 0.0000 0.0000 0.0000 21.0850 0.0000
# 6 0.0000 0.0000 0.0000 0.0000 0.0000 64.4705
#
#
#
# Elastic Compliance Matrix: (Units=1/GPa)
#
#
# Indices 1 2 3 4 5 6 
#
# 1 0.009733 -0.004884 -0.005541 0.000000 0.000000 0.000000
# 2 -0.004884 0.015060 -0.002919 0.000000 0.000000 0.000000
# 3 -0.005541 -0.002919 0.024129 0.000000 0.000000 0.000000
# 4 0.000000 0.000000 0.000000 0.053399 0.000000 0.000000
# 5 0.000000 0.000000 0.000000 0.000000 0.047427 0.000000
# 6 0.000000 0.000000 0.000000 0.000000 0.000000 0.015511
#
#
# Mechanical properties :
#
#
# Convention : Reuss Voigt Hill
#
# Bulk Modulus (GPa) = 44.97393 61.80694 53.39043
# Shear Modulus (GPa) = 25.08039 32.50494 28.79266
#
# Velocity S-wave (km/s) = 3.27028 3.72299 3.50396
# Velocity P-wave (km/s) = 5.78250 6.69601 6.25595
#
# Compressibility (1/GPa) = 0.02223511
#
# Stress axis : x y z
#
# Youngs Moduli (GPa) = 102.73972 66.39932 41.44388
#
# Poissons Ratio (x) = 0.32429 0.22963
# Poissons Ratio (y) = 0.50177 0.12098
# Poissons Ratio (z) = 0.56926 0.19383
#
# Static dielectric constant tensor:
#      x y z
#    x 2.037660 0.000000 0.000000 
#    y 0.000000 2.000610 0.000000 
#    z 0.000000 0.000000 1.945660 
# 
# From -- ./inp_files/19851.got.cif
#   From: 2010.05.17/outbox.cif.g08.bks.cpg/sg60_10_cif.got.tgz:19851.got - 2010.06.03 14:59:27.
