data_PCOD9458528
_publ_section_title
;
Structure prediction by ZEFSAII (Michael W. Deem and Ramdas Pophale) SiO2 
 PCOD9458528
Probable space group: P B C N
;
_chemical_formula_sum "Si O2"
_cell_formula_units_Z 40
_cell_length_a 7.388696
_cell_length_b 23.017897
_cell_length_c 8.875195
_cell_angle_alpha 90.000000
_cell_angle_beta 90.000000
_cell_angle_gamma 90.000000
_cell_volume 1509.424325
_symmetry_space_group_name_H-M "P B C N"
_symmetry_group_IT_number 60
_symmetry_cell_setting 'orthorhombic'
loop_
_space_group_symop_operation_xyz
x,y,z
1/2-x,1/2-y,1/2+z
1/2+x,1/2-y,-z
-x,y,1/2-z
-x,-y,-z
1/2+x,1/2+y,1/2-z
1/2-x,1/2+y,z
x,-y,1/2+z
loop_
_atom_site_type_symbol
_atom_site_label
_atom_site_fract_x
_atom_site_fract_y
_atom_site_fract_z
Si Si1 0.218534 0.830258 0.727188
Si Si2 0.693435 0.071463 0.865109
Si Si3 0.289429 0.543734 0.293818
Si Si4 0.000000 0.662744 0.750000
Si Si5 0.365449 0.249887 0.490802
Si Si6 0.500000 0.659775 0.750000
O O1 0.279168 0.896465 0.720820
O O2 0.000000 0.832993 0.750000
O O3 0.488542 0.890617 0.123193
O O4 0.290991 0.794737 0.868838
O O5 0.827093 0.119245 0.784559
O O6 0.694283 0.013270 0.768217
O O7 0.768358 0.053662 0.027980
O O8 0.500000 0.536286 0.250000
O O9 0.070061 0.711934 0.631715
O O10 0.471610 0.298467 0.392719
O O11 0.230400 0.294300 0.578821
#
# Coordination Sequence:
#
# PCOD9458528 Si02
#       6
#     8   8   8   4   8   4
#     4  11  25  46  76 110 153 203 256 322 391 471
#     4  12  27  48  73 111 150 204 259 326 389 464
#     4  11  24  47  76 109 148 203 264 321 379 466
#     4  12  28  50  72 108 162 198 258 332 394 472
#     4  12  27  47  76 114 152 205 253 326 397 471
#     4  12  28  46  82 112 148 202 260 318 400 468
#
# _framework density 26.500171000000002
#
# number of rings (size 3 to 8) (size 9 to 14) (size 15 to 20)
#    0.000    0.400    4.000    4.200    5.600    0.800 
#    0.000    0.000    0.000    0.000    0.000    0.000 
#    0.000    0.000    0.000    0.000    0.000    0.000 
#
# Total GULP energy -223339.923593 kJ/mol
# GULP energy per Si atom -5583.498090 kJ/mol
# Density = 2.643986 g / cm^3
# Si number density = 26.500171 Si / 1000 Ang^3
#
#
#
# Elastic Constant Matrix: (Units=GPa)
#
#
# Indices 1 2 3 4 5 6 
#
# 1 84.4493 58.9746 59.5856 0.0000 0.0000 0.0000
# 2 58.9746 309.5816 75.8556 0.0000 0.0000 0.0000
# 3 59.5856 75.8556 96.3025 0.0000 0.0000 0.0000
# 4 0.0000 0.0000 0.0000 53.6945 0.0000 0.0000
# 5 0.0000 0.0000 0.0000 0.0000 37.8498 0.0000
# 6 0.0000 0.0000 0.0000 0.0000 0.0000 38.0018
#
#
#
# Elastic Compliance Matrix: (Units=1/GPa)
#
#
# Indices 1 2 3 4 5 6 
#
# 1 0.021276 -0.001025 -0.012357 0.000000 0.000000 0.000000
# 2 -0.001025 0.004052 -0.002557 0.000000 0.000000 0.000000
# 3 -0.012357 -0.002557 0.020044 0.000000 0.000000 0.000000
# 4 0.000000 0.000000 0.000000 0.018624 0.000000 0.000000
# 5 0.000000 0.000000 0.000000 0.000000 0.026420 0.000000
# 6 0.000000 0.000000 0.000000 0.000000 0.000000 0.026315
#
#
# Mechanical properties :
#
#
# Convention : Reuss Voigt Hill
#
# Bulk Modulus (GPa) = 74.11050 97.68500 85.89775
# Shear Modulus (GPa) = 32.65696 45.63705 39.14701
#
# Velocity S-wave (km/s) = 3.51426 4.15437 3.84765
# Velocity P-wave (km/s) = 6.67034 7.74298 7.22659
#
# Compressibility (1/GPa) = 0.01349336
#
# Stress axis : x y z
#
# Youngs Moduli (GPa) = 47.00137 246.78488 49.89090
#
# Poissons Ratio (x) = 0.25304 0.61648
# Poissons Ratio (y) = 0.04819 0.12759
# Poissons Ratio (z) = 0.58077 0.63112
#
# Static dielectric constant tensor:
#      x y z
#    x 28.204280 0.000000 0.000000 
#    y 0.000000 1.971420 0.000000 
#    z 0.000000 0.000000 2.201230 
# 
# From -- ./inp_files/4035.got.cif
#   From: 2010.05.17/outbox.cif.g08.bks.cpg/sg60_3_cif.got.tgz:4035.got - 2010.06.03 14:59:27.
