data_PCOD9458233
_publ_section_title
;
Structure prediction by ZEFSAII (Michael W. Deem and Ramdas Pophale) SiO2 
 PCOD9458233
Probable space group: P B C N
;
_chemical_formula_sum "Si O2"
_cell_formula_units_Z 56
_cell_length_a 5.526142
_cell_length_b 14.061795
_cell_length_c 32.285480
_cell_angle_alpha 90.000000
_cell_angle_beta 90.000000
_cell_angle_gamma 90.000000
_cell_volume 2508.823160
_symmetry_space_group_name_H-M "P B C N"
_symmetry_group_IT_number 60
_symmetry_cell_setting 'orthorhombic'
loop_
_space_group_symop_operation_xyz
x,y,z
1/2-x,1/2-y,1/2+z
1/2+x,1/2-y,-z
-x,y,1/2-z
-x,-y,-z
1/2+x,1/2+y,1/2-z
1/2-x,1/2+y,z
x,-y,1/2+z
loop_
_atom_site_type_symbol
_atom_site_label
_atom_site_fract_x
_atom_site_fract_y
_atom_site_fract_z
Si Si1 0.392534 0.882344 0.007861
Si Si2 0.131870 0.846224 0.881311
Si Si3 0.457616 0.692474 0.293976
Si Si4 0.256276 0.798147 0.557264
Si Si5 0.042258 0.813996 0.205287
Si Si6 0.429066 0.339544 0.386010
Si Si7 0.286041 0.991714 0.937117
O O1 0.348069 0.778357 0.025072
O O2 0.494104 0.944885 0.045027
O O3 0.587779 0.864923 0.971793
O O4 0.199139 0.937336 0.979281
O O5 0.045462 0.869008 0.835442
O O6 0.202749 0.734301 0.882070
O O7 0.926155 0.857173 0.915162
O O8 0.334228 0.916160 0.899985
O O9 0.500000 0.642435 0.250000
O O10 0.689283 0.765276 0.296242
O O11 0.187679 0.739929 0.293626
O O12 0.388385 0.729537 0.590143
O O13 0.000000 0.864578 0.250000
O O14 0.008762 0.864465 0.160789
O O15 0.381003 0.429244 0.415073
#
# Coordination Sequence:
#
# PCOD9458233 Si02
#       7
#     8   8   8   8   8   8   8
#     4  11  24  38  62  87 122 165 220 260 324 375
#     4  11  22  41  62  89 123 164 208 259 321 380
#     4   9  18  35  63  94 125 166 211 256 317 390
#     4  12  22  42  64  82 122 166 212 256 326 372
#     4   9  18  35  63  94 125 166 211 256 317 390
#     4  11  22  41  62  89 123 164 208 259 321 380
#     4  11  24  41  59  92 120 164 213 268 316 383
#
# _framework density 22.321221000000001
#
# number of rings (size 3 to 8) (size 9 to 14) (size 15 to 20)
#    0.000    1.429    4.286    1.714    0.000    3.429 
#    0.000    0.714    0.000    0.000    0.000   13.000 
#    0.000    0.000    0.000    0.000    0.000    0.000 
#
# Total GULP energy -311800.574229 kJ/mol
# GULP energy per Si atom -5567.867397 kJ/mol
# Density = 2.227042 g / cm^3
# Si number density = 22.321221 Si / 1000 Ang^3
#
#
#
# Elastic Constant Matrix: (Units=GPa)
#
#
# Indices 1 2 3 4 5 6 
#
# 1 59.8923 4.3666 37.8438 0.0000 0.0000 0.0000
# 2 4.3666 58.2202 46.1038 0.0000 0.0000 0.0000
# 3 37.8438 46.1038 164.3233 0.0000 0.0000 0.0000
# 4 0.0000 0.0000 0.0000 -11.6929 0.0000 0.0000
# 5 0.0000 0.0000 0.0000 0.0000 41.2028 0.0000
# 6 0.0000 0.0000 0.0000 0.0000 0.0000 13.4824
#
#
#
# Elastic Compliance Matrix: (Units=1/GPa)
#
#
# Indices 1 2 3 4 5 6 
#
# 1 0.019875 0.002744 -0.005347 0.000000 0.000000 0.000000
# 2 0.002744 0.022461 -0.006934 0.000000 0.000000 0.000000
# 3 -0.005347 -0.006934 0.009262 0.000000 0.000000 0.000000
# 4 0.000000 0.000000 0.000000 -0.085522 0.000000 0.000000
# 5 0.000000 0.000000 0.000000 0.000000 0.024270 0.000000
# 6 0.000000 0.000000 0.000000 0.000000 0.000000 0.074171
#
#
# Mechanical properties :
#
#
# Convention : Reuss Voigt Hill
#
# Bulk Modulus (GPa) = 30.74621 51.00712 40.87667
# Shear Modulus (GPa) = 52.94712 21.53988 37.24350
#
# Velocity S-wave (km/s) = 4.87566 3.10981 4.08919
# Velocity P-wave (km/s) = 6.74540 5.98294 6.37558
#
# Compressibility (1/GPa) = 0.03252433
#
# Stress axis : x y z
#
# Youngs Moduli (GPa) = 50.31393 44.52143 107.96387
#
# Poissons Ratio (x) = -0.12215 0.57729
# Poissons Ratio (y) = -0.13804 0.74859
# Poissons Ratio (z) = 0.26903 0.30870
#
# Static dielectric constant tensor:
#      x y z
#    x 1.941540 0.000000 0.000000 
#    y 0.000000 1.875550 0.000000 
#    z 0.000000 0.000000 1.866350 
# 
# From -- ./inp_files/25711.got.cif
#   From: 2010.05.17/outbox.cif.g08.bks.cpg/sg60_13_cif.got.tgz:25711.got - 2010.06.03 14:59:27.
