data_PCOD9458422
_publ_section_title
;
Structure prediction by ZEFSAII (Michael W. Deem and Ramdas Pophale) SiO2 
 PCOD9458422
Probable space group: P B C N
;
_chemical_formula_sum "Si O2"
_cell_formula_units_Z 32
_cell_length_a 5.284986
_cell_length_b 30.325007
_cell_length_c 8.929739
_cell_angle_alpha 90.000000
_cell_angle_beta 90.000000
_cell_angle_gamma 90.000000
_cell_volume 1431.144601
_symmetry_space_group_name_H-M "P B C N"
_symmetry_group_IT_number 60
_symmetry_cell_setting 'orthorhombic'
loop_
_space_group_symop_operation_xyz
x,y,z
1/2-x,1/2-y,1/2+z
1/2+x,1/2-y,-z
-x,y,1/2-z
-x,-y,-z
1/2+x,1/2+y,1/2-z
1/2-x,1/2+y,z
x,-y,1/2+z
loop_
_atom_site_type_symbol
_atom_site_label
_atom_site_fract_x
_atom_site_fract_y
_atom_site_fract_z
Si Si1 0.585459 0.234827 0.419616
Si Si2 0.756005 0.636143 0.351839
Si Si3 0.438723 0.429178 0.409484
Si Si4 0.181286 0.521779 0.384497
O O1 0.325437 0.237650 0.516418
O O2 0.500000 0.247034 0.250000
O O3 0.697090 0.185305 0.413557
O O4 0.500000 0.634996 0.250000
O O5 0.737930 0.601721 0.489143
O O6 0.000000 0.627618 0.250000
O O7 0.500000 0.406620 0.250000
O O8 0.339518 0.477184 0.356782
O O9 0.656721 0.441691 0.530101
O O10 0.000000 0.535447 0.250000
O O11 0.000000 0.500000 0.500000
#
# Coordination Sequence:
#
# PCOD9458422 Si02
#       4
#     8   8   8   8
#     4  11  23  47  77 110 146 188 238 292 359 438
#     4  11  27  47  73 108 148 192 239 296 366 438
#     4  11  26  44  68 105 138 185 250 300 359 429
#     4  11  24  43  68  97 142 190 242 305 364 422
#
# _framework density 22.359726999999999
#
# number of rings (size 3 to 8) (size 9 to 14) (size 15 to 20)
#    0.000    1.000    2.500    3.750    7.000    1.000 
#    0.000    7.500    0.000    0.000    0.000    0.000 
#    0.000    0.000    0.000    0.000    0.000    0.000 
#
# Total GULP energy -178469.139564 kJ/mol
# GULP energy per Si atom -5577.160611 kJ/mol
# Density = 2.230884 g / cm^3
# Si number density = 22.359727 Si / 1000 Ang^3
#
#
#
# Elastic Constant Matrix: (Units=GPa)
#
#
# Indices 1 2 3 4 5 6 
#
# 1 156.0444 44.8057 71.1216 0.0000 0.0000 0.0000
# 2 44.8057 85.1520 69.3918 0.0000 0.0000 0.0000
# 3 71.1216 69.3918 124.2364 0.0000 0.0000 0.0000
# 4 0.0000 0.0000 0.0000 71.4540 0.0000 0.0000
# 5 0.0000 0.0000 0.0000 0.0000 53.1365 0.0000
# 6 0.0000 0.0000 0.0000 0.0000 0.0000 33.5501
#
#
#
# Elastic Compliance Matrix: (Units=1/GPa)
#
#
# Indices 1 2 3 4 5 6 
#
# 1 0.008713 -0.000954 -0.004455 0.000000 0.000000 0.000000
# 2 -0.000954 0.021659 -0.011551 0.000000 0.000000 0.000000
# 3 -0.004455 -0.011551 0.017051 0.000000 0.000000 0.000000
# 4 0.000000 0.000000 0.000000 0.013995 0.000000 0.000000
# 5 0.000000 0.000000 0.000000 0.000000 0.018819 0.000000
# 6 0.000000 0.000000 0.000000 0.000000 0.000000 0.029806
#
#
# Mechanical properties :
#
#
# Convention : Reuss Voigt Hill
#
# Bulk Modulus (GPa) = 74.06025 81.78567 77.92296
# Shear Modulus (GPa) = 33.67768 43.63568 38.65668
#
# Velocity S-wave (km/s) = 3.88516 4.42241 4.16246
# Velocity P-wave (km/s) = 7.30206 7.92045 7.61753
#
# Compressibility (1/GPa) = 0.01350252
#
# Stress axis : x y z
#
# Youngs Moduli (GPa) = 114.77300 46.16953 58.64593
#
# Poissons Ratio (x) = 0.04406 0.26126
# Poissons Ratio (y) = 0.10952 0.67745
# Poissons Ratio (z) = 0.51130 0.53333
#
# Static dielectric constant tensor:
#      x y z
#    x 1.841770 0.000000 0.000000 
#    y 0.000000 1.826130 0.000000 
#    z 0.000000 0.000000 1.808830 
# 
# From -- ./inp_files/3112.got.cif
#   From: 2010.05.17/outbox.cif.g08.bks.cpg/sg60_2_cif.got.tgz:3112.got - 2010.06.03 14:59:27.
