data_PCOD9458792
_publ_section_title
;
Structure prediction by ZEFSAII (Michael W. Deem and Ramdas Pophale) SiO2 
 PCOD9458792
Probable space group: P B C N
;
_chemical_formula_sum "Si O2"
_cell_formula_units_Z 20
_cell_length_a 4.711449
_cell_length_b 11.803127
_cell_length_c 12.684911
_cell_angle_alpha 90.000000
_cell_angle_beta 90.000000
_cell_angle_gamma 90.000000
_cell_volume 705.405756
_symmetry_space_group_name_H-M "P B C N"
_symmetry_group_IT_number 60
_symmetry_cell_setting 'orthorhombic'
loop_
_space_group_symop_operation_xyz
x,y,z
1/2-x,1/2-y,1/2+z
1/2+x,1/2-y,-z
-x,y,1/2-z
-x,-y,-z
1/2+x,1/2+y,1/2-z
1/2-x,1/2+y,z
x,-y,1/2+z
loop_
_atom_site_type_symbol
_atom_site_label
_atom_site_fract_x
_atom_site_fract_y
_atom_site_fract_z
Si Si1 0.818090 0.426221 0.083667
Si Si2 0.158468 0.221091 0.643206
Si Si3 0.000000 0.916265 0.750000
O O1 0.571674 0.329478 0.057563
O O2 0.675011 0.513710 0.163713
O O3 0.063909 0.351989 0.132294
O O4 0.000000 0.500000 0.000000
O O5 0.281137 0.344194 0.676443
O O6 0.000000 0.190161 0.750000
#
# Coordination Sequence:
#
# PCOD9458792 Si02
#       3
#     8   8   4
#     4  12  28  52  85 127 170 219 296 358 422 534
#     4  12  25  50  80 119 164 228 287 330 445 519
#     4  12  26  50  94 114 178 242 264 372 444 494
#
# _framework density 28.352477
#
# number of rings (size 3 to 8) (size 9 to 14) (size 15 to 20)
#    0.000    0.000    6.000    1.200    5.600    0.000 
#    7.200    0.000    8.800    0.000    0.000    0.000 
#    0.000    0.000    0.000    0.000    0.000    0.000 
#
# Total GULP energy -111829.026713 kJ/mol
# GULP energy per Si atom -5591.451336 kJ/mol
# Density = 2.828795 g / cm^3
# Si number density = 28.352477 Si / 1000 Ang^3
#
#
#
# Elastic Constant Matrix: (Units=GPa)
#
#
# Indices 1 2 3 4 5 6 
#
# 1 280.9484 115.6971 64.1391 0.0000 0.0000 0.0000
# 2 115.6971 176.1407 84.7107 0.0000 0.0000 0.0000
# 3 64.1391 84.7107 131.0526 0.0000 0.0000 0.0000
# 4 0.0000 0.0000 0.0000 37.0141 0.0000 0.0000
# 5 0.0000 0.0000 0.0000 0.0000 63.8997 0.0000
# 6 0.0000 0.0000 0.0000 0.0000 0.0000 76.0496
#
#
#
# Elastic Compliance Matrix: (Units=1/GPa)
#
#
# Indices 1 2 3 4 5 6 
#
# 1 0.004898 -0.002996 -0.000461 0.000000 0.000000 0.000000
# 2 -0.002996 0.010070 -0.005043 0.000000 0.000000 0.000000
# 3 -0.000461 -0.005043 0.011116 0.000000 0.000000 0.000000
# 4 0.000000 0.000000 0.000000 0.027017 0.000000 0.000000
# 5 0.000000 0.000000 0.000000 0.000000 0.015650 0.000000
# 6 0.000000 0.000000 0.000000 0.000000 0.000000 0.013149
#
#
# Mechanical properties :
#
#
# Convention : Reuss Voigt Hill
#
# Bulk Modulus (GPa) = 110.07213 124.13730 117.10472
# Shear Modulus (GPa) = 49.05408 56.96567 53.00987
#
# Velocity S-wave (km/s) = 4.16402 4.48727 4.32866
# Velocity P-wave (km/s) = 7.87565 8.40988 8.14714
#
# Compressibility (1/GPa) = 0.00908495
#
# Stress axis : x y z
#
# Youngs Moduli (GPa) = 204.15384 99.30039 89.96072
#
# Poissons Ratio (x) = 0.29748 0.04146
# Poissons Ratio (y) = 0.61160 0.45369
# Poissons Ratio (z) = 0.09409 0.50080
#
# Static dielectric constant tensor:
#      x y z
#    x 2.258290 0.000000 0.000000 
#    y 0.000000 2.324380 0.000000 
#    z 0.000000 0.000000 2.420750 
# 
# From -- ./inp_files/13447.got.cif
#   From: 2010.05.17/outbox.cif.g08.bks.cpg/sg60_7_cif.got.tgz:13447.got - 2010.06.03 14:59:27.
