data_PCOD9458246
_publ_section_title
;
Structure prediction by ZEFSAII (Michael W. Deem and Ramdas Pophale) SiO2 
 PCOD9458246
Probable space group: P B C N
;
_chemical_formula_sum "Si O2"
_cell_formula_units_Z 40
_cell_length_a 11.953385
_cell_length_b 8.359667
_cell_length_c 17.105549
_cell_angle_alpha 90.000000
_cell_angle_beta 90.000000
_cell_angle_gamma 90.000000
_cell_volume 1709.294531
_symmetry_space_group_name_H-M "P B C N"
_symmetry_group_IT_number 60
_symmetry_cell_setting 'orthorhombic'
loop_
_space_group_symop_operation_xyz
x,y,z
1/2-x,1/2-y,1/2+z
1/2+x,1/2-y,-z
-x,y,1/2-z
-x,-y,-z
1/2+x,1/2+y,1/2-z
1/2-x,1/2+y,z
x,-y,1/2+z
loop_
_atom_site_type_symbol
_atom_site_label
_atom_site_fract_x
_atom_site_fract_y
_atom_site_fract_z
Si Si1 0.125113 0.263907 0.210535
Si Si2 0.741524 0.038752 0.392255
Si Si3 0.868059 0.104109 0.548112
Si Si4 0.301190 0.300981 0.873738
Si Si5 0.059535 0.670573 0.007787
O O1 0.159038 0.105747 0.161986
O O2 0.168952 0.403578 0.152223
O O3 0.204561 0.256115 0.285878
O O4 0.000000 0.273771 0.250000
O O5 0.800686 0.019628 0.476952
O O6 0.646325 0.165635 0.419946
O O7 0.813342 0.268309 0.581097
O O8 0.983531 0.173401 0.517775
O O9 0.853205 0.976628 0.617194
O O10 0.382588 0.189657 0.924032
O O11 0.000000 0.500000 0.000000
#
# Coordination Sequence:
#
# PCOD9458246 Si02
#       5
#     8   8   8   8   8
#     4  12  26  45  66  98 144 187 231 299 369 433
#     4  11  24  43  69 101 139 186 239 293 362 440
#     4  11  22  42  67  97 131 178 241 298 354 430
#     4  11  23  39  63  92 129 176 230 289 352 431
#     4  11  22  41  70 100 134 183 241 305 367 432
#
# _framework density 23.401467
#
# number of rings (size 3 to 8) (size 9 to 14) (size 15 to 20)
#    0.000    0.800    0.000   10.200    0.000    3.200 
#    0.000    1.000    0.000    0.000    0.000    0.000 
#    0.000    0.000    0.000    0.000    0.000    0.000 
#
# Total GULP energy -223111.156434 kJ/mol
# GULP energy per Si atom -5577.778911 kJ/mol
# Density = 2.334820 g / cm^3
# Si number density = 23.401467 Si / 1000 Ang^3
#
#
#
# Elastic Constant Matrix: (Units=GPa)
#
#
# Indices 1 2 3 4 5 6 
#
# 1 72.2420 19.3499 16.5813 0.0000 0.0000 0.0000
# 2 19.3499 77.7401 -2.3372 0.0000 0.0000 0.0000
# 3 16.5813 -2.3372 101.3416 0.0000 0.0000 0.0000
# 4 0.0000 0.0000 0.0000 46.6570 0.0000 0.0000
# 5 0.0000 0.0000 0.0000 0.0000 30.3896 0.0000
# 6 0.0000 0.0000 0.0000 0.0000 0.0000 40.8312
#
#
#
# Elastic Compliance Matrix: (Units=1/GPa)
#
#
# Indices 1 2 3 4 5 6 
#
# 1 0.015500 -0.003937 -0.002627 0.000000 0.000000 0.000000
# 2 -0.003937 0.013872 0.000964 0.000000 0.000000 0.000000
# 3 -0.002627 0.000964 0.010320 0.000000 0.000000 0.000000
# 4 0.000000 0.000000 0.000000 0.021433 0.000000 0.000000
# 5 0.000000 0.000000 0.000000 0.000000 0.032906 0.000000
# 6 0.000000 0.000000 0.000000 0.000000 0.000000 0.024491
#
#
# Mechanical properties :
#
#
# Convention : Reuss Voigt Hill
#
# Bulk Modulus (GPa) = 35.09721 35.39022 35.24371
# Shear Modulus (GPa) = 35.91472 38.09087 37.00279
#
# Velocity S-wave (km/s) = 3.92180 4.03887 3.98077
# Velocity P-wave (km/s) = 5.96136 6.07502 6.01846
#
# Compressibility (1/GPa) = 0.02849230
#
# Stress axis : x y z
#
# Youngs Moduli (GPa) = 64.51697 72.08621 96.90250
#
# Poissons Ratio (x) = 0.28380 0.25455
# Poissons Ratio (y) = 0.25400 -0.09342
# Poissons Ratio (z) = 0.16948 -0.06950
#
# Static dielectric constant tensor:
#      x y z
#    x 2.028320 0.000000 0.000000 
#    y 0.000000 1.952260 0.000000 
#    z 0.000000 0.000000 1.853860 
# 
# From -- ./inp_files/19821.got.cif
#   From: 2010.05.17/outbox.cif.g08.bks.cpg/sg60_10_cif.got.tgz:19821.got - 2010.06.03 14:59:27.
