data_PCOD9458033
_publ_section_title
;
Structure prediction by ZEFSAII (Michael W. Deem and Ramdas Pophale) SiO2 
 PCOD9458033
Probable space group: P B C N
;
_chemical_formula_sum "Si O2"
_cell_formula_units_Z 64
_cell_length_a 19.434407
_cell_length_b 19.603052
_cell_length_c 8.341801
_cell_angle_alpha 90.000000
_cell_angle_beta 90.000000
_cell_angle_gamma 90.000000
_cell_volume 3178.006717
_symmetry_space_group_name_H-M "P B C N"
_symmetry_group_IT_number 60
_symmetry_cell_setting 'orthorhombic'
loop_
_space_group_symop_operation_xyz
x,y,z
1/2-x,1/2-y,1/2+z
1/2+x,1/2-y,-z
-x,y,1/2-z
-x,-y,-z
1/2+x,1/2+y,1/2-z
1/2-x,1/2+y,z
x,-y,1/2+z
loop_
_atom_site_type_symbol
_atom_site_label
_atom_site_fract_x
_atom_site_fract_y
_atom_site_fract_z
Si Si1 0.218484 0.841130 0.324613
Si Si2 0.052093 0.598733 0.866681
Si Si3 0.446520 0.846573 0.878937
Si Si4 0.194480 0.459310 0.468689
Si Si5 0.072397 0.749648 0.837839
Si Si6 0.927089 0.200874 0.789467
Si Si7 0.202308 0.403465 0.828988
Si Si8 0.790499 0.213422 0.313119
O O1 0.259694 0.910946 0.353736
O O2 0.140632 0.841449 0.256482
O O3 0.216999 0.808973 0.503684
O O4 0.259068 0.788157 0.212782
O O5 0.113102 0.550587 0.926999
O O6 0.091052 0.669066 0.819556
O O7 0.000000 0.558991 0.750000
O O8 0.992241 0.638042 0.967868
O O9 0.500000 0.875529 0.750000
O O10 0.430769 0.768944 0.823761
O O11 0.373682 0.881512 0.879891
O O12 0.199898 0.435591 0.651218
O O13 0.221550 0.535793 0.447091
O O14 0.131120 0.788412 0.741357
O O15 0.000000 0.762089 0.750000
O O16 0.074625 0.772266 0.025535
O O17 0.000000 0.165384 0.750000
O O18 0.249143 0.337635 0.804134
#
# Coordination Sequence:
#
# PCOD9458033 Si02
#       8
#     8   8   8   8   8   8   8   8
#     4  11  23  38  63  89 121 158 205 256 307 364
#     4  11  23  36  57  89 123 162 206 247 290 364
#     4  11  20  37  58  84 125 163 202 245 297 352
#     4  11  25  43  57  86 122 164 209 249 297 363
#     4  11  21  36  59  91 124 151 199 252 304 364
#     4  11  20  36  61  89 121 156 195 250 312 359
#     4  11  25  41  60  83 122 166 206 249 300 358
#     4  11  23  38  61  90 120 158 204 257 307 360
#
# _framework density 20.138408999999999
#
# number of rings (size 3 to 8) (size 9 to 14) (size 15 to 20)
#    0.000    1.000    6.250    1.500    3.500    3.000 
#    0.000    0.000    0.000    0.750    0.000    5.250 
#    0.000    0.000    0.000    0.000    0.000    0.000 
#
# Total GULP energy -356996.156966 kJ/mol
# GULP energy per Si atom -5578.064953 kJ/mol
# Density = 2.009257 g / cm^3
# Si number density = 20.138409 Si / 1000 Ang^3
#
#
#
# Elastic Constant Matrix: (Units=GPa)
#
#
# Indices 1 2 3 4 5 6 
#
# 1 101.6591 4.5632 3.4800 0.0000 0.0000 0.0000
# 2 4.5632 25.8764 -10.6559 0.0000 0.0000 0.0000
# 3 3.4800 -10.6559 32.0812 0.0000 0.0000 0.0000
# 4 0.0000 0.0000 0.0000 24.6667 0.0000 0.0000
# 5 0.0000 0.0000 0.0000 0.0000 33.6864 0.0000
# 6 0.0000 0.0000 0.0000 0.0000 0.0000 14.4222
#
#
#
# Elastic Compliance Matrix: (Units=1/GPa)
#
#
# Indices 1 2 3 4 5 6 
#
# 1 0.010018 -0.002565 -0.001939 0.000000 0.000000 0.000000
# 2 -0.002565 0.045426 0.015366 0.000000 0.000000 0.000000
# 3 -0.001939 0.015366 0.036485 0.000000 0.000000 0.000000
# 4 0.000000 0.000000 0.000000 0.040541 0.000000 0.000000
# 5 0.000000 0.000000 0.000000 0.000000 0.029686 0.000000
# 6 0.000000 0.000000 0.000000 0.000000 0.000000 0.069338
#
#
# Mechanical properties :
#
#
# Convention : Reuss Voigt Hill
#
# Bulk Modulus (GPa) = 8.79860 17.15460 12.97660
# Shear Modulus (GPa) = 20.18959 25.37033 22.77996
#
# Velocity S-wave (km/s) = 3.16973 3.55321 3.36694
# Velocity P-wave (km/s) = 4.21602 5.03693 4.64464
#
# Compressibility (1/GPa) = 0.11365447
#
# Stress axis : x y z
#
# Youngs Moduli (GPa) = 99.81727 22.01403 27.40836
#
# Poissons Ratio (x) = 0.05647 0.05314
# Poissons Ratio (y) = 0.25604 -0.42117
# Poissons Ratio (z) = 0.19352 -0.33828
#
# Static dielectric constant tensor:
#      x y z
#    x 1.734410 0.000000 0.000000 
#    y 0.000000 1.718710 0.000000 
#    z 0.000000 0.000000 1.817100 
# 
# From -- ./inp_files/7047.got.cif
#   From: 2010.05.17/outbox.cif.g08.bks.cpg/sg60_4_cif.got.tgz:7047.got - 2010.06.03 14:59:27.
