data_PCOD9458663
_publ_section_title
;
Structure prediction by ZEFSAII (Michael W. Deem and Ramdas Pophale) SiO2 
 PCOD9458663
Probable space group: P B C N
;
_chemical_formula_sum "Si O2"
_cell_formula_units_Z 40
_cell_length_a 13.229293
_cell_length_b 17.730158
_cell_length_c 8.097601
_cell_angle_alpha 90.000000
_cell_angle_beta 90.000000
_cell_angle_gamma 90.000000
_cell_volume 1899.352683
_symmetry_space_group_name_H-M "P B C N"
_symmetry_group_IT_number 60
_symmetry_cell_setting 'orthorhombic'
loop_
_space_group_symop_operation_xyz
x,y,z
1/2-x,1/2-y,1/2+z
1/2+x,1/2-y,-z
-x,y,1/2-z
-x,-y,-z
1/2+x,1/2+y,1/2-z
1/2-x,1/2+y,z
x,-y,1/2+z
loop_
_atom_site_type_symbol
_atom_site_label
_atom_site_fract_x
_atom_site_fract_y
_atom_site_fract_z
Si Si1 0.662647 0.804798 0.191673
Si Si2 0.841166 0.831837 0.935426
Si Si3 0.807286 0.888014 0.386142
Si Si4 0.463887 0.745320 0.575926
Si Si5 0.878977 0.032433 0.223147
O O1 0.665820 0.723763 0.278635
O O2 0.692632 0.864800 0.335261
O O3 0.754006 0.813629 0.063355
O O4 0.564853 0.802585 0.071882
O O5 0.834533 0.915866 0.868451
O O6 0.948464 0.810329 0.013686
O O7 0.869192 0.809744 0.389990
O O8 0.835597 0.930675 0.555998
O O9 0.848045 0.946135 0.248754
O O10 0.500000 0.779889 0.750000
O O11 0.000000 0.038168 0.250000
#
# Coordination Sequence:
#
# PCOD9458663 Si02
#       5
#     8   8   8   8   8
#     4  12  23  40  61  94 135 172 220 269 314 399
#     4  12  21  40  63  93 134 168 219 265 325 387
#     4  12  24  39  60  97 139 169 211 259 328 405
#     4  12  23  40  63  94 131 173 218 269 327 384
#     4  12  23  38  62  97 135 175 209 261 341 409
#
# _framework density 21.059805999999998
#
# number of rings (size 3 to 8) (size 9 to 14) (size 15 to 20)
#    0.000    0.000    8.000    3.000    0.000    0.000 
#    0.000    0.000    0.000    0.000    0.000   57.400 
#    0.000    0.000    0.000    0.000    0.000    0.000 
#
# Total GULP energy -223386.815046 kJ/mol
# GULP energy per Si atom -5584.670376 kJ/mol
# Density = 2.101187 g / cm^3
# Si number density = 21.059806 Si / 1000 Ang^3
#
#
#
# Elastic Constant Matrix: (Units=GPa)
#
#
# Indices 1 2 3 4 5 6 
#
# 1 33.0755 18.0388 17.7461 0.0000 0.0000 0.0000
# 2 18.0388 62.7788 31.2039 0.0000 0.0000 0.0000
# 3 17.7461 31.2039 118.5119 0.0000 0.0000 0.0000
# 4 0.0000 0.0000 0.0000 32.6510 0.0000 0.0000
# 5 0.0000 0.0000 0.0000 0.0000 52.3545 0.0000
# 6 0.0000 0.0000 0.0000 0.0000 0.0000 25.0941
#
#
#
# Elastic Compliance Matrix: (Units=1/GPa)
#
#
# Indices 1 2 3 4 5 6 
#
# 1 0.036841 -0.009025 -0.003140 0.000000 0.000000 0.000000
# 2 -0.009025 0.020538 -0.004056 0.000000 0.000000 0.000000
# 3 -0.003140 -0.004056 0.009976 0.000000 0.000000 0.000000
# 4 0.000000 0.000000 0.000000 0.030627 0.000000 0.000000
# 5 0.000000 0.000000 0.000000 0.000000 0.019101 0.000000
# 6 0.000000 0.000000 0.000000 0.000000 0.000000 0.039850
#
#
# Mechanical properties :
#
#
# Convention : Reuss Voigt Hill
#
# Bulk Modulus (GPa) = 28.64324 38.70486 33.67405
# Shear Modulus (GPa) = 24.87399 31.84509 28.35954
#
# Velocity S-wave (km/s) = 3.44046 3.89283 3.67361
# Velocity P-wave (km/s) = 5.42336 6.21481 5.83252
#
# Compressibility (1/GPa) = 0.03491225
#
# Stress axis : x y z
#
# Youngs Moduli (GPa) = 27.14385 48.68952 100.23831
#
# Poissons Ratio (x) = 0.43942 0.31478
# Poissons Ratio (y) = 0.24497 0.40660
# Poissons Ratio (z) = 0.08524 0.19750
#
# Static dielectric constant tensor:
#      x y z
#    x 1.793970 0.000000 0.000000 
#    y 0.000000 1.711220 0.000000 
#    z 0.000000 0.000000 1.895530 
# 
# From -- ./inp_files/4782.got.cif
#   From: 2010.05.17/outbox.cif.g08.bks.cpg/sg60_3_cif.got.tgz:4782.got - 2010.06.03 14:59:27.
