data_PCOD9458020
_publ_section_title
;
Structure prediction by ZEFSAII (Michael W. Deem and Ramdas Pophale) SiO2 
 PCOD9458020
Probable space group: P B C N
;
_chemical_formula_sum "Si O2"
_cell_formula_units_Z 40
_cell_length_a 7.112075
_cell_length_b 24.827909
_cell_length_c 10.836162
_cell_angle_alpha 90.000000
_cell_angle_beta 90.000000
_cell_angle_gamma 90.000000
_cell_volume 1913.427282
_symmetry_space_group_name_H-M "P B C N"
_symmetry_group_IT_number 60
_symmetry_cell_setting 'orthorhombic'
loop_
_space_group_symop_operation_xyz
x,y,z
1/2-x,1/2-y,1/2+z
1/2+x,1/2-y,-z
-x,y,1/2-z
-x,-y,-z
1/2+x,1/2+y,1/2-z
1/2-x,1/2+y,z
x,-y,1/2+z
loop_
_atom_site_type_symbol
_atom_site_label
_atom_site_fract_x
_atom_site_fract_y
_atom_site_fract_z
Si Si1 0.625097 0.513287 0.123631
Si Si2 0.734307 0.884586 0.494770
Si Si3 0.275781 0.405331 0.278389
Si Si4 0.385545 0.319057 0.459024
Si Si5 0.535133 0.797837 0.889590
O O1 0.500000 0.522335 0.250000
O O2 0.747193 0.565107 0.086695
O O3 0.753292 0.460811 0.149483
O O4 0.500000 0.500000 0.000000
O O5 0.684087 0.902989 0.355644
O O6 0.591804 0.838462 0.532815
O O7 0.942015 0.857743 0.492942
O O8 0.500000 0.407389 0.250000
O O9 0.260921 0.351208 0.358071
O O10 0.250257 0.305053 0.571657
O O11 0.470021 0.263545 0.409082
O O12 0.500000 0.812649 0.750000
#
# Coordination Sequence:
#
# PCOD9458020 Si02
#       5
#     8   8   8   8   8
#     4  11  19  36  69  99 129 179 225 267 333 389
#     4  11  23  43  68  98 135 175 218 278 328 391
#     4   9  19  39  68  96 128 174 223 263 329 406
#     4  11  23  44  67  93 132 172 215 271 338 395
#     4  12  27  43  65 101 129 169 226 273 326 406
#
# _framework density 20.904896999999998
#
# number of rings (size 3 to 8) (size 9 to 14) (size 15 to 20)
#    0.000    1.200    8.000    1.800    2.800    0.800 
#    0.000    1.000    0.000    0.000    0.000    0.000 
#    0.000    0.000    0.000    0.000    0.000    0.000 
#
# Total GULP energy -223393.429823 kJ/mol
# GULP energy per Si atom -5584.835746 kJ/mol
# Density = 2.085732 g / cm^3
# Si number density = 20.904897 Si / 1000 Ang^3
#
#
#
# Elastic Constant Matrix: (Units=GPa)
#
#
# Indices 1 2 3 4 5 6 
#
# 1 52.0274 19.5778 24.0643 0.0000 0.0000 0.0000
# 2 19.5778 154.5683 43.8945 0.0000 0.0000 0.0000
# 3 24.0643 43.8945 113.5688 0.0000 0.0000 0.0000
# 4 0.0000 0.0000 0.0000 34.5592 0.0000 0.0000
# 5 0.0000 0.0000 0.0000 0.0000 21.8996 0.0000
# 6 0.0000 0.0000 0.0000 0.0000 0.0000 19.5078
#
#
#
# Elastic Compliance Matrix: (Units=1/GPa)
#
#
# Indices 1 2 3 4 5 6 
#
# 1 0.021663 -0.001618 -0.003965 0.000000 0.000000 0.000000
# 2 -0.001618 0.007388 -0.002513 0.000000 0.000000 0.000000
# 3 -0.003965 -0.002513 0.010617 0.000000 0.000000 0.000000
# 4 0.000000 0.000000 0.000000 0.028936 0.000000 0.000000
# 5 0.000000 0.000000 0.000000 0.000000 0.045663 0.000000
# 6 0.000000 0.000000 0.000000 0.000000 0.000000 0.051262
#
#
# Mechanical properties :
#
#
# Convention : Reuss Voigt Hill
#
# Bulk Modulus (GPa) = 42.59511 55.02640 48.81075
# Shear Modulus (GPa) = 26.37893 30.70184 28.54039
#
# Velocity S-wave (km/s) = 3.55611 3.83645 3.69894
# Velocity P-wave (km/s) = 6.10583 6.78261 6.45310
#
# Compressibility (1/GPa) = 0.02347687
#
# Stress axis : x y z
#
# Youngs Moduli (GPa) = 46.16087 135.35241 94.19269
#
# Poissons Ratio (x) = 0.21899 0.37347
# Poissons Ratio (y) = 0.07469 0.23668
# Poissons Ratio (z) = 0.18303 0.34010
#
# Static dielectric constant tensor:
#      x y z
#    x 1.839370 0.000000 0.000000 
#    y 0.000000 1.754670 0.000000 
#    z 0.000000 0.000000 1.782590 
# 
# From -- ./inp_files/3981.got.cif
#   From: 2010.05.17/outbox.cif.g08.bks.cpg/sg60_2_cif.got.tgz:3981.got - 2010.06.03 14:59:27.
