data_PCOD9459014
_publ_section_title
;
Structure prediction by ZEFSAII (Michael W. Deem and Ramdas Pophale) SiO2 
 PCOD9459014
Probable space group: P B C A
;
_chemical_formula_sum "Si O2"
_cell_formula_units_Z 48
_cell_length_a 10.649875
_cell_length_b 9.153987
_cell_length_c 20.762260
_cell_angle_alpha 90.000000
_cell_angle_beta 90.000000
_cell_angle_gamma 90.000000
_cell_volume 2024.088172
_symmetry_space_group_name_H-M "P B C A"
_symmetry_group_IT_number 61
_symmetry_cell_setting 'orthorhombic'
loop_
_space_group_symop_operation_xyz
x,y,z
1/2-x,-y,1/2+z
1/2+x,1/2-y,-z
-x,1/2+y,1/2-z
-x,-y,-z
1/2+x,y,1/2-z
1/2-x,1/2+y,z
x,1/2-y,1/2+z
loop_
_atom_site_type_symbol
_atom_site_label
_atom_site_fract_x
_atom_site_fract_y
_atom_site_fract_z
Si Si1 0.322139 0.488397 0.766770
Si Si2 0.846198 0.584817 0.544465
Si Si3 0.187440 0.899850 0.628080
Si Si4 0.016528 0.068773 0.139906
Si Si5 0.808640 0.216295 0.664167
Si Si6 0.716234 0.157081 0.957272
O O1 0.360935 0.415306 0.700097
O O2 0.453248 0.523158 0.802323
O O3 0.227116 0.621826 0.772836
O O4 0.254332 0.373081 0.814660
O O5 0.967382 0.513883 0.576874
O O6 0.757765 0.647361 0.602096
O O7 0.861936 0.719288 0.495112
O O8 0.779508 0.450319 0.508711
O O9 0.336767 0.919063 0.640016
O O10 0.185298 0.751944 0.586210
O O11 0.144465 0.041073 0.587679
O O12 0.949668 0.228169 0.148676
#
# Coordination Sequence:
#
# PCOD9459014 Si02
#       6
#     8   8   8   8   8   8
#     4   9  19  37  59  85 122 151 196 255 300 348
#     4  10  17  40  60  86 114 165 198 238 307 342
#     4  11  22  42  57  94 119 164 197 245 317 351
#     4   9  21  37  68  80 118 162 203 237 301 374
#     4   9  17  36  63  85 110 160 196 249 289 357
#     4  10  22  33  64  79 129 159 187 257 288 359
#
# _framework density 23.714380999999999
#
# number of rings (size 3 to 8) (size 9 to 14) (size 15 to 20)
#    1.000    1.333    1.667    1.000    0.000    2.667 
#    9.000    0.833   11.000    0.000    0.000    0.000 
#    0.000    0.000    0.000    0.000    0.000    0.000 
#
# Total GULP energy -267446.096017 kJ/mol
# GULP energy per Si atom -5571.793667 kJ/mol
# Density = 2.366041 g / cm^3
# Si number density = 23.714381 Si / 1000 Ang^3
#
#
#
# Elastic Constant Matrix: (Units=GPa)
#
#
# Indices 1 2 3 4 5 6 
#
# 1 152.3496 253.1698 230.0832 0.0000 0.0000 0.0000
# 2 253.1698 715.9050 583.4961 0.0000 0.0000 0.0000
# 3 230.0832 583.4961 638.2989 0.0000 0.0000 0.0000
# 4 0.0000 0.0000 0.0000 -5.4029 0.0000 0.0000
# 5 0.0000 0.0000 0.0000 0.0000 11.2086 0.0000
# 6 0.0000 0.0000 0.0000 0.0000 0.0000 23.6189
#
#
#
# Elastic Compliance Matrix: (Units=1/GPa)
#
#
# Indices 1 2 3 4 5 6 
#
# 1 0.016847 -0.003955 -0.002458 0.000000 0.000000 0.000000
# 2 -0.003955 0.006408 -0.004432 0.000000 0.000000 0.000000
# 3 -0.002458 -0.004432 0.006504 0.000000 0.000000 0.000000
# 4 0.000000 0.000000 0.000000 -0.185085 0.000000 0.000000
# 5 0.000000 0.000000 0.000000 0.000000 0.089217 0.000000
# 6 0.000000 0.000000 0.000000 0.000000 0.000000 0.042339
#
#
# Mechanical properties :
#
#
# Convention : Reuss Voigt Hill
#
# Bulk Modulus (GPa) = 123.91158 404.45019 264.18089
# Shear Modulus (GPa) = 8217.91189 35.20522 4126.55856
#
# Velocity S-wave (km/s) = 58.93126 3.85717 41.75986
# Velocity P-wave (km/s) = 68.43164 13.81151 49.36420
#
# Compressibility (1/GPa) = 0.00807027
#
# Stress axis : x y z
#
# Youngs Moduli (GPa) = 59.35672 156.06539 153.75235
#
# Poissons Ratio (x) = 0.61719 0.37787
# Poissons Ratio (y) = 0.23474 0.68142
# Poissons Ratio (z) = 0.14588 0.69167
#
# Static dielectric constant tensor:
#      x y z
#    x 1.881960 0.000000 0.000000 
#    y 0.000000 1.926110 0.000000 
#    z 0.000000 0.000000 2.025160 
# 
# From -- ./inp_files/10976.got.cif
#   From: 2010.05.17/outbox.cif.g08.bks.cpg/sg61_6_cif.got.tgz:10976.got - 2010.06.03 15:17:17.
