data_PCOD9459297
_publ_section_title
;
Structure prediction by ZEFSAII (Michael W. Deem and Ramdas Pophale) SiO2 
 PCOD9459297
Probable space group: P B C A
;
_chemical_formula_sum "Si O2"
_cell_formula_units_Z 64
_cell_length_a 12.486248
_cell_length_b 13.151999
_cell_length_c 17.959214
_cell_angle_alpha 90.000000
_cell_angle_beta 90.000000
_cell_angle_gamma 90.000000
_cell_volume 2949.246341
_symmetry_space_group_name_H-M "P B C A"
_symmetry_group_IT_number 61
_symmetry_cell_setting 'orthorhombic'
loop_
_space_group_symop_operation_xyz
x,y,z
1/2-x,-y,1/2+z
1/2+x,1/2-y,-z
-x,1/2+y,1/2-z
-x,-y,-z
1/2+x,y,1/2-z
1/2-x,1/2+y,z
x,1/2-y,1/2+z
loop_
_atom_site_type_symbol
_atom_site_label
_atom_site_fract_x
_atom_site_fract_y
_atom_site_fract_z
Si Si1 0.662684 0.852466 0.699690
Si Si2 0.915116 0.944152 0.141914
Si Si3 0.639367 0.337810 0.588573
Si Si4 0.981041 0.751675 0.719939
Si Si5 0.756175 0.269362 0.958836
Si Si6 0.325931 0.607090 0.181095
Si Si7 0.279562 0.454743 0.453002
Si Si8 0.375373 0.434233 0.072360
O O1 0.752283 0.822803 0.639070
O O2 0.595402 0.764793 0.740423
O O3 0.724997 0.909105 0.765665
O O4 0.586389 0.937134 0.662996
O O5 0.947723 0.864981 0.206312
O O6 0.793725 0.922500 0.116540
O O7 0.996262 0.927982 0.072659
O O8 0.539879 0.300554 0.637846
O O9 0.665154 0.276453 0.513610
O O10 0.637882 0.457944 0.570189
O O11 0.904751 0.821844 0.770991
O O12 0.704246 0.326260 0.890039
O O13 0.828280 0.178159 0.929388
O O14 0.820299 0.354626 0.005872
O O15 0.359193 0.498310 0.148284
O O16 0.193452 0.509485 0.508577
#
# Coordination Sequence:
#
# PCOD9459297 Si02
#       8
#     8   8   8   8   8   8   8   8
#     4  10  22  39  56  87 120 154 202 246 296 350
#     4  11  20  36  61  85 114 158 198 239 296 355
#     4   9  20  39  61  84 117 155 195 251 293 351
#     4  11  21  39  58  86 119 155 201 242 296 357
#     4  10  19  38  60  87 114 156 196 236 303 350
#     4  10  22  38  58  85 122 155 197 255 294 351
#     4   9  19  36  61  85 116 149 197 246 291 350
#     4  10  20  35  61  85 116 152 197 245 297 351
#
# _framework density 21.700458999999999
#
# number of rings (size 3 to 8) (size 9 to 14) (size 15 to 20)
#    0.000    2.000    2.500    1.125    1.750    0.000 
#    2.250    0.000    2.750    3.000    0.000    0.000 
#    0.000    0.000    0.000    0.000    0.000    0.000 
#
# Total GULP energy -356944.217423 kJ/mol
# GULP energy per Si atom -5577.253397 kJ/mol
# Density = 2.165107 g / cm^3
# Si number density = 21.700459 Si / 1000 Ang^3
#
#
#
# Elastic Constant Matrix: (Units=GPa)
#
#
# Indices 1 2 3 4 5 6 
#
# 1 13.0642 5.5202 4.8897 0.0000 0.0000 0.0000
# 2 5.5202 104.9229 19.9781 0.0000 0.0000 0.0000
# 3 4.8897 19.9781 75.6766 0.0000 0.0000 0.0000
# 4 0.0000 0.0000 0.0000 23.2783 0.0000 0.0000
# 5 0.0000 0.0000 0.0000 0.0000 25.8824 0.0000
# 6 0.0000 0.0000 0.0000 0.0000 0.0000 25.9668
#
#
#
# Elastic Compliance Matrix: (Units=1/GPa)
#
#
# Indices 1 2 3 4 5 6 
#
# 1 0.079562 -0.003377 -0.004249 0.000000 0.000000 0.000000
# 2 -0.003377 0.010179 -0.002469 0.000000 0.000000 0.000000
# 3 -0.004249 -0.002469 0.014140 0.000000 0.000000 0.000000
# 4 0.000000 0.000000 0.000000 0.042958 0.000000 0.000000
# 5 0.000000 0.000000 0.000000 0.000000 0.038636 0.000000
# 6 0.000000 0.000000 0.000000 0.000000 0.000000 0.038511
#
#
# Mechanical properties :
#
#
# Convention : Reuss Voigt Hill
#
# Bulk Modulus (GPa) = 11.94868 28.27111 20.10989
# Shear Modulus (GPa) = 18.37734 25.91055 22.14394
#
# Velocity S-wave (km/s) = 2.91325 3.45919 3.19789
# Velocity P-wave (km/s) = 4.10295 5.38617 4.78775
#
# Compressibility (1/GPa) = 0.08369126
#
# Stress axis : x y z
#
# Youngs Moduli (GPa) = 12.56875 98.24570 70.71910
#
# Poissons Ratio (x) = 0.33176 0.30051
# Poissons Ratio (y) = 0.04244 0.17460
# Poissons Ratio (z) = 0.05341 0.24256
#
# Static dielectric constant tensor:
#      x y z
#    x 1.847650 0.000000 0.000000 
#    y 0.000000 1.806320 0.000000 
#    z 0.000000 0.000000 1.798860 
# 
# From -- ./inp_files/9538.got.cif
#   From: 2010.05.17/outbox.cif.g08.bks.cpg/sg61_5_cif.got.tgz:9538.got - 2010.06.03 15:17:17.
