data_PCOD9459764
_publ_section_title
;
Structure prediction by ZEFSAII (Michael W. Deem and Ramdas Pophale) SiO2 
 PCOD9459764
Probable space group: P B C A
;
_chemical_formula_sum "Si O2"
_cell_formula_units_Z 48
_cell_length_a 13.126586
_cell_length_b 9.620617
_cell_length_c 16.590120
_cell_angle_alpha 90.000000
_cell_angle_beta 90.000000
_cell_angle_gamma 90.000000
_cell_volume 2095.097512
_symmetry_space_group_name_H-M "P B C A"
_symmetry_group_IT_number 61
_symmetry_cell_setting 'orthorhombic'
loop_
_space_group_symop_operation_xyz
x,y,z
1/2-x,-y,1/2+z
1/2+x,1/2-y,-z
-x,1/2+y,1/2-z
-x,-y,-z
1/2+x,y,1/2-z
1/2-x,1/2+y,z
x,1/2-y,1/2+z
loop_
_atom_site_type_symbol
_atom_site_label
_atom_site_fract_x
_atom_site_fract_y
_atom_site_fract_z
Si Si1 0.080192 0.404328 0.406276
Si Si2 0.153420 0.379115 0.758858
Si Si3 0.426647 0.106092 0.254568
Si Si4 0.130430 0.859383 0.027381
Si Si5 0.725896 0.403407 0.330393
Si Si6 0.286002 0.258968 0.867780
O O1 0.055849 0.508320 0.332774
O O2 0.109916 0.490603 0.486548
O O3 0.184097 0.329969 0.379502
O O4 0.975298 0.323928 0.427511
O O5 0.177777 0.512676 0.705788
O O6 0.225460 0.398042 0.837139
O O7 0.036678 0.360076 0.779025
O O8 0.189102 0.239466 0.711417
O O9 0.361159 0.019154 0.189261
O O10 0.370171 0.238854 0.295855
O O11 0.231429 0.865040 0.081984
O O12 0.154608 0.763032 0.950904
#
# Coordination Sequence:
#
# PCOD9459764 Si02
#       6
#     8   8   8   8   8   8
#     4  10  20  44  65  94 134 183 226 282 351 407
#     4  11  24  45  70 103 140 182 237 281 355 404
#     4  10  22  43  69  97 135 188 227 290 345 409
#     4  10  23  39  69  93 134 183 227 280 349 410
#     4  11  24  42  71 102 134 182 237 287 334 422
#     4  10  23  41  66  99 137 180 227 288 340 415
#
# _framework density 22.910627999999999
#
# number of rings (size 3 to 8) (size 9 to 14) (size 15 to 20)
#    0.000    1.667    3.333    0.000    2.333    5.333 
#    0.000    0.833    0.000    0.000    0.000    0.000 
#    0.000    0.000    0.000    0.000    0.000    0.000 
#
# Total GULP energy -267270.672049 kJ/mol
# GULP energy per Si atom -5568.139001 kJ/mol
# Density = 2.285848 g / cm^3
# Si number density = 22.910628 Si / 1000 Ang^3
#
#
#
# Elastic Constant Matrix: (Units=GPa)
#
#
# Indices 1 2 3 4 5 6 
#
# 1 160.8591 23.2398 28.8348 0.0000 0.0000 0.0000
# 2 23.2398 48.0152 13.0910 0.0000 0.0000 0.0000
# 3 28.8348 13.0910 35.6330 0.0000 0.0000 0.0000
# 4 0.0000 0.0000 0.0000 9.9757 0.0000 0.0000
# 5 0.0000 0.0000 0.0000 0.0000 41.4694 0.0000
# 6 0.0000 0.0000 0.0000 0.0000 0.0000 24.8187
#
#
#
# Elastic Compliance Matrix: (Units=1/GPa)
#
#
# Indices 1 2 3 4 5 6 
#
# 1 0.007473 -0.002187 -0.005243 0.000000 0.000000 0.000000
# 2 -0.002187 0.023785 -0.006968 0.000000 0.000000 0.000000
# 3 -0.005243 -0.006968 0.034867 0.000000 0.000000 0.000000
# 4 0.000000 0.000000 0.000000 0.100244 0.000000 0.000000
# 5 0.000000 0.000000 0.000000 0.000000 0.024114 0.000000
# 6 0.000000 0.000000 0.000000 0.000000 0.000000 0.040292
#
#
# Mechanical properties :
#
#
# Convention : Reuss Voigt Hill
#
# Bulk Modulus (GPa) = 26.79037 41.64872 34.21955
# Shear Modulus (GPa) = 18.38134 27.20888 22.79511
#
# Velocity S-wave (km/s) = 2.83557 3.44991 3.15772
# Velocity P-wave (km/s) = 4.73703 5.83844 5.31634
#
# Compressibility (1/GPa) = 0.03732684
#
# Stress axis : x y z
#
# Youngs Moduli (GPa) = 133.82392 42.04289 28.68049
#
# Poissons Ratio (x) = 0.09196 0.15038
# Poissons Ratio (y) = 0.29270 0.19986
# Poissons Ratio (z) = 0.70168 0.29297
#
# Static dielectric constant tensor:
#      x y z
#    x 1.893290 0.000000 0.000000 
#    y 0.000000 1.934050 0.000000 
#    z 0.000000 0.000000 1.937470 
# 
# From -- ./inp_files/9186.got.cif
#   From: 2010.05.17/outbox.cif.g08.bks.cpg/sg61_5_cif.got.tgz:9186.got - 2010.06.03 15:17:17.
