data_PCOD9459988
_publ_section_title
;
Structure prediction by ZEFSAII (Michael W. Deem and Ramdas Pophale) SiO2 
 PCOD9459988
Probable space group: P B C A
;
_chemical_formula_sum "Si O2"
_cell_formula_units_Z 64
_cell_length_a 15.410792
_cell_length_b 12.329942
_cell_length_c 15.075819
_cell_angle_alpha 90.000000
_cell_angle_beta 90.000000
_cell_angle_gamma 90.000000
_cell_volume 2864.619257
_symmetry_space_group_name_H-M "P B C A"
_symmetry_group_IT_number 61
_symmetry_cell_setting 'orthorhombic'
loop_
_space_group_symop_operation_xyz
x,y,z
1/2-x,-y,1/2+z
1/2+x,1/2-y,-z
-x,1/2+y,1/2-z
-x,-y,-z
1/2+x,y,1/2-z
1/2-x,1/2+y,z
x,1/2-y,1/2+z
loop_
_atom_site_type_symbol
_atom_site_label
_atom_site_fract_x
_atom_site_fract_y
_atom_site_fract_z
Si Si1 0.247447 0.579926 0.423521
Si Si2 0.367205 0.961337 0.557736
Si Si3 0.208918 0.884807 0.649555
Si Si4 0.042190 0.641743 0.068763
Si Si5 0.836407 0.568343 0.730680
Si Si6 0.518558 0.118409 0.608602
Si Si7 0.926961 0.460002 0.110411
Si Si8 0.309011 0.227708 0.809891
O O1 0.202203 0.542805 0.513413
O O2 0.201724 0.509247 0.346458
O O3 0.347016 0.540031 0.419913
O O4 0.220410 0.701612 0.395584
O O5 0.309688 0.884857 0.621787
O O6 0.417395 0.904542 0.475683
O O7 0.439541 0.033915 0.604863
O O8 0.146603 0.857347 0.569161
O O9 0.172266 0.809366 0.729057
O O10 0.184588 0.005669 0.680416
O O11 0.010313 0.758992 0.096171
O O12 0.999187 0.551284 0.133560
O O13 0.024723 0.606636 0.967826
O O14 0.931960 0.598266 0.700389
O O15 0.778346 0.673290 0.724467
O O16 0.879942 0.366294 0.169721
#
# Coordination Sequence:
#
# PCOD9459988 Si02
#       8
#     8   8   8   8   8   8   8   8
#     4   9  17  38  67  87 121 171 219 268 328 398
#     4  10  21  42  70 100 128 168 229 288 321 405
#     4  11  24  42  63 101 134 168 227 275 340 402
#     4  11  23  40  63 101 132 176 226 278 334 394
#     4   9  21  40  58  91 130 167 211 266 333 403
#     4  10  22  42  69  96 131 176 221 273 342 397
#     4  10  21  40  62  94 135 173 223 277 327 405
#     4  10  21  40  67  91 130 185 213 267 352 402
#
# _framework density 22.341536999999999
#
# number of rings (size 3 to 8) (size 9 to 14) (size 15 to 20)
#    0.000    2.000    1.250    1.500    1.750    2.000 
#   13.500    0.000    0.000    0.000    0.000    0.000 
#    0.000    0.000    0.000    0.000    0.000    0.000 
#
# Total GULP energy -356706.479271 kJ/mol
# GULP energy per Si atom -5573.538739 kJ/mol
# Density = 2.229069 g / cm^3
# Si number density = 22.341537 Si / 1000 Ang^3
#
#
#
# Elastic Constant Matrix: (Units=GPa)
#
#
# Indices 1 2 3 4 5 6 
#
# 1 108.6365 33.9050 15.8965 0.0000 0.0000 0.0000
# 2 33.9050 91.4316 21.6139 0.0000 0.0000 0.0000
# 3 15.8965 21.6139 36.1730 0.0000 0.0000 0.0000
# 4 0.0000 0.0000 0.0000 18.8260 0.0000 0.0000
# 5 0.0000 0.0000 0.0000 0.0000 24.4889 0.0000
# 6 0.0000 0.0000 0.0000 0.0000 0.0000 19.9849
#
#
#
# Elastic Compliance Matrix: (Units=1/GPa)
#
#
# Indices 1 2 3 4 5 6 
#
# 1 0.010631 -0.003305 -0.002697 0.000000 0.000000 0.000000
# 2 -0.003305 0.013763 -0.006772 0.000000 0.000000 0.000000
# 3 -0.002697 -0.006772 0.032876 0.000000 0.000000 0.000000
# 4 0.000000 0.000000 0.000000 0.053118 0.000000 0.000000
# 5 0.000000 0.000000 0.000000 0.000000 0.040835 0.000000
# 6 0.000000 0.000000 0.000000 0.000000 0.000000 0.050038
#
#
# Mechanical properties :
#
#
# Convention : Reuss Voigt Hill
#
# Bulk Modulus (GPa) = 31.52209 42.11909 36.82059
# Shear Modulus (GPa) = 21.06300 23.64834 22.35567
#
# Velocity S-wave (km/s) = 3.07379 3.25698 3.16671
# Velocity P-wave (km/s) = 5.17082 5.74780 5.46693
#
# Compressibility (1/GPa) = 0.03172379
#
# Stress axis : x y z
#
# Youngs Moduli (GPa) = 94.06400 72.65687 30.41689
#
# Poissons Ratio (x) = 0.24010 0.08205
# Poissons Ratio (y) = 0.31084 0.20597
# Poissons Ratio (z) = 0.25372 0.49200
#
# Static dielectric constant tensor:
#      x y z
#    x 1.862760 0.000000 0.000000 
#    y 0.000000 1.854100 0.000000 
#    z 0.000000 0.000000 2.016700 
# 
# From -- ./inp_files/9536.got.cif
#   From: 2010.05.17/outbox.cif.g08.bks.cpg/sg61_5_cif.got.tgz:9536.got - 2010.06.03 15:17:17.
