data_PCOD9459136
_publ_section_title
;
Structure prediction by ZEFSAII (Michael W. Deem and Ramdas Pophale) SiO2 
 PCOD9459136
Probable space group: P B C A
;
_chemical_formula_sum "Si O2"
_cell_formula_units_Z 48
_cell_length_a 7.227138
_cell_length_b 19.273442
_cell_length_c 16.174967
_cell_angle_alpha 90.000000
_cell_angle_beta 90.000000
_cell_angle_gamma 90.000000
_cell_volume 2253.040674
_symmetry_space_group_name_H-M "P B C A"
_symmetry_group_IT_number 61
_symmetry_cell_setting 'orthorhombic'
loop_
_space_group_symop_operation_xyz
x,y,z
1/2-x,-y,1/2+z
1/2+x,1/2-y,-z
-x,1/2+y,1/2-z
-x,-y,-z
1/2+x,y,1/2-z
1/2-x,1/2+y,z
x,1/2-y,1/2+z
loop_
_atom_site_type_symbol
_atom_site_label
_atom_site_fract_x
_atom_site_fract_y
_atom_site_fract_z
Si Si1 0.330309 0.853697 0.639899
Si Si2 0.827089 0.585874 0.018312
Si Si3 0.739803 0.161343 0.178005
Si Si4 0.742997 0.564807 0.526231
Si Si5 0.768978 0.799417 0.105830
Si Si6 0.840528 0.720216 0.939362
O O1 0.550969 0.844642 0.645802
O O2 0.269116 0.871941 0.731979
O O3 0.291813 0.904190 0.563766
O O4 0.249204 0.777014 0.619567
O O5 0.872073 0.619643 0.107848
O O6 0.018545 0.567285 0.972827
O O7 0.710145 0.516346 0.031487
O O8 0.743033 0.648182 0.963172
O O9 0.688402 0.243639 0.177862
O O10 0.813796 0.618945 0.596120
O O11 0.546183 0.796186 0.092748
O O12 0.855233 0.762166 0.025312
#
# Coordination Sequence:
#
# PCOD9459136 Si02
#       6
#     8   8   8   8   8   8
#     4  10  19  31  48  69  94 123 158 198 236 276
#     4   9  17  31  51  72  96 125 155 190 235 286
#     4  10  19  31  48  69  94 123 158 198 236 276
#     4   9  17  31  51  72  96 125 155 190 235 286
#     4   8  15  28  46  67  89 117 153 188 224 270
#     4   8  15  28  46  67  89 117 153 188 224 270
#
# _framework density 21.304542000000001
#
# number of rings (size 3 to 8) (size 9 to 14) (size 15 to 20)
#    0.000    3.000    0.000    1.000    0.000    2.000 
#    0.000    1.667    0.000    4.000    0.000    0.000 
#    0.000    0.000    0.000    0.000    0.000    0.000 
#
# Total GULP energy -267207.249108 kJ/mol
# GULP energy per Si atom -5566.817690 kJ/mol
# Density = 2.125605 g / cm^3
# Si number density = 21.304542 Si / 1000 Ang^3
#
#
#
# Elastic Constant Matrix: (Units=GPa)
#
#
# Indices 1 2 3 4 5 6 
#
# 1 45.6556 0.9363 -13.8158 0.0000 0.0000 0.0000
# 2 0.9363 153.5352 16.9393 0.0000 0.0000 0.0000
# 3 -13.8158 16.9393 48.3991 0.0000 0.0000 0.0000
# 4 0.0000 0.0000 0.0000 15.6999 0.0000 0.0000
# 5 0.0000 0.0000 0.0000 0.0000 56.3807 0.0000
# 6 0.0000 0.0000 0.0000 0.0000 0.0000 14.5377
#
#
#
# Elastic Compliance Matrix: (Units=1/GPa)
#
#
# Indices 1 2 3 4 5 6 
#
# 1 0.024104 -0.000943 0.007211 0.000000 0.000000 0.000000
# 2 -0.000943 0.006812 -0.002653 0.000000 0.000000 0.000000
# 3 0.007211 -0.002653 0.023648 0.000000 0.000000 0.000000
# 4 0.000000 0.000000 0.000000 0.063695 0.000000 0.000000
# 5 0.000000 0.000000 0.000000 0.000000 0.017737 0.000000
# 6 0.000000 0.000000 0.000000 0.000000 0.000000 0.068787
#
#
# Mechanical properties :
#
#
# Convention : Reuss Voigt Hill
#
# Bulk Modulus (GPa) = 16.18264 28.41215 22.29739
# Shear Modulus (GPa) = 22.91996 33.55900 28.23948
#
# Velocity S-wave (km/s) = 3.28354 3.97319 3.64471
# Velocity P-wave (km/s) = 4.68912 5.86630 5.31043
#
# Compressibility (1/GPa) = 0.06179463
#
# Stress axis : x y z
#
# Youngs Moduli (GPa) = 41.48605 146.80792 42.28614
#
# Poissons Ratio (x) = 0.13837 -0.30491
# Poissons Ratio (y) = 0.03910 0.11219
# Poissons Ratio (z) = -0.29914 0.38949
#
# Static dielectric constant tensor:
#      x y z
#    x 1.852650 0.000000 0.000000 
#    y 0.000000 1.824060 0.000000 
#    z 0.000000 0.000000 1.750400 
# 
# From -- ./inp_files/3494.got.cif
#   From: 2010.05.17/outbox.cif.g08.bks.cpg/sg61_2_cif.got.tgz:3494.got - 2010.06.03 15:17:17.
