data_PCOD9459580
_publ_section_title
;
Structure prediction by ZEFSAII (Michael W. Deem and Ramdas Pophale) SiO2 
 PCOD9459580
Probable space group: P B C A
;
_chemical_formula_sum "Si O2"
_cell_formula_units_Z 56
_cell_length_a 28.008130
_cell_length_b 5.549525
_cell_length_c 14.555872
_cell_angle_alpha 90.000000
_cell_angle_beta 90.000000
_cell_angle_gamma 90.000000
_cell_volume 2262.445642
_symmetry_space_group_name_H-M "P B C A"
_symmetry_group_IT_number 61
_symmetry_cell_setting 'orthorhombic'
loop_
_space_group_symop_operation_xyz
x,y,z
1/2-x,-y,1/2+z
1/2+x,1/2-y,-z
-x,1/2+y,1/2-z
-x,-y,-z
1/2+x,y,1/2-z
1/2-x,1/2+y,z
x,1/2-y,1/2+z
loop_
_atom_site_type_symbol
_atom_site_label
_atom_site_fract_x
_atom_site_fract_y
_atom_site_fract_z
Si Si1 0.636822 0.617280 0.602085
Si Si2 0.046240 0.882683 0.843554
Si Si3 0.453745 0.116600 0.656323
Si Si4 0.728044 0.901577 0.610325
Si Si5 0.771953 0.098135 0.890011
Si Si6 0.363205 0.117848 0.101941
Si Si7 0.382739 0.750355 0.250014
O O1 0.581556 0.697919 0.605973
O O2 0.672023 0.841509 0.620571
O O3 0.648108 0.523873 0.500030
O O4 0.644969 0.425213 0.681718
O O5 0.029517 0.749848 0.749891
O O6 0.081971 0.092329 0.812914
O O7 0.999986 0.999406 0.889494
O O8 0.418459 0.301239 0.605704
O O9 0.417984 0.907247 0.687125
O O10 0.754245 0.659075 0.645844
O O11 0.736791 0.911759 0.500169
O O12 0.745759 0.340650 0.854494
O O13 0.827977 0.157982 0.879695
O O14 0.355103 0.926118 0.181711
#
# Coordination Sequence:
#
# PCOD9459580 Si02
#       7
#     8   8   8   8   8   8   8
#     4  10  23  39  63  98 128 167 222 273 325 392
#     4  10  20  38  63  87 123 172 215 262 330 395
#     4  10  20  38  63  87 123 172 215 262 330 395
#     4   9  19  37  62  92 131 177 222 273 336 398
#     4   9  19  37  62  92 131 177 222 273 336 398
#     4  10  23  39  63  98 128 167 222 273 325 392
#     4  10  22  40  64  88 130 170 212 264 336 392
#
# _framework density 24.751975999999999
#
# number of rings (size 3 to 8) (size 9 to 14) (size 15 to 20)
#    0.000    2.286    1.429    0.000    4.000    1.714 
#    0.000    2.857    0.000    0.000    0.000    0.000 
#    0.000    0.000    0.000    0.000    0.000    0.000 
#
# Total GULP energy -313222.491651 kJ/mol
# GULP energy per Si atom -5593.258779 kJ/mol
# Density = 2.469564 g / cm^3
# Si number density = 24.751976 Si / 1000 Ang^3
#
#
#
# Elastic Constant Matrix: (Units=GPa)
#
#
# Indices 1 2 3 4 5 6 
#
# 1 145.5040 45.1375 36.3731 0.0000 0.0000 0.0000
# 2 45.1375 106.2673 38.1694 0.0000 0.0000 0.0000
# 3 36.3731 38.1694 108.4113 0.0000 0.0000 0.0000
# 4 0.0000 0.0000 0.0000 23.9069 0.0000 0.0000
# 5 0.0000 0.0000 0.0000 0.0000 8.2375 0.0000
# 6 0.0000 0.0000 0.0000 0.0000 0.0000 51.3027
#
#
#
# Elastic Compliance Matrix: (Units=1/GPa)
#
#
# Indices 1 2 3 4 5 6 
#
# 1 0.008194 -0.002854 -0.001744 0.000000 0.000000 0.000000
# 2 -0.002854 0.011767 -0.003185 0.000000 0.000000 0.000000
# 3 -0.001744 -0.003185 0.010931 0.000000 0.000000 0.000000
# 4 0.000000 0.000000 0.000000 0.041829 0.000000 0.000000
# 5 0.000000 0.000000 0.000000 0.000000 0.121397 0.000000
# 6 0.000000 0.000000 0.000000 0.000000 0.000000 0.019492
#
#
# Mechanical properties :
#
#
# Convention : Reuss Voigt Hill
#
# Bulk Modulus (GPa) = 65.25557 66.61585 65.93571
# Shear Modulus (GPa) = 21.34159 32.72292 27.03226
#
# Velocity S-wave (km/s) = 2.93954 3.63992 3.30832
# Velocity P-wave (km/s) = 6.15972 6.68110 6.42570
#
# Compressibility (1/GPa) = 0.01532436
#
# Stress axis : x y z
#
# Youngs Moduli (GPa) = 122.03977 84.98683 91.48421
#
# Poissons Ratio (x) = 0.24254 0.15958
# Poissons Ratio (y) = 0.34829 0.29140
# Poissons Ratio (z) = 0.21288 0.27070
#
# Static dielectric constant tensor:
#      x y z
#    x 1.940120 0.000000 0.000000 
#    y 0.000000 1.978440 0.000000 
#    z 0.000000 0.000000 1.923220 
# 
# From -- ./inp_files/8668.got.cif
#   From: 2010.05.17/outbox.cif.g08.bks.cpg/sg61_5_cif.got.tgz:8668.got - 2010.06.03 15:17:17.
