data_PCOD9459330
_publ_section_title
;
Structure prediction by ZEFSAII (Michael W. Deem and Ramdas Pophale) SiO2 
 PCOD9459330
Probable space group: P B C A
;
_chemical_formula_sum "Si O2"
_cell_formula_units_Z 56
_cell_length_a 15.190954
_cell_length_b 16.674612
_cell_length_c 8.608474
_cell_angle_alpha 90.000000
_cell_angle_beta 90.000000
_cell_angle_gamma 90.000000
_cell_volume 2180.554561
_symmetry_space_group_name_H-M "P B C A"
_symmetry_group_IT_number 61
_symmetry_cell_setting 'orthorhombic'
loop_
_space_group_symop_operation_xyz
x,y,z
1/2-x,-y,1/2+z
1/2+x,1/2-y,-z
-x,1/2+y,1/2-z
-x,-y,-z
1/2+x,y,1/2-z
1/2-x,1/2+y,z
x,1/2-y,1/2+z
loop_
_atom_site_type_symbol
_atom_site_label
_atom_site_fract_x
_atom_site_fract_y
_atom_site_fract_z
Si Si1 0.005118 0.349380 0.745762
Si Si2 0.232051 0.173420 0.876926
Si Si3 0.131956 0.932742 0.548540
Si Si4 0.238282 0.947907 0.114439
Si Si5 0.447343 0.675339 0.724004
Si Si6 0.054847 0.984565 0.222785
Si Si7 0.820911 0.839904 0.581034
O O1 0.994140 0.256137 0.701589
O O2 0.999453 0.437877 0.668166
O O3 0.939277 0.370525 0.887042
O O4 0.110130 0.346748 0.780835
O O5 0.265738 0.131944 0.719558
O O6 0.125965 0.177414 0.861861
O O7 0.282731 0.118981 0.999058
O O8 0.247063 0.267156 0.899933
O O9 0.086901 0.982263 0.406130
O O10 0.176597 0.999195 0.659141
O O11 0.144239 0.985874 0.127018
O O12 0.262239 0.917828 0.943833
O O13 0.504930 0.599692 0.773091
O O14 0.387526 0.667900 0.567926
#
# Coordination Sequence:
#
# PCOD9459330 Si02
#       7
#     8   8   8   8   8   8   8
#     4  11  21  37  68  95 118 171 215 249 323 376
#     4   9  22  37  60  91 127 156 211 261 313 370
#     4  11  21  40  67  88 125 169 213 255 319 384
#     4  10  22  38  62  94 125 163 208 264 310 371
#     4  10  22  39  63  95 128 161 211 266 313 374
#     4  11  22  40  66  95 127 163 218 259 312 384
#     4  10  19  40  63  85 128 167 202 264 317 371
#
# _framework density 25.681540999999999
#
# number of rings (size 3 to 8) (size 9 to 14) (size 15 to 20)
#    0.000    1.714    2.857    2.143    4.000    0.000 
#    0.000    0.714   18.857    0.000    0.000    0.000 
#    0.000    0.000    0.000    0.000    0.000    0.000 
#
# Total GULP energy -312128.739511 kJ/mol
# GULP energy per Si atom -5573.727491 kJ/mol
# Density = 2.562309 g / cm^3
# Si number density = 25.681541 Si / 1000 Ang^3
#
#
#
# Elastic Constant Matrix: (Units=GPa)
#
#
# Indices 1 2 3 4 5 6 
#
# 1 67.4914 30.2534 10.4344 0.0000 0.0000 0.0000
# 2 30.2534 143.9648 8.1677 0.0000 0.0000 0.0000
# 3 10.4344 8.1677 24.7790 0.0000 0.0000 0.0000
# 4 0.0000 0.0000 0.0000 32.4940 0.0000 0.0000
# 5 0.0000 0.0000 0.0000 0.0000 34.3128 0.0000
# 6 0.0000 0.0000 0.0000 0.0000 0.0000 46.3248
#
#
#
# Elastic Compliance Matrix: (Units=1/GPa)
#
#
# Indices 1 2 3 4 5 6 
#
# 1 0.017239 -0.003272 -0.006181 0.000000 0.000000 0.000000
# 2 -0.003272 0.007700 -0.001160 0.000000 0.000000 0.000000
# 3 -0.006181 -0.001160 0.043342 0.000000 0.000000 0.000000
# 4 0.000000 0.000000 0.000000 0.030775 0.000000 0.000000
# 5 0.000000 0.000000 0.000000 0.000000 0.029144 0.000000
# 6 0.000000 0.000000 0.000000 0.000000 0.000000 0.021587
#
#
# Mechanical properties :
#
#
# Convention : Reuss Voigt Hill
#
# Bulk Modulus (GPa) = 21.25190 37.10515 29.17852
# Shear Modulus (GPa) = 26.78144 35.11829 30.94986
#
# Velocity S-wave (km/s) = 3.23279 3.70192 3.47528
# Velocity P-wave (km/s) = 4.71463 5.72292 5.24307
#
# Compressibility (1/GPa) = 0.04705461
#
# Stress axis : x y z
#
# Youngs Moduli (GPa) = 58.00803 129.87762 23.07235
#
# Poissons Ratio (x) = 0.42496 0.14261
# Poissons Ratio (y) = 0.18980 0.02677
# Poissons Ratio (z) = 0.35854 0.15067
#
# Static dielectric constant tensor:
#      x y z
#    x 1.994930 0.000000 0.000000 
#    y 0.000000 2.229020 0.000000 
#    z 0.000000 0.000000 2.194190 
# 
# From -- ./inp_files/5799.got.cif
#   From: 2010.05.17/outbox.cif.g08.bks.cpg/sg61_3_cif.got.tgz:5799.got - 2010.06.03 15:17:17.
