data_PCOD9459504
_publ_section_title
;
Structure prediction by ZEFSAII (Michael W. Deem and Ramdas Pophale) SiO2 
 PCOD9459504
Probable space group: P B C A
;
_chemical_formula_sum "Si O2"
_cell_formula_units_Z 64
_cell_length_a 10.998800
_cell_length_b 15.435531
_cell_length_c 17.269322
_cell_angle_alpha 90.000000
_cell_angle_beta 90.000000
_cell_angle_gamma 90.000000
_cell_volume 2931.852832
_symmetry_space_group_name_H-M "P B C A"
_symmetry_group_IT_number 61
_symmetry_cell_setting 'orthorhombic'
loop_
_space_group_symop_operation_xyz
x,y,z
1/2-x,-y,1/2+z
1/2+x,1/2-y,-z
-x,1/2+y,1/2-z
-x,-y,-z
1/2+x,y,1/2-z
1/2-x,1/2+y,z
x,1/2-y,1/2+z
loop_
_atom_site_type_symbol
_atom_site_label
_atom_site_fract_x
_atom_site_fract_y
_atom_site_fract_z
Si Si1 0.727607 0.842377 0.540967
Si Si2 0.422891 0.395890 0.446429
Si Si3 0.035882 0.971133 0.761998
Si Si4 0.456183 0.903108 0.894490
Si Si5 0.990202 0.645998 0.402236
Si Si6 0.151399 0.197816 0.618445
Si Si7 0.696016 0.462637 0.981324
Si Si8 0.224871 0.542864 0.689561
O O1 0.829296 0.852208 0.606373
O O2 0.602240 0.798626 0.564627
O O3 0.789852 0.800613 0.466750
O O4 0.694547 0.941675 0.517564
O O5 0.469570 0.368836 0.532122
O O6 0.439463 0.497277 0.422381
O O7 0.522345 0.353486 0.388710
O O8 0.278913 0.400840 0.464433
O O9 0.014656 0.908463 0.688813
O O10 0.047198 0.916128 0.839103
O O11 0.909253 0.025196 0.775243
O O12 0.163111 0.017941 0.745041
O O13 0.887702 0.705229 0.362475
O O14 0.927577 0.588825 0.468156
O O15 0.245971 0.142544 0.668261
O O16 0.737248 0.487357 0.891765
#
# Coordination Sequence:
#
# PCOD9459504 Si02
#       8
#     8   8   8   8   8   8   8   8
#     4   9  19  36  57  84 114 147 203 247 286 356
#     4   9  15  31  62  82 102 140 199 234 280 354
#     4  11  20  36  59  84 119 157 201 237 292 370
#     4   9  15  31  60  85  97 143 198 241 271 339
#     4  11  23  33  54  89 125 156 184 254 313 352
#     4  10  21  37  57  82 118 153 197 248 302 347
#     4   9  18  34  60  85 110 148 202 243 296 342
#     4  10  20  37  59  83 113 161 198 244 291 358
#
# _framework density 21.829198999999999
#
# number of rings (size 3 to 8) (size 9 to 14) (size 15 to 20)
#    0.000    2.250    2.500    2.625    1.750    0.000 
#    0.000    3.750    0.000    3.000    0.000    0.000 
#    0.000    0.000    0.000    0.000    0.000    0.000 
#
# Total GULP energy -356272.697726 kJ/mol
# GULP energy per Si atom -5566.760902 kJ/mol
# Density = 2.177952 g / cm^3
# Si number density = 21.829199 Si / 1000 Ang^3
#
#
#
# Elastic Constant Matrix: (Units=GPa)
#
#
# Indices 1 2 3 4 5 6 
#
# 1 83.5757 8.1030 10.3879 0.0000 0.0000 0.0000
# 2 8.1030 26.3916 -9.8716 0.0000 0.0000 0.0000
# 3 10.3879 -9.8716 42.3150 0.0000 0.0000 0.0000
# 4 0.0000 0.0000 0.0000 10.1442 0.0000 0.0000
# 5 0.0000 0.0000 0.0000 0.0000 26.1130 0.0000
# 6 0.0000 0.0000 0.0000 0.0000 0.0000 21.3320
#
#
#
# Elastic Compliance Matrix: (Units=1/GPa)
#
#
# Indices 1 2 3 4 5 6 
#
# 1 0.013085 -0.005718 -0.004546 0.000000 0.000000 0.000000
# 2 -0.005718 0.044012 0.011671 0.000000 0.000000 0.000000
# 3 -0.004546 0.011671 0.027471 0.000000 0.000000 0.000000
# 4 0.000000 0.000000 0.000000 0.098579 0.000000 0.000000
# 5 0.000000 0.000000 0.000000 0.000000 0.038295 0.000000
# 6 0.000000 0.000000 0.000000 0.000000 0.000000 0.046878
#
#
# Mechanical properties :
#
#
# Convention : Reuss Voigt Hill
#
# Bulk Modulus (GPa) = 11.44396 18.83565 15.13981
# Shear Modulus (GPa) = 16.97033 21.09538 19.03285
#
# Velocity S-wave (km/s) = 2.79124 3.11204 2.95600
# Velocity P-wave (km/s) = 3.95499 4.64333 4.31291
#
# Compressibility (1/GPa) = 0.08738233
#
# Stress axis : x y z
#
# Youngs Moduli (GPa) = 76.42565 22.72108 36.40199
#
# Poissons Ratio (x) = 0.12991 0.16549
# Poissons Ratio (y) = 0.43699 -0.42485
# Poissons Ratio (z) = 0.34743 -0.26518
#
# Static dielectric constant tensor:
#      x y z
#    x 1.851540 0.000000 0.000000 
#    y 0.000000 1.848000 0.000000 
#    z 0.000000 0.000000 1.800460 
# 
# From -- ./inp_files/9351.got.cif
#   From: 2010.05.17/outbox.cif.g08.bks.cpg/sg61_5_cif.got.tgz:9351.got - 2010.06.03 15:17:17.
