data_PCOD9459713
_publ_section_title
;
Structure prediction by ZEFSAII (Michael W. Deem and Ramdas Pophale) SiO2 
 PCOD9459713
Probable space group: P B C A
;
_chemical_formula_sum "Si O2"
_cell_formula_units_Z 60
_cell_length_a 10.871698
_cell_length_b 14.323118
_cell_length_c 17.425119
_cell_angle_alpha 90.000000
_cell_angle_beta 90.000000
_cell_angle_gamma 90.000000
_cell_volume 2713.380517
_symmetry_space_group_name_H-M "P B C A"
_symmetry_group_IT_number 61
_symmetry_cell_setting 'orthorhombic'
loop_
_space_group_symop_operation_xyz
x,y,z
1/2-x,-y,1/2+z
1/2+x,1/2-y,-z
-x,1/2+y,1/2-z
-x,-y,-z
1/2+x,y,1/2-z
1/2-x,1/2+y,z
x,1/2-y,1/2+z
loop_
_atom_site_type_symbol
_atom_site_label
_atom_site_fract_x
_atom_site_fract_y
_atom_site_fract_z
Si Si1 0.035157 0.301454 0.491826
Si Si2 0.283968 0.775346 0.869858
Si Si3 0.050494 0.177511 0.631447
Si Si4 0.632561 0.546286 0.152486
Si Si5 0.000000 0.000000 0.000000
Si Si6 0.160217 0.816071 0.142404
Si Si7 0.842393 0.092013 0.703788
Si Si8 0.509917 0.675126 0.266030
O O1 0.152143 0.265354 0.444990
O O2 0.003250 0.222131 0.552820
O O3 0.058893 0.400563 0.531098
O O4 0.922251 0.322310 0.433581
O O5 0.187040 0.857292 0.882523
O O6 0.226196 0.688124 0.823965
O O7 0.393372 0.823088 0.821305
O O8 0.196820 0.168881 0.625614
O O9 0.968052 0.088948 0.654809
O O10 0.025414 0.249726 0.700610
O O11 0.574343 0.489715 0.082484
O O12 0.744914 0.487851 0.187884
O O13 0.545993 0.581552 0.221799
O O14 0.126894 0.892888 0.206821
O O15 0.122478 0.718244 0.183621
#
# Coordination Sequence:
#
# PCOD9459713 Si02
#       8
#     8   8   8   8   4   8   8   8
#     4  11  25  41  69  96 139 178 224 284 349 414
#     4  11  22  44  65  97 137 179 228 284 342 405
#     4  11  21  40  68  92 130 176 217 276 356 406
#     4  12  24  41  69 101 137 181 234 288 346 424
#     4  12  24  40  64 106 132 178 230 280 346 414
#     4  10  23  42  67  97 130 178 232 280 339 410
#     4  11  23  41  67  96 135 176 229 285 335 409
#     4  10  20  41  68  95 129 179 227 277 336 412
#
# _framework density 22.112635999999998
#
# number of rings (size 3 to 8) (size 9 to 14) (size 15 to 20)
#    0.000    1.067    6.667    0.000    3.733    2.133 
#    2.400    0.667    0.000    0.000    0.000    0.000 
#    0.000    0.000    0.000    0.000    0.000    0.000 
#
# Total GULP energy -334339.230872 kJ/mol
# GULP energy per Si atom -5572.320515 kJ/mol
# Density = 2.206231 g / cm^3
# Si number density = 22.112636 Si / 1000 Ang^3
#
#
#
# Elastic Constant Matrix: (Units=GPa)
#
#
# Indices 1 2 3 4 5 6 
#
# 1 92.8414 10.4407 14.7004 0.0000 0.0000 0.0000
# 2 10.4407 54.8230 -11.7336 0.0000 0.0000 0.0000
# 3 14.7004 -11.7336 48.4233 0.0000 0.0000 0.0000
# 4 0.0000 0.0000 0.0000 18.6790 0.0000 0.0000
# 5 0.0000 0.0000 0.0000 0.0000 38.2861 0.0000
# 6 0.0000 0.0000 0.0000 0.0000 0.0000 36.5051
#
#
#
# Elastic Compliance Matrix: (Units=1/GPa)
#
#
# Indices 1 2 3 4 5 6 
#
# 1 0.011819 -0.003184 -0.004360 0.000000 0.000000 0.000000
# 2 -0.003184 0.020096 0.005836 0.000000 0.000000 0.000000
# 3 -0.004360 0.005836 0.023389 0.000000 0.000000 0.000000
# 4 0.000000 0.000000 0.000000 0.053536 0.000000 0.000000
# 5 0.000000 0.000000 0.000000 0.000000 0.026119 0.000000
# 6 0.000000 0.000000 0.000000 0.000000 0.000000 0.027393
#
#
# Mechanical properties :
#
#
# Convention : Reuss Voigt Hill
#
# Bulk Modulus (GPa) = 19.27185 24.76697 22.01941
# Shear Modulus (GPa) = 27.31277 30.87272 29.09275
#
# Velocity S-wave (km/s) = 3.51831 3.74057 3.63114
# Velocity P-wave (km/s) = 5.02383 5.46631 5.24973
#
# Compressibility (1/GPa) = 0.05188915
#
# Stress axis : x y z
#
# Youngs Moduli (GPa) = 84.60638 49.76116 42.75532
#
# Poissons Ratio (x) = 0.15844 0.18640
# Poissons Ratio (y) = 0.26939 -0.24953
# Poissons Ratio (z) = 0.36886 -0.29041
#
# Static dielectric constant tensor:
#      x y z
#    x 1.882010 0.000000 0.000000 
#    y 0.000000 1.908670 0.000000 
#    z 0.000000 0.000000 1.838240 
# 
# From -- ./inp_files/9245.got.cif
#   From: 2010.05.17/outbox.cif.g08.bks.cpg/sg61_5_cif.got.tgz:9245.got - 2010.06.03 15:17:17.
