data_PCOD9459169
_publ_section_title
;
Structure prediction by ZEFSAII (Michael W. Deem and Ramdas Pophale) SiO2 
 PCOD9459169
Probable space group: P B C A
;
_chemical_formula_sum "Si O2"
_cell_formula_units_Z 56
_cell_length_a 33.258088
_cell_length_b 15.934673
_cell_length_c 5.114043
_cell_angle_alpha 90.000000
_cell_angle_beta 90.000000
_cell_angle_gamma 90.000000
_cell_volume 2710.221643
_symmetry_space_group_name_H-M "P B C A"
_symmetry_group_IT_number 61
_symmetry_cell_setting 'orthorhombic'
loop_
_space_group_symop_operation_xyz
x,y,z
1/2-x,-y,1/2+z
1/2+x,1/2-y,-z
-x,1/2+y,1/2-z
-x,-y,-z
1/2+x,y,1/2-z
1/2-x,1/2+y,z
x,1/2-y,1/2+z
loop_
_atom_site_type_symbol
_atom_site_label
_atom_site_fract_x
_atom_site_fract_y
_atom_site_fract_z
Si Si1 0.042569 0.309266 0.833897
Si Si2 0.017674 0.951419 0.744913
Si Si3 0.164181 0.284802 0.769850
Si Si4 0.745369 0.783327 0.238721
Si Si5 0.232173 0.960508 0.998874
Si Si6 0.595268 0.466316 0.446056
Si Si7 0.352953 0.532799 0.066629
O O1 0.047321 0.260135 0.560667
O O2 0.999792 0.357812 0.787654
O O3 0.071697 0.386560 0.923778
O O4 0.064676 0.968720 0.695857
O O5 0.000000 0.000000 0.500000
O O6 0.000000 0.000000 0.000000
O O7 0.143418 0.231889 0.543665
O O8 0.208582 0.245543 0.811617
O O9 0.164470 0.380416 0.686253
O O10 0.726364 0.721031 0.452772
O O11 0.744429 0.872152 0.377594
O O12 0.251067 0.025572 0.208805
O O13 0.184555 0.973819 0.003003
O O14 0.619212 0.501590 0.698198
O O15 0.624515 0.445074 0.203217
#
# Coordination Sequence:
#
# PCOD9459169 Si02
#       7
#     8   8   8   8   8   8   8
#     4  11  22  38  64  98 127 162 208 252 298 366
#     4  10  20  40  65  87 124 172 209 241 294 373
#     4  10  19  33  50  76 110 147 187 234 306 368
#     4  10  20  36  57  79 107 146 196 258 312 354
#     4  12  23  40  62  86 117 162 224 270 300 374
#     4  11  24  40  59  90 130 163 194 247 318 379
#     4  12  24  37  59  88 121 162 204 256 318 378
#
# _framework density 20.662517999999999
#
# number of rings (size 3 to 8) (size 9 to 14) (size 15 to 20)
#    0.000    1.143    0.000   10.286    0.000    3.429 
#    0.000    0.000    0.000    5.143    0.000    0.000 
#    0.000    0.000    0.000    0.000    0.000    0.000 
#
# Total GULP energy -312299.060513 kJ/mol
# GULP energy per Si atom -5576.768938 kJ/mol
# Density = 2.061549 g / cm^3
# Si number density = 20.662518 Si / 1000 Ang^3
#
#
#
# Elastic Constant Matrix: (Units=GPa)
#
#
# Indices 1 2 3 4 5 6 
#
# 1 91.0745 34.1426 19.7653 0.0000 0.0000 0.0000
# 2 34.1426 39.6314 -3.4422 0.0000 0.0000 0.0000
# 3 19.7653 -3.4422 144.8618 0.0000 0.0000 0.0000
# 4 0.0000 0.0000 0.0000 32.5815 0.0000 0.0000
# 5 0.0000 0.0000 0.0000 0.0000 22.2109 0.0000
# 6 0.0000 0.0000 0.0000 0.0000 0.0000 26.5503
#
#
#
# Elastic Compliance Matrix: (Units=1/GPa)
#
#
# Indices 1 2 3 4 5 6 
#
# 1 0.017216 -0.015067 -0.002707 0.000000 0.000000 0.000000
# 2 -0.015067 0.038470 0.002970 0.000000 0.000000 0.000000
# 3 -0.002707 0.002970 0.007343 0.000000 0.000000 0.000000
# 4 0.000000 0.000000 0.000000 0.030692 0.000000 0.000000
# 5 0.000000 0.000000 0.000000 0.000000 0.045023 0.000000
# 6 0.000000 0.000000 0.000000 0.000000 0.000000 0.037664
#
#
# Mechanical properties :
#
#
# Convention : Reuss Voigt Hill
#
# Bulk Modulus (GPa) = 29.92056 41.83323 35.87690
# Shear Modulus (GPa) = 23.02485 31.27535 27.15010
#
# Velocity S-wave (km/s) = 3.34178 3.89476 3.62882
# Velocity P-wave (km/s) = 5.42236 6.36517 5.91259
#
# Compressibility (1/GPa) = 0.03342183
#
# Stress axis : x y z
#
# Youngs Moduli (GPa) = 58.08636 25.99400 136.18328
#
# Poissons Ratio (x) = 0.39164 0.36864
# Poissons Ratio (y) = 0.87516 -0.40444
# Poissons Ratio (z) = 0.15724 -0.07720
#
# Static dielectric constant tensor:
#      x y z
#    x 1.926980 0.000000 0.000000 
#    y 0.000000 1.763840 0.000000 
#    z 0.000000 0.000000 1.822160 
# 
# From -- ./inp_files/1460.got.cif
#   From: 2010.05.17/outbox.cif.g08.bks.cpg/sg61_1_cif.got.tgz:1460.got - 2010.06.03 15:17:17.
