data_PCOD9459624
_publ_section_title
;
Structure prediction by ZEFSAII (Michael W. Deem and Ramdas Pophale) SiO2 
 PCOD9459624
Probable space group: P B C A
;
_chemical_formula_sum "Si O2"
_cell_formula_units_Z 64
_cell_length_a 9.047469
_cell_length_b 18.575294
_cell_length_c 19.436540
_cell_angle_alpha 90.000000
_cell_angle_beta 90.000000
_cell_angle_gamma 90.000000
_cell_volume 3266.493185
_symmetry_space_group_name_H-M "P B C A"
_symmetry_group_IT_number 61
_symmetry_cell_setting 'orthorhombic'
loop_
_space_group_symop_operation_xyz
x,y,z
1/2-x,-y,1/2+z
1/2+x,1/2-y,-z
-x,1/2+y,1/2-z
-x,-y,-z
1/2+x,y,1/2-z
1/2-x,1/2+y,z
x,1/2-y,1/2+z
loop_
_atom_site_type_symbol
_atom_site_label
_atom_site_fract_x
_atom_site_fract_y
_atom_site_fract_z
Si Si1 0.129521 0.385373 0.863564
Si Si2 0.577862 0.260093 0.967004
Si Si3 0.296143 0.360001 0.609358
Si Si4 0.409144 0.043472 0.899764
Si Si5 0.442012 0.196563 0.831623
Si Si6 0.305374 0.776596 0.745281
Si Si7 0.184905 0.646357 0.490695
Si Si8 0.726596 0.999508 0.958822
O O1 0.125456 0.471597 0.855928
O O2 0.128546 0.337839 0.795168
O O3 0.273437 0.368705 0.910497
O O4 0.972374 0.366872 0.900350
O O5 0.710209 0.313046 0.946209
O O6 0.479127 0.236903 0.902337
O O7 0.458067 0.305993 0.009336
O O8 0.667272 0.189783 0.988896
O O9 0.263985 0.320479 0.681279
O O10 0.230800 0.440109 0.597619
O O11 0.408865 0.114864 0.853866
O O12 0.572253 0.032826 0.931866
O O13 0.305069 0.040022 0.967860
O O14 0.582677 0.217032 0.784636
O O15 0.309016 0.233254 0.791601
O O16 0.173137 0.568634 0.526589
#
# Coordination Sequence:
#
# PCOD9459624 Si02
#       8
#     8   8   8   8   8   8   8   8
#     4  10  20  39  63  83 115 167 204 238 304 372
#     4  11  23  35  62  92 124 154 199 254 310 362
#     4  10  22  38  60  86 119 157 202 253 300 363
#     4   9  19  37  62  89 117 155 203 247 307 373
#     4  11  22  41  60  88 122 158 208 254 300 365
#     4  11  22  40  62  85 121 164 206 249 302 366
#     4  11  21  37  62  92 122 157 202 251 311 366
#     4   9  19  37  64  88 119 158 198 252 313 370
#
# _framework density 19.592879
#
# number of rings (size 3 to 8) (size 9 to 14) (size 15 to 20)
#    0.000    1.750    3.750    1.500    1.750    0.500 
#    4.500    0.000    0.000    0.000    0.000    0.000 
#    0.000    0.000    0.000    0.000    0.000    0.000 
#
# Total GULP energy -356504.848911 kJ/mol
# GULP energy per Si atom -5570.388264 kJ/mol
# Density = 1.954828 g / cm^3
# Si number density = 19.592879 Si / 1000 Ang^3
#
#
#
# Elastic Constant Matrix: (Units=GPa)
#
#
# Indices 1 2 3 4 5 6 
#
# 1 29.8748 37.9068 11.8394 0.0000 0.0000 0.0000
# 2 37.9068 150.1695 46.4695 0.0000 0.0000 0.0000
# 3 11.8394 46.4695 47.7594 0.0000 0.0000 0.0000
# 4 0.0000 0.0000 0.0000 -34.8375 0.0000 0.0000
# 5 0.0000 0.0000 0.0000 0.0000 16.6733 0.0000
# 6 0.0000 0.0000 0.0000 0.0000 0.0000 11.8250
#
#
#
# Elastic Compliance Matrix: (Units=1/GPa)
#
#
# Indices 1 2 3 4 5 6 
#
# 1 0.049247 -0.012381 -0.000161 0.000000 0.000000 0.000000
# 2 -0.012381 0.012641 -0.009230 0.000000 0.000000 0.000000
# 3 -0.000161 -0.009230 0.029959 0.000000 0.000000 0.000000
# 4 0.000000 0.000000 0.000000 -0.028705 0.000000 0.000000
# 5 0.000000 0.000000 0.000000 0.000000 0.059976 0.000000
# 6 0.000000 0.000000 0.000000 0.000000 0.000000 0.084567
#
#
# Mechanical properties :
#
#
# Convention : Reuss Voigt Hill
#
# Bulk Modulus (GPa) = 20.70323 46.69277 33.69800
# Shear Modulus (GPa) = 18.70343 7.50470 13.10406
#
# Velocity S-wave (km/s) = 3.09302 1.95924 2.58896
# Velocity P-wave (km/s) = 4.83170 5.38530 5.11599
#
# Compressibility (1/GPa) = 0.04830163
#
# Stress axis : x y z
#
# Youngs Moduli (GPa) = 20.30577 79.10932 33.37898
#
# Poissons Ratio (x) = 0.97948 0.00538
# Poissons Ratio (y) = 0.25141 0.30809
# Poissons Ratio (z) = 0.00327 0.73018
#
# Static dielectric constant tensor:
#      x y z
#    x 1.724650 0.000000 0.000000 
#    y 0.000000 1.718790 0.000000 
#    z 0.000000 0.000000 1.700330 
# 
# From -- ./inp_files/10192.got.cif
#   From: 2010.05.17/outbox.cif.g08.bks.cpg/sg61_6_cif.got.tgz:10192.got - 2010.06.03 15:17:17.
