data_PCOD9459220
_publ_section_title
;
Structure prediction by ZEFSAII (Michael W. Deem and Ramdas Pophale) SiO2 
 PCOD9459220
Probable space group: P B C A
;
_chemical_formula_sum "Si O2"
_cell_formula_units_Z 64
_cell_length_a 10.530021
_cell_length_b 17.965034
_cell_length_c 15.530038
_cell_angle_alpha 90.000000
_cell_angle_beta 90.000000
_cell_angle_gamma 90.000000
_cell_volume 2937.851226
_symmetry_space_group_name_H-M "P B C A"
_symmetry_group_IT_number 61
_symmetry_cell_setting 'orthorhombic'
loop_
_space_group_symop_operation_xyz
x,y,z
1/2-x,-y,1/2+z
1/2+x,1/2-y,-z
-x,1/2+y,1/2-z
-x,-y,-z
1/2+x,y,1/2-z
1/2-x,1/2+y,z
x,1/2-y,1/2+z
loop_
_atom_site_type_symbol
_atom_site_label
_atom_site_fract_x
_atom_site_fract_y
_atom_site_fract_z
Si Si1 0.679488 0.858342 0.155718
Si Si2 0.078823 0.328069 0.442462
Si Si3 0.667218 0.824919 0.348609
Si Si4 0.067725 0.230768 0.599691
Si Si5 0.630803 0.543255 0.498558
Si Si6 0.621319 0.121372 0.286470
Si Si7 0.102635 0.649414 0.163235
Si Si8 0.613952 0.031260 0.445141
O O1 0.814938 0.821380 0.130881
O O2 0.673070 0.866183 0.257636
O O3 0.562311 0.806901 0.127645
O O4 0.662902 0.930422 0.095622
O O5 0.060613 0.255578 0.500463
O O6 0.132832 0.388043 0.509363
O O7 0.944930 0.356957 0.406929
O O8 0.807525 0.819116 0.387108
O O9 0.619401 0.738753 0.337407
O O10 0.087760 0.303057 0.660454
O O11 0.500000 0.500000 0.500000
O O12 0.615384 0.611810 0.430664
O O13 0.748816 0.495396 0.461070
O O14 0.774842 0.121574 0.280644
O O15 0.531192 0.125517 0.204154
O O16 0.586642 0.050685 0.346566
O O17 0.500000 0.000000 0.500000
#
# Coordination Sequence:
#
# PCOD9459220 Si02
#       8
#     8   8   8   8   8   8   8   8
#     4  11  21  37  57  85 119 155 197 249 298 358
#     4  10  21  36  57  86 119 154 194 246 299 361
#     4  11  21  35  59  91 122 152 191 246 305 362
#     4  10  19  35  56  89 121 151 190 238 309 368
#     4  10  23  42  60  84 118 164 207 251 297 367
#     4   9  19  34  57  87 115 149 192 250 292 363
#     4  10  20  37  59  86 118 151 200 242 305 363
#     4   9  20  40  60  80 114 152 203 248 294 354
#
# _framework density 21.78463
#
# number of rings (size 3 to 8) (size 9 to 14) (size 15 to 20)
#    0.000    2.000    1.250    4.500    1.750    2.000 
#    2.250    1.250    0.000    0.000    0.000    0.000 
#    0.000    0.000    0.000    0.000    0.000    0.000 
#
# Total GULP energy -357222.388151 kJ/mol
# GULP energy per Si atom -5581.599815 kJ/mol
# Density = 2.173505 g / cm^3
# Si number density = 21.784630 Si / 1000 Ang^3
#
#
#
# Elastic Constant Matrix: (Units=GPa)
#
#
# Indices 1 2 3 4 5 6 
#
# 1 95.1851 7.2870 2.1436 0.0000 0.0000 0.0000
# 2 7.2870 25.4302 1.5463 0.0000 0.0000 0.0000
# 3 2.1436 1.5463 75.3465 0.0000 0.0000 0.0000
# 4 0.0000 0.0000 0.0000 15.0720 0.0000 0.0000
# 5 0.0000 0.0000 0.0000 0.0000 48.9804 0.0000
# 6 0.0000 0.0000 0.0000 0.0000 0.0000 29.0396
#
#
#
# Elastic Compliance Matrix: (Units=1/GPa)
#
#
# Indices 1 2 3 4 5 6 
#
# 1 0.010746 -0.003064 -0.000243 0.000000 0.000000 0.000000
# 2 -0.003064 0.040246 -0.000739 0.000000 0.000000 0.000000
# 3 -0.000243 -0.000739 0.013294 0.000000 0.000000 0.000000
# 4 0.000000 0.000000 0.000000 0.066348 0.000000 0.000000
# 5 0.000000 0.000000 0.000000 0.000000 0.020416 0.000000
# 6 0.000000 0.000000 0.000000 0.000000 0.000000 0.034436
#
#
# Mechanical properties :
#
#
# Convention : Reuss Voigt Hill
#
# Bulk Modulus (GPa) = 17.79543 24.21286 21.00415
# Shear Modulus (GPa) = 23.55045 30.95072 27.25058
#
# Velocity S-wave (km/s) = 3.29151 3.77339 3.54066
# Velocity P-wave (km/s) = 4.75730 5.48848 5.13592
#
# Compressibility (1/GPa) = 0.05619420
#
# Stress axis : x y z
#
# Youngs Moduli (GPa) = 93.05858 24.84697 75.22140
#
# Poissons Ratio (x) = 0.07614 0.01827
# Poissons Ratio (y) = 0.28518 0.05557
# Poissons Ratio (z) = 0.02260 0.01836
#
# Static dielectric constant tensor:
#      x y z
#    x 1.811560 0.000000 0.000000 
#    y 0.000000 1.876490 0.000000 
#    z 0.000000 0.000000 1.798950 
# 
# From -- ./inp_files/9049.got.cif
#   From: 2010.05.17/outbox.cif.g08.bks.cpg/sg61_5_cif.got.tgz:9049.got - 2010.06.03 15:17:17.
