data_PCOD9459845
_publ_section_title
;
Structure prediction by ZEFSAII (Michael W. Deem and Ramdas Pophale) SiO2 
 PCOD9459845
Probable space group: P B C A
;
_chemical_formula_sum "Si O2"
_cell_formula_units_Z 48
_cell_length_a 9.958277
_cell_length_b 16.254149
_cell_length_c 10.732573
_cell_angle_alpha 90.000000
_cell_angle_beta 90.000000
_cell_angle_gamma 90.000000
_cell_volume 1737.209878
_symmetry_space_group_name_H-M "P B C A"
_symmetry_group_IT_number 61
_symmetry_cell_setting 'orthorhombic'
loop_
_space_group_symop_operation_xyz
x,y,z
1/2-x,-y,1/2+z
1/2+x,1/2-y,-z
-x,1/2+y,1/2-z
-x,-y,-z
1/2+x,y,1/2-z
1/2-x,1/2+y,z
x,1/2-y,1/2+z
loop_
_atom_site_type_symbol
_atom_site_label
_atom_site_fract_x
_atom_site_fract_y
_atom_site_fract_z
Si Si1 0.285809 0.399278 0.554346
Si Si2 0.476575 0.187715 0.886462
Si Si3 0.749128 0.540920 0.105303
Si Si4 0.014096 0.539996 0.723329
Si Si5 0.046704 0.320600 0.418999
Si Si6 0.232188 0.293042 0.797836
O O1 0.423960 0.362990 0.507892
O O2 0.276993 0.495441 0.526299
O O3 0.180004 0.370875 0.450453
O O4 0.249946 0.351518 0.679057
O O5 0.543974 0.111942 0.813222
O O6 0.349252 0.225733 0.809400
O O7 0.529144 0.268237 0.956267
O O8 0.602356 0.519414 0.168790
O O9 0.867215 0.505545 0.200527
O O10 0.760311 0.638987 0.094069
O O11 0.054732 0.605449 0.613711
O O12 0.091933 0.254918 0.312695
#
# Coordination Sequence:
#
# PCOD9459845 Si02
#       6
#     8   8   8   8   8   8
#     4   9  21  39  56  86 128 167 213 271 344 404
#     4  10  21  37  62  91 122 168 224 276 330 402
#     4  10  24  42  64  96 136 182 228 286 350 410
#     4  10  22  42  62  90 134 176 220 282 348 404
#     4  10  21  37  62  91 122 168 224 276 330 402
#     4  11  23  41  66  96 130 175 227 283 342 412
#
# _framework density 27.630514999999999
#
# number of rings (size 3 to 8) (size 9 to 14) (size 15 to 20)
#    0.000    2.000    0.000    3.000    0.000    9.333 
#    0.000    6.667    0.000    0.000    0.000    0.000 
#    0.000    0.000    0.000    0.000    0.000    0.000 
#
# Total GULP energy -267646.165927 kJ/mol
# GULP energy per Si atom -5575.961790 kJ/mol
# Density = 2.756763 g / cm^3
# Si number density = 27.630515 Si / 1000 Ang^3
#
#
#
# Elastic Constant Matrix: (Units=GPa)
#
#
# Indices 1 2 3 4 5 6 
#
# 1 75.5062 46.1435 21.2174 0.0000 0.0000 0.0000
# 2 46.1435 121.7892 3.6203 0.0000 0.0000 0.0000
# 3 21.2174 3.6203 41.4279 0.0000 0.0000 0.0000
# 4 0.0000 0.0000 0.0000 42.9709 0.0000 0.0000
# 5 0.0000 0.0000 0.0000 0.0000 36.1819 0.0000
# 6 0.0000 0.0000 0.0000 0.0000 0.0000 50.1693
#
#
#
# Elastic Compliance Matrix: (Units=1/GPa)
#
#
# Indices 1 2 3 4 5 6 
#
# 1 0.020622 -0.007519 -0.009905 0.000000 0.000000 0.000000
# 2 -0.007519 0.010974 0.002892 0.000000 0.000000 0.000000
# 3 -0.009905 0.002892 0.028958 0.000000 0.000000 0.000000
# 4 0.000000 0.000000 0.000000 0.023272 0.000000 0.000000
# 5 0.000000 0.000000 0.000000 0.000000 0.027638 0.000000
# 6 0.000000 0.000000 0.000000 0.000000 0.000000 0.019933
#
#
# Mechanical properties :
#
#
# Convention : Reuss Voigt Hill
#
# Bulk Modulus (GPa) = 31.75528 42.29838 37.02683
# Shear Modulus (GPa) = 29.24721 37.04723 33.14722
#
# Velocity S-wave (km/s) = 3.25701 3.66568 3.46737
# Velocity P-wave (km/s) = 5.06576 5.76698 5.42771
#
# Compressibility (1/GPa) = 0.03149083
#
# Stress axis : x y z
#
# Youngs Moduli (GPa) = 48.49163 91.12693 34.53245
#
# Poissons Ratio (x) = 0.68517 0.34203
# Poissons Ratio (y) = 0.36460 -0.09986
# Poissons Ratio (z) = 0.48029 -0.26353
#
# Static dielectric constant tensor:
#      x y z
#    x 2.157970 0.000000 0.000000 
#    y 0.000000 2.122230 0.000000 
#    z 0.000000 0.000000 2.465330 
# 
# From -- ./inp_files/5260.got.cif
#   From: 2010.05.17/outbox.cif.g08.bks.cpg/sg61_3_cif.got.tgz:5260.got - 2010.06.03 15:17:17.
