data_PCOD9459124
_publ_section_title
;
Structure prediction by ZEFSAII (Michael W. Deem and Ramdas Pophale) SiO2 
 PCOD9459124
Probable space group: P B C A
;
_chemical_formula_sum "Si O2"
_cell_formula_units_Z 64
_cell_length_a 11.224491
_cell_length_b 17.332204
_cell_length_c 13.825086
_cell_angle_alpha 90.000000
_cell_angle_beta 90.000000
_cell_angle_gamma 90.000000
_cell_volume 2689.603676
_symmetry_space_group_name_H-M "P B C A"
_symmetry_group_IT_number 61
_symmetry_cell_setting 'orthorhombic'
loop_
_space_group_symop_operation_xyz
x,y,z
1/2-x,-y,1/2+z
1/2+x,1/2-y,-z
-x,1/2+y,1/2-z
-x,-y,-z
1/2+x,y,1/2-z
1/2-x,1/2+y,z
x,1/2-y,1/2+z
loop_
_atom_site_type_symbol
_atom_site_label
_atom_site_fract_x
_atom_site_fract_y
_atom_site_fract_z
Si Si1 0.360838 0.605997 0.136077
Si Si2 0.952472 0.626428 0.010276
Si Si3 0.905689 0.012327 0.161005
Si Si4 0.839783 0.545541 0.159858
Si Si5 0.641803 0.861029 0.143710
Si Si6 0.065006 0.638497 0.653034
Si Si7 0.133907 0.286925 0.455811
Si Si8 0.706140 0.035756 0.869004
O O1 0.496693 0.578190 0.148152
O O2 0.320228 0.601650 0.247923
O O3 0.280081 0.537191 0.093045
O O4 0.351201 0.675208 0.061671
O O5 0.955830 0.580410 0.109690
O O6 0.861409 0.695716 0.030950
O O7 0.893942 0.565224 0.938856
O O8 0.069962 0.651550 0.955284
O O9 0.853959 0.988732 0.266864
O O10 0.978526 0.935504 0.133959
O O11 0.787665 0.041545 0.106164
O O12 0.859238 0.453064 0.171073
O O13 0.570965 0.828819 0.236951
O O14 0.771053 0.824417 0.119739
O O15 0.198086 0.605610 0.639639
O O16 0.000664 0.698974 0.583837
#
# Coordination Sequence:
#
# PCOD9459124 Si02
#       8
#     8   8   8   8   8   8   8   8
#     4  10  23  42  70 102 143 176 242 306 345 420
#     4  12  28  42  69 100 148 192 234 284 369 433
#     4  10  18  40  72 103 126 173 239 292 352 396
#     4  11  22  43  68 105 134 187 244 300 346 410
#     4  12  24  49  73  98 146 185 247 299 349 427
#     4  11  21  42  73  97 137 178 232 294 360 418
#     4  12  29  45  66 111 145 194 233 285 374 436
#     4  10  20  40  70 101 131 178 238 295 352 413
#
# _framework density 23.795328999999999
#
# number of rings (size 3 to 8) (size 9 to 14) (size 15 to 20)
#    0.000    1.000    6.250    1.125    3.500    4.000 
#    0.000    0.000    0.000    0.000    0.000    0.000 
#    0.000    0.000    0.000    0.000    0.000    0.000 
#
# Total GULP energy -356810.832288 kJ/mol
# GULP energy per Si atom -5575.169255 kJ/mol
# Density = 2.374117 g / cm^3
# Si number density = 23.795329 Si / 1000 Ang^3
#
#
#
# Elastic Constant Matrix: (Units=GPa)
#
#
# Indices 1 2 3 4 5 6 
#
# 1 70.5459 5.0077 -1.2140 0.0000 0.0000 0.0000
# 2 5.0077 64.5213 36.9934 0.0000 0.0000 0.0000
# 3 -1.2140 36.9934 75.5748 0.0000 0.0000 0.0000
# 4 0.0000 0.0000 0.0000 3.0659 0.0000 0.0000
# 5 0.0000 0.0000 0.0000 0.0000 21.2712 0.0000
# 6 0.0000 0.0000 0.0000 0.0000 0.0000 17.2435
#
#
#
# Elastic Compliance Matrix: (Units=1/GPa)
#
#
# Indices 1 2 3 4 5 6 
#
# 1 0.014316 -0.001728 0.001076 0.000000 0.000000 0.000000
# 2 -0.001728 0.021754 -0.010676 0.000000 0.000000 0.000000
# 3 0.001076 -0.010676 0.018475 0.000000 0.000000 0.000000
# 4 0.000000 0.000000 0.000000 0.326168 0.000000 0.000000
# 5 0.000000 0.000000 0.000000 0.000000 0.047012 0.000000
# 6 0.000000 0.000000 0.000000 0.000000 0.000000 0.057993
#
#
# Mechanical properties :
#
#
# Convention : Reuss Voigt Hill
#
# Bulk Modulus (GPa) = 31.35897 32.46847 31.91372
# Shear Modulus (GPa) = 9.63382 19.63978 14.63680
#
# Velocity S-wave (km/s) = 2.01430 2.87603 2.48284
# Velocity P-wave (km/s) = 4.31476 4.97024 4.65405
#
# Compressibility (1/GPa) = 0.03188880
#
# Stress axis : x y z
#
# Youngs Moduli (GPa) = 69.85021 45.96830 54.12670
#
# Poissons Ratio (x) = 0.07943 -0.05823
# Poissons Ratio (y) = 0.12070 0.57787
# Poissons Ratio (z) = -0.07515 0.49077
#
# Static dielectric constant tensor:
#      x y z
#    x 1.973860 0.000000 0.000000 
#    y 0.000000 1.893480 0.000000 
#    z 0.000000 0.000000 2.071490 
# 
# From -- ./inp_files/7645.got.cif
#   From: 2010.05.17/outbox.cif.g08.bks.cpg/sg61_4_cif.got.tgz:7645.got - 2010.06.03 15:17:17.
