data_PCOD9459767
_publ_section_title
;
Structure prediction by ZEFSAII (Michael W. Deem and Ramdas Pophale) SiO2 
 PCOD9459767
Probable space group: P B C A
;
_chemical_formula_sum "Si O2"
_cell_formula_units_Z 64
_cell_length_a 10.882353
_cell_length_b 28.453493
_cell_length_c 10.109112
_cell_angle_alpha 90.000000
_cell_angle_beta 90.000000
_cell_angle_gamma 90.000000
_cell_volume 3130.195093
_symmetry_space_group_name_H-M "P B C A"
_symmetry_group_IT_number 61
_symmetry_cell_setting 'orthorhombic'
loop_
_space_group_symop_operation_xyz
x,y,z
1/2-x,-y,1/2+z
1/2+x,1/2-y,-z
-x,1/2+y,1/2-z
-x,-y,-z
1/2+x,y,1/2-z
1/2-x,1/2+y,z
x,1/2-y,1/2+z
loop_
_atom_site_type_symbol
_atom_site_label
_atom_site_fract_x
_atom_site_fract_y
_atom_site_fract_z
Si Si1 0.096943 0.399209 0.466349
Si Si2 0.604101 0.078120 0.996385
Si Si3 0.661957 0.632159 0.882133
Si Si4 0.947332 0.343698 0.102373
Si Si5 0.352481 0.962382 0.716488
Si Si6 0.819309 0.781253 0.337851
Si Si7 0.216175 0.203500 0.957664
Si Si8 0.902145 0.979853 0.251691
O O1 0.147150 0.425428 0.596071
O O2 0.157683 0.348272 0.448604
O O3 0.117851 0.435136 0.344634
O O4 0.952283 0.386400 0.466912
O O5 0.633587 0.062676 0.142707
O O6 0.723323 0.100339 0.923858
O O7 0.498488 0.116974 0.994067
O O8 0.562832 0.037226 0.898110
O O9 0.619109 0.631641 0.728216
O O10 0.708606 0.686111 0.895422
O O11 0.859237 0.308021 0.027433
O O12 0.061296 0.314132 0.157052
O O13 0.477993 0.992746 0.696976
O O14 0.225421 0.991685 0.729531
O O15 0.833735 0.735416 0.425915
O O16 0.797011 0.771376 0.184000
#
# Coordination Sequence:
#
# PCOD9459767 Si02
#       8
#     8   8   8   8   8   8   8   8
#     4  12  24  45  70  95 137 189 227 271 354 416
#     4  11  23  42  69  98 136 175 230 286 348 397
#     4  10  20  44  69  95 132 188 226 267 335 438
#     4  10  21  41  69  95 130 179 229 268 336 423
#     4  12  28  41  66 107 139 176 235 301 342 399
#     4  10  23  42  65 103 128 177 226 275 341 394
#     4  11  25  40  69  97 134 174 225 277 335 414
#     4  12  24  45  69  96 137 186 235 284 349 422
#
# _framework density 20.446010000000001
#
# number of rings (size 3 to 8) (size 9 to 14) (size 15 to 20)
#    0.000    1.000    2.500    4.500    5.250    2.000 
#    2.250    0.000    0.000    0.000    0.000    0.000 
#    0.000    0.000    0.000    0.000    0.000    0.000 
#
# Total GULP energy -357458.002803 kJ/mol
# GULP energy per Si atom -5585.281294 kJ/mol
# Density = 2.039947 g / cm^3
# Si number density = 20.446010 Si / 1000 Ang^3
#
#
#
# Elastic Constant Matrix: (Units=GPa)
#
#
# Indices 1 2 3 4 5 6 
#
# 1 69.0087 31.6043 8.2802 0.0000 0.0000 0.0000
# 2 31.6043 95.0421 61.6968 0.0000 0.0000 0.0000
# 3 8.2802 61.6968 110.1254 0.0000 0.0000 0.0000
# 4 0.0000 0.0000 0.0000 23.3525 0.0000 0.0000
# 5 0.0000 0.0000 0.0000 0.0000 15.8352 0.0000
# 6 0.0000 0.0000 0.0000 0.0000 0.0000 30.0645
#
#
#
# Elastic Compliance Matrix: (Units=1/GPa)
#
#
# Indices 1 2 3 4 5 6 
#
# 1 0.017742 -0.007911 0.003098 0.000000 0.000000 0.000000
# 2 -0.007911 0.020062 -0.010645 0.000000 0.000000 0.000000
# 3 0.003098 -0.010645 0.014811 0.000000 0.000000 0.000000
# 4 0.000000 0.000000 0.000000 0.042822 0.000000 0.000000
# 5 0.000000 0.000000 0.000000 0.000000 0.063151 0.000000
# 6 0.000000 0.000000 0.000000 0.000000 0.000000 0.033262
#
#
# Mechanical properties :
#
#
# Convention : Reuss Voigt Hill
#
# Bulk Modulus (GPa) = 46.08241 53.03765 49.56003
# Shear Modulus (GPa) = 21.73917 25.35677 23.54797
#
# Velocity S-wave (km/s) = 3.26429 3.52544 3.39737
# Velocity P-wave (km/s) = 6.06588 6.52444 6.29933
#
# Compressibility (1/GPa) = 0.02170025
#
# Stress axis : x y z
#
# Youngs Moduli (GPa) = 56.36290 49.84430 67.51558
#
# Poissons Ratio (x) = 0.39431 -0.20916
# Poissons Ratio (y) = 0.44588 0.71870
# Poissons Ratio (z) = -0.17461 0.53059
#
# Static dielectric constant tensor:
#      x y z
#    x 1.811280 0.000000 0.000000 
#    y 0.000000 1.732820 0.000000 
#    z 0.000000 0.000000 1.688700 
# 
# From -- ./inp_files/2435.got.cif
#   From: 2010.05.17/outbox.cif.g08.bks.cpg/sg61_2_cif.got.tgz:2435.got - 2010.06.03 15:17:17.
