data_PCOD9459551
_publ_section_title
;
Structure prediction by ZEFSAII (Michael W. Deem and Ramdas Pophale) SiO2 
 PCOD9459551
Probable space group: P B C A
;
_chemical_formula_sum "Si O2"
_cell_formula_units_Z 64
_cell_length_a 8.768287
_cell_length_b 24.207059
_cell_length_c 14.805500
_cell_angle_alpha 90.000000
_cell_angle_beta 90.000000
_cell_angle_gamma 90.000000
_cell_volume 3142.533122
_symmetry_space_group_name_H-M "P B C A"
_symmetry_group_IT_number 61
_symmetry_cell_setting 'orthorhombic'
loop_
_space_group_symop_operation_xyz
x,y,z
1/2-x,-y,1/2+z
1/2+x,1/2-y,-z
-x,1/2+y,1/2-z
-x,-y,-z
1/2+x,y,1/2-z
1/2-x,1/2+y,z
x,1/2-y,1/2+z
loop_
_atom_site_type_symbol
_atom_site_label
_atom_site_fract_x
_atom_site_fract_y
_atom_site_fract_z
Si Si1 0.391595 0.235935 0.796176
Si Si2 0.035121 0.122503 0.663568
Si Si3 0.187920 0.763155 0.497460
Si Si4 0.686429 0.398257 0.690471
Si Si5 0.811318 0.053041 0.781533
Si Si6 0.683016 0.195606 0.331208
Si Si7 0.449524 0.473090 0.792974
Si Si8 0.899149 0.827680 0.519620
O O1 0.488421 0.179707 0.786983
O O2 0.287083 0.256814 0.715322
O O3 0.510627 0.285312 0.815061
O O4 0.298493 0.228114 0.889782
O O5 0.207968 0.102418 0.680275
O O6 0.028498 0.133763 0.556897
O O7 0.913989 0.078125 0.700828
O O8 0.280880 0.803740 0.563148
O O9 0.244446 0.701052 0.514085
O O10 0.014987 0.776215 0.525169
O O11 0.717011 0.360834 0.778977
O O12 0.555186 0.441227 0.720283
O O13 0.843870 0.427349 0.658724
O O14 0.625430 0.358383 0.612665
O O15 0.681771 0.010355 0.751046
O O16 0.932850 0.016480 0.839141
#
# Coordination Sequence:
#
# PCOD9459551 Si02
#       8
#     8   8   8   8   8   8   8   8
#     4  11  23  36  57  92 123 166 204 243 294 376
#     4  10  20  38  60  86 118 163 198 254 315 361
#     4  11  22  40  52  88 134 167 199 253 292 363
#     4  11  21  38  62  92 115 166 204 250 313 376
#     4   9  19  40  62  86 114 149 211 263 310 370
#     4  12  22  37  62  89 127 170 203 243 306 368
#     4   9  20  38  64  86 113 149 207 265 308 366
#     4  11  23  39  57  87 131 161 207 254 300 375
#
# _framework density 20.365736999999999
#
# number of rings (size 3 to 8) (size 9 to 14) (size 15 to 20)
#    0.000    1.500    3.750    3.000    0.000    0.000 
#    0.000    6.250    0.000    0.000    0.000    0.000 
#    0.000    0.000    0.000    0.000    0.000    0.000 
#
# Total GULP energy -356550.821772 kJ/mol
# GULP energy per Si atom -5571.106590 kJ/mol
# Density = 2.031938 g / cm^3
# Si number density = 20.365737 Si / 1000 Ang^3
#
#
#
# Elastic Constant Matrix: (Units=GPa)
#
#
# Indices 1 2 3 4 5 6 
#
# 1 99.7245 32.7397 23.8357 0.0000 0.0000 0.0000
# 2 32.7397 83.6466 16.3101 0.0000 0.0000 0.0000
# 3 23.8357 16.3101 52.5288 0.0000 0.0000 0.0000
# 4 0.0000 0.0000 0.0000 10.4706 0.0000 0.0000
# 5 0.0000 0.0000 0.0000 0.0000 24.0234 0.0000
# 6 0.0000 0.0000 0.0000 0.0000 0.0000 49.0535
#
#
#
# Elastic Compliance Matrix: (Units=1/GPa)
#
#
# Indices 1 2 3 4 5 6 
#
# 1 0.012386 -0.003994 -0.004380 0.000000 0.000000 0.000000
# 2 -0.003994 0.014013 -0.002539 0.000000 0.000000 0.000000
# 3 -0.004380 -0.002539 0.021813 0.000000 0.000000 0.000000
# 4 0.000000 0.000000 0.000000 0.095505 0.000000 0.000000
# 5 0.000000 0.000000 0.000000 0.000000 0.041626 0.000000
# 6 0.000000 0.000000 0.000000 0.000000 0.000000 0.020386
#
#
# Mechanical properties :
#
#
# Convention : Reuss Voigt Hill
#
# Bulk Modulus (GPa) = 37.89818 42.40788 40.15303
# Shear Modulus (GPa) = 21.15502 27.57712 24.36607
#
# Velocity S-wave (km/s) = 3.22647 3.68379 3.46269
# Velocity P-wave (km/s) = 5.70345 6.24197 5.97877
#
# Compressibility (1/GPa) = 0.02638649
#
# Stress axis : x y z
#
# Youngs Moduli (GPa) = 80.73817 71.36083 45.84413
#
# Poissons Ratio (x) = 0.28500 0.20080
# Poissons Ratio (y) = 0.32245 0.11639
# Poissons Ratio (z) = 0.35365 0.18118
#
# Static dielectric constant tensor:
#      x y z
#    x 1.787220 0.000000 0.000000 
#    y 0.000000 1.798870 0.000000 
#    z 0.000000 0.000000 1.695550 
# 
# From -- ./inp_files/7225.got.cif
#   From: 2010.05.17/outbox.cif.g08.bks.cpg/sg61_4_cif.got.tgz:7225.got - 2010.06.03 15:17:17.
