data_PCOD9459535
_publ_section_title
;
Structure prediction by ZEFSAII (Michael W. Deem and Ramdas Pophale) SiO2 
 PCOD9459535
Probable space group: P B C A
;
_chemical_formula_sum "Si O2"
_cell_formula_units_Z 48
_cell_length_a 11.942616
_cell_length_b 17.918683
_cell_length_c 8.129044
_cell_angle_alpha 90.000000
_cell_angle_beta 90.000000
_cell_angle_gamma 90.000000
_cell_volume 1739.582496
_symmetry_space_group_name_H-M "P B C A"
_symmetry_group_IT_number 61
_symmetry_cell_setting 'orthorhombic'
loop_
_space_group_symop_operation_xyz
x,y,z
1/2-x,-y,1/2+z
1/2+x,1/2-y,-z
-x,1/2+y,1/2-z
-x,-y,-z
1/2+x,y,1/2-z
1/2-x,1/2+y,z
x,1/2-y,1/2+z
loop_
_atom_site_type_symbol
_atom_site_label
_atom_site_fract_x
_atom_site_fract_y
_atom_site_fract_z
Si Si1 0.656079 0.977195 0.758392
Si Si2 0.588620 0.603846 0.956288
Si Si3 0.176365 0.312700 0.028261
Si Si4 0.979759 0.760858 0.194705
Si Si5 0.132953 0.948983 0.387371
Si Si6 0.815768 0.173197 0.389971
O O1 0.574227 0.942635 0.621936
O O2 0.727918 0.902185 0.805562
O O3 0.739060 0.032463 0.665606
O O4 0.612170 0.997297 0.943106
O O5 0.719353 0.631786 0.955794
O O6 0.513661 0.677835 0.943175
O O7 0.572983 0.555862 0.788976
O O8 0.230475 0.230594 0.037939
O O9 0.089911 0.309878 0.177677
O O10 0.100908 0.305934 0.866440
O O11 0.098528 0.719324 0.224123
O O12 0.121176 0.865270 0.457262
#
# Coordination Sequence:
#
# PCOD9459535 Si02
#       6
#     8   8   8   8   8   8
#     4  10  20  37  65  89 115 164 209 244 306 358
#     4  11  21  40  64  92 125 157 202 252 304 367
#     4  11  22  37  62  94 124 160 195 247 314 365
#     4  11  22  37  62  94 124 160 195 247 314 365
#     4  10  20  37  65  89 115 166 207 248 304 358
#     4   9  21  38  60  92 125 153 206 250 296 369
#
# _framework density 27.592827
#
# number of rings (size 3 to 8) (size 9 to 14) (size 15 to 20)
#    1.000    0.667    1.667    4.000    0.000    5.333 
#    0.000    0.000    0.000   40.000    0.000    0.000 
#    0.000    0.000    0.000    0.000    0.000    0.000 
#
# Total GULP energy -267878.895633 kJ/mol
# GULP energy per Si atom -5580.810326 kJ/mol
# Density = 2.753002 g / cm^3
# Si number density = 27.592827 Si / 1000 Ang^3
#
#
#
# Elastic Constant Matrix: (Units=GPa)
#
#
# Indices 1 2 3 4 5 6 
#
# 1 90.2740 38.4585 20.3220 0.0000 0.0000 0.0000
# 2 38.4585 68.0830 25.9268 0.0000 0.0000 0.0000
# 3 20.3220 25.9268 158.0098 0.0000 0.0000 0.0000
# 4 0.0000 0.0000 0.0000 39.6276 0.0000 0.0000
# 5 0.0000 0.0000 0.0000 0.0000 41.1781 0.0000
# 6 0.0000 0.0000 0.0000 0.0000 0.0000 54.0983
#
#
#
# Elastic Compliance Matrix: (Units=1/GPa)
#
#
# Indices 1 2 3 4 5 6 
#
# 1 0.014634 -0.008053 -0.000561 0.000000 0.000000 0.000000
# 2 -0.008053 0.020098 -0.002262 0.000000 0.000000 0.000000
# 3 -0.000561 -0.002262 0.006772 0.000000 0.000000 0.000000
# 4 0.000000 0.000000 0.000000 0.025235 0.000000 0.000000
# 5 0.000000 0.000000 0.000000 0.000000 0.024285 0.000000
# 6 0.000000 0.000000 0.000000 0.000000 0.000000 0.018485
#
#
# Mechanical properties :
#
#
# Convention : Reuss Voigt Hill
#
# Bulk Modulus (GPa) = 50.62552 53.97573 52.30063
# Shear Modulus (GPa) = 36.27246 42.42476 39.34861
#
# Velocity S-wave (km/s) = 3.62962 3.92539 3.78040
# Velocity P-wave (km/s) = 5.99606 6.33631 6.16853
#
# Compressibility (1/GPa) = 0.01975288
#
# Stress axis : x y z
#
# Youngs Moduli (GPa) = 68.33216 49.75520 147.66649
#
# Poissons Ratio (x) = 0.40068 0.08281
# Poissons Ratio (y) = 0.55028 0.33404
# Poissons Ratio (z) = 0.03832 0.11255
#
# Static dielectric constant tensor:
#      x y z
#    x 2.084780 0.000000 0.000000 
#    y 0.000000 2.119460 0.000000 
#    z 0.000000 0.000000 2.292310 
# 
# From -- ./inp_files/2275.got.cif
#   From: 2010.05.17/outbox.cif.g08.bks.cpg/sg61_2_cif.got.tgz:2275.got - 2010.06.03 15:17:17.
