data_PCOD9459464
_publ_section_title
;
Structure prediction by ZEFSAII (Michael W. Deem and Ramdas Pophale) SiO2 
 PCOD9459464
Probable space group: P B C A
;
_chemical_formula_sum "Si O2"
_cell_formula_units_Z 40
_cell_length_a 12.963997
_cell_length_b 10.221803
_cell_length_c 10.956042
_cell_angle_alpha 90.000000
_cell_angle_beta 90.000000
_cell_angle_gamma 90.000000
_cell_volume 1451.844545
_symmetry_space_group_name_H-M "P B C A"
_symmetry_group_IT_number 61
_symmetry_cell_setting 'orthorhombic'
loop_
_space_group_symop_operation_xyz
x,y,z
1/2-x,-y,1/2+z
1/2+x,1/2-y,-z
-x,1/2+y,1/2-z
-x,-y,-z
1/2+x,y,1/2-z
1/2-x,1/2+y,z
x,1/2-y,1/2+z
loop_
_atom_site_type_symbol
_atom_site_label
_atom_site_fract_x
_atom_site_fract_y
_atom_site_fract_z
Si Si1 0.089169 0.207175 0.480258
Si Si2 0.743701 0.689678 0.686075
Si Si3 0.248789 0.061267 0.168493
Si Si4 0.962239 0.001936 0.347244
Si Si5 0.430422 0.394590 0.145006
O O1 0.200945 0.265616 0.440602
O O2 0.066909 0.144988 0.611430
O O3 0.000220 0.307797 0.440992
O O4 0.060237 0.074247 0.405470
O O5 0.773924 0.541977 0.721425
O O6 0.624849 0.680522 0.738005
O O7 0.786266 0.803768 0.774902
O O8 0.360383 0.079532 0.110694
O O9 0.164906 0.979104 0.092935
O O10 0.992724 0.997559 0.206952
#
# Coordination Sequence:
#
# PCOD9459464 Si02
#       5
#     8   8   8   8   8
#     4  11  21  36  60  88 118 156 198 241 296 356
#     4  10  20  36  60  84 114 155 194 239 292 348
#     4  10  20  36  60  84 114 155 194 239 292 348
#     4  11  21  36  60  88 118 156 198 241 296 356
#     4  10  20  36  60  82 116 152 196 240 294 344
#
# _framework density 27.551159999999999
#
# number of rings (size 3 to 8) (size 9 to 14) (size 15 to 20)
#    1.200    0.400    6.000    0.000    0.000    1.600 
#    0.000    2.000    0.000    3.600    0.000    0.000 
#    0.000    0.000    0.000    0.000    0.000    0.000 
#
# Total GULP energy -222676.306923 kJ/mol
# GULP energy per Si atom -5566.907673 kJ/mol
# Density = 2.748845 g / cm^3
# Si number density = 27.551160 Si / 1000 Ang^3
#
#
#
# Elastic Constant Matrix: (Units=GPa)
#
#
# Indices 1 2 3 4 5 6 
#
# 1 137.0941 27.6790 23.0190 0.0000 0.0000 0.0000
# 2 27.6790 114.8250 23.0772 0.0000 0.0000 0.0000
# 3 23.0190 23.0772 28.4826 0.0000 0.0000 0.0000
# 4 0.0000 0.0000 0.0000 42.9939 0.0000 0.0000
# 5 0.0000 0.0000 0.0000 0.0000 32.9235 0.0000
# 6 0.0000 0.0000 0.0000 0.0000 0.0000 54.6157
#
#
#
# Elastic Compliance Matrix: (Units=1/GPa)
#
#
# Indices 1 2 3 4 5 6 
#
# 1 0.008500 -0.000798 -0.006223 0.000000 0.000000 0.000000
# 2 -0.000798 0.010478 -0.007844 0.000000 0.000000 0.000000
# 3 -0.006223 -0.007844 0.046494 0.000000 0.000000 0.000000
# 4 0.000000 0.000000 0.000000 0.023259 0.000000 0.000000
# 5 0.000000 0.000000 0.000000 0.000000 0.030373 0.000000
# 6 0.000000 0.000000 0.000000 0.000000 0.000000 0.018310
#
#
# Mechanical properties :
#
#
# Convention : Reuss Voigt Hill
#
# Bulk Modulus (GPa) = 27.97891 47.55022 37.76456
# Shear Modulus (GPa) = 27.92374 39.88170 33.90272
#
# Velocity S-wave (km/s) = 3.18704 3.80880 3.51171
# Velocity P-wave (km/s) = 4.87035 6.05301 5.49360
#
# Compressibility (1/GPa) = 0.03574121
#
# Stress axis : x y z
#
# Youngs Moduli (GPa) = 117.64262 95.43941 21.50818
#
# Poissons Ratio (x) = 0.07620 0.13384
# Poissons Ratio (y) = 0.09392 0.16871
# Poissons Ratio (z) = 0.73208 0.74864
#
# Static dielectric constant tensor:
#      x y z
#    x 2.222250 0.000000 0.000000 
#    y 0.000000 2.193500 0.000000 
#    z 0.000000 0.000000 2.216330 
# 
# From -- ./inp_files/5144.got.cif
#   From: 2010.05.17/outbox.cif.g08.bks.cpg/sg61_3_cif.got.tgz:5144.got - 2010.06.03 15:17:17.
