data_PCOD9459847
_publ_section_title
;
Structure prediction by ZEFSAII (Michael W. Deem and Ramdas Pophale) SiO2 
 PCOD9459847
Probable space group: P B C A
;
_chemical_formula_sum "Si O2"
_cell_formula_units_Z 56
_cell_length_a 15.588085
_cell_length_b 11.454361
_cell_length_c 13.614168
_cell_angle_alpha 90.000000
_cell_angle_beta 90.000000
_cell_angle_gamma 90.000000
_cell_volume 2430.830838
_symmetry_space_group_name_H-M "P B C A"
_symmetry_group_IT_number 61
_symmetry_cell_setting 'orthorhombic'
loop_
_space_group_symop_operation_xyz
x,y,z
1/2-x,-y,1/2+z
1/2+x,1/2-y,-z
-x,1/2+y,1/2-z
-x,-y,-z
1/2+x,y,1/2-z
1/2-x,1/2+y,z
x,1/2-y,1/2+z
loop_
_atom_site_type_symbol
_atom_site_label
_atom_site_fract_x
_atom_site_fract_y
_atom_site_fract_z
Si Si1 0.941269 0.382409 0.627357
Si Si2 0.804009 0.967211 0.191263
Si Si3 0.559975 0.439599 0.713209
Si Si4 0.184735 0.357330 0.934232
Si Si5 0.152656 0.742693 0.530961
Si Si6 0.661705 0.819766 0.243109
Si Si7 0.882156 0.488956 0.896612
O O1 0.896986 0.509095 0.643995
O O2 0.921409 0.335799 0.519429
O O3 0.887075 0.286070 0.690420
O O4 0.032123 0.389471 0.680737
O O5 0.745135 0.045479 0.119669
O O6 0.815394 0.010419 0.304753
O O7 0.757652 0.843743 0.203782
O O8 0.610998 0.345164 0.647933
O O9 0.612788 0.558432 0.726785
O O10 0.474649 0.477051 0.653700
O O11 0.256349 0.271093 0.976946
O O12 0.135931 0.404135 0.031453
O O13 0.163829 0.705146 0.642514
O O14 0.127761 0.877190 0.533673
#
# Coordination Sequence:
#
# PCOD9459847 Si02
#       7
#     8   8   8   8   8   8   8
#     4  10  22  41  60  89 128 164 204 261 311 369
#     4   9  19  36  60  89 119 156 207 254 299 363
#     4  10  22  39  60  89 129 161 203 255 310 378
#     4  10  21  37  62  92 116 156 213 254 305 375
#     4  11  21  37  68  86 118 169 207 251 316 361
#     4  11  20  40  64  87 123 167 199 256 316 354
#     4  11  20  40  63  88 124 166 207 251 314 374
#
# _framework density 23.037389999999998
#
# number of rings (size 3 to 8) (size 9 to 14) (size 15 to 20)
#    0.000    1.714    4.286    2.143    0.000    0.571 
#    0.000   18.571    0.000    0.000    0.000    0.000 
#    0.000    0.000    0.000    0.000    0.000    0.000 
#
# Total GULP energy -312401.201313 kJ/mol
# GULP energy per Si atom -5578.592881 kJ/mol
# Density = 2.298496 g / cm^3
# Si number density = 23.037390 Si / 1000 Ang^3
#
#
#
# Elastic Constant Matrix: (Units=GPa)
#
#
# Indices 1 2 3 4 5 6 
#
# 1 55.2857 11.0349 7.4329 0.0000 0.0000 0.0000
# 2 11.0349 45.8743 6.3168 0.0000 0.0000 0.0000
# 3 7.4329 6.3168 75.1069 0.0000 0.0000 0.0000
# 4 0.0000 0.0000 0.0000 31.4547 0.0000 0.0000
# 5 0.0000 0.0000 0.0000 0.0000 24.8336 0.0000
# 6 0.0000 0.0000 0.0000 0.0000 0.0000 27.8303
#
#
#
# Elastic Compliance Matrix: (Units=1/GPa)
#
#
# Indices 1 2 3 4 5 6 
#
# 1 0.019172 -0.004401 -0.001527 0.000000 0.000000 0.000000
# 2 -0.004401 0.023065 -0.001504 0.000000 0.000000 0.000000
# 3 -0.001527 -0.001504 0.013592 0.000000 0.000000 0.000000
# 4 0.000000 0.000000 0.000000 0.031792 0.000000 0.000000
# 5 0.000000 0.000000 0.000000 0.000000 0.040268 0.000000
# 6 0.000000 0.000000 0.000000 0.000000 0.000000 0.035932
#
#
# Mechanical properties :
#
#
# Convention : Reuss Voigt Hill
#
# Bulk Modulus (GPa) = 24.41246 25.09290 24.75268
# Shear Modulus (GPa) = 25.99565 26.92253 26.45909
#
# Velocity S-wave (km/s) = 3.36283 3.42225 3.39267
# Velocity P-wave (km/s) = 5.06932 5.15089 5.11027
#
# Compressibility (1/GPa) = 0.04096269
#
# Stress axis : x y z
#
# Youngs Moduli (GPa) = 52.16026 43.35659 73.57268
#
# Poissons Ratio (x) = 0.19083 0.11236
# Poissons Ratio (y) = 0.22958 0.11067
# Poissons Ratio (z) = 0.07966 0.06522
#
# Static dielectric constant tensor:
#      x y z
#    x 1.928930 0.000000 0.000000 
#    y 0.000000 1.895510 0.000000 
#    z 0.000000 0.000000 1.876940 
# 
# From -- ./inp_files/7847.got.cif
#   From: 2010.05.17/outbox.cif.g08.bks.cpg/sg61_4_cif.got.tgz:7847.got - 2010.06.03 15:17:17.
