data_PCOD9459546
_publ_section_title
;
Structure prediction by ZEFSAII (Michael W. Deem and Ramdas Pophale) SiO2 
 PCOD9459546
Probable space group: P B C A
;
_chemical_formula_sum "Si O2"
_cell_formula_units_Z 64
_cell_length_a 8.291471
_cell_length_b 14.721394
_cell_length_c 22.637834
_cell_angle_alpha 90.000000
_cell_angle_beta 90.000000
_cell_angle_gamma 90.000000
_cell_volume 2763.219552
_symmetry_space_group_name_H-M "P B C A"
_symmetry_group_IT_number 61
_symmetry_cell_setting 'orthorhombic'
loop_
_space_group_symop_operation_xyz
x,y,z
1/2-x,-y,1/2+z
1/2+x,1/2-y,-z
-x,1/2+y,1/2-z
-x,-y,-z
1/2+x,y,1/2-z
1/2-x,1/2+y,z
x,1/2-y,1/2+z
loop_
_atom_site_type_symbol
_atom_site_label
_atom_site_fract_x
_atom_site_fract_y
_atom_site_fract_z
Si Si1 0.825843 0.787458 0.312719
Si Si2 0.591574 0.056145 0.186048
Si Si3 0.773319 0.736412 0.938520
Si Si4 0.530571 0.248402 0.688208
Si Si5 0.189836 0.976084 0.429515
Si Si6 0.727369 0.997960 0.311919
Si Si7 0.019653 0.587854 0.597093
Si Si8 0.497559 0.645640 0.483003
O O1 0.880885 0.765622 0.379060
O O2 0.932422 0.769361 0.256562
O O3 0.659580 0.732569 0.311135
O O4 0.771295 0.891520 0.305750
O O5 0.626955 0.161249 0.171006
O O6 0.675120 0.987044 0.140994
O O7 0.644082 0.034991 0.252871
O O8 0.400781 0.041710 0.178288
O O9 0.662327 0.644858 0.934351
O O10 0.644735 0.817383 0.943841
O O11 0.886884 0.728310 0.995031
O O12 0.551688 0.162913 0.644265
O O13 0.374821 0.950939 0.441765
O O14 0.077089 0.900997 0.459535
O O15 0.115958 0.070299 0.453593
O O16 0.603271 0.994254 0.366466
#
# Coordination Sequence:
#
# PCOD9459546 Si02
#       8
#     8   8   8   8   8   8   8   8
#     4  10  20  38  59  83 119 157 195 238 302 366
#     4  12  21  36  57  88 127 155 197 250 304 364
#     4  10  22  43  63  88 121 161 207 266 314 362
#     4  10  21  35  58  89 122 155 192 241 300 374
#     4  11  23  40  63  90 120 162 209 258 308 366
#     4  10  21  36  59  88 123 164 199 243 306 382
#     4  10  22  41  63  88 122 159 203 251 313 377
#     4  11  24  41  64  88 118 162 212 259 309 361
#
# _framework density 23.161390000000001
#
# number of rings (size 3 to 8) (size 9 to 14) (size 15 to 20)
#    0.000    1.750    0.000    7.500    0.000    1.500 
#    0.000    6.250    0.000    0.000    0.000    0.000 
#    0.000    0.000    0.000    0.000    0.000    0.000 
#
# Total GULP energy -357472.143862 kJ/mol
# GULP energy per Si atom -5585.502248 kJ/mol
# Density = 2.310867 g / cm^3
# Si number density = 23.161390 Si / 1000 Ang^3
#
#
#
# Elastic Constant Matrix: (Units=GPa)
#
#
# Indices 1 2 3 4 5 6 
#
# 1 34.0976 9.6059 19.6898 0.0000 0.0000 0.0000
# 2 9.6059 43.6513 -1.9168 0.0000 0.0000 0.0000
# 3 19.6898 -1.9168 45.5798 0.0000 0.0000 0.0000
# 4 0.0000 0.0000 0.0000 18.5901 0.0000 0.0000
# 5 0.0000 0.0000 0.0000 0.0000 45.4539 0.0000
# 6 0.0000 0.0000 0.0000 0.0000 0.0000 17.3335
#
#
#
# Elastic Compliance Matrix: (Units=1/GPa)
#
#
# Indices 1 2 3 4 5 6 
#
# 1 0.043303 -0.010370 -0.019142 0.000000 0.000000 0.000000
# 2 -0.010370 0.025435 0.005549 0.000000 0.000000 0.000000
# 3 -0.019142 0.005549 0.030442 0.000000 0.000000 0.000000
# 4 0.000000 0.000000 0.000000 0.053792 0.000000 0.000000
# 5 0.000000 0.000000 0.000000 0.000000 0.022000 0.000000
# 6 0.000000 0.000000 0.000000 0.000000 0.000000 0.057692
#
#
# Mechanical properties :
#
#
# Convention : Reuss Voigt Hill
#
# Bulk Modulus (GPa) = 19.51078 19.78737 19.64908
# Shear Modulus (GPa) = 16.79691 22.67214 19.73453
#
# Velocity S-wave (km/s) = 2.69590 3.13209 2.92215
# Velocity P-wave (km/s) = 4.25824 4.65208 4.45951
#
# Compressibility (1/GPa) = 0.05125372
#
# Stress axis : x y z
#
# Youngs Moduli (GPa) = 23.09324 39.31667 32.84929
#
# Poissons Ratio (x) = 0.40771 0.62881
# Poissons Ratio (y) = 0.23947 -0.18229
# Poissons Ratio (z) = 0.44206 -0.21818
#
# Static dielectric constant tensor:
#      x y z
#    x 1.859560 0.000000 0.000000 
#    y 0.000000 1.913450 0.000000 
#    z 0.000000 0.000000 1.912630 
# 
# From -- ./inp_files/10901.got.cif
#   From: 2010.05.17/outbox.cif.g08.bks.cpg/sg61_6_cif.got.tgz:10901.got - 2010.06.03 15:17:17.
