data_PCOD9459371
_publ_section_title
;
Structure prediction by ZEFSAII (Michael W. Deem and Ramdas Pophale) SiO2 
 PCOD9459371
Probable space group: P B C A
;
_chemical_formula_sum "Si O2"
_cell_formula_units_Z 64
_cell_length_a 7.158353
_cell_length_b 26.117301
_cell_length_c 12.603571
_cell_angle_alpha 90.000000
_cell_angle_beta 90.000000
_cell_angle_gamma 90.000000
_cell_volume 2356.324059
_symmetry_space_group_name_H-M "P B C A"
_symmetry_group_IT_number 61
_symmetry_cell_setting 'orthorhombic'
loop_
_space_group_symop_operation_xyz
x,y,z
1/2-x,-y,1/2+z
1/2+x,1/2-y,-z
-x,1/2+y,1/2-z
-x,-y,-z
1/2+x,y,1/2-z
1/2-x,1/2+y,z
x,1/2-y,1/2+z
loop_
_atom_site_type_symbol
_atom_site_label
_atom_site_fract_x
_atom_site_fract_y
_atom_site_fract_z
Si Si1 0.248782 0.424552 0.950594
Si Si2 0.291057 0.463228 0.395231
Si Si3 0.190727 0.069588 0.117210
Si Si4 0.304627 0.822960 0.628601
Si Si5 0.288442 0.790888 0.161566
Si Si6 0.137575 0.542123 0.671619
Si Si7 0.278002 0.203334 0.893211
Si Si8 0.217224 0.815896 0.937263
O O1 0.159542 0.476819 0.908020
O O2 0.469106 0.425889 0.913984
O O3 0.174032 0.368673 0.920176
O O4 0.249479 0.429815 0.079000
O O5 0.306461 0.436668 0.508298
O O6 0.374933 0.437796 0.290769
O O7 0.070160 0.461885 0.372282
O O8 0.246945 0.121860 0.174834
O O9 0.214876 0.016121 0.177494
O O10 0.230919 0.769085 0.672227
O O11 0.260504 0.825114 0.502571
O O12 0.528405 0.818402 0.629820
O O13 0.286373 0.815458 0.277807
O O14 0.498846 0.792951 0.118523
O O15 0.170615 0.813901 0.064149
O O16 0.196350 0.260864 0.911452
#
# Coordination Sequence:
#
# PCOD9459371 Si02
#       8
#     8   8   8   8   8   8   8   8
#     4   8  16  32  51  69  94 128 158 189 235 285
#     4   9  17  31  50  71  96 125 157 192 233 280
#     4   8  16  32  51  69  94 128 158 189 235 285
#     4   9  18  34  53  71  94 126 164 201 237 280
#     4  10  20  33  50  72  98 127 159 198 242 286
#     4   9  17  31  50  71  96 125 157 192 233 280
#     4  10  20  33  50  72  98 127 159 198 242 286
#     4   9  18  34  53  71  94 126 164 201 237 280
#
# _framework density 27.16095
#
# number of rings (size 3 to 8) (size 9 to 14) (size 15 to 20)
#    0.000    3.000    0.000    2.250    0.000    3.000 
#    0.000    7.500    0.000    0.000    0.000    0.000 
#    0.000    0.000    0.000    0.000    0.000    0.000 
#
# Total GULP energy -358002.112998 kJ/mol
# GULP energy per Si atom -5593.783016 kJ/mol
# Density = 2.709913 g / cm^3
# Si number density = 27.160950 Si / 1000 Ang^3
#
#
#
# Elastic Constant Matrix: (Units=GPa)
#
#
# Indices 1 2 3 4 5 6 
#
# 1 68.6748 -0.5276 11.9465 0.0000 0.0000 0.0000
# 2 -0.5276 125.2294 -4.9512 0.0000 0.0000 0.0000
# 3 11.9465 -4.9512 150.0736 0.0000 0.0000 0.0000
# 4 0.0000 0.0000 0.0000 -13.2044 0.0000 0.0000
# 5 0.0000 0.0000 0.0000 0.0000 21.6578 0.0000
# 6 0.0000 0.0000 0.0000 0.0000 0.0000 9.0024
#
#
#
# Elastic Compliance Matrix: (Units=1/GPa)
#
#
# Indices 1 2 3 4 5 6 
#
# 1 0.014766 0.000016 -0.001175 0.000000 0.000000 0.000000
# 2 0.000016 0.007996 0.000263 0.000000 0.000000 0.000000
# 3 -0.001175 0.000263 0.006766 0.000000 0.000000 0.000000
# 4 0.000000 0.000000 0.000000 -0.075733 0.000000 0.000000
# 5 0.000000 0.000000 0.000000 0.000000 0.046173 0.000000
# 6 0.000000 0.000000 0.000000 0.000000 0.000000 0.111081
#
#
# Mechanical properties :
#
#
# Convention : Reuss Voigt Hill
#
# Bulk Modulus (GPa) = 36.05678 39.65704 37.85691
# Shear Modulus (GPa) = 40.95448 25.99184 33.47316
#
# Velocity S-wave (km/s) = 3.88731 3.09683 3.51436
# Velocity P-wave (km/s) = 5.78379 5.23637 5.51688
#
# Compressibility (1/GPa) = 0.02773404
#
# Stress axis : x y z
#
# Youngs Moduli (GPa) = 67.72365 125.06584 147.80688
#
# Poissons Ratio (x) = -0.00197 0.17366
# Poissons Ratio (y) = -0.00107 -0.03881
# Poissons Ratio (z) = 0.07957 -0.03283
#
# Static dielectric constant tensor:
#      x y z
#    x 2.123790 0.000000 0.000000 
#    y 0.000000 2.094410 0.000000 
#    z 0.000000 0.000000 2.121720 
# 
# From -- ./inp_files/4629.got.cif
#   From: 2010.05.17/outbox.cif.g08.bks.cpg/sg61_3_cif.got.tgz:4629.got - 2010.06.03 15:17:17.
