data_PCOD9459243
_publ_section_title
;
Structure prediction by ZEFSAII (Michael W. Deem and Ramdas Pophale) SiO2 
 PCOD9459243
Probable space group: P B C A
;
_chemical_formula_sum "Si O2"
_cell_formula_units_Z 48
_cell_length_a 13.825511
_cell_length_b 15.369880
_cell_length_c 8.667948
_cell_angle_alpha 90.000000
_cell_angle_beta 90.000000
_cell_angle_gamma 90.000000
_cell_volume 1841.908136
_symmetry_space_group_name_H-M "P B C A"
_symmetry_group_IT_number 61
_symmetry_cell_setting 'orthorhombic'
loop_
_space_group_symop_operation_xyz
x,y,z
1/2-x,-y,1/2+z
1/2+x,1/2-y,-z
-x,1/2+y,1/2-z
-x,-y,-z
1/2+x,y,1/2-z
1/2-x,1/2+y,z
x,1/2-y,1/2+z
loop_
_atom_site_type_symbol
_atom_site_label
_atom_site_fract_x
_atom_site_fract_y
_atom_site_fract_z
Si Si1 0.254791 0.826711 0.653662
Si Si2 0.574417 0.128981 0.170096
Si Si3 0.519024 0.738875 0.058780
Si Si4 0.247861 0.959427 0.402113
Si Si5 0.610381 0.537911 0.323195
Si Si6 0.150511 0.836042 0.198239
O O1 0.312153 0.873730 0.792132
O O2 0.186058 0.929406 0.253272
O O3 0.144334 0.861060 0.674033
O O4 0.243901 0.724223 0.661687
O O5 0.542993 0.182458 0.323675
O O6 0.548524 0.192169 0.029655
O O7 0.504345 0.044901 0.164596
O O8 0.576747 0.675959 0.942077
O O9 0.596082 0.795718 0.153942
O O10 0.172396 0.998288 0.530233
O O11 0.282255 0.871698 0.493112
O O12 0.345060 0.000385 0.333211
#
# Coordination Sequence:
#
# PCOD9459243 Si02
#       6
#     8   8   8   8   8   8
#     4  10  23  39  66  92 120 160 214 249 306 364
#     4  11  22  38  62  93 126 157 207 256 311 359
#     4  10  19  35  63  89 121 157 192 266 304 349
#     4  10  22  40  61  89 122 166 205 243 314 367
#     4  10  22  42  59  87 129 163 200 250 305 377
#     4  11  18  40  63  90 120 158 207 254 305 361
#
# _framework density 26.059933000000001
#
# number of rings (size 3 to 8) (size 9 to 14) (size 15 to 20)
#    1.000    0.667    6.667    0.000    4.667    0.667 
#    0.000    0.833    0.000    0.000    0.000    0.000 
#    0.000    0.000    0.000    0.000    0.000    0.000 
#
# Total GULP energy -268148.405281 kJ/mol
# GULP energy per Si atom -5586.425110 kJ/mol
# Density = 2.600062 g / cm^3
# Si number density = 26.059933 Si / 1000 Ang^3
#
#
#
# Elastic Constant Matrix: (Units=GPa)
#
#
# Indices 1 2 3 4 5 6 
#
# 1 93.5161 8.5774 28.4309 0.0000 0.0000 0.0000
# 2 8.5774 34.2782 12.8318 0.0000 0.0000 0.0000
# 3 28.4309 12.8318 100.8943 0.0000 0.0000 0.0000
# 4 0.0000 0.0000 0.0000 51.6989 0.0000 0.0000
# 5 0.0000 0.0000 0.0000 0.0000 26.1367 0.0000
# 6 0.0000 0.0000 0.0000 0.0000 0.0000 16.0039
#
#
#
# Elastic Compliance Matrix: (Units=1/GPa)
#
#
# Indices 1 2 3 4 5 6 
#
# 1 0.011799 -0.001793 -0.003097 0.000000 0.000000 0.000000
# 2 -0.001793 0.030904 -0.003425 0.000000 0.000000 0.000000
# 3 -0.003097 -0.003425 0.011220 0.000000 0.000000 0.000000
# 4 0.000000 0.000000 0.000000 0.019343 0.000000 0.000000
# 5 0.000000 0.000000 0.000000 0.000000 0.038260 0.000000
# 6 0.000000 0.000000 0.000000 0.000000 0.000000 0.062485
#
#
# Mechanical properties :
#
#
# Convention : Reuss Voigt Hill
#
# Bulk Modulus (GPa) = 26.81500 36.48542 31.65021
# Shear Modulus (GPa) = 24.62179 30.69112 27.65646
#
# Velocity S-wave (km/s) = 3.07712 3.43551 3.26124
# Velocity P-wave (km/s) = 4.78925 5.45600 5.13346
#
# Compressibility (1/GPa) = 0.03729256
#
# Stress axis : x y z
#
# Youngs Moduli (GPa) = 84.75051 32.35831 89.12956
#
# Poissons Ratio (x) = 0.05803 0.27602
# Poissons Ratio (y) = 0.15198 0.30528
# Poissons Ratio (z) = 0.26246 0.11083
#
# Static dielectric constant tensor:
#      x y z
#    x 2.116980 0.000000 0.000000 
#    y 0.000000 2.089800 0.000000 
#    z 0.000000 0.000000 2.064020 
# 
# From -- ./inp_files/2910.got.cif
#   From: 2010.05.17/outbox.cif.g08.bks.cpg/sg61_2_cif.got.tgz:2910.got - 2010.06.03 15:17:17.
