data_PCOD9459564
_publ_section_title
;
Structure prediction by ZEFSAII (Michael W. Deem and Ramdas Pophale) SiO2 
 PCOD9459564
Probable space group: P B C A
;
_chemical_formula_sum "Si O2"
_cell_formula_units_Z 64
_cell_length_a 18.045009
_cell_length_b 10.037935
_cell_length_c 15.070604
_cell_angle_alpha 90.000000
_cell_angle_beta 90.000000
_cell_angle_gamma 90.000000
_cell_volume 2729.808240
_symmetry_space_group_name_H-M "P B C A"
_symmetry_group_IT_number 61
_symmetry_cell_setting 'orthorhombic'
loop_
_space_group_symop_operation_xyz
x,y,z
1/2-x,-y,1/2+z
1/2+x,1/2-y,-z
-x,1/2+y,1/2-z
-x,-y,-z
1/2+x,y,1/2-z
1/2-x,1/2+y,z
x,1/2-y,1/2+z
loop_
_atom_site_type_symbol
_atom_site_label
_atom_site_fract_x
_atom_site_fract_y
_atom_site_fract_z
Si Si1 0.553204 0.948582 0.099771
Si Si2 0.816613 0.463351 0.976706
Si Si3 0.212398 0.813844 0.075577
Si Si4 0.604237 0.565395 0.783386
Si Si5 0.551720 0.008173 0.623116
Si Si6 0.642673 0.214569 0.327342
Si Si7 0.591083 0.001306 0.802085
Si Si8 0.972977 0.704278 0.483754
O O1 0.591267 0.877877 0.185272
O O2 0.487221 0.030236 0.149033
O O3 0.510481 0.846784 0.034142
O O4 0.619449 0.013307 0.043344
O O5 0.744539 0.556292 0.974405
O O6 0.803329 0.307151 0.991174
O O7 0.848767 0.468049 0.876244
O O8 0.146099 0.850570 0.141928
O O9 0.277716 0.761474 0.140037
O O10 0.524732 0.530982 0.824160
O O11 0.644804 0.422173 0.773818
O O12 0.601948 0.950727 0.702346
O O13 0.561172 0.149932 0.574854
O O14 0.537351 0.898973 0.547223
O O15 0.599002 0.338937 0.285666
O O16 0.594391 0.190098 0.415435
#
# Coordination Sequence:
#
# PCOD9459564 Si02
#       8
#     8   8   8   8   8   8   8   8
#     4  10  21  39  60  97 120 157 208 265 310 366
#     4  11  23  41  64  89 124 166 204 260 301 368
#     4  11  22  41  63  82 120 172 210 244 308 362
#     4  10  20  38  61  84 124 160 205 252 306 376
#     4   9  18  35  61  94 118 159 191 258 318 367
#     4   9  19  39  57  84 122 161 198 258 304 362
#     4   9  20  38  64  94 119 156 207 253 317 364
#     4   9  18  35  60  91 128 146 203 256 317 365
#
# _framework density 23.444870000000002
#
# number of rings (size 3 to 8) (size 9 to 14) (size 15 to 20)
#    0.000    2.250    1.250    1.125    1.750    0.000 
#   18.000    1.250    0.000    0.000    0.000    0.000 
#    0.000    0.000    0.000    0.000    0.000    0.000 
#
# Total GULP energy -356948.601364 kJ/mol
# GULP energy per Si atom -5577.321896 kJ/mol
# Density = 2.339151 g / cm^3
# Si number density = 23.444870 Si / 1000 Ang^3
#
#
#
# Elastic Constant Matrix: (Units=GPa)
#
#
# Indices 1 2 3 4 5 6 
#
# 1 23.2607 -6.3752 -9.0776 0.0000 0.0000 0.0000
# 2 -6.3752 66.6882 4.6414 0.0000 0.0000 0.0000
# 3 -9.0776 4.6414 82.5781 0.0000 0.0000 0.0000
# 4 0.0000 0.0000 0.0000 20.0701 0.0000 0.0000
# 5 0.0000 0.0000 0.0000 0.0000 18.2451 0.0000
# 6 0.0000 0.0000 0.0000 0.0000 0.0000 18.1062
#
#
#
# Elastic Compliance Matrix: (Units=1/GPa)
#
#
# Indices 1 2 3 4 5 6 
#
# 1 0.045988 0.004060 0.004827 0.000000 0.000000 0.000000
# 2 0.004060 0.015413 -0.000420 0.000000 0.000000 0.000000
# 3 0.004827 -0.000420 0.012664 0.000000 0.000000 0.000000
# 4 0.000000 0.000000 0.000000 0.049825 0.000000 0.000000
# 5 0.000000 0.000000 0.000000 0.000000 0.054809 0.000000
# 6 0.000000 0.000000 0.000000 0.000000 0.000000 0.055230
#
#
# Mechanical properties :
#
#
# Convention : Reuss Voigt Hill
#
# Bulk Modulus (GPa) = 10.98911 16.76713 13.87812
# Shear Modulus (GPa) = 20.21620 23.50685 21.86152
#
# Velocity S-wave (km/s) = 2.93966 3.16989 3.05694
# Velocity P-wave (km/s) = 4.02734 4.53485 4.28861
#
# Compressibility (1/GPa) = 0.09099918
#
# Stress axis : x y z
#
# Youngs Moduli (GPa) = 21.74495 64.88228 78.96408
#
# Poissons Ratio (x) = -0.26344 -0.38117
# Poissons Ratio (y) = -0.08829 0.03316
# Poissons Ratio (z) = -0.10497 0.02725
#
# Static dielectric constant tensor:
#      x y z
#    x 1.899090 0.000000 0.000000 
#    y 0.000000 2.026310 0.000000 
#    z 0.000000 0.000000 1.933810 
# 
# From -- ./inp_files/8197.got.cif
#   From: 2010.05.17/outbox.cif.g08.bks.cpg/sg61_5_cif.got.tgz:8197.got - 2010.06.03 15:17:17.
