data_PCOD9459559
_publ_section_title
;
Structure prediction by ZEFSAII (Michael W. Deem and Ramdas Pophale) SiO2 
 PCOD9459559
Probable space group: P B C A
;
_chemical_formula_sum "Si O2"
_cell_formula_units_Z 48
_cell_length_a 8.977083
_cell_length_b 16.582297
_cell_length_c 15.483835
_cell_angle_alpha 90.000000
_cell_angle_beta 90.000000
_cell_angle_gamma 90.000000
_cell_volume 2304.933843
_symmetry_space_group_name_H-M "P B C A"
_symmetry_group_IT_number 61
_symmetry_cell_setting 'orthorhombic'
loop_
_space_group_symop_operation_xyz
x,y,z
1/2-x,-y,1/2+z
1/2+x,1/2-y,-z
-x,1/2+y,1/2-z
-x,-y,-z
1/2+x,y,1/2-z
1/2-x,1/2+y,z
x,1/2-y,1/2+z
loop_
_atom_site_type_symbol
_atom_site_label
_atom_site_fract_x
_atom_site_fract_y
_atom_site_fract_z
Si Si1 0.917670 0.599001 0.342478
Si Si2 0.926315 0.918288 0.572703
Si Si3 0.772868 0.320507 0.697014
Si Si4 0.273013 0.075169 0.988923
Si Si5 0.457258 0.966780 0.225170
Si Si6 0.278739 0.134844 0.800845
O O1 0.784786 0.626572 0.278028
O O2 0.847133 0.590594 0.436859
O O3 0.056774 0.660016 0.328809
O O4 0.989239 0.515524 0.309157
O O5 0.064235 0.889327 0.515309
O O6 0.833007 0.849106 0.618792
O O7 0.005370 0.973544 0.646582
O O8 0.813966 0.980388 0.525281
O O9 0.750583 0.227266 0.718564
O O10 0.227902 0.113386 0.897859
O O11 0.294101 0.933291 0.240191
O O12 0.548550 0.885650 0.207411
#
# Coordination Sequence:
#
# PCOD9459559 Si02
#       6
#     8   8   8   8   8   8
#     4  11  21  39  62  86 113 156 202 239 281 350
#     4   9  20  40  60  83 115 156 196 240 285 342
#     4  11  23  38  59  85 120 155 189 234 298 352
#     4  10  21  37  60  86 115 148 197 245 286 334
#     4  10  20  38  61  81 111 155 200 229 278 351
#     4  11  23  38  58  88 118 150 188 242 296 344
#
# _framework density 20.824891999999998
#
# number of rings (size 3 to 8) (size 9 to 14) (size 15 to 20)
#    0.000    1.667    0.000    7.000    0.000    4.000 
#    0.000    3.333    0.000    0.000    0.000    0.000 
#    0.000    0.000    0.000    0.000    0.000    0.000 
#
# Total GULP energy -267996.404800 kJ/mol
# GULP energy per Si atom -5583.258433 kJ/mol
# Density = 2.077749 g / cm^3
# Si number density = 20.824892 Si / 1000 Ang^3
#
#
#
# Elastic Constant Matrix: (Units=GPa)
#
#
# Indices 1 2 3 4 5 6 
#
# 1 68.6147 21.7325 2.1655 0.0000 0.0000 0.0000
# 2 21.7325 83.3667 -6.0243 0.0000 0.0000 0.0000
# 3 2.1655 -6.0243 22.4094 0.0000 0.0000 0.0000
# 4 0.0000 0.0000 0.0000 13.3557 0.0000 0.0000
# 5 0.0000 0.0000 0.0000 0.0000 35.8105 0.0000
# 6 0.0000 0.0000 0.0000 0.0000 0.0000 22.6967
#
#
#
# Elastic Compliance Matrix: (Units=1/GPa)
#
#
# Indices 1 2 3 4 5 6 
#
# 1 0.016048 -0.004381 -0.002728 0.000000 0.000000 0.000000
# 2 -0.004381 0.013429 0.004033 0.000000 0.000000 0.000000
# 3 -0.002728 0.004033 0.045972 0.000000 0.000000 0.000000
# 4 0.000000 0.000000 0.000000 0.074874 0.000000 0.000000
# 5 0.000000 0.000000 0.000000 0.000000 0.027925 0.000000
# 6 0.000000 0.000000 0.000000 0.000000 0.000000 0.044059
#
#
# Mechanical properties :
#
#
# Convention : Reuss Voigt Hill
#
# Bulk Modulus (GPa) = 14.43060 23.34868 18.88964
# Shear Modulus (GPa) = 19.87623 24.80708 22.34165
#
# Velocity S-wave (km/s) = 3.09276 3.45515 3.27897
# Velocity P-wave (km/s) = 4.43826 5.21092 4.84003
#
# Compressibility (1/GPa) = 0.06929718
#
# Stress axis : x y z
#
# Youngs Moduli (GPa) = 62.31422 74.46797 21.75233
#
# Poissons Ratio (x) = 0.32621 0.05935
# Poissons Ratio (y) = 0.27297 -0.08773
# Poissons Ratio (z) = 0.17001 -0.30035
#
# Static dielectric constant tensor:
#      x y z
#    x 1.772440 0.000000 0.000000 
#    y 0.000000 1.713840 0.000000 
#    z 0.000000 0.000000 1.774010 
# 
# From -- ./inp_files/3521.got.cif
#   From: 2010.05.17/outbox.cif.g08.bks.cpg/sg61_2_cif.got.tgz:3521.got - 2010.06.03 15:17:17.
