data_PCOD9459862
_publ_section_title
;
Structure prediction by ZEFSAII (Michael W. Deem and Ramdas Pophale) SiO2 
 PCOD9459862
Probable space group: P B C A
;
_chemical_formula_sum "Si O2"
_cell_formula_units_Z 40
_cell_length_a 5.514477
_cell_length_b 18.262216
_cell_length_c 16.127681
_cell_angle_alpha 90.000000
_cell_angle_beta 90.000000
_cell_angle_gamma 90.000000
_cell_volume 1624.163437
_symmetry_space_group_name_H-M "P B C A"
_symmetry_group_IT_number 61
_symmetry_cell_setting 'orthorhombic'
loop_
_space_group_symop_operation_xyz
x,y,z
1/2-x,-y,1/2+z
1/2+x,1/2-y,-z
-x,1/2+y,1/2-z
-x,-y,-z
1/2+x,y,1/2-z
1/2-x,1/2+y,z
x,1/2-y,1/2+z
loop_
_atom_site_type_symbol
_atom_site_label
_atom_site_fract_x
_atom_site_fract_y
_atom_site_fract_z
Si Si1 0.377716 0.843593 0.535713
Si Si2 0.416548 0.825216 0.798342
Si Si3 0.254677 0.553891 0.420013
Si Si4 0.672508 0.707931 0.882130
Si Si5 0.004480 0.412501 0.085800
O O1 0.481122 0.916195 0.579724
O O2 0.330617 0.780436 0.601769
O O3 0.583780 0.813359 0.473914
O O4 0.163801 0.861242 0.471720
O O5 0.158945 0.838260 0.754747
O O6 0.407177 0.882091 0.874871
O O7 0.451656 0.740889 0.828947
O O8 0.319638 0.549665 0.517759
O O9 0.330724 0.476625 0.380570
O O10 0.834487 0.639000 0.855126
#
# Coordination Sequence:
#
# PCOD9459862 Si02
#       5
#     8   8   8   8   8
#     4  11  18  35  68  99 135 168 216 308 363 416
#     4  12  27  45  67  89 135 194 235 269 324 430
#     4  10  22  40  61 101 130 172 232 279 366 416
#     4  11  21  37  63  98 131 169 227 283 357 410
#     4  10  21  37  68 100 132 162 217 313 360 408
#
# _framework density 24.628062
#
# number of rings (size 3 to 8) (size 9 to 14) (size 15 to 20)
#    0.000    1.200    4.000    3.000    2.800    0.000 
#    0.000    2.000    0.000    0.000    0.000    0.000 
#    0.000    0.000    0.000    0.000    0.000    0.000 
#
# Total GULP energy -223285.341388 kJ/mol
# GULP energy per Si atom -5582.133535 kJ/mol
# Density = 2.457201 g / cm^3
# Si number density = 24.628062 Si / 1000 Ang^3
#
#
#
# Elastic Constant Matrix: (Units=GPa)
#
#
# Indices 1 2 3 4 5 6 
#
# 1 94.5787 26.6277 21.0037 0.0000 0.0000 0.0000
# 2 26.6277 108.6246 12.8124 0.0000 0.0000 0.0000
# 3 21.0037 12.8124 39.9743 0.0000 0.0000 0.0000
# 4 0.0000 0.0000 0.0000 17.9370 0.0000 0.0000
# 5 0.0000 0.0000 0.0000 0.0000 37.4985 0.0000
# 6 0.0000 0.0000 0.0000 0.0000 0.0000 50.0867
#
#
#
# Elastic Compliance Matrix: (Units=1/GPa)
#
#
# Indices 1 2 3 4 5 6 
#
# 1 0.012538 -0.002387 -0.005823 0.000000 0.000000 0.000000
# 2 -0.002387 0.010022 -0.001958 0.000000 0.000000 0.000000
# 3 -0.005823 -0.001958 0.028703 0.000000 0.000000 0.000000
# 4 0.000000 0.000000 0.000000 0.055751 0.000000 0.000000
# 5 0.000000 0.000000 0.000000 0.000000 0.026668 0.000000
# 6 0.000000 0.000000 0.000000 0.000000 0.000000 0.019965
#
#
# Mechanical properties :
#
#
# Convention : Reuss Voigt Hill
#
# Bulk Modulus (GPa) = 32.33339 40.45170 36.39254
# Shear Modulus (GPa) = 27.13078 33.28671 30.20875
#
# Velocity S-wave (km/s) = 3.32267 3.68037 3.50608
# Velocity P-wave (km/s) = 5.27990 5.87544 5.58561
#
# Compressibility (1/GPa) = 0.03092778
#
# Stress axis : x y z
#
# Youngs Moduli (GPa) = 79.75544 99.77993 34.83924
#
# Poissons Ratio (x) = 0.23815 0.20287
# Poissons Ratio (y) = 0.19036 0.06822
# Poissons Ratio (z) = 0.46442 0.19538
#
# Static dielectric constant tensor:
#      x y z
#    x 2.072900 0.000000 0.000000 
#    y 0.000000 2.026900 0.000000 
#    z 0.000000 0.000000 1.979070 
# 
# From -- ./inp_files/724.got.cif
#   From: 2010.05.17/outbox.cif.g08.bks.cpg/sg61_1_cif.got.tgz:724.got - 2010.06.03 15:17:17.
