data_PCOD9459097
_publ_section_title
;
Structure prediction by ZEFSAII (Michael W. Deem and Ramdas Pophale) SiO2 
 PCOD9459097
Probable space group: P B C A
;
_chemical_formula_sum "Si O2"
_cell_formula_units_Z 64
_cell_length_a 9.739968
_cell_length_b 18.654407
_cell_length_c 13.760884
_cell_angle_alpha 90.000000
_cell_angle_beta 90.000000
_cell_angle_gamma 90.000000
_cell_volume 2500.260800
_symmetry_space_group_name_H-M "P B C A"
_symmetry_group_IT_number 61
_symmetry_cell_setting 'orthorhombic'
loop_
_space_group_symop_operation_xyz
x,y,z
1/2-x,-y,1/2+z
1/2+x,1/2-y,-z
-x,1/2+y,1/2-z
-x,-y,-z
1/2+x,y,1/2-z
1/2-x,1/2+y,z
x,1/2-y,1/2+z
loop_
_atom_site_type_symbol
_atom_site_label
_atom_site_fract_x
_atom_site_fract_y
_atom_site_fract_z
Si Si1 0.798082 0.526701 0.838204
Si Si2 0.390922 0.858928 0.375600
Si Si3 0.018802 0.775973 0.508555
Si Si4 0.420884 0.587261 0.157947
Si Si5 0.336684 0.340100 0.230790
Si Si6 0.287983 0.732473 0.105500
Si Si7 0.169796 0.988162 0.891412
Si Si8 0.040701 0.427165 0.888897
O O1 0.660058 0.485173 0.864404
O O2 0.753910 0.609061 0.841550
O O3 0.818006 0.507810 0.723690
O O4 0.927316 0.490176 0.888994
O O5 0.443459 0.789713 0.433902
O O6 0.506773 0.861958 0.289253
O O7 0.236719 0.850208 0.333658
O O8 0.384615 0.935425 0.430057
O O9 0.934286 0.771390 0.408836
O O10 0.997649 0.854465 0.555064
O O11 0.179521 0.758561 0.517680
O O12 0.326688 0.651136 0.123164
O O13 0.566782 0.578489 0.106807
O O14 0.440896 0.593202 0.274500
O O15 0.299994 0.260842 0.196224
O O16 0.316619 0.960972 0.924943
#
# Coordination Sequence:
#
# PCOD9459097 Si02
#       8
#     8   8   8   8   8   8   8   8
#     4   9  17  34  58  88 118 143 183 242 293 337
#     4  10  21  39  62  90 119 149 189 239 292 348
#     4  11  25  43  57  81 119 159 199 239 285 344
#     4  10  18  37  62  87 113 149 188 239 293 340
#     4  10  21  38  62  90 119 149 189 240 295 344
#     4  11  25  42  57  81 119 160 197 240 287 342
#     4   9  19  32  60  93 115 143 188 239 298 341
#     4  10  20  37  62  90 115 148 195 242 285 349
#
# _framework density 25.597328000000001
#
# number of rings (size 3 to 8) (size 9 to 14) (size 15 to 20)
#    0.000    2.000    2.500    0.750    7.000    1.000 
#    0.000    2.500    0.000    0.000    0.000    0.000 
#    0.000    0.000    0.000    0.000    0.000    0.000 
#
# Total GULP energy -357845.858009 kJ/mol
# GULP energy per Si atom -5591.341531 kJ/mol
# Density = 2.553907 g / cm^3
# Si number density = 25.597328 Si / 1000 Ang^3
#
#
#
# Elastic Constant Matrix: (Units=GPa)
#
#
# Indices 1 2 3 4 5 6 
#
# 1 59.3701 -5.8335 -6.1509 0.0000 0.0000 0.0000
# 2 -5.8335 98.4936 -5.6795 0.0000 0.0000 0.0000
# 3 -6.1509 -5.6795 44.1590 0.0000 0.0000 0.0000
# 4 0.0000 0.0000 0.0000 12.2638 0.0000 0.0000
# 5 0.0000 0.0000 0.0000 0.0000 30.4424 0.0000
# 6 0.0000 0.0000 0.0000 0.0000 0.0000 41.0658
#
#
#
# Elastic Compliance Matrix: (Units=1/GPa)
#
#
# Indices 1 2 3 4 5 6 
#
# 1 0.017222 0.001167 0.002549 0.000000 0.000000 0.000000
# 2 0.001167 0.010308 0.001488 0.000000 0.000000 0.000000
# 3 0.002549 0.001488 0.023192 0.000000 0.000000 0.000000
# 4 0.000000 0.000000 0.000000 0.081541 0.000000 0.000000
# 5 0.000000 0.000000 0.000000 0.000000 0.032849 0.000000
# 6 0.000000 0.000000 0.000000 0.000000 0.000000 0.024351
#
#
# Mechanical properties :
#
#
# Convention : Reuss Voigt Hill
#
# Bulk Modulus (GPa) = 16.35845 18.52168 17.44006
# Shear Modulus (GPa) = 25.07130 31.40016 28.23573
#
# Velocity S-wave (km/s) = 3.13301 3.50622 3.32486
# Velocity P-wave (km/s) = 4.41500 4.86240 4.64409
#
# Compressibility (1/GPa) = 0.06113050
#
# Stress axis : x y z
#
# Youngs Moduli (GPa) = 58.06446 97.01315 43.11854
#
# Poissons Ratio (x) = -0.11321 -0.10991
# Poissons Ratio (y) = -0.06776 -0.06417
# Poissons Ratio (z) = -0.14800 -0.14438
#
# Static dielectric constant tensor:
#      x y z
#    x 1.973380 0.000000 0.000000 
#    y 0.000000 1.958710 0.000000 
#    z 0.000000 0.000000 2.105290 
# 
# From -- ./inp_files/10203.got.cif
#   From: 2010.05.17/outbox.cif.g08.bks.cpg/sg61_6_cif.got.tgz:10203.got - 2010.06.03 15:17:17.
