data_PCOD9459396
_publ_section_title
;
Structure prediction by ZEFSAII (Michael W. Deem and Ramdas Pophale) SiO2 
 PCOD9459396
Probable space group: P B C A
;
_chemical_formula_sum "Si O2"
_cell_formula_units_Z 64
_cell_length_a 9.297653
_cell_length_b 16.909429
_cell_length_c 18.422100
_cell_angle_alpha 90.000000
_cell_angle_beta 90.000000
_cell_angle_gamma 90.000000
_cell_volume 2896.285778
_symmetry_space_group_name_H-M "P B C A"
_symmetry_group_IT_number 61
_symmetry_cell_setting 'orthorhombic'
loop_
_space_group_symop_operation_xyz
x,y,z
1/2-x,-y,1/2+z
1/2+x,1/2-y,-z
-x,1/2+y,1/2-z
-x,-y,-z
1/2+x,y,1/2-z
1/2-x,1/2+y,z
x,1/2-y,1/2+z
loop_
_atom_site_type_symbol
_atom_site_label
_atom_site_fract_x
_atom_site_fract_y
_atom_site_fract_z
Si Si1 0.596625 0.290908 0.280725
Si Si2 0.735426 0.627313 0.569941
Si Si3 0.183430 0.017680 0.519681
Si Si4 0.942027 0.122840 0.965233
Si Si5 0.873508 0.206152 0.109934
Si Si6 0.995293 0.449751 0.161875
Si Si7 0.102426 0.748680 0.652120
Si Si8 0.595182 0.109054 0.128151
O O1 0.488852 0.243502 0.335113
O O2 0.583649 0.385383 0.293278
O O3 0.531892 0.278593 0.201504
O O4 0.754832 0.258155 0.298656
O O5 0.678613 0.573171 0.504134
O O6 0.701358 0.719696 0.568752
O O7 0.652762 0.593639 0.639805
O O8 0.903092 0.611280 0.568862
O O9 0.344538 0.045596 0.535848
O O10 0.132478 0.069350 0.450053
O O11 0.089584 0.037514 0.589289
O O12 0.870075 0.190546 0.915296
O O13 0.950079 0.154692 0.047469
O O14 0.744193 0.155067 0.145157
O O15 0.947990 0.538182 0.183170
O O16 0.040874 0.832433 0.625262
#
# Coordination Sequence:
#
# PCOD9459396 Si02
#       8
#     8   8   8   8   8   8   8   8
#     4  11  26  45  65  93 126 180 223 271 327 401
#     4  10  20  34  61  92 137 162 201 268 325 379
#     4  10  21  38  60 100 132 167 213 266 326 398
#     4  11  23  36  64  99 128 171 214 272 327 386
#     4  10  23  37  65 101 131 168 219 263 334 390
#     4  10  22  40  66  92 130 176 214 262 332 392
#     4  12  25  42  69  90 133 170 227 273 328 395
#     4  10  21  40  66  97 131 163 211 272 329 383
#
# _framework density 22.097266000000001
#
# number of rings (size 3 to 8) (size 9 to 14) (size 15 to 20)
#    0.000    1.500    2.500    2.625    8.750    0.000 
#    0.000    2.500    5.500    0.000    0.000    0.000 
#    0.000    0.000    0.000    0.000    0.000    0.000 
#
# Total GULP energy -357338.216616 kJ/mol
# GULP energy per Si atom -5583.409635 kJ/mol
# Density = 2.204697 g / cm^3
# Si number density = 22.097266 Si / 1000 Ang^3
#
#
#
# Elastic Constant Matrix: (Units=GPa)
#
#
# Indices 1 2 3 4 5 6 
#
# 1 106.6571 19.4504 -1.9568 0.0000 0.0000 0.0000
# 2 19.4504 77.9329 4.7247 0.0000 0.0000 0.0000
# 3 -1.9568 4.7247 49.5825 0.0000 0.0000 0.0000
# 4 0.0000 0.0000 0.0000 21.5904 0.0000 0.0000
# 5 0.0000 0.0000 0.0000 0.0000 26.0583 0.0000
# 6 0.0000 0.0000 0.0000 0.0000 0.0000 34.5004
#
#
#
# Elastic Compliance Matrix: (Units=1/GPa)
#
#
# Indices 1 2 3 4 5 6 
#
# 1 0.009842 -0.002494 0.000626 0.000000 0.000000 0.000000
# 2 -0.002494 0.013538 -0.001389 0.000000 0.000000 0.000000
# 3 0.000626 -0.001389 0.020325 0.000000 0.000000 0.000000
# 4 0.000000 0.000000 0.000000 0.046317 0.000000 0.000000
# 5 0.000000 0.000000 0.000000 0.000000 0.038376 0.000000
# 6 0.000000 0.000000 0.000000 0.000000 0.000000 0.028985
#
#
# Mechanical properties :
#
#
# Convention : Reuss Voigt Hill
#
# Bulk Modulus (GPa) = 26.88721 30.95656 28.92189
# Shear Modulus (GPa) = 28.36162 30.56008 29.46085
#
# Velocity S-wave (km/s) = 3.58647 3.72288 3.65531
# Velocity P-wave (km/s) = 5.41705 5.70258 5.56165
#
# Compressibility (1/GPa) = 0.03719241
#
# Stress axis : x y z
#
# Youngs Moduli (GPa) = 101.60317 73.86464 49.19945
#
# Poissons Ratio (x) = 0.18425 -0.03080
# Poissons Ratio (y) = 0.25344 0.06831
# Poissons Ratio (z) = -0.06362 0.10256
#
# Static dielectric constant tensor:
#      x y z
#    x 1.849740 0.000000 0.000000 
#    y 0.000000 1.867070 0.000000 
#    z 0.000000 0.000000 1.818280 
# 
# From -- ./inp_files/10179.got.cif
#   From: 2010.05.17/outbox.cif.g08.bks.cpg/sg61_6_cif.got.tgz:10179.got - 2010.06.03 15:17:17.
