data_PCOD9459064
_publ_section_title
;
Structure prediction by ZEFSAII (Michael W. Deem and Ramdas Pophale) SiO2 
 PCOD9459064
Probable space group: P B C A
;
_chemical_formula_sum "Si O2"
_cell_formula_units_Z 60
_cell_length_a 16.916046
_cell_length_b 9.159999
_cell_length_c 16.093445
_cell_angle_alpha 90.000000
_cell_angle_beta 90.000000
_cell_angle_gamma 90.000000
_cell_volume 2493.694824
_symmetry_space_group_name_H-M "P B C A"
_symmetry_group_IT_number 61
_symmetry_cell_setting 'orthorhombic'
loop_
_space_group_symop_operation_xyz
x,y,z
1/2-x,-y,1/2+z
1/2+x,1/2-y,-z
-x,1/2+y,1/2-z
-x,-y,-z
1/2+x,y,1/2-z
1/2-x,1/2+y,z
x,1/2-y,1/2+z
loop_
_atom_site_type_symbol
_atom_site_label
_atom_site_fract_x
_atom_site_fract_y
_atom_site_fract_z
Si Si1 0.500706 0.799185 0.420622
Si Si2 0.500000 0.000000 0.000000
Si Si3 0.273666 0.593472 0.100839
Si Si4 0.784321 0.467664 0.229040
Si Si5 0.832126 0.761851 0.141169
Si Si6 0.553182 0.390423 0.893287
Si Si7 0.586390 0.799394 0.136411
Si Si8 0.786034 0.322289 0.508272
O O1 0.530205 0.637520 0.440798
O O2 0.424099 0.789561 0.363147
O O3 0.468604 0.848797 0.511936
O O4 0.552778 0.933748 0.388699
O O5 0.548779 0.928515 0.080470
O O6 0.252816 0.491722 0.178436
O O7 0.358586 0.663400 0.123183
O O8 0.212344 0.713225 0.070076
O O9 0.287871 0.485919 0.023295
O O10 0.808977 0.627179 0.198797
O O11 0.715623 0.401949 0.171928
O O12 0.859855 0.363841 0.210406
O O13 0.798004 0.710719 0.051930
O O14 0.484963 0.310321 0.840944
O O15 0.646861 0.713730 0.075048
#
# Coordination Sequence:
#
# PCOD9459064 Si02
#       8
#     8   4   8   8   8   8   8   8
#     4  10  19  36  64  93 121 162 214 273 313 383
#     4  10  18  34  60  94 120 150 216 270 308 366
#     4  12  24  43  61  99 134 171 210 279 339 406
#     4  11  25  41  62  94 136 168 216 268 348 401
#     4  11  22  41  66  93 123 173 221 270 321 406
#     4  10  22  39  63  93 129 167 216 274 333 385
#     4  10  22  40  65  94 125 168 221 274 318 402
#     4  11  23  39  68  92 123 166 224 268 323 386
#
# _framework density 24.060683999999998
#
# number of rings (size 3 to 8) (size 9 to 14) (size 15 to 20)
#    0.000    1.333    2.667    4.800    3.733    0.000 
#    2.400    0.000    0.000    0.000    0.000    0.000 
#    0.000    0.000    0.000    0.000    0.000    0.000 
#
# Total GULP energy -334491.717308 kJ/mol
# GULP energy per Si atom -5574.861955 kJ/mol
# Density = 2.400592 g / cm^3
# Si number density = 24.060684 Si / 1000 Ang^3
#
#
#
# Elastic Constant Matrix: (Units=GPa)
#
#
# Indices 1 2 3 4 5 6 
#
# 1 64.6415 9.6444 -5.6349 0.0000 0.0000 0.0000
# 2 9.6444 85.3962 10.8258 0.0000 0.0000 0.0000
# 3 -5.6349 10.8258 63.9372 0.0000 0.0000 0.0000
# 4 0.0000 0.0000 0.0000 21.6020 0.0000 0.0000
# 5 0.0000 0.0000 0.0000 0.0000 12.4837 0.0000
# 6 0.0000 0.0000 0.0000 0.0000 0.0000 37.0380
#
#
#
# Elastic Compliance Matrix: (Units=1/GPa)
#
#
# Indices 1 2 3 4 5 6 
#
# 1 0.015923 -0.002020 0.001745 0.000000 0.000000 0.000000
# 2 -0.002020 0.012223 -0.002248 0.000000 0.000000 0.000000
# 3 0.001745 -0.002248 0.016175 0.000000 0.000000 0.000000
# 4 0.000000 0.000000 0.000000 0.046292 0.000000 0.000000
# 5 0.000000 0.000000 0.000000 0.000000 0.080105 0.000000
# 6 0.000000 0.000000 0.000000 0.000000 0.000000 0.026999
#
#
# Mechanical properties :
#
#
# Convention : Reuss Voigt Hill
#
# Bulk Modulus (GPa) = 25.45987 27.07172 26.26580
# Shear Modulus (GPa) = 23.16385 27.50070 25.33228
#
# Velocity S-wave (km/s) = 3.10615 3.38446 3.24828
# Velocity P-wave (km/s) = 4.84445 5.15253 5.00086
#
# Compressibility (1/GPa) = 0.03927749
#
# Stress axis : x y z
#
# Youngs Moduli (GPa) = 62.80063 81.81197 61.82485
#
# Poissons Ratio (x) = 0.16523 -0.10790
# Poissons Ratio (y) = 0.12683 0.13896
# Poissons Ratio (z) = -0.10961 0.18388
#
# Static dielectric constant tensor:
#      x y z
#    x 2.283830 0.000000 0.000000 
#    y 0.000000 1.897980 0.000000 
#    z 0.000000 0.000000 1.945410 
# 
# From -- ./inp_files/9672.got.cif
#   From: 2010.05.17/outbox.cif.g08.bks.cpg/sg61_5_cif.got.tgz:9672.got - 2010.06.03 15:17:17.
