data_PCOD9459721
_publ_section_title
;
Structure prediction by ZEFSAII (Michael W. Deem and Ramdas Pophale) SiO2 
 PCOD9459721
Probable space group: P B C A
;
_chemical_formula_sum "Si O2"
_cell_formula_units_Z 48
_cell_length_a 10.526223
_cell_length_b 12.928721
_cell_length_c 14.168641
_cell_angle_alpha 90.000000
_cell_angle_beta 90.000000
_cell_angle_gamma 90.000000
_cell_volume 1928.218860
_symmetry_space_group_name_H-M "P B C A"
_symmetry_group_IT_number 61
_symmetry_cell_setting 'orthorhombic'
loop_
_space_group_symop_operation_xyz
x,y,z
1/2-x,-y,1/2+z
1/2+x,1/2-y,-z
-x,1/2+y,1/2-z
-x,-y,-z
1/2+x,y,1/2-z
1/2-x,1/2+y,z
x,1/2-y,1/2+z
loop_
_atom_site_type_symbol
_atom_site_label
_atom_site_fract_x
_atom_site_fract_y
_atom_site_fract_z
Si Si1 0.244188 0.916870 0.924932
Si Si2 0.007811 0.825946 0.594892
Si Si3 0.506172 0.620948 0.180056
Si Si4 0.730581 0.586805 0.730885
Si Si5 0.764067 0.561451 0.408167
Si Si6 0.990609 0.870896 0.175985
O O1 0.374551 0.858899 0.950726
O O2 0.135353 0.849103 0.874266
O O3 0.289694 0.003480 0.850244
O O4 0.189477 0.985887 0.009483
O O5 0.003078 0.851450 0.708934
O O6 0.134305 0.883052 0.560708
O O7 0.021825 0.702213 0.588762
O O8 0.371560 0.641075 0.128608
O O9 0.511923 0.494692 0.169045
O O10 0.764692 0.516865 0.821900
O O11 0.602370 0.647390 0.749958
O O12 0.849679 0.657577 0.707923
#
# Coordination Sequence:
#
# PCOD9459721 Si02
#       6
#     8   8   8   8   8   8
#     4  11  21  39  68  89 122 162 209 251 305 364
#     4  12  21  38  64  93 116 165 206 245 307 364
#     4  10  21  43  58  89 124 162 197 253 307 362
#     4  10  20  42  58  88 126 164 194 260 310 352
#     4  11  21  39  68  89 122 162 209 251 305 364
#     4  10  22  35  65  84 124 159 202 246 307 364
#
# _framework density 24.893440999999999
#
# number of rings (size 3 to 8) (size 9 to 14) (size 15 to 20)
#    0.000    1.333    6.667    1.000    4.667    0.000 
#    0.000    6.667   14.667    0.000    0.000    0.000 
#    0.000    0.000    0.000    0.000    0.000    0.000 
#
# Total GULP energy -268235.163515 kJ/mol
# GULP energy per Si atom -5588.232573 kJ/mol
# Density = 2.483678 g / cm^3
# Si number density = 24.893441 Si / 1000 Ang^3
#
#
#
# Elastic Constant Matrix: (Units=GPa)
#
#
# Indices 1 2 3 4 5 6 
#
# 1 130.5894 -4.6165 -23.1420 0.0000 0.0000 0.0000
# 2 -4.6165 69.4991 -4.6479 0.0000 0.0000 0.0000
# 3 -23.1420 -4.6479 40.9574 0.0000 0.0000 0.0000
# 4 0.0000 0.0000 0.0000 13.6294 0.0000 0.0000
# 5 0.0000 0.0000 0.0000 0.0000 27.9503 0.0000
# 6 0.0000 0.0000 0.0000 0.0000 0.0000 -3.8308
#
#
#
# Elastic Compliance Matrix: (Units=1/GPa)
#
#
# Indices 1 2 3 4 5 6 
#
# 1 0.008565 0.000899 0.004942 0.000000 0.000000 0.000000
# 2 0.000899 0.014593 0.002164 0.000000 0.000000 0.000000
# 3 0.004942 0.002164 0.027453 0.000000 0.000000 0.000000
# 4 0.000000 0.000000 0.000000 0.073371 0.000000 0.000000
# 5 0.000000 0.000000 0.000000 0.000000 0.035778 0.000000
# 6 0.000000 0.000000 0.000000 0.000000 0.000000 -0.261043
#
#
# Mechanical properties :
#
#
# Convention : Reuss Voigt Hill
#
# Bulk Modulus (GPa) = 15.01005 19.58145 17.29575
# Shear Modulus (GPa) = -52.58423 25.77994 -13.40215
#
# Velocity S-wave (km/s) = -4.60104 3.22158 -2.32282
# Velocity P-wave (km/s) = 4.70992 4.66061 0.48062
#
# Compressibility (1/GPa) = 0.06662204
#
# Stress axis : x y z
#
# Youngs Moduli (GPa) = 116.75305 68.52528 36.42549
#
# Poissons Ratio (x) = -0.06163 -0.18000
# Poissons Ratio (y) = -0.10501 -0.07883
# Poissons Ratio (z) = -0.57694 -0.14831
#
# Static dielectric constant tensor:
#      x y z
#    x 2.065700 0.000000 0.000000 
#    y 0.000000 2.003510 0.000000 
#    z 0.000000 0.000000 2.015170 
# 
# From -- ./inp_files/7472.got.cif
#   From: 2010.05.17/outbox.cif.g08.bks.cpg/sg61_4_cif.got.tgz:7472.got - 2010.06.03 15:17:17.
