data_PCOD9459530
_publ_section_title
;
Structure prediction by ZEFSAII (Michael W. Deem and Ramdas Pophale) SiO2 
 PCOD9459530
Probable space group: P B C A
;
_chemical_formula_sum "Si O2"
_cell_formula_units_Z 64
_cell_length_a 22.048945
_cell_length_b 8.668383
_cell_length_c 13.942282
_cell_angle_alpha 90.000000
_cell_angle_beta 90.000000
_cell_angle_gamma 90.000000
_cell_volume 2664.770234
_symmetry_space_group_name_H-M "P B C A"
_symmetry_group_IT_number 61
_symmetry_cell_setting 'orthorhombic'
loop_
_space_group_symop_operation_xyz
x,y,z
1/2-x,-y,1/2+z
1/2+x,1/2-y,-z
-x,1/2+y,1/2-z
-x,-y,-z
1/2+x,y,1/2-z
1/2-x,1/2+y,z
x,1/2-y,1/2+z
loop_
_atom_site_type_symbol
_atom_site_label
_atom_site_fract_x
_atom_site_fract_y
_atom_site_fract_z
Si Si1 0.640357 0.862733 0.032036
Si Si2 0.856304 0.233729 0.831444
Si Si3 0.878855 0.681139 0.946279
Si Si4 0.535306 0.956967 0.341377
Si Si5 0.668437 0.392250 0.097678
Si Si6 0.580842 0.043977 0.760248
Si Si7 0.271498 0.201880 0.330820
Si Si8 0.008910 0.758766 0.967950
O O1 0.654568 0.746846 0.944332
O O2 0.652735 0.030642 0.989395
O O3 0.683945 0.822902 0.117607
O O4 0.570681 0.827069 0.059178
O O5 0.895187 0.078729 0.812841
O O6 0.901236 0.374263 0.798240
O O7 0.793941 0.276494 0.777882
O O8 0.885019 0.659235 0.832657
O O9 0.948354 0.660845 0.982085
O O10 0.849445 0.833854 0.991864
O O11 0.490494 0.931448 0.251737
O O12 0.522893 0.842168 0.430972
O O13 0.514456 0.118886 0.388063
O O14 0.607193 0.432010 0.154196
O O15 0.709647 0.540244 0.121288
O O16 0.703702 0.251533 0.147827
#
# Coordination Sequence:
#
# PCOD9459530 Si02
#       8
#     8   8   8   8   8   8   8   8
#     4  10  22  41  64  94 135 169 215 267 329 395
#     4   9  22  40  61  94 128 170 216 266 330 389
#     4  11  23  40  63  99 132 175 216 275 325 394
#     4  10  20  37  63  96 133 169 217 265 326 394
#     4  11  24  46  65  94 126 173 230 276 338 397
#     4  10  22  40  62  92 137 169 215 274 324 399
#     4  11  24  45  70  89 129 175 221 283 334 400
#     4  10  20  37  64  95 134 175 212 266 324 395
#
# _framework density 24.017081000000001
#
# number of rings (size 3 to 8) (size 9 to 14) (size 15 to 20)
#    0.000    1.750    1.250    2.625    7.000    1.000 
#    4.500    2.500    0.000    0.000    0.000    0.000 
#    0.000    0.000    0.000    0.000    0.000    0.000 
#
# Total GULP energy -357472.909523 kJ/mol
# GULP energy per Si atom -5585.514211 kJ/mol
# Density = 2.396242 g / cm^3
# Si number density = 24.017081 Si / 1000 Ang^3
#
#
#
# Elastic Constant Matrix: (Units=GPa)
#
#
# Indices 1 2 3 4 5 6 
#
# 1 46.5538 3.9948 -5.4870 0.0000 0.0000 0.0000
# 2 3.9948 58.9950 20.2779 0.0000 0.0000 0.0000
# 3 -5.4870 20.2779 50.2025 0.0000 0.0000 0.0000
# 4 0.0000 0.0000 0.0000 24.7680 0.0000 0.0000
# 5 0.0000 0.0000 0.0000 0.0000 25.0256 0.0000
# 6 0.0000 0.0000 0.0000 0.0000 0.0000 32.2434
#
#
#
# Elastic Compliance Matrix: (Units=1/GPa)
#
#
# Indices 1 2 3 4 5 6 
#
# 1 0.022126 -0.002705 0.003511 0.000000 0.000000 0.000000
# 2 -0.002705 0.020014 -0.008380 0.000000 0.000000 0.000000
# 3 0.003511 -0.008380 0.023688 0.000000 0.000000 0.000000
# 4 0.000000 0.000000 0.000000 0.040375 0.000000 0.000000
# 5 0.000000 0.000000 0.000000 0.000000 0.039959 0.000000
# 6 0.000000 0.000000 0.000000 0.000000 0.000000 0.031014
#
#
# Mechanical properties :
#
#
# Convention : Reuss Voigt Hill
#
# Bulk Modulus (GPa) = 19.73138 21.48029 20.60583
# Shear Modulus (GPa) = 23.89858 25.53844 24.71851
#
# Velocity S-wave (km/s) = 3.15789 3.26443 3.21160
# Velocity P-wave (km/s) = 4.64002 4.81372 4.72766
#
# Compressibility (1/GPa) = 0.05068070
#
# Stress axis : x y z
#
# Youngs Moduli (GPa) = 45.19476 49.96489 42.21572
#
# Poissons Ratio (x) = 0.13516 -0.14822
# Poissons Ratio (y) = 0.12226 0.35376
# Poissons Ratio (z) = -0.15868 0.41869
#
# Static dielectric constant tensor:
#      x y z
#    x 1.937450 0.000000 0.000000 
#    y 0.000000 1.967450 0.000000 
#    z 0.000000 0.000000 1.920890 
# 
# From -- ./inp_files/3185.got.cif
#   From: 2010.05.17/outbox.cif.g08.bks.cpg/sg61_2_cif.got.tgz:3185.got - 2010.06.03 15:17:17.
