data_PCOD9459294
_publ_section_title
;
Structure prediction by ZEFSAII (Michael W. Deem and Ramdas Pophale) SiO2 
 PCOD9459294
Probable space group: P B C A
;
_chemical_formula_sum "Si O2"
_cell_formula_units_Z 64
_cell_length_a 7.394197
_cell_length_b 13.613793
_cell_length_c 22.698668
_cell_angle_alpha 90.000000
_cell_angle_beta 90.000000
_cell_angle_gamma 90.000000
_cell_volume 2284.917546
_symmetry_space_group_name_H-M "P B C A"
_symmetry_group_IT_number 61
_symmetry_cell_setting 'orthorhombic'
loop_
_space_group_symop_operation_xyz
x,y,z
1/2-x,-y,1/2+z
1/2+x,1/2-y,-z
-x,1/2+y,1/2-z
-x,-y,-z
1/2+x,y,1/2-z
1/2-x,1/2+y,z
x,1/2-y,1/2+z
loop_
_atom_site_type_symbol
_atom_site_label
_atom_site_fract_x
_atom_site_fract_y
_atom_site_fract_z
Si Si1 0.458503 0.857335 0.978245
Si Si2 0.765164 0.857238 0.678049
Si Si3 0.311408 0.372018 0.688460
Si Si4 0.311408 0.627983 0.811540
Si Si5 0.734836 0.857238 0.321951
Si Si6 0.035727 0.058612 0.094120
Si Si7 0.035727 0.558612 0.905880
Si Si8 0.958503 0.142665 0.978245
O O1 0.500000 0.750000 0.951569
O O2 0.490514 0.953151 0.937786
O O3 0.250000 0.861222 0.000000
O O4 0.574731 0.871131 0.038152
O O5 0.705357 0.894305 0.742363
O O6 0.745277 0.739599 0.680194
O O7 0.638871 0.897013 0.626731
O O8 0.977907 0.877507 0.673903
O O9 0.245277 0.260401 0.680194
O O10 0.186596 0.433542 0.644733
O O11 0.294643 0.605695 0.742363
O O12 0.522093 0.622493 0.826097
O O13 0.186597 0.566458 0.855267
O O14 0.861129 0.897013 0.373269
O O15 0.009485 0.953151 0.062214
O O16 0.074731 0.128869 0.038152
#
# Coordination Sequence:
#
# PCOD9459294 Si02
#       8
#     8   8   8   8   8   8   8   8
#     4  11  28  58  88 121 168 232 301 383 456 531
#     4  10  19  37  76 135 192 244 286 362 437 532
#     4  10  19  37  76 134 195 239 294 353 445 528
#     4  10  19  37  76 134 195 239 294 353 445 528
#     4  10  19  37  76 135 192 244 286 362 437 532
#     4  11  24  50  85 130 178 224 295 370 451 538
#     4  11  24  50  85 130 178 224 295 370 451 538
#     4  11  28  58  88 121 168 232 301 383 456 531
#
# _framework density 28.009763
#
# number of rings (size 3 to 8) (size 9 to 14) (size 15 to 20)
#    0.000    1.500    2.500    2.250    0.000    4.000 
#   22.500    1.250    0.000    6.000    0.000    3.500 
#    0.000    0.000    0.000    0.000    0.000    0.000 
#
# Total GULP energy -359750.859203 kJ/mol
# GULP energy per Si atom -5621.107175 kJ/mol
# Density = 2.794601 g / cm^3
# Si number density = 28.009763 Si / 1000 Ang^3
#
#
#
# Elastic Constant Matrix: (Units=GPa)
#
#
# Indices 1 2 3 4 5 6 
#
# 1 84.6198 47.8192 58.9955 0.0000 0.0000 0.0000
# 2 47.8192 222.3771 76.5214 0.0000 0.0000 0.0000
# 3 58.9955 76.5214 245.8076 0.0000 0.0000 0.0000
# 4 0.0000 0.0000 0.0000 55.8668 0.0000 0.0000
# 5 0.0000 0.0000 0.0000 0.0000 56.7296 0.0000
# 6 0.0000 0.0000 0.0000 0.0000 0.0000 42.2227
#
#
#
# Elastic Compliance Matrix: (Units=1/GPa)
#
#
# Indices 1 2 3 4 5 6 
#
# 1 0.015131 -0.002244 -0.002933 0.000000 0.000000 0.000000
# 2 -0.002244 0.005369 -0.001133 0.000000 0.000000 0.000000
# 3 -0.002933 -0.001133 0.005125 0.000000 0.000000 0.000000
# 4 0.000000 0.000000 0.000000 0.017900 0.000000 0.000000
# 5 0.000000 0.000000 0.000000 0.000000 0.017627 0.000000
# 6 0.000000 0.000000 0.000000 0.000000 0.000000 0.023684
#
#
# Mechanical properties :
#
#
# Convention : Reuss Voigt Hill
#
# Bulk Modulus (GPa) = 76.89563 102.16407 89.52985
# Shear Modulus (GPa) = 49.12043 55.59505 52.35774
#
# Velocity S-wave (km/s) = 4.19225 4.45999 4.32819
# Velocity P-wave (km/s) = 7.13765 7.94202 7.55055
#
# Compressibility (1/GPa) = 0.01300464
#
# Stress axis : x y z
#
# Youngs Moduli (GPa) = 66.09135 186.24352 195.13153
#
# Poissons Ratio (x) = 0.41802 0.57227
# Poissons Ratio (y) = 0.14834 0.22105
# Poissons Ratio (z) = 0.19383 0.21098
#
# Static dielectric constant tensor:
#      x y z
#    x 2.171360 0.000000 0.000000 
#    y 0.000000 2.226920 0.000000 
#    z 0.000000 0.000000 2.167040 
# 
# From -- ./inp_files/10912.got.cif
#   From: 2010.05.17/outbox.cif.g08.bks.cpg/sg61_6_cif.got.tgz:10912.got - 2010.06.03 15:17:17.
