data_PCOD9459171
_publ_section_title
;
Structure prediction by ZEFSAII (Michael W. Deem and Ramdas Pophale) SiO2 
 PCOD9459171
Probable space group: P B C A
;
_chemical_formula_sum "Si O2"
_cell_formula_units_Z 64
_cell_length_a 32.761156
_cell_length_b 19.433823
_cell_length_c 5.276136
_cell_angle_alpha 90.000000
_cell_angle_beta 90.000000
_cell_angle_gamma 90.000000
_cell_volume 3359.181287
_symmetry_space_group_name_H-M "P B C A"
_symmetry_group_IT_number 61
_symmetry_cell_setting 'orthorhombic'
loop_
_space_group_symop_operation_xyz
x,y,z
1/2-x,-y,1/2+z
1/2+x,1/2-y,-z
-x,1/2+y,1/2-z
-x,-y,-z
1/2+x,y,1/2-z
1/2-x,1/2+y,z
x,1/2-y,1/2+z
loop_
_atom_site_type_symbol
_atom_site_label
_atom_site_fract_x
_atom_site_fract_y
_atom_site_fract_z
Si Si1 0.884493 0.206966 0.106416
Si Si2 0.841597 0.486155 0.938662
Si Si3 0.506784 0.073952 0.287898
Si Si4 0.239313 0.458347 0.957793
Si Si5 0.819813 0.097097 0.942559
Si Si6 0.565585 0.523497 0.530119
Si Si7 0.980563 0.727854 0.169765
Si Si8 0.041625 0.648772 0.667915
O O1 0.885290 0.267079 0.893787
O O2 0.925090 0.162944 0.049836
O O3 0.845212 0.163032 0.027624
O O4 0.809126 0.546575 0.998931
O O5 0.831046 0.429676 0.160530
O O6 0.889528 0.499618 0.956764
O O7 0.832832 0.458814 0.655920
O O8 0.510255 0.147374 0.141571
O O9 0.494831 0.100768 0.564554
O O10 0.546505 0.029336 0.233843
O O11 0.468282 0.030100 0.188834
O O12 0.247286 0.484504 0.670842
O O13 0.270884 0.397710 0.023316
O O14 0.565991 0.601542 0.637053
O O15 0.957929 0.739742 0.433486
O O16 0.020344 0.777744 0.224187
#
# Coordination Sequence:
#
# PCOD9459171 Si02
#       8
#     8   8   8   8   8   8   8   8
#     4  12  24  33  51  79 108 141 181 216 264 328
#     4  10  19  33  53  79 102 141 171 215 266 321
#     4  10  22  35  49  74 104 144 180 224 277 320
#     4   8  16  30  52  75  99 131 165 199 251 317
#     4  10  19  35  52  74 111 136 172 213 266 318
#     4  11  21  34  51  76 108 139 177 231 275 321
#     4  10  19  34  51  67  92 132 177 206 255 316
#     4  11  21  34  52  70 103 143 179 221 268 327
#
# _framework density 19.052261999999999
#
# number of rings (size 3 to 8) (size 9 to 14) (size 15 to 20)
#    0.000    1.750    2.500    3.375    1.750    0.000 
#    0.000    0.000    0.000    0.000    0.000    3.500 
#    0.000    0.000    0.000    0.000    0.000    0.000 
#
# Total GULP energy -356485.305291 kJ/mol
# GULP energy per Si atom -5570.082895 kJ/mol
# Density = 1.900890 g / cm^3
# Si number density = 19.052262 Si / 1000 Ang^3
#
#
#
# Elastic Constant Matrix: (Units=GPa)
#
#
# Indices 1 2 3 4 5 6 
#
# 1 81.4037 22.8599 -2.6856 0.0000 0.0000 0.0000
# 2 22.8599 68.1236 9.3176 0.0000 0.0000 0.0000
# 3 -2.6856 9.3176 68.7999 0.0000 0.0000 0.0000
# 4 0.0000 0.0000 0.0000 32.2475 0.0000 0.0000
# 5 0.0000 0.0000 0.0000 0.0000 17.8406 0.0000
# 6 0.0000 0.0000 0.0000 0.0000 0.0000 29.7086
#
#
#
# Elastic Compliance Matrix: (Units=1/GPa)
#
#
# Indices 1 2 3 4 5 6 
#
# 1 0.013655 -0.004743 0.001175 0.000000 0.000000 0.000000
# 2 -0.004743 0.016604 -0.002434 0.000000 0.000000 0.000000
# 3 0.001175 -0.002434 0.014910 0.000000 0.000000 0.000000
# 4 0.000000 0.000000 0.000000 0.031010 0.000000 0.000000
# 5 0.000000 0.000000 0.000000 0.000000 0.056052 0.000000
# 6 0.000000 0.000000 0.000000 0.000000 0.000000 0.033660
#
#
# Mechanical properties :
#
#
# Convention : Reuss Voigt Hill
#
# Bulk Modulus (GPa) = 30.15092 30.81231 30.48161
# Shear Modulus (GPa) = 26.46205 28.54836 27.50521
#
# Velocity S-wave (km/s) = 3.73086 3.87515 3.80369
# Velocity P-wave (km/s) = 5.86676 6.01914 5.94344
#
# Compressibility (1/GPa) = 0.03316649
#
# Stress axis : x y z
#
# Youngs Moduli (GPa) = 73.23244 60.22779 67.06731
#
# Poissons Ratio (x) = 0.28566 -0.07883
# Poissons Ratio (y) = 0.34734 0.16323
# Poissons Ratio (z) = -0.08608 0.14658
#
# Static dielectric constant tensor:
#      x y z
#    x 1.679810 0.000000 0.000000 
#    y 0.000000 1.713210 0.000000 
#    z 0.000000 0.000000 1.791940 
# 
# From -- ./inp_files/1497.got.cif
#   From: 2010.05.17/outbox.cif.g08.bks.cpg/sg61_1_cif.got.tgz:1497.got - 2010.06.03 15:17:17.
