data_PCOD9459380
_publ_section_title
;
Structure prediction by ZEFSAII (Michael W. Deem and Ramdas Pophale) SiO2 
 PCOD9459380
Probable space group: P B C A
;
_chemical_formula_sum "Si O2"
_cell_formula_units_Z 56
_cell_length_a 20.141372
_cell_length_b 9.652845
_cell_length_c 11.733418
_cell_angle_alpha 90.000000
_cell_angle_beta 90.000000
_cell_angle_gamma 90.000000
_cell_volume 2281.229221
_symmetry_space_group_name_H-M "P B C A"
_symmetry_group_IT_number 61
_symmetry_cell_setting 'orthorhombic'
loop_
_space_group_symop_operation_xyz
x,y,z
1/2-x,-y,1/2+z
1/2+x,1/2-y,-z
-x,1/2+y,1/2-z
-x,-y,-z
1/2+x,y,1/2-z
1/2-x,1/2+y,z
x,1/2-y,1/2+z
loop_
_atom_site_type_symbol
_atom_site_label
_atom_site_fract_x
_atom_site_fract_y
_atom_site_fract_z
Si Si1 0.548773 0.221453 0.962007
Si Si2 0.673277 0.799422 0.246125
Si Si3 0.615636 0.040180 0.615861
Si Si4 0.113670 0.995136 0.425420
Si Si5 0.755932 0.958710 0.687814
Si Si6 0.016137 0.051443 0.218964
Si Si7 0.081467 0.814177 0.063018
O O1 0.588751 0.325883 0.047255
O O2 0.585233 0.074093 0.963457
O O3 0.473892 0.213929 0.011469
O O4 0.536427 0.304935 0.844172
O O5 0.729046 0.688601 0.222439
O O6 0.630970 0.742781 0.350521
O O7 0.633175 0.843720 0.130370
O O8 0.703842 0.949244 0.279756
O O9 0.690751 0.048179 0.657697
O O10 0.561889 0.983898 0.708498
O O11 0.615581 0.914029 0.526622
O O12 0.188008 0.057959 0.408978
O O13 0.057110 0.043262 0.334787
O O14 0.043839 0.926645 0.141476
#
# Coordination Sequence:
#
# PCOD9459380 Si02
#       7
#     8   8   8   8   8   8   8
#     4   9  16  31  59  79 104 143 187 227 271 328
#     4   9  20  35  51  78 111 141 183 227 264 344
#     4   9  17  31  56  79 105 143 186 223 273 332
#     4   9  19  32  53  78 108 143 181 227 279 314
#     4  10  20  34  52  78 111 142 179 221 283 330
#     4   8  16  32  52  82 106 138 193 227 259 333
#     4   8  16  33  53  82 103 138 188 233 264 320
#
# _framework density 24.548168
#
# number of rings (size 3 to 8) (size 9 to 14) (size 15 to 20)
#    0.857    2.286    0.000    2.571    2.000    0.000 
#    2.571    1.429    0.000    3.429    0.000    0.000 
#    0.000    0.000    0.000    0.000    0.000    0.000 
#
# Total GULP energy -311980.428801 kJ/mol
# GULP energy per Si atom -5571.079086 kJ/mol
# Density = 2.449230 g / cm^3
# Si number density = 24.548168 Si / 1000 Ang^3
#
#
#
# Elastic Constant Matrix: (Units=GPa)
#
#
# Indices 1 2 3 4 5 6 
#
# 1 108.4522 17.2237 29.3681 0.0000 0.0000 0.0000
# 2 17.2237 99.5424 25.5919 0.0000 0.0000 0.0000
# 3 29.3681 25.5919 36.3370 0.0000 0.0000 0.0000
# 4 0.0000 0.0000 0.0000 12.4666 0.0000 0.0000
# 5 0.0000 0.0000 0.0000 0.0000 15.7249 0.0000
# 6 0.0000 0.0000 0.0000 0.0000 0.0000 27.9505
#
#
#
# Elastic Compliance Matrix: (Units=1/GPa)
#
#
# Indices 1 2 3 4 5 6 
#
# 1 0.011825 0.000502 -0.009910 0.000000 0.000000 0.000000
# 2 0.000502 0.012289 -0.009060 0.000000 0.000000 0.000000
# 3 -0.009910 -0.009060 0.041911 0.000000 0.000000 0.000000
# 4 0.000000 0.000000 0.000000 0.080214 0.000000 0.000000
# 5 0.000000 0.000000 0.000000 0.000000 0.063593 0.000000
# 6 0.000000 0.000000 0.000000 0.000000 0.000000 0.035778
#
#
# Mechanical properties :
#
#
# Convention : Reuss Voigt Hill
#
# Bulk Modulus (GPa) = 34.38015 43.18876 38.78446
# Shear Modulus (GPa) = 17.10910 22.70492 19.90701
#
# Velocity S-wave (km/s) = 2.64287 3.04454 2.85078
# Velocity P-wave (km/s) = 4.83204 5.47637 5.16426
#
# Compressibility (1/GPa) = 0.02908655
#
# Stress axis : x y z
#
# Youngs Moduli (GPa) = 84.56963 81.37683 23.86014
#
# Poissons Ratio (x) = -0.04084 0.23646
# Poissons Ratio (y) = -0.04244 0.21618
# Poissons Ratio (z) = 0.83811 0.73730
#
# Static dielectric constant tensor:
#      x y z
#    x 2.068850 0.000000 0.000000 
#    y 0.000000 2.179530 0.000000 
#    z 0.000000 0.000000 2.112290 
# 
# From -- ./inp_files/9701.got.cif
#   From: 2010.05.17/outbox.cif.g08.bks.cpg/sg61_5_cif.got.tgz:9701.got - 2010.06.03 15:17:17.
