data_PCOD9459581
_publ_section_title
;
Structure prediction by ZEFSAII (Michael W. Deem and Ramdas Pophale) SiO2 
 PCOD9459581
Probable space group: P B C A
;
_chemical_formula_sum "Si O2"
_cell_formula_units_Z 48
_cell_length_a 10.082276
_cell_length_b 8.801352
_cell_length_c 27.366445
_cell_angle_alpha 90.000000
_cell_angle_beta 90.000000
_cell_angle_gamma 90.000000
_cell_volume 2428.434293
_symmetry_space_group_name_H-M "P B C A"
_symmetry_group_IT_number 61
_symmetry_cell_setting 'orthorhombic'
loop_
_space_group_symop_operation_xyz
x,y,z
1/2-x,-y,1/2+z
1/2+x,1/2-y,-z
-x,1/2+y,1/2-z
-x,-y,-z
1/2+x,y,1/2-z
1/2-x,1/2+y,z
x,1/2-y,1/2+z
loop_
_atom_site_type_symbol
_atom_site_label
_atom_site_fract_x
_atom_site_fract_y
_atom_site_fract_z
Si Si1 0.608438 0.433124 0.462188
Si Si2 0.613458 0.438608 0.733924
Si Si3 0.631554 0.400750 0.999116
Si Si4 0.892832 0.589682 0.708613
Si Si5 0.561268 0.526327 0.627749
Si Si6 0.199988 0.288674 0.392529
O O1 0.500000 0.500000 0.500000
O O2 0.748340 0.503127 0.477041
O O3 0.611321 0.252888 0.468805
O O4 0.563495 0.475794 0.407701
O O5 0.764487 0.496616 0.727742
O O6 0.528911 0.506155 0.778156
O O7 0.610415 0.256909 0.732700
O O8 0.539319 0.499717 0.684852
O O9 0.667050 0.349390 0.054085
O O10 0.500000 0.500000 0.000000
O O11 0.874983 0.621880 0.650945
O O12 0.656390 0.385949 0.611624
O O13 0.645802 0.678875 0.618530
#
# Coordination Sequence:
#
# PCOD9459581 Si02
#       6
#     8   8   8   8   8   8
#     4  12  23  41  63  88 126 160 206 250 294 363
#     4  10  21  41  63  93 121 162 203 257 306 367
#     4  12  25  40  61  91 125 162 204 250 303 357
#     4  10  21  39  64  89 122 154 205 251 307 363
#     4  10  22  39  64  90 123 161 208 249 305 365
#     4  10  20  38  63  88 119 159 201 245 304 363
#
# _framework density 19.765822
#
# number of rings (size 3 to 8) (size 9 to 14) (size 15 to 20)
#    0.000    1.333    3.333    2.000    2.333    1.333 
#    3.000    0.000    0.000    0.000    0.000    0.000 
#    0.000    0.000    0.000    0.000    0.000    0.000 
#
# Total GULP energy -268316.870473 kJ/mol
# GULP energy per Si atom -5589.934802 kJ/mol
# Density = 1.972083 g / cm^3
# Si number density = 19.765822 Si / 1000 Ang^3
#
#
#
# Elastic Constant Matrix: (Units=GPa)
#
#
# Indices 1 2 3 4 5 6 
#
# 1 76.1838 21.6298 5.9212 0.0000 0.0000 0.0000
# 2 21.6298 92.7001 -3.8324 0.0000 0.0000 0.0000
# 3 5.9212 -3.8324 45.4801 0.0000 0.0000 0.0000
# 4 0.0000 0.0000 0.0000 17.2045 0.0000 0.0000
# 5 0.0000 0.0000 0.0000 0.0000 36.3994 0.0000
# 6 0.0000 0.0000 0.0000 0.0000 0.0000 33.0575
#
#
#
# Elastic Compliance Matrix: (Units=1/GPa)
#
#
# Indices 1 2 3 4 5 6 
#
# 1 0.014263 -0.003417 -0.002145 0.000000 0.000000 0.000000
# 2 -0.003417 0.011644 0.001426 0.000000 0.000000 0.000000
# 3 -0.002145 0.001426 0.022387 0.000000 0.000000 0.000000
# 4 0.000000 0.000000 0.000000 0.058124 0.000000 0.000000
# 5 0.000000 0.000000 0.000000 0.000000 0.027473 0.000000
# 6 0.000000 0.000000 0.000000 0.000000 0.000000 0.030250
#
#
# Mechanical properties :
#
#
# Convention : Reuss Voigt Hill
#
# Bulk Modulus (GPa) = 24.98593 29.08905 27.03749
# Shear Modulus (GPa) = 26.91745 30.04196 28.47970
#
# Velocity S-wave (km/s) = 3.69428 3.90281 3.79998
# Velocity P-wave (km/s) = 5.55566 5.92098 5.74123
#
# Compressibility (1/GPa) = 0.04002252
#
# Stress axis : x y z
#
# Youngs Moduli (GPa) = 70.11201 85.88385 44.66872
#
# Poissons Ratio (x) = 0.29343 0.09581
# Poissons Ratio (y) = 0.23955 -0.06370
# Poissons Ratio (z) = 0.15038 -0.12247
#
# Static dielectric constant tensor:
#      x y z
#    x 1.668100 0.000000 0.000000 
#    y 0.000000 1.698930 0.000000 
#    z 0.000000 0.000000 1.723920 
# 
# From -- ./inp_files/1847.got.cif
#   From: 2010.05.17/outbox.cif.g08.bks.cpg/sg61_1_cif.got.tgz:1847.got - 2010.06.03 15:17:17.
