data_PCOD9459922
_publ_section_title
;
Structure prediction by ZEFSAII (Michael W. Deem and Ramdas Pophale) SiO2 
 PCOD9459922
Probable space group: P B C A
;
_chemical_formula_sum "Si O2"
_cell_formula_units_Z 40
_cell_length_a 21.784955
_cell_length_b 5.177313
_cell_length_c 13.590643
_cell_angle_alpha 90.000000
_cell_angle_beta 90.000000
_cell_angle_gamma 90.000000
_cell_volume 1532.855065
_symmetry_space_group_name_H-M "P B C A"
_symmetry_group_IT_number 61
_symmetry_cell_setting 'orthorhombic'
loop_
_space_group_symop_operation_xyz
x,y,z
1/2-x,-y,1/2+z
1/2+x,1/2-y,-z
-x,1/2+y,1/2-z
-x,-y,-z
1/2+x,y,1/2-z
1/2-x,1/2+y,z
x,1/2-y,1/2+z
loop_
_atom_site_type_symbol
_atom_site_label
_atom_site_fract_x
_atom_site_fract_y
_atom_site_fract_z
Si Si1 0.285247 0.184421 0.259511
Si Si2 0.389909 0.530821 0.274672
Si Si3 0.453520 0.246213 0.437240
Si Si4 0.410331 0.669962 0.583952
Si Si5 0.839641 0.895358 0.077035
O O1 0.240976 0.412881 0.223383
O O2 0.352737 0.288296 0.228852
O O3 0.294010 0.107726 0.377271
O O4 0.445725 0.441992 0.343430
O O5 0.404961 0.749241 0.196544
O O6 0.340496 0.651237 0.350583
O O7 0.425274 0.393817 0.532969
O O8 0.525086 0.189290 0.444416
O O9 0.406460 0.025153 0.408324
O O10 0.348958 0.784080 0.531613
#
# Coordination Sequence:
#
# PCOD9459922 Si02
#       5
#     8   8   8   8   8
#     4  11  22  44  72  92 129 175 225 292 354 405
#     4  10  22  38  65 100 132 184 236 287 355 425
#     4   9  21  37  61  94 137 188 223 286 356 408
#     4  10  21  39  60  98 143 177 235 286 338 436
#     4  10  21  40  64  95 132 181 229 281 356 411
#
# _framework density 26.095099000000001
#
# number of rings (size 3 to 8) (size 9 to 14) (size 15 to 20)
#    0.000    2.000    2.000    0.600    2.800    3.200 
#    0.000    2.000    0.000    0.000    0.000    0.000 
#    0.000    0.000    0.000    0.000    0.000    0.000 
#
# Total GULP energy -222815.067807 kJ/mol
# GULP energy per Si atom -5570.376695 kJ/mol
# Density = 2.603571 g / cm^3
# Si number density = 26.095099 Si / 1000 Ang^3
#
#
#
# Elastic Constant Matrix: (Units=GPa)
#
#
# Indices 1 2 3 4 5 6 
#
# 1 88.2791 26.9634 22.9653 0.0000 0.0000 0.0000
# 2 26.9634 98.2361 3.9365 0.0000 0.0000 0.0000
# 3 22.9653 3.9365 109.2665 0.0000 0.0000 0.0000
# 4 0.0000 0.0000 0.0000 14.8123 0.0000 0.0000
# 5 0.0000 0.0000 0.0000 0.0000 27.8473 0.0000
# 6 0.0000 0.0000 0.0000 0.0000 0.0000 37.1631
#
#
#
# Elastic Compliance Matrix: (Units=1/GPa)
#
#
# Indices 1 2 3 4 5 6 
#
# 1 0.013074 -0.003483 -0.002622 0.000000 0.000000 0.000000
# 2 -0.003483 0.011122 0.000331 0.000000 0.000000 0.000000
# 3 -0.002622 0.000331 0.009691 0.000000 0.000000 0.000000
# 4 0.000000 0.000000 0.000000 0.067511 0.000000 0.000000
# 5 0.000000 0.000000 0.000000 0.000000 0.035910 0.000000
# 6 0.000000 0.000000 0.000000 0.000000 0.000000 0.026908
#
#
# Mechanical properties :
#
#
# Convention : Reuss Voigt Hill
#
# Bulk Modulus (GPa) = 44.76513 44.83468 44.79990
# Shear Modulus (GPa) = 27.29077 32.09231 29.69154
#
# Velocity S-wave (km/s) = 3.23742 3.51069 3.37682
# Velocity P-wave (km/s) = 5.58269 5.80102 5.69290
#
# Compressibility (1/GPa) = 0.02233882
#
# Stress axis : x y z
#
# Youngs Moduli (GPa) = 76.48876 89.90892 103.18695
#
# Poissons Ratio (x) = 0.31318 0.27059
# Poissons Ratio (y) = 0.26644 -0.03420
# Poissons Ratio (z) = 0.20058 -0.02980
#
# Static dielectric constant tensor:
#      x y z
#    x 2.131050 0.000000 0.000000 
#    y 0.000000 2.151820 0.000000 
#    z 0.000000 0.000000 2.148220 
# 
# From -- ./inp_files/436.got.cif
#   From: 2010.05.17/outbox.cif.g08.bks.cpg/sg61_1_cif.got.tgz:436.got - 2010.06.03 15:17:17.
