data_PCOD9459230
_publ_section_title
;
Structure prediction by ZEFSAII (Michael W. Deem and Ramdas Pophale) SiO2 
 PCOD9459230
Probable space group: P B C A
;
_chemical_formula_sum "Si O2"
_cell_formula_units_Z 64
_cell_length_a 5.609548
_cell_length_b 15.253855
_cell_length_c 29.424859
_cell_angle_alpha 90.000000
_cell_angle_beta 90.000000
_cell_angle_gamma 90.000000
_cell_volume 2517.803731
_symmetry_space_group_name_H-M "P B C A"
_symmetry_group_IT_number 61
_symmetry_cell_setting 'orthorhombic'
loop_
_space_group_symop_operation_xyz
x,y,z
1/2-x,-y,1/2+z
1/2+x,1/2-y,-z
-x,1/2+y,1/2-z
-x,-y,-z
1/2+x,y,1/2-z
1/2-x,1/2+y,z
x,1/2-y,1/2+z
loop_
_atom_site_type_symbol
_atom_site_label
_atom_site_fract_x
_atom_site_fract_y
_atom_site_fract_z
Si Si1 0.846494 0.379395 0.227010
Si Si2 0.144198 0.858018 0.978484
Si Si3 0.091134 0.961437 0.059166
Si Si4 0.133531 0.772617 0.634213
Si Si5 0.523944 0.580968 0.423101
Si Si6 0.611583 0.714736 0.593712
Si Si7 0.862442 0.317738 0.760247
Si Si8 0.231912 0.454422 0.371295
O O1 0.611281 0.406046 0.256238
O O2 0.852271 0.272536 0.230526
O O3 0.792013 0.416853 0.177272
O O4 0.418286 0.861085 0.963536
O O5 0.059687 0.772887 0.951049
O O6 0.079379 0.871799 0.030673
O O7 0.063943 0.954910 0.958910
O O8 0.041945 0.954522 0.113050
O O9 0.349824 0.000893 0.053185
O O10 0.199625 0.859980 0.606197
O O11 0.367834 0.715694 0.623175
O O12 0.125373 0.788722 0.687580
O O13 0.862266 0.748787 0.617444
O O14 0.346125 0.546841 0.383619
O O15 0.672206 0.612927 0.590335
O O16 0.610246 0.364973 0.751832
#
# Coordination Sequence:
#
# PCOD9459230 Si02
#       8
#     8   8   8   8   8   8   8   8
#     4  10  21  38  61  87 123 171 214 262 332 404
#     4   9  20  40  66  94 125 179 230 261 323 397
#     4  10  20  41  64  93 132 174 221 270 331 399
#     4  11  22  41  68  92 125 170 230 266 322 395
#     4  10  22  40  66  95 130 181 217 281 330 407
#     4  11  22  40  64  99 128 173 221 274 321 393
#     4  10  19  35  59  90 118 159 213 273 315 381
#     4  11  25  39  63 100 134 174 217 280 350 397
#
# _framework density 25.418979
#
# number of rings (size 3 to 8) (size 9 to 14) (size 15 to 20)
#    0.000    1.750    1.250    4.125    3.500    0.000 
#    2.250    1.250    0.000    0.000    0.000    0.000 
#    0.000    0.000    0.000    0.000    0.000    0.000 
#
# Total GULP energy -356737.121139 kJ/mol
# GULP energy per Si atom -5574.017518 kJ/mol
# Density = 2.536112 g / cm^3
# Si number density = 25.418979 Si / 1000 Ang^3
#
#
#
# Elastic Constant Matrix: (Units=GPa)
#
#
# Indices 1 2 3 4 5 6 
#
# 1 130.8023 7.6591 29.3737 0.0000 0.0000 0.0000
# 2 7.6591 43.2430 -0.6615 0.0000 0.0000 0.0000
# 3 29.3737 -0.6615 73.3548 0.0000 0.0000 0.0000
# 4 0.0000 0.0000 0.0000 26.9172 0.0000 0.0000
# 5 0.0000 0.0000 0.0000 0.0000 28.5699 0.0000
# 6 0.0000 0.0000 0.0000 0.0000 0.0000 26.7169
#
#
#
# Elastic Compliance Matrix: (Units=1/GPa)
#
#
# Indices 1 2 3 4 5 6 
#
# 1 0.008504 -0.001559 -0.003419 0.000000 0.000000 0.000000
# 2 -0.001559 0.023414 0.000835 0.000000 0.000000 0.000000
# 3 -0.003419 0.000835 0.015009 0.000000 0.000000 0.000000
# 4 0.000000 0.000000 0.000000 0.037151 0.000000 0.000000
# 5 0.000000 0.000000 0.000000 0.000000 0.035002 0.000000
# 6 0.000000 0.000000 0.000000 0.000000 0.000000 0.037429
#
#
# Mechanical properties :
#
#
# Convention : Reuss Voigt Hill
#
# Bulk Modulus (GPa) = 25.87869 35.57142 30.72505
# Shear Modulus (GPa) = 28.14113 30.50939 29.32526
#
# Velocity S-wave (km/s) = 3.33091 3.46824 3.40027
# Velocity P-wave (km/s) = 4.99962 5.48294 5.24685
#
# Compressibility (1/GPa) = 0.03864183
#
# Stress axis : x y z
#
# Youngs Moduli (GPa) = 117.58786 42.70957 66.62595
#
# Poissons Ratio (x) = 0.06657 0.22782
# Poissons Ratio (y) = 0.18327 -0.05565
# Poissons Ratio (z) = 0.40209 -0.03567
#
# Static dielectric constant tensor:
#      x y z
#    x 2.201360 0.000000 0.000000 
#    y 0.000000 2.033080 0.000000 
#    z 0.000000 0.000000 2.012410 
# 
# From -- ./inp_files/851.got.cif
#   From: 2010.05.17/outbox.cif.g08.bks.cpg/sg61_1_cif.got.tgz:851.got - 2010.06.03 15:17:17.
