data_PCOD9459525
_publ_section_title
;
Structure prediction by ZEFSAII (Michael W. Deem and Ramdas Pophale) SiO2 
 PCOD9459525
Probable space group: P B C A
;
_chemical_formula_sum "Si O2"
_cell_formula_units_Z 64
_cell_length_a 6.883780
_cell_length_b 23.822046
_cell_length_c 14.818455
_cell_angle_alpha 90.000000
_cell_angle_beta 90.000000
_cell_angle_gamma 90.000000
_cell_volume 2430.015069
_symmetry_space_group_name_H-M "P B C A"
_symmetry_group_IT_number 61
_symmetry_cell_setting 'orthorhombic'
loop_
_space_group_symop_operation_xyz
x,y,z
1/2-x,-y,1/2+z
1/2+x,1/2-y,-z
-x,1/2+y,1/2-z
-x,-y,-z
1/2+x,y,1/2-z
1/2-x,1/2+y,z
x,1/2-y,1/2+z
loop_
_atom_site_type_symbol
_atom_site_label
_atom_site_fract_x
_atom_site_fract_y
_atom_site_fract_z
Si Si1 0.285258 0.957188 0.578405
Si Si2 0.628332 0.279588 0.178263
Si Si3 0.966136 0.896048 0.265647
Si Si4 0.256721 0.761398 0.627473
Si Si5 0.335776 0.849219 0.483357
Si Si6 0.245687 0.950158 0.934830
Si Si7 0.720094 0.982983 0.239865
Si Si8 0.786401 0.858834 0.449650
O O1 0.225229 0.904816 0.515289
O O2 0.516175 0.948280 0.579368
O O3 0.228526 0.012668 0.524034
O O4 0.241542 0.970999 0.681526
O O5 0.522659 0.333116 0.225647
O O6 0.476883 0.240136 0.125877
O O7 0.704205 0.246082 0.265409
O O8 0.747960 0.309523 0.096887
O O9 0.715128 0.910343 0.229441
O O10 0.895887 0.891110 0.369511
O O11 0.974421 0.964326 0.231187
O O12 0.349528 0.812873 0.574816
O O13 0.316885 0.705986 0.571651
O O14 0.549584 0.865996 0.445749
O O15 0.323400 0.985148 0.852316
O O16 0.324870 0.888301 0.954857
#
# Coordination Sequence:
#
# PCOD9459525 Si02
#       8
#     8   8   8   8   8   8   8   8
#     4  10  21  38  60  93 131 178 216 263 345 409
#     4  10  22  41  66  94 122 171 226 276 328 389
#     4  11  21  38  67  98 133 170 225 275 325 399
#     4  10  22  41  66  95 121 169 226 279 327 395
#     4  10  21  41  64  90 130 178 219 269 338 400
#     4  10  20  37  63  89 131 176 213 272 335 403
#     4  12  21  36  61  99 133 174 217 274 335 410
#     4   9  20  40  62  88 127 167 220 273 323 385
#
# _framework density 26.337284
#
# number of rings (size 3 to 8) (size 9 to 14) (size 15 to 20)
#    0.000    1.750    2.500    3.000    1.750    2.500 
#    6.750    2.500    0.000    0.000    0.000    0.000 
#    0.000    0.000    0.000    0.000    0.000    0.000 
#
# Total GULP energy -357004.928824 kJ/mol
# GULP energy per Si atom -5578.202013 kJ/mol
# Density = 2.627734 g / cm^3
# Si number density = 26.337284 Si / 1000 Ang^3
#
#
#
# Elastic Constant Matrix: (Units=GPa)
#
#
# Indices 1 2 3 4 5 6 
#
# 1 136.5537 14.2210 6.6178 0.0000 0.0000 0.0000
# 2 14.2210 43.7735 18.8597 0.0000 0.0000 0.0000
# 3 6.6178 18.8597 85.8824 0.0000 0.0000 0.0000
# 4 0.0000 0.0000 0.0000 49.4892 0.0000 0.0000
# 5 0.0000 0.0000 0.0000 0.0000 27.0971 0.0000
# 6 0.0000 0.0000 0.0000 0.0000 0.0000 12.7477
#
#
#
# Elastic Compliance Matrix: (Units=1/GPa)
#
#
# Indices 1 2 3 4 5 6 
#
# 1 0.007580 -0.002442 -0.000048 0.000000 0.000000 0.000000
# 2 -0.002442 0.026019 -0.005526 0.000000 0.000000 0.000000
# 3 -0.000048 -0.005526 0.012861 0.000000 0.000000 0.000000
# 4 0.000000 0.000000 0.000000 0.020206 0.000000 0.000000
# 5 0.000000 0.000000 0.000000 0.000000 0.036904 0.000000
# 6 0.000000 0.000000 0.000000 0.000000 0.000000 0.078446
#
#
# Mechanical properties :
#
#
# Convention : Reuss Voigt Hill
#
# Bulk Modulus (GPa) = 32.86339 38.40073 35.63206
# Shear Modulus (GPa) = 24.01660 32.96754 28.49207
#
# Velocity S-wave (km/s) = 3.02302 3.54184 3.29266
# Velocity P-wave (km/s) = 4.96889 5.59805 5.29283
#
# Compressibility (1/GPa) = 0.03042900
#
# Stress axis : x y z
#
# Youngs Moduli (GPa) = 131.93053 38.43366 77.75489
#
# Poissons Ratio (x) = 0.09385 0.00372
# Poissons Ratio (y) = 0.32216 0.42964
# Poissons Ratio (z) = 0.00631 0.21237
#
# Static dielectric constant tensor:
#      x y z
#    x 2.481520 0.000000 0.000000 
#    y 0.000000 1.993850 0.000000 
#    z 0.000000 0.000000 1.977170 
# 
# From -- ./inp_files/7230.got.cif
#   From: 2010.05.17/outbox.cif.g08.bks.cpg/sg61_4_cif.got.tgz:7230.got - 2010.06.03 15:17:17.
