data_PCOD9459102
_publ_section_title
;
Structure prediction by ZEFSAII (Michael W. Deem and Ramdas Pophale) SiO2 
 PCOD9459102
Probable space group: P B C A
;
_chemical_formula_sum "Si O2"
_cell_formula_units_Z 40
_cell_length_a 18.025002
_cell_length_b 11.634741
_cell_length_c 7.532759
_cell_angle_alpha 90.000000
_cell_angle_beta 90.000000
_cell_angle_gamma 90.000000
_cell_volume 1579.741817
_symmetry_space_group_name_H-M "P B C A"
_symmetry_group_IT_number 61
_symmetry_cell_setting 'orthorhombic'
loop_
_space_group_symop_operation_xyz
x,y,z
1/2-x,-y,1/2+z
1/2+x,1/2-y,-z
-x,1/2+y,1/2-z
-x,-y,-z
1/2+x,y,1/2-z
1/2-x,1/2+y,z
x,1/2-y,1/2+z
loop_
_atom_site_type_symbol
_atom_site_label
_atom_site_fract_x
_atom_site_fract_y
_atom_site_fract_z
Si Si1 0.698378 0.865164 0.323847
Si Si2 0.825374 0.479305 0.697162
Si Si3 0.559540 0.126328 0.142787
Si Si4 0.648033 0.210740 0.832241
Si Si5 0.086574 0.879882 0.466668
O O1 0.671237 0.908227 0.515616
O O2 0.763900 0.769980 0.333768
O O3 0.636953 0.824961 0.184892
O O4 0.741652 0.976852 0.241618
O O5 0.864439 0.606437 0.691422
O O6 0.862294 0.418494 0.867472
O O7 0.589117 0.188857 0.314110
O O8 0.552765 0.989933 0.140467
O O9 0.629691 0.152219 0.017846
O O10 0.484697 0.176623 0.058364
#
# Coordination Sequence:
#
# PCOD9459102 Si02
#       5
#     8   8   8   8   8
#     4  10  18  37  66  93 119 165 224 266 334 394
#     4   9  17  35  64  95 117 167 220 269 325 399
#     4  10  21  41  60  94 132 174 213 270 337 396
#     4   9  21  38  62  91 130 168 217 277 333 383
#     4  10  21  39  66  90 132 176 218 263 330 414
#
# _framework density 25.320594
#
# number of rings (size 3 to 8) (size 9 to 14) (size 15 to 20)
#    1.200    1.200    2.000    0.000    2.800    0.000 
#    7.200    5.000    0.000    0.000    0.000    0.000 
#    0.000    0.000    0.000    0.000    0.000    0.000 
#
# Total GULP energy -223119.684865 kJ/mol
# GULP energy per Si atom -5577.992122 kJ/mol
# Density = 2.526296 g / cm^3
# Si number density = 25.320594 Si / 1000 Ang^3
#
#
#
# Elastic Constant Matrix: (Units=GPa)
#
#
# Indices 1 2 3 4 5 6 
#
# 1 94.1734 13.7167 17.8594 0.0000 0.0000 0.0000
# 2 13.7167 54.8786 21.9589 0.0000 0.0000 0.0000
# 3 17.8594 21.9589 104.1542 0.0000 0.0000 0.0000
# 4 0.0000 0.0000 0.0000 17.2234 0.0000 0.0000
# 5 0.0000 0.0000 0.0000 0.0000 37.2628 0.0000
# 6 0.0000 0.0000 0.0000 0.0000 0.0000 27.7652
#
#
#
# Elastic Compliance Matrix: (Units=1/GPa)
#
#
# Indices 1 2 3 4 5 6 
#
# 1 0.011218 -0.002222 -0.001455 0.000000 0.000000 0.000000
# 2 -0.002222 0.020341 -0.003908 0.000000 0.000000 0.000000
# 3 -0.001455 -0.003908 0.010675 0.000000 0.000000 0.000000
# 4 0.000000 0.000000 0.000000 0.058061 0.000000 0.000000
# 5 0.000000 0.000000 0.000000 0.000000 0.026836 0.000000
# 6 0.000000 0.000000 0.000000 0.000000 0.000000 0.036016
#
#
# Mechanical properties :
#
#
# Convention : Reuss Voigt Hill
#
# Bulk Modulus (GPa) = 36.94832 40.03069 38.48951
# Shear Modulus (GPa) = 26.68982 29.76170 28.22576
#
# Velocity S-wave (km/s) = 3.25018 3.43212 3.34239
# Velocity P-wave (km/s) = 5.35805 5.61692 5.48901
#
# Compressibility (1/GPa) = 0.02706483
#
# Stress axis : x y z
#
# Youngs Moduli (GPa) = 89.14027 49.16205 93.68117
#
# Poissons Ratio (x) = 0.10922 0.13633
# Poissons Ratio (y) = 0.19804 0.36606
# Poissons Ratio (z) = 0.12972 0.19210
#
# Static dielectric constant tensor:
#      x y z
#    x 1.991880 0.000000 0.000000 
#    y 0.000000 2.276580 0.000000 
#    z 0.000000 0.000000 2.052820 
# 
# From -- ./inp_files/3305.got.cif
#   From: 2010.05.17/outbox.cif.g08.bks.cpg/sg61_2_cif.got.tgz:3305.got - 2010.06.03 15:17:17.
