data_PCOD9459470
_publ_section_title
;
Structure prediction by ZEFSAII (Michael W. Deem and Ramdas Pophale) SiO2 
 PCOD9459470
Probable space group: P B C A
;
_chemical_formula_sum "Si O2"
_cell_formula_units_Z 56
_cell_length_a 6.468336
_cell_length_b 16.049760
_cell_length_c 22.819788
_cell_angle_alpha 90.000000
_cell_angle_beta 90.000000
_cell_angle_gamma 90.000000
_cell_volume 2369.041777
_symmetry_space_group_name_H-M "P B C A"
_symmetry_group_IT_number 61
_symmetry_cell_setting 'orthorhombic'
loop_
_space_group_symop_operation_xyz
x,y,z
1/2-x,-y,1/2+z
1/2+x,1/2-y,-z
-x,1/2+y,1/2-z
-x,-y,-z
1/2+x,y,1/2-z
1/2-x,1/2+y,z
x,1/2-y,1/2+z
loop_
_atom_site_type_symbol
_atom_site_label
_atom_site_fract_x
_atom_site_fract_y
_atom_site_fract_z
Si Si1 0.808164 0.138637 0.649931
Si Si2 0.163062 0.418645 0.065662
Si Si3 0.916629 0.880557 0.759264
Si Si4 0.033341 0.903267 0.561228
Si Si5 0.296823 0.039354 0.344722
Si Si6 0.554780 0.720386 0.897103
Si Si7 0.839491 0.244436 0.764468
O O1 0.662376 0.057534 0.647614
O O2 0.691435 0.210174 0.612921
O O3 0.834869 0.170818 0.715366
O O4 0.016473 0.110273 0.618847
O O5 0.188794 0.518606 0.070591
O O6 0.355036 0.355829 0.065750
O O7 0.035092 0.404676 0.006123
O O8 0.911826 0.772469 0.753067
O O9 0.660279 0.856629 0.769143
O O10 0.003073 0.910918 0.822266
O O11 0.861397 0.950283 0.710237
O O12 0.107486 0.811298 0.578241
O O13 0.829348 0.923667 0.600725
O O14 0.642853 0.715297 0.831136
#
# Coordination Sequence:
#
# PCOD9459470 Si02
#       7
#     8   8   8   8   8   8   8
#     4  11  25  42  65 104 135 171 228 285 336 412
#     4  10  26  47  74  96 139 183 225 294 340 389
#     4  10  20  36  60  89 128 181 206 266 342 392
#     4  10  23  50  67  99 141 173 234 290 331 408
#     4  10  22  40  64  93 136 173 225 278 342 411
#     4  12  24  42  72 100 130 185 226 270 350 411
#     4  11  20  39  59  94 137 163 217 274 327 409
#
# _framework density 23.638248999999998
#
# number of rings (size 3 to 8) (size 9 to 14) (size 15 to 20)
#    0.000    1.429    2.857    1.714    4.000    2.286 
#    0.000    7.857    0.000    0.000    0.000    0.000 
#    0.000    0.000    0.000    0.000    0.000    0.000 
#
# Total GULP energy -312505.489607 kJ/mol
# GULP energy per Si atom -5580.455172 kJ/mol
# Density = 2.358445 g / cm^3
# Si number density = 23.638249 Si / 1000 Ang^3
#
#
#
# Elastic Constant Matrix: (Units=GPa)
#
#
# Indices 1 2 3 4 5 6 
#
# 1 73.9902 25.6289 -12.7649 0.0000 0.0000 0.0000
# 2 25.6289 141.9609 34.3343 0.0000 0.0000 0.0000
# 3 -12.7649 34.3343 59.4574 0.0000 0.0000 0.0000
# 4 0.0000 0.0000 0.0000 137.7462 0.0000 0.0000
# 5 0.0000 0.0000 0.0000 0.0000 43.6934 0.0000
# 6 0.0000 0.0000 0.0000 0.0000 0.0000 41.2550
#
#
#
# Elastic Compliance Matrix: (Units=1/GPa)
#
#
# Indices 1 2 3 4 5 6 
#
# 1 0.016043 -0.004335 0.005947 0.000000 0.000000 0.000000
# 2 -0.004335 0.009359 -0.006335 0.000000 0.000000 0.000000
# 3 0.005947 -0.006335 0.021754 0.000000 0.000000 0.000000
# 4 0.000000 0.000000 0.000000 0.007260 0.000000 0.000000
# 5 0.000000 0.000000 0.000000 0.000000 0.022887 0.000000
# 6 0.000000 0.000000 0.000000 0.000000 0.000000 0.024240
#
#
# Mechanical properties :
#
#
# Convention : Reuss Voigt Hill
#
# Bulk Modulus (GPa) = 26.51762 41.08946 33.80354
# Shear Modulus (GPa) = 40.46729 59.75291 50.11010
#
# Velocity S-wave (km/s) = 4.14205 5.03318 4.60920
# Velocity P-wave (km/s) = 5.84105 7.15525 6.53129
#
# Compressibility (1/GPa) = 0.03771077
#
# Stress axis : x y z
#
# Youngs Moduli (GPa) = 62.33325 106.84986 45.96896
#
# Poissons Ratio (x) = 0.46316 -0.27339
# Poissons Ratio (y) = 0.27020 0.29121
# Poissons Ratio (z) = -0.37072 0.67690
#
# Static dielectric constant tensor:
#      x y z
#    x 1.981400 0.000000 0.000000 
#    y 0.000000 1.920620 0.000000 
#    z 0.000000 0.000000 1.800340 
# 
# From -- ./inp_files/10126.got.cif
#   From: 2010.05.17/outbox.cif.g08.bks.cpg/sg61_6_cif.got.tgz:10126.got - 2010.06.03 15:17:17.
