data_PCOD9459653
_publ_section_title
;
Structure prediction by ZEFSAII (Michael W. Deem and Ramdas Pophale) SiO2 
 PCOD9459653
Probable space group: P B C A
;
_chemical_formula_sum "Si O2"
_cell_formula_units_Z 60
_cell_length_a 8.246894
_cell_length_b 32.211184
_cell_length_c 10.317846
_cell_angle_alpha 90.000000
_cell_angle_beta 90.000000
_cell_angle_gamma 90.000000
_cell_volume 2740.855518
_symmetry_space_group_name_H-M "P B C A"
_symmetry_group_IT_number 61
_symmetry_cell_setting 'orthorhombic'
loop_
_space_group_symop_operation_xyz
x,y,z
1/2-x,-y,1/2+z
1/2+x,1/2-y,-z
-x,1/2+y,1/2-z
-x,-y,-z
1/2+x,y,1/2-z
1/2-x,1/2+y,z
x,1/2-y,1/2+z
loop_
_atom_site_type_symbol
_atom_site_label
_atom_site_fract_x
_atom_site_fract_y
_atom_site_fract_z
Si Si1 0.447050 0.351263 0.564133
Si Si2 0.945706 0.289424 0.596773
Si Si3 0.817650 0.032129 0.117843
Si Si4 0.822495 0.265736 0.877000
Si Si5 0.203319 0.873580 0.819972
Si Si6 0.500000 0.000000 0.000000
Si Si7 0.504608 0.953888 0.354087
Si Si8 0.169882 0.580668 0.895975
O O1 0.435057 0.301936 0.560686
O O2 0.619465 0.365753 0.620447
O O3 0.310083 0.364464 0.667969
O O4 0.402990 0.375311 0.434677
O O5 0.862570 0.267173 0.723135
O O6 0.867700 0.274313 0.461778
O O7 0.911530 0.338419 0.616788
O O8 0.135212 0.278123 0.603017
O O9 0.844857 0.078656 0.163606
O O10 0.632215 0.020369 0.101492
O O11 0.907569 0.995053 0.194148
O O12 0.882665 0.031430 0.970280
O O13 0.593640 0.954746 0.012984
O O14 0.610098 0.931903 0.246406
O O15 0.362954 0.923483 0.402506
#
# Coordination Sequence:
#
# PCOD9459653 Si02
#       8
#     8   8   8   8   8   4   8   8
#     4  11  24  41  66  98 134 169 225 275 336 393
#     4  11  23  44  74 101 143 172 232 272 347 411
#     4  10  22  41  64  90 125 175 225 269 341 383
#     4  11  23  45  70 104 135 183 217 283 338 414
#     4  11  23  40  66  96 130 173 219 280 323 404
#     4  10  20  40  58  90 116 172 212 276 318 394
#     4  10  24  40  61  86 130 169 222 273 330 390
#     4  11  23  40  62  90 129 169 221 275 329 392
#
# _framework density 21.890974
#
# number of rings (size 3 to 8) (size 9 to 14) (size 15 to 20)
#    0.000    1.333    1.333    5.600    5.600    0.000 
#    4.800    1.333    0.000    0.000    0.000    0.000 
#    0.000    0.000    0.000    0.000    0.000    0.000 
#
# Total GULP energy -334383.204063 kJ/mol
# GULP energy per Si atom -5573.053401 kJ/mol
# Density = 2.184115 g / cm^3
# Si number density = 21.890974 Si / 1000 Ang^3
#
#
#
# Elastic Constant Matrix: (Units=GPa)
#
#
# Indices 1 2 3 4 5 6 
#
# 1 55.1439 -25.5630 5.2343 0.0000 0.0000 0.0000
# 2 -25.5630 66.9371 7.3254 0.0000 0.0000 0.0000
# 3 5.2343 7.3254 34.1615 0.0000 0.0000 0.0000
# 4 0.0000 0.0000 0.0000 26.5242 0.0000 0.0000
# 5 0.0000 0.0000 0.0000 0.0000 32.6660 0.0000
# 6 0.0000 0.0000 0.0000 0.0000 0.0000 22.8943
#
#
#
# Elastic Compliance Matrix: (Units=1/GPa)
#
#
# Indices 1 2 3 4 5 6 
#
# 1 0.023016 0.009396 -0.005541 0.000000 0.000000 0.000000
# 2 0.009396 0.019134 -0.005543 0.000000 0.000000 0.000000
# 3 -0.005541 -0.005543 0.031310 0.000000 0.000000 0.000000
# 4 0.000000 0.000000 0.000000 0.037701 0.000000 0.000000
# 5 0.000000 0.000000 0.000000 0.000000 0.030613 0.000000
# 6 0.000000 0.000000 0.000000 0.000000 0.000000 0.043679
#
#
# Mechanical properties :
#
#
# Convention : Reuss Voigt Hill
#
# Bulk Modulus (GPa) = 14.26842 14.47066 14.36954
# Shear Modulus (GPa) = 23.56358 27.69995 25.63177
#
# Velocity S-wave (km/s) = 3.28442 3.56105 3.42553
# Velocity P-wave (km/s) = 4.57333 4.85106 4.71424
#
# Compressibility (1/GPa) = 0.07008484
#
# Stress axis : x y z
#
# Youngs Moduli (GPa) = 43.44775 52.26196 31.93828
#
# Poissons Ratio (x) = -0.49106 0.17699
# Poissons Ratio (y) = -0.40824 0.17703
# Poissons Ratio (z) = 0.24076 0.28968
#
# Static dielectric constant tensor:
#      x y z
#    x 1.798730 0.000000 0.000000 
#    y 0.000000 1.859520 0.000000 
#    z 0.000000 0.000000 1.815490 
# 
# From -- ./inp_files/4947.got.cif
#   From: 2010.05.17/outbox.cif.g08.bks.cpg/sg61_3_cif.got.tgz:4947.got - 2010.06.03 15:17:17.
