data_PCOD9459378
_publ_section_title
;
Structure prediction by ZEFSAII (Michael W. Deem and Ramdas Pophale) SiO2 
 PCOD9459378
Probable space group: P B C A
;
_chemical_formula_sum "Si O2"
_cell_formula_units_Z 64
_cell_length_a 18.444087
_cell_length_b 16.191444
_cell_length_c 8.881317
_cell_angle_alpha 90.000000
_cell_angle_beta 90.000000
_cell_angle_gamma 90.000000
_cell_volume 2652.284552
_symmetry_space_group_name_H-M "P B C A"
_symmetry_group_IT_number 61
_symmetry_cell_setting 'orthorhombic'
loop_
_space_group_symop_operation_xyz
x,y,z
1/2-x,-y,1/2+z
1/2+x,1/2-y,-z
-x,1/2+y,1/2-z
-x,-y,-z
1/2+x,y,1/2-z
1/2-x,1/2+y,z
x,1/2-y,1/2+z
loop_
_atom_site_type_symbol
_atom_site_label
_atom_site_fract_x
_atom_site_fract_y
_atom_site_fract_z
Si Si1 0.132664 0.518120 0.143855
Si Si2 0.993185 0.750978 0.572917
Si Si3 0.941262 0.638227 0.809056
Si Si4 0.781856 0.540307 0.243373
Si Si5 0.407384 0.441306 0.309106
Si Si6 0.416402 0.163444 0.327534
Si Si7 0.732182 0.645075 0.697669
Si Si8 0.255296 0.192421 0.455412
O O1 0.214772 0.553250 0.143829
O O2 0.090406 0.570395 0.268832
O O3 0.125132 0.422703 0.183088
O O4 0.096083 0.527956 0.981181
O O5 0.936606 0.708879 0.685039
O O6 0.958017 0.820970 0.469660
O O7 0.056386 0.787868 0.678967
O O8 0.026912 0.685140 0.457386
O O9 0.012590 0.584458 0.767876
O O10 0.862318 0.508988 0.288831
O O11 0.754197 0.452886 0.170377
O O12 0.785587 0.618856 0.134511
O O13 0.356426 0.360015 0.310138
O O14 0.337599 0.183808 0.393907
O O15 0.764268 0.713451 0.586483
O O16 0.747196 0.674737 0.867913
#
# Coordination Sequence:
#
# PCOD9459378 Si02
#       8
#     8   8   8   8   8   8   8   8
#     4  11  22  40  66  92 129 175 213 266 338 393
#     4  10  21  38  59  97 127 165 211 275 317 389
#     4  11  22  40  69  93 129 170 218 270 329 394
#     4   9  24  40  61  91 135 168 216 271 327 398
#     4  10  21  38  63  91 124 166 227 265 325 388
#     4  10  20  33  61  89 125 158 217 260 319 373
#     4  10  23  35  63  90 123 168 219 263 329 381
#     4  11  20  36  60  92 123 167 214 276 319 387
#
# _framework density 24.130140000000001
#
# number of rings (size 3 to 8) (size 9 to 14) (size 15 to 20)
#    0.750    1.000    1.250    4.125    3.500    0.500 
#    0.000    2.500    0.000    0.000    0.000    0.000 
#    0.000    0.000    0.000    0.000    0.000    0.000 
#
# Total GULP energy -357306.748635 kJ/mol
# GULP energy per Si atom -5582.917947 kJ/mol
# Density = 2.407522 g / cm^3
# Si number density = 24.130140 Si / 1000 Ang^3
#
#
#
# Elastic Constant Matrix: (Units=GPa)
#
#
# Indices 1 2 3 4 5 6 
#
# 1 54.4037 -3.8516 7.0892 0.0000 0.0000 0.0000
# 2 -3.8516 83.1285 11.6974 0.0000 0.0000 0.0000
# 3 7.0892 11.6974 80.7428 0.0000 0.0000 0.0000
# 4 0.0000 0.0000 0.0000 -19.5750 0.0000 0.0000
# 5 0.0000 0.0000 0.0000 0.0000 0.8641 0.0000
# 6 0.0000 0.0000 0.0000 0.0000 0.0000 21.6535
#
#
#
# Elastic Compliance Matrix: (Units=1/GPa)
#
#
# Indices 1 2 3 4 5 6 
#
# 1 0.018695 0.001120 -0.001804 0.000000 0.000000 0.000000
# 2 0.001120 0.012347 -0.001887 0.000000 0.000000 0.000000
# 3 -0.001804 -0.001887 0.012817 0.000000 0.000000 0.000000
# 4 0.000000 0.000000 0.000000 -0.051085 0.000000 0.000000
# 5 0.000000 0.000000 0.000000 0.000000 1.157312 0.000000
# 6 0.000000 0.000000 0.000000 0.000000 0.000000 0.046182
#
#
# Mechanical properties :
#
#
# Convention : Reuss Voigt Hill
#
# Bulk Modulus (GPa) = 25.82800 27.57166 26.69983
# Shear Modulus (GPa) = 4.11755 14.14451 9.13103
#
# Velocity S-wave (km/s) = 1.30771 2.42373 1.94738
# Velocity P-wave (km/s) = 3.60652 4.39132 4.01813
#
# Compressibility (1/GPa) = 0.03871767
#
# Stress axis : x y z
#
# Youngs Moduli (GPa) = 53.48900 80.99128 78.02283
#
# Poissons Ratio (x) = -0.09071 0.14073
# Poissons Ratio (y) = -0.05991 0.14724
# Poissons Ratio (z) = 0.09648 0.15284
#
# Static dielectric constant tensor:
#      x y z
#    x 1.970490 0.000000 0.000000 
#    y 0.000000 1.954210 0.000000 
#    z 0.000000 0.000000 1.894800 
# 
# From -- ./inp_files/4388.got.cif
#   From: 2010.05.17/outbox.cif.g08.bks.cpg/sg61_3_cif.got.tgz:4388.got - 2010.06.03 15:17:17.
