data_PCOD9459616
_publ_section_title
;
Structure prediction by ZEFSAII (Michael W. Deem and Ramdas Pophale) SiO2 
 PCOD9459616
Probable space group: P B C A
;
_chemical_formula_sum "Si O2"
_cell_formula_units_Z 64
_cell_length_a 10.464618
_cell_length_b 15.868456
_cell_length_c 14.935380
_cell_angle_alpha 90.000000
_cell_angle_beta 90.000000
_cell_angle_gamma 90.000000
_cell_volume 2480.129330
_symmetry_space_group_name_H-M "P B C A"
_symmetry_group_IT_number 61
_symmetry_cell_setting 'orthorhombic'
loop_
_space_group_symop_operation_xyz
x,y,z
1/2-x,-y,1/2+z
1/2+x,1/2-y,-z
-x,1/2+y,1/2-z
-x,-y,-z
1/2+x,y,1/2-z
1/2-x,1/2+y,z
x,1/2-y,1/2+z
loop_
_atom_site_type_symbol
_atom_site_label
_atom_site_fract_x
_atom_site_fract_y
_atom_site_fract_z
Si Si1 0.358232 0.410808 0.642976
Si Si2 0.084302 0.524014 0.850373
Si Si3 0.051026 0.638518 0.510613
Si Si4 0.383716 0.660247 0.683993
Si Si5 0.845294 0.769610 0.118124
Si Si6 0.348892 0.026316 0.649162
Si Si7 0.801373 0.094208 0.148077
Si Si8 0.256767 0.233242 0.052443
O O1 0.477764 0.462435 0.608351
O O2 0.226195 0.448996 0.604775
O O3 0.341738 0.415440 0.749168
O O4 0.357114 0.315689 0.613292
O O5 0.091896 0.503725 0.744046
O O6 0.221598 0.488994 0.882603
O O7 0.014930 0.615030 0.846871
O O8 0.047198 0.564445 0.582722
O O9 0.070573 0.610532 0.409435
O O10 0.192379 0.674872 0.527857
O O11 0.956269 0.710608 0.544798
O O12 0.380345 0.687121 0.788434
O O13 0.267633 0.591861 0.674851
O O14 0.355219 0.741683 0.622391
O O15 0.795426 0.675556 0.141964
O O16 0.740904 0.807368 0.047657
#
# Coordination Sequence:
#
# PCOD9459616 Si02
#       8
#     8   8   8   8   8   8   8   8
#     4  10  20  39  61  89 123 167 213 265 328 387
#     4  10  20  40  67  89 123 177 213 258 336 395
#     4  10  21  40  60  92 131 167 211 275 315 394
#     4  10  20  41  66  92 126 175 215 267 330 392
#     4  11  21  41  65  95 132 170 221 272 335 391
#     4   9  20  38  61  88 127 161 214 263 321 393
#     4  10  22  39  63  97 132 165 218 275 329 392
#     4  10  22  40  61  96 129 163 218 270 327 392
#
# _framework density 25.805107
#
# number of rings (size 3 to 8) (size 9 to 14) (size 15 to 20)
#    0.000    2.000    2.500    0.750    0.000    2.000 
#   13.500   11.250    0.000    0.000    0.000    0.000 
#    0.000    0.000    0.000    0.000    0.000    0.000 
#
# Total GULP energy -356348.046771 kJ/mol
# GULP energy per Si atom -5567.938231 kJ/mol
# Density = 2.574637 g / cm^3
# Si number density = 25.805107 Si / 1000 Ang^3
#
#
#
# Elastic Constant Matrix: (Units=GPa)
#
#
# Indices 1 2 3 4 5 6 
#
# 1 67.5471 22.6443 28.9782 0.0000 0.0000 0.0000
# 2 22.6443 61.4649 37.3147 0.0000 0.0000 0.0000
# 3 28.9782 37.3147 105.7824 0.0000 0.0000 0.0000
# 4 0.0000 0.0000 0.0000 14.6252 0.0000 0.0000
# 5 0.0000 0.0000 0.0000 0.0000 17.8356 0.0000
# 6 0.0000 0.0000 0.0000 0.0000 0.0000 38.4021
#
#
#
# Elastic Compliance Matrix: (Units=1/GPa)
#
#
# Indices 1 2 3 4 5 6 
#
# 1 0.017726 -0.004559 -0.003248 0.000000 0.000000 0.000000
# 2 -0.004559 0.021875 -0.006468 0.000000 0.000000 0.000000
# 3 -0.003248 -0.006468 0.012625 0.000000 0.000000 0.000000
# 4 0.000000 0.000000 0.000000 0.068375 0.000000 0.000000
# 5 0.000000 0.000000 0.000000 0.000000 0.056068 0.000000
# 6 0.000000 0.000000 0.000000 0.000000 0.000000 0.026040
#
#
# Mechanical properties :
#
#
# Convention : Reuss Voigt Hill
#
# Bulk Modulus (GPa) = 42.23419 45.85209 44.04314
# Shear Modulus (GPa) = 20.90734 23.89638 22.40186
#
# Velocity S-wave (km/s) = 2.84949 3.04638 2.94958
# Velocity P-wave (km/s) = 5.21807 5.49373 5.35768
#
# Compressibility (1/GPa) = 0.02367750
#
# Stress axis : x y z
#
# Youngs Moduli (GPa) = 56.41404 45.71343 79.21060
#
# Poissons Ratio (x) = 0.20840 0.25726
# Poissons Ratio (y) = 0.25718 0.51231
# Poissons Ratio (z) = 0.18322 0.29566
#
# Static dielectric constant tensor:
#      x y z
#    x 2.373560 0.000000 0.000000 
#    y 0.000000 2.068750 0.000000 
#    z 0.000000 0.000000 2.067540 
# 
# From -- ./inp_files/7646.got.cif
#   From: 2010.05.17/outbox.cif.g08.bks.cpg/sg61_4_cif.got.tgz:7646.got - 2010.06.03 15:17:17.
